0
                    3D
 Structure written by MMmdl.
164171  0  0  1  0            999 V2000
  -30.6303  -14.7371   20.4559 C   0  0  0  0  0  0
  -30.4270  -12.4473   19.5263 C   0  0  0  0  0  0
  -29.5383  -12.5513   18.2706 C   0  0  0  0  0  0
  -28.0599  -12.3576   18.6584 C   0  0  0  0  0  0
  -27.6409  -13.2550   19.8582 C   0  0  2  0  0  0
  -28.6750  -13.2152   21.0093 C   0  0  0  0  0  0
  -25.2444  -13.8297   20.5727 C   0  0  0  0  0  0
  -24.1778  -13.0505   20.9210 C   0  0  0  0  0  0
  -24.6418  -11.6963   20.8752 C   0  0  0  0  0  0
  -23.9143  -10.4330   21.0396 C   0  0  0  0  0  0
  -24.3700   -9.4207   21.9135 C   0  0  0  0  0  0
  -23.6382   -8.2260   22.0717 C   0  0  0  0  0  0
  -22.4343   -8.0296   21.3510 C   0  0  0  0  0  0
  -21.9996   -9.0280   20.4629 C   0  0  0  0  0  0
  -22.7330  -10.2136   20.3033 C   0  0  0  0  0  0
  -21.6865   -6.0760   22.5258 C   0  0  0  0  0  0
  -21.4027   -6.5664   23.8215 C   0  0  0  0  0  0
  -21.3686   -5.6800   24.9168 C   0  0  0  0  0  0
  -21.6030   -4.3068   24.7192 C   0  0  0  0  0  0
  -21.8823   -3.8163   23.4311 C   0  0  0  0  0  0
  -21.9212   -4.7004   22.3375 C   0  0  0  0  0  0
  -22.7780  -13.5176   21.1917 C   0  0  0  0  0  0
  -22.1622   -4.2191   21.0937 F   0  0  0  0  0  0
  -21.5659   -3.4518   25.7680 F   0  0  0  0  0  0
  -29.9993  -13.5169   20.4491 N   0  0  0  0  0  0
  -26.2890  -12.9553   20.3283 N   0  0  0  0  0  0
  -25.9347  -11.6655   20.5753 N   0  0  0  0  0  0
  -22.0405  -12.8197   22.0468 N   0  0  0  0  0  0
  -25.4098  -15.2096   20.4254 N   0  0  0  0  0  0
  -31.7956  -14.8446   20.0607 O   0  0  0  0  0  0
  -21.6666   -6.8916   21.4237 O   0  0  0  0  0  0
  -22.3426  -14.5473   20.6765 O   0  0  0  0  0  0
  -24.6333  -31.8715   23.1960 C   0  0  0  0  0  0
  -25.9165  -32.4841   23.8284 C   0  0  1  0  0  0
  -27.1943  -27.3242   20.1246 C   0  0  0  0  0  0
  -25.6012  -33.8625   24.2277 N   0  0  0  0  0  0
  -23.4169  -30.5094   21.5501 C   0  0  2  0  0  0
  -24.8479  -28.9687   20.1080 C   0  0  0  0  0  0
  -22.7488  -29.4750   22.4870 C   0  0  0  0  0  0
  -18.0317  -28.1358   22.8531 C   0  0  0  0  0  0
  -24.1532  -36.7327   23.2603 C   0  0  0  0  0  0
  -25.9563  -30.8249   21.3329 C   0  0  0  0  0  0
  -26.0305  -29.4491   20.6827 C   0  0  0  0  0  0
  -27.2176  -28.6528   20.6528 C   0  0  0  0  0  0
  -25.9852  -26.8983   19.5223 C   0  0  0  0  0  0
  -24.8289  -27.6967   19.5155 C   0  0  0  0  0  0
  -23.6212  -29.8618   20.1640 C   0  0  0  0  0  0
  -25.4146  -36.3136   24.0329 C   0  0  1  0  0  0
  -20.5939  -28.3718   23.1264 C   0  0  2  0  0  0
  -20.6820  -26.9429   22.5374 C   0  0  0  0  0  0
  -19.5781  -26.6394   21.5202 C   0  0  0  0  0  0
  -18.1947  -26.7923   22.1613 C   0  0  0  0  0  0
  -19.1555  -28.8834   23.2931 C   0  0  0  0  0  0
  -18.9461  -30.1417   23.8958 C   0  0  0  0  0  0
  -17.6450  -30.6555   24.0586 C   0  0  0  0  0  0
  -25.9066  -34.9505   23.5090 C   0  0  0  0  0  0
  -16.5359  -29.9048   23.6331 C   0  0  0  0  0  0
  -16.7287  -28.6463   23.0376 C   0  0  0  0  0  0
  -26.4467  -31.6543   25.0583 C   0  0  0  0  0  0
  -25.3624  -31.3764   26.1241 C   0  0  0  0  0  0
  -27.0266  -30.3009   24.5852 C   0  0  0  0  0  0
  -27.6065  -32.4187   25.7375 C   0  0  0  0  0  0
  -27.5643  -37.1825   24.8448 C   0  0  0  0  0  0
  -21.4184  -29.3133   22.3659 N   0  0  0  0  0  0
  -26.4350  -37.3815   23.9397 N   0  0  0  0  0  0
  -24.6939  -31.0800   22.0892 N   0  0  0  0  0  0
  -23.4271  -28.8213   23.2879 O   0  0  0  0  0  0
  -28.2873  -26.4479   20.2142 O   0  0  0  0  0  0
  -26.5576  -34.8965   22.4608 O   0  0  0  0  0  0
  -23.5537  -32.1440   23.7383 O   0  0  0  0  0  0
  -30.3729  -24.5163   19.8531 C   0  0  0  0  0  0
  -30.4117  -18.5293   22.3492 C   0  0  0  0  0  0
  -28.0980  -18.2521   21.4919 C   0  0  0  0  0  0
  -30.8246  -21.6773   21.6796 C   0  0  0  0  0  0
  -30.0784  -17.2840   20.1730 C   0  0  0  0  0  0
  -28.8551  -22.4275   20.2953 C   0  0  0  0  0  0
  -29.5668  -19.9515   20.2985 C   0  0  0  0  0  0
  -27.9864  -25.0076   20.4663 C   0  0  0  0  0  0
  -29.1788  -23.9715   20.6525 C   0  0  2  0  0  0
  -29.5578  -18.5210   21.0687 C   0  0  0  0  0  0
  -29.8621  -15.8607   20.6758 N   0  0  0  0  0  0
  -29.5222  -21.2781   21.0674 N   0  3  1  0  0  0
  -31.4811  -12.5314   19.2592 H   0  0  0  0  0  0
  -30.3076  -11.4760   20.0069 H   0  0  0  0  0  0
  -29.8509  -11.8132   17.5319 H   0  0  0  0  0  0
  -29.6779  -13.5291   17.8054 H   0  0  0  0  0  0
  -27.9331  -11.3091   18.9264 H   0  0  0  0  0  0
  -27.4148  -12.5392   17.7981 H   0  0  0  0  0  0
  -27.6296  -14.2752   19.4762 H   0  0  0  0  0  0
  -28.6789  -12.2404   21.5073 H   0  0  0  0  0  0
  -28.4019  -13.9492   21.7688 H   0  0  0  0  0  0
  -25.2843   -9.5720   22.4701 H   0  0  0  0  0  0
  -24.0087   -7.4667   22.7444 H   0  0  0  0  0  0
  -21.0897   -8.8886   19.8937 H   0  0  0  0  0  0
  -22.3827  -10.9720   19.6174 H   0  0  0  0  0  0
  -21.1965   -7.6157   23.9767 H   0  0  0  0  0  0
  -21.1519   -6.0479   25.9101 H   0  0  0  0  0  0
  -22.0579   -2.7628   23.2797 H   0  0  0  0  0  0
  -22.4020  -11.9889   22.4938 H   0  0  0  0  0  0
  -21.1003  -13.1224   22.2613 H   0  0  0  0  0  0
  -24.6455  -15.8669   20.5492 H   0  0  0  0  0  0
  -26.2742  -15.6639   20.1650 H   0  0  0  0  0  0
  -26.7207  -32.5539   23.1041 H   0  0  0  0  0  0
  -25.0369  -33.9722   25.0576 H   0  0  0  0  0  0
  -22.7215  -31.3454   21.4286 H   0  0  0  0  0  0
  -23.3844  -35.9599   23.3167 H   0  0  0  0  0  0
  -24.3714  -36.9005   22.2040 H   0  0  0  0  0  0
  -23.7175  -37.6478   23.6635 H   0  0  0  0  0  0
  -26.0364  -31.5804   20.5505 H   0  0  0  0  0  0
  -26.8682  -30.9177   21.9139 H   0  0  0  0  0  0
  -28.1412  -29.0494   21.0501 H   0  0  0  0  0  0
  -25.8967  -25.9330   19.0483 H   0  0  0  0  0  0
  -23.9115  -27.3244   19.0738 H   0  0  0  0  0  0
  -23.7361  -30.6545   19.4221 H   0  0  0  0  0  0
  -22.7268  -29.3157   19.8591 H   0  0  0  0  0  0
  -25.1311  -36.2014   25.0830 H   0  0  0  0  0  0
  -21.0113  -28.3238   24.1348 H   0  0  0  0  0  0
  -20.5784  -26.2290   23.3566 H   0  0  0  0  0  0
  -21.6676  -26.7476   22.1102 H   0  0  0  0  0  0
  -19.6934  -25.6303   21.1205 H   0  0  0  0  0  0
  -19.6691  -27.3227   20.6753 H   0  0  0  0  0  0
  -17.4263  -26.6778   21.3958 H   0  0  0  0  0  0
  -18.0262  -25.9971   22.8899 H   0  0  0  0  0  0
  -19.7924  -30.7221   24.2349 H   0  0  0  0  0  0
  -17.4999  -31.6244   24.5154 H   0  0  0  0  0  0
  -15.5353  -30.2976   23.7569 H   0  0  0  0  0  0
  -15.8705  -28.0763   22.7092 H   0  0  0  0  0  0
  -24.5852  -30.7038   25.7544 H   0  0  0  0  0  0
  -24.8710  -32.2981   26.4397 H   0  0  0  0  0  0
  -25.7830  -30.9116   27.0160 H   0  0  0  0  0  0
  -26.2786  -29.6814   24.0867 H   0  0  0  0  0  0
  -27.4100  -29.7144   25.4207 H   0  0  0  0  0  0
  -27.8567  -30.4395   23.8920 H   0  0  0  0  0  0
  -27.2700  -33.3455   26.2042 H   0  0  0  0  0  0
  -28.3849  -32.6774   25.0175 H   0  0  0  0  0  0
  -28.0726  -31.8192   26.5209 H   0  0  0  0  0  0
  -28.2630  -38.0163   24.7573 H   0  0  0  0  0  0
  -28.1200  -36.2711   24.6190 H   0  0  0  0  0  0
  -27.2401  -37.1335   25.8862 H   0  0  0  0  0  0
  -20.9241  -29.8964   21.7019 H   0  0  0  0  0  0
  -26.0270  -38.2911   24.1388 H   0  0  0  0  0  0
  -31.0015  -23.7119   19.4746 H   0  0  0  0  0  0
  -30.9787  -25.1732   20.4839 H   0  0  0  0  0  0
  -30.0380  -25.1146   18.9978 H   0  0  0  0  0  0
  -30.3372  -17.5848   22.8905 H   0  0  0  0  0  0
  -30.0781  -19.2990   23.0430 H   0  0  0  0  0  0
  -31.4657  -18.6936   22.1335 H   0  0  0  0  0  0
  -27.9730  -17.2790   21.9697 H   0  0  0  0  0  0
  -27.4190  -18.2897   20.6394 H   0  0  0  0  0  0
  -27.7507  -19.0017   22.2040 H   0  0  0  0  0  0
  -30.6531  -22.4060   22.4731 H   0  0  0  0  0  0
  -31.4911  -22.1265   20.9449 H   0  0  0  0  0  0
  -31.3813  -20.8809   22.1743 H   0  0  0  0  0  0
  -31.1415  -17.4259   19.9504 H   0  0  0  0  0  0
  -29.5864  -17.3592   19.1992 H   0  0  0  0  0  0
  -29.0754  -22.2837   19.2322 H   0  0  0  0  0  0
  -27.7755  -22.2707   20.3686 H   0  0  0  0  0  0
  -28.6579  -19.9621   19.6920 H   0  0  0  0  0  0
  -30.3596  -19.9980   19.5508 H   0  0  0  0  0  0
  -27.3843  -24.9552   21.3792 H   0  0  0  0  0  0
  -27.3626  -24.6028   19.6698 H   0  0  0  0  0  0
  -29.4619  -24.0234   21.7030 H   0  0  0  0  0  0
  -28.9475  -15.6740   21.0577 H   0  0  0  0  0  0
  -28.9116  -21.1107   21.8569 H   0  0  0  0  0  0
  1 25  1  0  0  0
  1 30  2  0  0  0
  1 81  1  0  0  0
  2  3  1  0  0  0
  2 25  1  0  0  0
  2 83  1  0  0  0
  2 84  1  0  0  0
  3  4  1  0  0  0
  3 85  1  0  0  0
  3 86  1  0  0  0
  4  5  1  0  0  0
  4 87  1  0  0  0
  4 88  1  0  0  0
  5  6  1  0  0  0
  5 26  1  0  0  0
  5 89  1  0  0  0
  6 25  1  0  0  0
  6 90  1  0  0  0
  6 91  1  0  0  0
  7  8  2  0  0  0
  7 26  1  0  0  0
  7 29  1  0  0  0
  8  9  1  0  0  0
  8 22  1  0  0  0
  9 10  1  0  0  0
  9 27  2  0  0  0
 10 11  2  0  0  0
 10 15  1  0  0  0
 11 12  1  0  0  0
 11 92  1  0  0  0
 12 13  2  0  0  0
 12 93  1  0  0  0
 13 14  1  0  0  0
 13 31  1  0  0  0
 14 15  2  0  0  0
 14 94  1  0  0  0
 15 95  1  0  0  0
 16 17  2  0  0  0
 16 21  1  0  0  0
 16 31  1  0  0  0
 17 18  1  0  0  0
 17 96  1  0  0  0
 18 19  2  0  0  0
 18 97  1  0  0  0
 19 20  1  0  0  0
 19 24  1  0  0  0
 20 21  2  0  0  0
 20 98  1  0  0  0
 21 23  1  0  0  0
 22 28  1  0  0  0
 22 32  2  0  0  0
 26 27  1  0  0  0
 28 99  1  0  0  0
 28100  1  0  0  0
 29101  1  0  0  0
 29102  1  0  0  0
 33 34  1  0  0  0
 33 66  1  0  0  0
 33 70  2  0  0  0
 34 36  1  0  0  0
 34 59  1  0  0  0
 34103  1  0  0  0
 35 44  2  0  0  0
 35 45  1  0  0  0
 35 68  1  0  0  0
 36 56  1  0  0  0
 36104  1  0  0  0
 37 39  1  0  0  0
 37 47  1  0  0  0
 37 66  1  0  0  0
 37105  1  0  0  0
 38 43  2  0  0  0
 38 46  1  0  0  0
 38 47  1  0  0  0
 39 64  1  0  0  0
 39 67  2  0  0  0
 40 52  1  0  0  0
 40 53  2  0  0  0
 40 58  1  0  0  0
 41106  1  0  0  0
 41107  1  0  0  0
 41108  1  0  0  0
 41 48  1  0  0  0
 42 43  1  0  0  0
 42 66  1  0  0  0
 42109  1  0  0  0
 42110  1  0  0  0
 43 44  1  0  0  0
 44111  1  0  0  0
 45 46  2  0  0  0
 45112  1  0  0  0
 46113  1  0  0  0
 47114  1  0  0  0
 47115  1  0  0  0
 48 56  1  0  0  0
 48 65  1  0  0  0
 48116  1  0  0  0
 49 50  1  0  0  0
 49 53  1  0  0  0
 49 64  1  0  0  0
 49117  1  0  0  0
 50 51  1  0  0  0
 50118  1  0  0  0
 50119  1  0  0  0
 51 52  1  0  0  0
 51120  1  0  0  0
 51121  1  0  0  0
 52122  1  0  0  0
 52123  1  0  0  0
 53 54  1  0  0  0
 54 55  2  0  0  0
 54124  1  0  0  0
 55 57  1  0  0  0
 55125  1  0  0  0
 56 69  2  0  0  0
 57 58  2  0  0  0
 57126  1  0  0  0
 58127  1  0  0  0
 59 60  1  0  0  0
 59 61  1  0  0  0
 59 62  1  0  0  0
 60128  1  0  0  0
 60129  1  0  0  0
 60130  1  0  0  0
 61131  1  0  0  0
 61132  1  0  0  0
 61133  1  0  0  0
 62134  1  0  0  0
 62135  1  0  0  0
 62136  1  0  0  0
 63 65  1  0  0  0
 63137  1  0  0  0
 63138  1  0  0  0
 63139  1  0  0  0
 64140  1  0  0  0
 65141  1  0  0  0
 68 78  1  0  0  0
 71142  1  0  0  0
 71143  1  0  0  0
 71144  1  0  0  0
 71 79  1  0  0  0
 72145  1  0  0  0
 72146  1  0  0  0
 72147  1  0  0  0
 72 80  1  0  0  0
 73 80  1  0  0  0
 73148  1  0  0  0
 73149  1  0  0  0
 73150  1  0  0  0
 74151  1  0  0  0
 74152  1  0  0  0
 74153  1  0  0  0
 74 82  1  0  0  0
 75 80  1  0  0  0
 75 81  1  0  0  0
 75154  1  0  0  0
 75155  1  0  0  0
 76 79  1  0  0  0
 76 82  1  0  0  0
 76156  1  0  0  0
 76157  1  0  0  0
 77 80  1  0  0  0
 77 82  1  0  0  0
 77158  1  0  0  0
 77159  1  0  0  0
 78 79  1  0  0  0
 78160  1  0  0  0
 78161  1  0  0  0
 79162  1  0  0  0
 81163  1  0  0  0
 82164  1  0  0  0
M  CHG  1  82   1
M  ISO  4   1 100  68 101  78 101  81 100
M  END
> <chiral flag>
0

> <version>
0

> <s_m_source_file>
/data/baiqing/PycharmProjects/Reinvent-master-3.2/result/LINK_invent/BTK/process_docking_weight1_custom_sum_contain_oxygen_bond_distance_aromatic_linkinvent_7_9_3/rearranged_h_0100.sdf

> <i_m_source_file_index>
1

> <r_mmod_Potential_Energy-OPLS-2005>
51.5253105163574

> <r_mmod_Stretch_Energy-OPLS-2005>
105.278366088867

> <r_mmod_Bend_Energy-OPLS-2005>
158.811584472656

> <r_mmod_Torsional_Energy-OPLS-2005>
287.235260009766

> <r_mmod_Improper_Torsional_Energy-OPLS-2005>
5.94476175308228

> <r_mmod_Van_der_Waal_Energy-OPLS-2005>
137.265472412109

> <r_mmod_Electrostatic_Energy-OPLS-2005>
-275.118499755859

> <r_mmod_Solvation_Energy-OPLS-2005>
-445.407501220703

> <b_mmod_Minimization_Converged-OPLS-2005>
0

> <r_mmod_RMS_Derivative-OPLS-2005>
10.7661142349243

$$$$
1
                    3D
 Structure written by MMmdl.
155162  0  0  1  0            999 V2000
  -30.3311  -15.5523   20.3345 C   0  0  0  0  0  0
  -30.4272  -13.0199   19.5317 C   0  0  0  0  0  0
  -29.5456  -12.6339   18.3119 C   0  0  0  0  0  0
  -28.1121  -12.2977   18.7520 C   0  0  0  0  0  0
  -27.5971  -13.2991   19.8118 C   0  0  2  0  0  0
  -28.6187  -13.5983   20.9323 C   0  0  0  0  0  0
  -25.2331  -13.8267   20.5782 C   0  0  0  0  0  0
  -24.1713  -13.0426   20.9281 C   0  0  0  0  0  0
  -24.6403  -11.6934   20.8761 C   0  0  0  0  0  0
  -23.9105  -10.4285   21.0395 C   0  0  0  0  0  0
  -24.3644   -9.4201   21.9178 C   0  0  0  0  0  0
  -23.6310   -8.2241   22.0753 C   0  0  0  0  0  0
  -22.4291   -8.0280   21.3543 C   0  0  0  0  0  0
  -21.9934   -9.0253   20.4642 C   0  0  0  0  0  0
  -22.7271  -10.2127   20.3048 C   0  0  0  0  0  0
  -21.6858   -6.0737   22.5280 C   0  0  0  0  0  0
  -21.4017   -6.5641   23.8212 C   0  0  0  0  0  0
  -21.3662   -5.6793   24.9174 C   0  0  0  0  0  0
  -21.6046   -4.3056   24.7225 C   0  0  0  0  0  0
  -21.8819   -3.8146   23.4347 C   0  0  0  0  0  0
  -21.9195   -4.6964   22.3403 C   0  0  0  0  0  0
  -22.7726  -13.5163   21.1919 C   0  0  0  0  0  0
  -22.1661   -4.2149   21.0981 F   0  0  0  0  0  0
  -21.5630   -3.4539   25.7737 F   0  0  0  0  0  0
  -29.8022  -14.1976   20.2782 N   0  0  0  0  0  0
  -26.2769  -12.9582   20.3219 N   0  0  0  0  0  0
  -25.9346  -11.6663   20.5699 N   0  0  0  0  0  0
  -22.0393  -12.8138   22.0471 N   0  0  0  0  0  0
  -25.3925  -15.2008   20.4223 N   0  0  0  0  0  0
  -31.5653  -15.5020   20.1825 O   0  0  0  0  0  0
  -21.6649   -6.8880   21.4243 O   0  0  0  0  0  0
  -22.3394  -14.5458   20.6752 O   0  0  0  0  0  0
  -24.6808  -31.8034   23.1539 C   0  0  0  0  0  0
  -25.9406  -32.4481   23.8074 C   0  0  1  0  0  0
  -27.2227  -26.7377   20.2096 C   0  0  0  0  0  0
  -25.5998  -33.8304   24.1964 N   0  0  0  0  0  0
  -23.5045  -30.4068   21.5076 C   0  0  2  0  0  0
  -24.9599  -28.7533   20.1176 C   0  0  0  0  0  0
  -22.7747  -29.4337   22.4723 C   0  0  0  0  0  0
  -18.0334  -28.1423   22.8455 C   0  0  0  0  0  0
  -24.1496  -36.7158   23.2651 C   0  0  0  0  0  0
  -26.0835  -30.5480   21.4120 C   0  0  0  0  0  0
  -26.1489  -29.1166   20.7611 C   0  0  0  0  0  0
  -27.2678  -28.1363   20.7730 C   0  0  0  0  0  0
  -26.0002  -26.5719   19.5134 C   0  0  0  0  0  0
  -24.9223  -27.5058   19.4706 C   0  0  0  0  0  0
  -23.7553  -29.7053   20.1419 C   0  0  0  0  0  0
  -25.4144  -36.2901   24.0282 C   0  0  1  0  0  0
  -20.5969  -28.3779   23.1148 C   0  0  2  0  0  0
  -20.6803  -26.9440   22.5403 C   0  0  0  0  0  0
  -19.5779  -26.6374   21.5216 C   0  0  0  0  0  0
  -18.1962  -26.7952   22.1619 C   0  0  0  0  0  0
  -19.1600  -28.8925   23.2784 C   0  0  0  0  0  0
  -18.9508  -30.1511   23.8827 C   0  0  0  0  0  0
  -17.6498  -30.6606   24.0552 C   0  0  0  0  0  0
  -25.9126  -34.9291   23.4958 C   0  0  0  0  0  0
  -16.5388  -29.9088   23.6350 C   0  0  0  0  0  0
  -16.7315  -28.6511   23.0364 C   0  0  0  0  0  0
  -26.4596  -31.6503   25.0682 C   0  0  0  0  0  0
  -25.3674  -31.3814   26.1306 C   0  0  0  0  0  0
  -27.0525  -30.2845   24.6560 C   0  0  0  0  0  0
  -27.6047  -32.4359   25.7503 C   0  0  0  0  0  0
  -27.5564  -37.1735   24.8464 C   0  0  0  0  0  0
  -21.4398  -29.3031   22.3470 N   0  0  0  0  0  0
  -26.4272  -37.3658   23.9408 N   0  0  0  0  0  0
  -24.7796  -30.9513   22.0775 N   0  0  0  0  0  0
  -23.4204  -28.7937   23.3056 O   0  0  0  0  0  0
  -28.2017  -25.5465   20.2746 O   0  0  0  0  0  0
  -26.5759  -34.8862   22.4571 O   0  0  0  0  0  0
  -23.5837  -32.1096   23.6515 O   0  0  0  0  0  0
  -29.9737  -23.7697   22.2528 C   0  0  0  0  0  0
  -31.2873  -21.7409   21.6498 C   0  0  0  0  0  0
  -29.9907  -22.4108   19.1190 C   0  0  0  0  0  0
  -28.7861  -20.2859   20.2727 C   0  0  0  0  0  0
  -29.8017  -18.6498   20.3690 C   0  0  0  0  0  0
  -28.0128  -23.8112   20.2023 C   0  0  0  0  0  0
  -29.8651  -22.3424   21.6796 C   0  0  0  0  0  0
  -29.0661  -22.1969   20.3327 C   0  0  2  0  0  0
  -29.5712  -16.9006   20.3718 N   0  0  0  0  0  0
  -31.4253  -13.2717   19.1716 H   0  0  0  0  0  0
  -30.5706  -12.1639   20.1936 H   0  0  0  0  0  0
  -29.9818  -11.7914   17.7735 H   0  0  0  0  0  0
  -29.5222  -13.4688   17.6097 H   0  0  0  0  0  0
  -28.1213  -11.2920   19.1741 H   0  0  0  0  0  0
  -27.4427  -12.2647   17.8915 H   0  0  0  0  0  0
  -27.4699  -14.2305   19.2583 H   0  0  0  0  0  0
  -28.8611  -12.7041   21.5084 H   0  0  0  0  0  0
  -28.2022  -14.3176   21.6388 H   0  0  0  0  0  0
  -25.2785   -9.5680   22.4758 H   0  0  0  0  0  0
  -24.0018   -7.4632   22.7473 H   0  0  0  0  0  0
  -21.0867   -8.8772   19.8943 H   0  0  0  0  0  0
  -22.3727  -10.9666   19.6159 H   0  0  0  0  0  0
  -21.2010   -7.6149   23.9716 H   0  0  0  0  0  0
  -21.1485   -6.0523   25.9078 H   0  0  0  0  0  0
  -22.0596   -2.7609   23.2848 H   0  0  0  0  0  0
  -22.4045  -11.9826   22.4880 H   0  0  0  0  0  0
  -21.0993  -13.1119   22.2656 H   0  0  0  0  0  0
  -24.6198  -15.8473   20.5388 H   0  0  0  0  0  0
  -26.2301  -15.6450   20.0701 H   0  0  0  0  0  0
  -26.7485  -32.4962   23.0785 H   0  0  0  0  0  0
  -25.0059  -33.9352   25.0059 H   0  0  0  0  0  0
  -22.8279  -31.2433   21.3200 H   0  0  0  0  0  0
  -23.3774  -35.9472   23.3265 H   0  0  0  0  0  0
  -24.3564  -36.8868   22.2076 H   0  0  0  0  0  0
  -23.7242  -37.6319   23.6759 H   0  0  0  0  0  0
  -26.2830  -31.2762   20.6246 H   0  0  0  0  0  0
  -26.9358  -30.6131   22.0761 H   0  0  0  0  0  0
  -28.1658  -28.4199   21.3034 H   0  0  0  0  0  0
  -25.8404  -25.6256   19.0166 H   0  0  0  0  0  0
  -24.0231  -27.2189   18.9427 H   0  0  0  0  0  0
  -23.9273  -30.4665   19.3801 H   0  0  0  0  0  0
  -22.8604  -29.1703   19.8189 H   0  0  0  0  0  0
  -25.1353  -36.1665   25.0772 H   0  0  0  0  0  0
  -21.0053  -28.3406   24.1274 H   0  0  0  0  0  0
  -20.5670  -26.2403   23.3663 H   0  0  0  0  0  0
  -21.6665  -26.7390   22.1219 H   0  0  0  0  0  0
  -19.6937  -25.6266   21.1291 H   0  0  0  0  0  0
  -19.6727  -27.3145   20.6715 H   0  0  0  0  0  0
  -17.4232  -26.6694   21.4022 H   0  0  0  0  0  0
  -18.0353  -26.0113   22.9032 H   0  0  0  0  0  0
  -19.7986  -30.7347   24.2164 H   0  0  0  0  0  0
  -17.5049  -31.6277   24.5169 H   0  0  0  0  0  0
  -15.5385  -30.2966   23.7718 H   0  0  0  0  0  0
  -15.8717  -28.0808   22.7117 H   0  0  0  0  0  0
  -24.5880  -30.7141   25.7609 H   0  0  0  0  0  0
  -24.8845  -32.3036   26.4547 H   0  0  0  0  0  0
  -25.7865  -30.9099   27.0206 H   0  0  0  0  0  0
  -26.3237  -29.6465   24.1551 H   0  0  0  0  0  0
  -27.3961  -29.7282   25.5291 H   0  0  0  0  0  0
  -27.9212  -30.3972   24.0071 H   0  0  0  0  0  0
  -27.2585  -33.3725   26.1886 H   0  0  0  0  0  0
  -28.3961  -32.6819   25.0409 H   0  0  0  0  0  0
  -28.0603  -31.8620   26.5584 H   0  0  0  0  0  0
  -28.2546  -38.0061   24.7510 H   0  0  0  0  0  0
  -28.1094  -36.2583   24.6294 H   0  0  0  0  0  0
  -27.2277  -37.1370   25.8865 H   0  0  0  0  0  0
  -20.9697  -29.8683   21.6536 H   0  0  0  0  0  0
  -26.0100  -38.2706   24.1422 H   0  0  0  0  0  0
  -30.5941  -23.7844   23.1497 H   0  0  0  0  0  0
  -29.0053  -24.1674   22.5570 H   0  0  0  0  0  0
  -30.4242  -24.4594   21.5381 H   0  0  0  0  0  0
  -31.7077  -21.6823   22.6542 H   0  0  0  0  0  0
  -31.9679  -22.3518   21.0556 H   0  0  0  0  0  0
  -31.3154  -20.7376   21.2370 H   0  0  0  0  0  0
  -29.4141  -22.4016   18.1938 H   0  0  0  0  0  0
  -30.7453  -21.6296   19.0255 H   0  0  0  0  0  0
  -30.5063  -23.3704   19.1730 H   0  0  0  0  0  0
  -28.0267  -20.1350   21.0403 H   0  0  0  0  0  0
  -28.2267  -20.1601   19.3453 H   0  0  0  0  0  0
  -30.3538  -18.7608   21.3016 H   0  0  0  0  0  0
  -30.5650  -18.7774   19.6010 H   0  0  0  0  0  0
  -27.2307  -23.6526   20.9451 H   0  0  0  0  0  0
  -27.4824  -23.6877   19.2581 H   0  0  0  0  0  0
  -29.3036  -21.7735   22.4225 H   0  0  0  0  0  0
  -28.5844  -16.6925   20.4326 H   0  0  0  0  0  0
  1 25  1  0  0  0
  1 30  2  0  0  0
  1 79  1  0  0  0
  2  3  1  0  0  0
  2 25  1  0  0  0
  2 80  1  0  0  0
  2 81  1  0  0  0
  3  4  1  0  0  0
  3 82  1  0  0  0
  3 83  1  0  0  0
  4  5  1  0  0  0
  4 84  1  0  0  0
  4 85  1  0  0  0
  5  6  1  0  0  0
  5 26  1  0  0  0
  5 86  1  0  0  0
  6 25  1  0  0  0
  6 87  1  0  0  0
  6 88  1  0  0  0
  7  8  2  0  0  0
  7 26  1  0  0  0
  7 29  1  0  0  0
  8  9  1  0  0  0
  8 22  1  0  0  0
  9 10  1  0  0  0
  9 27  2  0  0  0
 10 11  2  0  0  0
 10 15  1  0  0  0
 11 12  1  0  0  0
 11 89  1  0  0  0
 12 13  2  0  0  0
 12 90  1  0  0  0
 13 14  1  0  0  0
 13 31  1  0  0  0
 14 15  2  0  0  0
 14 91  1  0  0  0
 15 92  1  0  0  0
 16 17  2  0  0  0
 16 21  1  0  0  0
 16 31  1  0  0  0
 17 18  1  0  0  0
 17 93  1  0  0  0
 18 19  2  0  0  0
 18 94  1  0  0  0
 19 20  1  0  0  0
 19 24  1  0  0  0
 20 21  2  0  0  0
 20 95  1  0  0  0
 21 23  1  0  0  0
 22 28  1  0  0  0
 22 32  2  0  0  0
 26 27  1  0  0  0
 28 96  1  0  0  0
 28 97  1  0  0  0
 29 98  1  0  0  0
 29 99  1  0  0  0
 33 34  1  0  0  0
 33 66  1  0  0  0
 33 70  2  0  0  0
 34 36  1  0  0  0
 34 59  1  0  0  0
 34100  1  0  0  0
 35 44  2  0  0  0
 35 45  1  0  0  0
 35 68  1  0  0  0
 36 56  1  0  0  0
 36101  1  0  0  0
 37 39  1  0  0  0
 37 47  1  0  0  0
 37 66  1  0  0  0
 37102  1  0  0  0
 38 43  2  0  0  0
 38 46  1  0  0  0
 38 47  1  0  0  0
 39 64  1  0  0  0
 39 67  2  0  0  0
 40 52  1  0  0  0
 40 53  2  0  0  0
 40 58  1  0  0  0
 41103  1  0  0  0
 41104  1  0  0  0
 41105  1  0  0  0
 41 48  1  0  0  0
 42 43  1  0  0  0
 42 66  1  0  0  0
 42106  1  0  0  0
 42107  1  0  0  0
 43 44  1  0  0  0
 44108  1  0  0  0
 45 46  2  0  0  0
 45109  1  0  0  0
 46110  1  0  0  0
 47111  1  0  0  0
 47112  1  0  0  0
 48 56  1  0  0  0
 48 65  1  0  0  0
 48113  1  0  0  0
 49 50  1  0  0  0
 49 53  1  0  0  0
 49 64  1  0  0  0
 49114  1  0  0  0
 50 51  1  0  0  0
 50115  1  0  0  0
 50116  1  0  0  0
 51 52  1  0  0  0
 51117  1  0  0  0
 51118  1  0  0  0
 52119  1  0  0  0
 52120  1  0  0  0
 53 54  1  0  0  0
 54 55  2  0  0  0
 54121  1  0  0  0
 55 57  1  0  0  0
 55122  1  0  0  0
 56 69  2  0  0  0
 57 58  2  0  0  0
 57123  1  0  0  0
 58124  1  0  0  0
 59 60  1  0  0  0
 59 61  1  0  0  0
 59 62  1  0  0  0
 60125  1  0  0  0
 60126  1  0  0  0
 60127  1  0  0  0
 61128  1  0  0  0
 61129  1  0  0  0
 61130  1  0  0  0
 62131  1  0  0  0
 62132  1  0  0  0
 62133  1  0  0  0
 63 65  1  0  0  0
 63134  1  0  0  0
 63135  1  0  0  0
 63136  1  0  0  0
 64137  1  0  0  0
 65138  1  0  0  0
 68 76  1  0  0  0
 71139  1  0  0  0
 71140  1  0  0  0
 71141  1  0  0  0
 71 77  1  0  0  0
 72 77  1  0  0  0
 72142  1  0  0  0
 72143  1  0  0  0
 72144  1  0  0  0
 73145  1  0  0  0
 73146  1  0  0  0
 73147  1  0  0  0
 73 78  1  0  0  0
 74 75  1  0  0  0
 74 78  1  0  0  0
 74148  1  0  0  0
 74149  1  0  0  0
 75 79  1  0  0  0
 75150  1  0  0  0
 75151  1  0  0  0
 76 78  1  0  0  0
 76152  1  0  0  0
 76153  1  0  0  0
 77 78  1  0  0  0
 77154  1  0  0  0
 79155  1  0  0  0
M  ISO  4   1 100  68 101  76 101  79 100
M  END
> <chiral flag>
0

> <version>
0

> <s_m_source_file>
/data/baiqing/PycharmProjects/Reinvent-master-3.2/result/LINK_invent/BTK/process_docking_weight1_custom_sum_contain_oxygen_bond_distance_aromatic_linkinvent_7_9_3/rearranged_h_0100.sdf

> <i_m_source_file_index>
2

> <r_mmod_Potential_Energy-OPLS-2005>
2319.27685546875

> <r_mmod_Stretch_Energy-OPLS-2005>
1112.90246582031

> <r_mmod_Bend_Energy-OPLS-2005>
611.846923828125

> <r_mmod_Torsional_Energy-OPLS-2005>
238.32243347168

> <r_mmod_Improper_Torsional_Energy-OPLS-2005>
3.66786217689514

> <r_mmod_Van_der_Waal_Energy-OPLS-2005>
118.004020690918

> <r_mmod_Electrostatic_Energy-OPLS-2005>
-358.041290283203

> <r_mmod_Solvation_Energy-OPLS-2005>
-206.615951538086

> <b_mmod_Minimization_Converged-OPLS-2005>
0

> <r_mmod_RMS_Derivative-OPLS-2005>
0.552152991294861

$$$$
2
                    3D
 Structure written by MMmdl.
171179  0  0  1  0            999 V2000
  -30.6480  -14.7028   20.4918 C   0  0  0  0  0  0
  -30.4340  -12.4295   19.4988 C   0  0  0  0  0  0
  -29.5269  -12.5131   18.2510 C   0  0  0  0  0  0
  -28.0463  -12.3514   18.6498 C   0  0  0  0  0  0
  -27.6494  -13.2378   19.8633 C   0  0  2  0  0  0
  -28.6858  -13.1546   21.0090 C   0  0  0  0  0  0
  -25.2504  -13.8208   20.5669 C   0  0  0  0  0  0
  -24.1794  -13.0445   20.9166 C   0  0  0  0  0  0
  -24.6388  -11.6935   20.8721 C   0  0  0  0  0  0
  -23.9056  -10.4311   21.0379 C   0  0  0  0  0  0
  -24.3603   -9.4235   21.9162 C   0  0  0  0  0  0
  -23.6303   -8.2263   22.0730 C   0  0  0  0  0  0
  -22.4310   -8.0279   21.3505 C   0  0  0  0  0  0
  -21.9923   -9.0239   20.4606 C   0  0  0  0  0  0
  -22.7229  -10.2132   20.3019 C   0  0  0  0  0  0
  -21.6886   -6.0719   22.5265 C   0  0  0  0  0  0
  -21.4039   -6.5613   23.8188 C   0  0  0  0  0  0
  -21.3677   -5.6768   24.9150 C   0  0  0  0  0  0
  -21.6055   -4.3028   24.7203 C   0  0  0  0  0  0
  -21.8810   -3.8113   23.4323 C   0  0  0  0  0  0
  -21.9190   -4.6942   22.3389 C   0  0  0  0  0  0
  -22.7804  -13.5243   21.1805 C   0  0  0  0  0  0
  -22.1663   -4.2115   21.0978 F   0  0  0  0  0  0
  -21.5638   -3.4515   25.7713 F   0  0  0  0  0  0
  -29.9998  -13.4917   20.4392 N   0  0  0  0  0  0
  -26.2962  -12.9433   20.3291 N   0  0  0  0  0  0
  -25.9321  -11.6571   20.5697 N   0  0  0  0  0  0
  -22.0447  -12.8277   22.0395 N   0  0  0  0  0  0
  -25.4210  -15.1941   20.4105 N   0  0  0  0  0  0
  -31.8182  -14.7899   20.1097 O   0  0  0  0  0  0
  -21.6672   -6.8879   21.4238 O   0  0  0  0  0  0
  -22.3486  -14.5544   20.6631 O   0  0  0  0  0  0
  -24.6314  -31.8543   23.1973 C   0  0  0  0  0  0
  -25.9128  -32.4751   23.8344 C   0  0  1  0  0  0
  -27.2286  -27.2536   20.1579 C   0  0  0  0  0  0
  -25.5920  -33.8557   24.2245 N   0  0  0  0  0  0
  -23.4307  -30.4758   21.5394 C   0  0  2  0  0  0
  -24.8834  -28.9191   20.1151 C   0  0  0  0  0  0
  -22.7521  -29.4598   22.4900 C   0  0  0  0  0  0
  -18.0291  -28.1388   22.8473 C   0  0  0  0  0  0
  -24.1493  -36.7287   23.2641 C   0  0  0  0  0  0
  -25.9766  -30.7697   21.3778 C   0  0  0  0  0  0
  -26.0542  -29.3894   20.7243 C   0  0  0  0  0  0
  -27.2295  -28.5716   20.7298 C   0  0  0  0  0  0
  -26.0339  -26.8530   19.5153 C   0  0  0  0  0  0
  -24.8787  -27.6596   19.4979 C   0  0  0  0  0  0
  -23.6532  -29.8036   20.1586 C   0  0  0  0  0  0
  -25.4119  -36.3065   24.0321 C   0  0  1  0  0  0
  -20.5900  -28.3704   23.1266 C   0  0  2  0  0  0
  -20.6783  -26.9418   22.5414 C   0  0  0  0  0  0
  -19.5764  -26.6377   21.5213 C   0  0  0  0  0  0
  -18.1941  -26.7938   22.1619 C   0  0  0  0  0  0
  -19.1544  -28.8873   23.2863 C   0  0  0  0  0  0
  -18.9470  -30.1474   23.8874 C   0  0  0  0  0  0
  -17.6463  -30.6589   24.0559 C   0  0  0  0  0  0
  -25.9052  -34.9428   23.5088 C   0  0  0  0  0  0
  -16.5343  -29.9086   23.6336 C   0  0  0  0  0  0
  -16.7281  -28.6510   23.0350 C   0  0  0  0  0  0
  -26.4489  -31.6587   25.0742 C   0  0  0  0  0  0
  -25.3695  -31.3772   26.1458 C   0  0  0  0  0  0
  -27.0324  -30.2985   24.6254 C   0  0  0  0  0  0
  -27.6040  -32.4331   25.7515 C   0  0  0  0  0  0
  -27.5585  -37.1797   24.8460 C   0  0  0  0  0  0
  -21.4231  -29.3036   22.3650 N   0  0  0  0  0  0
  -26.4293  -37.3766   23.9410 N   0  0  0  0  0  0
  -24.6992  -31.0527   22.0935 N   0  0  0  0  0  0
  -23.4222  -28.8133   23.3001 O   0  0  0  0  0  0
  -28.3211  -26.3544   20.2505 O   0  0  0  0  0  0
  -26.5637  -34.8906   22.4653 O   0  0  0  0  0  0
  -23.5453  -32.1347   23.7256 O   0  0  0  0  0  0
  -29.8195  -20.9177   24.1325 C   0  0  0  0  0  0
  -29.4458  -21.6453   22.9933 C   0  0  0  0  0  0
  -29.9626  -18.9300   22.7840 C   0  0  0  0  0  0
  -30.0808  -19.5478   24.0405 C   0  0  0  0  0  0
  -29.3242  -21.0819   21.6957 C   0  0  0  0  0  0
  -29.5950  -19.6190   21.5935 C   0  0  0  0  0  0
  -28.1759  -17.4459   25.3348 C   0  0  0  0  0  0
  -31.4588  -19.4177   26.1951 C   0  0  0  0  0  0
  -28.7818  -22.1431   20.6198 C   0  0  0  0  0  0
  -29.1457  -18.3665   26.0930 C   0  0  0  0  0  0
  -29.1209  -23.7516   20.7107 C   0  0  0  0  0  0
  -30.4097  -17.2626   20.3416 C   0  0  0  0  0  0
  -28.0659  -24.8678   20.1843 C   0  0  0  0  0  0
  -30.4151  -18.7307   25.2904 C   0  0  1  0  0  0
  -29.4891  -18.6242   20.3595 C   0  0  2  0  0  0
  -29.9364  -15.8640   20.7454 N   0  0  0  0  0  0
  -29.8292  -19.4043   19.1639 N   0  3  0  0  0  0
  -31.4798  -12.5315   19.2064 H   0  0  0  0  0  0
  -30.3543  -11.4494   19.9737 H   0  0  0  0  0  0
  -29.8157  -11.7502   17.5247 H   0  0  0  0  0  0
  -29.6638  -13.4775   17.7582 H   0  0  0  0  0  0
  -27.8864  -11.3024   18.8971 H   0  0  0  0  0  0
  -27.4008  -12.5625   17.7969 H   0  0  0  0  0  0
  -27.6539  -14.2658   19.5022 H   0  0  0  0  0  0
  -28.6976  -12.1556   21.4474 H   0  0  0  0  0  0
  -28.4160  -13.8351   21.8178 H   0  0  0  0  0  0
  -25.2734   -9.5750   22.4702 H   0  0  0  0  0  0
  -23.9997   -7.4698   22.7488 H   0  0  0  0  0  0
  -21.0823   -8.8785   19.8944 H   0  0  0  0  0  0
  -22.3676  -10.9668   19.6124 H   0  0  0  0  0  0
  -21.2064   -7.6117   23.9685 H   0  0  0  0  0  0
  -21.1522   -6.0494   25.9055 H   0  0  0  0  0  0
  -22.0582   -2.7575   23.2823 H   0  0  0  0  0  0
  -22.4080  -12.0001   22.4888 H   0  0  0  0  0  0
  -21.1027  -13.1278   22.2503 H   0  0  0  0  0  0
  -24.6526  -15.8478   20.5085 H   0  0  0  0  0  0
  -26.2663  -15.6220   20.0586 H   0  0  0  0  0  0
  -26.7203  -32.5417   23.1106 H   0  0  0  0  0  0
  -25.0061  -33.9693   25.0390 H   0  0  0  0  0  0
  -22.7256  -31.2950   21.3887 H   0  0  0  0  0  0
  -23.3743  -35.9635   23.3303 H   0  0  0  0  0  0
  -24.3577  -36.8906   22.2056 H   0  0  0  0  0  0
  -23.7250  -37.6486   23.6668 H   0  0  0  0  0  0
  -26.1147  -31.5270   20.6051 H   0  0  0  0  0  0
  -26.8534  -30.8217   22.0123 H   0  0  0  0  0  0
  -28.1230  -28.9258   21.2254 H   0  0  0  0  0  0
  -25.9621  -25.8842   19.0441 H   0  0  0  0  0  0
  -23.9795  -27.2928   19.0211 H   0  0  0  0  0  0
  -23.7768  -30.5723   19.3952 H   0  0  0  0  0  0
  -22.7738  -29.2326   19.8560 H   0  0  0  0  0  0
  -25.1290  -36.1919   25.0811 H   0  0  0  0  0  0
  -20.9982  -28.3290   24.1394 H   0  0  0  0  0  0
  -20.5694  -26.2314   23.3621 H   0  0  0  0  0  0
  -21.6654  -26.7467   22.1199 H   0  0  0  0  0  0
  -19.6929  -25.6287   21.1256 H   0  0  0  0  0  0
  -19.6697  -27.3173   20.6735 H   0  0  0  0  0  0
  -17.4212  -26.6678   21.4013 H   0  0  0  0  0  0
  -18.0338  -26.0090   22.9023 H   0  0  0  0  0  0
  -19.7940  -30.7295   24.2238 H   0  0  0  0  0  0
  -17.5015  -31.6263   24.5176 H   0  0  0  0  0  0
  -15.5349  -30.2973   23.7691 H   0  0  0  0  0  0
  -15.8676  -28.0829   22.7058 H   0  0  0  0  0  0
  -24.5832  -30.7170   25.7783 H   0  0  0  0  0  0
  -24.8938  -32.2964   26.4889 H   0  0  0  0  0  0
  -25.7979  -30.8924   27.0239 H   0  0  0  0  0  0
  -26.2913  -29.6742   24.1248 H   0  0  0  0  0  0
  -27.3933  -29.7251   25.4807 H   0  0  0  0  0  0
  -27.8833  -30.4224   23.9547 H   0  0  0  0  0  0
  -27.2633  -33.3614   26.2124 H   0  0  0  0  0  0
  -28.3844  -32.6921   25.0344 H   0  0  0  0  0  0
  -28.0737  -31.8445   26.5412 H   0  0  0  0  0  0
  -28.2593  -38.0105   24.7496 H   0  0  0  0  0  0
  -28.1071  -36.2617   24.6275 H   0  0  0  0  0  0
  -27.2304  -37.1460   25.8866 H   0  0  0  0  0  0
  -20.9431  -29.8747   21.6819 H   0  0  0  0  0  0
  -26.0159  -38.2840   24.1381 H   0  0  0  0  0  0
  -29.8612  -21.4166   25.0901 H   0  0  0  0  0  0
  -29.2008  -22.6744   23.1850 H   0  0  0  0  0  0
  -30.1202  -17.8617   22.7607 H   0  0  0  0  0  0
  -27.2919  -17.2263   25.9361 H   0  0  0  0  0  0
  -28.6489  -16.4957   25.0843 H   0  0  0  0  0  0
  -27.8311  -17.9005   24.4063 H   0  0  0  0  0  0
  -32.3719  -19.6482   25.6448 H   0  0  0  0  0  0
  -31.7418  -18.7713   27.0264 H   0  0  0  0  0  0
  -31.0907  -20.3467   26.6316 H   0  0  0  0  0  0
  -27.6957  -22.0521   20.6688 H   0  0  0  0  0  0
  -29.0475  -21.8202   19.6159 H   0  0  0  0  0  0
  -29.4365  -17.8704   27.0188 H   0  0  0  0  0  0
  -28.6233  -19.2747   26.3941 H   0  0  0  0  0  0
  -30.0738  -23.9069   20.2003 H   0  0  0  0  0  0
  -29.3318  -24.0457   21.7327 H   0  0  0  0  0  0
  -31.3611  -17.4618   20.8369 H   0  0  0  0  0  0
  -30.6910  -17.1139   19.2985 H   0  0  0  0  0  0
  -27.1465  -24.6830   20.7418 H   0  0  0  0  0  0
  -27.8451  -24.6258   19.1431 H   0  0  0  0  0  0
  -30.8752  -17.7961   24.9644 H   0  0  0  0  0  0
  -28.4443  -18.3270   20.2642 H   0  0  0  0  0  0
  -28.9886  -15.7675   21.0771 H   0  0  0  0  0  0
  -30.7544  -19.7869   19.2424 H   0  0  0  0  0  0
  -29.1707  -20.1522   19.0562 H   0  0  0  0  0  0
  -29.7799  -18.8245   18.3433 H   0  0  0  0  0  0
  1 25  1  0  0  0
  1 30  2  0  0  0
  1 86  1  0  0  0
  2  3  1  0  0  0
  2 25  1  0  0  0
  2 88  1  0  0  0
  2 89  1  0  0  0
  3  4  1  0  0  0
  3 90  1  0  0  0
  3 91  1  0  0  0
  4  5  1  0  0  0
  4 92  1  0  0  0
  4 93  1  0  0  0
  5  6  1  0  0  0
  5 26  1  0  0  0
  5 94  1  0  0  0
  6 25  1  0  0  0
  6 95  1  0  0  0
  6 96  1  0  0  0
  7  8  2  0  0  0
  7 26  1  0  0  0
  7 29  1  0  0  0
  8  9  1  0  0  0
  8 22  1  0  0  0
  9 10  1  0  0  0
  9 27  2  0  0  0
 10 11  2  0  0  0
 10 15  1  0  0  0
 11 12  1  0  0  0
 11 97  1  0  0  0
 12 13  2  0  0  0
 12 98  1  0  0  0
 13 14  1  0  0  0
 13 31  1  0  0  0
 14 15  2  0  0  0
 14 99  1  0  0  0
 15100  1  0  0  0
 16 17  2  0  0  0
 16 21  1  0  0  0
 16 31  1  0  0  0
 17 18  1  0  0  0
 17101  1  0  0  0
 18 19  2  0  0  0
 18102  1  0  0  0
 19 20  1  0  0  0
 19 24  1  0  0  0
 20 21  2  0  0  0
 20103  1  0  0  0
 21 23  1  0  0  0
 22 28  1  0  0  0
 22 32  2  0  0  0
 26 27  1  0  0  0
 28104  1  0  0  0
 28105  1  0  0  0
 29106  1  0  0  0
 29107  1  0  0  0
 33 34  1  0  0  0
 33 66  1  0  0  0
 33 70  2  0  0  0
 34 36  1  0  0  0
 34 59  1  0  0  0
 34108  1  0  0  0
 35 44  2  0  0  0
 35 45  1  0  0  0
 35 68  1  0  0  0
 36 56  1  0  0  0
 36109  1  0  0  0
 37 39  1  0  0  0
 37 47  1  0  0  0
 37 66  1  0  0  0
 37110  1  0  0  0
 38 43  2  0  0  0
 38 46  1  0  0  0
 38 47  1  0  0  0
 39 64  1  0  0  0
 39 67  2  0  0  0
 40 52  1  0  0  0
 40 53  2  0  0  0
 40 58  1  0  0  0
 41111  1  0  0  0
 41112  1  0  0  0
 41113  1  0  0  0
 41 48  1  0  0  0
 42 43  1  0  0  0
 42 66  1  0  0  0
 42114  1  0  0  0
 42115  1  0  0  0
 43 44  1  0  0  0
 44116  1  0  0  0
 45 46  2  0  0  0
 45117  1  0  0  0
 46118  1  0  0  0
 47119  1  0  0  0
 47120  1  0  0  0
 48 56  1  0  0  0
 48 65  1  0  0  0
 48121  1  0  0  0
 49 50  1  0  0  0
 49 53  1  0  0  0
 49 64  1  0  0  0
 49122  1  0  0  0
 50 51  1  0  0  0
 50123  1  0  0  0
 50124  1  0  0  0
 51 52  1  0  0  0
 51125  1  0  0  0
 51126  1  0  0  0
 52127  1  0  0  0
 52128  1  0  0  0
 53 54  1  0  0  0
 54 55  2  0  0  0
 54129  1  0  0  0
 55 57  1  0  0  0
 55130  1  0  0  0
 56 69  2  0  0  0
 57 58  2  0  0  0
 57131  1  0  0  0
 58132  1  0  0  0
 59 60  1  0  0  0
 59 61  1  0  0  0
 59 62  1  0  0  0
 60133  1  0  0  0
 60134  1  0  0  0
 60135  1  0  0  0
 61136  1  0  0  0
 61137  1  0  0  0
 61138  1  0  0  0
 62139  1  0  0  0
 62140  1  0  0  0
 62141  1  0  0  0
 63 65  1  0  0  0
 63142  1  0  0  0
 63143  1  0  0  0
 63144  1  0  0  0
 64145  1  0  0  0
 65146  1  0  0  0
 68 83  1  0  0  0
 71 72  2  0  0  0
 71 74  1  0  0  0
 71147  1  0  0  0
 72 75  1  0  0  0
 72148  1  0  0  0
 73 74  2  0  0  0
 73 76  1  0  0  0
 73149  1  0  0  0
 74 84  1  0  0  0
 75 76  2  0  0  0
 75 79  1  0  0  0
 76 85  1  0  0  0
 77 80  1  0  0  0
 77150  1  0  0  0
 77151  1  0  0  0
 77152  1  0  0  0
 78153  1  0  0  0
 78154  1  0  0  0
 78155  1  0  0  0
 78 84  1  0  0  0
 79 81  1  0  0  0
 79156  1  0  0  0
 79157  1  0  0  0
 80 84  1  0  0  0
 80158  1  0  0  0
 80159  1  0  0  0
 81 83  1  0  0  0
 81160  1  0  0  0
 81161  1  0  0  0
 82 85  1  0  0  0
 82 86  1  0  0  0
 82162  1  0  0  0
 82163  1  0  0  0
 83164  1  0  0  0
 83165  1  0  0  0
 84166  1  0  0  0
 85 87  1  0  0  0
 85167  1  0  0  0
 86168  1  0  0  0
 87169  1  0  0  0
 87170  1  0  0  0
 87171  1  0  0  0
M  CHG  1  87   1
M  ISO  4   1 100  68 101  83 101  86 100
M  END
> <chiral flag>
0

> <version>
0

> <s_m_source_file>
/data/baiqing/PycharmProjects/Reinvent-master-3.2/result/LINK_invent/BTK/process_docking_weight1_custom_sum_contain_oxygen_bond_distance_aromatic_linkinvent_7_9_3/rearranged_h_0100.sdf

> <i_m_source_file_index>
3

> <r_mmod_Potential_Energy-OPLS-2005>
-83.6464004516602

> <r_mmod_Stretch_Energy-OPLS-2005>
152.169586181641

> <r_mmod_Bend_Energy-OPLS-2005>
213.497283935547

> <r_mmod_Torsional_Energy-OPLS-2005>
240.184860229492

> <r_mmod_Improper_Torsional_Energy-OPLS-2005>
6.25859498977661

> <r_mmod_Van_der_Waal_Energy-OPLS-2005>
149.225952148438

> <r_mmod_Electrostatic_Energy-OPLS-2005>
-417.870544433594

> <r_mmod_Solvation_Energy-OPLS-2005>
-507.099487304688

> <b_mmod_Minimization_Converged-OPLS-2005>
0

> <r_mmod_RMS_Derivative-OPLS-2005>
4.20717620849609

$$$$
3
                    3D
 Structure written by MMmdl.
171179  0  0  1  0            999 V2000
  -30.6301  -14.6985   20.4750 C   0  0  0  0  0  0
  -30.4294  -12.4284   19.4717 C   0  0  0  0  0  0
  -29.5071  -12.5152   18.2362 C   0  0  0  0  0  0
  -28.0303  -12.3511   18.6471 C   0  0  0  0  0  0
  -27.6482  -13.2318   19.8665 C   0  0  2  0  0  0
  -28.6938  -13.1387   21.0007 C   0  0  0  0  0  0
  -25.2539  -13.8202   20.5702 C   0  0  0  0  0  0
  -24.1819  -13.0435   20.9199 C   0  0  0  0  0  0
  -24.6407  -11.6916   20.8740 C   0  0  0  0  0  0
  -23.9077  -10.4286   21.0403 C   0  0  0  0  0  0
  -24.3634   -9.4207   21.9185 C   0  0  0  0  0  0
  -23.6309   -8.2241   22.0755 C   0  0  0  0  0  0
  -22.4287   -8.0288   21.3545 C   0  0  0  0  0  0
  -21.9917   -9.0257   20.4641 C   0  0  0  0  0  0
  -22.7245  -10.2136   20.3053 C   0  0  0  0  0  0
  -21.6862   -6.0747   22.5275 C   0  0  0  0  0  0
  -21.4011   -6.5646   23.8211 C   0  0  0  0  0  0
  -21.3659   -5.6796   24.9169 C   0  0  0  0  0  0
  -21.6044   -4.3064   24.7215 C   0  0  0  0  0  0
  -21.8821   -3.8158   23.4337 C   0  0  0  0  0  0
  -21.9185   -4.6972   22.3393 C   0  0  0  0  0  0
  -22.7839  -13.5216   21.1847 C   0  0  0  0  0  0
  -22.1665   -4.2166   21.0973 F   0  0  0  0  0  0
  -21.5630   -3.4541   25.7729 F   0  0  0  0  0  0
  -29.9983  -13.4800   20.4203 N   0  0  0  0  0  0
  -26.2976  -12.9401   20.3363 N   0  0  0  0  0  0
  -25.9357  -11.6536   20.5807 N   0  0  0  0  0  0
  -22.0495  -12.8197   22.0409 N   0  0  0  0  0  0
  -25.4232  -15.1916   20.4092 N   0  0  0  0  0  0
  -31.8095  -14.7984   20.1284 O   0  0  0  0  0  0
  -21.6647   -6.8891   21.4239 O   0  0  0  0  0  0
  -22.3505  -14.5512   20.6697 O   0  0  0  0  0  0
  -24.6280  -31.8574   23.1997 C   0  0  0  0  0  0
  -25.9116  -32.4758   23.8348 C   0  0  1  0  0  0
  -27.2241  -27.2942   20.1198 C   0  0  0  0  0  0
  -25.5924  -33.8569   24.2269 N   0  0  0  0  0  0
  -23.4237  -30.4790   21.5420 C   0  0  2  0  0  0
  -24.8686  -28.9296   20.1102 C   0  0  0  0  0  0
  -22.7497  -29.4600   22.4920 C   0  0  0  0  0  0
  -18.0303  -28.1376   22.8502 C   0  0  0  0  0  0
  -24.1499  -36.7283   23.2641 C   0  0  0  0  0  0
  -25.9643  -30.7823   21.3725 C   0  0  0  0  0  0
  -26.0357  -29.4064   20.7164 C   0  0  0  0  0  0
  -27.2124  -28.5980   20.7120 C   0  0  0  0  0  0
  -26.0264  -26.8680   19.5030 C   0  0  0  0  0  0
  -24.8671  -27.6679   19.4946 C   0  0  0  0  0  0
  -23.6384  -29.8123   20.1577 C   0  0  0  0  0  0
  -25.4119  -36.3079   24.0334 C   0  0  1  0  0  0
  -20.5909  -28.3672   23.1286 C   0  0  2  0  0  0
  -20.6777  -26.9389   22.5424 C   0  0  0  0  0  0
  -19.5757  -26.6383   21.5215 C   0  0  0  0  0  0
  -18.1938  -26.7935   22.1614 C   0  0  0  0  0  0
  -19.1563  -28.8835   23.2895 C   0  0  0  0  0  0
  -18.9486  -30.1438   23.8914 C   0  0  0  0  0  0
  -17.6480  -30.6578   24.0548 C   0  0  0  0  0  0
  -25.9050  -34.9447   23.5107 C   0  0  0  0  0  0
  -16.5372  -29.9073   23.6329 C   0  0  0  0  0  0
  -16.7291  -28.6490   23.0365 C   0  0  0  0  0  0
  -26.4514  -31.6567   25.0714 C   0  0  0  0  0  0
  -25.3751  -31.3684   26.1428 C   0  0  0  0  0  0
  -27.0334  -30.2991   24.6152 C   0  0  0  0  0  0
  -27.6090  -32.4284   25.7482 C   0  0  0  0  0  0
  -27.5583  -37.1789   24.8463 C   0  0  0  0  0  0
  -21.4205  -29.3047   22.3683 N   0  0  0  0  0  0
  -26.4294  -37.3772   23.9410 N   0  0  0  0  0  0
  -24.6911  -31.0585   22.0947 N   0  0  0  0  0  0
  -23.4216  -28.8125   23.2986 O   0  0  0  0  0  0
  -28.3592  -26.4646   20.1889 O   0  0  0  0  0  0
  -26.5620  -34.8906   22.4684 O   0  0  0  0  0  0
  -23.5436  -32.1379   23.7295 O   0  0  0  0  0  0
  -28.3018  -20.9907   21.9291 C   0  0  0  0  0  0
  -29.3891  -19.7639   20.1590 C   0  0  0  0  0  0
  -28.7883  -21.0037   20.6110 C   0  0  0  0  0  0
  -28.4551  -19.8636   22.7709 C   0  0  0  0  0  0
  -29.5203  -18.5618   20.9614 C   0  0  0  0  0  0
  -29.0816  -18.6637   22.3160 C   0  0  0  0  0  0
  -27.9578  -20.0014   24.2030 C   0  0  0  0  0  0
  -31.2079  -16.3961   24.7099 C   0  0  0  0  0  0
  -27.7334  -20.9184   17.6977 C   0  0  0  0  0  0
  -29.3659  -17.5402   23.3209 C   0  0  0  0  0  0
  -30.2672  -17.2709   20.3870 C   0  0  0  0  0  0
  -30.8120  -17.6016   23.8491 C   0  0  0  0  0  0
  -27.5632  -22.1369   18.6154 C   0  0  0  0  0  0
  -28.3686  -23.7540   20.4447 C   0  0  0  0  0  0
  -28.4491  -25.1099   19.5733 C   0  0  0  0  0  0
  -28.6357  -22.3237   19.7231 C   0  0  1  0  0  0
  -29.8696  -15.8308   20.6871 N   0  0  0  0  0  0
  -31.4722  -12.5405   19.1706 H   0  0  0  0  0  0
  -30.3626  -11.4448   19.9372 H   0  0  0  0  0  0
  -29.7765  -11.7519   17.5052 H   0  0  0  0  0  0
  -29.6454  -13.4791   17.7421 H   0  0  0  0  0  0
  -27.8591  -11.2987   18.8797 H   0  0  0  0  0  0
  -27.3792  -12.5860   17.8053 H   0  0  0  0  0  0
  -27.6529  -14.2613   19.5082 H   0  0  0  0  0  0
  -28.7182  -12.1323   21.4231 H   0  0  0  0  0  0
  -28.4412  -13.8099   21.8248 H   0  0  0  0  0  0
  -25.2774   -9.5686   22.4764 H   0  0  0  0  0  0
  -24.0012   -7.4623   22.7473 H   0  0  0  0  0  0
  -21.0851   -8.8767   19.8939 H   0  0  0  0  0  0
  -22.3697  -10.9680   19.6169 H   0  0  0  0  0  0
  -21.2014   -7.6155   23.9724 H   0  0  0  0  0  0
  -21.1485   -6.0523   25.9073 H   0  0  0  0  0  0
  -22.0606   -2.7620   23.2827 H   0  0  0  0  0  0
  -22.4123  -11.9850   22.4755 H   0  0  0  0  0  0
  -21.1120  -13.1223   22.2668 H   0  0  0  0  0  0
  -24.6542  -15.8448   20.5178 H   0  0  0  0  0  0
  -26.2658  -15.6293   20.0594 H   0  0  0  0  0  0
  -26.7171  -32.5419   23.1082 H   0  0  0  0  0  0
  -25.0082  -33.9719   25.0414 H   0  0  0  0  0  0
  -22.7174  -31.2980   21.3944 H   0  0  0  0  0  0
  -23.3763  -35.9610   23.3298 H   0  0  0  0  0  0
  -24.3603  -36.8921   22.2057 H   0  0  0  0  0  0
  -23.7234  -37.6479   23.6665 H   0  0  0  0  0  0
  -26.0971  -31.5419   20.6019 H   0  0  0  0  0  0
  -26.8440  -30.8343   22.0021 H   0  0  0  0  0  0
  -28.1075  -28.9594   21.1977 H   0  0  0  0  0  0
  -25.9444  -25.8946   19.0465 H   0  0  0  0  0  0
  -23.9688  -27.2972   19.0218 H   0  0  0  0  0  0
  -23.7570  -30.5860   19.3982 H   0  0  0  0  0  0
  -22.7594  -29.2409   19.8542 H   0  0  0  0  0  0
  -25.1293  -36.1943   25.0823 H   0  0  0  0  0  0
  -21.0019  -28.3237   24.1395 H   0  0  0  0  0  0
  -20.5652  -26.2279   23.3628 H   0  0  0  0  0  0
  -21.6639  -26.7385   22.1220 H   0  0  0  0  0  0
  -19.6915  -25.6297   21.1246 H   0  0  0  0  0  0
  -19.6686  -27.3200   20.6750 H   0  0  0  0  0  0
  -17.4202  -26.6704   21.4016 H   0  0  0  0  0  0
  -18.0317  -26.0047   22.8980 H   0  0  0  0  0  0
  -19.7959  -30.7242   24.2305 H   0  0  0  0  0  0
  -17.5023  -31.6265   24.5128 H   0  0  0  0  0  0
  -15.5371  -30.2954   23.7630 H   0  0  0  0  0  0
  -15.8699  -28.0782   22.7084 H   0  0  0  0  0  0
  -24.5974  -30.6979   25.7755 H   0  0  0  0  0  0
  -24.8861  -32.2818   26.4820 H   0  0  0  0  0  0
  -25.8081  -30.8899   27.0220 H   0  0  0  0  0  0
  -26.2879  -29.6746   24.1202 H   0  0  0  0  0  0
  -27.4066  -29.7246   25.4646 H   0  0  0  0  0  0
  -27.8754  -30.4280   23.9345 H   0  0  0  0  0  0
  -27.2742  -33.3607   26.2041 H   0  0  0  0  0  0
  -28.3913  -32.6797   25.0304 H   0  0  0  0  0  0
  -28.0740  -31.8407   26.5406 H   0  0  0  0  0  0
  -28.2576  -38.0111   24.7521 H   0  0  0  0  0  0
  -28.1104  -36.2631   24.6271 H   0  0  0  0  0  0
  -27.2303  -37.1415   25.8869 H   0  0  0  0  0  0
  -20.9369  -29.8829   21.6950 H   0  0  0  0  0  0
  -26.0182  -38.2854   24.1415 H   0  0  0  0  0  0
  -27.8214  -21.8758   22.3210 H   0  0  0  0  0  0
  -29.7728  -19.7338   19.1497 H   0  0  0  0  0  0
  -27.2258  -19.2282   24.4379 H   0  0  0  0  0  0
  -27.4710  -20.9615   24.3763 H   0  0  0  0  0  0
  -28.7903  -19.9253   24.9040 H   0  0  0  0  0  0
  -32.2336  -16.5032   25.0666 H   0  0  0  0  0  0
  -31.1592  -15.4680   24.1388 H   0  0  0  0  0  0
  -30.5631  -16.2993   25.5847 H   0  0  0  0  0  0
  -27.0162  -20.9439   16.8771 H   0  0  0  0  0  0
  -27.5629  -19.9843   18.2307 H   0  0  0  0  0  0
  -28.7307  -20.8936   17.2586 H   0  0  0  0  0  0
  -29.1437  -16.5706   22.8896 H   0  0  0  0  0  0
  -28.6858  -17.5775   24.1691 H   0  0  0  0  0  0
  -31.3158  -17.3864   20.6650 H   0  0  0  0  0  0
  -30.2585  -17.3590   19.2988 H   0  0  0  0  0  0
  -31.5093  -17.6663   23.0137 H   0  0  0  0  0  0
  -30.9470  -18.5167   24.4259 H   0  0  0  0  0  0
  -26.5706  -22.1004   19.0691 H   0  0  0  0  0  0
  -27.5583  -23.0106   17.9660 H   0  0  0  0  0  0
  -27.3905  -23.7249   20.9251 H   0  0  0  0  0  0
  -29.0849  -23.8516   21.2605 H   0  0  0  0  0  0
  -29.4419  -25.1026   19.1209 H   0  0  0  0  0  0
  -27.7948  -25.0467   18.7070 H   0  0  0  0  0  0
  -29.5970  -22.4256   19.2184 H   0  0  0  0  0  0
  -28.9049  -15.6799   20.9340 H   0  0  0  0  0  0
  1 25  1  0  0  0
  1 30  2  0  0  0
  1 87  1  0  0  0
  2  3  1  0  0  0
  2 25  1  0  0  0
  2 88  1  0  0  0
  2 89  1  0  0  0
  3  4  1  0  0  0
  3 90  1  0  0  0
  3 91  1  0  0  0
  4  5  1  0  0  0
  4 92  1  0  0  0
  4 93  1  0  0  0
  5  6  1  0  0  0
  5 26  1  0  0  0
  5 94  1  0  0  0
  6 25  1  0  0  0
  6 95  1  0  0  0
  6 96  1  0  0  0
  7  8  2  0  0  0
  7 26  1  0  0  0
  7 29  1  0  0  0
  8  9  1  0  0  0
  8 22  1  0  0  0
  9 10  1  0  0  0
  9 27  2  0  0  0
 10 11  2  0  0  0
 10 15  1  0  0  0
 11 12  1  0  0  0
 11 97  1  0  0  0
 12 13  2  0  0  0
 12 98  1  0  0  0
 13 14  1  0  0  0
 13 31  1  0  0  0
 14 15  2  0  0  0
 14 99  1  0  0  0
 15100  1  0  0  0
 16 17  2  0  0  0
 16 21  1  0  0  0
 16 31  1  0  0  0
 17 18  1  0  0  0
 17101  1  0  0  0
 18 19  2  0  0  0
 18102  1  0  0  0
 19 20  1  0  0  0
 19 24  1  0  0  0
 20 21  2  0  0  0
 20103  1  0  0  0
 21 23  1  0  0  0
 22 28  1  0  0  0
 22 32  2  0  0  0
 26 27  1  0  0  0
 28104  1  0  0  0
 28105  1  0  0  0
 29106  1  0  0  0
 29107  1  0  0  0
 33 34  1  0  0  0
 33 66  1  0  0  0
 33 70  2  0  0  0
 34 36  1  0  0  0
 34 59  1  0  0  0
 34108  1  0  0  0
 35 44  2  0  0  0
 35 45  1  0  0  0
 35 68  1  0  0  0
 36 56  1  0  0  0
 36109  1  0  0  0
 37 39  1  0  0  0
 37 47  1  0  0  0
 37 66  1  0  0  0
 37110  1  0  0  0
 38 43  2  0  0  0
 38 46  1  0  0  0
 38 47  1  0  0  0
 39 64  1  0  0  0
 39 67  2  0  0  0
 40 52  1  0  0  0
 40 53  2  0  0  0
 40 58  1  0  0  0
 41111  1  0  0  0
 41112  1  0  0  0
 41113  1  0  0  0
 41 48  1  0  0  0
 42 43  1  0  0  0
 42 66  1  0  0  0
 42114  1  0  0  0
 42115  1  0  0  0
 43 44  1  0  0  0
 44116  1  0  0  0
 45 46  2  0  0  0
 45117  1  0  0  0
 46118  1  0  0  0
 47119  1  0  0  0
 47120  1  0  0  0
 48 56  1  0  0  0
 48 65  1  0  0  0
 48121  1  0  0  0
 49 50  1  0  0  0
 49 53  1  0  0  0
 49 64  1  0  0  0
 49122  1  0  0  0
 50 51  1  0  0  0
 50123  1  0  0  0
 50124  1  0  0  0
 51 52  1  0  0  0
 51125  1  0  0  0
 51126  1  0  0  0
 52127  1  0  0  0
 52128  1  0  0  0
 53 54  1  0  0  0
 54 55  2  0  0  0
 54129  1  0  0  0
 55 57  1  0  0  0
 55130  1  0  0  0
 56 69  2  0  0  0
 57 58  2  0  0  0
 57131  1  0  0  0
 58132  1  0  0  0
 59 60  1  0  0  0
 59 61  1  0  0  0
 59 62  1  0  0  0
 60133  1  0  0  0
 60134  1  0  0  0
 60135  1  0  0  0
 61136  1  0  0  0
 61137  1  0  0  0
 61138  1  0  0  0
 62139  1  0  0  0
 62140  1  0  0  0
 62141  1  0  0  0
 63 65  1  0  0  0
 63142  1  0  0  0
 63143  1  0  0  0
 63144  1  0  0  0
 64145  1  0  0  0
 65146  1  0  0  0
 68 85  1  0  0  0
 71 73  2  0  0  0
 71 74  1  0  0  0
 71147  1  0  0  0
 72 73  1  0  0  0
 72 75  2  0  0  0
 72148  1  0  0  0
 73 86  1  0  0  0
 74 76  2  0  0  0
 74 77  1  0  0  0
 75 76  1  0  0  0
 75 81  1  0  0  0
 76 80  1  0  0  0
 77149  1  0  0  0
 77150  1  0  0  0
 77151  1  0  0  0
 78 82  1  0  0  0
 78152  1  0  0  0
 78153  1  0  0  0
 78154  1  0  0  0
 79 83  1  0  0  0
 79155  1  0  0  0
 79156  1  0  0  0
 79157  1  0  0  0
 80 82  1  0  0  0
 80158  1  0  0  0
 80159  1  0  0  0
 81 87  1  0  0  0
 81160  1  0  0  0
 81161  1  0  0  0
 82162  1  0  0  0
 82163  1  0  0  0
 83164  1  0  0  0
 83165  1  0  0  0
 83 86  1  0  0  0
 84 85  1  0  0  0
 84 86  1  0  0  0
 84166  1  0  0  0
 84167  1  0  0  0
 85168  1  0  0  0
 85169  1  0  0  0
 86170  1  0  0  0
 87171  1  0  0  0
M  ISO  4   1 100  68 101  85 101  87 100
M  END
> <chiral flag>
0

> <version>
0

> <s_m_source_file>
/data/baiqing/PycharmProjects/Reinvent-master-3.2/result/LINK_invent/BTK/process_docking_weight1_custom_sum_contain_oxygen_bond_distance_aromatic_linkinvent_7_9_3/rearranged_h_0100.sdf

> <i_m_source_file_index>
4

> <r_mmod_Potential_Energy-OPLS-2005>
87.6743698120117

> <r_mmod_Stretch_Energy-OPLS-2005>
114.288215637207

> <r_mmod_Bend_Energy-OPLS-2005>
169.010177612305

> <r_mmod_Torsional_Energy-OPLS-2005>
204.880905151367

> <r_mmod_Improper_Torsional_Energy-OPLS-2005>
6.45593690872192

> <r_mmod_Van_der_Waal_Energy-OPLS-2005>
143.385543823242

> <r_mmod_Electrostatic_Energy-OPLS-2005>
-422.185699462891

> <r_mmod_Solvation_Energy-OPLS-2005>
-191.768493652344

> <b_mmod_Minimization_Converged-OPLS-2005>
0

> <r_mmod_RMS_Derivative-OPLS-2005>
2.78059697151184

$$$$
4
                    3D
 Structure written by MMmdl.
162170  0  0  1  0            999 V2000
  -30.6194  -14.6970   20.4969 C   0  0  0  0  0  0
  -30.4416  -12.4384   19.4466 C   0  0  0  0  0  0
  -29.5068  -12.5037   18.2193 C   0  0  0  0  0  0
  -28.0315  -12.3311   18.6375 C   0  0  0  0  0  0
  -27.6448  -13.2209   19.8496 C   0  0  2  0  0  0
  -28.6932  -13.1211   20.9774 C   0  0  0  0  0  0
  -25.2530  -13.8185   20.5698 C   0  0  0  0  0  0
  -24.1805  -13.0443   20.9207 C   0  0  0  0  0  0
  -24.6375  -11.6913   20.8747 C   0  0  0  0  0  0
  -23.9051  -10.4287   21.0407 C   0  0  0  0  0  0
  -24.3607   -9.4207   21.9178 C   0  0  0  0  0  0
  -23.6296   -8.2238   22.0739 C   0  0  0  0  0  0
  -22.4278   -8.0266   21.3534 C   0  0  0  0  0  0
  -21.9905   -9.0242   20.4642 C   0  0  0  0  0  0
  -22.7223  -10.2128   20.3060 C   0  0  0  0  0  0
  -21.6852   -6.0732   22.5277 C   0  0  0  0  0  0
  -21.4014   -6.5641   23.8211 C   0  0  0  0  0  0
  -21.3657   -5.6790   24.9167 C   0  0  0  0  0  0
  -21.6048   -4.3053   24.7221 C   0  0  0  0  0  0
  -21.8819   -3.8147   23.4339 C   0  0  0  0  0  0
  -21.9192   -4.6961   22.3394 C   0  0  0  0  0  0
  -22.7828  -13.5231   21.1866 C   0  0  0  0  0  0
  -22.1664   -4.2147   21.0977 F   0  0  0  0  0  0
  -21.5622   -3.4539   25.7730 F   0  0  0  0  0  0
  -29.9952  -13.4788   20.3937 N   0  0  0  0  0  0
  -26.2948  -12.9366   20.3275 N   0  0  0  0  0  0
  -25.9301  -11.6520   20.5742 N   0  0  0  0  0  0
  -22.0468  -12.8225   22.0427 N   0  0  0  0  0  0
  -25.4228  -15.1906   20.4085 N   0  0  0  0  0  0
  -31.8130  -14.8235   20.2168 O   0  0  0  0  0  0
  -21.6640   -6.8868   21.4234 O   0  0  0  0  0  0
  -22.3511  -14.5532   20.6696 O   0  0  0  0  0  0
  -24.6310  -31.8559   23.2012 C   0  0  0  0  0  0
  -25.9140  -32.4764   23.8341 C   0  0  1  0  0  0
  -27.2210  -27.2770   20.1223 C   0  0  0  0  0  0
  -25.5940  -33.8562   24.2262 N   0  0  0  0  0  0
  -23.4268  -30.4821   21.5435 C   0  0  2  0  0  0
  -24.8717  -28.9329   20.1098 C   0  0  0  0  0  0
  -22.7500  -29.4614   22.4902 C   0  0  0  0  0  0
  -18.0296  -28.1388   22.8486 C   0  0  0  0  0  0
  -24.1485  -36.7284   23.2641 C   0  0  0  0  0  0
  -25.9728  -30.7739   21.3794 C   0  0  0  0  0  0
  -26.0450  -29.4003   20.7165 C   0  0  0  0  0  0
  -27.2219  -28.5859   20.7087 C   0  0  0  0  0  0
  -26.0191  -26.8758   19.4896 C   0  0  0  0  0  0
  -24.8639  -27.6777   19.4862 C   0  0  0  0  0  0
  -23.6432  -29.8184   20.1593 C   0  0  0  0  0  0
  -25.4114  -36.3073   24.0332 C   0  0  1  0  0  0
  -20.5900  -28.3706   23.1256 C   0  0  2  0  0  0
  -20.6780  -26.9422   22.5398 C   0  0  0  0  0  0
  -19.5753  -26.6383   21.5205 C   0  0  0  0  0  0
  -18.1936  -26.7931   22.1622 C   0  0  0  0  0  0
  -19.1546  -28.8858   23.2868 C   0  0  0  0  0  0
  -18.9475  -30.1458   23.8888 C   0  0  0  0  0  0
  -17.6472  -30.6590   24.0559 C   0  0  0  0  0  0
  -25.9055  -34.9450   23.5095 C   0  0  0  0  0  0
  -16.5361  -29.9091   23.6328 C   0  0  0  0  0  0
  -16.7280  -28.6504   23.0359 C   0  0  0  0  0  0
  -26.4509  -31.6605   25.0740 C   0  0  0  0  0  0
  -25.3740  -31.3766   26.1467 C   0  0  0  0  0  0
  -27.0364  -30.3018   24.6251 C   0  0  0  0  0  0
  -27.6046  -32.4366   25.7512 C   0  0  0  0  0  0
  -27.5576  -37.1800   24.8462 C   0  0  0  0  0  0
  -21.4201  -29.3059   22.3647 N   0  0  0  0  0  0
  -26.4283  -37.3780   23.9414 N   0  0  0  0  0  0
  -24.6957  -31.0549   22.0973 N   0  0  0  0  0  0
  -23.4196  -28.8141   23.2987 O   0  0  0  0  0  0
  -28.3213  -26.3891   20.1843 O   0  0  0  0  0  0
  -26.5613  -34.8928   22.4657 O   0  0  0  0  0  0
  -23.5465  -32.1349   23.7337 O   0  0  0  0  0  0
  -30.8763  -18.5014   19.2000 C   0  0  0  0  0  0
  -31.0068  -19.6791   18.4399 C   0  0  0  0  0  0
  -29.4406  -19.7249   20.7259 C   0  0  0  0  0  0
  -30.0985  -18.4824   20.3678 C   0  0  0  0  0  0
  -30.3496  -20.8908   18.7826 C   0  0  0  0  0  0
  -29.5339  -20.9515   19.9518 C   0  0  0  0  0  0
  -31.1540  -23.1902   15.6635 C   0  0  0  0  0  0
  -30.5297  -22.1202   17.8875 C   0  0  0  0  0  0
  -28.6292  -22.2322   20.2701 C   0  0  0  0  0  0
  -30.1309  -17.1778   21.2616 C   0  0  0  0  0  0
  -31.0795  -21.8852   16.4670 C   0  0  0  0  0  0
  -29.1426  -23.7701   20.3584 C   0  0  0  0  0  0
  -28.0533  -24.9194   20.0571 C   0  0  0  0  0  0
  -29.8177  -15.7880   20.7424 N   0  0  0  0  0  0
  -31.4791  -12.5821   19.1389 H   0  0  0  0  0  0
  -30.4019  -11.4550   19.9178 H   0  0  0  0  0  0
  -29.7852  -11.7353   17.4968 H   0  0  0  0  0  0
  -29.6318  -13.4615   17.7111 H   0  0  0  0  0  0
  -27.8815  -11.2812   18.8883 H   0  0  0  0  0  0
  -27.3730  -12.5363   17.7917 H   0  0  0  0  0  0
  -27.6491  -14.2480   19.4863 H   0  0  0  0  0  0
  -28.7266  -12.1134   21.3927 H   0  0  0  0  0  0
  -28.4314  -13.7802   21.8075 H   0  0  0  0  0  0
  -25.2755   -9.5697   22.4739 H   0  0  0  0  0  0
  -24.0014   -7.4638   22.7463 H   0  0  0  0  0  0
  -21.0832   -8.8765   19.8958 H   0  0  0  0  0  0
  -22.3685  -10.9661   19.6167 H   0  0  0  0  0  0
  -21.2015   -7.6149   23.9714 H   0  0  0  0  0  0
  -21.1477   -6.0518   25.9074 H   0  0  0  0  0  0
  -22.0605   -2.7609   23.2837 H   0  0  0  0  0  0
  -22.4095  -11.9918   22.4859 H   0  0  0  0  0  0
  -21.1073  -13.1236   22.2610 H   0  0  0  0  0  0
  -24.6504  -15.8406   20.5092 H   0  0  0  0  0  0
  -26.2588  -15.6294   20.0448 H   0  0  0  0  0  0
  -26.7207  -32.5408   23.1081 H   0  0  0  0  0  0
  -25.0109  -33.9693   25.0421 H   0  0  0  0  0  0
  -22.7241  -31.3059   21.4010 H   0  0  0  0  0  0
  -23.3753  -35.9609   23.3298 H   0  0  0  0  0  0
  -24.3569  -36.8906   22.2053 H   0  0  0  0  0  0
  -23.7233  -37.6486   23.6663 H   0  0  0  0  0  0
  -26.1158  -31.5400   20.6162 H   0  0  0  0  0  0
  -26.8487  -30.8154   22.0152 H   0  0  0  0  0  0
  -28.1187  -28.9407   21.1970 H   0  0  0  0  0  0
  -25.9321  -25.9172   19.0025 H   0  0  0  0  0  0
  -23.9644  -27.3130   19.0069 H   0  0  0  0  0  0
  -23.7708  -30.5950   19.4048 H   0  0  0  0  0  0
  -22.7607  -29.2541   19.8502 H   0  0  0  0  0  0
  -25.1301  -36.1918   25.0826 H   0  0  0  0  0  0
  -21.0000  -28.3292   24.1373 H   0  0  0  0  0  0
  -20.5672  -26.2324   23.3614 H   0  0  0  0  0  0
  -21.6652  -26.7448   22.1196 H   0  0  0  0  0  0
  -19.6911  -25.6290   21.1242 H   0  0  0  0  0  0
  -19.6683  -27.3182   20.6730 H   0  0  0  0  0  0
  -17.4209  -26.6683   21.4022 H   0  0  0  0  0  0
  -18.0335  -26.0072   22.9016 H   0  0  0  0  0  0
  -19.7952  -30.7270   24.2251 H   0  0  0  0  0  0
  -17.5037  -31.6268   24.5168 H   0  0  0  0  0  0
  -15.5360  -30.2993   23.7661 H   0  0  0  0  0  0
  -15.8684  -28.0814   22.7087 H   0  0  0  0  0  0
  -24.5872  -30.7168   25.7790 H   0  0  0  0  0  0
  -24.8990  -32.2954   26.4921 H   0  0  0  0  0  0
  -25.8054  -30.8901   27.0225 H   0  0  0  0  0  0
  -26.2956  -29.6762   24.1255 H   0  0  0  0  0  0
  -27.4004  -29.7298   25.4799 H   0  0  0  0  0  0
  -27.8859  -30.4280   23.9533 H   0  0  0  0  0  0
  -27.2612  -33.3642   26.2106 H   0  0  0  0  0  0
  -28.3841  -32.6974   25.0341 H   0  0  0  0  0  0
  -28.0742  -31.8503   26.5421 H   0  0  0  0  0  0
  -28.2600  -38.0093   24.7519 H   0  0  0  0  0  0
  -28.1071  -36.2630   24.6279 H   0  0  0  0  0  0
  -27.2300  -37.1439   25.8866 H   0  0  0  0  0  0
  -20.9385  -29.8775   21.6845 H   0  0  0  0  0  0
  -26.0162  -38.2855   24.1423 H   0  0  0  0  0  0
  -31.4161  -17.6123   18.8980 H   0  0  0  0  0  0
  -31.6391  -19.6189   17.5668 H   0  0  0  0  0  0
  -28.8347  -19.7352   21.6218 H   0  0  0  0  0  0
  -31.5276  -23.0073   14.6557 H   0  0  0  0  0  0
  -31.8245  -23.9060   16.1418 H   0  0  0  0  0  0
  -30.1744  -23.6605   15.5734 H   0  0  0  0  0  0
  -31.2170  -22.7947   18.3976 H   0  0  0  0  0  0
  -29.5692  -22.6278   17.7938 H   0  0  0  0  0  0
  -28.0984  -22.0244   21.2001 H   0  0  0  0  0  0
  -27.8456  -22.2075   19.5121 H   0  0  0  0  0  0
  -29.4530  -17.3496   22.0985 H   0  0  0  0  0  0
  -31.1214  -17.1377   21.7186 H   0  0  0  0  0  0
  -32.0832  -21.4617   16.5129 H   0  0  0  0  0  0
  -30.4535  -21.1678   15.9351 H   0  0  0  0  0  0
  -29.9650  -23.9519   19.6764 H   0  0  0  0  0  0
  -29.5684  -23.9263   21.3505 H   0  0  0  0  0  0
  -27.1887  -24.6897   20.6806 H   0  0  0  0  0  0
  -27.7353  -24.7465   19.0287 H   0  0  0  0  0  0
  -28.8389  -15.5503   20.7896 H   0  0  0  0  0  0
  1 25  1  0  0  0
  1 30  2  0  0  0
  1 84  1  0  0  0
  2  3  1  0  0  0
  2 25  1  0  0  0
  2 85  1  0  0  0
  2 86  1  0  0  0
  3  4  1  0  0  0
  3 87  1  0  0  0
  3 88  1  0  0  0
  4  5  1  0  0  0
  4 89  1  0  0  0
  4 90  1  0  0  0
  5  6  1  0  0  0
  5 26  1  0  0  0
  5 91  1  0  0  0
  6 25  1  0  0  0
  6 92  1  0  0  0
  6 93  1  0  0  0
  7  8  2  0  0  0
  7 26  1  0  0  0
  7 29  1  0  0  0
  8  9  1  0  0  0
  8 22  1  0  0  0
  9 10  1  0  0  0
  9 27  2  0  0  0
 10 11  2  0  0  0
 10 15  1  0  0  0
 11 12  1  0  0  0
 11 94  1  0  0  0
 12 13  2  0  0  0
 12 95  1  0  0  0
 13 14  1  0  0  0
 13 31  1  0  0  0
 14 15  2  0  0  0
 14 96  1  0  0  0
 15 97  1  0  0  0
 16 17  2  0  0  0
 16 21  1  0  0  0
 16 31  1  0  0  0
 17 18  1  0  0  0
 17 98  1  0  0  0
 18 19  2  0  0  0
 18 99  1  0  0  0
 19 20  1  0  0  0
 19 24  1  0  0  0
 20 21  2  0  0  0
 20100  1  0  0  0
 21 23  1  0  0  0
 22 28  1  0  0  0
 22 32  2  0  0  0
 26 27  1  0  0  0
 28101  1  0  0  0
 28102  1  0  0  0
 29103  1  0  0  0
 29104  1  0  0  0
 33 34  1  0  0  0
 33 66  1  0  0  0
 33 70  2  0  0  0
 34 36  1  0  0  0
 34 59  1  0  0  0
 34105  1  0  0  0
 35 44  2  0  0  0
 35 45  1  0  0  0
 35 68  1  0  0  0
 36 56  1  0  0  0
 36106  1  0  0  0
 37 39  1  0  0  0
 37 47  1  0  0  0
 37 66  1  0  0  0
 37107  1  0  0  0
 38 43  2  0  0  0
 38 46  1  0  0  0
 38 47  1  0  0  0
 39 64  1  0  0  0
 39 67  2  0  0  0
 40 52  1  0  0  0
 40 53  2  0  0  0
 40 58  1  0  0  0
 41108  1  0  0  0
 41109  1  0  0  0
 41110  1  0  0  0
 41 48  1  0  0  0
 42 43  1  0  0  0
 42 66  1  0  0  0
 42111  1  0  0  0
 42112  1  0  0  0
 43 44  1  0  0  0
 44113  1  0  0  0
 45 46  2  0  0  0
 45114  1  0  0  0
 46115  1  0  0  0
 47116  1  0  0  0
 47117  1  0  0  0
 48 56  1  0  0  0
 48 65  1  0  0  0
 48118  1  0  0  0
 49 50  1  0  0  0
 49 53  1  0  0  0
 49 64  1  0  0  0
 49119  1  0  0  0
 50 51  1  0  0  0
 50120  1  0  0  0
 50121  1  0  0  0
 51 52  1  0  0  0
 51122  1  0  0  0
 51123  1  0  0  0
 52124  1  0  0  0
 52125  1  0  0  0
 53 54  1  0  0  0
 54 55  2  0  0  0
 54126  1  0  0  0
 55 57  1  0  0  0
 55127  1  0  0  0
 56 69  2  0  0  0
 57 58  2  0  0  0
 57128  1  0  0  0
 58129  1  0  0  0
 59 60  1  0  0  0
 59 61  1  0  0  0
 59 62  1  0  0  0
 60130  1  0  0  0
 60131  1  0  0  0
 60132  1  0  0  0
 61133  1  0  0  0
 61134  1  0  0  0
 61135  1  0  0  0
 62136  1  0  0  0
 62137  1  0  0  0
 62138  1  0  0  0
 63 65  1  0  0  0
 63139  1  0  0  0
 63140  1  0  0  0
 63141  1  0  0  0
 64142  1  0  0  0
 65143  1  0  0  0
 68 83  1  0  0  0
 71 72  2  0  0  0
 71 74  1  0  0  0
 71144  1  0  0  0
 72 75  1  0  0  0
 72145  1  0  0  0
 73 74  2  0  0  0
 73 76  1  0  0  0
 73146  1  0  0  0
 74 80  1  0  0  0
 75 76  2  0  0  0
 75 78  1  0  0  0
 76 79  1  0  0  0
 77 81  1  0  0  0
 77147  1  0  0  0
 77148  1  0  0  0
 77149  1  0  0  0
 78 81  1  0  0  0
 78150  1  0  0  0
 78151  1  0  0  0
 79 82  1  0  0  0
 79152  1  0  0  0
 79153  1  0  0  0
 80 84  1  0  0  0
 80154  1  0  0  0
 80155  1  0  0  0
 81156  1  0  0  0
 81157  1  0  0  0
 82 83  1  0  0  0
 82158  1  0  0  0
 82159  1  0  0  0
 83160  1  0  0  0
 83161  1  0  0  0
 84162  1  0  0  0
M  ISO  4   1 100  68 101  83 101  84 100
M  END
> <chiral flag>
0

> <version>
0

> <s_m_source_file>
/data/baiqing/PycharmProjects/Reinvent-master-3.2/result/LINK_invent/BTK/process_docking_weight1_custom_sum_contain_oxygen_bond_distance_aromatic_linkinvent_7_9_3/rearranged_h_0100.sdf

> <i_m_source_file_index>
5

> <r_mmod_Potential_Energy-OPLS-2005>
100.540161132812

> <r_mmod_Stretch_Energy-OPLS-2005>
110.788452148438

> <r_mmod_Bend_Energy-OPLS-2005>
167.1123046875

> <r_mmod_Torsional_Energy-OPLS-2005>
213.234085083008

> <r_mmod_Improper_Torsional_Energy-OPLS-2005>
5.74383449554443

> <r_mmod_Van_der_Waal_Energy-OPLS-2005>
145.510589599609

> <r_mmod_Electrostatic_Energy-OPLS-2005>
-408.328033447266

> <r_mmod_Solvation_Energy-OPLS-2005>
-206.352416992188

> <b_mmod_Minimization_Converged-OPLS-2005>
0

> <r_mmod_RMS_Derivative-OPLS-2005>
2.03801226615906

$$$$
5
                    3D
 Structure written by MMmdl.
184192  0  0  1  0            999 V2000
  -30.6339  -14.5813   20.5204 C   0  0  0  0  0  0
  -30.4289  -12.3606   19.4421 C   0  0  0  0  0  0
  -29.5003  -12.4975   18.2156 C   0  0  0  0  0  0
  -28.0240  -12.3410   18.6337 C   0  0  0  0  0  0
  -27.6518  -13.2110   19.8641 C   0  0  2  0  0  0
  -28.6929  -13.0454   20.9943 C   0  0  0  0  0  0
  -25.2510  -13.8132   20.5702 C   0  0  0  0  0  0
  -24.1792  -13.0429   20.9207 C   0  0  0  0  0  0
  -24.6346  -11.6886   20.8733 C   0  0  0  0  0  0
  -23.9029  -10.4291   21.0399 C   0  0  0  0  0  0
  -24.3583   -9.4208   21.9184 C   0  0  0  0  0  0
  -23.6276   -8.2233   22.0746 C   0  0  0  0  0  0
  -22.4251   -8.0261   21.3559 C   0  0  0  0  0  0
  -21.9890   -9.0220   20.4647 C   0  0  0  0  0  0
  -22.7199  -10.2111   20.3059 C   0  0  0  0  0  0
  -21.6838   -6.0706   22.5283 C   0  0  0  0  0  0
  -21.4008   -6.5618   23.8211 C   0  0  0  0  0  0
  -21.3668   -5.6783   24.9181 C   0  0  0  0  0  0
  -21.6050   -4.3046   24.7240 C   0  0  0  0  0  0
  -21.8814   -3.8125   23.4366 C   0  0  0  0  0  0
  -21.9191   -4.6935   22.3415 C   0  0  0  0  0  0
  -22.7823  -13.5204   21.1901 C   0  0  0  0  0  0
  -22.1655   -4.2102   21.0997 F   0  0  0  0  0  0
  -21.5643   -3.4545   25.7765 F   0  0  0  0  0  0
  -30.0099  -13.3717   20.4300 N   0  0  0  0  0  0
  -26.2950  -12.9321   20.3298 N   0  0  0  0  0  0
  -25.9266  -11.6476   20.5728 N   0  0  0  0  0  0
  -22.0471  -12.8195   22.0435 N   0  0  0  0  0  0
  -25.4255  -15.1878   20.4141 N   0  0  0  0  0  0
  -31.7998  -14.7392   20.1429 O   0  0  0  0  0  0
  -21.6642   -6.8844   21.4244 O   0  0  0  0  0  0
  -22.3524  -14.5526   20.6741 O   0  0  0  0  0  0
  -24.6159  -31.8698   23.2135 C   0  0  0  0  0  0
  -25.9078  -32.4874   23.8385 C   0  0  1  0  0  0
  -27.2171  -27.4136   20.1370 C   0  0  0  0  0  0
  -25.5848  -33.8673   24.2304 N   0  0  0  0  0  0
  -23.3979  -30.4940   21.5548 C   0  0  2  0  0  0
  -24.8429  -28.9666   20.1201 C   0  0  0  0  0  0
  -22.7418  -29.4631   22.5003 C   0  0  0  0  0  0
  -18.0331  -28.1312   22.8565 C   0  0  0  0  0  0
  -24.1459  -36.7361   23.2687 C   0  0  0  0  0  0
  -25.9295  -30.8360   21.3733 C   0  0  0  0  0  0
  -26.0074  -29.4736   20.7164 C   0  0  0  0  0  0
  -27.2009  -28.7085   20.7171 C   0  0  0  0  0  0
  -26.0442  -26.9524   19.5003 C   0  0  0  0  0  0
  -24.8587  -27.7045   19.5112 C   0  0  0  0  0  0
  -23.6041  -29.8338   20.1694 C   0  0  0  0  0  0
  -25.4118  -36.3180   24.0338 C   0  0  1  0  0  0
  -20.5951  -28.3546   23.1388 C   0  0  2  0  0  0
  -20.6832  -26.9327   22.5474 C   0  0  0  0  0  0
  -19.5793  -26.6469   21.5269 C   0  0  0  0  0  0
  -18.1985  -26.7853   22.1743 C   0  0  0  0  0  0
  -19.1603  -28.8750   23.2982 C   0  0  0  0  0  0
  -18.9554  -30.1370   23.8960 C   0  0  0  0  0  0
  -17.6559  -30.6565   24.0619 C   0  0  0  0  0  0
  -25.9046  -34.9507   23.5144 C   0  0  0  0  0  0
  -16.5420  -29.9125   23.6288 C   0  0  0  0  0  0
  -16.7338  -28.6537   23.0295 C   0  0  0  0  0  0
  -26.4586  -31.6705   25.0709 C   0  0  0  0  0  0
  -25.3779  -31.3973   26.1397 C   0  0  0  0  0  0
  -27.0416  -30.3065   24.6223 C   0  0  0  0  0  0
  -27.6300  -32.4378   25.7300 C   0  0  0  0  0  0
  -27.5599  -37.1840   24.8480 C   0  0  0  0  0  0
  -21.4155  -29.2853   22.3631 N   0  0  0  0  0  0
  -26.4326  -37.3837   23.9397 N   0  0  0  0  0  0
  -24.6645  -31.0770   22.1074 N   0  0  0  0  0  0
  -23.4209  -28.8359   23.3146 O   0  0  0  0  0  0
  -28.3305  -26.5850   20.1606 O   0  0  0  0  0  0
  -26.5721  -34.8964   22.4770 O   0  0  0  0  0  0
  -23.5337  -32.1499   23.7512 O   0  0  0  0  0  0
  -29.3056  -20.6696   21.3906 C   0  0  0  0  0  0
  -29.4383  -19.6162   20.5075 C   0  0  0  0  0  0
  -29.9070  -20.2125   19.2870 C   0  0  0  0  0  0
  -30.3050  -21.5008   19.5822 C   0  0  0  0  0  0
  -31.0849  -22.5080   18.7795 C   0  0  0  0  0  0
  -27.1805  -21.2898   15.6376 C   0  0  0  0  0  0
  -27.8536  -25.2538   23.8314 C   0  0  0  0  0  0
  -31.2983  -19.1785   17.3956 C   0  0  0  0  0  0
  -27.9724  -23.8905   19.5198 C   0  0  0  0  0  0
  -30.0114  -26.1778   21.6927 C   0  0  0  0  0  0
  -29.0510  -18.1370   20.7542 C   0  0  0  0  0  0
  -27.9262  -20.0872   16.2346 C   0  0  0  0  0  0
  -27.6287  -26.0331   22.5263 C   0  0  0  0  0  0
  -29.2271  -20.5557   16.8920 C   0  0  0  0  0  0
  -29.7241  -23.2297   21.3683 C   0  0  0  0  0  0
  -30.2282  -17.0924   20.7436 C   0  0  0  0  0  0
  -29.9021  -19.5838   17.8967 C   0  0  2  0  0  0
  -28.4955  -24.1455   20.9496 C   0  0  1  0  0  0
  -28.5800  -25.7123   21.3227 C   0  0  2  0  0  0
  -29.7564  -21.8537   20.8053 N   0  0  0  0  0  0
  -29.8479  -15.6480   20.8404 N   0  0  0  0  0  0
  -31.4725  -12.4763   19.1451 H   0  0  0  0  0  0
  -30.3480  -11.3617   19.8688 H   0  0  0  0  0  0
  -29.7568  -11.7510   17.4606 H   0  0  0  0  0  0
  -29.6482  -13.4717   17.7439 H   0  0  0  0  0  0
  -27.8654  -11.2887   18.8690 H   0  0  0  0  0  0
  -27.3652  -12.5667   17.7949 H   0  0  0  0  0  0
  -27.6736  -14.2501   19.5282 H   0  0  0  0  0  0
  -28.6888  -12.0207   21.3661 H   0  0  0  0  0  0
  -28.4459  -13.6766   21.8492 H   0  0  0  0  0  0
  -25.2726   -9.5677   22.4761 H   0  0  0  0  0  0
  -23.9969   -7.4630   22.7475 H   0  0  0  0  0  0
  -21.0815   -8.8741   19.8968 H   0  0  0  0  0  0
  -22.3655  -10.9641   19.6161 H   0  0  0  0  0  0
  -21.1987   -7.6125   23.9689 H   0  0  0  0  0  0
  -21.1506   -6.0533   25.9081 H   0  0  0  0  0  0
  -22.0584   -2.7578   23.2899 H   0  0  0  0  0  0
  -22.4073  -11.9834   22.4821 H   0  0  0  0  0  0
  -21.1091  -13.1226   22.2653 H   0  0  0  0  0  0
  -24.6603  -15.8413   20.5332 H   0  0  0  0  0  0
  -26.2663  -15.6286   20.0654 H   0  0  0  0  0  0
  -26.7128  -32.5598   23.1124 H   0  0  0  0  0  0
  -24.9758  -33.9838   25.0295 H   0  0  0  0  0  0
  -22.6799  -31.3068   21.4272 H   0  0  0  0  0  0
  -23.3734  -35.9684   23.3402 H   0  0  0  0  0  0
  -24.3530  -36.8953   22.2097 H   0  0  0  0  0  0
  -23.7123  -37.6513   23.6718 H   0  0  0  0  0  0
  -26.0555  -31.6062   20.6120 H   0  0  0  0  0  0
  -26.8128  -30.8726   21.9997 H   0  0  0  0  0  0
  -28.0981  -29.0925   21.1824 H   0  0  0  0  0  0
  -26.0187  -26.0010   19.0039 H   0  0  0  0  0  0
  -23.9709  -27.3057   19.0461 H   0  0  0  0  0  0
  -23.7098  -30.6155   19.4132 H   0  0  0  0  0  0
  -22.7221  -29.2593   19.8756 H   0  0  0  0  0  0
  -25.1292  -36.2131   25.0826 H   0  0  0  0  0  0
  -21.0061  -28.3140   24.1524 H   0  0  0  0  0  0
  -20.5676  -26.2184   23.3620 H   0  0  0  0  0  0
  -21.6727  -26.7260   22.1351 H   0  0  0  0  0  0
  -19.6990  -25.6504   21.1085 H   0  0  0  0  0  0
  -19.6781  -27.3507   20.6975 H   0  0  0  0  0  0
  -17.4237  -26.6593   21.4169 H   0  0  0  0  0  0
  -18.0421  -25.9934   22.9083 H   0  0  0  0  0  0
  -19.7997  -30.7218   24.2288 H   0  0  0  0  0  0
  -17.5105  -31.6261   24.5209 H   0  0  0  0  0  0
  -15.5419  -30.3087   23.7517 H   0  0  0  0  0  0
  -15.8767  -28.0922   22.6783 H   0  0  0  0  0  0
  -25.8117  -30.9320   27.0235 H   0  0  0  0  0  0
  -24.5980  -30.7256   25.7726 H   0  0  0  0  0  0
  -24.9033  -32.3235   26.4683 H   0  0  0  0  0  0
  -26.3031  -29.6816   24.1206 H   0  0  0  0  0  0
  -27.4050  -29.7423   25.4833 H   0  0  0  0  0  0
  -27.8850  -30.4324   23.9402 H   0  0  0  0  0  0
  -27.3186  -33.3865   26.1713 H   0  0  0  0  0  0
  -28.4078  -32.6557   24.9963 H   0  0  0  0  0  0
  -28.0961  -31.8576   26.5250 H   0  0  0  0  0  0
  -28.2648  -38.0115   24.7590 H   0  0  0  0  0  0
  -28.1041  -36.2661   24.6282 H   0  0  0  0  0  0
  -27.2334  -37.1435   25.8876 H   0  0  0  0  0  0
  -20.9289  -29.8183   21.6569 H   0  0  0  0  0  0
  -26.0258  -38.2939   24.1332 H   0  0  0  0  0  0
  -28.8998  -20.6799   22.3936 H   0  0  0  0  0  0
  -31.3552  -22.1502   17.7895 H   0  0  0  0  0  0
  -32.0222  -22.7255   19.2912 H   0  0  0  0  0  0
  -30.5616  -23.4498   18.6382 H   0  0  0  0  0  0
  -26.2966  -20.9787   15.0812 H   0  0  0  0  0  0
  -27.8190  -21.8598   14.9635 H   0  0  0  0  0  0
  -26.8656  -21.9771   16.4263 H   0  0  0  0  0  0
  -27.1801  -25.6396   24.5994 H   0  0  0  0  0  0
  -28.8709  -25.3604   24.2083 H   0  0  0  0  0  0
  -27.6261  -24.1909   23.7293 H   0  0  0  0  0  0
  -31.7669  -18.4097   18.0136 H   0  0  0  0  0  0
  -31.9727  -20.0309   17.3475 H   0  0  0  0  0  0
  -31.2230  -18.7850   16.3796 H   0  0  0  0  0  0
  -27.8846  -22.8283   19.2822 H   0  0  0  0  0  0
  -28.5847  -24.3799   18.7641 H   0  0  0  0  0  0
  -26.9635  -24.2658   19.4141 H   0  0  0  0  0  0
  -30.7130  -26.0297   20.8753 H   0  0  0  0  0  0
  -30.0130  -27.2472   21.9129 H   0  0  0  0  0  0
  -30.4161  -25.6585   22.5632 H   0  0  0  0  0  0
  -28.3027  -17.8638   20.0104 H   0  0  0  0  0  0
  -28.5329  -18.0811   21.7133 H   0  0  0  0  0  0
  -28.1346  -19.3441   15.4632 H   0  0  0  0  0  0
  -27.2842  -19.6048   16.9699 H   0  0  0  0  0  0
  -27.7019  -27.0875   22.7941 H   0  0  0  0  0  0
  -26.5878  -25.8639   22.2360 H   0  0  0  0  0  0
  -28.9867  -21.4973   17.3850 H   0  0  0  0  0  0
  -29.9344  -20.8186   16.1028 H   0  0  0  0  0  0
  -29.7568  -23.1523   22.4536 H   0  0  0  0  0  0
  -30.6685  -23.7036   21.0991 H   0  0  0  0  0  0
  -30.9021  -17.3077   21.5732 H   0  0  0  0  0  0
  -30.8127  -17.2371   19.8359 H   0  0  0  0  0  0
  -29.3029  -18.6709   17.9554 H   0  0  0  0  0  0
  -27.6703  -23.7334   21.5314 H   0  0  0  0  0  0
  -28.8887  -15.4400   21.0914 H   0  0  0  0  0  0
  1 25  1  0  0  0
  1 30  2  0  0  0
  1 91  1  0  0  0
  2  3  1  0  0  0
  2 25  1  0  0  0
  2 92  1  0  0  0
  2 93  1  0  0  0
  3  4  1  0  0  0
  3 94  1  0  0  0
  3 95  1  0  0  0
  4  5  1  0  0  0
  4 96  1  0  0  0
  4 97  1  0  0  0
  5  6  1  0  0  0
  5 26  1  0  0  0
  5 98  1  0  0  0
  6 25  1  0  0  0
  6 99  1  0  0  0
  6100  1  0  0  0
  7  8  2  0  0  0
  7 26  1  0  0  0
  7 29  1  0  0  0
  8  9  1  0  0  0
  8 22  1  0  0  0
  9 10  1  0  0  0
  9 27  2  0  0  0
 10 11  2  0  0  0
 10 15  1  0  0  0
 11 12  1  0  0  0
 11101  1  0  0  0
 12 13  2  0  0  0
 12102  1  0  0  0
 13 14  1  0  0  0
 13 31  1  0  0  0
 14 15  2  0  0  0
 14103  1  0  0  0
 15104  1  0  0  0
 16 17  2  0  0  0
 16 21  1  0  0  0
 16 31  1  0  0  0
 17 18  1  0  0  0
 17105  1  0  0  0
 18 19  2  0  0  0
 18106  1  0  0  0
 19 20  1  0  0  0
 19 24  1  0  0  0
 20 21  2  0  0  0
 20107  1  0  0  0
 21 23  1  0  0  0
 22 28  1  0  0  0
 22 32  2  0  0  0
 26 27  1  0  0  0
 28108  1  0  0  0
 28109  1  0  0  0
 29110  1  0  0  0
 29111  1  0  0  0
 33 34  1  0  0  0
 33 66  1  0  0  0
 33 70  2  0  0  0
 34 36  1  0  0  0
 34 59  1  0  0  0
 34112  1  0  0  0
 35 44  2  0  0  0
 35 45  1  0  0  0
 35 68  1  0  0  0
 36 56  1  0  0  0
 36113  1  0  0  0
 37 39  1  0  0  0
 37 47  1  0  0  0
 37 66  1  0  0  0
 37114  1  0  0  0
 38 43  2  0  0  0
 38 46  1  0  0  0
 38 47  1  0  0  0
 39 64  1  0  0  0
 39 67  2  0  0  0
 40 52  1  0  0  0
 40 53  2  0  0  0
 40 58  1  0  0  0
 41115  1  0  0  0
 41116  1  0  0  0
 41117  1  0  0  0
 41 48  1  0  0  0
 42 43  1  0  0  0
 42 66  1  0  0  0
 42118  1  0  0  0
 42119  1  0  0  0
 43 44  1  0  0  0
 44120  1  0  0  0
 45 46  2  0  0  0
 45121  1  0  0  0
 46122  1  0  0  0
 47123  1  0  0  0
 47124  1  0  0  0
 48 56  1  0  0  0
 48 65  1  0  0  0
 48125  1  0  0  0
 49 50  1  0  0  0
 49 53  1  0  0  0
 49 64  1  0  0  0
 49126  1  0  0  0
 50 51  1  0  0  0
 50127  1  0  0  0
 50128  1  0  0  0
 51 52  1  0  0  0
 51129  1  0  0  0
 51130  1  0  0  0
 52131  1  0  0  0
 52132  1  0  0  0
 53 54  1  0  0  0
 54 55  2  0  0  0
 54133  1  0  0  0
 55 57  1  0  0  0
 55134  1  0  0  0
 56 69  2  0  0  0
 57 58  2  0  0  0
 57135  1  0  0  0
 58136  1  0  0  0
 59 60  1  0  0  0
 59 61  1  0  0  0
 59 62  1  0  0  0
 60137  1  0  0  0
 60138  1  0  0  0
 60139  1  0  0  0
 61140  1  0  0  0
 61141  1  0  0  0
 61142  1  0  0  0
 62143  1  0  0  0
 62144  1  0  0  0
 62145  1  0  0  0
 63 65  1  0  0  0
 63146  1  0  0  0
 63147  1  0  0  0
 63148  1  0  0  0
 64149  1  0  0  0
 65150  1  0  0  0
 68 89  1  0  0  0
 71 72  2  0  0  0
 71 90  1  0  0  0
 71151  1  0  0  0
 72 73  1  0  0  0
 72 81  1  0  0  0
 73 74  2  0  0  0
 73 87  1  0  0  0
 74 75  1  0  0  0
 74 90  1  0  0  0
 75152  1  0  0  0
 75153  1  0  0  0
 75154  1  0  0  0
 76 82  1  0  0  0
 76155  1  0  0  0
 76156  1  0  0  0
 76157  1  0  0  0
 77 83  1  0  0  0
 77158  1  0  0  0
 77159  1  0  0  0
 77160  1  0  0  0
 78161  1  0  0  0
 78162  1  0  0  0
 78163  1  0  0  0
 78 87  1  0  0  0
 79164  1  0  0  0
 79165  1  0  0  0
 79166  1  0  0  0
 79 88  1  0  0  0
 80167  1  0  0  0
 80168  1  0  0  0
 80169  1  0  0  0
 80 89  1  0  0  0
 81 86  1  0  0  0
 81170  1  0  0  0
 81171  1  0  0  0
 82 84  1  0  0  0
 82172  1  0  0  0
 82173  1  0  0  0
 83 89  1  0  0  0
 83174  1  0  0  0
 83175  1  0  0  0
 84 87  1  0  0  0
 84176  1  0  0  0
 84177  1  0  0  0
 85 88  1  0  0  0
 85 90  1  0  0  0
 85178  1  0  0  0
 85179  1  0  0  0
 86 91  1  0  0  0
 86180  1  0  0  0
 86181  1  0  0  0
 87182  1  0  0  0
 88 89  1  0  0  0
 88183  1  0  0  0
 91184  1  0  0  0
M  ISO  4   1 100  68 101  89 101  91 100
M  END
> <chiral flag>
0

> <version>
0

> <s_m_source_file>
/data/baiqing/PycharmProjects/Reinvent-master-3.2/result/LINK_invent/BTK/process_docking_weight1_custom_sum_contain_oxygen_bond_distance_aromatic_linkinvent_7_9_3/rearranged_h_0100.sdf

> <i_m_source_file_index>
6

> <r_mmod_Potential_Energy-OPLS-2005>
44.2158546447754

> <r_mmod_Stretch_Energy-OPLS-2005>
67.5423736572266

> <r_mmod_Bend_Energy-OPLS-2005>
139.463287353516

> <r_mmod_Torsional_Energy-OPLS-2005>
307.242645263672

> <r_mmod_Improper_Torsional_Energy-OPLS-2005>
5.64351177215576

> <r_mmod_Van_der_Waal_Energy-OPLS-2005>
129.209899902344

> <r_mmod_Electrostatic_Energy-OPLS-2005>
-439.954772949219

> <r_mmod_Solvation_Energy-OPLS-2005>
-194.402557373047

> <b_mmod_Minimization_Converged-OPLS-2005>
0

> <r_mmod_RMS_Derivative-OPLS-2005>
8.09631633758545

$$$$
6
                    3D
 Structure written by MMmdl.
167174  0  0  1  0            999 V2000
  -30.4463  -15.1974   20.3785 C   0  0  0  0  0  0
  -30.4351  -12.7610   19.5176 C   0  0  0  0  0  0
  -29.5318  -12.5725   18.2735 C   0  0  0  0  0  0
  -28.0743  -12.3080   18.6944 C   0  0  0  0  0  0
  -27.6109  -13.2682   19.8197 C   0  0  2  0  0  0
  -28.6457  -13.4110   20.9564 C   0  0  0  0  0  0
  -25.2394  -13.8207   20.5699 C   0  0  0  0  0  0
  -24.1752  -13.0419   20.9256 C   0  0  0  0  0  0
  -24.6396  -11.6917   20.8767 C   0  0  0  0  0  0
  -23.9091  -10.4282   21.0409 C   0  0  0  0  0  0
  -24.3641   -9.4205   21.9183 C   0  0  0  0  0  0
  -23.6312   -8.2240   22.0742 C   0  0  0  0  0  0
  -22.4295   -8.0272   21.3530 C   0  0  0  0  0  0
  -21.9938   -9.0244   20.4639 C   0  0  0  0  0  0
  -22.7271  -10.2122   20.3051 C   0  0  0  0  0  0
  -21.6855   -6.0742   22.5282 C   0  0  0  0  0  0
  -21.4016   -6.5649   23.8215 C   0  0  0  0  0  0
  -21.3660   -5.6794   24.9174 C   0  0  0  0  0  0
  -21.6037   -4.3055   24.7227 C   0  0  0  0  0  0
  -21.8826   -3.8150   23.4344 C   0  0  0  0  0  0
  -21.9195   -4.6973   22.3403 C   0  0  0  0  0  0
  -22.7780  -13.5184   21.1909 C   0  0  0  0  0  0
  -22.1665   -4.2156   21.0983 F   0  0  0  0  0  0
  -21.5617   -3.4535   25.7735 F   0  0  0  0  0  0
  -29.8858  -13.8976   20.3360 N   0  0  0  0  0  0
  -26.2808  -12.9474   20.3169 N   0  0  0  0  0  0
  -25.9331  -11.6590   20.5716 N   0  0  0  0  0  0
  -22.0427  -12.8160   22.0451 N   0  0  0  0  0  0
  -25.4025  -15.1921   20.4056 N   0  0  0  0  0  0
  -31.6664  -15.2213   20.1638 O   0  0  0  0  0  0
  -21.6639   -6.8883   21.4242 O   0  0  0  0  0  0
  -22.3475  -14.5492   20.6744 O   0  0  0  0  0  0
  -24.6565  -31.8292   23.1750 C   0  0  0  0  0  0
  -25.9273  -32.4617   23.8189 C   0  0  1  0  0  0
  -27.2173  -26.9774   20.1947 C   0  0  0  0  0  0
  -25.5963  -33.8432   24.2100 N   0  0  0  0  0  0
  -23.4681  -30.4416   21.5240 C   0  0  2  0  0  0
  -24.9218  -28.8303   20.1242 C   0  0  0  0  0  0
  -22.7622  -29.4462   22.4811 C   0  0  0  0  0  0
  -18.0307  -28.1385   22.8464 C   0  0  0  0  0  0
  -24.1490  -36.7209   23.2642 C   0  0  0  0  0  0
  -26.0344  -30.6548   21.3951 C   0  0  0  0  0  0
  -26.1064  -29.2470   20.7461 C   0  0  0  0  0  0
  -27.2552  -28.3421   20.7502 C   0  0  0  0  0  0
  -26.0022  -26.6933   19.5379 C   0  0  0  0  0  0
  -24.8909  -27.5725   19.5000 C   0  0  0  0  0  0
  -23.7060  -29.7536   20.1521 C   0  0  0  0  0  0
  -25.4134  -36.2976   24.0299 C   0  0  1  0  0  0
  -20.5923  -28.3725   23.1199 C   0  0  2  0  0  0
  -20.6777  -26.9409   22.5401 C   0  0  0  0  0  0
  -19.5758  -26.6360   21.5199 C   0  0  0  0  0  0
  -18.1941  -26.7921   22.1611 C   0  0  0  0  0  0
  -19.1563  -28.8874   23.2824 C   0  0  0  0  0  0
  -18.9485  -30.1467   23.8857 C   0  0  0  0  0  0
  -17.6477  -30.6587   24.0544 C   0  0  0  0  0  0
  -25.9097  -34.9362   23.5016 C   0  0  0  0  0  0
  -16.5366  -29.9076   23.6336 C   0  0  0  0  0  0
  -16.7286  -28.6489   23.0366 C   0  0  0  0  0  0
  -26.4547  -31.6550   25.0702 C   0  0  0  0  0  0
  -25.3689  -31.3790   26.1367 C   0  0  0  0  0  0
  -27.0434  -30.2920   24.6399 C   0  0  0  0  0  0
  -27.6050  -32.4346   25.7511 C   0  0  0  0  0  0
  -27.5572  -37.1752   24.8456 C   0  0  0  0  0  0
  -21.4290  -29.3041   22.3561 N   0  0  0  0  0  0
  -26.4264  -37.3721   23.9415 N   0  0  0  0  0  0
  -24.7412  -31.0001   22.0857 N   0  0  0  0  0  0
  -23.4198  -28.8017   23.3015 O   0  0  0  0  0  0
  -28.2515  -25.9215   20.1867 O   0  0  0  0  0  0
  -26.5703  -34.8878   22.4607 O   0  0  0  0  0  0
  -23.5659  -32.1220   23.6887 O   0  0  0  0  0  0
  -25.7677  -18.9868   20.7235 C   0  0  0  0  0  0
  -26.3920  -20.3825   17.0764 C   0  0  0  0  0  0
  -25.1793  -18.3145   17.8409 C   0  0  0  0  0  0
  -24.3234  -20.5967   18.4284 C   0  0  0  0  0  0
  -28.5769  -22.7752   19.9373 C   0  0  0  0  0  0
  -29.1053  -21.2292   20.6631 C   0  0  0  0  0  0
  -29.9506  -18.0716   20.4316 C   0  0  0  0  0  0
  -28.0955  -24.3544   20.6069 C   0  0  0  0  0  0
  -26.4524  -19.7495   19.5614 C   0  0  2  0  0  0
  -28.8529  -19.4763   20.3773 C   0  0  2  0  0  0
  -25.6018  -19.7450   18.2440 C   0  0  0  0  0  0
  -29.6614  -16.4400   20.4610 N   0  0  0  0  0  0
  -27.8397  -19.2562   19.3132 N   0  3  0  0  0  0
  -31.4599  -12.9555   19.1978 H   0  0  0  0  0  0
  -30.4760  -11.8416   20.1055 H   0  0  0  0  0  0
  -29.9025  -11.7544   17.6548 H   0  0  0  0  0  0
  -29.5749  -13.4693   17.6528 H   0  0  0  0  0  0
  -28.0131  -11.2754   19.0392 H   0  0  0  0  0  0
  -27.4098  -12.3800   17.8327 H   0  0  0  0  0  0
  -27.5337  -14.2446   19.3394 H   0  0  0  0  0  0
  -28.8000  -12.4676   21.4821 H   0  0  0  0  0  0
  -28.2974  -14.1318   21.6989 H   0  0  0  0  0  0
  -25.2786   -9.5666   22.4769 H   0  0  0  0  0  0
  -24.0003   -7.4635   22.7466 H   0  0  0  0  0  0
  -21.0860   -8.8787   19.8959 H   0  0  0  0  0  0
  -22.3735  -10.9664   19.6160 H   0  0  0  0  0  0
  -21.2013   -7.6158   23.9723 H   0  0  0  0  0  0
  -21.1471   -6.0521   25.9075 H   0  0  0  0  0  0
  -22.0604   -2.7615   23.2848 H   0  0  0  0  0  0
  -22.4044  -11.9832   22.4843 H   0  0  0  0  0  0
  -21.1033  -13.1165   22.2645 H   0  0  0  0  0  0
  -24.6157  -15.8265   20.4861 H   0  0  0  0  0  0
  -26.2171  -15.6100   19.9830 H   0  0  0  0  0  0
  -26.7339  -32.5175   23.0913 H   0  0  0  0  0  0
  -25.0060  -33.9531   25.0207 H   0  0  0  0  0  0
  -22.7786  -31.2715   21.3538 H   0  0  0  0  0  0
  -23.3774  -35.9514   23.3260 H   0  0  0  0  0  0
  -24.3566  -36.8905   22.2064 H   0  0  0  0  0  0
  -23.7218  -37.6369   23.6733 H   0  0  0  0  0  0
  -26.2028  -31.3968   20.6134 H   0  0  0  0  0  0
  -26.8984  -30.7163   22.0452 H   0  0  0  0  0  0
  -28.1592  -28.6658   21.2453 H   0  0  0  0  0  0
  -25.8955  -25.7284   19.0631 H   0  0  0  0  0  0
  -23.9894  -27.2457   19.0006 H   0  0  0  0  0  0
  -23.8583  -30.5188   19.3903 H   0  0  0  0  0  0
  -22.8175  -29.2042   19.8359 H   0  0  0  0  0  0
  -25.1331  -36.1768   25.0789 H   0  0  0  0  0  0
  -21.0020  -28.3321   24.1315 H   0  0  0  0  0  0
  -20.5616  -26.2342   23.3634 H   0  0  0  0  0  0
  -21.6645  -26.7364   22.1224 H   0  0  0  0  0  0
  -19.6913  -25.6259   21.1255 H   0  0  0  0  0  0
  -19.6705  -27.3142   20.6706 H   0  0  0  0  0  0
  -17.4205  -26.6657   21.4021 H   0  0  0  0  0  0
  -18.0350  -26.0068   22.9010 H   0  0  0  0  0  0
  -19.7967  -30.7285   24.2212 H   0  0  0  0  0  0
  -17.5039  -31.6264   24.5144 H   0  0  0  0  0  0
  -15.5367  -30.2970   23.7686 H   0  0  0  0  0  0
  -15.8682  -28.0791   22.7126 H   0  0  0  0  0  0
  -24.5875  -30.7141   25.7672 H   0  0  0  0  0  0
  -24.8871  -32.2991   26.4686 H   0  0  0  0  0  0
  -25.7921  -30.9018   27.0215 H   0  0  0  0  0  0
  -26.3087  -29.6616   24.1382 H   0  0  0  0  0  0
  -27.3953  -29.7268   25.5040 H   0  0  0  0  0  0
  -27.9032  -30.4110   23.9806 H   0  0  0  0  0  0
  -27.2622  -33.3681   26.1990 H   0  0  0  0  0  0
  -28.3923  -32.6858   25.0391 H   0  0  0  0  0  0
  -28.0650  -31.8537   26.5517 H   0  0  0  0  0  0
  -28.2545  -38.0094   24.7546 H   0  0  0  0  0  0
  -28.1112  -36.2619   24.6230 H   0  0  0  0  0  0
  -27.2285  -37.1320   25.8854 H   0  0  0  0  0  0
  -20.9521  -29.8770   21.6739 H   0  0  0  0  0  0
  -26.0113  -38.2761   24.1484 H   0  0  0  0  0  0
  -24.7075  -19.2186   20.8050 H   0  0  0  0  0  0
  -26.1949  -19.2448   21.6918 H   0  0  0  0  0  0
  -25.8538  -17.9080   20.6041 H   0  0  0  0  0  0
  -25.7704  -20.4648   16.1824 H   0  0  0  0  0  0
  -27.2636  -19.7943   16.7878 H   0  0  0  0  0  0
  -26.7280  -21.3907   17.3212 H   0  0  0  0  0  0
  -24.6309  -18.3157   16.8980 H   0  0  0  0  0  0
  -24.5187  -17.8586   18.5807 H   0  0  0  0  0  0
  -26.0344  -17.6510   17.7114 H   0  0  0  0  0  0
  -23.7647  -20.6784   17.4949 H   0  0  0  0  0  0
  -24.5597  -21.6128   18.7474 H   0  0  0  0  0  0
  -23.6361  -20.1754   19.1622 H   0  0  0  0  0  0
  -27.7809  -22.5275   19.2376 H   0  0  0  0  0  0
  -29.3998  -23.0248   19.2681 H   0  0  0  0  0  0
  -28.8002  -21.3441   21.7036 H   0  0  0  0  0  0
  -30.1886  -21.3272   20.7408 H   0  0  0  0  0  0
  -30.5806  -18.2387   21.3059 H   0  0  0  0  0  0
  -30.6415  -18.2048   19.5976 H   0  0  0  0  0  0
  -28.5591  -24.3523   21.5932 H   0  0  0  0  0  0
  -27.0347  -24.2455   20.8352 H   0  0  0  0  0  0
  -26.5257  -20.7891   19.8787 H   0  0  0  0  0  0
  -28.3157  -19.2367   21.2917 H   0  0  0  0  0  0
  -28.6875  -16.2223   20.6108 H   0  0  0  0  0  0
  -28.1722  -19.6974   18.4704 H   0  0  0  0  0  0
  -27.7970  -18.2680   19.1245 H   0  0  0  0  0  0
  1 25  1  0  0  0
  1 30  2  0  0  0
  1 82  1  0  0  0
  2  3  1  0  0  0
  2 25  1  0  0  0
  2 84  1  0  0  0
  2 85  1  0  0  0
  3  4  1  0  0  0
  3 86  1  0  0  0
  3 87  1  0  0  0
  4  5  1  0  0  0
  4 88  1  0  0  0
  4 89  1  0  0  0
  5  6  1  0  0  0
  5 26  1  0  0  0
  5 90  1  0  0  0
  6 25  1  0  0  0
  6 91  1  0  0  0
  6 92  1  0  0  0
  7  8  2  0  0  0
  7 26  1  0  0  0
  7 29  1  0  0  0
  8  9  1  0  0  0
  8 22  1  0  0  0
  9 10  1  0  0  0
  9 27  2  0  0  0
 10 11  2  0  0  0
 10 15  1  0  0  0
 11 12  1  0  0  0
 11 93  1  0  0  0
 12 13  2  0  0  0
 12 94  1  0  0  0
 13 14  1  0  0  0
 13 31  1  0  0  0
 14 15  2  0  0  0
 14 95  1  0  0  0
 15 96  1  0  0  0
 16 17  2  0  0  0
 16 21  1  0  0  0
 16 31  1  0  0  0
 17 18  1  0  0  0
 17 97  1  0  0  0
 18 19  2  0  0  0
 18 98  1  0  0  0
 19 20  1  0  0  0
 19 24  1  0  0  0
 20 21  2  0  0  0
 20 99  1  0  0  0
 21 23  1  0  0  0
 22 28  1  0  0  0
 22 32  2  0  0  0
 26 27  1  0  0  0
 28100  1  0  0  0
 28101  1  0  0  0
 29102  1  0  0  0
 29103  1  0  0  0
 33 34  1  0  0  0
 33 66  1  0  0  0
 33 70  2  0  0  0
 34 36  1  0  0  0
 34 59  1  0  0  0
 34104  1  0  0  0
 35 44  2  0  0  0
 35 45  1  0  0  0
 35 68  1  0  0  0
 36 56  1  0  0  0
 36105  1  0  0  0
 37 39  1  0  0  0
 37 47  1  0  0  0
 37 66  1  0  0  0
 37106  1  0  0  0
 38 43  2  0  0  0
 38 46  1  0  0  0
 38 47  1  0  0  0
 39 64  1  0  0  0
 39 67  2  0  0  0
 40 52  1  0  0  0
 40 53  2  0  0  0
 40 58  1  0  0  0
 41107  1  0  0  0
 41108  1  0  0  0
 41109  1  0  0  0
 41 48  1  0  0  0
 42 43  1  0  0  0
 42 66  1  0  0  0
 42110  1  0  0  0
 42111  1  0  0  0
 43 44  1  0  0  0
 44112  1  0  0  0
 45 46  2  0  0  0
 45113  1  0  0  0
 46114  1  0  0  0
 47115  1  0  0  0
 47116  1  0  0  0
 48 56  1  0  0  0
 48 65  1  0  0  0
 48117  1  0  0  0
 49 50  1  0  0  0
 49 53  1  0  0  0
 49 64  1  0  0  0
 49118  1  0  0  0
 50 51  1  0  0  0
 50119  1  0  0  0
 50120  1  0  0  0
 51 52  1  0  0  0
 51121  1  0  0  0
 51122  1  0  0  0
 52123  1  0  0  0
 52124  1  0  0  0
 53 54  1  0  0  0
 54 55  2  0  0  0
 54125  1  0  0  0
 55 57  1  0  0  0
 55126  1  0  0  0
 56 69  2  0  0  0
 57 58  2  0  0  0
 57127  1  0  0  0
 58128  1  0  0  0
 59 60  1  0  0  0
 59 61  1  0  0  0
 59 62  1  0  0  0
 60129  1  0  0  0
 60130  1  0  0  0
 60131  1  0  0  0
 61132  1  0  0  0
 61133  1  0  0  0
 61134  1  0  0  0
 62135  1  0  0  0
 62136  1  0  0  0
 62137  1  0  0  0
 63 65  1  0  0  0
 63138  1  0  0  0
 63139  1  0  0  0
 63140  1  0  0  0
 64141  1  0  0  0
 65142  1  0  0  0
 68 78  1  0  0  0
 71143  1  0  0  0
 71144  1  0  0  0
 71145  1  0  0  0
 71 79  1  0  0  0
 72146  1  0  0  0
 72147  1  0  0  0
 72148  1  0  0  0
 72 81  1  0  0  0
 73 81  1  0  0  0
 73149  1  0  0  0
 73150  1  0  0  0
 73151  1  0  0  0
 74 81  1  0  0  0
 74152  1  0  0  0
 74153  1  0  0  0
 74154  1  0  0  0
 75 76  1  0  0  0
 75 78  1  0  0  0
 75155  1  0  0  0
 75156  1  0  0  0
 76157  1  0  0  0
 76158  1  0  0  0
 76 80  1  0  0  0
 77 80  1  0  0  0
 77 82  1  0  0  0
 77159  1  0  0  0
 77160  1  0  0  0
 78161  1  0  0  0
 78162  1  0  0  0
 79 81  1  0  0  0
 79 83  1  0  0  0
 79163  1  0  0  0
 80 83  1  0  0  0
 80164  1  0  0  0
 82165  1  0  0  0
 83166  1  0  0  0
 83167  1  0  0  0
M  CHG  1  83   1
M  ISO  4   1 100  68 101  78 101  82 100
M  END
> <chiral flag>
0

> <version>
0

> <s_m_source_file>
/data/baiqing/PycharmProjects/Reinvent-master-3.2/result/LINK_invent/BTK/process_docking_weight1_custom_sum_contain_oxygen_bond_distance_aromatic_linkinvent_7_9_3/rearranged_h_0100.sdf

> <i_m_source_file_index>
7

> <r_mmod_Potential_Energy-OPLS-2005>
1044.89831542969

> <r_mmod_Stretch_Energy-OPLS-2005>
562.014465332031

> <r_mmod_Bend_Energy-OPLS-2005>
450.129943847656

> <r_mmod_Torsional_Energy-OPLS-2005>
323.745880126953

> <r_mmod_Improper_Torsional_Energy-OPLS-2005>
4.4151611328125

> <r_mmod_Van_der_Waal_Energy-OPLS-2005>
109.888748168945

> <r_mmod_Electrostatic_Energy-OPLS-2005>
-315.090270996094

> <r_mmod_Solvation_Energy-OPLS-2005>
-474.423370361328

> <b_mmod_Minimization_Converged-OPLS-2005>
0

> <r_mmod_RMS_Derivative-OPLS-2005>
2.19065117835999

$$$$
7
                    3D
 Structure written by MMmdl.
190198  0  0  1  0            999 V2000
  -31.1234  -16.3326   19.9496 C   0  0  0  0  0  0
  -31.2379  -14.6164   19.1998 C   0  0  0  0  0  0
  -29.3019  -11.9470   19.9912 C   0  0  0  0  0  0
  -27.8321  -12.0435   19.3288 C   0  0  0  0  0  0
  -27.2122  -13.6330   19.5538 C   0  0  2  0  0  0
  -28.1222  -15.4199   19.1782 C   0  0  0  0  0  0
  -25.0367  -14.0285   20.6984 C   0  0  0  0  0  0
  -24.0234  -13.1616   21.0342 C   0  0  0  0  0  0
  -24.5371  -11.8288   21.0151 C   0  0  0  0  0  0
  -23.8583  -10.4867   21.0771 C   0  0  0  0  0  0
  -24.3363   -9.4666   21.9231 C   0  0  0  0  0  0
  -23.6353   -8.2466   22.0513 C   0  0  0  0  0  0
  -22.4359   -8.0209   21.3375 C   0  0  0  0  0  0
  -21.9915   -9.0173   20.4644 C   0  0  0  0  0  0
  -22.6808  -10.2278   20.3284 C   0  0  0  0  0  0
  -21.6812   -6.0681   22.5212 C   0  0  0  0  0  0
  -21.4048   -6.5588   23.8174 C   0  0  0  0  0  0
  -21.3770   -5.6776   24.9154 C   0  0  0  0  0  0
  -21.6183   -4.3046   24.7273 C   0  0  0  0  0  0
  -21.8802   -3.8095   23.4363 C   0  0  0  0  0  0
  -21.9166   -4.6895   22.3392 C   0  0  0  0  0  0
  -22.5972  -13.5463   21.2108 C   0  0  0  0  0  0
  -22.1631   -4.1999   21.1028 F   0  0  0  0  0  0
  -21.5623   -3.4583   25.7843 F   0  0  0  0  0  0
  -30.1048  -15.8329   19.0996 N   0  0  0  0  0  0
  -26.1287  -13.2901   20.4895 N   0  0  0  0  0  0
  -25.8250  -11.9849   20.8811 N   0  0  0  0  0  0
  -21.8933  -12.8015   22.0615 N   0  0  0  0  0  0
  -25.1599  -15.3817   20.4772 N   0  0  0  0  0  0
  -31.8151  -15.9123   20.9238 O   0  0  0  0  0  0
  -21.6631   -6.8792   21.4070 O   0  0  0  0  0  0
  -22.1592  -14.5616   20.6763 O   0  0  0  0  0  0
  -24.7754  -31.6761   23.0858 C   0  0  0  0  0  0
  -25.9781  -32.3944   23.7753 C   0  0  1  0  0  0
  -27.2219  -25.7054   20.4398 C   0  0  0  0  0  0
  -25.5898  -33.7860   24.1466 N   0  0  0  0  0  0
  -23.6474  -30.2387   21.4594 C   0  0  2  0  0  0
  -25.1138  -28.3553   20.1864 C   0  0  0  0  0  0
  -22.8207  -29.3589   22.4496 C   0  0  0  0  0  0
  -18.0384  -28.1512   22.8377 C   0  0  0  0  0  0
  -24.1465  -36.6902   23.2709 C   0  0  0  0  0  0
  -26.2566  -30.0905   21.5143 C   0  0  0  0  0  0
  -26.3031  -28.5469   20.8970 C   0  0  0  0  0  0
  -27.3064  -27.2966   20.9409 C   0  0  0  0  0  0
  -26.0518  -25.9980   19.6022 C   0  0  0  0  0  0
  -25.0890  -27.1164   19.4979 C   0  0  0  0  0  0
  -23.9554  -29.4334   20.1508 C   0  0  0  0  0  0
  -25.4159  -36.2613   24.0265 C   0  0  1  0  0  0
  -20.6110  -28.3875   23.0998 C   0  0  2  0  0  0
  -20.6796  -26.9411   22.5528 C   0  0  0  0  0  0
  -19.5762  -26.6309   21.5315 C   0  0  0  0  0  0
  -18.1923  -26.8051   22.1630 C   0  0  0  0  0  0
  -19.1692  -28.9028   23.2623 C   0  0  0  0  0  0
  -18.9540  -30.1600   23.8703 C   0  0  0  0  0  0
  -17.6466  -30.6601   24.0542 C   0  0  0  0  0  0
  -25.9165  -34.9021   23.4787 C   0  0  0  0  0  0
  -16.5357  -29.9049   23.6370 C   0  0  0  0  0  0
  -16.7357  -28.6538   23.0324 C   0  0  0  0  0  0
  -26.4699  -31.6485   25.0811 C   0  0  0  0  0  0
  -25.3459  -31.4029   26.1195 C   0  0  0  0  0  0
  -27.0958  -30.2777   24.7609 C   0  0  0  0  0  0
  -27.6003  -32.4723   25.7527 C   0  0  0  0  0  0
  -27.5537  -37.1622   24.8471 C   0  0  0  0  0  0
  -21.4805  -29.2848   22.3238 N   0  0  0  0  0  0
  -26.4248  -37.3442   23.9408 N   0  0  0  0  0  0
  -24.9291  -30.7286   22.0645 N   0  0  0  0  0  0
  -23.4204  -28.7390   23.3239 O   0  0  0  0  0  0
  -28.0082  -24.0409   20.5659 O   0  0  0  0  0  0
  -26.5965  -34.8767   22.4522 O   0  0  0  0  0  0
  -23.6553  -32.0236   23.5150 O   0  0  0  0  0  0
  -30.8688  -13.2829   21.0696 C   0  0  0  0  0  0
  -29.4835  -14.2228   20.5629 C   0  0  0  0  0  0
  -31.5829  -12.3888   19.8779 C   0  0  0  0  0  0
  -29.4790  -13.5807   18.5447 C   0  0  0  0  0  0
  -28.7910  -13.7070   17.1441 C   0  0  0  0  0  0
  -29.4176  -16.8188   22.6474 C   0  0  0  0  0  0
  -32.8123  -10.2361   18.9483 C   0  0  0  0  0  0
  -33.2311  -10.9753   21.3730 C   0  0  0  0  0  0
  -31.8326  -13.7712   14.4885 C   0  0  0  0  0  0
  -33.6703  -18.8538   16.7054 C   0  0  0  0  0  0
  -31.2810  -18.4369   16.8479 C   0  0  0  0  0  0
  -28.7783  -19.2734   20.7876 C   0  0  0  0  0  0
  -31.5385  -12.6460   16.9294 C   0  0  0  0  0  0
  -32.8241  -17.4795   18.6397 C   0  0  0  0  0  0
  -33.0419  -15.0837   16.4127 C   0  0  0  0  0  0
  -27.9808  -21.7416   20.6565 C   0  0  0  0  0  0
  -28.8586  -16.7226   21.2300 C   0  0  2  0  0  0
  -32.7955  -11.4453   19.9473 C   0  0  0  0  0  0
  -31.8414  -14.0585   16.0431 C   0  0  1  0  0  0
  -32.6499  -17.7367   17.0789 C   0  0  0  0  0  0
  -30.8406  -12.5789   18.3356 N   0  0  0  0  0  0
  -31.5597  -17.4299   19.3693 N   0  0  0  0  0  0
  -32.8673  -16.5787   16.0841 N   0  3  0  0  0  0
  -31.4219  -14.8385   18.1782 H   0  0  0  0  0  0
  -32.3386  -14.5084   19.3421 H   0  0  0  0  0  0
  -29.1256  -11.7002   21.0475 H   0  0  0  0  0  0
  -29.6633  -10.9728   19.6235 H   0  0  0  0  0  0
  -27.3958  -11.1008   19.6678 H   0  0  0  0  0  0
  -27.8094  -11.8303   18.2604 H   0  0  0  0  0  0
  -26.5445  -13.6974   18.6968 H   0  0  0  0  0  0
  -27.5261  -16.2886   19.4253 H   0  0  0  0  0  0
  -27.7955  -15.5885   18.1817 H   0  0  0  0  0  0
  -25.2466   -9.6017   22.4869 H   0  0  0  0  0  0
  -24.0129   -7.4769   22.7089 H   0  0  0  0  0  0
  -21.0956   -8.8612   19.8958 H   0  0  0  0  0  0
  -22.3130  -10.9777   19.6620 H   0  0  0  0  0  0
  -21.2147   -7.6108   23.9591 H   0  0  0  0  0  0
  -21.1623   -6.0588   25.9054 H   0  0  0  0  0  0
  -22.0506   -2.7491   23.2912 H   0  0  0  0  0  0
  -22.3092  -11.9896   22.5319 H   0  0  0  0  0  0
  -20.9531  -13.0655   22.2949 H   0  0  0  0  0  0
  -24.3565  -15.9963   20.4721 H   0  0  0  0  0  0
  -26.0744  -15.8002   20.3241 H   0  0  0  0  0  0
  -26.8055  -32.4257   23.0636 H   0  0  0  0  0  0
  -24.9611  -33.8692   24.9320 H   0  0  0  0  0  0
  -23.0196  -31.0893   21.1870 H   0  0  0  0  0  0
  -23.3806  -35.9119   23.3235 H   0  0  0  0  0  0
  -24.3506  -36.8760   22.2140 H   0  0  0  0  0  0
  -23.7084  -37.5980   23.6926 H   0  0  0  0  0  0
  -26.5925  -30.7563   20.7167 H   0  0  0  0  0  0
  -27.0489  -30.1411   22.2468 H   0  0  0  0  0  0
  -28.1964  -27.5395   21.4977 H   0  0  0  0  0  0
  -25.8155  -25.1642   18.9704 H   0  0  0  0  0  0
  -24.2414  -26.9284   18.8576 H   0  0  0  0  0  0
  -24.2466  -30.1392   19.3793 H   0  0  0  0  0  0
  -23.0467  -28.9724   19.7696 H   0  0  0  0  0  0
  -25.1394  -36.1290   25.0755 H   0  0  0  0  0  0
  -21.0098  -28.3586   24.1145 H   0  0  0  0  0  0
  -20.5632  -26.2462   23.3850 H   0  0  0  0  0  0
  -21.6604  -26.7177   22.1301 H   0  0  0  0  0  0
  -19.6858  -25.6158   21.1398 H   0  0  0  0  0  0
  -19.6799  -27.3058   20.6793 H   0  0  0  0  0  0
  -17.4250  -26.6822   21.3962 H   0  0  0  0  0  0
  -18.0182  -26.0261   22.9075 H   0  0  0  0  0  0
  -19.8013  -30.7527   24.2009 H   0  0  0  0  0  0
  -17.4994  -31.6315   24.5180 H   0  0  0  0  0  0
  -15.5359  -30.2877   23.7849 H   0  0  0  0  0  0
  -15.8793  -28.0865   22.7033 H   0  0  0  0  0  0
  -24.5652  -30.7471   25.7314 H   0  0  0  0  0  0
  -24.8636  -32.3309   26.4280 H   0  0  0  0  0  0
  -25.7286  -30.9289   27.0222 H   0  0  0  0  0  0
  -26.3870  -29.5825   24.3139 H   0  0  0  0  0  0
  -27.4353  -29.8023   25.6820 H   0  0  0  0  0  0
  -27.9787  -30.3745   24.1293 H   0  0  0  0  0  0
  -27.2461  -33.4275   26.1405 H   0  0  0  0  0  0
  -28.3972  -32.6922   25.0409 H   0  0  0  0  0  0
  -28.0494  -31.9426   26.5919 H   0  0  0  0  0  0
  -28.2490  -37.9996   24.7586 H   0  0  0  0  0  0
  -28.1140  -36.2532   24.6235 H   0  0  0  0  0  0
  -27.2324  -37.1121   25.8899 H   0  0  0  0  0  0
  -21.0376  -29.8354   21.6011 H   0  0  0  0  0  0
  -26.0040  -38.2511   24.1329 H   0  0  0  0  0  0
  -31.2481  -13.3378   22.0731 H   0  0  0  0  0  0
  -27.7276  -13.6077   17.1212 H   0  0  0  0  0  0
  -28.9272  -12.8796   16.4494 H   0  0  0  0  0  0
  -28.9751  -14.6472   16.6360 H   0  0  0  0  0  0
  -30.5042  -16.8451   22.6927 H   0  0  0  0  0  0
  -29.1145  -15.9686   23.2435 H   0  0  0  0  0  0
  -29.0383  -17.6675   23.1999 H   0  0  0  0  0  0
  -33.0967  -10.5039   17.9203 H   0  0  0  0  0  0
  -31.8577   -9.7111   18.8661 H   0  0  0  0  0  0
  -33.5507   -9.4830   19.2268 H   0  0  0  0  0  0
  -33.7038  -11.7844   21.9343 H   0  0  0  0  0  0
  -33.9677  -10.1689   21.3300 H   0  0  0  0  0  0
  -32.3956  -10.6078   21.9682 H   0  0  0  0  0  0
  -32.7480  -13.6259   13.8961 H   0  0  0  0  0  0
  -31.2694  -12.8611   14.3717 H   0  0  0  0  0  0
  -31.2817  -14.5456   13.9332 H   0  0  0  0  0  0
  -33.3082  -19.8341   17.0333 H   0  0  0  0  0  0
  -33.7862  -18.9434   15.6216 H   0  0  0  0  0  0
  -34.6566  -18.7365   17.1501 H   0  0  0  0  0  0
  -31.1891  -19.2891   17.5312 H   0  0  0  0  0  0
  -30.4087  -17.8088   17.0570 H   0  0  0  0  0  0
  -31.1784  -18.8317   15.8268 H   0  0  0  0  0  0
  -29.3688  -19.2334   19.8614 H   0  0  0  0  0  0
  -29.5216  -19.5121   21.5610 H   0  0  0  0  0  0
  -32.4699  -12.0851   16.9263 H   0  0  0  0  0  0
  -30.8892  -12.0472   16.3000 H   0  0  0  0  0  0
  -33.5310  -16.6736   18.8576 H   0  0  0  0  0  0
  -33.2557  -18.3790   19.0788 H   0  0  0  0  0  0
  -33.8784  -14.7931   15.7846 H   0  0  0  0  0  0
  -33.4564  -14.8757   17.3985 H   0  0  0  0  0  0
  -27.5753  -21.6864   19.6459 H   0  0  0  0  0  0
  -27.1298  -21.6738   21.3491 H   0  0  0  0  0  0
  -27.8191  -16.6347   21.5344 H   0  0  0  0  0  0
  -33.6508  -12.0222   19.6341 H   0  0  0  0  0  0
  -30.9468  -14.6734   16.1621 H   0  0  0  0  0  0
  -30.7851  -17.9309   19.0042 H   0  0  0  0  0  0
  -32.2636  -16.6352   15.2732 H   0  0  0  0  0  0
  -33.7459  -16.8538   15.6528 H   0  0  0  0  0  0
  1 25  1  0  0  0
  1 30  2  0  0  0
  1 92  1  0  0  0
  2  3  1  0  0  0
  2 25  1  0  0  0
  2 94  1  0  0  0
  2 95  1  0  0  0
  3  4  1  0  0  0
  3 96  1  0  0  0
  3 97  1  0  0  0
  4  5  1  0  0  0
  4 98  1  0  0  0
  4 99  1  0  0  0
  5  6  1  0  0  0
  5 26  1  0  0  0
  5100  1  0  0  0
  6 25  1  0  0  0
  6101  1  0  0  0
  6102  1  0  0  0
  7  8  2  0  0  0
  7 26  1  0  0  0
  7 29  1  0  0  0
  8  9  1  0  0  0
  8 22  1  0  0  0
  9 10  1  0  0  0
  9 27  2  0  0  0
 10 11  2  0  0  0
 10 15  1  0  0  0
 11 12  1  0  0  0
 11103  1  0  0  0
 12 13  2  0  0  0
 12104  1  0  0  0
 13 14  1  0  0  0
 13 31  1  0  0  0
 14 15  2  0  0  0
 14105  1  0  0  0
 15106  1  0  0  0
 16 17  2  0  0  0
 16 21  1  0  0  0
 16 31  1  0  0  0
 17 18  1  0  0  0
 17107  1  0  0  0
 18 19  2  0  0  0
 18108  1  0  0  0
 19 20  1  0  0  0
 19 24  1  0  0  0
 20 21  2  0  0  0
 20109  1  0  0  0
 21 23  1  0  0  0
 22 28  1  0  0  0
 22 32  2  0  0  0
 26 27  1  0  0  0
 28110  1  0  0  0
 28111  1  0  0  0
 29112  1  0  0  0
 29113  1  0  0  0
 33 34  1  0  0  0
 33 66  1  0  0  0
 33 70  2  0  0  0
 34 36  1  0  0  0
 34 59  1  0  0  0
 34114  1  0  0  0
 35 44  2  0  0  0
 35 45  1  0  0  0
 35 68  1  0  0  0
 36 56  1  0  0  0
 36115  1  0  0  0
 37 39  1  0  0  0
 37 47  1  0  0  0
 37 66  1  0  0  0
 37116  1  0  0  0
 38 43  2  0  0  0
 38 46  1  0  0  0
 38 47  1  0  0  0
 39 64  1  0  0  0
 39 67  2  0  0  0
 40 52  1  0  0  0
 40 53  2  0  0  0
 40 58  1  0  0  0
 41117  1  0  0  0
 41118  1  0  0  0
 41119  1  0  0  0
 41 48  1  0  0  0
 42 43  1  0  0  0
 42 66  1  0  0  0
 42120  1  0  0  0
 42121  1  0  0  0
 43 44  1  0  0  0
 44122  1  0  0  0
 45 46  2  0  0  0
 45123  1  0  0  0
 46124  1  0  0  0
 47125  1  0  0  0
 47126  1  0  0  0
 48 56  1  0  0  0
 48 65  1  0  0  0
 48127  1  0  0  0
 49 50  1  0  0  0
 49 53  1  0  0  0
 49 64  1  0  0  0
 49128  1  0  0  0
 50 51  1  0  0  0
 50129  1  0  0  0
 50130  1  0  0  0
 51 52  1  0  0  0
 51131  1  0  0  0
 51132  1  0  0  0
 52133  1  0  0  0
 52134  1  0  0  0
 53 54  1  0  0  0
 54 55  2  0  0  0
 54135  1  0  0  0
 55 57  1  0  0  0
 55136  1  0  0  0
 56 69  2  0  0  0
 57 58  2  0  0  0
 57137  1  0  0  0
 58138  1  0  0  0
 59 60  1  0  0  0
 59 61  1  0  0  0
 59 62  1  0  0  0
 60139  1  0  0  0
 60140  1  0  0  0
 60141  1  0  0  0
 61142  1  0  0  0
 61143  1  0  0  0
 61144  1  0  0  0
 62145  1  0  0  0
 62146  1  0  0  0
 62147  1  0  0  0
 63 65  1  0  0  0
 63148  1  0  0  0
 63149  1  0  0  0
 63150  1  0  0  0
 64151  1  0  0  0
 65152  1  0  0  0
 68 86  1  0  0  0
 71 72  1  0  0  0
 71 73  2  0  0  0
 71153  1  0  0  0
 72 74  2  0  0  0
 72 87  1  0  0  0
 73 88  1  0  0  0
 73 91  1  0  0  0
 74 75  1  0  0  0
 74 91  1  0  0  0
 75154  1  0  0  0
 75155  1  0  0  0
 75156  1  0  0  0
 76157  1  0  0  0
 76158  1  0  0  0
 76159  1  0  0  0
 76 87  1  0  0  0
 77160  1  0  0  0
 77161  1  0  0  0
 77162  1  0  0  0
 77 88  1  0  0  0
 78 88  1  0  0  0
 78163  1  0  0  0
 78164  1  0  0  0
 78165  1  0  0  0
 79166  1  0  0  0
 79167  1  0  0  0
 79168  1  0  0  0
 79 89  1  0  0  0
 80169  1  0  0  0
 80170  1  0  0  0
 80171  1  0  0  0
 80 90  1  0  0  0
 81 90  1  0  0  0
 81172  1  0  0  0
 81173  1  0  0  0
 81174  1  0  0  0
 82 86  1  0  0  0
 82 87  1  0  0  0
 82175  1  0  0  0
 82176  1  0  0  0
 83 89  1  0  0  0
 83 91  1  0  0  0
 83177  1  0  0  0
 83178  1  0  0  0
 84 90  1  0  0  0
 84 92  1  0  0  0
 84179  1  0  0  0
 84180  1  0  0  0
 85 89  1  0  0  0
 85 93  1  0  0  0
 85181  1  0  0  0
 85182  1  0  0  0
 86183  1  0  0  0
 86184  1  0  0  0
 87185  1  0  0  0
 88186  1  0  0  0
 89187  1  0  0  0
 90 93  1  0  0  0
 92188  1  0  0  0
 93189  1  0  0  0
 93190  1  0  0  0
M  CHG  1  93   1
M  ISO  4   1 100  68 101  86 101  92 100
M  END
> <chiral flag>
0

> <version>
0

> <s_m_source_file>
/data/baiqing/PycharmProjects/Reinvent-master-3.2/result/LINK_invent/BTK/process_docking_weight1_custom_sum_contain_oxygen_bond_distance_aromatic_linkinvent_7_9_3/rearranged_h_0100.sdf

> <i_m_source_file_index>
8

> <r_mmod_Potential_Energy-OPLS-2005>
23630.025390625

> <r_mmod_Stretch_Energy-OPLS-2005>
12970.412109375

> <r_mmod_Bend_Energy-OPLS-2005>
1872.36437988281

> <r_mmod_Torsional_Energy-OPLS-2005>
567.540832519531

> <r_mmod_Improper_Torsional_Energy-OPLS-2005>
50.4089584350586

> <r_mmod_Van_der_Waal_Energy-OPLS-2005>
3488.1279296875

> <r_mmod_Electrostatic_Energy-OPLS-2005>
-353.521362304688

> <r_mmod_Solvation_Energy-OPLS-2005>
-472.260589599609

> <b_mmod_Minimization_Converged-OPLS-2005>
0

> <r_mmod_RMS_Derivative-OPLS-2005>
47.7866058349609

$$$$
8
                    3D
 Structure written by MMmdl.
156164  0  0  1  0            999 V2000
  -30.6094  -14.8243   20.4114 C   0  0  0  0  0  0
  -30.4300  -12.4902   19.5165 C   0  0  0  0  0  0
  -29.5272  -12.4937   18.2635 C   0  0  0  0  0  0
  -28.0505  -12.3262   18.6646 C   0  0  0  0  0  0
  -27.6348  -13.2507   19.8388 C   0  0  2  0  0  0
  -28.6705  -13.2528   20.9801 C   0  0  0  0  0  0
  -25.2499  -13.8231   20.5743 C   0  0  0  0  0  0
  -24.1800  -13.0466   20.9206 C   0  0  0  0  0  0
  -24.6415  -11.6940   20.8756 C   0  0  0  0  0  0
  -23.9096  -10.4311   21.0424 C   0  0  0  0  0  0
  -24.3647   -9.4217   21.9201 C   0  0  0  0  0  0
  -23.6325   -8.2257   22.0756 C   0  0  0  0  0  0
  -22.4307   -8.0298   21.3547 C   0  0  0  0  0  0
  -21.9946   -9.0274   20.4650 C   0  0  0  0  0  0
  -22.7279  -10.2147   20.3067 C   0  0  0  0  0  0
  -21.6865   -6.0742   22.5281 C   0  0  0  0  0  0
  -21.4032   -6.5637   23.8218 C   0  0  0  0  0  0
  -21.3662   -5.6775   24.9172 C   0  0  0  0  0  0
  -21.6048   -4.3041   24.7212 C   0  0  0  0  0  0
  -21.8834   -3.8144   23.4340 C   0  0  0  0  0  0
  -21.9209   -4.6971   22.3396 C   0  0  0  0  0  0
  -22.7809  -13.5228   21.1850 C   0  0  0  0  0  0
  -22.1675   -4.2161   21.0970 F   0  0  0  0  0  0
  -21.5631   -3.4524   25.7723 F   0  0  0  0  0  0
  -29.9695  -13.5951   20.4002 N   0  0  0  0  0  0
  -26.2919  -12.9470   20.3234 N   0  0  0  0  0  0
  -25.9342  -11.6596   20.5721 N   0  0  0  0  0  0
  -22.0447  -12.8238   22.0406 N   0  0  0  0  0  0
  -25.4215  -15.1965   20.4246 N   0  0  0  0  0  0
  -31.8157  -14.8302   20.1356 O   0  0  0  0  0  0
  -21.6665   -6.8899   21.4248 O   0  0  0  0  0  0
  -22.3492  -14.5531   20.6669 O   0  0  0  0  0  0
  -24.6357  -31.8544   23.1933 C   0  0  0  0  0  0
  -25.9161  -32.4750   23.8303 C   0  0  1  0  0  0
  -27.2177  -27.1991   20.1508 C   0  0  0  0  0  0
  -25.5937  -33.8554   24.2236 N   0  0  0  0  0  0
  -23.4384  -30.4714   21.5395 C   0  0  2  0  0  0
  -24.8854  -28.9090   20.1115 C   0  0  0  0  0  0
  -22.7566  -29.4589   22.4930 C   0  0  0  0  0  0
  -18.0337  -28.1363   22.8560 C   0  0  0  0  0  0
  -24.1487  -36.7271   23.2645 C   0  0  0  0  0  0
  -25.9866  -30.7397   21.3903 C   0  0  0  0  0  0
  -26.0559  -29.3582   20.7328 C   0  0  0  0  0  0
  -27.2194  -28.5161   20.7449 C   0  0  0  0  0  0
  -26.0228  -26.8378   19.4888 C   0  0  0  0  0  0
  -24.8774  -27.6577   19.4782 C   0  0  0  0  0  0
  -23.6602  -29.8032   20.1566 C   0  0  0  0  0  0
  -25.4116  -36.3085   24.0346 C   0  0  1  0  0  0
  -20.5947  -28.3691   23.1282 C   0  0  2  0  0  0
  -20.6829  -26.9416   22.5407 C   0  0  0  0  0  0
  -19.5753  -26.6384   21.5264 C   0  0  0  0  0  0
  -18.1948  -26.7919   22.1688 C   0  0  0  0  0  0
  -19.1589  -28.8856   23.2915 C   0  0  0  0  0  0
  -18.9492  -30.1465   23.8912 C   0  0  0  0  0  0
  -17.6479  -30.6566   24.0582 C   0  0  0  0  0  0
  -25.9060  -34.9454   23.5097 C   0  0  0  0  0  0
  -16.5384  -29.9048   23.6342 C   0  0  0  0  0  0
  -16.7324  -28.6464   23.0388 C   0  0  0  0  0  0
  -26.4482  -31.6584   25.0720 C   0  0  0  0  0  0
  -25.3659  -31.3785   26.1415 C   0  0  0  0  0  0
  -27.0356  -30.2997   24.6250 C   0  0  0  0  0  0
  -27.6027  -32.4340   25.7481 C   0  0  0  0  0  0
  -27.5592  -37.1798   24.8480 C   0  0  0  0  0  0
  -21.4270  -29.3029   22.3661 N   0  0  0  0  0  0
  -26.4297  -37.3785   23.9422 N   0  0  0  0  0  0
  -24.7056  -31.0424   22.0961 N   0  0  0  0  0  0
  -23.4239  -28.8176   23.3092 O   0  0  0  0  0  0
  -28.3070  -26.2845   20.2556 O   0  0  0  0  0  0
  -26.5648  -34.8965   22.4678 O   0  0  0  0  0  0
  -23.5486  -32.1417   23.7175 O   0  0  0  0  0  0
  -29.5700  -18.5971   19.5780 C   0  0  0  0  0  0
  -29.9265  -17.2086   19.4032 C   0  0  0  0  0  0
  -29.1848  -19.1295   20.8355 C   0  0  0  0  0  0
  -29.9096  -16.2582   20.4920 C   0  0  0  0  0  0
  -29.1532  -18.1114   21.8489 C   0  0  0  0  0  0
  -30.3408  -16.7809   17.9990 C   0  0  0  0  0  0
  -28.7498  -18.4662   23.2693 C   0  0  0  0  0  0
  -28.8581  -20.6904   21.1708 C   0  0  0  0  0  0
  -28.7307  -21.9707   20.1530 C   0  0  0  0  0  0
  -28.5095  -23.5012   20.7465 C   0  0  0  0  0  0
  -28.3055  -24.8251   19.7907 C   0  0  0  0  0  0
  -29.5005  -16.7826   21.6874 N   0  0  0  0  0  0
  -31.4756  -12.5939   19.2200 H   0  0  0  0  0  0
  -30.3698  -11.5328   20.0368 H   0  0  0  0  0  0
  -29.8184  -11.6905   17.5843 H   0  0  0  0  0  0
  -29.6652  -13.4240   17.7136 H   0  0  0  0  0  0
  -27.9121  -11.2836   18.9542 H   0  0  0  0  0  0
  -27.4043  -12.4924   17.8029 H   0  0  0  0  0  0
  -27.6122  -14.2609   19.4285 H   0  0  0  0  0  0
  -28.7103  -12.2842   21.4792 H   0  0  0  0  0  0
  -28.3971  -13.9863   21.7386 H   0  0  0  0  0  0
  -25.2790   -9.5699   22.4779 H   0  0  0  0  0  0
  -24.0037   -7.4651   22.7472 H   0  0  0  0  0  0
  -21.0882   -8.8823   19.8948 H   0  0  0  0  0  0
  -22.3767  -10.9705   19.6187 H   0  0  0  0  0  0
  -21.2031   -7.6145   23.9740 H   0  0  0  0  0  0
  -21.1463   -6.0485   25.9079 H   0  0  0  0  0  0
  -22.0614   -2.7604   23.2822 H   0  0  0  0  0  0
  -22.4037  -11.9899   22.4816 H   0  0  0  0  0  0
  -21.1074  -13.1297   22.2607 H   0  0  0  0  0  0
  -24.6681  -15.8586   20.5702 H   0  0  0  0  0  0
  -26.2885  -15.6375   20.1448 H   0  0  0  0  0  0
  -26.7251  -32.5391   23.1060 H   0  0  0  0  0  0
  -25.0108  -33.9655   25.0402 H   0  0  0  0  0  0
  -22.7399  -31.2972   21.3909 H   0  0  0  0  0  0
  -23.3785  -35.9566   23.3297 H   0  0  0  0  0  0
  -24.3592  -36.8886   22.2063 H   0  0  0  0  0  0
  -23.7193  -37.6456   23.6655 H   0  0  0  0  0  0
  -26.1410  -31.4945   20.6191 H   0  0  0  0  0  0
  -26.8577  -30.7818   22.0329 H   0  0  0  0  0  0
  -28.1064  -28.8515   21.2648 H   0  0  0  0  0  0
  -25.9204  -25.8905   18.9896 H   0  0  0  0  0  0
  -23.9841  -27.3016   18.9828 H   0  0  0  0  0  0
  -23.7935  -30.5764   19.3981 H   0  0  0  0  0  0
  -22.7784  -29.2354   19.8521 H   0  0  0  0  0  0
  -25.1293  -36.1940   25.0839 H   0  0  0  0  0  0
  -21.0076  -28.3254   24.1388 H   0  0  0  0  0  0
  -20.5798  -26.2322   23.3632 H   0  0  0  0  0  0
  -21.6685  -26.7459   22.1158 H   0  0  0  0  0  0
  -19.6890  -25.6303   21.1265 H   0  0  0  0  0  0
  -19.6610  -27.3256   20.6840 H   0  0  0  0  0  0
  -17.4242  -26.6780   21.4049 H   0  0  0  0  0  0
  -18.0248  -26.0002   22.9010 H   0  0  0  0  0  0
  -19.7951  -30.7305   24.2268 H   0  0  0  0  0  0
  -17.5004  -31.6248   24.5165 H   0  0  0  0  0  0
  -15.5371  -30.2927   23.7604 H   0  0  0  0  0  0
  -15.8762  -28.0744   22.7076 H   0  0  0  0  0  0
  -24.5817  -30.7158   25.7730 H   0  0  0  0  0  0
  -24.8871  -32.2990   26.4771 H   0  0  0  0  0  0
  -25.7901  -30.8990   27.0246 H   0  0  0  0  0  0
  -26.2977  -29.6727   24.1232 H   0  0  0  0  0  0
  -27.4010  -29.7258   25.4775 H   0  0  0  0  0  0
  -27.8860  -30.4293   23.9553 H   0  0  0  0  0  0
  -27.2626  -33.3662   26.2010 H   0  0  0  0  0  0
  -28.3828  -32.6865   25.0283 H   0  0  0  0  0  0
  -28.0708  -31.8508   26.5421 H   0  0  0  0  0  0
  -28.2623  -38.0089   24.7572 H   0  0  0  0  0  0
  -28.1078  -36.2634   24.6247 H   0  0  0  0  0  0
  -27.2344  -37.1405   25.8894 H   0  0  0  0  0  0
  -20.9485  -29.8709   21.6812 H   0  0  0  0  0  0
  -26.0191  -38.2879   24.1360 H   0  0  0  0  0  0
  -29.6185  -19.2732   18.7372 H   0  0  0  0  0  0
  -31.2760  -16.2199   18.0052 H   0  0  0  0  0  0
  -29.5617  -16.1597   17.5531 H   0  0  0  0  0  0
  -30.4881  -17.6443   17.3433 H   0  0  0  0  0  0
  -27.7323  -18.8550   23.3047 H   0  0  0  0  0  0
  -29.4228  -19.2197   23.6751 H   0  0  0  0  0  0
  -28.7931  -17.6005   23.9333 H   0  0  0  0  0  0
  -27.9287  -20.6792   21.7407 H   0  0  0  0  0  0
  -29.6203  -20.9765   21.8940 H   0  0  0  0  0  0
  -27.9140  -21.7579   19.4605 H   0  0  0  0  0  0
  -29.6343  -21.9935   19.5446 H   0  0  0  0  0  0
  -29.3603  -23.7109   21.3957 H   0  0  0  0  0  0
  -27.6513  -23.4651   21.4176 H   0  0  0  0  0  0
  -27.4536  -24.6058   19.1571 H   0  0  0  0  0  0
  -29.1448  -24.7911   19.0946 H   0  0  0  0  0  0
  1 25  1  0  0  0
  1 30  2  0  0  0
  1 74  1  0  0  0
  2  3  1  0  0  0
  2 25  1  0  0  0
  2 83  1  0  0  0
  2 84  1  0  0  0
  3  4  1  0  0  0
  3 85  1  0  0  0
  3 86  1  0  0  0
  4  5  1  0  0  0
  4 87  1  0  0  0
  4 88  1  0  0  0
  5  6  1  0  0  0
  5 26  1  0  0  0
  5 89  1  0  0  0
  6 25  1  0  0  0
  6 90  1  0  0  0
  6 91  1  0  0  0
  7  8  2  0  0  0
  7 26  1  0  0  0
  7 29  1  0  0  0
  8  9  1  0  0  0
  8 22  1  0  0  0
  9 10  1  0  0  0
  9 27  2  0  0  0
 10 11  2  0  0  0
 10 15  1  0  0  0
 11 12  1  0  0  0
 11 92  1  0  0  0
 12 13  2  0  0  0
 12 93  1  0  0  0
 13 14  1  0  0  0
 13 31  1  0  0  0
 14 15  2  0  0  0
 14 94  1  0  0  0
 15 95  1  0  0  0
 16 17  2  0  0  0
 16 21  1  0  0  0
 16 31  1  0  0  0
 17 18  1  0  0  0
 17 96  1  0  0  0
 18 19  2  0  0  0
 18 97  1  0  0  0
 19 20  1  0  0  0
 19 24  1  0  0  0
 20 21  2  0  0  0
 20 98  1  0  0  0
 21 23  1  0  0  0
 22 28  1  0  0  0
 22 32  2  0  0  0
 26 27  1  0  0  0
 28 99  1  0  0  0
 28100  1  0  0  0
 29101  1  0  0  0
 29102  1  0  0  0
 33 34  1  0  0  0
 33 66  1  0  0  0
 33 70  2  0  0  0
 34 36  1  0  0  0
 34 59  1  0  0  0
 34103  1  0  0  0
 35 44  2  0  0  0
 35 45  1  0  0  0
 35 68  1  0  0  0
 36 56  1  0  0  0
 36104  1  0  0  0
 37 39  1  0  0  0
 37 47  1  0  0  0
 37 66  1  0  0  0
 37105  1  0  0  0
 38 43  2  0  0  0
 38 46  1  0  0  0
 38 47  1  0  0  0
 39 64  1  0  0  0
 39 67  2  0  0  0
 40 52  1  0  0  0
 40 53  2  0  0  0
 40 58  1  0  0  0
 41106  1  0  0  0
 41107  1  0  0  0
 41108  1  0  0  0
 41 48  1  0  0  0
 42 43  1  0  0  0
 42 66  1  0  0  0
 42109  1  0  0  0
 42110  1  0  0  0
 43 44  1  0  0  0
 44111  1  0  0  0
 45 46  2  0  0  0
 45112  1  0  0  0
 46113  1  0  0  0
 47114  1  0  0  0
 47115  1  0  0  0
 48 56  1  0  0  0
 48 65  1  0  0  0
 48116  1  0  0  0
 49 50  1  0  0  0
 49 53  1  0  0  0
 49 64  1  0  0  0
 49117  1  0  0  0
 50 51  1  0  0  0
 50118  1  0  0  0
 50119  1  0  0  0
 51 52  1  0  0  0
 51120  1  0  0  0
 51121  1  0  0  0
 52122  1  0  0  0
 52123  1  0  0  0
 53 54  1  0  0  0
 54 55  2  0  0  0
 54124  1  0  0  0
 55 57  1  0  0  0
 55125  1  0  0  0
 56 69  2  0  0  0
 57 58  2  0  0  0
 57126  1  0  0  0
 58127  1  0  0  0
 59 60  1  0  0  0
 59 61  1  0  0  0
 59 62  1  0  0  0
 60128  1  0  0  0
 60129  1  0  0  0
 60130  1  0  0  0
 61131  1  0  0  0
 61132  1  0  0  0
 61133  1  0  0  0
 62134  1  0  0  0
 62135  1  0  0  0
 62136  1  0  0  0
 63 65  1  0  0  0
 63137  1  0  0  0
 63138  1  0  0  0
 63139  1  0  0  0
 64140  1  0  0  0
 65141  1  0  0  0
 68 81  1  0  0  0
 71 72  2  0  0  0
 71 73  1  0  0  0
 71142  1  0  0  0
 72 74  1  0  0  0
 72 76  1  0  0  0
 73 75  2  0  0  0
 73 78  1  0  0  0
 74 82  2  0  0  0
 75 77  1  0  0  0
 75 82  1  0  0  0
 76143  1  0  0  0
 76144  1  0  0  0
 76145  1  0  0  0
 77146  1  0  0  0
 77147  1  0  0  0
 77148  1  0  0  0
 78 79  1  0  0  0
 78149  1  0  0  0
 78150  1  0  0  0
 79 80  1  0  0  0
 79151  1  0  0  0
 79152  1  0  0  0
 80 81  1  0  0  0
 80153  1  0  0  0
 80154  1  0  0  0
 81155  1  0  0  0
 81156  1  0  0  0
M  ISO  4   1 100  68 101  74 100  81 101
M  END
> <chiral flag>
0

> <version>
0

> <s_m_source_file>
/data/baiqing/PycharmProjects/Reinvent-master-3.2/result/LINK_invent/BTK/process_docking_weight1_custom_sum_contain_oxygen_bond_distance_aromatic_linkinvent_7_9_3/rearranged_h_0100.sdf

> <i_m_source_file_index>
9

> <r_mmod_Potential_Energy-OPLS-2005>
315.767791748047

> <r_mmod_Stretch_Energy-OPLS-2005>
172.50260925293

> <r_mmod_Bend_Energy-OPLS-2005>
229.089706420898

> <r_mmod_Torsional_Energy-OPLS-2005>
208.863143920898

> <r_mmod_Improper_Torsional_Energy-OPLS-2005>
6.8047947883606

> <r_mmod_Van_der_Waal_Energy-OPLS-2005>
134.327072143555

> <r_mmod_Electrostatic_Energy-OPLS-2005>
-365.205688476562

> <r_mmod_Solvation_Energy-OPLS-2005>
-198.208908081055

> <b_mmod_Minimization_Converged-OPLS-2005>
0

> <r_mmod_RMS_Derivative-OPLS-2005>
3.19771933555603

$$$$
9
                    3D
 Structure written by MMmdl.
169177  0  0  1  0            999 V2000
  -30.5859  -14.7493   20.4401 C   0  0  0  0  0  0
  -30.4475  -12.4635   19.4440 C   0  0  0  0  0  0
  -29.5040  -12.4952   18.2204 C   0  0  0  0  0  0
  -28.0332  -12.3145   18.6472 C   0  0  0  0  0  0
  -27.6420  -13.2215   19.8435 C   0  0  2  0  0  0
  -28.6950  -13.1527   20.9698 C   0  0  0  0  0  0
  -25.2531  -13.8179   20.5698 C   0  0  0  0  0  0
  -24.1808  -13.0432   20.9239 C   0  0  0  0  0  0
  -24.6389  -11.6915   20.8759 C   0  0  0  0  0  0
  -23.9056  -10.4293   21.0411 C   0  0  0  0  0  0
  -24.3610   -9.4208   21.9189 C   0  0  0  0  0  0
  -23.6287   -8.2237   22.0756 C   0  0  0  0  0  0
  -22.4272   -8.0276   21.3543 C   0  0  0  0  0  0
  -21.9907   -9.0247   20.4646 C   0  0  0  0  0  0
  -22.7226  -10.2133   20.3059 C   0  0  0  0  0  0
  -21.6859   -6.0733   22.5277 C   0  0  0  0  0  0
  -21.4010   -6.5641   23.8209 C   0  0  0  0  0  0
  -21.3651   -5.6795   24.9174 C   0  0  0  0  0  0
  -21.6051   -4.3061   24.7226 C   0  0  0  0  0  0
  -21.8817   -3.8147   23.4350 C   0  0  0  0  0  0
  -21.9193   -4.6960   22.3401 C   0  0  0  0  0  0
  -22.7837  -13.5228   21.1883 C   0  0  0  0  0  0
  -22.1667   -4.2146   21.0979 F   0  0  0  0  0  0
  -21.5623   -3.4543   25.7736 F   0  0  0  0  0  0
  -29.9894  -13.5131   20.3755 N   0  0  0  0  0  0
  -26.2943  -12.9366   20.3261 N   0  0  0  0  0  0
  -25.9316  -11.6527   20.5752 N   0  0  0  0  0  0
  -22.0483  -12.8194   22.0438 N   0  0  0  0  0  0
  -25.4217  -15.1890   20.4091 N   0  0  0  0  0  0
  -31.7910  -14.8798   20.2107 O   0  0  0  0  0  0
  -21.6643   -6.8866   21.4237 O   0  0  0  0  0  0
  -22.3530  -14.5536   20.6740 O   0  0  0  0  0  0
  -24.6319  -31.8555   23.1980 C   0  0  0  0  0  0
  -25.9127  -32.4758   23.8352 C   0  0  1  0  0  0
  -27.2268  -27.2733   20.1038 C   0  0  0  0  0  0
  -25.5876  -33.8559   24.2242 N   0  0  0  0  0  0
  -23.4286  -30.4791   21.5429 C   0  0  2  0  0  0
  -24.8740  -28.9189   20.1187 C   0  0  0  0  0  0
  -22.7507  -29.4630   22.4945 C   0  0  0  0  0  0
  -18.0294  -28.1397   22.8497 C   0  0  0  0  0  0
  -24.1464  -36.7318   23.2646 C   0  0  0  0  0  0
  -25.9774  -30.7681   21.3785 C   0  0  0  0  0  0
  -26.0493  -29.3925   20.7166 C   0  0  0  0  0  0
  -27.2319  -28.5848   20.6894 C   0  0  0  0  0  0
  -26.0198  -26.8503   19.5117 C   0  0  0  0  0  0
  -24.8624  -27.6544   19.5094 C   0  0  0  0  0  0
  -23.6443  -29.8055   20.1633 C   0  0  0  0  0  0
  -25.4096  -36.3067   24.0318 C   0  0  1  0  0  0
  -20.5890  -28.3699   23.1282 C   0  0  2  0  0  0
  -20.6781  -26.9419   22.5399 C   0  0  0  0  0  0
  -19.5754  -26.6388   21.5207 C   0  0  0  0  0  0
  -18.1937  -26.7949   22.1624 C   0  0  0  0  0  0
  -19.1544  -28.8869   23.2890 C   0  0  0  0  0  0
  -18.9454  -30.1465   23.8919 C   0  0  0  0  0  0
  -17.6453  -30.6607   24.0545 C   0  0  0  0  0  0
  -25.9026  -34.9438   23.5087 C   0  0  0  0  0  0
  -16.5341  -29.9092   23.6343 C   0  0  0  0  0  0
  -16.7275  -28.6505   23.0373 C   0  0  0  0  0  0
  -26.4459  -31.6628   25.0782 C   0  0  0  0  0  0
  -25.3654  -31.3799   26.1497 C   0  0  0  0  0  0
  -27.0350  -30.3053   24.6319 C   0  0  0  0  0  0
  -27.5987  -32.4423   25.7532 C   0  0  0  0  0  0
  -27.5595  -37.1796   24.8468 C   0  0  0  0  0  0
  -21.4214  -29.3060   22.3685 N   0  0  0  0  0  0
  -26.4294  -37.3755   23.9419 N   0  0  0  0  0  0
  -24.6988  -31.0520   22.0955 N   0  0  0  0  0  0
  -23.4220  -28.8170   23.3033 O   0  0  0  0  0  0
  -28.3552  -26.4270   20.0565 O   0  0  0  0  0  0
  -26.5633  -34.8914   22.4682 O   0  0  0  0  0  0
  -23.5453  -32.1363   23.7266 O   0  0  0  0  0  0
  -29.1444  -20.4652   21.3552 C   0  0  0  0  0  0
  -28.8127  -21.8567   21.2765 C   0  0  0  0  0  0
  -29.4470  -19.9654   20.1148 C   0  0  0  0  0  0
  -28.9050  -22.2989   19.9844 C   0  0  0  0  0  0
  -31.0998  -18.3427   18.8826 C   0  0  0  0  0  0
  -27.5980  -23.7732   18.2789 C   0  0  0  0  0  0
  -28.9945  -20.7138   15.4390 C   0  0  0  0  0  0
  -27.2513  -20.3320   17.2414 C   0  0  0  0  0  0
  -29.6689  -21.1481   17.8430 C   0  0  0  0  0  0
  -29.9133  -17.3262   20.8586 C   0  0  0  0  0  0
  -28.2593  -24.9723   20.4201 C   0  0  0  0  0  0
  -29.8022  -18.4592   19.7075 C   0  0  1  0  0  0
  -28.6523  -23.7683   19.4061 C   0  0  1  0  0  0
  -28.7566  -20.3128   16.9046 C   0  0  0  0  0  0
  -29.3290  -21.1253   19.2657 N   0  0  0  0  0  0
  -29.7379  -15.8358   20.5547 N   0  0  0  0  0  0
  -31.4778  -12.6283   19.1212 H   0  0  0  0  0  0
  -30.4330  -11.4873   19.9305 H   0  0  0  0  0  0
  -29.7832  -11.7140   17.5120 H   0  0  0  0  0  0
  -29.6167  -13.4434   17.6912 H   0  0  0  0  0  0
  -27.8970  -11.2674   18.9201 H   0  0  0  0  0  0
  -27.3684  -12.4966   17.8015 H   0  0  0  0  0  0
  -27.6320  -14.2390   19.4544 H   0  0  0  0  0  0
  -28.7372  -12.1541   21.4065 H   0  0  0  0  0  0
  -28.4316  -13.8308   21.7828 H   0  0  0  0  0  0
  -25.2755   -9.5696   22.4773 H   0  0  0  0  0  0
  -24.0006   -7.4633   22.7474 H   0  0  0  0  0  0
  -21.0845   -8.8763   19.8947 H   0  0  0  0  0  0
  -22.3683  -10.9676   19.6174 H   0  0  0  0  0  0
  -21.2003   -7.6152   23.9707 H   0  0  0  0  0  0
  -21.1476   -6.0531   25.9076 H   0  0  0  0  0  0
  -22.0603   -2.7612   23.2853 H   0  0  0  0  0  0
  -22.4113  -11.9856   22.4808 H   0  0  0  0  0  0
  -21.1097  -13.1204   22.2639 H   0  0  0  0  0  0
  -24.6500  -15.8380   20.5167 H   0  0  0  0  0  0
  -26.2516  -15.6285   20.0335 H   0  0  0  0  0  0
  -26.7209  -32.5372   23.1099 H   0  0  0  0  0  0
  -24.9898  -33.9699   25.0299 H   0  0  0  0  0  0
  -22.7207  -31.2977   21.3946 H   0  0  0  0  0  0
  -23.3700  -35.9678   23.3282 H   0  0  0  0  0  0
  -24.3535  -36.9006   22.2067 H   0  0  0  0  0  0
  -23.7245  -37.6515   23.6709 H   0  0  0  0  0  0
  -26.1218  -31.5281   20.6097 H   0  0  0  0  0  0
  -26.8526  -30.8110   22.0151 H   0  0  0  0  0  0
  -28.1441  -28.9482   21.1419 H   0  0  0  0  0  0
  -25.9545  -25.8800   19.0436 H   0  0  0  0  0  0
  -23.9582  -27.2850   19.0452 H   0  0  0  0  0  0
  -23.7575  -30.5741   19.3984 H   0  0  0  0  0  0
  -22.7611  -29.2359   19.8715 H   0  0  0  0  0  0
  -25.1261  -36.1902   25.0802 H   0  0  0  0  0  0
  -20.9992  -28.3269   24.1397 H   0  0  0  0  0  0
  -20.5686  -26.2298   23.3594 H   0  0  0  0  0  0
  -21.6644  -26.7454   22.1178 H   0  0  0  0  0  0
  -19.6893  -25.6288   21.1272 H   0  0  0  0  0  0
  -19.6710  -27.3159   20.6703 H   0  0  0  0  0  0
  -17.4203  -26.6701   21.4035 H   0  0  0  0  0  0
  -18.0331  -26.0092   22.9012 H   0  0  0  0  0  0
  -19.7909  -30.7275   24.2335 H   0  0  0  0  0  0
  -17.4988  -31.6297   24.5116 H   0  0  0  0  0  0
  -15.5334  -30.2971   23.7703 H   0  0  0  0  0  0
  -15.8665  -28.0817   22.7104 H   0  0  0  0  0  0
  -24.5764  -30.7227   25.7808 H   0  0  0  0  0  0
  -24.8889  -32.2979   26.4951 H   0  0  0  0  0  0
  -25.7930  -30.8923   27.0268 H   0  0  0  0  0  0
  -26.2992  -29.6768   24.1292 H   0  0  0  0  0  0
  -27.3973  -29.7358   25.4890 H   0  0  0  0  0  0
  -27.8866  -30.4357   23.9646 H   0  0  0  0  0  0
  -27.2574  -33.3734   26.2076 H   0  0  0  0  0  0
  -28.3776  -32.7022   25.0346 H   0  0  0  0  0  0
  -28.0679  -31.8602   26.5470 H   0  0  0  0  0  0
  -28.2561  -38.0128   24.7510 H   0  0  0  0  0  0
  -28.1144  -36.2665   24.6268 H   0  0  0  0  0  0
  -27.2339  -37.1411   25.8875 H   0  0  0  0  0  0
  -20.9394  -29.8778   21.6889 H   0  0  0  0  0  0
  -26.0171  -38.2846   24.1352 H   0  0  0  0  0  0
  -29.1463  -19.8787   22.2639 H   0  0  0  0  0  0
  -28.5312  -22.4862   22.1098 H   0  0  0  0  0  0
  -31.0096  -18.7404   17.8770 H   0  0  0  0  0  0
  -31.3868  -17.2998   18.7533 H   0  0  0  0  0  0
  -31.9310  -18.8488   19.3746 H   0  0  0  0  0  0
  -27.8854  -23.1847   17.4157 H   0  0  0  0  0  0
  -27.4379  -24.7778   17.8901 H   0  0  0  0  0  0
  -26.6404  -23.3869   18.6269 H   0  0  0  0  0  0
  -28.4180  -20.0910   14.7552 H   0  0  0  0  0  0
  -30.0470  -20.6142   15.1671 H   0  0  0  0  0  0
  -28.7098  -21.7523   15.2584 H   0  0  0  0  0  0
  -26.7197  -19.5742   16.6639 H   0  0  0  0  0  0
  -26.7862  -21.2877   17.0051 H   0  0  0  0  0  0
  -27.0618  -20.1226   18.2939 H   0  0  0  0  0  0
  -29.7070  -22.1789   17.5028 H   0  0  0  0  0  0
  -30.7089  -20.8437   17.7419 H   0  0  0  0  0  0
  -29.1121  -17.5350   21.5697 H   0  0  0  0  0  0
  -30.8331  -17.4670   21.4290 H   0  0  0  0  0  0
  -28.9446  -24.8741   21.2618 H   0  0  0  0  0  0
  -27.2788  -24.7630   20.8497 H   0  0  0  0  0  0
  -28.9879  -18.1274   19.0623 H   0  0  0  0  0  0
  -29.5951  -24.0800   18.9554 H   0  0  0  0  0  0
  -29.0656  -19.2733   17.0018 H   0  0  0  0  0  0
  -28.7732  -15.5445   20.5872 H   0  0  0  0  0  0
  1 25  1  0  0  0
  1 30  2  0  0  0
  1 86  1  0  0  0
  2  3  1  0  0  0
  2 25  1  0  0  0
  2 87  1  0  0  0
  2 88  1  0  0  0
  3  4  1  0  0  0
  3 89  1  0  0  0
  3 90  1  0  0  0
  4  5  1  0  0  0
  4 91  1  0  0  0
  4 92  1  0  0  0
  5  6  1  0  0  0
  5 26  1  0  0  0
  5 93  1  0  0  0
  6 25  1  0  0  0
  6 94  1  0  0  0
  6 95  1  0  0  0
  7  8  2  0  0  0
  7 26  1  0  0  0
  7 29  1  0  0  0
  8  9  1  0  0  0
  8 22  1  0  0  0
  9 10  1  0  0  0
  9 27  2  0  0  0
 10 11  2  0  0  0
 10 15  1  0  0  0
 11 12  1  0  0  0
 11 96  1  0  0  0
 12 13  2  0  0  0
 12 97  1  0  0  0
 13 14  1  0  0  0
 13 31  1  0  0  0
 14 15  2  0  0  0
 14 98  1  0  0  0
 15 99  1  0  0  0
 16 17  2  0  0  0
 16 21  1  0  0  0
 16 31  1  0  0  0
 17 18  1  0  0  0
 17100  1  0  0  0
 18 19  2  0  0  0
 18101  1  0  0  0
 19 20  1  0  0  0
 19 24  1  0  0  0
 20 21  2  0  0  0
 20102  1  0  0  0
 21 23  1  0  0  0
 22 28  1  0  0  0
 22 32  2  0  0  0
 26 27  1  0  0  0
 28103  1  0  0  0
 28104  1  0  0  0
 29105  1  0  0  0
 29106  1  0  0  0
 33 34  1  0  0  0
 33 66  1  0  0  0
 33 70  2  0  0  0
 34 36  1  0  0  0
 34 59  1  0  0  0
 34107  1  0  0  0
 35 44  2  0  0  0
 35 45  1  0  0  0
 35 68  1  0  0  0
 36 56  1  0  0  0
 36108  1  0  0  0
 37 39  1  0  0  0
 37 47  1  0  0  0
 37 66  1  0  0  0
 37109  1  0  0  0
 38 43  2  0  0  0
 38 46  1  0  0  0
 38 47  1  0  0  0
 39 64  1  0  0  0
 39 67  2  0  0  0
 40 52  1  0  0  0
 40 53  2  0  0  0
 40 58  1  0  0  0
 41110  1  0  0  0
 41111  1  0  0  0
 41112  1  0  0  0
 41 48  1  0  0  0
 42 43  1  0  0  0
 42 66  1  0  0  0
 42113  1  0  0  0
 42114  1  0  0  0
 43 44  1  0  0  0
 44115  1  0  0  0
 45 46  2  0  0  0
 45116  1  0  0  0
 46117  1  0  0  0
 47118  1  0  0  0
 47119  1  0  0  0
 48 56  1  0  0  0
 48 65  1  0  0  0
 48120  1  0  0  0
 49 50  1  0  0  0
 49 53  1  0  0  0
 49 64  1  0  0  0
 49121  1  0  0  0
 50 51  1  0  0  0
 50122  1  0  0  0
 50123  1  0  0  0
 51 52  1  0  0  0
 51124  1  0  0  0
 51125  1  0  0  0
 52126  1  0  0  0
 52127  1  0  0  0
 53 54  1  0  0  0
 54 55  2  0  0  0
 54128  1  0  0  0
 55 57  1  0  0  0
 55129  1  0  0  0
 56 69  2  0  0  0
 57 58  2  0  0  0
 57130  1  0  0  0
 58131  1  0  0  0
 59 60  1  0  0  0
 59 61  1  0  0  0
 59 62  1  0  0  0
 60132  1  0  0  0
 60133  1  0  0  0
 60134  1  0  0  0
 61135  1  0  0  0
 61136  1  0  0  0
 61137  1  0  0  0
 62138  1  0  0  0
 62139  1  0  0  0
 62140  1  0  0  0
 63 65  1  0  0  0
 63141  1  0  0  0
 63142  1  0  0  0
 63143  1  0  0  0
 64144  1  0  0  0
 65145  1  0  0  0
 68 81  1  0  0  0
 71 72  1  0  0  0
 71 73  2  0  0  0
 71146  1  0  0  0
 72 74  2  0  0  0
 72147  1  0  0  0
 73 82  1  0  0  0
 73 85  1  0  0  0
 74 83  1  0  0  0
 74 85  1  0  0  0
 75148  1  0  0  0
 75149  1  0  0  0
 75150  1  0  0  0
 75 82  1  0  0  0
 76151  1  0  0  0
 76152  1  0  0  0
 76153  1  0  0  0
 76 83  1  0  0  0
 77154  1  0  0  0
 77155  1  0  0  0
 77156  1  0  0  0
 77 84  1  0  0  0
 78 84  1  0  0  0
 78157  1  0  0  0
 78158  1  0  0  0
 78159  1  0  0  0
 79 84  1  0  0  0
 79 85  1  0  0  0
 79160  1  0  0  0
 79161  1  0  0  0
 80 82  1  0  0  0
 80 86  1  0  0  0
 80162  1  0  0  0
 80163  1  0  0  0
 81 83  1  0  0  0
 81164  1  0  0  0
 81165  1  0  0  0
 82166  1  0  0  0
 83167  1  0  0  0
 84168  1  0  0  0
 86169  1  0  0  0
M  ISO  4   1 100  68 101  81 101  86 100
M  END
> <chiral flag>
0

> <version>
0

> <s_m_source_file>
/data/baiqing/PycharmProjects/Reinvent-master-3.2/result/LINK_invent/BTK/process_docking_weight1_custom_sum_contain_oxygen_bond_distance_aromatic_linkinvent_7_9_3/rearranged_h_0100.sdf

> <i_m_source_file_index>
10

> <r_mmod_Potential_Energy-OPLS-2005>
166.830413818359

> <r_mmod_Stretch_Energy-OPLS-2005>
131.205307006836

> <r_mmod_Bend_Energy-OPLS-2005>
188.027557373047

> <r_mmod_Torsional_Energy-OPLS-2005>
251.150344848633

> <r_mmod_Improper_Torsional_Energy-OPLS-2005>
5.31522798538208

> <r_mmod_Van_der_Waal_Energy-OPLS-2005>
109.762672424316

> <r_mmod_Electrostatic_Energy-OPLS-2005>
-400.287628173828

> <r_mmod_Solvation_Energy-OPLS-2005>
-200.92350769043

> <b_mmod_Minimization_Converged-OPLS-2005>
0

> <r_mmod_RMS_Derivative-OPLS-2005>
3.22541260719299

$$$$
10
                    3D
 Structure written by MMmdl.
177185  0  0  1  0            999 V2000
  -30.7357  -14.5268   20.6316 C   0  0  0  0  0  0
  -30.4220  -12.3669   19.4491 C   0  0  0  0  0  0
  -29.5033  -12.5220   18.2217 C   0  0  0  0  0  0
  -28.0264  -12.3756   18.6332 C   0  0  0  0  0  0
  -27.6608  -13.2247   19.8802 C   0  0  2  0  0  0
  -28.7011  -13.0614   21.0098 C   0  0  0  0  0  0
  -25.2603  -13.8212   20.5722 C   0  0  0  0  0  0
  -24.1854  -13.0430   20.9184 C   0  0  0  0  0  0
  -24.6442  -11.6923   20.8744 C   0  0  0  0  0  0
  -23.9110  -10.4289   21.0403 C   0  0  0  0  0  0
  -24.3656   -9.4213   21.9181 C   0  0  0  0  0  0
  -23.6318   -8.2257   22.0762 C   0  0  0  0  0  0
  -22.4304   -8.0307   21.3543 C   0  0  0  0  0  0
  -21.9944   -9.0279   20.4643 C   0  0  0  0  0  0
  -22.7291  -10.2142   20.3049 C   0  0  0  0  0  0
  -21.6860   -6.0752   22.5284 C   0  0  0  0  0  0
  -21.4012   -6.5645   23.8215 C   0  0  0  0  0  0
  -21.3652   -5.6802   24.9181 C   0  0  0  0  0  0
  -21.6051   -4.3066   24.7222 C   0  0  0  0  0  0
  -21.8822   -3.8159   23.4337 C   0  0  0  0  0  0
  -21.9197   -4.6982   22.3404 C   0  0  0  0  0  0
  -22.7883  -13.5233   21.1817 C   0  0  0  0  0  0
  -22.1671   -4.2164   21.0982 F   0  0  0  0  0  0
  -21.5622   -3.4546   25.7730 F   0  0  0  0  0  0
  -30.0201  -13.3789   20.4474 N   0  0  0  0  0  0
  -26.3041  -12.9404   20.3431 N   0  0  0  0  0  0
  -25.9382  -11.6533   20.5811 N   0  0  0  0  0  0
  -22.0549  -12.8201   22.0372 N   0  0  0  0  0  0
  -25.4289  -15.1918   20.4161 N   0  0  0  0  0  0
  -31.8633  -14.6464   20.1527 O   0  0  0  0  0  0
  -21.6663   -6.8912   21.4248 O   0  0  0  0  0  0
  -22.3578  -14.5548   20.6711 O   0  0  0  0  0  0
  -24.6089  -31.8583   23.2084 C   0  0  0  0  0  0
  -25.8950  -32.4788   23.8384 C   0  0  1  0  0  0
  -27.2728  -27.4120   20.1021 C   0  0  0  0  0  0
  -25.5758  -33.8562   24.2334 N   0  0  0  0  0  0
  -23.4064  -30.4792   21.5535 C   0  0  2  0  0  0
  -24.8655  -28.9464   20.1130 C   0  0  0  0  0  0
  -22.7368  -29.4548   22.4984 C   0  0  0  0  0  0
  -18.0236  -28.1319   22.8540 C   0  0  0  0  0  0
  -24.1488  -36.7331   23.2681 C   0  0  0  0  0  0
  -25.9332  -30.8267   21.3576 C   0  0  0  0  0  0
  -26.0215  -29.4523   20.7199 C   0  0  0  0  0  0
  -27.2183  -28.6915   20.7194 C   0  0  0  0  0  0
  -26.1006  -26.9351   19.4761 C   0  0  0  0  0  0
  -24.9051  -27.6865   19.4832 C   0  0  0  0  0  0
  -23.6215  -29.8127   20.1694 C   0  0  0  0  0  0
  -25.4088  -36.3108   24.0390 C   0  0  1  0  0  0
  -20.5825  -28.3559   23.1338 C   0  0  2  0  0  0
  -20.6710  -26.9294   22.5427 C   0  0  0  0  0  0
  -19.5687  -26.6362   21.5225 C   0  0  0  0  0  0
  -18.1868  -26.7873   22.1661 C   0  0  0  0  0  0
  -19.1487  -28.8757   23.2944 C   0  0  0  0  0  0
  -18.9424  -30.1376   23.8936 C   0  0  0  0  0  0
  -17.6429  -30.6540   24.0568 C   0  0  0  0  0  0
  -25.8977  -34.9450   23.5200 C   0  0  0  0  0  0
  -16.5320  -29.9053   23.6336 C   0  0  0  0  0  0
  -16.7231  -28.6477   23.0344 C   0  0  0  0  0  0
  -26.4441  -31.6516   25.0657 C   0  0  0  0  0  0
  -25.3769  -31.3448   26.1441 C   0  0  0  0  0  0
  -27.0334  -30.3047   24.5869 C   0  0  0  0  0  0
  -27.6047  -32.4203   25.7383 C   0  0  0  0  0  0
  -27.5586  -37.1777   24.8492 C   0  0  0  0  0  0
  -21.4073  -29.2959   22.3763 N   0  0  0  0  0  0
  -26.4302  -37.3769   23.9439 N   0  0  0  0  0  0
  -24.6715  -31.0606   22.1058 N   0  0  0  0  0  0
  -23.4100  -28.8028   23.2993 O   0  0  0  0  0  0
  -28.4737  -26.7031   20.1448 O   0  0  0  0  0  0
  -26.5604  -34.8926   22.4797 O   0  0  0  0  0  0
  -23.5255  -32.1401   23.7379 O   0  0  0  0  0  0
  -31.5593  -20.6543   20.2548 C   0  0  0  0  0  0
  -32.5902  -19.7068   20.3039 C   0  0  0  0  0  0
  -30.0994  -19.0555   21.3557 C   0  0  0  0  0  0
  -30.3182  -20.3842   20.8563 C   0  0  0  0  0  0
  -32.4230  -18.4507   20.9217 C   0  0  0  0  0  0
  -31.1251  -18.0483   21.3811 C   0  0  0  0  0  0
  -34.2807  -17.0076   19.8631 C   0  0  0  0  0  0
  -27.0943  -23.4703   22.6564 C   0  0  0  0  0  0
  -28.9787  -16.5781   23.8077 C   0  0  0  0  0  0
  -31.2597  -15.6387   24.3513 C   0  0  0  0  0  0
  -29.2854  -21.5347   21.0565 C   0  0  0  0  0  0
  -33.7356  -17.6800   21.1305 C   0  0  0  0  0  0
  -27.2675  -23.9621   21.2131 C   0  0  0  0  0  0
  -29.4839  -22.9117   20.2849 C   0  0  0  0  0  0
  -28.6677  -25.3452   19.6473 C   0  0  0  0  0  0
  -30.8957  -16.6352   22.0338 C   0  0  1  0  0  0
  -30.4923  -16.6988   23.5369 C   0  0  0  0  0  0
  -28.7115  -24.2205   20.7471 C   0  0  1  0  0  0
  -30.1605  -15.5504   21.3133 N   0  0  0  0  0  0
  -31.4661  -12.4682   19.1477 H   0  0  0  0  0  0
  -30.3370  -11.3662   19.8753 H   0  0  0  0  0  0
  -29.7534  -11.7785   17.4638 H   0  0  0  0  0  0
  -29.6660  -13.4981   17.7603 H   0  0  0  0  0  0
  -27.8432  -11.3209   18.8405 H   0  0  0  0  0  0
  -27.3782  -12.6454   17.7988 H   0  0  0  0  0  0
  -27.6906  -14.2687   19.5669 H   0  0  0  0  0  0
  -28.7032  -12.0432   21.4012 H   0  0  0  0  0  0
  -28.4533  -13.7003   21.8580 H   0  0  0  0  0  0
  -25.2796   -9.5686   22.4750 H   0  0  0  0  0  0
  -24.0019   -7.4657   22.7495 H   0  0  0  0  0  0
  -21.0873   -8.8809   19.8952 H   0  0  0  0  0  0
  -22.3760  -10.9690   19.6155 H   0  0  0  0  0  0
  -21.2009   -7.6159   23.9719 H   0  0  0  0  0  0
  -21.1467   -6.0532   25.9076 H   0  0  0  0  0  0
  -22.0607   -2.7618   23.2843 H   0  0  0  0  0  0
  -22.4188  -11.9850   22.4696 H   0  0  0  0  0  0
  -21.1165  -13.1206   22.2599 H   0  0  0  0  0  0
  -24.6594  -15.8458   20.5239 H   0  0  0  0  0  0
  -26.2869  -15.6364   20.1065 H   0  0  0  0  0  0
  -26.6937  -32.5578   23.1069 H   0  0  0  0  0  0
  -24.9776  -33.9668   25.0395 H   0  0  0  0  0  0
  -22.7009  -31.3006   21.4145 H   0  0  0  0  0  0
  -23.3759  -35.9662   23.3335 H   0  0  0  0  0  0
  -24.3617  -36.8966   22.2113 H   0  0  0  0  0  0
  -23.7235  -37.6522   23.6712 H   0  0  0  0  0  0
  -25.9981  -31.5742   20.5644 H   0  0  0  0  0  0
  -26.8401  -30.9256   21.9440 H   0  0  0  0  0  0
  -28.1067  -29.0818   21.2002 H   0  0  0  0  0  0
  -26.1016  -25.9817   18.9758 H   0  0  0  0  0  0
  -24.0370  -27.2904   18.9750 H   0  0  0  0  0  0
  -23.7061  -30.6030   19.4198 H   0  0  0  0  0  0
  -22.7547  -29.2183   19.8791 H   0  0  0  0  0  0
  -25.1237  -36.2033   25.0883 H   0  0  0  0  0  0
  -20.9925  -28.3156   24.1451 H   0  0  0  0  0  0
  -20.5575  -26.2146   23.3589 H   0  0  0  0  0  0
  -21.6564  -26.7295   22.1218 H   0  0  0  0  0  0
  -19.6834  -25.6308   21.1160 H   0  0  0  0  0  0
  -19.6665  -27.3270   20.6852 H   0  0  0  0  0  0
  -17.4120  -26.6648   21.4090 H   0  0  0  0  0  0
  -18.0241  -25.9991   22.9024 H   0  0  0  0  0  0
  -19.7905  -30.7150   24.2369 H   0  0  0  0  0  0
  -17.4987  -31.6248   24.5081 H   0  0  0  0  0  0
  -15.5302  -30.2923   23.7639 H   0  0  0  0  0  0
  -15.8651  -28.0792   22.6997 H   0  0  0  0  0  0
  -24.5958  -30.6781   25.7760 H   0  0  0  0  0  0
  -24.8888  -32.2488   26.5093 H   0  0  0  0  0  0
  -25.8177  -30.8485   27.0103 H   0  0  0  0  0  0
  -26.2855  -29.6688   24.1106 H   0  0  0  0  0  0
  -27.4489  -29.7320   25.4166 H   0  0  0  0  0  0
  -27.8469  -30.4533   23.8764 H   0  0  0  0  0  0
  -27.2766  -33.3556   26.1943 H   0  0  0  0  0  0
  -28.3835  -32.6644   25.0136 H   0  0  0  0  0  0
  -28.0736  -31.8301   26.5277 H   0  0  0  0  0  0
  -28.2566  -38.0102   24.7534 H   0  0  0  0  0  0
  -28.1091  -36.2608   24.6312 H   0  0  0  0  0  0
  -27.2276  -37.1427   25.8886 H   0  0  0  0  0  0
  -20.9142  -29.8784   21.7119 H   0  0  0  0  0  0
  -26.0231  -38.2870   24.1413 H   0  0  0  0  0  0
  -31.7742  -21.6095   19.8013 H   0  0  0  0  0  0
  -33.5606  -19.9873   19.9177 H   0  0  0  0  0  0
  -29.1392  -18.8359   21.7949 H   0  0  0  0  0  0
  -35.2985  -16.6451   20.0215 H   0  0  0  0  0  0
  -34.3136  -17.7055   19.0291 H   0  0  0  0  0  0
  -33.6779  -16.1592   19.5558 H   0  0  0  0  0  0
  -27.3551  -22.4240   22.7744 H   0  0  0  0  0  0
  -26.0496  -23.5607   22.9490 H   0  0  0  0  0  0
  -27.6803  -24.0512   23.3691 H   0  0  0  0  0  0
  -28.7537  -16.7798   24.8568 H   0  0  0  0  0  0
  -28.5956  -15.5810   23.5911 H   0  0  0  0  0  0
  -28.4071  -17.2915   23.2195 H   0  0  0  0  0  0
  -31.0308  -15.6969   25.4155 H   0  0  0  0  0  0
  -32.3361  -15.7778   24.2506 H   0  0  0  0  0  0
  -31.0283  -14.6280   24.0151 H   0  0  0  0  0  0
  -29.3036  -21.7303   22.1270 H   0  0  0  0  0  0
  -28.2914  -21.1349   20.8488 H   0  0  0  0  0  0
  -33.7426  -16.9945   21.9768 H   0  0  0  0  0  0
  -34.4748  -18.4226   21.4406 H   0  0  0  0  0  0
  -26.7233  -24.9027   21.1665 H   0  0  0  0  0  0
  -26.7648  -23.2938   20.5149 H   0  0  0  0  0  0
  -29.2979  -22.7230   19.2275 H   0  0  0  0  0  0
  -30.5305  -23.2068   20.3361 H   0  0  0  0  0  0
  -27.9865  -25.0563   18.8464 H   0  0  0  0  0  0
  -29.6502  -25.3761   19.1722 H   0  0  0  0  0  0
  -31.8898  -16.2181   22.0802 H   0  0  0  0  0  0
  -30.8173  -17.6626   23.9302 H   0  0  0  0  0  0
  -29.2724  -24.6492   21.5831 H   0  0  0  0  0  0
  -29.1949  -15.4190   21.5736 H   0  0  0  0  0  0
  1 25  1  0  0  0
  1 30  2  0  0  0
  1 89  1  0  0  0
  2  3  1  0  0  0
  2 25  1  0  0  0
  2 90  1  0  0  0
  2 91  1  0  0  0
  3  4  1  0  0  0
  3 92  1  0  0  0
  3 93  1  0  0  0
  4  5  1  0  0  0
  4 94  1  0  0  0
  4 95  1  0  0  0
  5  6  1  0  0  0
  5 26  1  0  0  0
  5 96  1  0  0  0
  6 25  1  0  0  0
  6 97  1  0  0  0
  6 98  1  0  0  0
  7  8  2  0  0  0
  7 26  1  0  0  0
  7 29  1  0  0  0
  8  9  1  0  0  0
  8 22  1  0  0  0
  9 10  1  0  0  0
  9 27  2  0  0  0
 10 11  2  0  0  0
 10 15  1  0  0  0
 11 12  1  0  0  0
 11 99  1  0  0  0
 12 13  2  0  0  0
 12100  1  0  0  0
 13 14  1  0  0  0
 13 31  1  0  0  0
 14 15  2  0  0  0
 14101  1  0  0  0
 15102  1  0  0  0
 16 17  2  0  0  0
 16 21  1  0  0  0
 16 31  1  0  0  0
 17 18  1  0  0  0
 17103  1  0  0  0
 18 19  2  0  0  0
 18104  1  0  0  0
 19 20  1  0  0  0
 19 24  1  0  0  0
 20 21  2  0  0  0
 20105  1  0  0  0
 21 23  1  0  0  0
 22 28  1  0  0  0
 22 32  2  0  0  0
 26 27  1  0  0  0
 28106  1  0  0  0
 28107  1  0  0  0
 29108  1  0  0  0
 29109  1  0  0  0
 33 34  1  0  0  0
 33 66  1  0  0  0
 33 70  2  0  0  0
 34 36  1  0  0  0
 34 59  1  0  0  0
 34110  1  0  0  0
 35 44  2  0  0  0
 35 45  1  0  0  0
 35 68  1  0  0  0
 36 56  1  0  0  0
 36111  1  0  0  0
 37 39  1  0  0  0
 37 47  1  0  0  0
 37 66  1  0  0  0
 37112  1  0  0  0
 38 43  2  0  0  0
 38 46  1  0  0  0
 38 47  1  0  0  0
 39 64  1  0  0  0
 39 67  2  0  0  0
 40 52  1  0  0  0
 40 53  2  0  0  0
 40 58  1  0  0  0
 41113  1  0  0  0
 41114  1  0  0  0
 41115  1  0  0  0
 41 48  1  0  0  0
 42 43  1  0  0  0
 42 66  1  0  0  0
 42116  1  0  0  0
 42117  1  0  0  0
 43 44  1  0  0  0
 44118  1  0  0  0
 45 46  2  0  0  0
 45119  1  0  0  0
 46120  1  0  0  0
 47121  1  0  0  0
 47122  1  0  0  0
 48 56  1  0  0  0
 48 65  1  0  0  0
 48123  1  0  0  0
 49 50  1  0  0  0
 49 53  1  0  0  0
 49 64  1  0  0  0
 49124  1  0  0  0
 50 51  1  0  0  0
 50125  1  0  0  0
 50126  1  0  0  0
 51 52  1  0  0  0
 51127  1  0  0  0
 51128  1  0  0  0
 52129  1  0  0  0
 52130  1  0  0  0
 53 54  1  0  0  0
 54 55  2  0  0  0
 54131  1  0  0  0
 55 57  1  0  0  0
 55132  1  0  0  0
 56 69  2  0  0  0
 57 58  2  0  0  0
 57133  1  0  0  0
 58134  1  0  0  0
 59 60  1  0  0  0
 59 61  1  0  0  0
 59 62  1  0  0  0
 60135  1  0  0  0
 60136  1  0  0  0
 60137  1  0  0  0
 61138  1  0  0  0
 61139  1  0  0  0
 61140  1  0  0  0
 62141  1  0  0  0
 62142  1  0  0  0
 62143  1  0  0  0
 63 65  1  0  0  0
 63144  1  0  0  0
 63145  1  0  0  0
 63146  1  0  0  0
 64147  1  0  0  0
 65148  1  0  0  0
 68 85  1  0  0  0
 71 72  2  0  0  0
 71 74  1  0  0  0
 71149  1  0  0  0
 72 75  1  0  0  0
 72150  1  0  0  0
 73 74  2  0  0  0
 73 76  1  0  0  0
 73151  1  0  0  0
 74 81  1  0  0  0
 75 76  2  0  0  0
 75 82  1  0  0  0
 76 86  1  0  0  0
 77 82  1  0  0  0
 77152  1  0  0  0
 77153  1  0  0  0
 77154  1  0  0  0
 78 83  1  0  0  0
 78155  1  0  0  0
 78156  1  0  0  0
 78157  1  0  0  0
 79158  1  0  0  0
 79159  1  0  0  0
 79160  1  0  0  0
 79 87  1  0  0  0
 80 87  1  0  0  0
 80161  1  0  0  0
 80162  1  0  0  0
 80163  1  0  0  0
 81 84  1  0  0  0
 81164  1  0  0  0
 81165  1  0  0  0
 82166  1  0  0  0
 82167  1  0  0  0
 83168  1  0  0  0
 83169  1  0  0  0
 83 88  1  0  0  0
 84 88  1  0  0  0
 84170  1  0  0  0
 84171  1  0  0  0
 85 88  1  0  0  0
 85172  1  0  0  0
 85173  1  0  0  0
 86 87  1  0  0  0
 86 89  1  0  0  0
 86174  1  0  0  0
 87175  1  0  0  0
 88176  1  0  0  0
 89177  1  0  0  0
M  ISO  4   1 100  68 101  85 101  89 100
M  END
> <chiral flag>
0

> <version>
0

> <s_m_source_file>
/data/baiqing/PycharmProjects/Reinvent-master-3.2/result/LINK_invent/BTK/process_docking_weight1_custom_sum_contain_oxygen_bond_distance_aromatic_linkinvent_7_9_3/rearranged_h_0100.sdf

> <i_m_source_file_index>
11

> <r_mmod_Potential_Energy-OPLS-2005>
44.3981971740723

> <r_mmod_Stretch_Energy-OPLS-2005>
69.6245346069336

> <r_mmod_Bend_Energy-OPLS-2005>
171.015670776367

> <r_mmod_Torsional_Energy-OPLS-2005>
239.600204467773

> <r_mmod_Improper_Torsional_Energy-OPLS-2005>
3.70181059837341

> <r_mmod_Van_der_Waal_Energy-OPLS-2005>
153.155685424805

> <r_mmod_Electrostatic_Energy-OPLS-2005>
-429.484924316406

> <r_mmod_Solvation_Energy-OPLS-2005>
-184.208526611328

> <b_mmod_Minimization_Converged-OPLS-2005>
0

> <r_mmod_RMS_Derivative-OPLS-2005>
6.00322580337524

$$$$
11
                    3D
 Structure written by MMmdl.
170178  0  0  1  0            999 V2000
  -30.5552  -14.8687   20.4561 C   0  0  0  0  0  0
  -30.4439  -12.5370   19.4883 C   0  0  0  0  0  0
  -29.5183  -12.5137   18.2495 C   0  0  0  0  0  0
  -28.0500  -12.3107   18.6653 C   0  0  0  0  0  0
  -27.6358  -13.2281   19.8458 C   0  0  2  0  0  0
  -28.6800  -13.2119   20.9814 C   0  0  0  0  0  0
  -25.2507  -13.8076   20.5746 C   0  0  0  0  0  0
  -24.1798  -13.0373   20.9242 C   0  0  0  0  0  0
  -24.6355  -11.6842   20.8730 C   0  0  0  0  0  0
  -23.9028  -10.4233   21.0381 C   0  0  0  0  0  0
  -24.3588   -9.4165   21.9181 C   0  0  0  0  0  0
  -23.6262   -8.2205   22.0769 C   0  0  0  0  0  0
  -22.4259   -8.0229   21.3535 C   0  0  0  0  0  0
  -21.9862   -9.0203   20.4652 C   0  0  0  0  0  0
  -22.7187  -10.2077   20.3032 C   0  0  0  0  0  0
  -21.6843   -6.0682   22.5269 C   0  0  0  0  0  0
  -21.4026   -6.5606   23.8198 C   0  0  0  0  0  0
  -21.3661   -5.6767   24.9163 C   0  0  0  0  0  0
  -21.6030   -4.3027   24.7224 C   0  0  0  0  0  0
  -21.8827   -3.8103   23.4351 C   0  0  0  0  0  0
  -21.9195   -4.6912   22.3398 C   0  0  0  0  0  0
  -22.7811  -13.5176   21.1854 C   0  0  0  0  0  0
  -22.1649   -4.2081   21.0984 F   0  0  0  0  0  0
  -21.5635   -3.4523   25.7745 F   0  0  0  0  0  0
  -29.9639  -13.6153   20.3934 N   0  0  0  0  0  0
  -26.2903  -12.9300   20.3250 N   0  0  0  0  0  0
  -25.9282  -11.6439   20.5696 N   0  0  0  0  0  0
  -22.0438  -12.8220   22.0431 N   0  0  0  0  0  0
  -25.4250  -15.1784   20.4231 N   0  0  0  0  0  0
  -31.7525  -14.9664   20.1692 O   0  0  0  0  0  0
  -21.6639   -6.8825   21.4227 O   0  0  0  0  0  0
  -22.3507  -14.5448   20.6626 O   0  0  0  0  0  0
  -24.6408  -31.8488   23.1881 C   0  0  0  0  0  0
  -25.9213  -32.4712   23.8271 C   0  0  1  0  0  0
  -27.2090  -27.1596   20.1501 C   0  0  0  0  0  0
  -25.5989  -33.8517   24.2212 N   0  0  0  0  0  0
  -23.4405  -30.4704   21.5314 C   0  0  2  0  0  0
  -24.8881  -28.8968   20.1143 C   0  0  0  0  0  0
  -22.7542  -29.4584   22.4832 C   0  0  0  0  0  0
  -18.0284  -28.1376   22.8451 C   0  0  0  0  0  0
  -24.1496  -36.7257   23.2632 C   0  0  0  0  0  0
  -25.9920  -30.7317   21.3795 C   0  0  0  0  0  0
  -26.0669  -29.3407   20.7286 C   0  0  0  0  0  0
  -27.2329  -28.4879   20.7311 C   0  0  0  0  0  0
  -26.0081  -26.8121   19.4984 C   0  0  0  0  0  0
  -24.8700  -27.6445   19.4840 C   0  0  0  0  0  0
  -23.6649  -29.7991   20.1524 C   0  0  0  0  0  0
  -25.4123  -36.3023   24.0307 C   0  0  1  0  0  0
  -20.5903  -28.3701   23.1200 C   0  0  2  0  0  0
  -20.6787  -26.9397   22.5396 C   0  0  0  0  0  0
  -19.5752  -26.6339   21.5221 C   0  0  0  0  0  0
  -18.1928  -26.7903   22.1632 C   0  0  0  0  0  0
  -19.1542  -28.8862   23.2809 C   0  0  0  0  0  0
  -18.9453  -30.1455   23.8833 C   0  0  0  0  0  0
  -17.6451  -30.6574   24.0512 C   0  0  0  0  0  0
  -25.9078  -34.9408   23.5054 C   0  0  0  0  0  0
  -16.5343  -29.9072   23.6287 C   0  0  0  0  0  0
  -16.7268  -28.6479   23.0343 C   0  0  0  0  0  0
  -26.4547  -31.6549   25.0686 C   0  0  0  0  0  0
  -25.3753  -31.3743   26.1389 C   0  0  0  0  0  0
  -27.0388  -30.2940   24.6240 C   0  0  0  0  0  0
  -27.6065  -32.4306   25.7490 C   0  0  0  0  0  0
  -27.5571  -37.1786   24.8461 C   0  0  0  0  0  0
  -21.4235  -29.3039   22.3567 N   0  0  0  0  0  0
  -26.4281  -37.3746   23.9405 N   0  0  0  0  0  0
  -24.7117  -31.0380   22.0890 N   0  0  0  0  0  0
  -23.4216  -28.8142   23.2966 O   0  0  0  0  0  0
  -28.2459  -26.1673   20.1471 O   0  0  0  0  0  0
  -26.5631  -34.8896   22.4612 O   0  0  0  0  0  0
  -23.5541  -32.1376   23.7121 O   0  0  0  0  0  0
  -29.5832  -21.2125   20.9377 C   0  0  0  0  0  0
  -28.7628  -20.2729   20.2353 C   0  0  0  0  0  0
  -27.6981  -20.9610   19.5428 C   0  0  0  0  0  0
  -27.5816  -22.4151   19.5175 C   0  0  0  0  0  0
  -28.4080  -23.2661   20.3223 C   0  0  0  0  0  0
  -26.5048  -23.1047   18.6795 C   0  0  0  0  0  0
  -22.8640  -19.8456   20.3257 C   0  0  0  0  0  0
  -24.1931  -17.9780   19.3628 C   0  0  0  0  0  0
  -23.6093  -19.9960   17.9500 C   0  0  0  0  0  0
  -28.8521  -18.6223   20.2450 C   0  0  0  0  0  0
  -26.5466  -20.1371   18.9475 C   0  0  0  0  0  0
  -27.9598  -24.7923   20.7854 C   0  0  0  0  0  0
  -25.2852  -20.2360   19.8418 C   0  0  0  0  0  0
  -30.0453  -17.5570   20.6575 C   0  0  0  0  0  0
  -24.0093  -19.5068   19.3532 C   0  0  0  0  0  0
  -29.3939  -22.5921   21.0105 N   0  0  0  0  0  0
  -29.7572  -16.0143   20.6478 N   0  0  0  0  0  0
  -31.4780  -12.6977   19.1752 H   0  0  0  0  0  0
  -30.4335  -11.5704   19.9966 H   0  0  0  0  0  0
  -29.8255  -11.7228   17.5632 H   0  0  0  0  0  0
  -29.6183  -13.4514   17.7018 H   0  0  0  0  0  0
  -27.9353  -11.2672   18.9604 H   0  0  0  0  0  0
  -27.3885  -12.4620   17.8104 H   0  0  0  0  0  0
  -27.6097  -14.2389   19.4385 H   0  0  0  0  0  0
  -28.7491  -12.2177   21.4292 H   0  0  0  0  0  0
  -28.3930  -13.8928   21.7837 H   0  0  0  0  0  0
  -25.2715   -9.5652   22.4790 H   0  0  0  0  0  0
  -23.9934   -7.4582   22.7493 H   0  0  0  0  0  0
  -21.0779   -8.8687   19.8974 H   0  0  0  0  0  0
  -22.3593  -10.9610   19.6154 H   0  0  0  0  0  0
  -21.2037   -7.6123   23.9669 H   0  0  0  0  0  0
  -21.1490   -6.0516   25.9067 H   0  0  0  0  0  0
  -22.0625   -2.7564   23.2868 H   0  0  0  0  0  0
  -22.4023  -11.9901   22.4874 H   0  0  0  0  0  0
  -21.1036  -13.1267   22.2572 H   0  0  0  0  0  0
  -24.6388  -15.8147   20.4932 H   0  0  0  0  0  0
  -26.2537  -15.6172   20.0511 H   0  0  0  0  0  0
  -26.7273  -32.5343   23.0990 H   0  0  0  0  0  0
  -25.0134  -33.9653   25.0359 H   0  0  0  0  0  0
  -22.7426  -31.2964   21.3787 H   0  0  0  0  0  0
  -23.3758  -35.9600   23.3285 H   0  0  0  0  0  0
  -24.3577  -36.8901   22.2053 H   0  0  0  0  0  0
  -23.7274  -37.6457   23.6674 H   0  0  0  0  0  0
  -26.1360  -31.4876   20.6061 H   0  0  0  0  0  0
  -26.8660  -30.7888   22.0156 H   0  0  0  0  0  0
  -28.1318  -28.8298   21.2241 H   0  0  0  0  0  0
  -25.9327  -25.8546   19.0049 H   0  0  0  0  0  0
  -23.9698  -27.3022   18.9911 H   0  0  0  0  0  0
  -23.7945  -30.5693   19.3918 H   0  0  0  0  0  0
  -22.7820  -29.2384   19.8451 H   0  0  0  0  0  0
  -25.1317  -36.1826   25.0807 H   0  0  0  0  0  0
  -21.0009  -28.3296   24.1321 H   0  0  0  0  0  0
  -20.5680  -26.2302   23.3611 H   0  0  0  0  0  0
  -21.6661  -26.7394   22.1206 H   0  0  0  0  0  0
  -19.6890  -25.6233   21.1267 H   0  0  0  0  0  0
  -19.6701  -27.3124   20.6726 H   0  0  0  0  0  0
  -17.4189  -26.6639   21.4044 H   0  0  0  0  0  0
  -18.0301  -26.0079   22.9064 H   0  0  0  0  0  0
  -19.7918  -30.7265   24.2239 H   0  0  0  0  0  0
  -17.5002  -31.6241   24.5134 H   0  0  0  0  0  0
  -15.5344  -30.2968   23.7627 H   0  0  0  0  0  0
  -15.8660  -28.0749   22.7143 H   0  0  0  0  0  0
  -24.5943  -30.7065   25.7726 H   0  0  0  0  0  0
  -24.8941  -32.2940   26.4735 H   0  0  0  0  0  0
  -25.8067  -30.8984   27.0210 H   0  0  0  0  0  0
  -26.2988  -29.6664   24.1256 H   0  0  0  0  0  0
  -27.4009  -29.7215   25.4794 H   0  0  0  0  0  0
  -27.8898  -30.4145   23.9526 H   0  0  0  0  0  0
  -27.2648  -33.3630   26.1998 H   0  0  0  0  0  0
  -28.3937  -32.6844   25.0374 H   0  0  0  0  0  0
  -28.0661  -31.8476   26.5481 H   0  0  0  0  0  0
  -28.2573  -38.0091   24.7496 H   0  0  0  0  0  0
  -28.1074  -36.2624   24.6294 H   0  0  0  0  0  0
  -27.2276  -37.1430   25.8856 H   0  0  0  0  0  0
  -20.9422  -29.8805   21.6797 H   0  0  0  0  0  0
  -26.0128  -38.2808   24.1430 H   0  0  0  0  0  0
  -30.4009  -20.8396   21.5335 H   0  0  0  0  0  0
  -25.6793  -23.4415   19.3072 H   0  0  0  0  0  0
  -26.0815  -22.4985   17.8817 H   0  0  0  0  0  0
  -26.9411  -23.9727   18.1866 H   0  0  0  0  0  0
  -21.9466  -19.3123   20.0811 H   0  0  0  0  0  0
  -22.6358  -20.9115   20.3054 H   0  0  0  0  0  0
  -23.1267  -19.5867   21.3520 H   0  0  0  0  0  0
  -23.3035  -17.4656   18.9910 H   0  0  0  0  0  0
  -24.3644  -17.6217   20.3775 H   0  0  0  0  0  0
  -25.0351  -17.6508   18.7507 H   0  0  0  0  0  0
  -22.6425  -19.5944   17.6442 H   0  0  0  0  0  0
  -24.3350  -19.7059   17.1917 H   0  0  0  0  0  0
  -23.5313  -21.0828   17.9218 H   0  0  0  0  0  0
  -28.6789  -18.3352   19.2104 H   0  0  0  0  0  0
  -27.9647  -18.3057   20.7929 H   0  0  0  0  0  0
  -26.7955  -19.0894   18.8315 H   0  0  0  0  0  0
  -26.3573  -20.4497   17.9251 H   0  0  0  0  0  0
  -28.3529  -24.9022   21.7971 H   0  0  0  0  0  0
  -26.8860  -24.7252   20.9470 H   0  0  0  0  0  0
  -25.0313  -21.2867   19.9760 H   0  0  0  0  0  0
  -25.5440  -19.8830   20.8406 H   0  0  0  0  0  0
  -30.3760  -17.8022   21.6653 H   0  0  0  0  0  0
  -30.9093  -17.7426   20.0200 H   0  0  0  0  0  0
  -28.7950  -15.7838   20.8486 H   0  0  0  0  0  0
  1 25  1  0  0  0
  1 30  2  0  0  0
  1 87  1  0  0  0
  2  3  1  0  0  0
  2 25  1  0  0  0
  2 88  1  0  0  0
  2 89  1  0  0  0
  3  4  1  0  0  0
  3 90  1  0  0  0
  3 91  1  0  0  0
  4  5  1  0  0  0
  4 92  1  0  0  0
  4 93  1  0  0  0
  5  6  1  0  0  0
  5 26  1  0  0  0
  5 94  1  0  0  0
  6 25  1  0  0  0
  6 95  1  0  0  0
  6 96  1  0  0  0
  7  8  2  0  0  0
  7 26  1  0  0  0
  7 29  1  0  0  0
  8  9  1  0  0  0
  8 22  1  0  0  0
  9 10  1  0  0  0
  9 27  2  0  0  0
 10 11  2  0  0  0
 10 15  1  0  0  0
 11 12  1  0  0  0
 11 97  1  0  0  0
 12 13  2  0  0  0
 12 98  1  0  0  0
 13 14  1  0  0  0
 13 31  1  0  0  0
 14 15  2  0  0  0
 14 99  1  0  0  0
 15100  1  0  0  0
 16 17  2  0  0  0
 16 21  1  0  0  0
 16 31  1  0  0  0
 17 18  1  0  0  0
 17101  1  0  0  0
 18 19  2  0  0  0
 18102  1  0  0  0
 19 20  1  0  0  0
 19 24  1  0  0  0
 20 21  2  0  0  0
 20103  1  0  0  0
 21 23  1  0  0  0
 22 28  1  0  0  0
 22 32  2  0  0  0
 26 27  1  0  0  0
 28104  1  0  0  0
 28105  1  0  0  0
 29106  1  0  0  0
 29107  1  0  0  0
 33 34  1  0  0  0
 33 66  1  0  0  0
 33 70  2  0  0  0
 34 36  1  0  0  0
 34 59  1  0  0  0
 34108  1  0  0  0
 35 44  2  0  0  0
 35 45  1  0  0  0
 35 68  1  0  0  0
 36 56  1  0  0  0
 36109  1  0  0  0
 37 39  1  0  0  0
 37 47  1  0  0  0
 37 66  1  0  0  0
 37110  1  0  0  0
 38 43  2  0  0  0
 38 46  1  0  0  0
 38 47  1  0  0  0
 39 64  1  0  0  0
 39 67  2  0  0  0
 40 52  1  0  0  0
 40 53  2  0  0  0
 40 58  1  0  0  0
 41111  1  0  0  0
 41112  1  0  0  0
 41113  1  0  0  0
 41 48  1  0  0  0
 42 43  1  0  0  0
 42 66  1  0  0  0
 42114  1  0  0  0
 42115  1  0  0  0
 43 44  1  0  0  0
 44116  1  0  0  0
 45 46  2  0  0  0
 45117  1  0  0  0
 46118  1  0  0  0
 47119  1  0  0  0
 47120  1  0  0  0
 48 56  1  0  0  0
 48 65  1  0  0  0
 48121  1  0  0  0
 49 50  1  0  0  0
 49 53  1  0  0  0
 49 64  1  0  0  0
 49122  1  0  0  0
 50 51  1  0  0  0
 50123  1  0  0  0
 50124  1  0  0  0
 51 52  1  0  0  0
 51125  1  0  0  0
 51126  1  0  0  0
 52127  1  0  0  0
 52128  1  0  0  0
 53 54  1  0  0  0
 54 55  2  0  0  0
 54129  1  0  0  0
 55 57  1  0  0  0
 55130  1  0  0  0
 56 69  2  0  0  0
 57 58  2  0  0  0
 57131  1  0  0  0
 58132  1  0  0  0
 59 60  1  0  0  0
 59 61  1  0  0  0
 59 62  1  0  0  0
 60133  1  0  0  0
 60134  1  0  0  0
 60135  1  0  0  0
 61136  1  0  0  0
 61137  1  0  0  0
 61138  1  0  0  0
 62139  1  0  0  0
 62140  1  0  0  0
 62141  1  0  0  0
 63 65  1  0  0  0
 63142  1  0  0  0
 63143  1  0  0  0
 63144  1  0  0  0
 64145  1  0  0  0
 65146  1  0  0  0
 68 82  1  0  0  0
 71 72  2  0  0  0
 71 86  1  0  0  0
 71147  1  0  0  0
 72 73  1  0  0  0
 72 80  1  0  0  0
 73 74  2  0  0  0
 73 81  1  0  0  0
 74 75  1  0  0  0
 74 76  1  0  0  0
 75 82  1  0  0  0
 75 86  2  0  0  0
 76148  1  0  0  0
 76149  1  0  0  0
 76150  1  0  0  0
 77151  1  0  0  0
 77152  1  0  0  0
 77153  1  0  0  0
 77 85  1  0  0  0
 78 85  1  0  0  0
 78154  1  0  0  0
 78155  1  0  0  0
 78156  1  0  0  0
 79 85  1  0  0  0
 79157  1  0  0  0
 79158  1  0  0  0
 79159  1  0  0  0
 80 84  1  0  0  0
 80160  1  0  0  0
 80161  1  0  0  0
 81 83  1  0  0  0
 81162  1  0  0  0
 81163  1  0  0  0
 82164  1  0  0  0
 82165  1  0  0  0
 83 85  1  0  0  0
 83166  1  0  0  0
 83167  1  0  0  0
 84 87  1  0  0  0
 84168  1  0  0  0
 84169  1  0  0  0
 87170  1  0  0  0
M  ISO  4   1 100  68 101  82 101  87 100
M  END
> <chiral flag>
0

> <version>
0

> <s_m_source_file>
/data/baiqing/PycharmProjects/Reinvent-master-3.2/result/LINK_invent/BTK/process_docking_weight1_custom_sum_contain_oxygen_bond_distance_aromatic_linkinvent_7_9_3/rearranged_h_0100.sdf

> <i_m_source_file_index>
12

> <r_mmod_Potential_Energy-OPLS-2005>
290.339447021484

> <r_mmod_Stretch_Energy-OPLS-2005>
210.767791748047

> <r_mmod_Bend_Energy-OPLS-2005>
267.946380615234

> <r_mmod_Torsional_Energy-OPLS-2005>
253.669830322266

> <r_mmod_Improper_Torsional_Energy-OPLS-2005>
8.57074546813965

> <r_mmod_Van_der_Waal_Energy-OPLS-2005>
139.557479858398

> <r_mmod_Electrostatic_Energy-OPLS-2005>
-523.252685546875

> <r_mmod_Solvation_Energy-OPLS-2005>
-222.709045410156

> <b_mmod_Minimization_Converged-OPLS-2005>
0

> <r_mmod_RMS_Derivative-OPLS-2005>
4.21998643875122

$$$$
12
                    3D
 Structure written by MMmdl.
179187  0  0  1  0            999 V2000
  -30.6915  -14.4973   20.5252 C   0  0  0  0  0  0
  -30.4160  -12.3124   19.4316 C   0  0  0  0  0  0
  -29.4956  -12.5213   18.2115 C   0  0  0  0  0  0
  -28.0137  -12.3908   18.6159 C   0  0  0  0  0  0
  -27.6611  -13.2198   19.8820 C   0  0  2  0  0  0
  -28.7051  -13.0113   21.0050 C   0  0  0  0  0  0
  -25.2564  -13.8197   20.5728 C   0  0  0  0  0  0
  -24.1828  -13.0456   20.9233 C   0  0  0  0  0  0
  -24.6398  -11.6930   20.8770 C   0  0  0  0  0  0
  -23.9063  -10.4309   21.0431 C   0  0  0  0  0  0
  -24.3614   -9.4211   21.9207 C   0  0  0  0  0  0
  -23.6303   -8.2238   22.0738 C   0  0  0  0  0  0
  -22.4283   -8.0277   21.3543 C   0  0  0  0  0  0
  -21.9932   -9.0238   20.4632 C   0  0  0  0  0  0
  -22.7245  -10.2125   20.3064 C   0  0  0  0  0  0
  -21.6832   -6.0743   22.5276 C   0  0  0  0  0  0
  -21.3999   -6.5634   23.8222 C   0  0  0  0  0  0
  -21.3676   -5.6783   24.9179 C   0  0  0  0  0  0
  -21.6058   -4.3046   24.7222 C   0  0  0  0  0  0
  -21.8809   -3.8146   23.4347 C   0  0  0  0  0  0
  -21.9188   -4.6974   22.3409 C   0  0  0  0  0  0
  -22.7853  -13.5248   21.1875 C   0  0  0  0  0  0
  -22.1653   -4.2172   21.0991 F   0  0  0  0  0  0
  -21.5643   -3.4521   25.7730 F   0  0  0  0  0  0
  -30.0345  -13.3085   20.4461 N   0  0  0  0  0  0
  -26.3025  -12.9389   20.3424 N   0  0  0  0  0  0
  -25.9343  -11.6540   20.5837 N   0  0  0  0  0  0
  -22.0466  -12.8226   22.0405 N   0  0  0  0  0  0
  -25.4262  -15.1922   20.4125 N   0  0  0  0  0  0
  -31.8254  -14.6466   20.0626 O   0  0  0  0  0  0
  -21.6612   -6.8881   21.4244 O   0  0  0  0  0  0
  -22.3544  -14.5563   20.6721 O   0  0  0  0  0  0
  -24.6149  -31.8671   23.2118 C   0  0  0  0  0  0
  -25.9052  -32.4797   23.8395 C   0  0  1  0  0  0
  -27.2367  -27.4430   20.0951 C   0  0  0  0  0  0
  -25.5862  -33.8582   24.2316 N   0  0  0  0  0  0
  -23.4027  -30.4940   21.5491 C   0  0  2  0  0  0
  -24.8499  -28.9531   20.1210 C   0  0  0  0  0  0
  -22.7406  -29.4685   22.4989 C   0  0  0  0  0  0
  -18.0256  -28.1391   22.8480 C   0  0  0  0  0  0
  -24.1467  -36.7328   23.2650 C   0  0  0  0  0  0
  -25.9299  -30.8343   21.3635 C   0  0  0  0  0  0
  -26.0088  -29.4644   20.7202 C   0  0  0  0  0  0
  -27.2074  -28.7151   20.7126 C   0  0  0  0  0  0
  -26.0676  -26.9450   19.4871 C   0  0  0  0  0  0
  -24.8720  -27.6890   19.5047 C   0  0  0  0  0  0
  -23.6122  -29.8213   20.1663 C   0  0  0  0  0  0
  -25.4071  -36.3093   24.0356 C   0  0  1  0  0  0
  -20.5848  -28.3690   23.1265 C   0  0  2  0  0  0
  -20.6757  -26.9417   22.5379 C   0  0  0  0  0  0
  -19.5736  -26.6375   21.5170 C   0  0  0  0  0  0
  -18.1915  -26.7938   22.1588 C   0  0  0  0  0  0
  -19.1511  -28.8859   23.2877 C   0  0  0  0  0  0
  -18.9442  -30.1451   23.8905 C   0  0  0  0  0  0
  -17.6452  -30.6597   24.0549 C   0  0  0  0  0  0
  -25.9001  -34.9451   23.5137 C   0  0  0  0  0  0
  -16.5346  -29.9097   23.6323 C   0  0  0  0  0  0
  -16.7249  -28.6506   23.0350 C   0  0  0  0  0  0
  -26.4484  -31.6585   25.0735 C   0  0  0  0  0  0
  -25.3764  -31.3693   26.1507 C   0  0  0  0  0  0
  -27.0331  -30.3026   24.6106 C   0  0  0  0  0  0
  -27.6016  -32.4364   25.7528 C   0  0  0  0  0  0
  -27.5558  -37.1806   24.8465 C   0  0  0  0  0  0
  -21.4135  -29.3068   22.3716 N   0  0  0  0  0  0
  -26.4249  -37.3767   23.9428 N   0  0  0  0  0  0
  -24.6675  -31.0798   22.0992 N   0  0  0  0  0  0
  -23.4176  -28.8220   23.3029 O   0  0  0  0  0  0
  -28.3855  -26.6917   20.0192 O   0  0  0  0  0  0
  -26.5542  -34.8914   22.4688 O   0  0  0  0  0  0
  -23.5337  -32.1397   23.7515 O   0  0  0  0  0  0
  -28.3308  -21.3185   19.7653 C   0  0  0  0  0  0
  -29.9015  -20.3045   21.7503 C   0  0  0  0  0  0
  -28.2761  -19.9261   20.0117 C   0  0  0  0  0  0
  -29.0952  -19.3825   21.0406 C   0  0  0  0  0  0
  -29.1574  -22.1465   20.5449 C   0  0  0  0  0  0
  -28.0739  -18.4583   23.7624 C   0  0  0  0  0  0
  -32.3583  -17.8757   19.6567 C   0  0  0  0  0  0
  -25.3389  -20.1430   20.4805 C   0  0  0  0  0  0
  -24.9068  -18.3956   18.7107 C   0  0  0  0  0  0
  -27.3191  -19.0871   19.1641 C   0  0  0  0  0  0
  -29.2533  -23.6571   20.2920 C   0  0  0  0  0  0
  -29.0837  -17.6195   22.9602 C   0  0  0  0  0  0
  -31.6258  -17.4791   20.9481 C   0  0  0  0  0  0
  -28.4434  -24.5425   21.2728 C   0  0  0  0  0  0
  -28.7976  -26.0541   21.2290 C   0  0  0  0  0  0
  -29.0884  -17.8737   21.4267 C   0  0  2  0  0  0
  -25.9023  -18.8971   19.7698 C   0  0  0  0  0  0
  -30.1665  -16.9973   20.6946 C   0  0  2  0  0  0
  -29.9323  -21.6381   21.5244 N   0  0  0  0  0  0
  -29.9618  -15.5475   20.9649 N   0  0  0  0  0  0
  -31.4632  -12.3972   19.1346 H   0  0  0  0  0  0
  -30.3030  -11.3049   19.8319 H   0  0  0  0  0  0
  -29.7402  -11.8023   17.4290 H   0  0  0  0  0  0
  -29.6728  -13.5102   17.7858 H   0  0  0  0  0  0
  -27.8082  -11.3346   18.7931 H   0  0  0  0  0  0
  -27.3672  -12.6911   17.7889 H   0  0  0  0  0  0
  -27.6988  -14.2698   19.5917 H   0  0  0  0  0  0
  -28.6812  -11.9809   21.3643 H   0  0  0  0  0  0
  -28.4774  -13.6327   21.8722 H   0  0  0  0  0  0
  -25.2764   -9.5667   22.4787 H   0  0  0  0  0  0
  -23.9996   -7.4625   22.7465 H   0  0  0  0  0  0
  -21.0862   -8.8756   19.8955 H   0  0  0  0  0  0
  -22.3724  -10.9650   19.6159 H   0  0  0  0  0  0
  -21.1952   -7.6129   23.9737 H   0  0  0  0  0  0
  -21.1534   -6.0505   25.9091 H   0  0  0  0  0  0
  -22.0585   -2.7610   23.2831 H   0  0  0  0  0  0
  -22.3987  -11.9862   22.4829 H   0  0  0  0  0  0
  -21.1100  -13.1287   22.2571 H   0  0  0  0  0  0
  -24.6542  -15.8397   20.5167 H   0  0  0  0  0  0
  -26.2648  -15.6276   20.0545 H   0  0  0  0  0  0
  -26.7137  -32.5538   23.1172 H   0  0  0  0  0  0
  -25.0065  -33.9714   25.0501 H   0  0  0  0  0  0
  -22.6914  -31.3094   21.4053 H   0  0  0  0  0  0
  -23.3687  -35.9702   23.3306 H   0  0  0  0  0  0
  -24.3599  -36.8943   22.2072 H   0  0  0  0  0  0
  -23.7254  -37.6546   23.6678 H   0  0  0  0  0  0
  -26.0318  -31.5970   20.5925 H   0  0  0  0  0  0
  -26.8228  -30.8962   21.9758 H   0  0  0  0  0  0
  -28.1086  -29.1095   21.1605 H   0  0  0  0  0  0
  -26.0887  -25.9827   18.9946 H   0  0  0  0  0  0
  -23.9834  -27.2932   19.0307 H   0  0  0  0  0  0
  -23.7173  -30.5937   19.4026 H   0  0  0  0  0  0
  -22.7378  -29.2391   19.8738 H   0  0  0  0  0  0
  -25.1245  -36.1929   25.0844 H   0  0  0  0  0  0
  -20.9930  -28.3251   24.1386 H   0  0  0  0  0  0
  -20.5574  -26.2323   23.3577 H   0  0  0  0  0  0
  -21.6632  -26.7414   22.1209 H   0  0  0  0  0  0
  -19.6894  -25.6255   21.1262 H   0  0  0  0  0  0
  -19.6701  -27.3139   20.6657 H   0  0  0  0  0  0
  -17.4174  -26.6659   21.4008 H   0  0  0  0  0  0
  -18.0356  -26.0059   22.8976 H   0  0  0  0  0  0
  -19.7928  -30.7249   24.2296 H   0  0  0  0  0  0
  -17.5014  -31.6289   24.5126 H   0  0  0  0  0  0
  -15.5347  -30.3001   23.7640 H   0  0  0  0  0  0
  -15.8643  -28.0818   22.7070 H   0  0  0  0  0  0
  -24.5928  -30.7019   25.7896 H   0  0  0  0  0  0
  -24.8958  -32.2842   26.4978 H   0  0  0  0  0  0
  -25.8143  -30.8879   27.0258 H   0  0  0  0  0  0
  -26.2870  -29.6787   24.1164 H   0  0  0  0  0  0
  -27.4106  -29.7261   25.4566 H   0  0  0  0  0  0
  -27.8710  -30.4349   23.9256 H   0  0  0  0  0  0
  -27.2554  -33.3655   26.2084 H   0  0  0  0  0  0
  -28.3849  -32.6958   25.0390 H   0  0  0  0  0  0
  -28.0667  -31.8518   26.5480 H   0  0  0  0  0  0
  -28.2544  -38.0130   24.7474 H   0  0  0  0  0  0
  -28.1072  -36.2643   24.6296 H   0  0  0  0  0  0
  -27.2298  -37.1468   25.8875 H   0  0  0  0  0  0
  -20.9307  -29.8831   21.6985 H   0  0  0  0  0  0
  -26.0135  -38.2849   24.1390 H   0  0  0  0  0  0
  -27.7158  -21.7590   18.9918 H   0  0  0  0  0  0
  -30.5315  -19.9709   22.5601 H   0  0  0  0  0  0
  -28.0045  -18.0972   24.7896 H   0  0  0  0  0  0
  -27.0758  -18.4046   23.3261 H   0  0  0  0  0  0
  -28.3606  -19.5074   23.8160 H   0  0  0  0  0  0
  -33.3876  -18.1678   19.8602 H   0  0  0  0  0  0
  -31.8668  -18.7195   19.1694 H   0  0  0  0  0  0
  -32.3851  -17.0532   18.9411 H   0  0  0  0  0  0
  -24.3435  -19.9526   20.8801 H   0  0  0  0  0  0
  -25.2646  -20.9936   19.8011 H   0  0  0  0  0  0
  -25.9631  -20.4411   21.3237 H   0  0  0  0  0  0
  -23.9522  -18.1258   19.1640 H   0  0  0  0  0  0
  -25.2825  -17.5116   18.1964 H   0  0  0  0  0  0
  -24.7099  -19.1596   17.9562 H   0  0  0  0  0  0
  -27.7662  -18.1168   18.9420 H   0  0  0  0  0  0
  -27.2290  -19.5770   18.1921 H   0  0  0  0  0  0
  -28.9382  -23.8715   19.2700 H   0  0  0  0  0  0
  -30.3053  -23.9392   20.3374 H   0  0  0  0  0  0
  -28.8659  -16.5666   23.1528 H   0  0  0  0  0  0
  -30.0783  -17.7863   23.3725 H   0  0  0  0  0  0
  -31.6544  -18.3307   21.6210 H   0  0  0  0  0  0
  -32.2025  -16.7233   21.4792 H   0  0  0  0  0  0
  -28.6406  -24.1902   22.2858 H   0  0  0  0  0  0
  -27.3735  -24.4019   21.1159 H   0  0  0  0  0  0
  -29.8750  -26.1876   21.3232 H   0  0  0  0  0  0
  -28.3644  -26.5595   22.0938 H   0  0  0  0  0  0
  -28.1232  -17.4922   21.1018 H   0  0  0  0  0  0
  -25.9847  -18.1278   20.5374 H   0  0  0  0  0  0
  -29.9625  -17.1095   19.6270 H   0  0  0  0  0  0
  -29.0562  -15.3029   21.3364 H   0  0  0  0  0  0
  1 25  1  0  0  0
  1 30  2  0  0  0
  1 90  1  0  0  0
  2  3  1  0  0  0
  2 25  1  0  0  0
  2 91  1  0  0  0
  2 92  1  0  0  0
  3  4  1  0  0  0
  3 93  1  0  0  0
  3 94  1  0  0  0
  4  5  1  0  0  0
  4 95  1  0  0  0
  4 96  1  0  0  0
  5  6  1  0  0  0
  5 26  1  0  0  0
  5 97  1  0  0  0
  6 25  1  0  0  0
  6 98  1  0  0  0
  6 99  1  0  0  0
  7  8  2  0  0  0
  7 26  1  0  0  0
  7 29  1  0  0  0
  8  9  1  0  0  0
  8 22  1  0  0  0
  9 10  1  0  0  0
  9 27  2  0  0  0
 10 11  2  0  0  0
 10 15  1  0  0  0
 11 12  1  0  0  0
 11100  1  0  0  0
 12 13  2  0  0  0
 12101  1  0  0  0
 13 14  1  0  0  0
 13 31  1  0  0  0
 14 15  2  0  0  0
 14102  1  0  0  0
 15103  1  0  0  0
 16 17  2  0  0  0
 16 21  1  0  0  0
 16 31  1  0  0  0
 17 18  1  0  0  0
 17104  1  0  0  0
 18 19  2  0  0  0
 18105  1  0  0  0
 19 20  1  0  0  0
 19 24  1  0  0  0
 20 21  2  0  0  0
 20106  1  0  0  0
 21 23  1  0  0  0
 22 28  1  0  0  0
 22 32  2  0  0  0
 26 27  1  0  0  0
 28107  1  0  0  0
 28108  1  0  0  0
 29109  1  0  0  0
 29110  1  0  0  0
 33 34  1  0  0  0
 33 66  1  0  0  0
 33 70  2  0  0  0
 34 36  1  0  0  0
 34 59  1  0  0  0
 34111  1  0  0  0
 35 44  2  0  0  0
 35 45  1  0  0  0
 35 68  1  0  0  0
 36 56  1  0  0  0
 36112  1  0  0  0
 37 39  1  0  0  0
 37 47  1  0  0  0
 37 66  1  0  0  0
 37113  1  0  0  0
 38 43  2  0  0  0
 38 46  1  0  0  0
 38 47  1  0  0  0
 39 64  1  0  0  0
 39 67  2  0  0  0
 40 52  1  0  0  0
 40 53  2  0  0  0
 40 58  1  0  0  0
 41114  1  0  0  0
 41115  1  0  0  0
 41116  1  0  0  0
 41 48  1  0  0  0
 42 43  1  0  0  0
 42 66  1  0  0  0
 42117  1  0  0  0
 42118  1  0  0  0
 43 44  1  0  0  0
 44119  1  0  0  0
 45 46  2  0  0  0
 45120  1  0  0  0
 46121  1  0  0  0
 47122  1  0  0  0
 47123  1  0  0  0
 48 56  1  0  0  0
 48 65  1  0  0  0
 48124  1  0  0  0
 49 50  1  0  0  0
 49 53  1  0  0  0
 49 64  1  0  0  0
 49125  1  0  0  0
 50 51  1  0  0  0
 50126  1  0  0  0
 50127  1  0  0  0
 51 52  1  0  0  0
 51128  1  0  0  0
 51129  1  0  0  0
 52130  1  0  0  0
 52131  1  0  0  0
 53 54  1  0  0  0
 54 55  2  0  0  0
 54132  1  0  0  0
 55 57  1  0  0  0
 55133  1  0  0  0
 56 69  2  0  0  0
 57 58  2  0  0  0
 57134  1  0  0  0
 58135  1  0  0  0
 59 60  1  0  0  0
 59 61  1  0  0  0
 59 62  1  0  0  0
 60136  1  0  0  0
 60137  1  0  0  0
 60138  1  0  0  0
 61139  1  0  0  0
 61140  1  0  0  0
 61141  1  0  0  0
 62142  1  0  0  0
 62143  1  0  0  0
 62144  1  0  0  0
 63 65  1  0  0  0
 63145  1  0  0  0
 63146  1  0  0  0
 63147  1  0  0  0
 64148  1  0  0  0
 65149  1  0  0  0
 68 85  1  0  0  0
 71 73  2  0  0  0
 71 75  1  0  0  0
 71150  1  0  0  0
 72 74  2  0  0  0
 72 89  1  0  0  0
 72151  1  0  0  0
 73 74  1  0  0  0
 73 80  1  0  0  0
 74 86  1  0  0  0
 75 81  1  0  0  0
 75 89  2  0  0  0
 76 82  1  0  0  0
 76152  1  0  0  0
 76153  1  0  0  0
 76154  1  0  0  0
 77 83  1  0  0  0
 77155  1  0  0  0
 77156  1  0  0  0
 77157  1  0  0  0
 78158  1  0  0  0
 78159  1  0  0  0
 78160  1  0  0  0
 78 87  1  0  0  0
 79 87  1  0  0  0
 79161  1  0  0  0
 79162  1  0  0  0
 79163  1  0  0  0
 80 87  1  0  0  0
 80164  1  0  0  0
 80165  1  0  0  0
 81 84  1  0  0  0
 81166  1  0  0  0
 81167  1  0  0  0
 82168  1  0  0  0
 82169  1  0  0  0
 82 86  1  0  0  0
 83170  1  0  0  0
 83171  1  0  0  0
 83 88  1  0  0  0
 84 85  1  0  0  0
 84172  1  0  0  0
 84173  1  0  0  0
 85174  1  0  0  0
 85175  1  0  0  0
 86 88  1  0  0  0
 86176  1  0  0  0
 87177  1  0  0  0
 88 90  1  0  0  0
 88178  1  0  0  0
 90179  1  0  0  0
M  ISO  4   1 100  68 101  85 101  90 100
M  END
> <chiral flag>
0

> <version>
0

> <s_m_source_file>
/data/baiqing/PycharmProjects/Reinvent-master-3.2/result/LINK_invent/BTK/process_docking_weight1_custom_sum_contain_oxygen_bond_distance_aromatic_linkinvent_7_9_3/rearranged_h_0100.sdf

> <i_m_source_file_index>
13

> <r_mmod_Potential_Energy-OPLS-2005>
-200.248550415039

> <r_mmod_Stretch_Energy-OPLS-2005>
45.4220695495605

> <r_mmod_Bend_Energy-OPLS-2005>
110.579307556152

> <r_mmod_Torsional_Energy-OPLS-2005>
249.237396240234

> <r_mmod_Improper_Torsional_Energy-OPLS-2005>
5.16346216201782

> <r_mmod_Van_der_Waal_Energy-OPLS-2005>
139.149749755859

> <r_mmod_Electrostatic_Energy-OPLS-2005>
-561.841491699219

> <r_mmod_Solvation_Energy-OPLS-2005>
-201.388854980469

> <b_mmod_Minimization_Converged-OPLS-2005>
0

> <r_mmod_RMS_Derivative-OPLS-2005>
3.91281986236572

$$$$
13
                    3D
 Structure written by MMmdl.
183191  0  0  1  0            999 V2000
  -30.6643  -14.5328   20.5631 C   0  0  0  0  0  0
  -30.4288  -12.3482   19.4209 C   0  0  0  0  0  0
  -29.4952  -12.5043   18.2031 C   0  0  0  0  0  0
  -28.0165  -12.3545   18.6173 C   0  0  0  0  0  0
  -27.6527  -13.2078   19.8621 C   0  0  2  0  0  0
  -28.6944  -13.0167   20.9847 C   0  0  0  0  0  0
  -25.2551  -13.8137   20.5716 C   0  0  0  0  0  0
  -24.1801  -13.0413   20.9204 C   0  0  0  0  0  0
  -24.6354  -11.6886   20.8732 C   0  0  0  0  0  0
  -23.9023  -10.4274   21.0398 C   0  0  0  0  0  0
  -24.3588   -9.4199   21.9179 C   0  0  0  0  0  0
  -23.6283   -8.2236   22.0737 C   0  0  0  0  0  0
  -22.4264   -8.0259   21.3524 C   0  0  0  0  0  0
  -21.9893   -9.0234   20.4637 C   0  0  0  0  0  0
  -22.7207  -10.2120   20.3036 C   0  0  0  0  0  0
  -21.6866   -6.0704   22.5273 C   0  0  0  0  0  0
  -21.4022   -6.5608   23.8203 C   0  0  0  0  0  0
  -21.3655   -5.6758   24.9163 C   0  0  0  0  0  0
  -21.6057   -4.3029   24.7216 C   0  0  0  0  0  0
  -21.8830   -3.8116   23.4333 C   0  0  0  0  0  0
  -21.9206   -4.6937   22.3395 C   0  0  0  0  0  0
  -22.7822  -13.5228   21.1867 C   0  0  0  0  0  0
  -22.1663   -4.2125   21.0974 F   0  0  0  0  0  0
  -21.5642   -3.4510   25.7717 F   0  0  0  0  0  0
  -30.0140  -13.3441   20.4230 N   0  0  0  0  0  0
  -26.2960  -12.9320   20.3299 N   0  0  0  0  0  0
  -25.9276  -11.6468   20.5708 N   0  0  0  0  0  0
  -22.0442  -12.8223   22.0411 N   0  0  0  0  0  0
  -25.4268  -15.1869   20.4205 N   0  0  0  0  0  0
  -31.8257  -14.6983   20.1864 O   0  0  0  0  0  0
  -21.6646   -6.8850   21.4220 O   0  0  0  0  0  0
  -22.3525  -14.5539   20.6706 O   0  0  0  0  0  0
  -24.6178  -31.8655   23.2071 C   0  0  0  0  0  0
  -25.9063  -32.4801   23.8369 C   0  0  1  0  0  0
  -27.2336  -27.4024   20.1019 C   0  0  0  0  0  0
  -25.5927  -33.8598   24.2309 N   0  0  0  0  0  0
  -23.4087  -30.4882   21.5476 C   0  0  2  0  0  0
  -24.8581  -28.9466   20.1164 C   0  0  0  0  0  0
  -22.7431  -29.4641   22.4965 C   0  0  0  0  0  0
  -18.0277  -28.1397   22.8485 C   0  0  0  0  0  0
  -24.1482  -36.7274   23.2629 C   0  0  0  0  0  0
  -25.9409  -30.8205   21.3664 C   0  0  0  0  0  0
  -26.0196  -29.4490   20.7190 C   0  0  0  0  0  0
  -27.2136  -28.6829   20.7123 C   0  0  0  0  0  0
  -26.0593  -26.9256   19.4884 C   0  0  0  0  0  0
  -24.8725  -27.6827   19.5012 C   0  0  0  0  0  0
  -23.6212  -29.8183   20.1642 C   0  0  0  0  0  0
  -25.4097  -36.3083   24.0340 C   0  0  1  0  0  0
  -20.5869  -28.3680   23.1299 C   0  0  2  0  0  0
  -20.6765  -26.9412   22.5408 C   0  0  0  0  0  0
  -19.5741  -26.6402   21.5200 C   0  0  0  0  0  0
  -18.1919  -26.7933   22.1615 C   0  0  0  0  0  0
  -19.1528  -28.8857   23.2882 C   0  0  0  0  0  0
  -18.9455  -30.1463   23.8883 C   0  0  0  0  0  0
  -17.6459  -30.6600   24.0564 C   0  0  0  0  0  0
  -25.9047  -34.9461   23.5118 C   0  0  0  0  0  0
  -16.5348  -29.9098   23.6342 C   0  0  0  0  0  0
  -16.7267  -28.6518   23.0356 C   0  0  0  0  0  0
  -26.4481  -31.6584   25.0704 C   0  0  0  0  0  0
  -25.3767  -31.3774   26.1490 C   0  0  0  0  0  0
  -27.0253  -30.2989   24.6104 C   0  0  0  0  0  0
  -27.6076  -32.4285   25.7459 C   0  0  0  0  0  0
  -27.5586  -37.1761   24.8439 C   0  0  0  0  0  0
  -21.4153  -29.3036   22.3696 N   0  0  0  0  0  0
  -26.4257  -37.3801   23.9460 N   0  0  0  0  0  0
  -24.6736  -31.0730   22.0980 N   0  0  0  0  0  0
  -23.4184  -28.8175   23.3014 O   0  0  0  0  0  0
  -28.3613  -26.6037   20.0463 O   0  0  0  0  0  0
  -26.5601  -34.8925   22.4674 O   0  0  0  0  0  0
  -23.5352  -32.1423   23.7436 O   0  0  0  0  0  0
  -28.0158  -23.5118   20.1545 C   0  0  0  0  0  0
  -29.6787  -23.5775   21.8872 C   0  0  0  0  0  0
  -28.7949  -24.2815   21.0426 C   0  0  0  0  0  0
  -28.0466  -22.0872   20.1686 C   0  0  0  0  0  0
  -29.7249  -22.1595   21.9261 C   0  0  0  0  0  0
  -28.8572  -21.3685   21.1111 C   0  0  0  0  0  0
  -27.1249  -21.3943   19.1786 C   0  0  0  0  0  0
  -30.6854  -21.5324   22.9248 C   0  0  0  0  0  0
  -27.0521  -20.0400   24.3103 C   0  0  0  0  0  0
  -25.0283  -20.1981   22.8121 C   0  0  0  0  0  0
  -28.6244  -25.8128   21.2229 C   0  0  0  0  0  0
  -31.0682  -17.7089   19.1401 C   0  0  0  0  0  0
  -27.2431  -19.4397   21.8122 C   0  0  0  0  0  0
  -30.3586  -16.9007   21.4983 C   0  0  0  0  0  0
  -31.5919  -18.8475   18.2289 C   0  0  0  0  0  0
  -28.6941  -19.8242   21.3938 C   0  0  1  0  0  0
  -26.5588  -20.3335   22.8822 C   0  0  0  0  0  0
  -30.4477  -18.1242   20.4999 C   0  0  2  0  0  0
  -29.9083  -15.5682   21.0085 N   0  0  0  0  0  0
  -32.9368  -19.3376   18.5987 N   0  3  0  0  0  0
  -29.1711  -18.9014   20.3112 N   0  3  0  0  0  0
  -31.4686  -12.4767   19.1153 H   0  0  0  0  0  0
  -30.3589  -11.3408   19.8360 H   0  0  0  0  0  0
  -29.7470  -11.7692   17.4363 H   0  0  0  0  0  0
  -29.6502  -13.4845   17.7486 H   0  0  0  0  0  0
  -27.8369  -11.2993   18.8285 H   0  0  0  0  0  0
  -27.3651  -12.6106   17.7809 H   0  0  0  0  0  0
  -27.6857  -14.2509   19.5445 H   0  0  0  0  0  0
  -28.6878  -11.9836   21.3377 H   0  0  0  0  0  0
  -28.4491  -13.6266   21.8562 H   0  0  0  0  0  0
  -25.2729   -9.5707   22.4750 H   0  0  0  0  0  0
  -24.0019   -7.4624   22.7437 H   0  0  0  0  0  0
  -21.0837   -8.8746   19.8937 H   0  0  0  0  0  0
  -22.3660  -10.9655   19.6137 H   0  0  0  0  0  0
  -21.2000   -7.6108   23.9698 H   0  0  0  0  0  0
  -21.1461   -6.0477   25.9073 H   0  0  0  0  0  0
  -22.0610   -2.7575   23.2836 H   0  0  0  0  0  0
  -22.4011  -11.9873   22.4833 H   0  0  0  0  0  0
  -21.1050  -13.1262   22.2557 H   0  0  0  0  0  0
  -24.6553  -15.8348   20.5399 H   0  0  0  0  0  0
  -26.2716  -15.6316   20.0892 H   0  0  0  0  0  0
  -26.7122  -32.5516   23.1120 H   0  0  0  0  0  0
  -25.0122  -33.9751   25.0483 H   0  0  0  0  0  0
  -22.6970  -31.3042   21.4052 H   0  0  0  0  0  0
  -23.3801  -35.9539   23.3176 H   0  0  0  0  0  0
  -24.3604  -36.9011   22.2069 H   0  0  0  0  0  0
  -23.7150  -37.6405   23.6714 H   0  0  0  0  0  0
  -26.0590  -31.5852   20.5961 H   0  0  0  0  0  0
  -26.8256  -30.8734   21.9895 H   0  0  0  0  0  0
  -28.1134  -29.0694   21.1711 H   0  0  0  0  0  0
  -26.0637  -25.9610   19.0012 H   0  0  0  0  0  0
  -23.9813  -27.2909   19.0304 H   0  0  0  0  0  0
  -23.7306  -30.5902   19.4014 H   0  0  0  0  0  0
  -22.7448  -29.2386   19.8694 H   0  0  0  0  0  0
  -25.1259  -36.1908   25.0826 H   0  0  0  0  0  0
  -20.9973  -28.3258   24.1415 H   0  0  0  0  0  0
  -20.5671  -26.2287   23.3601 H   0  0  0  0  0  0
  -21.6636  -26.7456   22.1200 H   0  0  0  0  0  0
  -19.6900  -25.6316   21.1222 H   0  0  0  0  0  0
  -19.6677  -27.3210   20.6725 H   0  0  0  0  0  0
  -17.4194  -26.6704   21.4008 H   0  0  0  0  0  0
  -18.0305  -26.0078   22.9012 H   0  0  0  0  0  0
  -19.7945  -30.7284   24.2237 H   0  0  0  0  0  0
  -17.5030  -31.6272   24.5187 H   0  0  0  0  0  0
  -15.5343  -30.3003   23.7680 H   0  0  0  0  0  0
  -15.8670  -28.0841   22.7067 H   0  0  0  0  0  0
  -24.5792  -30.7281   25.7852 H   0  0  0  0  0  0
  -24.9145  -32.2985   26.5052 H   0  0  0  0  0  0
  -25.8115  -30.8815   27.0179 H   0  0  0  0  0  0
  -26.2752  -29.6780   24.1182 H   0  0  0  0  0  0
  -27.3989  -29.7213   25.4569 H   0  0  0  0  0  0
  -27.8634  -30.4229   23.9244 H   0  0  0  0  0  0
  -27.2740  -33.3655   26.1935 H   0  0  0  0  0  0
  -28.3954  -32.6721   25.0318 H   0  0  0  0  0  0
  -28.0645  -31.8445   26.5462 H   0  0  0  0  0  0
  -28.2511  -38.0153   24.7651 H   0  0  0  0  0  0
  -28.1172  -36.2696   24.6038 H   0  0  0  0  0  0
  -27.2341  -37.1157   25.8844 H   0  0  0  0  0  0
  -20.9315  -29.8753   21.6912 H   0  0  0  0  0  0
  -26.0119  -38.2839   24.1585 H   0  0  0  0  0  0
  -27.3401  -24.0245   19.4843 H   0  0  0  0  0  0
  -30.2991  -24.1434   22.5701 H   0  0  0  0  0  0
  -27.0553  -21.9752   18.2577 H   0  0  0  0  0  0
  -26.1187  -21.3103   19.5901 H   0  0  0  0  0  0
  -27.4706  -20.4046   18.8912 H   0  0  0  0  0  0
  -31.3966  -22.2634   23.3108 H   0  0  0  0  0  0
  -31.2700  -20.7352   22.4665 H   0  0  0  0  0  0
  -30.1428  -21.1291   23.7794 H   0  0  0  0  0  0
  -26.5806  -20.7117   25.0302 H   0  0  0  0  0  0
  -28.1286  -20.1742   24.4035 H   0  0  0  0  0  0
  -26.8175  -19.0204   24.6157 H   0  0  0  0  0  0
  -24.5375  -20.8559   23.5310 H   0  0  0  0  0  0
  -24.7024  -19.1782   23.0176 H   0  0  0  0  0  0
  -24.6553  -20.4735   21.8244 H   0  0  0  0  0  0
  -29.5404  -26.2091   21.6618 H   0  0  0  0  0  0
  -27.8466  -25.9650   21.9744 H   0  0  0  0  0  0
  -31.9006  -17.0279   19.3134 H   0  0  0  0  0  0
  -30.3319  -17.1242   18.5855 H   0  0  0  0  0  0
  -27.2232  -18.4041   22.1563 H   0  0  0  0  0  0
  -26.6143  -19.4439   20.9236 H   0  0  0  0  0  0
  -29.7341  -17.1669   22.3508 H   0  0  0  0  0  0
  -31.3531  -16.7556   21.9259 H   0  0  0  0  0  0
  -30.8885  -19.6793   18.1894 H   0  0  0  0  0  0
  -31.6617  -18.4675   17.2087 H   0  0  0  0  0  0
  -29.2815  -19.5699   22.2726 H   0  0  0  0  0  0
  -26.7751  -21.3804   22.6693 H   0  0  0  0  0  0
  -31.1479  -18.8264   20.9537 H   0  0  0  0  0  0
  -28.9556  -15.3161   21.2286 H   0  0  0  0  0  0
  -32.9684  -19.7401   19.5179 H   0  0  0  0  0  0
  -33.2231  -20.0497   17.9489 H   0  0  0  0  0  0
  -33.6173  -18.5991   18.5464 H   0  0  0  0  0  0
  -29.2594  -19.4809   19.4942 H   0  0  0  0  0  0
  -28.4348  -18.2418   20.1185 H   0  0  0  0  0  0
  1 25  1  0  0  0
  1 30  2  0  0  0
  1 89  1  0  0  0
  2  3  1  0  0  0
  2 25  1  0  0  0
  2 92  1  0  0  0
  2 93  1  0  0  0
  3  4  1  0  0  0
  3 94  1  0  0  0
  3 95  1  0  0  0
  4  5  1  0  0  0
  4 96  1  0  0  0
  4 97  1  0  0  0
  5  6  1  0  0  0
  5 26  1  0  0  0
  5 98  1  0  0  0
  6 25  1  0  0  0
  6 99  1  0  0  0
  6100  1  0  0  0
  7  8  2  0  0  0
  7 26  1  0  0  0
  7 29  1  0  0  0
  8  9  1  0  0  0
  8 22  1  0  0  0
  9 10  1  0  0  0
  9 27  2  0  0  0
 10 11  2  0  0  0
 10 15  1  0  0  0
 11 12  1  0  0  0
 11101  1  0  0  0
 12 13  2  0  0  0
 12102  1  0  0  0
 13 14  1  0  0  0
 13 31  1  0  0  0
 14 15  2  0  0  0
 14103  1  0  0  0
 15104  1  0  0  0
 16 17  2  0  0  0
 16 21  1  0  0  0
 16 31  1  0  0  0
 17 18  1  0  0  0
 17105  1  0  0  0
 18 19  2  0  0  0
 18106  1  0  0  0
 19 20  1  0  0  0
 19 24  1  0  0  0
 20 21  2  0  0  0
 20107  1  0  0  0
 21 23  1  0  0  0
 22 28  1  0  0  0
 22 32  2  0  0  0
 26 27  1  0  0  0
 28108  1  0  0  0
 28109  1  0  0  0
 29110  1  0  0  0
 29111  1  0  0  0
 33 34  1  0  0  0
 33 66  1  0  0  0
 33 70  2  0  0  0
 34 36  1  0  0  0
 34 59  1  0  0  0
 34112  1  0  0  0
 35 44  2  0  0  0
 35 45  1  0  0  0
 35 68  1  0  0  0
 36 56  1  0  0  0
 36113  1  0  0  0
 37 39  1  0  0  0
 37 47  1  0  0  0
 37 66  1  0  0  0
 37114  1  0  0  0
 38 43  2  0  0  0
 38 46  1  0  0  0
 38 47  1  0  0  0
 39 64  1  0  0  0
 39 67  2  0  0  0
 40 52  1  0  0  0
 40 53  2  0  0  0
 40 58  1  0  0  0
 41115  1  0  0  0
 41116  1  0  0  0
 41117  1  0  0  0
 41 48  1  0  0  0
 42 43  1  0  0  0
 42 66  1  0  0  0
 42118  1  0  0  0
 42119  1  0  0  0
 43 44  1  0  0  0
 44120  1  0  0  0
 45 46  2  0  0  0
 45121  1  0  0  0
 46122  1  0  0  0
 47123  1  0  0  0
 47124  1  0  0  0
 48 56  1  0  0  0
 48 65  1  0  0  0
 48125  1  0  0  0
 49 50  1  0  0  0
 49 53  1  0  0  0
 49 64  1  0  0  0
 49126  1  0  0  0
 50 51  1  0  0  0
 50127  1  0  0  0
 50128  1  0  0  0
 51 52  1  0  0  0
 51129  1  0  0  0
 51130  1  0  0  0
 52131  1  0  0  0
 52132  1  0  0  0
 53 54  1  0  0  0
 54 55  2  0  0  0
 54133  1  0  0  0
 55 57  1  0  0  0
 55134  1  0  0  0
 56 69  2  0  0  0
 57 58  2  0  0  0
 57135  1  0  0  0
 58136  1  0  0  0
 59 60  1  0  0  0
 59 61  1  0  0  0
 59 62  1  0  0  0
 60137  1  0  0  0
 60138  1  0  0  0
 60139  1  0  0  0
 61140  1  0  0  0
 61141  1  0  0  0
 61142  1  0  0  0
 62143  1  0  0  0
 62144  1  0  0  0
 62145  1  0  0  0
 63 65  1  0  0  0
 63146  1  0  0  0
 63147  1  0  0  0
 63148  1  0  0  0
 64149  1  0  0  0
 65150  1  0  0  0
 68 81  1  0  0  0
 71 73  2  0  0  0
 71 74  1  0  0  0
 71151  1  0  0  0
 72 73  1  0  0  0
 72 75  2  0  0  0
 72152  1  0  0  0
 73 81  1  0  0  0
 74 76  2  0  0  0
 74 77  1  0  0  0
 75 76  1  0  0  0
 75 78  1  0  0  0
 76 86  1  0  0  0
 77153  1  0  0  0
 77154  1  0  0  0
 77155  1  0  0  0
 78156  1  0  0  0
 78157  1  0  0  0
 78158  1  0  0  0
 79159  1  0  0  0
 79160  1  0  0  0
 79161  1  0  0  0
 79 87  1  0  0  0
 80 87  1  0  0  0
 80162  1  0  0  0
 80163  1  0  0  0
 80164  1  0  0  0
 81165  1  0  0  0
 81166  1  0  0  0
 82 85  1  0  0  0
 82167  1  0  0  0
 82168  1  0  0  0
 82 88  1  0  0  0
 83 87  1  0  0  0
 83169  1  0  0  0
 83170  1  0  0  0
 83 86  1  0  0  0
 84 88  1  0  0  0
 84 89  1  0  0  0
 84171  1  0  0  0
 84172  1  0  0  0
 85 90  1  0  0  0
 85173  1  0  0  0
 85174  1  0  0  0
 86 91  1  0  0  0
 86175  1  0  0  0
 87176  1  0  0  0
 88 91  1  0  0  0
 88177  1  0  0  0
 89178  1  0  0  0
 90179  1  0  0  0
 90180  1  0  0  0
 90181  1  0  0  0
 91182  1  0  0  0
 91183  1  0  0  0
M  CHG  2  90   1  91   1
M  ISO  4   1 100  68 101  81 101  89 100
M  END
> <chiral flag>
0

> <version>
0

> <s_m_source_file>
/data/baiqing/PycharmProjects/Reinvent-master-3.2/result/LINK_invent/BTK/process_docking_weight1_custom_sum_contain_oxygen_bond_distance_aromatic_linkinvent_7_9_3/rearranged_h_0100.sdf

> <i_m_source_file_index>
14

> <r_mmod_Potential_Energy-OPLS-2005>
-323.476409912109

> <r_mmod_Stretch_Energy-OPLS-2005>
60.1398544311523

> <r_mmod_Bend_Energy-OPLS-2005>
136.2587890625

> <r_mmod_Torsional_Energy-OPLS-2005>
318.906707763672

> <r_mmod_Improper_Torsional_Energy-OPLS-2005>
4.94353151321411

> <r_mmod_Van_der_Waal_Energy-OPLS-2005>
130.888946533203

> <r_mmod_Electrostatic_Energy-OPLS-2005>
27.8396778106689

> <r_mmod_Solvation_Energy-OPLS-2005>
-1024.32189941406

> <b_mmod_Minimization_Converged-OPLS-2005>
0

> <r_mmod_RMS_Derivative-OPLS-2005>
2.57743692398071

$$$$
14
                    3D
 Structure written by MMmdl.
181189  0  0  1  0            999 V2000
  -30.5511  -14.7946   20.4529 C   0  0  0  0  0  0
  -30.4606  -12.4967   19.4426 C   0  0  0  0  0  0
  -29.5147  -12.5134   18.2228 C   0  0  0  0  0  0
  -28.0447  -12.3112   18.6506 C   0  0  0  0  0  0
  -27.6433  -13.2060   19.8515 C   0  0  2  0  0  0
  -28.6995  -13.1447   20.9747 C   0  0  0  0  0  0
  -25.2500  -13.7749   20.5707 C   0  0  0  0  0  0
  -24.1740  -13.0141   20.9206 C   0  0  0  0  0  0
  -24.6382  -11.6691   20.8792 C   0  0  0  0  0  0
  -23.9030  -10.4139   21.0428 C   0  0  0  0  0  0
  -24.3582   -9.4080   21.9214 C   0  0  0  0  0  0
  -23.6230   -8.2154   22.0778 C   0  0  0  0  0  0
  -22.4210   -8.0227   21.3552 C   0  0  0  0  0  0
  -21.9849   -9.0200   20.4658 C   0  0  0  0  0  0
  -22.7217  -10.2056   20.3067 C   0  0  0  0  0  0
  -21.6825   -6.0691   22.5279 C   0  0  0  0  0  0
  -21.3994   -6.5610   23.8208 C   0  0  0  0  0  0
  -21.3635   -5.6775   24.9177 C   0  0  0  0  0  0
  -21.6044   -4.3034   24.7238 C   0  0  0  0  0  0
  -21.8830   -3.8119   23.4364 C   0  0  0  0  0  0
  -21.9191   -4.6927   22.3414 C   0  0  0  0  0  0
  -22.7814  -13.5093   21.1839 C   0  0  0  0  0  0
  -22.1661   -4.2106   21.0993 F   0  0  0  0  0  0
  -21.5626   -3.4529   25.7754 F   0  0  0  0  0  0
  -29.9853  -13.5391   20.3782 N   0  0  0  0  0  0
  -26.2980  -12.9061   20.3334 N   0  0  0  0  0  0
  -25.9339  -11.6255   20.5823 N   0  0  0  0  0  0
  -22.0390  -12.8176   22.0408 N   0  0  0  0  0  0
  -25.4046  -15.1272   20.4119 N   0  0  0  0  0  0
  -31.7579  -14.9487   20.2472 O   0  0  0  0  0  0
  -21.6586   -6.8830   21.4239 O   0  0  0  0  0  0
  -22.3614  -14.5448   20.6692 O   0  0  0  0  0  0
  -24.6323  -31.8530   23.1961 C   0  0  0  0  0  0
  -25.9163  -32.4746   23.8313 C   0  0  1  0  0  0
  -27.2424  -27.2686   20.1308 C   0  0  0  0  0  0
  -25.5954  -33.8531   24.2238 N   0  0  0  0  0  0
  -23.4341  -30.4691   21.5430 C   0  0  2  0  0  0
  -24.8889  -28.9116   20.1259 C   0  0  0  0  0  0
  -22.7531  -29.4532   22.4924 C   0  0  0  0  0  0
  -18.0322  -28.1314   22.8515 C   0  0  0  0  0  0
  -24.1495  -36.7286   23.2631 C   0  0  0  0  0  0
  -25.9786  -30.7641   21.3803 C   0  0  0  0  0  0
  -26.0569  -29.3816   20.7393 C   0  0  0  0  0  0
  -27.2377  -28.5716   20.7378 C   0  0  0  0  0  0
  -26.0540  -26.8642   19.4914 C   0  0  0  0  0  0
  -24.8898  -27.6571   19.4948 C   0  0  0  0  0  0
  -23.6581  -29.7987   20.1613 C   0  0  0  0  0  0
  -25.4121  -36.3036   24.0293 C   0  0  1  0  0  0
  -20.5915  -28.3641   23.1291 C   0  0  2  0  0  0
  -20.6758  -26.9308   22.5547 C   0  0  0  0  0  0
  -19.5793  -26.6311   21.5298 C   0  0  0  0  0  0
  -18.1967  -26.7842   22.1698 C   0  0  0  0  0  0
  -19.1553  -28.8799   23.2920 C   0  0  0  0  0  0
  -18.9486  -30.1372   23.8994 C   0  0  0  0  0  0
  -17.6485  -30.6520   24.0628 C   0  0  0  0  0  0
  -25.9076  -34.9418   23.5067 C   0  0  0  0  0  0
  -16.5375  -29.9098   23.6296 C   0  0  0  0  0  0
  -16.7308  -28.6456   23.0320 C   0  0  0  0  0  0
  -26.4519  -31.6567   25.0700 C   0  0  0  0  0  0
  -25.3734  -31.3729   26.1414 C   0  0  0  0  0  0
  -27.0352  -30.2976   24.6164 C   0  0  0  0  0  0
  -27.6042  -32.4341   25.7477 C   0  0  0  0  0  0
  -27.5561  -37.1800   24.8448 C   0  0  0  0  0  0
  -21.4243  -29.2927   22.3594 N   0  0  0  0  0  0
  -26.4284  -37.3735   23.9392 N   0  0  0  0  0  0
  -24.7016  -31.0448   22.0982 N   0  0  0  0  0  0
  -23.4151  -28.8208   23.3187 O   0  0  0  0  0  0
  -28.3640  -26.4265   20.0042 O   0  0  0  0  0  0
  -26.5608  -34.8895   22.4623 O   0  0  0  0  0  0
  -23.5457  -32.1359   23.7241 O   0  0  0  0  0  0
  -27.1834  -17.6042   22.2442 C   0  0  0  0  0  0
  -27.1940  -17.7706   20.0285 C   0  0  0  0  0  0
  -28.0147  -17.5394   21.0950 C   0  0  0  0  0  0
  -25.8941  -17.8361   21.8456 C   0  0  0  0  0  0
  -24.6764  -17.8358   22.7102 C   0  0  0  0  0  0
  -22.3329  -18.0605   19.0026 C   0  0  0  0  0  0
  -23.4389  -20.2400   19.6939 C   0  0  0  0  0  0
  -28.2430  -23.1212   22.2002 C   0  0  0  0  0  0
  -26.9043  -23.5733   20.1596 C   0  0  0  0  0  0
  -30.1256  -18.6443   20.3353 C   0  0  0  0  0  0
  -24.8264  -18.1232   19.4470 C   0  0  0  0  0  0
  -29.2551  -20.0522   20.3012 C   0  0  0  0  0  0
  -29.3286  -22.7349   19.9170 C   0  0  0  0  0  0
  -28.6292  -25.2971   20.9390 C   0  0  0  0  0  0
  -29.5031  -17.3021   21.0184 C   0  0  2  0  0  0
  -23.4512  -18.7137   19.8348 C   0  0  0  0  0  0
  -28.3154  -23.6941   20.7621 C   0  0  0  0  0  0
  -25.8971  -17.9886   20.4525 N   0  0  0  0  0  0
  -29.6462  -15.8473   20.5274 N   0  0  0  0  0  0
  -29.9276  -21.4194   20.4771 N   0  3  0  0  0  0
  -31.4857  -12.6845   19.1188 H   0  0  0  0  0  0
  -30.4735  -11.5157   19.9207 H   0  0  0  0  0  0
  -29.8077  -11.7392   17.5128 H   0  0  0  0  0  0
  -29.6169  -13.4666   17.6987 H   0  0  0  0  0  0
  -27.9284  -11.2629   18.9337 H   0  0  0  0  0  0
  -27.3745  -12.4850   17.8046 H   0  0  0  0  0  0
  -27.6229  -14.2259   19.4699 H   0  0  0  0  0  0
  -28.7685  -12.1391   21.3917 H   0  0  0  0  0  0
  -28.4295  -13.8029   21.8028 H   0  0  0  0  0  0
  -25.2713   -9.5569   22.4803 H   0  0  0  0  0  0
  -23.9913   -7.4544   22.7505 H   0  0  0  0  0  0
  -21.0767   -8.8739   19.8970 H   0  0  0  0  0  0
  -22.3677  -10.9615   19.6190 H   0  0  0  0  0  0
  -21.1981   -7.6118   23.9700 H   0  0  0  0  0  0
  -21.1436   -6.0502   25.9074 H   0  0  0  0  0  0
  -22.0637   -2.7578   23.2885 H   0  0  0  0  0  0
  -22.3888  -11.9817   22.4836 H   0  0  0  0  0  0
  -21.1049  -13.1336   22.2579 H   0  0  0  0  0  0
  -24.6478  -15.7624   20.6301 H   0  0  0  0  0  0
  -26.2823  -15.6207   20.3077 H   0  0  0  0  0  0
  -26.7258  -32.5412   23.1065 H   0  0  0  0  0  0
  -25.0134  -33.9681   25.0391 H   0  0  0  0  0  0
  -22.7327  -31.2905   21.3925 H   0  0  0  0  0  0
  -23.3727  -35.9652   23.3293 H   0  0  0  0  0  0
  -24.3574  -36.8928   22.2053 H   0  0  0  0  0  0
  -23.7310  -37.6501   23.6679 H   0  0  0  0  0  0
  -26.1063  -31.5143   20.5985 H   0  0  0  0  0  0
  -26.8639  -30.8295   22.0010 H   0  0  0  0  0  0
  -28.1421  -28.9347   21.2058 H   0  0  0  0  0  0
  -26.0241  -25.9274   18.9554 H   0  0  0  0  0  0
  -24.0030  -27.2982   18.9955 H   0  0  0  0  0  0
  -23.7984  -30.5729   19.4061 H   0  0  0  0  0  0
  -22.7800  -29.2313   19.8543 H   0  0  0  0  0  0
  -25.1316  -36.1851   25.0780 H   0  0  0  0  0  0
  -20.9984  -28.3238   24.1408 H   0  0  0  0  0  0
  -20.5460  -26.2238   23.3808 H   0  0  0  0  0  0
  -21.6594  -26.7194   22.1356 H   0  0  0  0  0  0
  -19.7017  -25.6245   21.1329 H   0  0  0  0  0  0
  -19.6713  -27.3153   20.6839 H   0  0  0  0  0  0
  -17.4238  -26.6517   21.4126 H   0  0  0  0  0  0
  -18.0430  -25.9950   22.9094 H   0  0  0  0  0  0
  -19.7916  -30.7170   24.2456 H   0  0  0  0  0  0
  -17.5041  -31.6175   24.5307 H   0  0  0  0  0  0
  -15.5386  -30.3019   23.7574 H   0  0  0  0  0  0
  -15.8710  -28.0792   22.6993 H   0  0  0  0  0  0
  -24.5898  -30.7075   25.7756 H   0  0  0  0  0  0
  -24.8933  -32.2917   26.4817 H   0  0  0  0  0  0
  -25.8029  -30.8928   27.0227 H   0  0  0  0  0  0
  -26.2919  -29.6734   24.1186 H   0  0  0  0  0  0
  -27.4050  -29.7196   25.4659 H   0  0  0  0  0  0
  -27.8792  -30.4241   23.9362 H   0  0  0  0  0  0
  -27.2597  -33.3648   26.2006 H   0  0  0  0  0  0
  -28.3854  -32.6939   25.0314 H   0  0  0  0  0  0
  -28.0727  -31.8544   26.5451 H   0  0  0  0  0  0
  -28.2559  -38.0107   24.7461 H   0  0  0  0  0  0
  -28.1078  -36.2634   24.6317 H   0  0  0  0  0  0
  -27.2264  -37.1487   25.8843 H   0  0  0  0  0  0
  -20.9504  -29.8458   21.6597 H   0  0  0  0  0  0
  -26.0137  -38.2782   24.1424 H   0  0  0  0  0  0
  -27.5006  -17.4553   23.2678 H   0  0  0  0  0  0
  -27.4312  -17.8007   18.9739 H   0  0  0  0  0  0
  -24.9270  -17.5299   23.7267 H   0  0  0  0  0  0
  -23.9385  -17.1251   22.3389 H   0  0  0  0  0  0
  -24.2274  -18.8261   22.7713 H   0  0  0  0  0  0
  -21.3504  -18.4172   19.3092 H   0  0  0  0  0  0
  -22.3300  -16.9763   19.1375 H   0  0  0  0  0  0
  -22.4480  -18.2572   17.9375 H   0  0  0  0  0  0
  -22.5137  -20.6605   20.0849 H   0  0  0  0  0  0
  -23.5257  -20.5376   18.6498 H   0  0  0  0  0  0
  -24.2689  -20.6891   20.2391 H   0  0  0  0  0  0
  -27.9455  -22.0728   22.1989 H   0  0  0  0  0  0
  -27.5209  -23.6525   22.8228 H   0  0  0  0  0  0
  -29.2069  -23.1857   22.7084 H   0  0  0  0  0  0
  -26.8987  -23.8881   19.1169 H   0  0  0  0  0  0
  -26.1887  -24.2114   20.6870 H   0  0  0  0  0  0
  -26.5385  -22.5479   20.1867 H   0  0  0  0  0  0
  -31.0894  -18.8327   20.8101 H   0  0  0  0  0  0
  -30.3766  -18.3901   19.3079 H   0  0  0  0  0  0
  -25.2301  -18.7142   18.6243 H   0  0  0  0  0  0
  -24.6852  -17.1382   19.0053 H   0  0  0  0  0  0
  -28.4628  -20.0384   21.0508 H   0  0  0  0  0  0
  -28.7431  -20.0791   19.3362 H   0  0  0  0  0  0
  -30.1949  -23.3488   19.6722 H   0  0  0  0  0  0
  -28.8898  -22.5044   18.9466 H   0  0  0  0  0  0
  -29.7019  -25.3658   21.1362 H   0  0  0  0  0  0
  -28.1743  -25.6212   21.8729 H   0  0  0  0  0  0
  -29.8621  -17.2898   22.0473 H   0  0  0  0  0  0
  -23.1916  -18.4789   20.8568 H   0  0  0  0  0  0
  -28.7204  -15.4591   20.4350 H   0  0  0  0  0  0
  -30.8111  -21.3349   19.9984 H   0  0  0  0  0  0
  -30.1661  -21.5500   21.4462 H   0  0  0  0  0  0
  1 25  1  0  0  0
  1 30  2  0  0  0
  1 89  1  0  0  0
  2  3  1  0  0  0
  2 25  1  0  0  0
  2 91  1  0  0  0
  2 92  1  0  0  0
  3  4  1  0  0  0
  3 93  1  0  0  0
  3 94  1  0  0  0
  4  5  1  0  0  0
  4 95  1  0  0  0
  4 96  1  0  0  0
  5  6  1  0  0  0
  5 26  1  0  0  0
  5 97  1  0  0  0
  6 25  1  0  0  0
  6 98  1  0  0  0
  6 99  1  0  0  0
  7  8  2  0  0  0
  7 26  1  0  0  0
  7 29  1  0  0  0
  8  9  1  0  0  0
  8 22  1  0  0  0
  9 10  1  0  0  0
  9 27  2  0  0  0
 10 11  2  0  0  0
 10 15  1  0  0  0
 11 12  1  0  0  0
 11100  1  0  0  0
 12 13  2  0  0  0
 12101  1  0  0  0
 13 14  1  0  0  0
 13 31  1  0  0  0
 14 15  2  0  0  0
 14102  1  0  0  0
 15103  1  0  0  0
 16 17  2  0  0  0
 16 21  1  0  0  0
 16 31  1  0  0  0
 17 18  1  0  0  0
 17104  1  0  0  0
 18 19  2  0  0  0
 18105  1  0  0  0
 19 20  1  0  0  0
 19 24  1  0  0  0
 20 21  2  0  0  0
 20106  1  0  0  0
 21 23  1  0  0  0
 22 28  1  0  0  0
 22 32  2  0  0  0
 26 27  1  0  0  0
 28107  1  0  0  0
 28108  1  0  0  0
 29109  1  0  0  0
 29110  1  0  0  0
 33 34  1  0  0  0
 33 66  1  0  0  0
 33 70  2  0  0  0
 34 36  1  0  0  0
 34 59  1  0  0  0
 34111  1  0  0  0
 35 44  2  0  0  0
 35 45  1  0  0  0
 35 68  1  0  0  0
 36 56  1  0  0  0
 36112  1  0  0  0
 37 39  1  0  0  0
 37 47  1  0  0  0
 37 66  1  0  0  0
 37113  1  0  0  0
 38 43  2  0  0  0
 38 46  1  0  0  0
 38 47  1  0  0  0
 39 64  1  0  0  0
 39 67  2  0  0  0
 40 52  1  0  0  0
 40 53  2  0  0  0
 40 58  1  0  0  0
 41114  1  0  0  0
 41115  1  0  0  0
 41116  1  0  0  0
 41 48  1  0  0  0
 42 43  1  0  0  0
 42 66  1  0  0  0
 42117  1  0  0  0
 42118  1  0  0  0
 43 44  1  0  0  0
 44119  1  0  0  0
 45 46  2  0  0  0
 45120  1  0  0  0
 46121  1  0  0  0
 47122  1  0  0  0
 47123  1  0  0  0
 48 56  1  0  0  0
 48 65  1  0  0  0
 48124  1  0  0  0
 49 50  1  0  0  0
 49 53  1  0  0  0
 49 64  1  0  0  0
 49125  1  0  0  0
 50 51  1  0  0  0
 50126  1  0  0  0
 50127  1  0  0  0
 51 52  1  0  0  0
 51128  1  0  0  0
 51129  1  0  0  0
 52130  1  0  0  0
 52131  1  0  0  0
 53 54  1  0  0  0
 54 55  2  0  0  0
 54132  1  0  0  0
 55 57  1  0  0  0
 55133  1  0  0  0
 56 69  2  0  0  0
 57 58  2  0  0  0
 57134  1  0  0  0
 58135  1  0  0  0
 59 60  1  0  0  0
 59 61  1  0  0  0
 59 62  1  0  0  0
 60136  1  0  0  0
 60137  1  0  0  0
 60138  1  0  0  0
 61139  1  0  0  0
 61140  1  0  0  0
 61141  1  0  0  0
 62142  1  0  0  0
 62143  1  0  0  0
 62144  1  0  0  0
 63 65  1  0  0  0
 63145  1  0  0  0
 63146  1  0  0  0
 63147  1  0  0  0
 64148  1  0  0  0
 65149  1  0  0  0
 68 84  1  0  0  0
 71 73  1  0  0  0
 71 74  2  0  0  0
 71150  1  0  0  0
 72 73  2  0  0  0
 72 88  1  0  0  0
 72151  1  0  0  0
 73 85  1  0  0  0
 74 75  1  0  0  0
 74 88  1  0  0  0
 75152  1  0  0  0
 75153  1  0  0  0
 75154  1  0  0  0
 76155  1  0  0  0
 76156  1  0  0  0
 76157  1  0  0  0
 76 86  1  0  0  0
 77 86  1  0  0  0
 77158  1  0  0  0
 77159  1  0  0  0
 77160  1  0  0  0
 78161  1  0  0  0
 78162  1  0  0  0
 78163  1  0  0  0
 78 87  1  0  0  0
 79 87  1  0  0  0
 79164  1  0  0  0
 79165  1  0  0  0
 79166  1  0  0  0
 80 82  1  0  0  0
 80167  1  0  0  0
 80168  1  0  0  0
 80 85  1  0  0  0
 81 86  1  0  0  0
 81 88  1  0  0  0
 81169  1  0  0  0
 81170  1  0  0  0
 82 90  1  0  0  0
 82171  1  0  0  0
 82172  1  0  0  0
 83 87  1  0  0  0
 83 90  1  0  0  0
 83173  1  0  0  0
 83174  1  0  0  0
 84 87  1  0  0  0
 84175  1  0  0  0
 84176  1  0  0  0
 85 89  1  0  0  0
 85177  1  0  0  0
 86178  1  0  0  0
 89179  1  0  0  0
 90180  1  0  0  0
 90181  1  0  0  0
M  CHG  1  90   1
M  ISO  4   1 100  68 101  84 101  89 100
M  END
> <chiral flag>
0

> <version>
0

> <s_m_source_file>
/data/baiqing/PycharmProjects/Reinvent-master-3.2/result/LINK_invent/BTK/process_docking_weight1_custom_sum_contain_oxygen_bond_distance_aromatic_linkinvent_7_9_3/rearranged_h_0100.sdf

> <i_m_source_file_index>
15

> <r_mmod_Potential_Energy-OPLS-2005>
205.527908325195

> <r_mmod_Stretch_Energy-OPLS-2005>
143.543197631836

> <r_mmod_Bend_Energy-OPLS-2005>
301.210235595703

> <r_mmod_Torsional_Energy-OPLS-2005>
330.254119873047

> <r_mmod_Improper_Torsional_Energy-OPLS-2005>
8.59118556976318

> <r_mmod_Van_der_Waal_Energy-OPLS-2005>
114.955451965332

> <r_mmod_Electrostatic_Energy-OPLS-2005>
-360.019195556641

> <r_mmod_Solvation_Energy-OPLS-2005>
-429.284484863281

> <b_mmod_Minimization_Converged-OPLS-2005>
0

> <r_mmod_RMS_Derivative-OPLS-2005>
6.91759824752808

$$$$
15
                    3D
 Structure written by MMmdl.
146153  0  0  1  0            999 V2000
  -30.4549  -15.1919   20.3849 C   0  0  0  0  0  0
  -30.4419  -12.7609   19.5051 C   0  0  0  0  0  0
  -29.5292  -12.5596   18.2708 C   0  0  0  0  0  0
  -28.0748  -12.2962   18.7021 C   0  0  0  0  0  0
  -27.6136  -13.2648   19.8202 C   0  0  2  0  0  0
  -28.6529  -13.4068   20.9504 C   0  0  0  0  0  0
  -25.2403  -13.8229   20.5729 C   0  0  0  0  0  0
  -24.1748  -13.0433   20.9253 C   0  0  0  0  0  0
  -24.6392  -11.6927   20.8763 C   0  0  0  0  0  0
  -23.9086  -10.4291   21.0410 C   0  0  0  0  0  0
  -24.3633   -9.4204   21.9187 C   0  0  0  0  0  0
  -23.6302   -8.2242   22.0756 C   0  0  0  0  0  0
  -22.4283   -8.0282   21.3546 C   0  0  0  0  0  0
  -21.9924   -9.0257   20.4647 C   0  0  0  0  0  0
  -22.7258  -10.2133   20.3057 C   0  0  0  0  0  0
  -21.6855   -6.0737   22.5280 C   0  0  0  0  0  0
  -21.4015   -6.5640   23.8213 C   0  0  0  0  0  0
  -21.3660   -5.6793   24.9176 C   0  0  0  0  0  0
  -21.6044   -4.3056   24.7226 C   0  0  0  0  0  0
  -21.8819   -3.8148   23.4347 C   0  0  0  0  0  0
  -21.9194   -4.6964   22.3403 C   0  0  0  0  0  0
  -22.7766  -13.5192   21.1903 C   0  0  0  0  0  0
  -22.1661   -4.2150   21.0980 F   0  0  0  0  0  0
  -21.5629   -3.4538   25.7738 F   0  0  0  0  0  0
  -29.8884  -13.8961   20.3201 N   0  0  0  0  0  0
  -26.2822  -12.9485   20.3201 N   0  0  0  0  0  0
  -25.9324  -11.6602   20.5719 N   0  0  0  0  0  0
  -22.0422  -12.8177   22.0456 N   0  0  0  0  0  0
  -25.4037  -15.1963   20.4153 N   0  0  0  0  0  0
  -31.6824  -15.2103   20.2234 O   0  0  0  0  0  0
  -21.6644   -6.8881   21.4242 O   0  0  0  0  0  0
  -22.3448  -14.5495   20.6742 O   0  0  0  0  0  0
  -24.6584  -31.8285   23.1736 C   0  0  0  0  0  0
  -25.9287  -32.4613   23.8185 C   0  0  1  0  0  0
  -27.2178  -26.9750   20.1869 C   0  0  0  0  0  0
  -25.5973  -33.8425   24.2096 N   0  0  0  0  0  0
  -23.4702  -30.4410   21.5230 C   0  0  2  0  0  0
  -24.9214  -28.8312   20.1193 C   0  0  0  0  0  0
  -22.7640  -29.4469   22.4810 C   0  0  0  0  0  0
  -18.0318  -28.1406   22.8470 C   0  0  0  0  0  0
  -24.1494  -36.7217   23.2647 C   0  0  0  0  0  0
  -26.0362  -30.6515   21.3950 C   0  0  0  0  0  0
  -26.1055  -29.2439   20.7437 C   0  0  0  0  0  0
  -27.2532  -28.3383   20.7472 C   0  0  0  0  0  0
  -26.0028  -26.6964   19.5254 C   0  0  0  0  0  0
  -24.8915  -27.5757   19.4909 C   0  0  0  0  0  0
  -23.7071  -29.7557   20.1497 C   0  0  0  0  0  0
  -25.4134  -36.2981   24.0302 C   0  0  1  0  0  0
  -20.5938  -28.3745   23.1202 C   0  0  2  0  0  0
  -20.6798  -26.9434   22.5403 C   0  0  0  0  0  0
  -19.5771  -26.6380   21.5215 C   0  0  0  0  0  0
  -18.1953  -26.7940   22.1623 C   0  0  0  0  0  0
  -19.1577  -28.8896   23.2823 C   0  0  0  0  0  0
  -18.9489  -30.1488   23.8856 C   0  0  0  0  0  0
  -17.6483  -30.6597   24.0557 C   0  0  0  0  0  0
  -25.9093  -34.9364   23.5017 C   0  0  0  0  0  0
  -16.5374  -29.9085   23.6344 C   0  0  0  0  0  0
  -16.7300  -28.6506   23.0362 C   0  0  0  0  0  0
  -26.4555  -31.6539   25.0694 C   0  0  0  0  0  0
  -25.3694  -31.3776   26.1358 C   0  0  0  0  0  0
  -27.0448  -30.2914   24.6390 C   0  0  0  0  0  0
  -27.6051  -32.4342   25.7497 C   0  0  0  0  0  0
  -27.5571  -37.1767   24.8468 C   0  0  0  0  0  0
  -21.4316  -29.3042   22.3557 N   0  0  0  0  0  0
  -26.4283  -37.3712   23.9406 N   0  0  0  0  0  0
  -24.7427  -30.9994   22.0847 N   0  0  0  0  0  0
  -23.4209  -28.8039   23.3035 O   0  0  0  0  0  0
  -28.2529  -25.9182   20.1845 O   0  0  0  0  0  0
  -26.5701  -34.8893   22.4610 O   0  0  0  0  0  0
  -23.5665  -32.1233   23.6860 O   0  0  0  0  0  0
  -28.9836  -21.1892   20.6760 C   0  0  0  0  0  0
  -29.1420  -19.5254   20.0456 C   0  0  0  0  0  0
  -28.7259  -22.7941   19.9369 C   0  0  0  0  0  0
  -29.9001  -18.0518   20.7008 C   0  0  0  0  0  0
  -28.0709  -24.3377   20.5448 C   0  0  0  0  0  0
  -29.6685  -16.4354   20.4314 N   0  0  0  0  0  0
  -31.4603  -12.9680   19.1731 H   0  0  0  0  0  0
  -30.5035  -11.8473   20.0986 H   0  0  0  0  0  0
  -29.8948  -11.7358   17.6561 H   0  0  0  0  0  0
  -29.5668  -13.4513   17.6432 H   0  0  0  0  0  0
  -28.0212  -11.2689   19.0646 H   0  0  0  0  0  0
  -27.4048  -12.3529   17.8434 H   0  0  0  0  0  0
  -27.5380  -14.2388   19.3356 H   0  0  0  0  0  0
  -28.8080  -12.4621   21.4735 H   0  0  0  0  0  0
  -28.3078  -14.1243   21.6968 H   0  0  0  0  0  0
  -25.2776   -9.5679   22.4767 H   0  0  0  0  0  0
  -24.0008   -7.4632   22.7476 H   0  0  0  0  0  0
  -21.0856   -8.8778   19.8951 H   0  0  0  0  0  0
  -22.3717  -10.9673   19.6167 H   0  0  0  0  0  0
  -21.2007   -7.6149   23.9716 H   0  0  0  0  0  0
  -21.1482   -6.0524   25.9078 H   0  0  0  0  0  0
  -22.0596   -2.7610   23.2848 H   0  0  0  0  0  0
  -22.4055  -11.9848   22.4850 H   0  0  0  0  0  0
  -21.1032  -13.1183   22.2657 H   0  0  0  0  0  0
  -24.6309  -15.8437   20.5272 H   0  0  0  0  0  0
  -26.2397  -15.6392   20.0580 H   0  0  0  0  0  0
  -26.7354  -32.5171   23.0902 H   0  0  0  0  0  0
  -25.0079  -33.9507   25.0219 H   0  0  0  0  0  0
  -22.7811  -31.2710   21.3541 H   0  0  0  0  0  0
  -23.3765  -35.9539   23.3288 H   0  0  0  0  0  0
  -24.3568  -36.8881   22.2064 H   0  0  0  0  0  0
  -23.7244  -37.6399   23.6712 H   0  0  0  0  0  0
  -26.2087  -31.3941   20.6146 H   0  0  0  0  0  0
  -26.8995  -30.7094   22.0463 H   0  0  0  0  0  0
  -28.1585  -28.6587   21.2434 H   0  0  0  0  0  0
  -25.8948  -25.7377   19.0384 H   0  0  0  0  0  0
  -23.9906  -27.2535   18.9867 H   0  0  0  0  0  0
  -23.8605  -30.5232   19.3902 H   0  0  0  0  0  0
  -22.8176  -29.2077   19.8341 H   0  0  0  0  0  0
  -25.1331  -36.1783   25.0794 H   0  0  0  0  0  0
  -21.0026  -28.3348   24.1325 H   0  0  0  0  0  0
  -20.5684  -26.2363   23.3637 H   0  0  0  0  0  0
  -21.6662  -26.7420   22.1206 H   0  0  0  0  0  0
  -19.6932  -25.6280   21.1271 H   0  0  0  0  0  0
  -19.6708  -27.3169   20.6728 H   0  0  0  0  0  0
  -17.4221  -26.6684   21.4027 H   0  0  0  0  0  0
  -18.0347  -26.0092   22.9029 H   0  0  0  0  0  0
  -19.7965  -30.7317   24.2205 H   0  0  0  0  0  0
  -17.5035  -31.6273   24.5167 H   0  0  0  0  0  0
  -15.5372  -30.2973   23.7691 H   0  0  0  0  0  0
  -15.8701  -28.0810   22.7100 H   0  0  0  0  0  0
  -24.5886  -30.7116   25.7667 H   0  0  0  0  0  0
  -24.8872  -32.2974   26.4676 H   0  0  0  0  0  0
  -25.7933  -30.9012   27.0206 H   0  0  0  0  0  0
  -26.3106  -29.6597   24.1379 H   0  0  0  0  0  0
  -27.3986  -29.7265   25.5025 H   0  0  0  0  0  0
  -27.9042  -30.4111   23.9791 H   0  0  0  0  0  0
  -27.2619  -33.3679   26.1966 H   0  0  0  0  0  0
  -28.3920  -32.6845   25.0370 H   0  0  0  0  0  0
  -28.0656  -31.8543   26.5505 H   0  0  0  0  0  0
  -28.2578  -38.0072   24.7505 H   0  0  0  0  0  0
  -28.1076  -36.2597   24.6309 H   0  0  0  0  0  0
  -27.2284  -37.1428   25.8870 H   0  0  0  0  0  0
  -20.9563  -29.8727   21.6687 H   0  0  0  0  0  0
  -26.0135  -38.2774   24.1406 H   0  0  0  0  0  0
  -28.1889  -21.1083   21.4182 H   0  0  0  0  0  0
  -29.8762  -21.3287   21.2864 H   0  0  0  0  0  0
  -29.6013  -19.6459   19.0639 H   0  0  0  0  0  0
  -28.1191  -19.2319   19.8080 H   0  0  0  0  0  0
  -28.1428  -22.5960   19.0374 H   0  0  0  0  0  0
  -29.7078  -23.0579   19.5436 H   0  0  0  0  0  0
  -30.9755  -18.1979   20.5921 H   0  0  0  0  0  0
  -29.7423  -18.1293   21.7770 H   0  0  0  0  0  0
  -28.3515  -24.3288   21.5981 H   0  0  0  0  0  0
  -26.9917  -24.1871   20.5767 H   0  0  0  0  0  0
  -28.6848  -16.2096   20.4174 H   0  0  0  0  0  0
  1 25  1  0  0  0
  1 30  2  0  0  0
  1 76  1  0  0  0
  2  3  1  0  0  0
  2 25  1  0  0  0
  2 77  1  0  0  0
  2 78  1  0  0  0
  3  4  1  0  0  0
  3 79  1  0  0  0
  3 80  1  0  0  0
  4  5  1  0  0  0
  4 81  1  0  0  0
  4 82  1  0  0  0
  5  6  1  0  0  0
  5 26  1  0  0  0
  5 83  1  0  0  0
  6 25  1  0  0  0
  6 84  1  0  0  0
  6 85  1  0  0  0
  7  8  2  0  0  0
  7 26  1  0  0  0
  7 29  1  0  0  0
  8  9  1  0  0  0
  8 22  1  0  0  0
  9 10  1  0  0  0
  9 27  2  0  0  0
 10 11  2  0  0  0
 10 15  1  0  0  0
 11 12  1  0  0  0
 11 86  1  0  0  0
 12 13  2  0  0  0
 12 87  1  0  0  0
 13 14  1  0  0  0
 13 31  1  0  0  0
 14 15  2  0  0  0
 14 88  1  0  0  0
 15 89  1  0  0  0
 16 17  2  0  0  0
 16 21  1  0  0  0
 16 31  1  0  0  0
 17 18  1  0  0  0
 17 90  1  0  0  0
 18 19  2  0  0  0
 18 91  1  0  0  0
 19 20  1  0  0  0
 19 24  1  0  0  0
 20 21  2  0  0  0
 20 92  1  0  0  0
 21 23  1  0  0  0
 22 28  1  0  0  0
 22 32  2  0  0  0
 26 27  1  0  0  0
 28 93  1  0  0  0
 28 94  1  0  0  0
 29 95  1  0  0  0
 29 96  1  0  0  0
 33 34  1  0  0  0
 33 66  1  0  0  0
 33 70  2  0  0  0
 34 36  1  0  0  0
 34 59  1  0  0  0
 34 97  1  0  0  0
 35 44  2  0  0  0
 35 45  1  0  0  0
 35 68  1  0  0  0
 36 56  1  0  0  0
 36 98  1  0  0  0
 37 39  1  0  0  0
 37 47  1  0  0  0
 37 66  1  0  0  0
 37 99  1  0  0  0
 38 43  2  0  0  0
 38 46  1  0  0  0
 38 47  1  0  0  0
 39 64  1  0  0  0
 39 67  2  0  0  0
 40 52  1  0  0  0
 40 53  2  0  0  0
 40 58  1  0  0  0
 41100  1  0  0  0
 41101  1  0  0  0
 41102  1  0  0  0
 41 48  1  0  0  0
 42 43  1  0  0  0
 42 66  1  0  0  0
 42103  1  0  0  0
 42104  1  0  0  0
 43 44  1  0  0  0
 44105  1  0  0  0
 45 46  2  0  0  0
 45106  1  0  0  0
 46107  1  0  0  0
 47108  1  0  0  0
 47109  1  0  0  0
 48 56  1  0  0  0
 48 65  1  0  0  0
 48110  1  0  0  0
 49 50  1  0  0  0
 49 53  1  0  0  0
 49 64  1  0  0  0
 49111  1  0  0  0
 50 51  1  0  0  0
 50112  1  0  0  0
 50113  1  0  0  0
 51 52  1  0  0  0
 51114  1  0  0  0
 51115  1  0  0  0
 52116  1  0  0  0
 52117  1  0  0  0
 53 54  1  0  0  0
 54 55  2  0  0  0
 54118  1  0  0  0
 55 57  1  0  0  0
 55119  1  0  0  0
 56 69  2  0  0  0
 57 58  2  0  0  0
 57120  1  0  0  0
 58121  1  0  0  0
 59 60  1  0  0  0
 59 61  1  0  0  0
 59 62  1  0  0  0
 60122  1  0  0  0
 60123  1  0  0  0
 60124  1  0  0  0
 61125  1  0  0  0
 61126  1  0  0  0
 61127  1  0  0  0
 62128  1  0  0  0
 62129  1  0  0  0
 62130  1  0  0  0
 63 65  1  0  0  0
 63131  1  0  0  0
 63132  1  0  0  0
 63133  1  0  0  0
 64134  1  0  0  0
 65135  1  0  0  0
 68 75  1  0  0  0
 71 72  1  0  0  0
 71 73  1  0  0  0
 71136  1  0  0  0
 71137  1  0  0  0
 72 74  1  0  0  0
 72138  1  0  0  0
 72139  1  0  0  0
 73 75  1  0  0  0
 73140  1  0  0  0
 73141  1  0  0  0
 74 76  1  0  0  0
 74142  1  0  0  0
 74143  1  0  0  0
 75144  1  0  0  0
 75145  1  0  0  0
 76146  1  0  0  0
M  ISO  4   1 100  68 101  75 101  76 100
M  END
> <chiral flag>
0

> <version>
0

> <s_m_source_file>
/data/baiqing/PycharmProjects/Reinvent-master-3.2/result/LINK_invent/BTK/process_docking_weight1_custom_sum_contain_oxygen_bond_distance_aromatic_linkinvent_7_9_3/rearranged_h_0100.sdf

> <i_m_source_file_index>
16

> <r_mmod_Potential_Energy-OPLS-2005>
1145.12805175781

> <r_mmod_Stretch_Energy-OPLS-2005>
551.795166015625

> <r_mmod_Bend_Energy-OPLS-2005>
420.130432128906

> <r_mmod_Torsional_Energy-OPLS-2005>
235.50422668457

> <r_mmod_Improper_Torsional_Energy-OPLS-2005>
4.20592355728149

> <r_mmod_Van_der_Waal_Energy-OPLS-2005>
108.776268005371

> <r_mmod_Electrostatic_Energy-OPLS-2005>
-349.052825927734

> <r_mmod_Solvation_Energy-OPLS-2005>
-209.454177856445

> <b_mmod_Minimization_Converged-OPLS-2005>
0

> <r_mmod_RMS_Derivative-OPLS-2005>
0.315360128879547

$$$$
16
                    3D
 Structure written by MMmdl.
150158  0  0  1  0            999 V2000
  -30.4789  -15.1836   20.3799 C   0  0  0  0  0  0
  -30.4364  -12.7514   19.5196 C   0  0  0  0  0  0
  -29.5301  -12.5620   18.2790 C   0  0  0  0  0  0
  -28.0746  -12.3030   18.7051 C   0  0  0  0  0  0
  -27.6147  -13.2700   19.8254 C   0  0  2  0  0  0
  -28.6514  -13.4156   20.9597 C   0  0  0  0  0  0
  -25.2400  -13.8244   20.5742 C   0  0  0  0  0  0
  -24.1747  -13.0438   20.9254 C   0  0  0  0  0  0
  -24.6396  -11.6933   20.8762 C   0  0  0  0  0  0
  -23.9090  -10.4293   21.0407 C   0  0  0  0  0  0
  -24.3635   -9.4206   21.9185 C   0  0  0  0  0  0
  -23.6304   -8.2244   22.0754 C   0  0  0  0  0  0
  -22.4285   -8.0283   21.3544 C   0  0  0  0  0  0
  -21.9926   -9.0258   20.4645 C   0  0  0  0  0  0
  -22.7261  -10.2134   20.3055 C   0  0  0  0  0  0
  -21.6856   -6.0738   22.5279 C   0  0  0  0  0  0
  -21.4017   -6.5641   23.8212 C   0  0  0  0  0  0
  -21.3660   -5.6793   24.9174 C   0  0  0  0  0  0
  -21.6044   -4.3056   24.7225 C   0  0  0  0  0  0
  -21.8819   -3.8148   23.4346 C   0  0  0  0  0  0
  -21.9194   -4.6965   22.3402 C   0  0  0  0  0  0
  -22.7764  -13.5192   21.1901 C   0  0  0  0  0  0
  -22.1662   -4.2151   21.0980 F   0  0  0  0  0  0
  -21.5628   -3.4539   25.7737 F   0  0  0  0  0  0
  -29.8943  -13.8939   20.3363 N   0  0  0  0  0  0
  -26.2827  -12.9511   20.3226 N   0  0  0  0  0  0
  -25.9332  -11.6620   20.5729 N   0  0  0  0  0  0
  -22.0423  -12.8173   22.0455 N   0  0  0  0  0  0
  -25.4035  -15.1978   20.4174 N   0  0  0  0  0  0
  -31.6974  -15.1814   20.1610 O   0  0  0  0  0  0
  -21.6645   -6.8883   21.4242 O   0  0  0  0  0  0
  -22.3443  -14.5493   20.6742 O   0  0  0  0  0  0
  -24.6590  -31.8288   23.1757 C   0  0  0  0  0  0
  -25.9292  -32.4616   23.8202 C   0  0  1  0  0  0
  -27.2144  -26.9741   20.1734 C   0  0  0  0  0  0
  -25.5977  -33.8428   24.2106 N   0  0  0  0  0  0
  -23.4713  -30.4437   21.5242 C   0  0  2  0  0  0
  -24.9243  -28.8443   20.1103 C   0  0  0  0  0  0
  -22.7649  -29.4469   22.4797 C   0  0  0  0  0  0
  -18.0320  -28.1406   22.8469 C   0  0  0  0  0  0
  -24.1493  -36.7218   23.2645 C   0  0  0  0  0  0
  -26.0390  -30.6499   21.4007 C   0  0  0  0  0  0
  -26.1078  -29.2457   20.7427 C   0  0  0  0  0  0
  -27.2497  -28.3305   20.7532 C   0  0  0  0  0  0
  -26.0037  -26.7217   19.4878 C   0  0  0  0  0  0
  -24.8952  -27.6011   19.4631 C   0  0  0  0  0  0
  -23.7085  -29.7660   20.1479 C   0  0  0  0  0  0
  -25.4133  -36.2983   24.0303 C   0  0  1  0  0  0
  -20.5943  -28.3749   23.1195 C   0  0  2  0  0  0
  -20.6799  -26.9434   22.5400 C   0  0  0  0  0  0
  -19.5771  -26.6379   21.5213 C   0  0  0  0  0  0
  -18.1954  -26.7940   22.1623 C   0  0  0  0  0  0
  -19.1581  -28.8898   23.2820 C   0  0  0  0  0  0
  -18.9491  -30.1488   23.8854 C   0  0  0  0  0  0
  -17.6485  -30.6597   24.0556 C   0  0  0  0  0  0
  -25.9095  -34.9364   23.5022 C   0  0  0  0  0  0
  -16.5376  -29.9084   23.6343 C   0  0  0  0  0  0
  -16.7302  -28.6505   23.0362 C   0  0  0  0  0  0
  -26.4556  -31.6543   25.0711 C   0  0  0  0  0  0
  -25.3692  -31.3782   26.1373 C   0  0  0  0  0  0
  -27.0449  -30.2915   24.6419 C   0  0  0  0  0  0
  -27.6052  -32.4346   25.7512 C   0  0  0  0  0  0
  -27.5571  -37.1767   24.8466 C   0  0  0  0  0  0
  -21.4323  -29.3047   22.3548 N   0  0  0  0  0  0
  -26.4282  -37.3714   23.9407 N   0  0  0  0  0  0
  -24.7441  -30.9995   22.0873 N   0  0  0  0  0  0
  -23.4217  -28.8029   23.3016 O   0  0  0  0  0  0
  -28.2013  -25.8687   20.2603 O   0  0  0  0  0  0
  -26.5698  -34.8890   22.4613 O   0  0  0  0  0  0
  -23.5670  -32.1238   23.6876 O   0  0  0  0  0  0
  -28.3054  -20.1866   20.9309 C   0  0  0  0  0  0
  -27.8849  -21.6130   20.8949 C   0  0  0  0  0  0
  -30.1426  -20.7574   19.6705 C   0  0  0  0  0  0
  -29.4830  -19.6167   20.3027 C   0  0  0  0  0  0
  -28.5455  -22.7517   20.2540 C   0  0  0  0  0  0
  -29.7279  -22.1847   19.6275 C   0  0  0  0  0  0
  -30.5974  -23.1324   18.8238 C   0  0  0  0  0  0
  -30.1930  -18.0297   20.3402 C   0  0  0  0  0  0
  -27.8061  -24.3094   20.0364 C   0  0  0  0  0  0
  -29.7421  -16.4541   20.4614 N   0  0  0  0  0  0
  -31.4605  -12.9371   19.1932 H   0  0  0  0  0  0
  -30.4800  -11.8362   20.1124 H   0  0  0  0  0  0
  -29.8939  -11.7389   17.6625 H   0  0  0  0  0  0
  -29.5751  -13.4565   17.6558 H   0  0  0  0  0  0
  -28.0159  -11.2744   19.0631 H   0  0  0  0  0  0
  -27.4067  -12.3660   17.8451 H   0  0  0  0  0  0
  -27.5398  -14.2446   19.3417 H   0  0  0  0  0  0
  -28.7990  -12.4741   21.4908 H   0  0  0  0  0  0
  -28.3069  -14.1405   21.6989 H   0  0  0  0  0  0
  -25.2776   -9.5682   22.4765 H   0  0  0  0  0  0
  -24.0009   -7.4635   22.7475 H   0  0  0  0  0  0
  -21.0857   -8.8781   19.8950 H   0  0  0  0  0  0
  -22.3718  -10.9675   19.6167 H   0  0  0  0  0  0
  -21.2010   -7.6150   23.9716 H   0  0  0  0  0  0
  -21.1482   -6.0523   25.9077 H   0  0  0  0  0  0
  -22.0597   -2.7610   23.2845 H   0  0  0  0  0  0
  -22.4057  -11.9843   22.4846 H   0  0  0  0  0  0
  -21.1033  -13.1177   22.2658 H   0  0  0  0  0  0
  -24.6319  -15.8465   20.5295 H   0  0  0  0  0  0
  -26.2425  -15.6398   20.0655 H   0  0  0  0  0  0
  -26.7360  -32.5168   23.0919 H   0  0  0  0  0  0
  -25.0080  -33.9516   25.0226 H   0  0  0  0  0  0
  -22.7821  -31.2744   21.3586 H   0  0  0  0  0  0
  -23.3766  -35.9538   23.3282 H   0  0  0  0  0  0
  -24.3572  -36.8888   22.2065 H   0  0  0  0  0  0
  -23.7240  -37.6397   23.6714 H   0  0  0  0  0  0
  -26.2155  -31.3951   20.6239 H   0  0  0  0  0  0
  -26.9007  -30.7037   22.0542 H   0  0  0  0  0  0
  -28.1433  -28.6327   21.2811 H   0  0  0  0  0  0
  -25.8675  -25.7762   18.9857 H   0  0  0  0  0  0
  -23.9966  -27.2889   18.9488 H   0  0  0  0  0  0
  -23.8602  -30.5376   19.3923 H   0  0  0  0  0  0
  -22.8192  -29.2186   19.8304 H   0  0  0  0  0  0
  -25.1329  -36.1787   25.0794 H   0  0  0  0  0  0
  -21.0033  -28.3353   24.1318 H   0  0  0  0  0  0
  -20.5683  -26.2367   23.3637 H   0  0  0  0  0  0
  -21.6662  -26.7417   22.1204 H   0  0  0  0  0  0
  -19.6930  -25.6278   21.1271 H   0  0  0  0  0  0
  -19.6708  -27.3165   20.6723 H   0  0  0  0  0  0
  -17.4222  -26.6682   21.4028 H   0  0  0  0  0  0
  -18.0351  -26.0093   22.9031 H   0  0  0  0  0  0
  -19.7967  -30.7317   24.2204 H   0  0  0  0  0  0
  -17.5036  -31.6272   24.5166 H   0  0  0  0  0  0
  -15.5374  -30.2972   23.7691 H   0  0  0  0  0  0
  -15.8703  -28.0808   22.7102 H   0  0  0  0  0  0
  -24.5889  -30.7114   25.7684 H   0  0  0  0  0  0
  -24.8863  -32.2978   26.4685 H   0  0  0  0  0  0
  -25.7933  -30.9026   27.0226 H   0  0  0  0  0  0
  -26.3110  -29.6598   24.1401 H   0  0  0  0  0  0
  -27.3969  -29.7269   25.5063 H   0  0  0  0  0  0
  -27.9056  -30.4105   23.9836 H   0  0  0  0  0  0
  -27.2622  -33.3686   26.1977 H   0  0  0  0  0  0
  -28.3923  -32.6845   25.0386 H   0  0  0  0  0  0
  -28.0654  -31.8548   26.5524 H   0  0  0  0  0  0
  -28.2572  -38.0078   24.7513 H   0  0  0  0  0  0
  -28.1084  -36.2605   24.6295 H   0  0  0  0  0  0
  -27.2287  -37.1412   25.8868 H   0  0  0  0  0  0
  -20.9567  -29.8744   21.6689 H   0  0  0  0  0  0
  -26.0133  -38.2775   24.1414 H   0  0  0  0  0  0
  -27.6720  -19.5056   21.4827 H   0  0  0  0  0  0
  -26.9473  -21.8337   21.3859 H   0  0  0  0  0  0
  -31.0649  -20.5202   19.1578 H   0  0  0  0  0  0
  -31.6273  -22.7783   18.7703 H   0  0  0  0  0  0
  -30.6136  -24.1255   19.2741 H   0  0  0  0  0  0
  -30.2154  -23.2253   17.8069 H   0  0  0  0  0  0
  -30.9289  -18.1237   21.1395 H   0  0  0  0  0  0
  -30.8043  -18.0226   19.4371 H   0  0  0  0  0  0
  -26.8638  -24.2071   20.5753 H   0  0  0  0  0  0
  -27.5215  -24.2722   18.9850 H   0  0  0  0  0  0
  -28.7498  -16.3275   20.5934 H   0  0  0  0  0  0
  1 25  1  0  0  0
  1 30  2  0  0  0
  1 80  1  0  0  0
  2  3  1  0  0  0
  2 25  1  0  0  0
  2 81  1  0  0  0
  2 82  1  0  0  0
  3  4  1  0  0  0
  3 83  1  0  0  0
  3 84  1  0  0  0
  4  5  1  0  0  0
  4 85  1  0  0  0
  4 86  1  0  0  0
  5  6  1  0  0  0
  5 26  1  0  0  0
  5 87  1  0  0  0
  6 25  1  0  0  0
  6 88  1  0  0  0
  6 89  1  0  0  0
  7  8  2  0  0  0
  7 26  1  0  0  0
  7 29  1  0  0  0
  8  9  1  0  0  0
  8 22  1  0  0  0
  9 10  1  0  0  0
  9 27  2  0  0  0
 10 11  2  0  0  0
 10 15  1  0  0  0
 11 12  1  0  0  0
 11 90  1  0  0  0
 12 13  2  0  0  0
 12 91  1  0  0  0
 13 14  1  0  0  0
 13 31  1  0  0  0
 14 15  2  0  0  0
 14 92  1  0  0  0
 15 93  1  0  0  0
 16 17  2  0  0  0
 16 21  1  0  0  0
 16 31  1  0  0  0
 17 18  1  0  0  0
 17 94  1  0  0  0
 18 19  2  0  0  0
 18 95  1  0  0  0
 19 20  1  0  0  0
 19 24  1  0  0  0
 20 21  2  0  0  0
 20 96  1  0  0  0
 21 23  1  0  0  0
 22 28  1  0  0  0
 22 32  2  0  0  0
 26 27  1  0  0  0
 28 97  1  0  0  0
 28 98  1  0  0  0
 29 99  1  0  0  0
 29100  1  0  0  0
 33 34  1  0  0  0
 33 66  1  0  0  0
 33 70  2  0  0  0
 34 36  1  0  0  0
 34 59  1  0  0  0
 34101  1  0  0  0
 35 44  2  0  0  0
 35 45  1  0  0  0
 35 68  1  0  0  0
 36 56  1  0  0  0
 36102  1  0  0  0
 37 39  1  0  0  0
 37 47  1  0  0  0
 37 66  1  0  0  0
 37103  1  0  0  0
 38 43  2  0  0  0
 38 46  1  0  0  0
 38 47  1  0  0  0
 39 64  1  0  0  0
 39 67  2  0  0  0
 40 52  1  0  0  0
 40 53  2  0  0  0
 40 58  1  0  0  0
 41104  1  0  0  0
 41105  1  0  0  0
 41106  1  0  0  0
 41 48  1  0  0  0
 42 43  1  0  0  0
 42 66  1  0  0  0
 42107  1  0  0  0
 42108  1  0  0  0
 43 44  1  0  0  0
 44109  1  0  0  0
 45 46  2  0  0  0
 45110  1  0  0  0
 46111  1  0  0  0
 47112  1  0  0  0
 47113  1  0  0  0
 48 56  1  0  0  0
 48 65  1  0  0  0
 48114  1  0  0  0
 49 50  1  0  0  0
 49 53  1  0  0  0
 49 64  1  0  0  0
 49115  1  0  0  0
 50 51  1  0  0  0
 50116  1  0  0  0
 50117  1  0  0  0
 51 52  1  0  0  0
 51118  1  0  0  0
 51119  1  0  0  0
 52120  1  0  0  0
 52121  1  0  0  0
 53 54  1  0  0  0
 54 55  2  0  0  0
 54122  1  0  0  0
 55 57  1  0  0  0
 55123  1  0  0  0
 56 69  2  0  0  0
 57 58  2  0  0  0
 57124  1  0  0  0
 58125  1  0  0  0
 59 60  1  0  0  0
 59 61  1  0  0  0
 59 62  1  0  0  0
 60126  1  0  0  0
 60127  1  0  0  0
 60128  1  0  0  0
 61129  1  0  0  0
 61130  1  0  0  0
 61131  1  0  0  0
 62132  1  0  0  0
 62133  1  0  0  0
 62134  1  0  0  0
 63 65  1  0  0  0
 63135  1  0  0  0
 63136  1  0  0  0
 63137  1  0  0  0
 64138  1  0  0  0
 65139  1  0  0  0
 68 79  1  0  0  0
 71 72  2  0  0  0
 71 74  1  0  0  0
 71140  1  0  0  0
 72 75  1  0  0  0
 72141  1  0  0  0
 73 74  2  0  0  0
 73 76  1  0  0  0
 73142  1  0  0  0
 74 78  1  0  0  0
 75 76  2  0  0  0
 75 79  1  0  0  0
 76 77  1  0  0  0
 77143  1  0  0  0
 77144  1  0  0  0
 77145  1  0  0  0
 78 80  1  0  0  0
 78146  1  0  0  0
 78147  1  0  0  0
 79148  1  0  0  0
 79149  1  0  0  0
 80150  1  0  0  0
M  ISO  4   1 100  68 101  79 101  80 100
M  END
> <chiral flag>
0

> <version>
0

> <s_m_source_file>
/data/baiqing/PycharmProjects/Reinvent-master-3.2/result/LINK_invent/BTK/process_docking_weight1_custom_sum_contain_oxygen_bond_distance_aromatic_linkinvent_7_9_3/rearranged_h_0100.sdf

> <i_m_source_file_index>
17

> <r_mmod_Potential_Energy-OPLS-2005>
1014.34057617188

> <r_mmod_Stretch_Energy-OPLS-2005>
446.138854980469

> <r_mmod_Bend_Energy-OPLS-2005>
421.191467285156

> <r_mmod_Torsional_Energy-OPLS-2005>
215.634216308594

> <r_mmod_Improper_Torsional_Energy-OPLS-2005>
7.20781755447388

> <r_mmod_Van_der_Waal_Energy-OPLS-2005>
132.082656860352

> <r_mmod_Electrostatic_Energy-OPLS-2005>
-383.006927490234

> <r_mmod_Solvation_Energy-OPLS-2005>
-212.018753051758

> <b_mmod_Minimization_Converged-OPLS-2005>
1

> <r_mmod_RMS_Derivative-OPLS-2005>
0.0366684682667255

$$$$
17
                    3D
 Structure written by MMmdl.
178186  0  0  1  0            999 V2000
  -30.6198  -14.5791   20.5711 C   0  0  0  0  0  0
  -30.4149  -12.3798   19.4069 C   0  0  0  0  0  0
  -29.4749  -12.5116   18.1903 C   0  0  0  0  0  0
  -28.0051  -12.3399   18.6119 C   0  0  0  0  0  0
  -27.6359  -13.2092   19.8422 C   0  0  2  0  0  0
  -28.6775  -13.0190   20.9609 C   0  0  0  0  0  0
  -25.2507  -13.8161   20.5631 C   0  0  0  0  0  0
  -24.1774  -13.0384   20.9152 C   0  0  0  0  0  0
  -24.6374  -11.6875   20.8693 C   0  0  0  0  0  0
  -23.9093  -10.4249   21.0401 C   0  0  0  0  0  0
  -24.3637   -9.4149   21.9156 C   0  0  0  0  0  0
  -23.6282   -8.2212   22.0761 C   0  0  0  0  0  0
  -22.4259   -8.0276   21.3595 C   0  0  0  0  0  0
  -21.9915   -9.0232   20.4681 C   0  0  0  0  0  0
  -22.7276  -10.2092   20.3061 C   0  0  0  0  0  0
  -21.6837   -6.0732   22.5280 C   0  0  0  0  0  0
  -21.4030   -6.5648   23.8213 C   0  0  0  0  0  0
  -21.3649   -5.6798   24.9158 C   0  0  0  0  0  0
  -21.6037   -4.3063   24.7211 C   0  0  0  0  0  0
  -21.8827   -3.8157   23.4333 C   0  0  0  0  0  0
  -21.9187   -4.6968   22.3385 C   0  0  0  0  0  0
  -22.7838  -13.5184   21.1779 C   0  0  0  0  0  0
  -22.1657   -4.2166   21.0967 F   0  0  0  0  0  0
  -21.5594   -3.4537   25.7723 F   0  0  0  0  0  0
  -29.9899  -13.3784   20.4018 N   0  0  0  0  0  0
  -26.2891  -12.9313   20.3208 N   0  0  0  0  0  0
  -25.9287  -11.6500   20.5713 N   0  0  0  0  0  0
  -22.0511  -12.8192   22.0391 N   0  0  0  0  0  0
  -25.4170  -15.1855   20.3970 N   0  0  0  0  0  0
  -31.7974  -14.7560   20.2535 O   0  0  0  0  0  0
  -21.6628   -6.8876   21.4272 O   0  0  0  0  0  0
  -22.3505  -14.5422   20.6559 O   0  0  0  0  0  0
  -24.6248  -31.8575   23.2141 C   0  0  0  0  0  0
  -25.9056  -32.4792   23.8392 C   0  0  1  0  0  0
  -27.2198  -27.3655   20.0740 C   0  0  0  0  0  0
  -25.5914  -33.8624   24.2315 N   0  0  0  0  0  0
  -23.4181  -30.4846   21.5541 C   0  0  2  0  0  0
  -24.8598  -28.9578   20.1188 C   0  0  0  0  0  0
  -22.7413  -29.4603   22.4916 C   0  0  0  0  0  0
  -18.0271  -28.1385   22.8441 C   0  0  0  0  0  0
  -24.1512  -36.7309   23.2634 C   0  0  0  0  0  0
  -25.9593  -30.8025   21.3805 C   0  0  0  0  0  0
  -26.0301  -29.4354   20.7167 C   0  0  0  0  0  0
  -27.2169  -28.6500   20.6880 C   0  0  0  0  0  0
  -26.0220  -26.9421   19.4447 C   0  0  0  0  0  0
  -24.8519  -27.7166   19.4782 C   0  0  0  0  0  0
  -23.6292  -29.8305   20.1664 C   0  0  0  0  0  0
  -25.4127  -36.3088   24.0319 C   0  0  1  0  0  0
  -20.5856  -28.3675   23.1285 C   0  0  2  0  0  0
  -20.6762  -26.9382   22.5465 C   0  0  0  0  0  0
  -19.5794  -26.6345   21.5228 C   0  0  0  0  0  0
  -18.1933  -26.7932   22.1594 C   0  0  0  0  0  0
  -19.1525  -28.8841   23.2844 C   0  0  0  0  0  0
  -18.9461  -30.1411   23.8878 C   0  0  0  0  0  0
  -17.6483  -30.6565   24.0578 C   0  0  0  0  0  0
  -25.9053  -34.9445   23.5113 C   0  0  0  0  0  0
  -16.5345  -29.9086   23.6344 C   0  0  0  0  0  0
  -16.7272  -28.6526   23.0323 C   0  0  0  0  0  0
  -26.4499  -31.6575   25.0701 C   0  0  0  0  0  0
  -25.3781  -31.3682   26.1462 C   0  0  0  0  0  0
  -27.0315  -30.2982   24.6100 C   0  0  0  0  0  0
  -27.6033  -32.4355   25.7477 C   0  0  0  0  0  0
  -27.5589  -37.1772   24.8453 C   0  0  0  0  0  0
  -21.4128  -29.3037   22.3645 N   0  0  0  0  0  0
  -26.4298  -37.3777   23.9413 N   0  0  0  0  0  0
  -24.6872  -31.0582   22.1102 N   0  0  0  0  0  0
  -23.4123  -28.8033   23.2908 O   0  0  0  0  0  0
  -28.3536  -26.5518   20.1120 O   0  0  0  0  0  0
  -26.5633  -34.8891   22.4661 O   0  0  0  0  0  0
  -23.5421  -32.1355   23.7487 O   0  0  0  0  0  0
  -28.8790  -21.6473   22.5268 C   0  0  0  0  0  0
  -29.3521  -20.8456   21.4503 C   0  0  0  0  0  0
  -28.8089  -20.9010   23.6570 C   0  0  0  0  0  0
  -29.4983  -19.5389   21.9169 C   0  0  0  0  0  0
  -31.0852  -18.4812   20.2039 C   0  0  0  0  0  0
  -25.4941  -22.2594   26.2761 C   0  0  0  0  0  0
  -25.8305  -24.2934   24.8536 C   0  0  0  0  0  0
  -29.3864  -18.5468   24.2878 C   0  0  0  0  0  0
  -29.6312  -21.4326   20.0656 C   0  0  0  0  0  0
  -28.4609  -21.3317   25.0739 C   0  0  0  0  0  0
  -28.7892  -22.6687   19.6413 C   0  0  0  0  0  0
  -27.8081  -22.7361   25.2473 C   0  0  0  0  0  0
  -29.2580  -24.1042   20.0508 C   0  0  0  0  0  0
  -30.0692  -16.8119   21.8013 C   0  0  0  0  0  0
  -28.1469  -25.1519   19.7557 C   0  0  0  0  0  0
  -29.8619  -18.2331   21.1087 C   0  0  1  0  0  0
  -26.2713  -22.8335   25.0756 C   0  0  0  0  0  0
  -29.2313  -19.6130   23.3072 N   0  0  0  0  0  0
  -29.8013  -15.5902   20.9853 N   0  0  0  0  0  0
  -31.4536  -12.5137   19.1056 H   0  0  0  0  0  0
  -30.3505  -11.3791   19.8387 H   0  0  0  0  0  0
  -29.7334  -11.7715   17.4343 H   0  0  0  0  0  0
  -29.6078  -13.4876   17.7224 H   0  0  0  0  0  0
  -27.8421  -11.2846   18.8391 H   0  0  0  0  0  0
  -27.3493  -12.5779   17.7781 H   0  0  0  0  0  0
  -27.6584  -14.2453   19.5053 H   0  0  0  0  0  0
  -28.6833  -11.9815   21.2971 H   0  0  0  0  0  0
  -28.4197  -13.6127   21.8364 H   0  0  0  0  0  0
  -25.2795   -9.5557   22.4722 H   0  0  0  0  0  0
  -23.9967   -7.4596   22.7487 H   0  0  0  0  0  0
  -21.0863   -8.8766   19.8972 H   0  0  0  0  0  0
  -22.3771  -10.9620   19.6158 H   0  0  0  0  0  0
  -21.2076   -7.6165   23.9721 H   0  0  0  0  0  0
  -21.1455   -6.0524   25.9064 H   0  0  0  0  0  0
  -22.0626   -2.7634   23.2811 H   0  0  0  0  0  0
  -22.4253  -11.9867   22.4709 H   0  0  0  0  0  0
  -21.1165  -13.1226   22.2689 H   0  0  0  0  0  0
  -24.6275  -15.8200   20.4518 H   0  0  0  0  0  0
  -26.2389  -15.6147   19.9891 H   0  0  0  0  0  0
  -26.7038  -32.5450   23.1053 H   0  0  0  0  0  0
  -25.0136  -33.9902   25.0515 H   0  0  0  0  0  0
  -22.7181  -31.3061   21.4111 H   0  0  0  0  0  0
  -23.3775  -35.9651   23.3340 H   0  0  0  0  0  0
  -24.3610  -36.8937   22.2045 H   0  0  0  0  0  0
  -23.7257  -37.6506   23.6660 H   0  0  0  0  0  0
  -26.0884  -31.5760   20.6225 H   0  0  0  0  0  0
  -26.8437  -30.8521   22.0032 H   0  0  0  0  0  0
  -28.1222  -29.0039   21.1586 H   0  0  0  0  0  0
  -25.9469  -26.0067   18.9103 H   0  0  0  0  0  0
  -23.9477  -27.3729   18.9983 H   0  0  0  0  0  0
  -23.7709  -30.6108   19.4168 H   0  0  0  0  0  0
  -22.7557  -29.2549   19.8472 H   0  0  0  0  0  0
  -25.1281  -36.1959   25.0808 H   0  0  0  0  0  0
  -20.9973  -28.3268   24.1415 H   0  0  0  0  0  0
  -20.5736  -26.2232   23.3649 H   0  0  0  0  0  0
  -21.6619  -26.7467   22.1226 H   0  0  0  0  0  0
  -19.7021  -25.6275   21.1244 H   0  0  0  0  0  0
  -19.6815  -27.3135   20.6740 H   0  0  0  0  0  0
  -17.4215  -26.6665   21.3976 H   0  0  0  0  0  0
  -18.0316  -26.0091   22.9005 H   0  0  0  0  0  0
  -19.7957  -30.7175   24.2271 H   0  0  0  0  0  0
  -17.5069  -31.6290   24.5132 H   0  0  0  0  0  0
  -15.5362  -30.3014   23.7733 H   0  0  0  0  0  0
  -15.8627  -28.0892   22.7075 H   0  0  0  0  0  0
  -24.5884  -30.7140   25.7742 H   0  0  0  0  0  0
  -24.9083  -32.2885   26.4948 H   0  0  0  0  0  0
  -25.8155  -30.8734   27.0164 H   0  0  0  0  0  0
  -26.2826  -29.6688   24.1232 H   0  0  0  0  0  0
  -27.4139  -29.7254   25.4560 H   0  0  0  0  0  0
  -27.8704  -30.4271   23.9255 H   0  0  0  0  0  0
  -27.2566  -33.3639   26.2077 H   0  0  0  0  0  0
  -28.3819  -32.6964   25.0285 H   0  0  0  0  0  0
  -28.0721  -31.8460   26.5388 H   0  0  0  0  0  0
  -28.2523  -38.0132   24.7495 H   0  0  0  0  0  0
  -28.1162  -36.2624   24.6291 H   0  0  0  0  0  0
  -27.2309  -37.1414   25.8859 H   0  0  0  0  0  0
  -20.9267  -29.8797   21.6926 H   0  0  0  0  0  0
  -26.0201  -38.2870   24.1431 H   0  0  0  0  0  0
  -28.6590  -22.7046   22.4942 H   0  0  0  0  0  0
  -30.9142  -19.2619   19.4737 H   0  0  0  0  0  0
  -31.3586  -17.5986   19.6250 H   0  0  0  0  0  0
  -31.9503  -18.7762   20.8003 H   0  0  0  0  0  0
  -24.4206  -22.2611   26.0755 H   0  0  0  0  0  0
  -25.6440  -22.8641   27.1729 H   0  0  0  0  0  0
  -25.7880  -21.2357   26.5119 H   0  0  0  0  0  0
  -24.7452  -24.3884   24.8081 H   0  0  0  0  0  0
  -26.2300  -24.7073   23.9263 H   0  0  0  0  0  0
  -26.1712  -24.9257   25.6716 H   0  0  0  0  0  0
  -29.5173  -18.9451   25.2934 H   0  0  0  0  0  0
  -30.2980  -17.9913   24.0886 H   0  0  0  0  0  0
  -28.5191  -17.8814   24.2702 H   0  0  0  0  0  0
  -29.3560  -20.6665   19.3438 H   0  0  0  0  0  0
  -30.7032  -21.6225   19.9499 H   0  0  0  0  0  0
  -29.4001  -21.3673   25.6308 H   0  0  0  0  0  0
  -27.8629  -20.5725   25.5749 H   0  0  0  0  0  0
  -28.7775  -22.6432   18.5468 H   0  0  0  0  0  0
  -27.7574  -22.4852   19.9418 H   0  0  0  0  0  0
  -28.3169  -23.4546   24.6060 H   0  0  0  0  0  0
  -28.0221  -23.0875   26.2554 H   0  0  0  0  0  0
  -30.1732  -24.3481   19.5148 H   0  0  0  0  0  0
  -29.5120  -24.1303   21.1083 H   0  0  0  0  0  0
  -29.3210  -16.6927   22.5805 H   0  0  0  0  0  0
  -31.0414  -16.7187   22.2952 H   0  0  0  0  0  0
  -27.2605  -24.7685   20.2670 H   0  0  0  0  0  0
  -27.9406  -25.1167   18.6864 H   0  0  0  0  0  0
  -29.0056  -18.0701   20.4530 H   0  0  0  0  0  0
  -25.9872  -22.2660   24.1926 H   0  0  0  0  0  0
  -28.8266  -15.3429   20.9431 H   0  0  0  0  0  0
  1 25  1  0  0  0
  1 30  2  0  0  0
  1 89  1  0  0  0
  2  3  1  0  0  0
  2 25  1  0  0  0
  2 90  1  0  0  0
  2 91  1  0  0  0
  3  4  1  0  0  0
  3 92  1  0  0  0
  3 93  1  0  0  0
  4  5  1  0  0  0
  4 94  1  0  0  0
  4 95  1  0  0  0
  5  6  1  0  0  0
  5 26  1  0  0  0
  5 96  1  0  0  0
  6 25  1  0  0  0
  6 97  1  0  0  0
  6 98  1  0  0  0
  7  8  2  0  0  0
  7 26  1  0  0  0
  7 29  1  0  0  0
  8  9  1  0  0  0
  8 22  1  0  0  0
  9 10  1  0  0  0
  9 27  2  0  0  0
 10 11  2  0  0  0
 10 15  1  0  0  0
 11 12  1  0  0  0
 11 99  1  0  0  0
 12 13  2  0  0  0
 12100  1  0  0  0
 13 14  1  0  0  0
 13 31  1  0  0  0
 14 15  2  0  0  0
 14101  1  0  0  0
 15102  1  0  0  0
 16 17  2  0  0  0
 16 21  1  0  0  0
 16 31  1  0  0  0
 17 18  1  0  0  0
 17103  1  0  0  0
 18 19  2  0  0  0
 18104  1  0  0  0
 19 20  1  0  0  0
 19 24  1  0  0  0
 20 21  2  0  0  0
 20105  1  0  0  0
 21 23  1  0  0  0
 22 28  1  0  0  0
 22 32  2  0  0  0
 26 27  1  0  0  0
 28106  1  0  0  0
 28107  1  0  0  0
 29108  1  0  0  0
 29109  1  0  0  0
 33 34  1  0  0  0
 33 66  1  0  0  0
 33 70  2  0  0  0
 34 36  1  0  0  0
 34 59  1  0  0  0
 34110  1  0  0  0
 35 44  2  0  0  0
 35 45  1  0  0  0
 35 68  1  0  0  0
 36 56  1  0  0  0
 36111  1  0  0  0
 37 39  1  0  0  0
 37 47  1  0  0  0
 37 66  1  0  0  0
 37112  1  0  0  0
 38 43  2  0  0  0
 38 46  1  0  0  0
 38 47  1  0  0  0
 39 64  1  0  0  0
 39 67  2  0  0  0
 40 52  1  0  0  0
 40 53  2  0  0  0
 40 58  1  0  0  0
 41113  1  0  0  0
 41114  1  0  0  0
 41115  1  0  0  0
 41 48  1  0  0  0
 42 43  1  0  0  0
 42 66  1  0  0  0
 42116  1  0  0  0
 42117  1  0  0  0
 43 44  1  0  0  0
 44118  1  0  0  0
 45 46  2  0  0  0
 45119  1  0  0  0
 46120  1  0  0  0
 47121  1  0  0  0
 47122  1  0  0  0
 48 56  1  0  0  0
 48 65  1  0  0  0
 48123  1  0  0  0
 49 50  1  0  0  0
 49 53  1  0  0  0
 49 64  1  0  0  0
 49124  1  0  0  0
 50 51  1  0  0  0
 50125  1  0  0  0
 50126  1  0  0  0
 51 52  1  0  0  0
 51127  1  0  0  0
 51128  1  0  0  0
 52129  1  0  0  0
 52130  1  0  0  0
 53 54  1  0  0  0
 54 55  2  0  0  0
 54131  1  0  0  0
 55 57  1  0  0  0
 55132  1  0  0  0
 56 69  2  0  0  0
 57 58  2  0  0  0
 57133  1  0  0  0
 58134  1  0  0  0
 59 60  1  0  0  0
 59 61  1  0  0  0
 59 62  1  0  0  0
 60135  1  0  0  0
 60136  1  0  0  0
 60137  1  0  0  0
 61138  1  0  0  0
 61139  1  0  0  0
 61140  1  0  0  0
 62141  1  0  0  0
 62142  1  0  0  0
 62143  1  0  0  0
 63 65  1  0  0  0
 63144  1  0  0  0
 63145  1  0  0  0
 63146  1  0  0  0
 64147  1  0  0  0
 65148  1  0  0  0
 68 85  1  0  0  0
 71 72  1  0  0  0
 71 73  2  0  0  0
 71149  1  0  0  0
 72 74  2  0  0  0
 72 79  1  0  0  0
 73 80  1  0  0  0
 73 88  1  0  0  0
 74 86  1  0  0  0
 74 88  1  0  0  0
 75150  1  0  0  0
 75151  1  0  0  0
 75152  1  0  0  0
 75 86  1  0  0  0
 76153  1  0  0  0
 76154  1  0  0  0
 76155  1  0  0  0
 76 87  1  0  0  0
 77 87  1  0  0  0
 77156  1  0  0  0
 77157  1  0  0  0
 77158  1  0  0  0
 78 88  1  0  0  0
 78159  1  0  0  0
 78160  1  0  0  0
 78161  1  0  0  0
 79 81  1  0  0  0
 79162  1  0  0  0
 79163  1  0  0  0
 80 82  1  0  0  0
 80164  1  0  0  0
 80165  1  0  0  0
 81 83  1  0  0  0
 81166  1  0  0  0
 81167  1  0  0  0
 82 87  1  0  0  0
 82168  1  0  0  0
 82169  1  0  0  0
 83 85  1  0  0  0
 83170  1  0  0  0
 83171  1  0  0  0
 84 86  1  0  0  0
 84 89  1  0  0  0
 84172  1  0  0  0
 84173  1  0  0  0
 85174  1  0  0  0
 85175  1  0  0  0
 86176  1  0  0  0
 87177  1  0  0  0
 89178  1  0  0  0
M  ISO  4   1 100  68 101  85 101  89 100
M  END
> <chiral flag>
0

> <version>
0

> <s_m_source_file>
/data/baiqing/PycharmProjects/Reinvent-master-3.2/result/LINK_invent/BTK/process_docking_weight1_custom_sum_contain_oxygen_bond_distance_aromatic_linkinvent_7_9_3/rearranged_h_0100.sdf

> <i_m_source_file_index>
18

> <r_mmod_Potential_Energy-OPLS-2005>
20.6870708465576

> <r_mmod_Stretch_Energy-OPLS-2005>
67.5734710693359

> <r_mmod_Bend_Energy-OPLS-2005>
159.826202392578

> <r_mmod_Torsional_Energy-OPLS-2005>
246.927734375

> <r_mmod_Improper_Torsional_Energy-OPLS-2005>
4.50209903717041

> <r_mmod_Van_der_Waal_Energy-OPLS-2005>
140.187423706055

> <r_mmod_Electrostatic_Energy-OPLS-2005>
-430.010070800781

> <r_mmod_Solvation_Energy-OPLS-2005>
-204.499542236328

> <b_mmod_Minimization_Converged-OPLS-2005>
0

> <r_mmod_RMS_Derivative-OPLS-2005>
8.6928539276123

$$$$
18
                    3D
 Structure written by MMmdl.
161168  0  0  1  0            999 V2000
  -30.6113  -14.6601   20.4704 C   0  0  0  0  0  0
  -30.4256  -12.3991   19.4684 C   0  0  0  0  0  0
  -29.5022  -12.4890   18.2314 C   0  0  0  0  0  0
  -28.0252  -12.3333   18.6415 C   0  0  0  0  0  0
  -27.6461  -13.2197   19.8561 C   0  0  2  0  0  0
  -28.6828  -13.1084   20.9927 C   0  0  0  0  0  0
  -25.2531  -13.8178   20.5669 C   0  0  0  0  0  0
  -24.1802  -13.0425   20.9181 C   0  0  0  0  0  0
  -24.6375  -11.6916   20.8701 C   0  0  0  0  0  0
  -23.9043  -10.4289   21.0384 C   0  0  0  0  0  0
  -24.3606   -9.4230   21.9178 C   0  0  0  0  0  0
  -23.6310   -8.2252   22.0750 C   0  0  0  0  0  0
  -22.4280   -8.0276   21.3539 C   0  0  0  0  0  0
  -21.9890   -9.0245   20.4633 C   0  0  0  0  0  0
  -22.7209  -10.2145   20.3046 C   0  0  0  0  0  0
  -21.6855   -6.0730   22.5266 C   0  0  0  0  0  0
  -21.4025   -6.5630   23.8203 C   0  0  0  0  0  0
  -21.3652   -5.6794   24.9159 C   0  0  0  0  0  0
  -21.6050   -4.3056   24.7206 C   0  0  0  0  0  0
  -21.8835   -3.8140   23.4324 C   0  0  0  0  0  0
  -21.9209   -4.6960   22.3393 C   0  0  0  0  0  0
  -22.7824  -13.5205   21.1859 C   0  0  0  0  0  0
  -22.1698   -4.2140   21.0968 F   0  0  0  0  0  0
  -21.5630   -3.4555   25.7738 F   0  0  0  0  0  0
  -29.9946  -13.4392   20.4234 N   0  0  0  0  0  0
  -26.2940  -12.9365   20.3274 N   0  0  0  0  0  0
  -25.9292  -11.6518   20.5705 N   0  0  0  0  0  0
  -22.0547  -12.8160   22.0440 N   0  0  0  0  0  0
  -25.4221  -15.1889   20.4081 N   0  0  0  0  0  0
  -31.7864  -14.7924   20.1195 O   0  0  0  0  0  0
  -21.6649   -6.8867   21.4228 O   0  0  0  0  0  0
  -22.3493  -14.5520   20.6744 O   0  0  0  0  0  0
  -24.6265  -31.8605   23.2053 C   0  0  0  0  0  0
  -25.9123  -32.4776   23.8365 C   0  0  1  0  0  0
  -27.2113  -27.3195   20.1058 C   0  0  0  0  0  0
  -25.5950  -33.8577   24.2279 N   0  0  0  0  0  0
  -23.4170  -30.4873   21.5504 C   0  0  2  0  0  0
  -24.8573  -28.9491   20.1123 C   0  0  0  0  0  0
  -22.7460  -29.4635   22.4974 C   0  0  0  0  0  0
  -18.0263  -28.1371   22.8496 C   0  0  0  0  0  0
  -24.1496  -36.7283   23.2645 C   0  0  0  0  0  0
  -25.9594  -30.7915   21.3782 C   0  0  0  0  0  0
  -26.0279  -29.4227   20.7143 C   0  0  0  0  0  0
  -27.2072  -28.6209   20.7000 C   0  0  0  0  0  0
  -26.0068  -26.8945   19.4951 C   0  0  0  0  0  0
  -24.8505  -27.6907   19.4956 C   0  0  0  0  0  0
  -23.6281  -29.8287   20.1642 C   0  0  0  0  0  0
  -25.4120  -36.3066   24.0326 C   0  0  1  0  0  0
  -20.5870  -28.3669   23.1300 C   0  0  2  0  0  0
  -20.6772  -26.9396   22.5407 C   0  0  0  0  0  0
  -19.5741  -26.6377   21.5213 C   0  0  0  0  0  0
  -18.1917  -26.7918   22.1623 C   0  0  0  0  0  0
  -19.1523  -28.8834   23.2897 C   0  0  0  0  0  0
  -18.9440  -30.1445   23.8900 C   0  0  0  0  0  0
  -17.6453  -30.6579   24.0552 C   0  0  0  0  0  0
  -25.9050  -34.9446   23.5096 C   0  0  0  0  0  0
  -16.5340  -29.9066   23.6341 C   0  0  0  0  0  0
  -16.7262  -28.6485   23.0366 C   0  0  0  0  0  0
  -26.4512  -31.6587   25.0731 C   0  0  0  0  0  0
  -25.3766  -31.3725   26.1475 C   0  0  0  0  0  0
  -27.0375  -30.3010   24.6210 C   0  0  0  0  0  0
  -27.6055  -32.4360   25.7501 C   0  0  0  0  0  0
  -27.5571  -37.1802   24.8462 C   0  0  0  0  0  0
  -21.4170  -29.3038   22.3706 N   0  0  0  0  0  0
  -26.4283  -37.3769   23.9410 N   0  0  0  0  0  0
  -24.6866  -31.0638   22.1010 N   0  0  0  0  0  0
  -23.4198  -28.8156   23.3041 O   0  0  0  0  0  0
  -28.3492  -26.4997   20.1508 O   0  0  0  0  0  0
  -26.5595  -34.8921   22.4648 O   0  0  0  0  0  0
  -23.5443  -32.1409   23.7388 O   0  0  0  0  0  0
  -27.0820  -22.0952   19.5689 C   0  0  0  0  0  0
  -29.1673  -18.3685   22.3058 C   0  0  0  0  0  0
  -30.3078  -21.6176   21.6989 C   0  0  0  0  0  0
  -28.5962  -23.8905   20.5852 C   0  0  0  0  0  0
  -29.4499  -19.8045   20.1189 C   0  0  0  0  0  0
  -30.1313  -17.1814   20.2690 C   0  0  0  0  0  0
  -28.3788  -25.1226   19.6036 C   0  0  0  0  0  0
  -28.5417  -22.4033   19.9754 C   0  0  1  0  0  0
  -29.1761  -18.3597   20.7701 C   0  0  1  0  0  0
  -29.0846  -21.1788   20.8663 C   0  0  2  0  0  0
  -29.8149  -15.7618   20.6729 N   0  0  0  0  0  0
  -31.4688  -12.5231   19.1714 H   0  0  0  0  0  0
  -30.3634  -11.4126   19.9320 H   0  0  0  0  0  0
  -29.7653  -11.7207   17.5037 H   0  0  0  0  0  0
  -29.6455  -13.4452   17.7252 H   0  0  0  0  0  0
  -27.8586  -11.2830   18.8869 H   0  0  0  0  0  0
  -27.3673  -12.5563   17.8004 H   0  0  0  0  0  0
  -27.6592  -14.2471   19.4942 H   0  0  0  0  0  0
  -28.6889  -12.0995   21.4100 H   0  0  0  0  0  0
  -28.4227  -13.7748   21.8172 H   0  0  0  0  0  0
  -25.2775   -9.5746   22.4715 H   0  0  0  0  0  0
  -24.0068   -7.4621   22.7420 H   0  0  0  0  0  0
  -21.0857   -8.8733   19.8889 H   0  0  0  0  0  0
  -22.3664  -10.9675   19.6148 H   0  0  0  0  0  0
  -21.2024   -7.6154   23.9715 H   0  0  0  0  0  0
  -21.1456   -6.0508   25.9064 H   0  0  0  0  0  0
  -22.0609   -2.7599   23.2836 H   0  0  0  0  0  0
  -22.4253  -11.9852   22.4793 H   0  0  0  0  0  0
  -21.1132  -13.1088   22.2659 H   0  0  0  0  0  0
  -24.6564  -15.8420   20.5318 H   0  0  0  0  0  0
  -26.2624  -15.6305   20.0583 H   0  0  0  0  0  0
  -26.7176  -32.5431   23.1101 H   0  0  0  0  0  0
  -25.0160  -33.9736   25.0466 H   0  0  0  0  0  0
  -22.7103  -31.3081   21.4118 H   0  0  0  0  0  0
  -23.3750  -35.9620   23.3305 H   0  0  0  0  0  0
  -24.3587  -36.8909   22.2055 H   0  0  0  0  0  0
  -23.7253  -37.6494   23.6665 H   0  0  0  0  0  0
  -26.1031  -31.5610   20.6190 H   0  0  0  0  0  0
  -26.8371  -30.8288   22.0123 H   0  0  0  0  0  0
  -28.1086  -28.9876   21.1737 H   0  0  0  0  0  0
  -25.8906  -25.9357   19.0218 H   0  0  0  0  0  0
  -23.9498  -27.3205   19.0263 H   0  0  0  0  0  0
  -23.7458  -30.6079   19.4106 H   0  0  0  0  0  0
  -22.7493  -29.2567   19.8610 H   0  0  0  0  0  0
  -25.1303  -36.1914   25.0813 H   0  0  0  0  0  0
  -20.9954  -28.3228   24.1428 H   0  0  0  0  0  0
  -20.5694  -26.2267   23.3599 H   0  0  0  0  0  0
  -21.6639  -26.7452   22.1183 H   0  0  0  0  0  0
  -19.6910  -25.6287   21.1240 H   0  0  0  0  0  0
  -19.6681  -27.3193   20.6743 H   0  0  0  0  0  0
  -17.4195  -26.6675   21.4011 H   0  0  0  0  0  0
  -18.0304  -26.0043   22.8998 H   0  0  0  0  0  0
  -19.7923  -30.7248   24.2289 H   0  0  0  0  0  0
  -17.5003  -31.6269   24.5126 H   0  0  0  0  0  0
  -15.5346  -30.2966   23.7672 H   0  0  0  0  0  0
  -15.8657  -28.0799   22.7105 H   0  0  0  0  0  0
  -24.5909  -30.7107   25.7811 H   0  0  0  0  0  0
  -24.9007  -32.2897   26.4955 H   0  0  0  0  0  0
  -25.8124  -30.8860   27.0211 H   0  0  0  0  0  0
  -26.2948  -29.6738   24.1261 H   0  0  0  0  0  0
  -27.4090  -29.7301   25.4730 H   0  0  0  0  0  0
  -27.8814  -30.4296   23.9429 H   0  0  0  0  0  0
  -27.2617  -33.3643   26.2091 H   0  0  0  0  0  0
  -28.3848  -32.6972   25.0321 H   0  0  0  0  0  0
  -28.0744  -31.8494   26.5419 H   0  0  0  0  0  0
  -28.2593  -38.0094   24.7501 H   0  0  0  0  0  0
  -28.1070  -36.2629   24.6299 H   0  0  0  0  0  0
  -27.2295  -37.1453   25.8868 H   0  0  0  0  0  0
  -20.9335  -29.8773   21.6930 H   0  0  0  0  0  0
  -26.0160  -38.2847   24.1410 H   0  0  0  0  0  0
  -26.6816  -22.8353   18.8770 H   0  0  0  0  0  0
  -26.4310  -22.0935   20.4455 H   0  0  0  0  0  0
  -26.9809  -21.1216   19.0876 H   0  0  0  0  0  0
  -28.4328  -19.0637   22.7090 H   0  0  0  0  0  0
  -30.1466  -18.6302   22.7012 H   0  0  0  0  0  0
  -28.9070  -17.3876   22.7006 H   0  0  0  0  0  0
  -30.7498  -20.7932   22.2554 H   0  0  0  0  0  0
  -30.0361  -22.3720   22.4361 H   0  0  0  0  0  0
  -31.0955  -22.0306   21.0675 H   0  0  0  0  0  0
  -27.8932  -23.9604   21.4170 H   0  0  0  0  0  0
  -29.5772  -24.0545   21.0260 H   0  0  0  0  0  0
  -28.9618  -19.8094   19.1436 H   0  0  0  0  0  0
  -30.5105  -19.8472   19.8687 H   0  0  0  0  0  0
  -31.1459  -17.3985   20.6079 H   0  0  0  0  0  0
  -30.1717  -17.2130   19.1774 H   0  0  0  0  0  0
  -27.5660  -24.8965   18.9274 H   0  0  0  0  0  0
  -29.2370  -25.1211   18.9323 H   0  0  0  0  0  0
  -29.1480  -22.4189   19.0688 H   0  0  0  0  0  0
  -28.1594  -18.1016   20.4683 H   0  0  0  0  0  0
  -28.2834  -20.9571   21.5688 H   0  0  0  0  0  0
  -28.8664  -15.5805   20.9664 H   0  0  0  0  0  0
  1 25  1  0  0  0
  1 30  2  0  0  0
  1 81  1  0  0  0
  2  3  1  0  0  0
  2 25  1  0  0  0
  2 82  1  0  0  0
  2 83  1  0  0  0
  3  4  1  0  0  0
  3 84  1  0  0  0
  3 85  1  0  0  0
  4  5  1  0  0  0
  4 86  1  0  0  0
  4 87  1  0  0  0
  5  6  1  0  0  0
  5 26  1  0  0  0
  5 88  1  0  0  0
  6 25  1  0  0  0
  6 89  1  0  0  0
  6 90  1  0  0  0
  7  8  2  0  0  0
  7 26  1  0  0  0
  7 29  1  0  0  0
  8  9  1  0  0  0
  8 22  1  0  0  0
  9 10  1  0  0  0
  9 27  2  0  0  0
 10 11  2  0  0  0
 10 15  1  0  0  0
 11 12  1  0  0  0
 11 91  1  0  0  0
 12 13  2  0  0  0
 12 92  1  0  0  0
 13 14  1  0  0  0
 13 31  1  0  0  0
 14 15  2  0  0  0
 14 93  1  0  0  0
 15 94  1  0  0  0
 16 17  2  0  0  0
 16 21  1  0  0  0
 16 31  1  0  0  0
 17 18  1  0  0  0
 17 95  1  0  0  0
 18 19  2  0  0  0
 18 96  1  0  0  0
 19 20  1  0  0  0
 19 24  1  0  0  0
 20 21  2  0  0  0
 20 97  1  0  0  0
 21 23  1  0  0  0
 22 28  1  0  0  0
 22 32  2  0  0  0
 26 27  1  0  0  0
 28 98  1  0  0  0
 28 99  1  0  0  0
 29100  1  0  0  0
 29101  1  0  0  0
 33 34  1  0  0  0
 33 66  1  0  0  0
 33 70  2  0  0  0
 34 36  1  0  0  0
 34 59  1  0  0  0
 34102  1  0  0  0
 35 44  2  0  0  0
 35 45  1  0  0  0
 35 68  1  0  0  0
 36 56  1  0  0  0
 36103  1  0  0  0
 37 39  1  0  0  0
 37 47  1  0  0  0
 37 66  1  0  0  0
 37104  1  0  0  0
 38 43  2  0  0  0
 38 46  1  0  0  0
 38 47  1  0  0  0
 39 64  1  0  0  0
 39 67  2  0  0  0
 40 52  1  0  0  0
 40 53  2  0  0  0
 40 58  1  0  0  0
 41105  1  0  0  0
 41106  1  0  0  0
 41107  1  0  0  0
 41 48  1  0  0  0
 42 43  1  0  0  0
 42 66  1  0  0  0
 42108  1  0  0  0
 42109  1  0  0  0
 43 44  1  0  0  0
 44110  1  0  0  0
 45 46  2  0  0  0
 45111  1  0  0  0
 46112  1  0  0  0
 47113  1  0  0  0
 47114  1  0  0  0
 48 56  1  0  0  0
 48 65  1  0  0  0
 48115  1  0  0  0
 49 50  1  0  0  0
 49 53  1  0  0  0
 49 64  1  0  0  0
 49116  1  0  0  0
 50 51  1  0  0  0
 50117  1  0  0  0
 50118  1  0  0  0
 51 52  1  0  0  0
 51119  1  0  0  0
 51120  1  0  0  0
 52121  1  0  0  0
 52122  1  0  0  0
 53 54  1  0  0  0
 54 55  2  0  0  0
 54123  1  0  0  0
 55 57  1  0  0  0
 55124  1  0  0  0
 56 69  2  0  0  0
 57 58  2  0  0  0
 57125  1  0  0  0
 58126  1  0  0  0
 59 60  1  0  0  0
 59 61  1  0  0  0
 59 62  1  0  0  0
 60127  1  0  0  0
 60128  1  0  0  0
 60129  1  0  0  0
 61130  1  0  0  0
 61131  1  0  0  0
 61132  1  0  0  0
 62133  1  0  0  0
 62134  1  0  0  0
 62135  1  0  0  0
 63 65  1  0  0  0
 63136  1  0  0  0
 63137  1  0  0  0
 63138  1  0  0  0
 64139  1  0  0  0
 65140  1  0  0  0
 68 77  1  0  0  0
 71141  1  0  0  0
 71142  1  0  0  0
 71143  1  0  0  0
 71 78  1  0  0  0
 72144  1  0  0  0
 72145  1  0  0  0
 72146  1  0  0  0
 72 79  1  0  0  0
 73147  1  0  0  0
 73148  1  0  0  0
 73149  1  0  0  0
 73 80  1  0  0  0
 74 77  1  0  0  0
 74 78  1  0  0  0
 74150  1  0  0  0
 74151  1  0  0  0
 75 79  1  0  0  0
 75 80  1  0  0  0
 75152  1  0  0  0
 75153  1  0  0  0
 76 79  1  0  0  0
 76 81  1  0  0  0
 76154  1  0  0  0
 76155  1  0  0  0
 77156  1  0  0  0
 77157  1  0  0  0
 78 80  1  0  0  0
 78158  1  0  0  0
 79159  1  0  0  0
 80160  1  0  0  0
 81161  1  0  0  0
M  ISO  4   1 100  68 101  77 101  81 100
M  END
> <chiral flag>
0

> <version>
0

> <s_m_source_file>
/data/baiqing/PycharmProjects/Reinvent-master-3.2/result/LINK_invent/BTK/process_docking_weight1_custom_sum_contain_oxygen_bond_distance_aromatic_linkinvent_7_9_3/rearranged_h_0100.sdf

> <i_m_source_file_index>
19

> <r_mmod_Potential_Energy-OPLS-2005>
85.6755828857422

> <r_mmod_Stretch_Energy-OPLS-2005>
89.6785354614258

> <r_mmod_Bend_Energy-OPLS-2005>
153.309906005859

> <r_mmod_Torsional_Energy-OPLS-2005>
236.863830566406

> <r_mmod_Improper_Torsional_Energy-OPLS-2005>
6.18682622909546

> <r_mmod_Van_der_Waal_Energy-OPLS-2005>
130.622695922852

> <r_mmod_Electrostatic_Energy-OPLS-2005>
-390.739715576172

> <r_mmod_Solvation_Energy-OPLS-2005>
-192.580215454102

> <b_mmod_Minimization_Converged-OPLS-2005>
0

> <r_mmod_RMS_Derivative-OPLS-2005>
3.95789933204651

$$$$
19
                    3D
 Structure written by MMmdl.
165173  0  0  1  0            999 V2000
  -30.5221  -14.9902   20.4069 C   0  0  0  0  0  0
  -30.4401  -12.6177   19.4960 C   0  0  0  0  0  0
  -29.5194  -12.5311   18.2560 C   0  0  0  0  0  0
  -28.0532  -12.3132   18.6749 C   0  0  0  0  0  0
  -27.6249  -13.2491   19.8357 C   0  0  2  0  0  0
  -28.6702  -13.2998   20.9702 C   0  0  0  0  0  0
  -25.2428  -13.8226   20.5731 C   0  0  0  0  0  0
  -24.1751  -13.0444   20.9249 C   0  0  0  0  0  0
  -24.6371  -11.6927   20.8758 C   0  0  0  0  0  0
  -23.9071  -10.4289   21.0406 C   0  0  0  0  0  0
  -24.3615   -9.4201   21.9184 C   0  0  0  0  0  0
  -23.6297   -8.2236   22.0739 C   0  0  0  0  0  0
  -22.4279   -8.0271   21.3536 C   0  0  0  0  0  0
  -21.9916   -9.0242   20.4635 C   0  0  0  0  0  0
  -22.7242  -10.2126   20.3052 C   0  0  0  0  0  0
  -21.6850   -6.0738   22.5276 C   0  0  0  0  0  0
  -21.4015   -6.5633   23.8211 C   0  0  0  0  0  0
  -21.3660   -5.6781   24.9168 C   0  0  0  0  0  0
  -21.6040   -4.3044   24.7211 C   0  0  0  0  0  0
  -21.8822   -3.8141   23.4330 C   0  0  0  0  0  0
  -21.9188   -4.6966   22.3391 C   0  0  0  0  0  0
  -22.7768  -13.5213   21.1895 C   0  0  0  0  0  0
  -22.1651   -4.2150   21.0974 F   0  0  0  0  0  0
  -21.5638   -3.4528   25.7724 F   0  0  0  0  0  0
  -29.9359  -13.7243   20.3598 N   0  0  0  0  0  0
  -26.2853  -12.9457   20.3252 N   0  0  0  0  0  0
  -25.9304  -11.6585   20.5739 N   0  0  0  0  0  0
  -22.0419  -12.8192   22.0441 N   0  0  0  0  0  0
  -25.4080  -15.1956   20.4126 N   0  0  0  0  0  0
  -31.7358  -15.0494   20.1804 O   0  0  0  0  0  0
  -21.6637   -6.8876   21.4234 O   0  0  0  0  0  0
  -22.3448  -14.5515   20.6736 O   0  0  0  0  0  0
  -24.6458  -31.8404   23.1856 C   0  0  0  0  0  0
  -25.9222  -32.4680   23.8257 C   0  0  1  0  0  0
  -27.2116  -27.1020   20.1396 C   0  0  0  0  0  0
  -25.5964  -33.8490   24.2179 N   0  0  0  0  0  0
  -23.4503  -30.4607   21.5312 C   0  0  2  0  0  0
  -24.8999  -28.8849   20.1045 C   0  0  0  0  0  0
  -22.7582  -29.4519   22.4827 C   0  0  0  0  0  0
  -18.0309  -28.1390   22.8483 C   0  0  0  0  0  0
  -24.1491  -36.7247   23.2642 C   0  0  0  0  0  0
  -26.0093  -30.7011   21.3892 C   0  0  0  0  0  0
  -26.0769  -29.3093   20.7304 C   0  0  0  0  0  0
  -27.2285  -28.4312   20.7377 C   0  0  0  0  0  0
  -26.0103  -26.7956   19.4615 C   0  0  0  0  0  0
  -24.8810  -27.6428   19.4551 C   0  0  0  0  0  0
  -23.6785  -29.7909   20.1503 C   0  0  0  0  0  0
  -25.4120  -36.3028   24.0318 C   0  0  1  0  0  0
  -20.5921  -28.3714   23.1230 C   0  0  2  0  0  0
  -20.6791  -26.9414   22.5403 C   0  0  0  0  0  0
  -19.5763  -26.6380   21.5214 C   0  0  0  0  0  0
  -18.1945  -26.7929   22.1626 C   0  0  0  0  0  0
  -19.1560  -28.8872   23.2854 C   0  0  0  0  0  0
  -18.9475  -30.1471   23.8879 C   0  0  0  0  0  0
  -17.6467  -30.6588   24.0555 C   0  0  0  0  0  0
  -25.9075  -34.9403   23.5057 C   0  0  0  0  0  0
  -16.5363  -29.9079   23.6334 C   0  0  0  0  0  0
  -16.7289  -28.6495   23.0365 C   0  0  0  0  0  0
  -26.4541  -31.6552   25.0696 C   0  0  0  0  0  0
  -25.3730  -31.3730   26.1388 C   0  0  0  0  0  0
  -27.0397  -30.2946   24.6284 C   0  0  0  0  0  0
  -27.6071  -32.4312   25.7486 C   0  0  0  0  0  0
  -27.5573  -37.1786   24.8465 C   0  0  0  0  0  0
  -21.4274  -29.3035   22.3597 N   0  0  0  0  0  0
  -26.4282  -37.3741   23.9415 N   0  0  0  0  0  0
  -24.7218  -31.0235   22.0899 N   0  0  0  0  0  0
  -23.4232  -28.8067   23.2991 O   0  0  0  0  0  0
  -28.2591  -26.1041   20.2566 O   0  0  0  0  0  0
  -26.5651  -34.8903   22.4631 O   0  0  0  0  0  0
  -23.5580  -32.1291   23.7069 O   0  0  0  0  0  0
  -28.3940  -23.2504   21.8953 C   0  0  0  0  0  0
  -28.8087  -21.8558   19.9637 C   0  0  0  0  0  0
  -28.5303  -23.2242   20.5012 C   0  0  0  0  0  0
  -28.4104  -22.0734   22.6839 C   0  0  0  0  0  0
  -28.8780  -20.5768   20.7358 C   0  0  0  0  0  0
  -28.5644  -20.7627   22.1215 C   0  0  0  0  0  0
  -28.1785  -22.2755   24.1756 C   0  0  0  0  0  0
  -25.7948  -19.6780   22.1140 C   0  0  0  0  0  0
  -26.4660  -17.8745   23.7397 C   0  0  0  0  0  0
  -29.0092  -19.0166   20.1333 C   0  0  0  0  0  0
  -28.2439  -19.5498   23.0119 C   0  0  0  0  0  0
  -28.2464  -24.6397   19.6833 C   0  0  0  0  0  0
  -30.0558  -17.7410   20.5851 C   0  0  0  0  0  0
  -26.7303  -19.3199   23.2861 C   0  0  0  0  0  0
  -29.7321  -16.1793   20.5012 N   0  0  0  0  0  0
  -31.4702  -12.7898   19.1776 H   0  0  0  0  0  0
  -30.4499  -11.6749   20.0451 H   0  0  0  0  0  0
  -29.8448  -11.7252   17.5970 H   0  0  0  0  0  0
  -29.5995  -13.4520   17.6775 H   0  0  0  0  0  0
  -27.9542  -11.2745   18.9904 H   0  0  0  0  0  0
  -27.3886  -12.4374   17.8179 H   0  0  0  0  0  0
  -27.5819  -14.2465   19.3995 H   0  0  0  0  0  0
  -28.7743  -12.3327   21.4642 H   0  0  0  0  0  0
  -28.3638  -14.0093   21.7398 H   0  0  0  0  0  0
  -25.2744   -9.5687   22.4778 H   0  0  0  0  0  0
  -24.0002   -7.4623   22.7453 H   0  0  0  0  0  0
  -21.0848   -8.8748   19.8945 H   0  0  0  0  0  0
  -22.3681  -10.9663   19.6167 H   0  0  0  0  0  0
  -21.2015   -7.6138   23.9717 H   0  0  0  0  0  0
  -21.1485   -6.0507   25.9078 H   0  0  0  0  0  0
  -22.0610   -2.7608   23.2824 H   0  0  0  0  0  0
  -22.4053  -11.9856   22.4831 H   0  0  0  0  0  0
  -21.1034  -13.1205   22.2641 H   0  0  0  0  0  0
  -24.6351  -15.8420   20.5239 H   0  0  0  0  0  0
  -26.2367  -15.6353   20.0377 H   0  0  0  0  0  0
  -26.7283  -32.5292   23.0981 H   0  0  0  0  0  0
  -25.0118  -33.9596   25.0338 H   0  0  0  0  0  0
  -22.7527  -31.2871   21.3763 H   0  0  0  0  0  0
  -23.3761  -35.9571   23.3281 H   0  0  0  0  0  0
  -24.3573  -36.8901   22.2060 H   0  0  0  0  0  0
  -23.7247  -37.6439   23.6685 H   0  0  0  0  0  0
  -26.1681  -31.4503   20.6119 H   0  0  0  0  0  0
  -26.8795  -30.7550   22.0314 H   0  0  0  0  0  0
  -28.1185  -28.7462   21.2635 H   0  0  0  0  0  0
  -25.8809  -25.8558   18.9530 H   0  0  0  0  0  0
  -23.9855  -27.3145   18.9461 H   0  0  0  0  0  0
  -23.8176  -30.5640   19.3944 H   0  0  0  0  0  0
  -22.7929  -29.2348   19.8382 H   0  0  0  0  0  0
  -25.1318  -36.1840   25.0812 H   0  0  0  0  0  0
  -21.0023  -28.3305   24.1345 H   0  0  0  0  0  0
  -20.5681  -26.2324   23.3621 H   0  0  0  0  0  0
  -21.6661  -26.7414   22.1203 H   0  0  0  0  0  0
  -19.6915  -25.6287   21.1253 H   0  0  0  0  0  0
  -19.6706  -27.3181   20.6736 H   0  0  0  0  0  0
  -17.4221  -26.6686   21.4024 H   0  0  0  0  0  0
  -18.0337  -26.0067   22.9017 H   0  0  0  0  0  0
  -19.7950  -30.7302   24.2235 H   0  0  0  0  0  0
  -17.5017  -31.6264   24.5166 H   0  0  0  0  0  0
  -15.5360  -30.2978   23.7656 H   0  0  0  0  0  0
  -15.8693  -28.0806   22.7090 H   0  0  0  0  0  0
  -24.5954  -30.7013   25.7727 H   0  0  0  0  0  0
  -24.8855  -32.2889   26.4729 H   0  0  0  0  0  0
  -25.8026  -30.8991   27.0221 H   0  0  0  0  0  0
  -26.2997  -29.6666   24.1299 H   0  0  0  0  0  0
  -27.4011  -29.7249   25.4858 H   0  0  0  0  0  0
  -27.8917  -30.4175   23.9593 H   0  0  0  0  0  0
  -27.2680  -33.3659   26.1963 H   0  0  0  0  0  0
  -28.3935  -32.6787   25.0343 H   0  0  0  0  0  0
  -28.0665  -31.8488   26.5485 H   0  0  0  0  0  0
  -28.2585  -38.0092   24.7517 H   0  0  0  0  0  0
  -28.1080  -36.2620   24.6286 H   0  0  0  0  0  0
  -27.2285  -37.1424   25.8868 H   0  0  0  0  0  0
  -20.9465  -29.8756   21.6787 H   0  0  0  0  0  0
  -26.0140  -38.2806   24.1424 H   0  0  0  0  0  0
  -28.2040  -24.2059   22.3654 H   0  0  0  0  0  0
  -28.9185  -21.7760   18.8907 H   0  0  0  0  0  0
  -28.4594  -23.2844   24.4789 H   0  0  0  0  0  0
  -28.7735  -21.6009   24.7906 H   0  0  0  0  0  0
  -27.1244  -22.1479   24.4215 H   0  0  0  0  0  0
  -24.7494  -19.5291   22.3874 H   0  0  0  0  0  0
  -25.9887  -19.0600   21.2384 H   0  0  0  0  0  0
  -25.8935  -20.7217   21.8155 H   0  0  0  0  0  0
  -25.4190  -17.7287   24.0091 H   0  0  0  0  0  0
  -27.0686  -17.6178   24.6104 H   0  0  0  0  0  0
  -26.7023  -17.1601   22.9492 H   0  0  0  0  0  0
  -29.1161  -19.1340   19.0542 H   0  0  0  0  0  0
  -28.0044  -18.6106   20.2409 H   0  0  0  0  0  0
  -28.7896  -19.6101   23.9522 H   0  0  0  0  0  0
  -28.6251  -18.6392   22.5730 H   0  0  0  0  0  0
  -27.3176  -24.4487   19.1559 H   0  0  0  0  0  0
  -28.9934  -24.6594   18.8890 H   0  0  0  0  0  0
  -30.3625  -17.8994   21.6176 H   0  0  0  0  0  0
  -30.9853  -17.8951   20.0341 H   0  0  0  0  0  0
  -26.4458  -19.9785   24.1072 H   0  0  0  0  0  0
  -28.7492  -15.9742   20.5952 H   0  0  0  0  0  0
  1 25  1  0  0  0
  1 30  2  0  0  0
  1 85  1  0  0  0
  2  3  1  0  0  0
  2 25  1  0  0  0
  2 86  1  0  0  0
  2 87  1  0  0  0
  3  4  1  0  0  0
  3 88  1  0  0  0
  3 89  1  0  0  0
  4  5  1  0  0  0
  4 90  1  0  0  0
  4 91  1  0  0  0
  5  6  1  0  0  0
  5 26  1  0  0  0
  5 92  1  0  0  0
  6 25  1  0  0  0
  6 93  1  0  0  0
  6 94  1  0  0  0
  7  8  2  0  0  0
  7 26  1  0  0  0
  7 29  1  0  0  0
  8  9  1  0  0  0
  8 22  1  0  0  0
  9 10  1  0  0  0
  9 27  2  0  0  0
 10 11  2  0  0  0
 10 15  1  0  0  0
 11 12  1  0  0  0
 11 95  1  0  0  0
 12 13  2  0  0  0
 12 96  1  0  0  0
 13 14  1  0  0  0
 13 31  1  0  0  0
 14 15  2  0  0  0
 14 97  1  0  0  0
 15 98  1  0  0  0
 16 17  2  0  0  0
 16 21  1  0  0  0
 16 31  1  0  0  0
 17 18  1  0  0  0
 17 99  1  0  0  0
 18 19  2  0  0  0
 18100  1  0  0  0
 19 20  1  0  0  0
 19 24  1  0  0  0
 20 21  2  0  0  0
 20101  1  0  0  0
 21 23  1  0  0  0
 22 28  1  0  0  0
 22 32  2  0  0  0
 26 27  1  0  0  0
 28102  1  0  0  0
 28103  1  0  0  0
 29104  1  0  0  0
 29105  1  0  0  0
 33 34  1  0  0  0
 33 66  1  0  0  0
 33 70  2  0  0  0
 34 36  1  0  0  0
 34 59  1  0  0  0
 34106  1  0  0  0
 35 44  2  0  0  0
 35 45  1  0  0  0
 35 68  1  0  0  0
 36 56  1  0  0  0
 36107  1  0  0  0
 37 39  1  0  0  0
 37 47  1  0  0  0
 37 66  1  0  0  0
 37108  1  0  0  0
 38 43  2  0  0  0
 38 46  1  0  0  0
 38 47  1  0  0  0
 39 64  1  0  0  0
 39 67  2  0  0  0
 40 52  1  0  0  0
 40 53  2  0  0  0
 40 58  1  0  0  0
 41109  1  0  0  0
 41110  1  0  0  0
 41111  1  0  0  0
 41 48  1  0  0  0
 42 43  1  0  0  0
 42 66  1  0  0  0
 42112  1  0  0  0
 42113  1  0  0  0
 43 44  1  0  0  0
 44114  1  0  0  0
 45 46  2  0  0  0
 45115  1  0  0  0
 46116  1  0  0  0
 47117  1  0  0  0
 47118  1  0  0  0
 48 56  1  0  0  0
 48 65  1  0  0  0
 48119  1  0  0  0
 49 50  1  0  0  0
 49 53  1  0  0  0
 49 64  1  0  0  0
 49120  1  0  0  0
 50 51  1  0  0  0
 50121  1  0  0  0
 50122  1  0  0  0
 51 52  1  0  0  0
 51123  1  0  0  0
 51124  1  0  0  0
 52125  1  0  0  0
 52126  1  0  0  0
 53 54  1  0  0  0
 54 55  2  0  0  0
 54127  1  0  0  0
 55 57  1  0  0  0
 55128  1  0  0  0
 56 69  2  0  0  0
 57 58  2  0  0  0
 57129  1  0  0  0
 58130  1  0  0  0
 59 60  1  0  0  0
 59 61  1  0  0  0
 59 62  1  0  0  0
 60131  1  0  0  0
 60132  1  0  0  0
 60133  1  0  0  0
 61134  1  0  0  0
 61135  1  0  0  0
 61136  1  0  0  0
 62137  1  0  0  0
 62138  1  0  0  0
 62139  1  0  0  0
 63 65  1  0  0  0
 63140  1  0  0  0
 63141  1  0  0  0
 63142  1  0  0  0
 64143  1  0  0  0
 65144  1  0  0  0
 68 82  1  0  0  0
 71 73  2  0  0  0
 71 74  1  0  0  0
 71145  1  0  0  0
 72 73  1  0  0  0
 72 75  2  0  0  0
 72146  1  0  0  0
 73 82  1  0  0  0
 74 76  2  0  0  0
 74 77  1  0  0  0
 75 76  1  0  0  0
 75 80  1  0  0  0
 76 81  1  0  0  0
 77147  1  0  0  0
 77148  1  0  0  0
 77149  1  0  0  0
 78150  1  0  0  0
 78151  1  0  0  0
 78152  1  0  0  0
 78 84  1  0  0  0
 79 84  1  0  0  0
 79153  1  0  0  0
 79154  1  0  0  0
 79155  1  0  0  0
 80 83  1  0  0  0
 80156  1  0  0  0
 80157  1  0  0  0
 81 84  1  0  0  0
 81158  1  0  0  0
 81159  1  0  0  0
 82160  1  0  0  0
 82161  1  0  0  0
 83 85  1  0  0  0
 83162  1  0  0  0
 83163  1  0  0  0
 84164  1  0  0  0
 85165  1  0  0  0
M  ISO  4   1 100  68 101  82 101  85 100
M  END
> <chiral flag>
0

> <version>
0

> <s_m_source_file>
/data/baiqing/PycharmProjects/Reinvent-master-3.2/result/LINK_invent/BTK/process_docking_weight1_custom_sum_contain_oxygen_bond_distance_aromatic_linkinvent_7_9_3/rearranged_h_0100.sdf

> <i_m_source_file_index>
20

> <r_mmod_Potential_Energy-OPLS-2005>
600.227661132812

> <r_mmod_Stretch_Energy-OPLS-2005>
299.527557373047

> <r_mmod_Bend_Energy-OPLS-2005>
277.343078613281

> <r_mmod_Torsional_Energy-OPLS-2005>
231.252349853516

> <r_mmod_Improper_Torsional_Energy-OPLS-2005>
6.7618293762207

> <r_mmod_Van_der_Waal_Energy-OPLS-2005>
134.09977722168

> <r_mmod_Electrostatic_Energy-OPLS-2005>
-369.897521972656

> <r_mmod_Solvation_Energy-OPLS-2005>
-204.813629150391

> <b_mmod_Minimization_Converged-OPLS-2005>
0

> <r_mmod_RMS_Derivative-OPLS-2005>
2.18556380271912

$$$$
20
                    3D
 Structure written by MMmdl.
164171  0  0  1  0            999 V2000
  -30.4362  -15.2524   20.3550 C   0  0  0  0  0  0
  -30.4392  -12.7944   19.5332 C   0  0  0  0  0  0
  -29.5379  -12.5824   18.2909 C   0  0  0  0  0  0
  -28.0811  -12.3162   18.7102 C   0  0  0  0  0  0
  -27.6126  -13.2791   19.8308 C   0  0  2  0  0  0
  -28.6482  -13.4375   20.9649 C   0  0  0  0  0  0
  -25.2391  -13.8269   20.5798 C   0  0  0  0  0  0
  -24.1741  -13.0437   20.9268 C   0  0  0  0  0  0
  -24.6398  -11.6937   20.8760 C   0  0  0  0  0  0
  -23.9088  -10.4297   21.0399 C   0  0  0  0  0  0
  -24.3627   -9.4213   21.9176 C   0  0  0  0  0  0
  -23.6302   -8.2242   22.0760 C   0  0  0  0  0  0
  -22.4285   -8.0279   21.3547 C   0  0  0  0  0  0
  -21.9922   -9.0254   20.4641 C   0  0  0  0  0  0
  -22.7256  -10.2131   20.3053 C   0  0  0  0  0  0
  -21.6854   -6.0731   22.5276 C   0  0  0  0  0  0
  -21.4010   -6.5633   23.8211 C   0  0  0  0  0  0
  -21.3662   -5.6794   24.9172 C   0  0  0  0  0  0
  -21.6043   -4.3052   24.7221 C   0  0  0  0  0  0
  -21.8817   -3.8143   23.4339 C   0  0  0  0  0  0
  -21.9197   -4.6958   22.3397 C   0  0  0  0  0  0
  -22.7755  -13.5170   21.1902 C   0  0  0  0  0  0
  -22.1665   -4.2146   21.0965 F   0  0  0  0  0  0
  -21.5635   -3.4533   25.7724 F   0  0  0  0  0  0
  -29.8838  -13.9414   20.3424 N   0  0  0  0  0  0
  -26.2820  -12.9546   20.3258 N   0  0  0  0  0  0
  -25.9340  -11.6636   20.5734 N   0  0  0  0  0  0
  -22.0413  -12.8160   22.0456 N   0  0  0  0  0  0
  -25.4007  -15.2011   20.4283 N   0  0  0  0  0  0
  -31.6496  -15.2644   20.1067 O   0  0  0  0  0  0
  -21.6639   -6.8878   21.4240 O   0  0  0  0  0  0
  -22.3427  -14.5463   20.6739 O   0  0  0  0  0  0
  -24.6624  -31.8243   23.1703 C   0  0  0  0  0  0
  -25.9311  -32.4594   23.8162 C   0  0  1  0  0  0
  -27.2169  -26.9304   20.1726 C   0  0  0  0  0  0
  -25.5988  -33.8406   24.2076 N   0  0  0  0  0  0
  -23.4756  -30.4354   21.5197 C   0  0  2  0  0  0
  -24.9299  -28.8232   20.1060 C   0  0  0  0  0  0
  -22.7653  -29.4447   22.4789 C   0  0  0  0  0  0
  -18.0318  -28.1395   22.8473 C   0  0  0  0  0  0
  -24.1498  -36.7193   23.2644 C   0  0  0  0  0  0
  -26.0442  -30.6267   21.4045 C   0  0  0  0  0  0
  -26.1107  -29.2179   20.7459 C   0  0  0  0  0  0
  -27.2439  -28.2895   20.7609 C   0  0  0  0  0  0
  -26.0143  -26.6947   19.4680 C   0  0  0  0  0  0
  -24.9073  -27.5836   19.4466 C   0  0  0  0  0  0
  -23.7144  -29.7498   20.1447 C   0  0  0  0  0  0
  -25.4143  -36.2975   24.0303 C   0  0  1  0  0  0
  -20.5936  -28.3748   23.1195 C   0  0  2  0  0  0
  -20.6790  -26.9435   22.5405 C   0  0  0  0  0  0
  -19.5770  -26.6382   21.5211 C   0  0  0  0  0  0
  -18.1954  -26.7932   22.1613 C   0  0  0  0  0  0
  -19.1576  -28.8894   23.2820 C   0  0  0  0  0  0
  -18.9486  -30.1480   23.8860 C   0  0  0  0  0  0
  -17.6480  -30.6596   24.0549 C   0  0  0  0  0  0
  -25.9108  -34.9361   23.5019 C   0  0  0  0  0  0
  -16.5375  -29.9081   23.6343 C   0  0  0  0  0  0
  -16.7300  -28.6489   23.0383 C   0  0  0  0  0  0
  -26.4567  -31.6535   25.0688 C   0  0  0  0  0  0
  -25.3681  -31.3788   26.1334 C   0  0  0  0  0  0
  -27.0447  -30.2895   24.6424 C   0  0  0  0  0  0
  -27.6072  -32.4336   25.7481 C   0  0  0  0  0  0
  -27.5581  -37.1763   24.8467 C   0  0  0  0  0  0
  -21.4320  -29.3039   22.3540 N   0  0  0  0  0  0
  -26.4291  -37.3711   23.9413 N   0  0  0  0  0  0
  -24.7482  -30.9906   22.0837 N   0  0  0  0  0  0
  -23.4223  -28.8005   23.3009 O   0  0  0  0  0  0
  -28.2159  -25.8292   20.3075 O   0  0  0  0  0  0
  -26.5711  -34.8898   22.4607 O   0  0  0  0  0  0
  -23.5712  -32.1216   23.6803 O   0  0  0  0  0  0
  -24.9315  -19.3578   20.9926 C   0  0  0  0  0  0
  -26.6590  -20.0558   22.6630 C   0  0  0  0  0  0
  -27.0461  -19.0397   18.8605 C   0  0  0  0  0  0
  -28.8490  -24.3053   18.4895 C   0  0  0  0  0  0
  -29.8789  -18.1475   20.1254 C   0  0  0  0  0  0
  -28.6548  -22.6734   20.6165 C   0  0  0  0  0  0
  -26.3447  -19.9562   21.1571 C   0  0  0  0  0  0
  -27.4141  -19.1508   20.3592 C   0  0  2  0  0  0
  -28.8956  -19.6131   20.5245 C   0  0  2  0  0  0
  -28.1612  -24.2369   19.8550 C   0  0  1  0  0  0
  -29.6630  -16.5157   20.4446 N   0  0  0  0  0  0
  -29.0343  -21.1816   19.9487 N   0  3  0  0  0  0
  -31.4635  -12.9892   19.2090 H   0  0  0  0  0  0
  -30.4913  -11.8857   20.1341 H   0  0  0  0  0  0
  -29.9142  -11.7567   17.6837 H   0  0  0  0  0  0
  -29.5777  -13.4718   17.6602 H   0  0  0  0  0  0
  -28.0248  -11.2867   19.0651 H   0  0  0  0  0  0
  -27.4186  -12.3812   17.8462 H   0  0  0  0  0  0
  -27.5308  -14.2527   19.3462 H   0  0  0  0  0  0
  -28.8096  -12.4950   21.4910 H   0  0  0  0  0  0
  -28.2956  -14.1503   21.7110 H   0  0  0  0  0  0
  -25.2770   -9.5685   22.4737 H   0  0  0  0  0  0
  -24.0020   -7.4620   22.7468 H   0  0  0  0  0  0
  -21.0865   -8.8759   19.8924 H   0  0  0  0  0  0
  -22.3722  -10.9660   19.6151 H   0  0  0  0  0  0
  -21.2008   -7.6146   23.9702 H   0  0  0  0  0  0
  -21.1489   -6.0526   25.9072 H   0  0  0  0  0  0
  -22.0604   -2.7603   23.2835 H   0  0  0  0  0  0
  -22.4073  -11.9845   22.4861 H   0  0  0  0  0  0
  -21.1003  -13.1133   22.2608 H   0  0  0  0  0  0
  -24.6307  -15.8464   20.5600 H   0  0  0  0  0  0
  -26.2377  -15.6484   20.0799 H   0  0  0  0  0  0
  -26.7360  -32.5122   23.0863 H   0  0  0  0  0  0
  -25.0100  -33.9473   25.0208 H   0  0  0  0  0  0
  -22.7889  -31.2669   21.3490 H   0  0  0  0  0  0
  -23.3798  -35.9483   23.3274 H   0  0  0  0  0  0
  -24.3568  -36.8869   22.2062 H   0  0  0  0  0  0
  -23.7215  -37.6355   23.6713 H   0  0  0  0  0  0
  -26.2313  -31.3698   20.6283 H   0  0  0  0  0  0
  -26.9035  -30.6773   22.0611 H   0  0  0  0  0  0
  -28.1317  -28.5822   21.3037 H   0  0  0  0  0  0
  -25.8831  -25.7558   18.9525 H   0  0  0  0  0  0
  -24.0128  -27.2817   18.9207 H   0  0  0  0  0  0
  -23.8665  -30.5184   19.3866 H   0  0  0  0  0  0
  -22.8237  -29.2037   19.8273 H   0  0  0  0  0  0
  -25.1348  -36.1776   25.0794 H   0  0  0  0  0  0
  -21.0022  -28.3358   24.1322 H   0  0  0  0  0  0
  -20.5653  -26.2373   23.3644 H   0  0  0  0  0  0
  -21.6657  -26.7404   22.1222 H   0  0  0  0  0  0
  -19.6931  -25.6281   21.1260 H   0  0  0  0  0  0
  -19.6711  -27.3172   20.6724 H   0  0  0  0  0  0
  -17.4219  -26.6690   21.4015 H   0  0  0  0  0  0
  -18.0347  -26.0086   22.9018 H   0  0  0  0  0  0
  -19.7963  -30.7292   24.2238 H   0  0  0  0  0  0
  -17.5037  -31.6277   24.5142 H   0  0  0  0  0  0
  -15.5370  -30.2970   23.7686 H   0  0  0  0  0  0
  -15.8700  -28.0777   22.7158 H   0  0  0  0  0  0
  -24.5870  -30.7147   25.7617 H   0  0  0  0  0  0
  -24.8863  -32.2987   26.4646 H   0  0  0  0  0  0
  -25.7894  -30.9002   27.0180 H   0  0  0  0  0  0
  -26.3090  -29.6580   24.1425 H   0  0  0  0  0  0
  -27.3957  -29.7263   25.5081 H   0  0  0  0  0  0
  -27.9060  -30.4069   23.9846 H   0  0  0  0  0  0
  -27.2663  -33.3694   26.1920 H   0  0  0  0  0  0
  -28.3948  -32.6796   25.0346 H   0  0  0  0  0  0
  -28.0661  -31.8538   26.5501 H   0  0  0  0  0  0
  -28.2584  -38.0074   24.7534 H   0  0  0  0  0  0
  -28.1099  -36.2607   24.6290 H   0  0  0  0  0  0
  -27.2289  -37.1395   25.8863 H   0  0  0  0  0  0
  -20.9578  -29.8746   21.6679 H   0  0  0  0  0  0
  -26.0152  -38.2770   24.1423 H   0  0  0  0  0  0
  -24.2039  -19.8797   21.6137 H   0  0  0  0  0  0
  -24.9029  -18.3048   21.2778 H   0  0  0  0  0  0
  -24.5681  -19.4336   19.9663 H   0  0  0  0  0  0
  -25.8607  -20.5751   23.1927 H   0  0  0  0  0  0
  -27.5699  -20.6172   22.8644 H   0  0  0  0  0  0
  -26.7651  -19.0695   23.1174 H   0  0  0  0  0  0
  -26.1567  -18.4267   18.7098 H   0  0  0  0  0  0
  -27.8322  -18.5651   18.2736 H   0  0  0  0  0  0
  -26.8471  -20.0148   18.4149 H   0  0  0  0  0  0
  -28.7059  -23.3871   17.9219 H   0  0  0  0  0  0
  -29.9191  -24.4725   18.6040 H   0  0  0  0  0  0
  -28.4493  -25.1223   17.8894 H   0  0  0  0  0  0
  -30.8820  -18.3623   20.4947 H   0  0  0  0  0  0
  -30.0039  -18.1707   19.0433 H   0  0  0  0  0  0
  -27.9044  -22.4806   21.3810 H   0  0  0  0  0  0
  -29.5438  -22.9164   21.1978 H   0  0  0  0  0  0
  -26.3016  -20.9703   20.7574 H   0  0  0  0  0  0
  -27.3744  -18.1362   20.7600 H   0  0  0  0  0  0
  -29.0978  -19.7257   21.5869 H   0  0  0  0  0  0
  -27.1049  -24.0691   19.6463 H   0  0  0  0  0  0
  -28.6998  -16.3131   20.6706 H   0  0  0  0  0  0
  -30.0108  -21.2709   19.7176 H   0  0  0  0  0  0
  -28.5670  -21.1574   19.0564 H   0  0  0  0  0  0
  1 25  1  0  0  0
  1 30  2  0  0  0
  1 81  1  0  0  0
  2  3  1  0  0  0
  2 25  1  0  0  0
  2 83  1  0  0  0
  2 84  1  0  0  0
  3  4  1  0  0  0
  3 85  1  0  0  0
  3 86  1  0  0  0
  4  5  1  0  0  0
  4 87  1  0  0  0
  4 88  1  0  0  0
  5  6  1  0  0  0
  5 26  1  0  0  0
  5 89  1  0  0  0
  6 25  1  0  0  0
  6 90  1  0  0  0
  6 91  1  0  0  0
  7  8  2  0  0  0
  7 26  1  0  0  0
  7 29  1  0  0  0
  8  9  1  0  0  0
  8 22  1  0  0  0
  9 10  1  0  0  0
  9 27  2  0  0  0
 10 11  2  0  0  0
 10 15  1  0  0  0
 11 12  1  0  0  0
 11 92  1  0  0  0
 12 13  2  0  0  0
 12 93  1  0  0  0
 13 14  1  0  0  0
 13 31  1  0  0  0
 14 15  2  0  0  0
 14 94  1  0  0  0
 15 95  1  0  0  0
 16 17  2  0  0  0
 16 21  1  0  0  0
 16 31  1  0  0  0
 17 18  1  0  0  0
 17 96  1  0  0  0
 18 19  2  0  0  0
 18 97  1  0  0  0
 19 20  1  0  0  0
 19 24  1  0  0  0
 20 21  2  0  0  0
 20 98  1  0  0  0
 21 23  1  0  0  0
 22 28  1  0  0  0
 22 32  2  0  0  0
 26 27  1  0  0  0
 28 99  1  0  0  0
 28100  1  0  0  0
 29101  1  0  0  0
 29102  1  0  0  0
 33 34  1  0  0  0
 33 66  1  0  0  0
 33 70  2  0  0  0
 34 36  1  0  0  0
 34 59  1  0  0  0
 34103  1  0  0  0
 35 44  2  0  0  0
 35 45  1  0  0  0
 35 68  1  0  0  0
 36 56  1  0  0  0
 36104  1  0  0  0
 37 39  1  0  0  0
 37 47  1  0  0  0
 37 66  1  0  0  0
 37105  1  0  0  0
 38 43  2  0  0  0
 38 46  1  0  0  0
 38 47  1  0  0  0
 39 64  1  0  0  0
 39 67  2  0  0  0
 40 52  1  0  0  0
 40 53  2  0  0  0
 40 58  1  0  0  0
 41106  1  0  0  0
 41107  1  0  0  0
 41108  1  0  0  0
 41 48  1  0  0  0
 42 43  1  0  0  0
 42 66  1  0  0  0
 42109  1  0  0  0
 42110  1  0  0  0
 43 44  1  0  0  0
 44111  1  0  0  0
 45 46  2  0  0  0
 45112  1  0  0  0
 46113  1  0  0  0
 47114  1  0  0  0
 47115  1  0  0  0
 48 56  1  0  0  0
 48 65  1  0  0  0
 48116  1  0  0  0
 49 50  1  0  0  0
 49 53  1  0  0  0
 49 64  1  0  0  0
 49117  1  0  0  0
 50 51  1  0  0  0
 50118  1  0  0  0
 50119  1  0  0  0
 51 52  1  0  0  0
 51120  1  0  0  0
 51121  1  0  0  0
 52122  1  0  0  0
 52123  1  0  0  0
 53 54  1  0  0  0
 54 55  2  0  0  0
 54124  1  0  0  0
 55 57  1  0  0  0
 55125  1  0  0  0
 56 69  2  0  0  0
 57 58  2  0  0  0
 57126  1  0  0  0
 58127  1  0  0  0
 59 60  1  0  0  0
 59 61  1  0  0  0
 59 62  1  0  0  0
 60128  1  0  0  0
 60129  1  0  0  0
 60130  1  0  0  0
 61131  1  0  0  0
 61132  1  0  0  0
 61133  1  0  0  0
 62134  1  0  0  0
 62135  1  0  0  0
 62136  1  0  0  0
 63 65  1  0  0  0
 63137  1  0  0  0
 63138  1  0  0  0
 63139  1  0  0  0
 64140  1  0  0  0
 65141  1  0  0  0
 68 80  1  0  0  0
 71142  1  0  0  0
 71143  1  0  0  0
 71144  1  0  0  0
 71 77  1  0  0  0
 72 77  1  0  0  0
 72145  1  0  0  0
 72146  1  0  0  0
 72147  1  0  0  0
 73148  1  0  0  0
 73149  1  0  0  0
 73150  1  0  0  0
 73 78  1  0  0  0
 74151  1  0  0  0
 74152  1  0  0  0
 74153  1  0  0  0
 74 80  1  0  0  0
 75 81  1  0  0  0
 75154  1  0  0  0
 75155  1  0  0  0
 75 79  1  0  0  0
 76 80  1  0  0  0
 76 82  1  0  0  0
 76156  1  0  0  0
 76157  1  0  0  0
 77 78  1  0  0  0
 77158  1  0  0  0
 78 79  1  0  0  0
 78159  1  0  0  0
 79 82  1  0  0  0
 79160  1  0  0  0
 80161  1  0  0  0
 81162  1  0  0  0
 82163  1  0  0  0
 82164  1  0  0  0
M  CHG  1  82   1
M  ISO  4   1 100  68 101  80 101  81 100
M  END
> <chiral flag>
0

> <version>
0

> <s_m_source_file>
/data/baiqing/PycharmProjects/Reinvent-master-3.2/result/LINK_invent/BTK/process_docking_weight1_custom_sum_contain_oxygen_bond_distance_aromatic_linkinvent_7_9_3/rearranged_h_0100.sdf

> <i_m_source_file_index>
21

> <r_mmod_Potential_Energy-OPLS-2005>
1143.13256835938

> <r_mmod_Stretch_Energy-OPLS-2005>
618.391784667969

> <r_mmod_Bend_Energy-OPLS-2005>
457.544403076172

> <r_mmod_Torsional_Energy-OPLS-2005>
260.133514404297

> <r_mmod_Improper_Torsional_Energy-OPLS-2005>
4.24309062957764

> <r_mmod_Van_der_Waal_Energy-OPLS-2005>
105.219230651855

> <r_mmod_Electrostatic_Energy-OPLS-2005>
-298.212493896484

> <r_mmod_Solvation_Energy-OPLS-2005>
-455.325775146484

> <b_mmod_Minimization_Converged-OPLS-2005>
0

> <r_mmod_RMS_Derivative-OPLS-2005>
2.33547282218933

$$$$
21
                    3D
 Structure written by MMmdl.
166174  0  0  1  0            999 V2000
  -30.6285  -14.7315   20.4744 C   0  0  0  0  0  0
  -30.4340  -12.4512   19.4703 C   0  0  0  0  0  0
  -29.5111  -12.4991   18.2348 C   0  0  0  0  0  0
  -28.0388  -12.3148   18.6504 C   0  0  0  0  0  0
  -27.6412  -13.2258   19.8415 C   0  0  2  0  0  0
  -28.6860  -13.1710   20.9767 C   0  0  0  0  0  0
  -25.2519  -13.8181   20.5638 C   0  0  0  0  0  0
  -24.1812  -13.0431   20.9177 C   0  0  0  0  0  0
  -24.6396  -11.6907   20.8724 C   0  0  0  0  0  0
  -23.9065  -10.4292   21.0384 C   0  0  0  0  0  0
  -24.3612   -9.4217   21.9172 C   0  0  0  0  0  0
  -23.6292   -8.2241   22.0755 C   0  0  0  0  0  0
  -22.4277   -8.0272   21.3534 C   0  0  0  0  0  0
  -21.9915   -9.0249   20.4644 C   0  0  0  0  0  0
  -22.7231  -10.2137   20.3039 C   0  0  0  0  0  0
  -21.6855   -6.0736   22.5281 C   0  0  0  0  0  0
  -21.4020   -6.5642   23.8215 C   0  0  0  0  0  0
  -21.3658   -5.6789   24.9173 C   0  0  0  0  0  0
  -21.6043   -4.3052   24.7217 C   0  0  0  0  0  0
  -21.8822   -3.8144   23.4338 C   0  0  0  0  0  0
  -21.9195   -4.6965   22.3398 C   0  0  0  0  0  0
  -22.7833  -13.5220   21.1828 C   0  0  0  0  0  0
  -22.1652   -4.2149   21.0975 F   0  0  0  0  0  0
  -21.5630   -3.4537   25.7735 F   0  0  0  0  0  0
  -29.9862  -13.5177   20.3928 N   0  0  0  0  0  0
  -26.2935  -12.9372   20.3224 N   0  0  0  0  0  0
  -25.9324  -11.6524   20.5727 N   0  0  0  0  0  0
  -22.0478  -12.8246   22.0413 N   0  0  0  0  0  0
  -25.4214  -15.1904   20.4031 N   0  0  0  0  0  0
  -31.8229  -14.8113   20.1753 O   0  0  0  0  0  0
  -21.6628   -6.8875   21.4240 O   0  0  0  0  0  0
  -22.3514  -14.5507   20.6646 O   0  0  0  0  0  0
  -24.6307  -31.8557   23.1977 C   0  0  0  0  0  0
  -25.9123  -32.4775   23.8337 C   0  0  1  0  0  0
  -27.2282  -27.2707   20.1426 C   0  0  0  0  0  0
  -25.5914  -33.8572   24.2265 N   0  0  0  0  0  0
  -23.4302  -30.4767   21.5394 C   0  0  2  0  0  0
  -24.8810  -28.9206   20.1131 C   0  0  0  0  0  0
  -22.7512  -29.4609   22.4897 C   0  0  0  0  0  0
  -18.0287  -28.1413   22.8492 C   0  0  0  0  0  0
  -24.1472  -36.7285   23.2641 C   0  0  0  0  0  0
  -25.9751  -30.7735   21.3745 C   0  0  0  0  0  0
  -26.0513  -29.3939   20.7205 C   0  0  0  0  0  0
  -27.2304  -28.5835   20.7221 C   0  0  0  0  0  0
  -26.0397  -26.8623   19.5019 C   0  0  0  0  0  0
  -24.8793  -27.6612   19.4904 C   0  0  0  0  0  0
  -23.6517  -29.8074   20.1558 C   0  0  0  0  0  0
  -25.4102  -36.3085   24.0338 C   0  0  1  0  0  0
  -20.5900  -28.3720   23.1265 C   0  0  2  0  0  0
  -20.6779  -26.9433   22.5409 C   0  0  0  0  0  0
  -19.5751  -26.6398   21.5217 C   0  0  0  0  0  0
  -18.1932  -26.7956   22.1623 C   0  0  0  0  0  0
  -19.1552  -28.8878   23.2876 C   0  0  0  0  0  0
  -18.9474  -30.1476   23.8912 C   0  0  0  0  0  0
  -17.6480  -30.6608   24.0570 C   0  0  0  0  0  0
  -25.9047  -34.9458   23.5107 C   0  0  0  0  0  0
  -16.5363  -29.9119   23.6332 C   0  0  0  0  0  0
  -16.7280  -28.6526   23.0367 C   0  0  0  0  0  0
  -26.4489  -31.6615   25.0731 C   0  0  0  0  0  0
  -25.3723  -31.3782   26.1467 C   0  0  0  0  0  0
  -27.0332  -30.3042   24.6206 C   0  0  0  0  0  0
  -27.6045  -32.4365   25.7491 C   0  0  0  0  0  0
  -27.5582  -37.1783   24.8465 C   0  0  0  0  0  0
  -21.4223  -29.3060   22.3645 N   0  0  0  0  0  0
  -26.4274  -37.3796   23.9436 N   0  0  0  0  0  0
  -24.6982  -31.0533   22.0942 N   0  0  0  0  0  0
  -23.4215  -28.8148   23.2992 O   0  0  0  0  0  0
  -28.3209  -26.3764   20.1665 O   0  0  0  0  0  0
  -26.5620  -34.8933   22.4676 O   0  0  0  0  0  0
  -23.5451  -32.1362   23.7268 O   0  0  0  0  0  0
  -29.5983  -19.8428   21.1844 C   0  0  0  0  0  0
  -29.7121  -18.6410   20.4852 C   0  0  0  0  0  0
  -29.1908  -18.9694   19.1881 C   0  0  0  0  0  0
  -28.7489  -20.2912   19.1907 C   0  0  0  0  0  0
  -28.0718  -21.0849   18.1139 C   0  0  0  0  0  0
  -29.8783  -18.5414   16.7779 C   0  0  0  0  0  0
  -27.7522  -17.4807   17.7279 C   0  0  0  0  0  0
  -28.4305  -25.1924   22.2497 C   0  0  0  0  0  0
  -30.3948  -17.2860   20.9897 C   0  0  0  0  0  0
  -28.8557  -23.6808   20.1757 C   0  0  0  0  0  0
  -28.6060  -22.2703   20.9436 C   0  0  0  0  0  0
  -29.1678  -17.9925   18.0259 C   0  0  0  0  0  0
  -28.1129  -25.0089   20.7558 C   0  0  2  0  0  0
  -29.0170  -20.8846   20.4244 N   0  0  0  0  0  0
  -29.8843  -15.8741   20.7194 N   0  0  0  0  0  0
  -31.4731  -12.5802   19.1626 H   0  0  0  0  0  0
  -30.3868  -11.4774   19.9607 H   0  0  0  0  0  0
  -29.8012  -11.7270   17.5204 H   0  0  0  0  0  0
  -29.6337  -13.4544   17.7230 H   0  0  0  0  0  0
  -27.9067  -11.2681   18.9299 H   0  0  0  0  0  0
  -27.3782  -12.4872   17.7994 H   0  0  0  0  0  0
  -27.6337  -14.2429   19.4478 H   0  0  0  0  0  0
  -28.7219  -12.1788   21.4287 H   0  0  0  0  0  0
  -28.4197  -13.8627   21.7764 H   0  0  0  0  0  0
  -25.2768   -9.5680   22.4736 H   0  0  0  0  0  0
  -24.0008   -7.4629   22.7470 H   0  0  0  0  0  0
  -21.0835   -8.8756   19.8969 H   0  0  0  0  0  0
  -22.3666  -10.9667   19.6144 H   0  0  0  0  0  0
  -21.2012   -7.6152   23.9719 H   0  0  0  0  0  0
  -21.1476   -6.0514   25.9076 H   0  0  0  0  0  0
  -22.0607   -2.7608   23.2831 H   0  0  0  0  0  0
  -22.4078  -11.9919   22.4848 H   0  0  0  0  0  0
  -21.1096  -13.1296   22.2590 H   0  0  0  0  0  0
  -24.6546  -15.8446   20.5107 H   0  0  0  0  0  0
  -26.2661  -15.6316   20.0648 H   0  0  0  0  0  0
  -26.7201  -32.5436   23.1094 H   0  0  0  0  0  0
  -25.0074  -33.9711   25.0420 H   0  0  0  0  0  0
  -22.7279  -31.2987   21.3897 H   0  0  0  0  0  0
  -23.3758  -35.9590   23.3279 H   0  0  0  0  0  0
  -24.3571  -36.8926   22.2060 H   0  0  0  0  0  0
  -23.7181  -37.6461   23.6678 H   0  0  0  0  0  0
  -26.1083  -31.5310   20.6011 H   0  0  0  0  0  0
  -26.8543  -30.8285   22.0053 H   0  0  0  0  0  0
  -28.1279  -28.9413   21.2074 H   0  0  0  0  0  0
  -25.9987  -25.8959   19.0192 H   0  0  0  0  0  0
  -23.9857  -27.2933   19.0068 H   0  0  0  0  0  0
  -23.7826  -30.5829   19.3999 H   0  0  0  0  0  0
  -22.7708  -29.2420   19.8454 H   0  0  0  0  0  0
  -25.1275  -36.1934   25.0833 H   0  0  0  0  0  0
  -21.0001  -28.3295   24.1385 H   0  0  0  0  0  0
  -20.5677  -26.2334   23.3620 H   0  0  0  0  0  0
  -21.6648  -26.7458   22.1200 H   0  0  0  0  0  0
  -19.6910  -25.6306   21.1249 H   0  0  0  0  0  0
  -19.6688  -27.3203   20.6747 H   0  0  0  0  0  0
  -17.4205  -26.6711   21.4023 H   0  0  0  0  0  0
  -18.0321  -26.0104   22.9025 H   0  0  0  0  0  0
  -19.7960  -30.7275   24.2301 H   0  0  0  0  0  0
  -17.5045  -31.6289   24.5174 H   0  0  0  0  0  0
  -15.5372  -30.3036   23.7655 H   0  0  0  0  0  0
  -15.8671  -28.0849   22.7098 H   0  0  0  0  0  0
  -24.5870  -30.7158   25.7815 H   0  0  0  0  0  0
  -24.8943  -32.2957   26.4909 H   0  0  0  0  0  0
  -25.8038  -30.8952   27.0242 H   0  0  0  0  0  0
  -26.2916  -29.6801   24.1209 H   0  0  0  0  0  0
  -27.4006  -29.7301   25.4719 H   0  0  0  0  0  0
  -27.8796  -30.4342   23.9460 H   0  0  0  0  0  0
  -27.2659  -33.3671   26.2062 H   0  0  0  0  0  0
  -28.3845  -32.6921   25.0310 H   0  0  0  0  0  0
  -28.0730  -31.8504   26.5405 H   0  0  0  0  0  0
  -28.2583  -38.0101   24.7564 H   0  0  0  0  0  0
  -28.1090  -36.2637   24.6216 H   0  0  0  0  0  0
  -27.2317  -37.1351   25.8870 H   0  0  0  0  0  0
  -20.9417  -29.8800   21.6860 H   0  0  0  0  0  0
  -26.0152  -38.2861   24.1485 H   0  0  0  0  0  0
  -29.8878  -20.0541   22.2057 H   0  0  0  0  0  0
  -27.5942  -20.4453   17.3762 H   0  0  0  0  0  0
  -28.7888  -21.7166   17.5897 H   0  0  0  0  0  0
  -27.2873  -21.7235   18.5212 H   0  0  0  0  0  0
  -30.8896  -18.8693   17.0214 H   0  0  0  0  0  0
  -29.3577  -19.3874   16.3342 H   0  0  0  0  0  0
  -29.9619  -17.7725   16.0089 H   0  0  0  0  0  0
  -27.3096  -17.0242   18.6127 H   0  0  0  0  0  0
  -27.7696  -16.7225   16.9447 H   0  0  0  0  0  0
  -27.0859  -18.2760   17.3981 H   0  0  0  0  0  0
  -28.1149  -24.3317   22.8392 H   0  0  0  0  0  0
  -27.9131  -26.0585   22.6614 H   0  0  0  0  0  0
  -29.4982  -25.3369   22.4125 H   0  0  0  0  0  0
  -30.4678  -17.3651   22.0747 H   0  0  0  0  0  0
  -31.4272  -17.3356   20.6411 H   0  0  0  0  0  0
  -28.5657  -23.5810   19.1324 H   0  0  0  0  0  0
  -29.9307  -23.8588   20.1557 H   0  0  0  0  0  0
  -27.5373  -22.2025   21.1440 H   0  0  0  0  0  0
  -29.0636  -22.3693   21.9282 H   0  0  0  0  0  0
  -29.7500  -17.1252   18.3332 H   0  0  0  0  0  0
  -27.0499  -24.7745   20.7025 H   0  0  0  0  0  0
  -28.8981  -15.7286   20.8730 H   0  0  0  0  0  0
  1 25  1  0  0  0
  1 30  2  0  0  0
  1 85  1  0  0  0
  2  3  1  0  0  0
  2 25  1  0  0  0
  2 86  1  0  0  0
  2 87  1  0  0  0
  3  4  1  0  0  0
  3 88  1  0  0  0
  3 89  1  0  0  0
  4  5  1  0  0  0
  4 90  1  0  0  0
  4 91  1  0  0  0
  5  6  1  0  0  0
  5 26  1  0  0  0
  5 92  1  0  0  0
  6 25  1  0  0  0
  6 93  1  0  0  0
  6 94  1  0  0  0
  7  8  2  0  0  0
  7 26  1  0  0  0
  7 29  1  0  0  0
  8  9  1  0  0  0
  8 22  1  0  0  0
  9 10  1  0  0  0
  9 27  2  0  0  0
 10 11  2  0  0  0
 10 15  1  0  0  0
 11 12  1  0  0  0
 11 95  1  0  0  0
 12 13  2  0  0  0
 12 96  1  0  0  0
 13 14  1  0  0  0
 13 31  1  0  0  0
 14 15  2  0  0  0
 14 97  1  0  0  0
 15 98  1  0  0  0
 16 17  2  0  0  0
 16 21  1  0  0  0
 16 31  1  0  0  0
 17 18  1  0  0  0
 17 99  1  0  0  0
 18 19  2  0  0  0
 18100  1  0  0  0
 19 20  1  0  0  0
 19 24  1  0  0  0
 20 21  2  0  0  0
 20101  1  0  0  0
 21 23  1  0  0  0
 22 28  1  0  0  0
 22 32  2  0  0  0
 26 27  1  0  0  0
 28102  1  0  0  0
 28103  1  0  0  0
 29104  1  0  0  0
 29105  1  0  0  0
 33 34  1  0  0  0
 33 66  1  0  0  0
 33 70  2  0  0  0
 34 36  1  0  0  0
 34 59  1  0  0  0
 34106  1  0  0  0
 35 44  2  0  0  0
 35 45  1  0  0  0
 35 68  1  0  0  0
 36 56  1  0  0  0
 36107  1  0  0  0
 37 39  1  0  0  0
 37 47  1  0  0  0
 37 66  1  0  0  0
 37108  1  0  0  0
 38 43  2  0  0  0
 38 46  1  0  0  0
 38 47  1  0  0  0
 39 64  1  0  0  0
 39 67  2  0  0  0
 40 52  1  0  0  0
 40 53  2  0  0  0
 40 58  1  0  0  0
 41109  1  0  0  0
 41110  1  0  0  0
 41111  1  0  0  0
 41 48  1  0  0  0
 42 43  1  0  0  0
 42 66  1  0  0  0
 42112  1  0  0  0
 42113  1  0  0  0
 43 44  1  0  0  0
 44114  1  0  0  0
 45 46  2  0  0  0
 45115  1  0  0  0
 46116  1  0  0  0
 47117  1  0  0  0
 47118  1  0  0  0
 48 56  1  0  0  0
 48 65  1  0  0  0
 48119  1  0  0  0
 49 50  1  0  0  0
 49 53  1  0  0  0
 49 64  1  0  0  0
 49120  1  0  0  0
 50 51  1  0  0  0
 50121  1  0  0  0
 50122  1  0  0  0
 51 52  1  0  0  0
 51123  1  0  0  0
 51124  1  0  0  0
 52125  1  0  0  0
 52126  1  0  0  0
 53 54  1  0  0  0
 54 55  2  0  0  0
 54127  1  0  0  0
 55 57  1  0  0  0
 55128  1  0  0  0
 56 69  2  0  0  0
 57 58  2  0  0  0
 57129  1  0  0  0
 58130  1  0  0  0
 59 60  1  0  0  0
 59 61  1  0  0  0
 59 62  1  0  0  0
 60131  1  0  0  0
 60132  1  0  0  0
 60133  1  0  0  0
 61134  1  0  0  0
 61135  1  0  0  0
 61136  1  0  0  0
 62137  1  0  0  0
 62138  1  0  0  0
 62139  1  0  0  0
 63 65  1  0  0  0
 63140  1  0  0  0
 63141  1  0  0  0
 63142  1  0  0  0
 64143  1  0  0  0
 65144  1  0  0  0
 68 83  1  0  0  0
 71 72  2  0  0  0
 71 84  1  0  0  0
 71145  1  0  0  0
 72 73  1  0  0  0
 72 79  1  0  0  0
 73 74  2  0  0  0
 73 82  1  0  0  0
 74 75  1  0  0  0
 74 84  1  0  0  0
 75146  1  0  0  0
 75147  1  0  0  0
 75148  1  0  0  0
 76149  1  0  0  0
 76150  1  0  0  0
 76151  1  0  0  0
 76 82  1  0  0  0
 77 82  1  0  0  0
 77152  1  0  0  0
 77153  1  0  0  0
 77154  1  0  0  0
 78155  1  0  0  0
 78156  1  0  0  0
 78157  1  0  0  0
 78 83  1  0  0  0
 79 85  1  0  0  0
 79158  1  0  0  0
 79159  1  0  0  0
 80 81  1  0  0  0
 80 83  1  0  0  0
 80160  1  0  0  0
 80161  1  0  0  0
 81 84  1  0  0  0
 81162  1  0  0  0
 81163  1  0  0  0
 82164  1  0  0  0
 83165  1  0  0  0
 85166  1  0  0  0
M  ISO  4   1 100  68 101  83 101  85 100
M  END
> <chiral flag>
0

> <version>
0

> <s_m_source_file>
/data/baiqing/PycharmProjects/Reinvent-master-3.2/result/LINK_invent/BTK/process_docking_weight1_custom_sum_contain_oxygen_bond_distance_aromatic_linkinvent_7_9_3/rearranged_h_0100.sdf

> <i_m_source_file_index>
22

> <r_mmod_Potential_Energy-OPLS-2005>
54.7982444763184

> <r_mmod_Stretch_Energy-OPLS-2005>
117.615859985352

> <r_mmod_Bend_Energy-OPLS-2005>
179.472747802734

> <r_mmod_Torsional_Energy-OPLS-2005>
235.106552124023

> <r_mmod_Improper_Torsional_Energy-OPLS-2005>
5.2794017791748

> <r_mmod_Van_der_Waal_Energy-OPLS-2005>
106.392807006836

> <r_mmod_Electrostatic_Energy-OPLS-2005>
-464.754425048828

> <r_mmod_Solvation_Energy-OPLS-2005>
-205.780822753906

> <b_mmod_Minimization_Converged-OPLS-2005>
0

> <r_mmod_RMS_Derivative-OPLS-2005>
2.38414788246155

$$$$
22
                    3D
 Structure written by MMmdl.
176184  0  0  1  0            999 V2000
  -30.6675  -14.5312   20.4793 C   0  0  0  0  0  0
  -30.4131  -12.3121   19.4463 C   0  0  0  0  0  0
  -29.4932  -12.4857   18.2190 C   0  0  0  0  0  0
  -28.0169  -12.3423   18.6335 C   0  0  0  0  0  0
  -27.6528  -13.2105   19.8672 C   0  0  2  0  0  0
  -28.6946  -13.0478   20.9981 C   0  0  0  0  0  0
  -25.2555  -13.8175   20.5689 C   0  0  0  0  0  0
  -24.1809  -13.0432   20.9189 C   0  0  0  0  0  0
  -24.6372  -11.6913   20.8754 C   0  0  0  0  0  0
  -23.9029  -10.4293   21.0426 C   0  0  0  0  0  0
  -24.3600   -9.4204   21.9195 C   0  0  0  0  0  0
  -23.6282   -8.2231   22.0756 C   0  0  0  0  0  0
  -22.4265   -8.0272   21.3548 C   0  0  0  0  0  0
  -21.9894   -9.0237   20.4639 C   0  0  0  0  0  0
  -22.7211  -10.2124   20.3066 C   0  0  0  0  0  0
  -21.6846   -6.0725   22.5280 C   0  0  0  0  0  0
  -21.4009   -6.5636   23.8210 C   0  0  0  0  0  0
  -21.3666   -5.6797   24.9172 C   0  0  0  0  0  0
  -21.6041   -4.3056   24.7228 C   0  0  0  0  0  0
  -21.8824   -3.8140   23.4346 C   0  0  0  0  0  0
  -21.9193   -4.6954   22.3403 C   0  0  0  0  0  0
  -22.7840  -13.5224   21.1860 C   0  0  0  0  0  0
  -22.1668   -4.2141   21.0981 F   0  0  0  0  0  0
  -21.5629   -3.4545   25.7737 F   0  0  0  0  0  0
  -30.0213  -13.3330   20.4338 N   0  0  0  0  0  0
  -26.2984  -12.9344   20.3364 N   0  0  0  0  0  0
  -25.9301  -11.6508   20.5797 N   0  0  0  0  0  0
  -22.0496  -12.8181   22.0422 N   0  0  0  0  0  0
  -25.4239  -15.1888   20.4093 N   0  0  0  0  0  0
  -31.8347  -14.6620   20.1029 O   0  0  0  0  0  0
  -21.6630   -6.8863   21.4243 O   0  0  0  0  0  0
  -22.3510  -14.5530   20.6734 O   0  0  0  0  0  0
  -24.6179  -31.8604   23.2084 C   0  0  0  0  0  0
  -25.9036  -32.4797   23.8400 C   0  0  1  0  0  0
  -27.2483  -27.3909   20.0870 C   0  0  0  0  0  0
  -25.5863  -33.8590   24.2319 N   0  0  0  0  0  0
  -23.4096  -30.4800   21.5499 C   0  0  2  0  0  0
  -24.8569  -28.9328   20.1190 C   0  0  0  0  0  0
  -22.7398  -29.4619   22.5019 C   0  0  0  0  0  0
  -18.0270  -28.1352   22.8505 C   0  0  0  0  0  0
  -24.1469  -36.7292   23.2651 C   0  0  0  0  0  0
  -25.9389  -30.8111   21.3662 C   0  0  0  0  0  0
  -26.0165  -29.4396   20.7149 C   0  0  0  0  0  0
  -27.2065  -28.6706   20.7015 C   0  0  0  0  0  0
  -26.0637  -26.9034   19.4908 C   0  0  0  0  0  0
  -24.8759  -27.6646   19.5104 C   0  0  0  0  0  0
  -23.6198  -29.8037   20.1678 C   0  0  0  0  0  0
  -25.4089  -36.3089   24.0360 C   0  0  1  0  0  0
  -20.5850  -28.3624   23.1331 C   0  0  2  0  0  0
  -20.6719  -26.9359   22.5426 C   0  0  0  0  0  0
  -19.5719  -26.6362   21.5194 C   0  0  0  0  0  0
  -18.1902  -26.7909   22.1610 C   0  0  0  0  0  0
  -19.1517  -28.8808   23.2918 C   0  0  0  0  0  0
  -18.9445  -30.1418   23.8917 C   0  0  0  0  0  0
  -17.6450  -30.6571   24.0562 C   0  0  0  0  0  0
  -25.9019  -34.9457   23.5139 C   0  0  0  0  0  0
  -16.5346  -29.9071   23.6330 C   0  0  0  0  0  0
  -16.7261  -28.6482   23.0371 C   0  0  0  0  0  0
  -26.4468  -31.6618   25.0750 C   0  0  0  0  0  0
  -25.3758  -31.3723   26.1527 C   0  0  0  0  0  0
  -27.0337  -30.3085   24.6133 C   0  0  0  0  0  0
  -27.6044  -32.4352   25.7504 C   0  0  0  0  0  0
  -27.5580  -37.1791   24.8467 C   0  0  0  0  0  0
  -21.4118  -29.3008   22.3747 N   0  0  0  0  0  0
  -26.4272  -37.3777   23.9440 N   0  0  0  0  0  0
  -24.6748  -31.0653   22.1008 N   0  0  0  0  0  0
  -23.4130  -28.8169   23.3099 O   0  0  0  0  0  0
  -28.4400  -26.6759   20.1267 O   0  0  0  0  0  0
  -26.5589  -34.8919   22.4704 O   0  0  0  0  0  0
  -23.5360  -32.1378   23.7449 O   0  0  0  0  0  0
  -29.8343  -18.2478   22.1950 C   0  0  0  0  0  0
  -28.9131  -20.4746   22.1206 C   0  0  0  0  0  0
  -29.4780  -19.4276   22.8811 C   0  0  0  0  0  0
  -29.6801  -18.1809   20.8005 C   0  0  0  0  0  0
  -28.7730  -20.3493   20.7263 C   0  0  0  0  0  0
  -27.3115  -21.0708   18.7252 C   0  0  0  0  0  0
  -30.5441  -22.5068   19.8531 C   0  0  0  0  0  0
  -30.1107  -25.6752   18.8413 C   0  0  0  0  0  0
  -31.2508  -19.3605   24.6528 C   0  0  0  0  0  0
  -28.9524  -18.4778   25.1535 C   0  0  0  0  0  0
  -29.3433  -20.9329   24.9571 C   0  0  0  0  0  0
  -30.1450  -16.9312   20.0385 C   0  0  0  0  0  0
  -28.5456  -24.1460   20.2016 C   0  0  0  0  0  0
  -28.1425  -21.5356   19.9377 C   0  0  2  0  0  0
  -29.0503  -22.7799   19.5694 C   0  0  2  0  0  0
  -28.6859  -25.4676   19.3614 C   0  0  1  0  0  0
  -29.7454  -19.5537   24.3904 C   0  0  0  0  0  0
  -29.1837  -19.2233   20.0742 N   0  0  0  0  0  0
  -29.8839  -15.6154   20.6686 N   0  0  0  0  0  0
  -31.4592  -12.3918   19.1488 H   0  0  0  0  0  0
  -30.3007  -11.3137   19.8733 H   0  0  0  0  0  0
  -29.7373  -11.7483   17.4540 H   0  0  0  0  0  0
  -29.6573  -13.4659   17.7688 H   0  0  0  0  0  0
  -27.8415  -11.2888   18.8588 H   0  0  0  0  0  0
  -27.3623  -12.5867   17.7961 H   0  0  0  0  0  0
  -27.6789  -14.2465   19.5321 H   0  0  0  0  0  0
  -28.6744  -12.0364   21.4065 H   0  0  0  0  0  0
  -28.4650  -13.7098   21.8333 H   0  0  0  0  0  0
  -25.2758   -9.5673   22.4746 H   0  0  0  0  0  0
  -24.0004   -7.4610   22.7463 H   0  0  0  0  0  0
  -21.0842   -8.8734   19.8924 H   0  0  0  0  0  0
  -22.3679  -10.9656   19.6163 H   0  0  0  0  0  0
  -21.2003   -7.6146   23.9703 H   0  0  0  0  0  0
  -21.1492   -6.0533   25.9073 H   0  0  0  0  0  0
  -22.0598   -2.7602   23.2849 H   0  0  0  0  0  0
  -22.4153  -11.9855   22.4790 H   0  0  0  0  0  0
  -21.1121  -13.1188   22.2670 H   0  0  0  0  0  0
  -24.6513  -15.8390   20.5042 H   0  0  0  0  0  0
  -26.2690  -15.6327   20.0740 H   0  0  0  0  0  0
  -26.7091  -32.5488   23.1156 H   0  0  0  0  0  0
  -25.0018  -33.9741   25.0470 H   0  0  0  0  0  0
  -22.7053  -31.3012   21.4048 H   0  0  0  0  0  0
  -23.3741  -35.9608   23.3295 H   0  0  0  0  0  0
  -24.3553  -36.8918   22.2063 H   0  0  0  0  0  0
  -23.7211  -37.6486   23.6676 H   0  0  0  0  0  0
  -26.0465  -31.5771   20.5967 H   0  0  0  0  0  0
  -26.8253  -30.8681   21.9864 H   0  0  0  0  0  0
  -28.1021  -29.0531   21.1694 H   0  0  0  0  0  0
  -26.0322  -25.9307   19.0238 H   0  0  0  0  0  0
  -23.9784  -27.2672   19.0572 H   0  0  0  0  0  0
  -23.7349  -30.5735   19.4050 H   0  0  0  0  0  0
  -22.7426  -29.2261   19.8714 H   0  0  0  0  0  0
  -25.1273  -36.1935   25.0854 H   0  0  0  0  0  0
  -20.9948  -28.3151   24.1444 H   0  0  0  0  0  0
  -20.5521  -26.2236   23.3605 H   0  0  0  0  0  0
  -21.6605  -26.7335   22.1287 H   0  0  0  0  0  0
  -19.6859  -25.6264   21.1238 H   0  0  0  0  0  0
  -19.6668  -27.3156   20.6712 H   0  0  0  0  0  0
  -17.4161  -26.6674   21.4022 H   0  0  0  0  0  0
  -18.0318  -26.0032   22.8986 H   0  0  0  0  0  0
  -19.7913  -30.7234   24.2290 H   0  0  0  0  0  0
  -17.5006  -31.6258   24.5143 H   0  0  0  0  0  0
  -15.5351  -30.2982   23.7637 H   0  0  0  0  0  0
  -15.8661  -28.0807   22.7093 H   0  0  0  0  0  0
  -24.5873  -30.7124   25.7904 H   0  0  0  0  0  0
  -24.9017  -32.2871   26.5087 H   0  0  0  0  0  0
  -25.8134  -30.8827   27.0233 H   0  0  0  0  0  0
  -26.2897  -29.6827   24.1185 H   0  0  0  0  0  0
  -27.4133  -29.7356   25.4608 H   0  0  0  0  0  0
  -27.8715  -30.4484   23.9295 H   0  0  0  0  0  0
  -27.2647  -33.3599   26.2187 H   0  0  0  0  0  0
  -28.3789  -32.6988   25.0291 H   0  0  0  0  0  0
  -28.0782  -31.8411   26.5331 H   0  0  0  0  0  0
  -28.2595  -38.0094   24.7532 H   0  0  0  0  0  0
  -28.1079  -36.2628   24.6257 H   0  0  0  0  0  0
  -27.2311  -37.1409   25.8872 H   0  0  0  0  0  0
  -20.9257  -29.8771   21.7018 H   0  0  0  0  0  0
  -26.0161  -38.2850   24.1441 H   0  0  0  0  0  0
  -30.2630  -17.4090   22.7246 H   0  0  0  0  0  0
  -28.6012  -21.4004   22.5796 H   0  0  0  0  0  0
  -26.5585  -20.3393   19.0184 H   0  0  0  0  0  0
  -27.9340  -20.6091   17.9588 H   0  0  0  0  0  0
  -26.7928  -21.9098   18.2602 H   0  0  0  0  0  0
  -31.1957  -23.3098   19.5183 H   0  0  0  0  0  0
  -30.8728  -21.6068   19.3320 H   0  0  0  0  0  0
  -30.7311  -22.3560   20.9159 H   0  0  0  0  0  0
  -30.3866  -24.9074   18.1197 H   0  0  0  0  0  0
  -30.8323  -25.6594   19.6591 H   0  0  0  0  0  0
  -30.2032  -26.6362   18.3366 H   0  0  0  0  0  0
  -31.5896  -18.3611   24.3801 H   0  0  0  0  0  0
  -31.4953  -19.5063   25.7059 H   0  0  0  0  0  0
  -31.8409  -20.0736   24.0739 H   0  0  0  0  0  0
  -29.2161  -17.4708   24.8312 H   0  0  0  0  0  0
  -27.8782  -18.5985   25.0033 H   0  0  0  0  0  0
  -29.1443  -18.5338   26.2256 H   0  0  0  0  0  0
  -29.8798  -21.7435   24.4621 H   0  0  0  0  0  0
  -29.5688  -21.0076   26.0214 H   0  0  0  0  0  0
  -28.2742  -21.1161   24.8445 H   0  0  0  0  0  0
  -31.2104  -17.0674   19.8528 H   0  0  0  0  0  0
  -29.6733  -16.9236   19.0549 H   0  0  0  0  0  0
  -29.0256  -24.2792   21.1726 H   0  0  0  0  0  0
  -27.4856  -24.0618   20.4376 H   0  0  0  0  0  0
  -27.3876  -21.9023   20.6341 H   0  0  0  0  0  0
  -28.9822  -22.9028   18.4866 H   0  0  0  0  0  0
  -28.0453  -25.4155   18.4812 H   0  0  0  0  0  0
  -28.9447  -15.4611   21.0009 H   0  0  0  0  0  0
  1 25  1  0  0  0
  1 30  2  0  0  0
  1 89  1  0  0  0
  2  3  1  0  0  0
  2 25  1  0  0  0
  2 90  1  0  0  0
  2 91  1  0  0  0
  3  4  1  0  0  0
  3 92  1  0  0  0
  3 93  1  0  0  0
  4  5  1  0  0  0
  4 94  1  0  0  0
  4 95  1  0  0  0
  5  6  1  0  0  0
  5 26  1  0  0  0
  5 96  1  0  0  0
  6 25  1  0  0  0
  6 97  1  0  0  0
  6 98  1  0  0  0
  7  8  2  0  0  0
  7 26  1  0  0  0
  7 29  1  0  0  0
  8  9  1  0  0  0
  8 22  1  0  0  0
  9 10  1  0  0  0
  9 27  2  0  0  0
 10 11  2  0  0  0
 10 15  1  0  0  0
 11 12  1  0  0  0
 11 99  1  0  0  0
 12 13  2  0  0  0
 12100  1  0  0  0
 13 14  1  0  0  0
 13 31  1  0  0  0
 14 15  2  0  0  0
 14101  1  0  0  0
 15102  1  0  0  0
 16 17  2  0  0  0
 16 21  1  0  0  0
 16 31  1  0  0  0
 17 18  1  0  0  0
 17103  1  0  0  0
 18 19  2  0  0  0
 18104  1  0  0  0
 19 20  1  0  0  0
 19 24  1  0  0  0
 20 21  2  0  0  0
 20105  1  0  0  0
 21 23  1  0  0  0
 22 28  1  0  0  0
 22 32  2  0  0  0
 26 27  1  0  0  0
 28106  1  0  0  0
 28107  1  0  0  0
 29108  1  0  0  0
 29109  1  0  0  0
 33 34  1  0  0  0
 33 66  1  0  0  0
 33 70  2  0  0  0
 34 36  1  0  0  0
 34 59  1  0  0  0
 34110  1  0  0  0
 35 44  2  0  0  0
 35 45  1  0  0  0
 35 68  1  0  0  0
 36 56  1  0  0  0
 36111  1  0  0  0
 37 39  1  0  0  0
 37 47  1  0  0  0
 37 66  1  0  0  0
 37112  1  0  0  0
 38 43  2  0  0  0
 38 46  1  0  0  0
 38 47  1  0  0  0
 39 64  1  0  0  0
 39 67  2  0  0  0
 40 52  1  0  0  0
 40 53  2  0  0  0
 40 58  1  0  0  0
 41113  1  0  0  0
 41114  1  0  0  0
 41115  1  0  0  0
 41 48  1  0  0  0
 42 43  1  0  0  0
 42 66  1  0  0  0
 42116  1  0  0  0
 42117  1  0  0  0
 43 44  1  0  0  0
 44118  1  0  0  0
 45 46  2  0  0  0
 45119  1  0  0  0
 46120  1  0  0  0
 47121  1  0  0  0
 47122  1  0  0  0
 48 56  1  0  0  0
 48 65  1  0  0  0
 48123  1  0  0  0
 49 50  1  0  0  0
 49 53  1  0  0  0
 49 64  1  0  0  0
 49124  1  0  0  0
 50 51  1  0  0  0
 50125  1  0  0  0
 50126  1  0  0  0
 51 52  1  0  0  0
 51127  1  0  0  0
 51128  1  0  0  0
 52129  1  0  0  0
 52130  1  0  0  0
 53 54  1  0  0  0
 54 55  2  0  0  0
 54131  1  0  0  0
 55 57  1  0  0  0
 55132  1  0  0  0
 56 69  2  0  0  0
 57 58  2  0  0  0
 57133  1  0  0  0
 58134  1  0  0  0
 59 60  1  0  0  0
 59 61  1  0  0  0
 59 62  1  0  0  0
 60135  1  0  0  0
 60136  1  0  0  0
 60137  1  0  0  0
 61138  1  0  0  0
 61139  1  0  0  0
 61140  1  0  0  0
 62141  1  0  0  0
 62142  1  0  0  0
 62143  1  0  0  0
 63 65  1  0  0  0
 63144  1  0  0  0
 63145  1  0  0  0
 63146  1  0  0  0
 64147  1  0  0  0
 65148  1  0  0  0
 68 86  1  0  0  0
 71 73  2  0  0  0
 71 74  1  0  0  0
 71149  1  0  0  0
 72 73  1  0  0  0
 72 75  2  0  0  0
 72150  1  0  0  0
 73 87  1  0  0  0
 74 82  1  0  0  0
 74 88  2  0  0  0
 75 84  1  0  0  0
 75 88  1  0  0  0
 76151  1  0  0  0
 76152  1  0  0  0
 76153  1  0  0  0
 76 84  1  0  0  0
 77154  1  0  0  0
 77155  1  0  0  0
 77156  1  0  0  0
 77 85  1  0  0  0
 78157  1  0  0  0
 78158  1  0  0  0
 78159  1  0  0  0
 78 86  1  0  0  0
 79160  1  0  0  0
 79161  1  0  0  0
 79162  1  0  0  0
 79 87  1  0  0  0
 80 87  1  0  0  0
 80163  1  0  0  0
 80164  1  0  0  0
 80165  1  0  0  0
 81 87  1  0  0  0
 81166  1  0  0  0
 81167  1  0  0  0
 81168  1  0  0  0
 82 89  1  0  0  0
 82169  1  0  0  0
 82170  1  0  0  0
 83 85  1  0  0  0
 83 86  1  0  0  0
 83171  1  0  0  0
 83172  1  0  0  0
 84 85  1  0  0  0
 84173  1  0  0  0
 85174  1  0  0  0
 86175  1  0  0  0
 89176  1  0  0  0
M  ISO  4   1 100  68 101  86 101  89 100
M  END
> <chiral flag>
0

> <version>
0

> <s_m_source_file>
/data/baiqing/PycharmProjects/Reinvent-master-3.2/result/LINK_invent/BTK/process_docking_weight1_custom_sum_contain_oxygen_bond_distance_aromatic_linkinvent_7_9_3/rearranged_h_0100.sdf

> <i_m_source_file_index>
23

> <r_mmod_Potential_Energy-OPLS-2005>
-289.390869140625

> <r_mmod_Stretch_Energy-OPLS-2005>
54.3244400024414

> <r_mmod_Bend_Energy-OPLS-2005>
135.704879760742

> <r_mmod_Torsional_Energy-OPLS-2005>
220.073822021484

> <r_mmod_Improper_Torsional_Energy-OPLS-2005>
8.57651901245117

> <r_mmod_Van_der_Waal_Energy-OPLS-2005>
159.360427856445

> <r_mmod_Electrostatic_Energy-OPLS-2005>
-695.314208984375

> <r_mmod_Solvation_Energy-OPLS-2005>
-195.503997802734

> <b_mmod_Minimization_Converged-OPLS-2005>
0

> <r_mmod_RMS_Derivative-OPLS-2005>
2.88479566574097

$$$$
23
                    3D
 Structure written by MMmdl.
158166  0  0  1  0            999 V2000
  -30.5790  -15.0117   20.4273 C   0  0  0  0  0  0
  -30.4288  -12.6512   19.4839 C   0  0  0  0  0  0
  -29.5094  -12.5124   18.2492 C   0  0  0  0  0  0
  -28.0468  -12.2997   18.6816 C   0  0  0  0  0  0
  -27.6125  -13.2630   19.8171 C   0  0  2  0  0  0
  -28.6601  -13.3756   20.9407 C   0  0  0  0  0  0
  -25.2424  -13.8268   20.5791 C   0  0  0  0  0  0
  -24.1744  -13.0495   20.9279 C   0  0  0  0  0  0
  -24.6362  -11.6968   20.8821 C   0  0  0  0  0  0
  -23.9078  -10.4334   21.0432 C   0  0  0  0  0  0
  -24.3633   -9.4238   21.9190 C   0  0  0  0  0  0
  -23.6315   -8.2267   22.0745 C   0  0  0  0  0  0
  -22.4303   -8.0289   21.3538 C   0  0  0  0  0  0
  -21.9916   -9.0266   20.4650 C   0  0  0  0  0  0
  -22.7254  -10.2151   20.3081 C   0  0  0  0  0  0
  -21.6876   -6.0708   22.5257 C   0  0  0  0  0  0
  -21.4037   -6.5616   23.8187 C   0  0  0  0  0  0
  -21.3696   -5.6774   24.9152 C   0  0  0  0  0  0
  -21.6060   -4.3029   24.7202 C   0  0  0  0  0  0
  -21.8823   -3.8115   23.4314 C   0  0  0  0  0  0
  -21.9195   -4.6937   22.3369 C   0  0  0  0  0  0
  -22.7735  -13.5220   21.1850 C   0  0  0  0  0  0
  -22.1654   -4.2117   21.0941 F   0  0  0  0  0  0
  -21.5631   -3.4505   25.7719 F   0  0  0  0  0  0
  -29.9126  -13.7913   20.2967 N   0  0  0  0  0  0
  -26.2829  -12.9529   20.3255 N   0  0  0  0  0  0
  -25.9301  -11.6640   20.5774 N   0  0  0  0  0  0
  -22.0350  -12.8308   22.0431 N   0  0  0  0  0  0
  -25.4199  -15.2000   20.4241 N   0  0  0  0  0  0
  -31.8148  -14.9165   20.3916 O   0  0  0  0  0  0
  -21.6682   -6.8868   21.4225 O   0  0  0  0  0  0
  -22.3448  -14.5479   20.6572 O   0  0  0  0  0  0
  -24.6440  -31.8420   23.1929 C   0  0  0  0  0  0
  -25.9205  -32.4702   23.8334 C   0  0  1  0  0  0
  -27.2229  -27.1352   20.1333 C   0  0  0  0  0  0
  -25.5955  -33.8501   24.2233 N   0  0  0  0  0  0
  -23.4510  -30.4624   21.5342 C   0  0  2  0  0  0
  -24.9022  -28.8861   20.1216 C   0  0  0  0  0  0
  -22.7581  -29.4518   22.4844 C   0  0  0  0  0  0
  -18.0314  -28.1381   22.8469 C   0  0  0  0  0  0
  -24.1469  -36.7231   23.2634 C   0  0  0  0  0  0
  -26.0096  -30.7212   21.3883 C   0  0  0  0  0  0
  -26.0870  -29.3309   20.7249 C   0  0  0  0  0  0
  -27.2558  -28.4772   20.7009 C   0  0  0  0  0  0
  -26.0094  -26.7863   19.5092 C   0  0  0  0  0  0
  -24.8750  -27.6259   19.5031 C   0  0  0  0  0  0
  -23.6794  -29.7902   20.1590 C   0  0  0  0  0  0
  -25.4100  -36.3014   24.0314 C   0  0  1  0  0  0
  -20.5920  -28.3690   23.1216 C   0  0  2  0  0  0
  -20.6797  -26.9387   22.5393 C   0  0  0  0  0  0
  -19.5784  -26.6353   21.5192 C   0  0  0  0  0  0
  -18.1958  -26.7931   22.1594 C   0  0  0  0  0  0
  -19.1569  -28.8856   23.2845 C   0  0  0  0  0  0
  -18.9478  -30.1448   23.8875 C   0  0  0  0  0  0
  -17.6473  -30.6578   24.0527 C   0  0  0  0  0  0
  -25.9060  -34.9387   23.5065 C   0  0  0  0  0  0
  -16.5361  -29.9049   23.6334 C   0  0  0  0  0  0
  -16.7295  -28.6461   23.0370 C   0  0  0  0  0  0
  -26.4552  -31.6585   25.0765 C   0  0  0  0  0  0
  -25.3756  -31.3749   26.1475 C   0  0  0  0  0  0
  -27.0449  -30.2999   24.6341 C   0  0  0  0  0  0
  -27.6091  -32.4357   25.7549 C   0  0  0  0  0  0
  -27.5567  -37.1743   24.8448 C   0  0  0  0  0  0
  -21.4266  -29.3014   22.3591 N   0  0  0  0  0  0
  -26.4250  -37.3740   23.9425 N   0  0  0  0  0  0
  -24.7216  -31.0278   22.0949 N   0  0  0  0  0  0
  -23.4210  -28.8031   23.2981 O   0  0  0  0  0  0
  -28.2709  -26.1408   20.1047 O   0  0  0  0  0  0
  -26.5624  -34.8869   22.4634 O   0  0  0  0  0  0
  -23.5549  -32.1257   23.7153 O   0  0  0  0  0  0
  -28.7632  -21.9171   20.6017 C   0  0  0  0  0  0
  -28.7300  -23.1468   18.5451 C   0  0  0  0  0  0
  -28.5510  -23.2360   19.9371 C   0  0  0  0  0  0
  -29.1280  -20.6208   19.9389 C   0  0  0  0  0  0
  -29.2086  -20.8113   18.5354 C   0  0  0  0  0  0
  -29.5388  -19.6579   17.6234 C   0  0  0  0  0  0
  -29.3023  -19.3022   22.1379 C   0  0  0  0  0  0
  -30.5091  -16.3936   18.4877 C   0  0  0  0  0  0
  -28.0429  -24.6765   20.6054 C   0  0  0  0  0  0
  -29.1632  -17.5189   20.2671 C   0  0  0  0  0  0
  -29.6056  -19.1555   20.6358 C   0  0  1  0  0  0
  -29.0247  -21.9942   17.8899 N   0  0  0  0  0  0
  -30.0381  -16.2304   19.8668 N   0  0  0  0  0  0
  -31.4564  -12.8117   19.1563 H   0  0  0  0  0  0
  -30.4471  -11.7322   20.0749 H   0  0  0  0  0  0
  -29.8403  -11.6811   17.6318 H   0  0  0  0  0  0
  -29.5744  -13.4063   17.6259 H   0  0  0  0  0  0
  -27.9587  -11.2660   19.0236 H   0  0  0  0  0  0
  -27.3791  -12.3946   17.8261 H   0  0  0  0  0  0
  -27.5471  -14.2438   19.3400 H   0  0  0  0  0  0
  -28.7752  -12.4445   21.4985 H   0  0  0  0  0  0
  -28.3424  -14.1394   21.6542 H   0  0  0  0  0  0
  -25.2750   -9.5701   22.4752 H   0  0  0  0  0  0
  -24.0019   -7.4668   22.7467 H   0  0  0  0  0  0
  -21.0822   -8.8792   19.8959 H   0  0  0  0  0  0
  -22.3714  -10.9680   19.6185 H   0  0  0  0  0  0
  -21.2056   -7.6124   23.9693 H   0  0  0  0  0  0
  -21.1521   -6.0484   25.9064 H   0  0  0  0  0  0
  -22.0576   -2.7572   23.2811 H   0  0  0  0  0  0
  -22.3946  -12.0048   22.4999 H   0  0  0  0  0  0
  -21.0920  -13.1317   22.2430 H   0  0  0  0  0  0
  -24.6598  -15.8608   20.5354 H   0  0  0  0  0  0
  -26.2802  -15.6366   20.1191 H   0  0  0  0  0  0
  -26.7261  -32.5328   23.1067 H   0  0  0  0  0  0
  -25.0141  -33.9658   25.0399 H   0  0  0  0  0  0
  -22.7535  -31.2888   21.3787 H   0  0  0  0  0  0
  -23.3767  -35.9526   23.3222 H   0  0  0  0  0  0
  -24.3586  -36.8937   22.2068 H   0  0  0  0  0  0
  -23.7159  -37.6366   23.6729 H   0  0  0  0  0  0
  -26.1657  -31.4819   20.6249 H   0  0  0  0  0  0
  -26.8804  -30.7755   22.0314 H   0  0  0  0  0  0
  -28.1701  -28.8286   21.1591 H   0  0  0  0  0  0
  -25.9309  -25.8203   19.0328 H   0  0  0  0  0  0
  -23.9671  -27.2735   19.0337 H   0  0  0  0  0  0
  -23.8248  -30.5631   19.4035 H   0  0  0  0  0  0
  -22.7974  -29.2301   19.8445 H   0  0  0  0  0  0
  -25.1283  -36.1843   25.0804 H   0  0  0  0  0  0
  -21.0047  -28.3273   24.1320 H   0  0  0  0  0  0
  -20.5669  -26.2287   23.3600 H   0  0  0  0  0  0
  -21.6658  -26.7379   22.1197 H   0  0  0  0  0  0
  -19.6934  -25.6252   21.1246 H   0  0  0  0  0  0
  -19.6755  -27.3127   20.6696 H   0  0  0  0  0  0
  -17.4237  -26.6673   21.3988 H   0  0  0  0  0  0
  -18.0351  -26.0078   22.8995 H   0  0  0  0  0  0
  -19.7948  -30.7269   24.2241 H   0  0  0  0  0  0
  -17.5014  -31.6274   24.5098 H   0  0  0  0  0  0
  -15.5349  -30.2924   23.7694 H   0  0  0  0  0  0
  -15.8699  -28.0754   22.7123 H   0  0  0  0  0  0
  -24.5916  -30.7131   25.7758 H   0  0  0  0  0  0
  -24.8982  -32.2928   26.4916 H   0  0  0  0  0  0
  -25.8069  -30.8883   27.0237 H   0  0  0  0  0  0
  -26.3077  -29.6701   24.1345 H   0  0  0  0  0  0
  -27.4062  -29.7327   25.4927 H   0  0  0  0  0  0
  -27.8984  -30.4250   23.9678 H   0  0  0  0  0  0
  -27.2705  -33.3672   26.2104 H   0  0  0  0  0  0
  -28.3946  -32.6903   25.0419 H   0  0  0  0  0  0
  -28.0734  -31.8500   26.5498 H   0  0  0  0  0  0
  -28.2520  -38.0099   24.7594 H   0  0  0  0  0  0
  -28.1142  -36.2644   24.6176 H   0  0  0  0  0  0
  -27.2318  -37.1240   25.8852 H   0  0  0  0  0  0
  -20.9471  -29.8709   21.6768 H   0  0  0  0  0  0
  -26.0118  -38.2778   24.1551 H   0  0  0  0  0  0
  -28.6574  -21.9069   21.6744 H   0  0  0  0  0  0
  -28.6106  -24.0250   17.9268 H   0  0  0  0  0  0
  -30.4286  -19.1371   17.9719 H   0  0  0  0  0  0
  -29.7235  -19.9949   16.6042 H   0  0  0  0  0  0
  -28.7100  -18.9539   17.5993 H   0  0  0  0  0  0
  -29.5701  -18.4043   22.7002 H   0  0  0  0  0  0
  -28.2394  -19.4826   22.3009 H   0  0  0  0  0  0
  -29.8525  -20.1190   22.5977 H   0  0  0  0  0  0
  -29.7545  -16.8578   17.8588 H   0  0  0  0  0  0
  -30.7473  -15.4386   18.0083 H   0  0  0  0  0  0
  -31.4172  -16.9984   18.4852 H   0  0  0  0  0  0
  -28.5180  -24.6828   21.5868 H   0  0  0  0  0  0
  -26.9771  -24.5747   20.8220 H   0  0  0  0  0  0
  -28.3266  -17.5669   19.5739 H   0  0  0  0  0  0
  -28.6833  -17.1378   21.1685 H   0  0  0  0  0  0
  -30.6920  -19.1838   20.5489 H   0  0  0  0  0  0
  1 25  1  0  0  0
  1 30  2  0  0  0
  1 83  1  0  0  0
  2  3  1  0  0  0
  2 25  1  0  0  0
  2 84  1  0  0  0
  2 85  1  0  0  0
  3  4  1  0  0  0
  3 86  1  0  0  0
  3 87  1  0  0  0
  4  5  1  0  0  0
  4 88  1  0  0  0
  4 89  1  0  0  0
  5  6  1  0  0  0
  5 26  1  0  0  0
  5 90  1  0  0  0
  6 25  1  0  0  0
  6 91  1  0  0  0
  6 92  1  0  0  0
  7  8  2  0  0  0
  7 26  1  0  0  0
  7 29  1  0  0  0
  8  9  1  0  0  0
  8 22  1  0  0  0
  9 10  1  0  0  0
  9 27  2  0  0  0
 10 11  2  0  0  0
 10 15  1  0  0  0
 11 12  1  0  0  0
 11 93  1  0  0  0
 12 13  2  0  0  0
 12 94  1  0  0  0
 13 14  1  0  0  0
 13 31  1  0  0  0
 14 15  2  0  0  0
 14 95  1  0  0  0
 15 96  1  0  0  0
 16 17  2  0  0  0
 16 21  1  0  0  0
 16 31  1  0  0  0
 17 18  1  0  0  0
 17 97  1  0  0  0
 18 19  2  0  0  0
 18 98  1  0  0  0
 19 20  1  0  0  0
 19 24  1  0  0  0
 20 21  2  0  0  0
 20 99  1  0  0  0
 21 23  1  0  0  0
 22 28  1  0  0  0
 22 32  2  0  0  0
 26 27  1  0  0  0
 28100  1  0  0  0
 28101  1  0  0  0
 29102  1  0  0  0
 29103  1  0  0  0
 33 34  1  0  0  0
 33 66  1  0  0  0
 33 70  2  0  0  0
 34 36  1  0  0  0
 34 59  1  0  0  0
 34104  1  0  0  0
 35 44  2  0  0  0
 35 45  1  0  0  0
 35 68  1  0  0  0
 36 56  1  0  0  0
 36105  1  0  0  0
 37 39  1  0  0  0
 37 47  1  0  0  0
 37 66  1  0  0  0
 37106  1  0  0  0
 38 43  2  0  0  0
 38 46  1  0  0  0
 38 47  1  0  0  0
 39 64  1  0  0  0
 39 67  2  0  0  0
 40 52  1  0  0  0
 40 53  2  0  0  0
 40 58  1  0  0  0
 41107  1  0  0  0
 41108  1  0  0  0
 41109  1  0  0  0
 41 48  1  0  0  0
 42 43  1  0  0  0
 42 66  1  0  0  0
 42110  1  0  0  0
 42111  1  0  0  0
 43 44  1  0  0  0
 44112  1  0  0  0
 45 46  2  0  0  0
 45113  1  0  0  0
 46114  1  0  0  0
 47115  1  0  0  0
 47116  1  0  0  0
 48 56  1  0  0  0
 48 65  1  0  0  0
 48117  1  0  0  0
 49 50  1  0  0  0
 49 53  1  0  0  0
 49 64  1  0  0  0
 49118  1  0  0  0
 50 51  1  0  0  0
 50119  1  0  0  0
 50120  1  0  0  0
 51 52  1  0  0  0
 51121  1  0  0  0
 51122  1  0  0  0
 52123  1  0  0  0
 52124  1  0  0  0
 53 54  1  0  0  0
 54 55  2  0  0  0
 54125  1  0  0  0
 55 57  1  0  0  0
 55126  1  0  0  0
 56 69  2  0  0  0
 57 58  2  0  0  0
 57127  1  0  0  0
 58128  1  0  0  0
 59 60  1  0  0  0
 59 61  1  0  0  0
 59 62  1  0  0  0
 60129  1  0  0  0
 60130  1  0  0  0
 60131  1  0  0  0
 61132  1  0  0  0
 61133  1  0  0  0
 61134  1  0  0  0
 62135  1  0  0  0
 62136  1  0  0  0
 62137  1  0  0  0
 63 65  1  0  0  0
 63138  1  0  0  0
 63139  1  0  0  0
 63140  1  0  0  0
 64141  1  0  0  0
 65142  1  0  0  0
 68 79  1  0  0  0
 71 73  2  0  0  0
 71 74  1  0  0  0
 71143  1  0  0  0
 72 73  1  0  0  0
 72 82  2  0  0  0
 72144  1  0  0  0
 73 79  1  0  0  0
 74 75  2  0  0  0
 74 81  1  0  0  0
 75 76  1  0  0  0
 75 82  1  0  0  0
 76145  1  0  0  0
 76146  1  0  0  0
 76147  1  0  0  0
 77148  1  0  0  0
 77149  1  0  0  0
 77150  1  0  0  0
 77 81  1  0  0  0
 78 83  1  0  0  0
 78151  1  0  0  0
 78152  1  0  0  0
 78153  1  0  0  0
 79154  1  0  0  0
 79155  1  0  0  0
 80 81  1  0  0  0
 80 83  1  0  0  0
 80156  1  0  0  0
 80157  1  0  0  0
 81158  1  0  0  0
M  ISO  4   1 100  68 101  79 101  83 100
M  END
> <chiral flag>
0

> <version>
0

> <s_m_source_file>
/data/baiqing/PycharmProjects/Reinvent-master-3.2/result/LINK_invent/BTK/process_docking_weight1_custom_sum_contain_oxygen_bond_distance_aromatic_linkinvent_7_9_3/rearranged_h_0100.sdf

> <i_m_source_file_index>
24

> <r_mmod_Potential_Energy-OPLS-2005>
759.82568359375

> <r_mmod_Stretch_Energy-OPLS-2005>
321.669555664062

> <r_mmod_Bend_Energy-OPLS-2005>
344.256774902344

> <r_mmod_Torsional_Energy-OPLS-2005>
354.659912109375

> <r_mmod_Improper_Torsional_Energy-OPLS-2005>
32.202392578125

> <r_mmod_Van_der_Waal_Energy-OPLS-2005>
134.389633178711

> <r_mmod_Electrostatic_Energy-OPLS-2005>
-446.19140625

> <r_mmod_Solvation_Energy-OPLS-2005>
-209.989837646484

> <b_mmod_Minimization_Converged-OPLS-2005>
0

> <r_mmod_RMS_Derivative-OPLS-2005>
7.50378513336182

$$$$
24
                    3D
 Structure written by MMmdl.
164171  0  0  1  0            999 V2000
  -30.5965  -14.9359   20.4166 C   0  0  0  0  0  0
  -30.4545  -12.5864   19.4706 C   0  0  0  0  0  0
  -29.5170  -12.5439   18.2394 C   0  0  0  0  0  0
  -28.0502  -12.3425   18.6637 C   0  0  0  0  0  0
  -27.6363  -13.2605   19.8421 C   0  0  2  0  0  0
  -28.6948  -13.2899   20.9669 C   0  0  0  0  0  0
  -25.2528  -13.8262   20.5705 C   0  0  0  0  0  0
  -24.1856  -13.0492   20.9235 C   0  0  0  0  0  0
  -24.6455  -11.6973   20.8760 C   0  0  0  0  0  0
  -23.9143  -10.4340   21.0407 C   0  0  0  0  0  0
  -24.3693   -9.4229   21.9164 C   0  0  0  0  0  0
  -23.6356   -8.2250   22.0709 C   0  0  0  0  0  0
  -22.4327   -8.0272   21.3519 C   0  0  0  0  0  0
  -22.0020   -9.0269   20.4617 C   0  0  0  0  0  0
  -22.7321  -10.2164   20.3049 C   0  0  0  0  0  0
  -21.6859   -6.0764   22.5269 C   0  0  0  0  0  0
  -21.3996   -6.5644   23.8214 C   0  0  0  0  0  0
  -21.3691   -5.6790   24.9179 C   0  0  0  0  0  0
  -21.6062   -4.3045   24.7225 C   0  0  0  0  0  0
  -21.8823   -3.8148   23.4339 C   0  0  0  0  0  0
  -21.9228   -4.6993   22.3411 C   0  0  0  0  0  0
  -22.7830  -13.5190   21.1864 C   0  0  0  0  0  0
  -22.1687   -4.2180   21.0990 F   0  0  0  0  0  0
  -21.5682   -3.4517   25.7747 F   0  0  0  0  0  0
  -29.9718  -13.6896   20.3522 N   0  0  0  0  0  0
  -26.2956  -12.9513   20.3305 N   0  0  0  0  0  0
  -25.9425  -11.6634   20.5825 N   0  0  0  0  0  0
  -22.0557  -12.8143   22.0411 N   0  0  0  0  0  0
  -25.4193  -15.2002   20.4033 N   0  0  0  0  0  0
  -31.8047  -14.9796   20.1790 O   0  0  0  0  0  0
  -21.6656   -6.8884   21.4218 O   0  0  0  0  0  0
  -22.3534  -14.5513   20.6715 O   0  0  0  0  0  0
  -24.6443  -31.8428   23.1859 C   0  0  0  0  0  0
  -25.9194  -32.4713   23.8283 C   0  0  1  0  0  0
  -27.2370  -27.1452   20.0979 C   0  0  0  0  0  0
  -25.5888  -33.8515   24.2202 N   0  0  0  0  0  0
  -23.4467  -30.4605   21.5337 C   0  0  2  0  0  0
  -24.8949  -28.8891   20.1051 C   0  0  0  0  0  0
  -22.7559  -29.4487   22.4823 C   0  0  0  0  0  0
  -18.0315  -28.1352   22.8487 C   0  0  0  0  0  0
  -24.1458  -36.7283   23.2647 C   0  0  0  0  0  0
  -26.0029  -30.7149   21.3828 C   0  0  0  0  0  0
  -26.0756  -29.3281   20.7178 C   0  0  0  0  0  0
  -27.2408  -28.4711   20.6998 C   0  0  0  0  0  0
  -26.0205  -26.8089   19.4550 C   0  0  0  0  0  0
  -24.8796  -27.6410   19.4664 C   0  0  0  0  0  0
  -23.6697  -29.7845   20.1527 C   0  0  0  0  0  0
  -25.4079  -36.3050   24.0333 C   0  0  1  0  0  0
  -20.5924  -28.3680   23.1231 C   0  0  2  0  0  0
  -20.6738  -26.9368   22.5402 C   0  0  0  0  0  0
  -19.5706  -26.6341   21.5212 C   0  0  0  0  0  0
  -18.1910  -26.7903   22.1641 C   0  0  0  0  0  0
  -19.1564  -28.8839   23.2870 C   0  0  0  0  0  0
  -18.9473  -30.1433   23.8918 C   0  0  0  0  0  0
  -17.6457  -30.6564   24.0547 C   0  0  0  0  0  0
  -25.9036  -34.9422   23.5080 C   0  0  0  0  0  0
  -16.5356  -29.9044   23.6310 C   0  0  0  0  0  0
  -16.7303  -28.6446   23.0372 C   0  0  0  0  0  0
  -26.4486  -31.6582   25.0739 C   0  0  0  0  0  0
  -25.3649  -31.3781   26.1428 C   0  0  0  0  0  0
  -27.0339  -30.2953   24.6355 C   0  0  0  0  0  0
  -27.6008  -32.4362   25.7552 C   0  0  0  0  0  0
  -27.5567  -37.1784   24.8458 C   0  0  0  0  0  0
  -21.4237  -29.3031   22.3628 N   0  0  0  0  0  0
  -26.4267  -37.3753   23.9421 N   0  0  0  0  0  0
  -24.7192  -31.0244   22.0920 N   0  0  0  0  0  0
  -23.4217  -28.8032   23.2943 O   0  0  0  0  0  0
  -28.3206  -26.1874   20.1509 O   0  0  0  0  0  0
  -26.5667  -34.8931   22.4685 O   0  0  0  0  0  0
  -23.5556  -32.1292   23.7073 O   0  0  0  0  0  0
  -27.9476  -18.5766   19.9091 C   0  0  0  0  0  0
  -30.2046  -17.9019   22.2889 C   0  0  0  0  0  0
  -29.4068  -22.3432   17.1514 C   0  0  0  0  0  0
  -27.0985  -21.9218   18.1854 C   0  0  0  0  0  0
  -29.0453  -23.3592   20.2923 C   0  0  0  0  0  0
  -29.5206  -20.5965   20.5058 C   0  0  0  0  0  0
  -28.2565  -24.7115   19.6423 C   0  0  0  0  0  0
  -29.4351  -18.9647   20.0073 C   0  0  1  0  0  0
  -30.2183  -17.6658   20.7663 C   0  0  2  0  0  0
  -28.6137  -21.6560   18.2809 C   0  0  0  0  0  0
  -29.8479  -16.1342   20.5515 N   0  0  0  0  0  0
  -29.2269  -21.9053   19.6281 N   0  3  1  0  0  0
  -31.4827  -12.7505   19.1390 H   0  0  0  0  0  0
  -30.4687  -11.6302   19.9935 H   0  0  0  0  0  0
  -29.8161  -11.7519   17.5479 H   0  0  0  0  0  0
  -29.6165  -13.4802   17.6856 H   0  0  0  0  0  0
  -27.9243  -11.2959   18.9477 H   0  0  0  0  0  0
  -27.3829  -12.5075   17.8179 H   0  0  0  0  0  0
  -27.6021  -14.2655   19.4165 H   0  0  0  0  0  0
  -28.7850  -12.3221   21.4637 H   0  0  0  0  0  0
  -28.4163  -14.0031   21.7415 H   0  0  0  0  0  0
  -25.2863   -9.5707   22.4720 H   0  0  0  0  0  0
  -24.0107   -7.4625   22.7423 H   0  0  0  0  0  0
  -21.0949   -8.8784   19.8909 H   0  0  0  0  0  0
  -22.3769  -10.9708   19.6143 H   0  0  0  0  0  0
  -21.1937   -7.6140   23.9710 H   0  0  0  0  0  0
  -21.1506   -6.0517   25.9078 H   0  0  0  0  0  0
  -22.0596   -2.7617   23.2824 H   0  0  0  0  0  0
  -22.4188  -11.9787   22.4837 H   0  0  0  0  0  0
  -21.1151  -13.1011   22.2618 H   0  0  0  0  0  0
  -24.6513  -15.8559   20.5024 H   0  0  0  0  0  0
  -26.2509  -15.6199   20.0096 H   0  0  0  0  0  0
  -26.7255  -32.5301   23.1010 H   0  0  0  0  0  0
  -24.9879  -33.9577   25.0248 H   0  0  0  0  0  0
  -22.7545  -31.2896   21.3773 H   0  0  0  0  0  0
  -23.3722  -35.9597   23.3270 H   0  0  0  0  0  0
  -24.3553  -36.8973   22.2073 H   0  0  0  0  0  0
  -23.7200  -37.6460   23.6716 H   0  0  0  0  0  0
  -26.1473  -31.4720   20.6097 H   0  0  0  0  0  0
  -26.8790  -30.7742   22.0180 H   0  0  0  0  0  0
  -28.1400  -28.8052   21.1945 H   0  0  0  0  0  0
  -25.9094  -25.8692   18.9416 H   0  0  0  0  0  0
  -23.9719  -27.3068   18.9815 H   0  0  0  0  0  0
  -23.7908  -30.5574   19.3929 H   0  0  0  0  0  0
  -22.7898  -29.2131   19.8547 H   0  0  0  0  0  0
  -25.1242  -36.1883   25.0820 H   0  0  0  0  0  0
  -21.0059  -28.3256   24.1337 H   0  0  0  0  0  0
  -20.5536  -26.2316   23.3637 H   0  0  0  0  0  0
  -21.6600  -26.7243   22.1268 H   0  0  0  0  0  0
  -19.6813  -25.6237   21.1279 H   0  0  0  0  0  0
  -19.6621  -27.3129   20.6725 H   0  0  0  0  0  0
  -17.4145  -26.6691   21.4073 H   0  0  0  0  0  0
  -18.0285  -26.0031   22.9025 H   0  0  0  0  0  0
  -19.7934  -30.7248   24.2312 H   0  0  0  0  0  0
  -17.4984  -31.6261   24.5122 H   0  0  0  0  0  0
  -15.5343  -30.2943   23.7557 H   0  0  0  0  0  0
  -15.8722  -28.0738   22.7084 H   0  0  0  0  0  0
  -24.5795  -30.7188   25.7702 H   0  0  0  0  0  0
  -24.8884  -32.2994   26.4813 H   0  0  0  0  0  0
  -25.7901  -30.8939   27.0236 H   0  0  0  0  0  0
  -26.2950  -29.6700   24.1332 H   0  0  0  0  0  0
  -27.3864  -29.7237   25.4957 H   0  0  0  0  0  0
  -27.8911  -30.4135   23.9714 H   0  0  0  0  0  0
  -27.2547  -33.3624   26.2149 H   0  0  0  0  0  0
  -28.3822  -32.7015   25.0419 H   0  0  0  0  0  0
  -28.0690  -31.8510   26.5475 H   0  0  0  0  0  0
  -28.2551  -38.0108   24.7513 H   0  0  0  0  0  0
  -28.1108  -36.2657   24.6243 H   0  0  0  0  0  0
  -27.2327  -37.1374   25.8870 H   0  0  0  0  0  0
  -20.9446  -29.8878   21.6923 H   0  0  0  0  0  0
  -26.0154  -38.2823   24.1417 H   0  0  0  0  0  0
  -27.3656  -19.2735   19.3093 H   0  0  0  0  0  0
  -27.4996  -18.5355   20.9011 H   0  0  0  0  0  0
  -27.8240  -17.5969   19.4544 H   0  0  0  0  0  0
  -30.7002  -18.8398   22.5532 H   0  0  0  0  0  0
  -30.7213  -17.1052   22.8232 H   0  0  0  0  0  0
  -29.1870  -17.9497   22.6768 H   0  0  0  0  0  0
  -29.0404  -22.0318   16.1711 H   0  0  0  0  0  0
  -30.4652  -22.0875   17.1886 H   0  0  0  0  0  0
  -29.3422  -23.4271   17.1744 H   0  0  0  0  0  0
  -26.6747  -21.3451   17.3555 H   0  0  0  0  0  0
  -26.8790  -22.9661   17.9643 H   0  0  0  0  0  0
  -26.5568  -21.6428   19.0880 H   0  0  0  0  0  0
  -28.6020  -23.1908   21.2730 H   0  0  0  0  0  0
  -30.0648  -23.6906   20.5081 H   0  0  0  0  0  0
  -30.5294  -20.7447   20.8887 H   0  0  0  0  0  0
  -28.9025  -20.6838   21.3955 H   0  0  0  0  0  0
  -27.2129  -24.4144   19.6375 H   0  0  0  0  0  0
  -28.5294  -24.7979   18.5928 H   0  0  0  0  0  0
  -29.8447  -18.9436   19.0019 H   0  0  0  0  0  0
  -31.2710  -17.7380   20.4845 H   0  0  0  0  0  0
  -28.7411  -20.5996   18.0644 H   0  0  0  0  0  0
  -28.8677  -15.9453   20.6816 H   0  0  0  0  0  0
  -30.1727  -22.0224   19.2962 H   0  0  0  0  0  0
  1 25  1  0  0  0
  1 30  2  0  0  0
  1 81  1  0  0  0
  2  3  1  0  0  0
  2 25  1  0  0  0
  2 83  1  0  0  0
  2 84  1  0  0  0
  3  4  1  0  0  0
  3 85  1  0  0  0
  3 86  1  0  0  0
  4  5  1  0  0  0
  4 87  1  0  0  0
  4 88  1  0  0  0
  5  6  1  0  0  0
  5 26  1  0  0  0
  5 89  1  0  0  0
  6 25  1  0  0  0
  6 90  1  0  0  0
  6 91  1  0  0  0
  7  8  2  0  0  0
  7 26  1  0  0  0
  7 29  1  0  0  0
  8  9  1  0  0  0
  8 22  1  0  0  0
  9 10  1  0  0  0
  9 27  2  0  0  0
 10 11  2  0  0  0
 10 15  1  0  0  0
 11 12  1  0  0  0
 11 92  1  0  0  0
 12 13  2  0  0  0
 12 93  1  0  0  0
 13 14  1  0  0  0
 13 31  1  0  0  0
 14 15  2  0  0  0
 14 94  1  0  0  0
 15 95  1  0  0  0
 16 17  2  0  0  0
 16 21  1  0  0  0
 16 31  1  0  0  0
 17 18  1  0  0  0
 17 96  1  0  0  0
 18 19  2  0  0  0
 18 97  1  0  0  0
 19 20  1  0  0  0
 19 24  1  0  0  0
 20 21  2  0  0  0
 20 98  1  0  0  0
 21 23  1  0  0  0
 22 28  1  0  0  0
 22 32  2  0  0  0
 26 27  1  0  0  0
 28 99  1  0  0  0
 28100  1  0  0  0
 29101  1  0  0  0
 29102  1  0  0  0
 33 34  1  0  0  0
 33 66  1  0  0  0
 33 70  2  0  0  0
 34 36  1  0  0  0
 34 59  1  0  0  0
 34103  1  0  0  0
 35 44  2  0  0  0
 35 45  1  0  0  0
 35 68  1  0  0  0
 36 56  1  0  0  0
 36104  1  0  0  0
 37 39  1  0  0  0
 37 47  1  0  0  0
 37 66  1  0  0  0
 37105  1  0  0  0
 38 43  2  0  0  0
 38 46  1  0  0  0
 38 47  1  0  0  0
 39 64  1  0  0  0
 39 67  2  0  0  0
 40 52  1  0  0  0
 40 53  2  0  0  0
 40 58  1  0  0  0
 41106  1  0  0  0
 41107  1  0  0  0
 41108  1  0  0  0
 41 48  1  0  0  0
 42 43  1  0  0  0
 42 66  1  0  0  0
 42109  1  0  0  0
 42110  1  0  0  0
 43 44  1  0  0  0
 44111  1  0  0  0
 45 46  2  0  0  0
 45112  1  0  0  0
 46113  1  0  0  0
 47114  1  0  0  0
 47115  1  0  0  0
 48 56  1  0  0  0
 48 65  1  0  0  0
 48116  1  0  0  0
 49 50  1  0  0  0
 49 53  1  0  0  0
 49 64  1  0  0  0
 49117  1  0  0  0
 50 51  1  0  0  0
 50118  1  0  0  0
 50119  1  0  0  0
 51 52  1  0  0  0
 51120  1  0  0  0
 51121  1  0  0  0
 52122  1  0  0  0
 52123  1  0  0  0
 53 54  1  0  0  0
 54 55  2  0  0  0
 54124  1  0  0  0
 55 57  1  0  0  0
 55125  1  0  0  0
 56 69  2  0  0  0
 57 58  2  0  0  0
 57126  1  0  0  0
 58127  1  0  0  0
 59 60  1  0  0  0
 59 61  1  0  0  0
 59 62  1  0  0  0
 60128  1  0  0  0
 60129  1  0  0  0
 60130  1  0  0  0
 61131  1  0  0  0
 61132  1  0  0  0
 61133  1  0  0  0
 62134  1  0  0  0
 62135  1  0  0  0
 62136  1  0  0  0
 63 65  1  0  0  0
 63137  1  0  0  0
 63138  1  0  0  0
 63139  1  0  0  0
 64140  1  0  0  0
 65141  1  0  0  0
 68 77  1  0  0  0
 71142  1  0  0  0
 71143  1  0  0  0
 71144  1  0  0  0
 71 78  1  0  0  0
 72145  1  0  0  0
 72146  1  0  0  0
 72147  1  0  0  0
 72 79  1  0  0  0
 73148  1  0  0  0
 73149  1  0  0  0
 73150  1  0  0  0
 73 80  1  0  0  0
 74 80  1  0  0  0
 74151  1  0  0  0
 74152  1  0  0  0
 74153  1  0  0  0
 75 77  1  0  0  0
 75154  1  0  0  0
 75155  1  0  0  0
 75 82  1  0  0  0
 76 78  1  0  0  0
 76 82  1  0  0  0
 76156  1  0  0  0
 76157  1  0  0  0
 77158  1  0  0  0
 77159  1  0  0  0
 78 79  1  0  0  0
 78160  1  0  0  0
 79 81  1  0  0  0
 79161  1  0  0  0
 80 82  1  0  0  0
 80162  1  0  0  0
 81163  1  0  0  0
 82164  1  0  0  0
M  CHG  1  82   1
M  ISO  4   1 100  68 101  77 101  81 100
M  END
> <chiral flag>
0

> <version>
0

> <s_m_source_file>
/data/baiqing/PycharmProjects/Reinvent-master-3.2/result/LINK_invent/BTK/process_docking_weight1_custom_sum_contain_oxygen_bond_distance_aromatic_linkinvent_7_9_3/rearranged_h_0100.sdf

> <i_m_source_file_index>
25

> <r_mmod_Potential_Energy-OPLS-2005>
501.143493652344

> <r_mmod_Stretch_Energy-OPLS-2005>
296.245971679688

> <r_mmod_Bend_Energy-OPLS-2005>
317.049591064453

> <r_mmod_Torsional_Energy-OPLS-2005>
254.885848999023

> <r_mmod_Improper_Torsional_Energy-OPLS-2005>
4.50081443786621

> <r_mmod_Van_der_Waal_Energy-OPLS-2005>
108.760452270508

> <r_mmod_Electrostatic_Energy-OPLS-2005>
-232.279754638672

> <r_mmod_Solvation_Energy-OPLS-2005>
-427.229370117188

> <b_mmod_Minimization_Converged-OPLS-2005>
0

> <r_mmod_RMS_Derivative-OPLS-2005>
7.48589611053467

$$$$
25
                    3D
 Structure written by MMmdl.
183192  0  0  1  0            999 V2000
  -30.6929  -14.4688   20.3656 C   0  0  0  0  0  0
  -30.4168  -12.2452   19.4355 C   0  0  0  0  0  0
  -29.4995  -12.4065   18.2033 C   0  0  0  0  0  0
  -28.0178  -12.2997   18.6277 C   0  0  0  0  0  0
  -27.6521  -13.1889   19.8493 C   0  0  2  0  0  0
  -28.7059  -13.0725   20.9761 C   0  0  0  0  0  0
  -25.2640  -13.8011   20.5867 C   0  0  0  0  0  0
  -24.1841  -13.0348   20.9271 C   0  0  0  0  0  0
  -24.6364  -11.6814   20.8805 C   0  0  0  0  0  0
  -23.9017  -10.4230   21.0431 C   0  0  0  0  0  0
  -24.3574   -9.4152   21.9203 C   0  0  0  0  0  0
  -23.6258   -8.2184   22.0753 C   0  0  0  0  0  0
  -22.4243   -8.0223   21.3532 C   0  0  0  0  0  0
  -21.9894   -9.0196   20.4614 C   0  0  0  0  0  0
  -22.7226  -10.2073   20.3031 C   0  0  0  0  0  0
  -21.6827   -6.0705   22.5286 C   0  0  0  0  0  0
  -21.3981   -6.5624   23.8210 C   0  0  0  0  0  0
  -21.3658   -5.6789   24.9181 C   0  0  0  0  0  0
  -21.6062   -4.3052   24.7269 C   0  0  0  0  0  0
  -21.8826   -3.8135   23.4392 C   0  0  0  0  0  0
  -21.9195   -4.6941   22.3424 C   0  0  0  0  0  0
  -22.7864  -13.5198   21.1896 C   0  0  0  0  0  0
  -22.1690   -4.2116   21.1007 F   0  0  0  0  0  0
  -21.5631   -3.4530   25.7789 F   0  0  0  0  0  0
  -30.0348  -13.2867   20.3894 N   0  0  0  0  0  0
  -26.2993  -12.9180   20.3300 N   0  0  0  0  0  0
  -25.9269  -11.6386   20.5766 N   0  0  0  0  0  0
  -22.0461  -12.8168   22.0417 N   0  0  0  0  0  0
  -25.4502  -15.1691   20.4572 N   0  0  0  0  0  0
  -31.9131  -14.5674   20.2803 O   0  0  0  0  0  0
  -21.6597   -6.8826   21.4232 O   0  0  0  0  0  0
  -22.3582  -14.5535   20.6755 O   0  0  0  0  0  0
  -24.6102  -31.8696   23.2166 C   0  0  0  0  0  0
  -25.9052  -32.4835   23.8368 C   0  0  1  0  0  0
  -27.2355  -27.4937   20.0711 C   0  0  0  0  0  0
  -25.5940  -33.8613   24.2360 N   0  0  0  0  0  0
  -23.3942  -30.4936   21.5521 C   0  0  2  0  0  0
  -24.8462  -28.9774   20.1011 C   0  0  0  0  0  0
  -22.7393  -29.4633   22.5006 C   0  0  0  0  0  0
  -18.0262  -28.1335   22.8464 C   0  0  0  0  0  0
  -24.1481  -36.7293   23.2609 C   0  0  0  0  0  0
  -25.9170  -30.8533   21.3661 C   0  0  0  0  0  0
  -26.0010  -29.4936   20.7088 C   0  0  0  0  0  0
  -27.1984  -28.7501   20.7064 C   0  0  0  0  0  0
  -26.0906  -27.0112   19.4192 C   0  0  0  0  0  0
  -24.8823  -27.7287   19.4544 C   0  0  0  0  0  0
  -23.6035  -29.8339   20.1633 C   0  0  0  0  0  0
  -25.4113  -36.3117   24.0324 C   0  0  1  0  0  0
  -20.5844  -28.3607   23.1321 C   0  0  2  0  0  0
  -20.6763  -26.9344   22.5412 C   0  0  0  0  0  0
  -19.5765  -26.6373   21.5177 C   0  0  0  0  0  0
  -18.1936  -26.7891   22.1591 C   0  0  0  0  0  0
  -19.1507  -28.8793   23.2881 C   0  0  0  0  0  0
  -18.9458  -30.1424   23.8873 C   0  0  0  0  0  0
  -17.6463  -30.6547   24.0547 C   0  0  0  0  0  0
  -25.9026  -34.9463   23.5117 C   0  0  0  0  0  0
  -16.5336  -29.9056   23.6305 C   0  0  0  0  0  0
  -16.7260  -28.6460   23.0316 C   0  0  0  0  0  0
  -26.4533  -31.6565   25.0652 C   0  0  0  0  0  0
  -25.3833  -31.3653   26.1427 C   0  0  0  0  0  0
  -27.0284  -30.2976   24.5969 C   0  0  0  0  0  0
  -27.6124  -32.4243   25.7422 C   0  0  0  0  0  0
  -27.5590  -37.1814   24.8455 C   0  0  0  0  0  0
  -21.4117  -29.2974   22.3736 N   0  0  0  0  0  0
  -26.4307  -37.3820   23.9411 N   0  0  0  0  0  0
  -24.6564  -31.0855   22.1038 N   0  0  0  0  0  0
  -23.4177  -28.8174   23.3023 O   0  0  0  0  0  0
  -28.3486  -26.6989   20.1187 O   0  0  0  0  0  0
  -26.5555  -34.8909   22.4656 O   0  0  0  0  0  0
  -23.5335  -32.1420   23.7615 O   0  0  0  0  0  0
  -29.7401  -22.0020   20.1444 C   0  0  0  0  0  0
  -29.3002  -23.2311   20.6473 C   0  0  0  0  0  0
  -29.2812  -19.7483   19.3912 C   0  0  0  0  0  0
  -26.5381  -20.2184   19.5564 C   0  0  0  0  0  0
  -28.8096  -21.0078   19.8111 C   0  0  0  0  0  0
  -27.4216  -21.2633   19.9277 C   0  0  0  0  0  0
  -27.9267  -23.5117   20.8200 C   0  0  0  0  0  0
  -28.3881  -18.7048   19.0830 C   0  0  0  0  0  0
  -26.9971  -18.9602   19.1208 C   0  0  0  0  0  0
  -26.9634  -22.5225   20.4281 C   0  0  0  0  0  0
  -25.9717  -17.2816   16.2501 C   0  0  0  0  0  0
  -23.8136  -17.9896   17.3140 C   0  0  0  0  0  0
  -24.6764  -22.4934   18.1111 C   0  0  0  0  0  0
  -23.3889  -23.9866   19.6779 C   0  0  0  0  0  0
  -27.5448  -24.8113   21.5525 C   0  0  0  0  0  0
  -28.9817  -17.3485   18.7444 C   0  0  0  0  0  0
  -25.9501  -17.9318   18.7167 C   0  0  0  0  0  0
  -25.4531  -22.7739   20.5919 C   0  0  0  0  0  0
  -29.2982  -16.5095   20.0013 C   0  0  0  0  0  0
  -28.4704  -26.0508   21.3876 C   0  0  0  0  0  0
  -25.3390  -18.1832   17.3168 C   0  0  0  0  0  0
  -24.7716  -23.4056   19.3471 C   0  0  0  0  0  0
  -30.0396  -15.3326   19.5846 N   0  0  0  0  0  0
  -31.4704  -12.3098   19.1504 H   0  0  0  0  0  0
  -30.2779  -11.2634   19.8908 H   0  0  0  0  0  0
  -29.7254  -11.6274   17.4739 H   0  0  0  0  0  0
  -29.6840  -13.3567   17.6964 H   0  0  0  0  0  0
  -27.8367  -11.2546   18.8811 H   0  0  0  0  0  0
  -27.3631  -12.5228   17.7849 H   0  0  0  0  0  0
  -27.6550  -14.2113   19.4832 H   0  0  0  0  0  0
  -28.6698  -12.0915   21.4515 H   0  0  0  0  0  0
  -28.5052  -13.8069   21.7604 H   0  0  0  0  0  0
  -25.2700   -9.5630   22.4800 H   0  0  0  0  0  0
  -23.9949   -7.4584   22.7495 H   0  0  0  0  0  0
  -21.0805   -8.8715   19.8953 H   0  0  0  0  0  0
  -22.3699  -10.9604   19.6142 H   0  0  0  0  0  0
  -21.1940   -7.6123   23.9692 H   0  0  0  0  0  0
  -21.1484   -6.0523   25.9073 H   0  0  0  0  0  0
  -22.0617   -2.7584   23.2914 H   0  0  0  0  0  0
  -22.4075  -11.9904   22.4950 H   0  0  0  0  0  0
  -21.1076  -13.1227   22.2535 H   0  0  0  0  0  0
  -24.7152  -15.8369   20.6533 H   0  0  0  0  0  0
  -26.3362  -15.5960   20.2271 H   0  0  0  0  0  0
  -26.7110  -32.5654   23.1124 H   0  0  0  0  0  0
  -25.0202  -33.9751   25.0573 H   0  0  0  0  0  0
  -22.6764  -31.3042   21.4194 H   0  0  0  0  0  0
  -23.3764  -35.9602   23.3277 H   0  0  0  0  0  0
  -24.3553  -36.8920   22.2027 H   0  0  0  0  0  0
  -23.7249  -37.6506   23.6586 H   0  0  0  0  0  0
  -26.0233  -31.6317   20.6089 H   0  0  0  0  0  0
  -26.8008  -30.9017   21.9864 H   0  0  0  0  0  0
  -28.0825  -29.1350   21.1967 H   0  0  0  0  0  0
  -26.1561  -26.0830   18.8829 H   0  0  0  0  0  0
  -24.0049  -27.3292   18.9662 H   0  0  0  0  0  0
  -23.7088  -30.6075   19.4026 H   0  0  0  0  0  0
  -22.7310  -29.2477   19.8731 H   0  0  0  0  0  0
  -25.1313  -36.1948   25.0831 H   0  0  0  0  0  0
  -20.9932  -28.3182   24.1435 H   0  0  0  0  0  0
  -20.5654  -26.2182   23.3561 H   0  0  0  0  0  0
  -21.6649  -26.7393   22.1211 H   0  0  0  0  0  0
  -19.6918  -25.6290   21.1178 H   0  0  0  0  0  0
  -19.6752  -27.3199   20.6710 H   0  0  0  0  0  0
  -17.4215  -26.6607   21.3990 H   0  0  0  0  0  0
  -18.0350  -26.0027   22.8976 H   0  0  0  0  0  0
  -19.7939  -30.7245   24.2221 H   0  0  0  0  0  0
  -17.5009  -31.6233   24.5173 H   0  0  0  0  0  0
  -15.5333  -30.2956   23.7654 H   0  0  0  0  0  0
  -15.8647  -28.0817   22.7016 H   0  0  0  0  0  0
  -24.6051  -30.6934   25.7813 H   0  0  0  0  0  0
  -24.8971  -32.2792   26.4825 H   0  0  0  0  0  0
  -25.8269  -30.8905   27.0187 H   0  0  0  0  0  0
  -26.2762  -29.6815   24.1047 H   0  0  0  0  0  0
  -27.4066  -29.7169   25.4399 H   0  0  0  0  0  0
  -27.8597  -30.4242   23.9025 H   0  0  0  0  0  0
  -27.2754  -33.3540   26.1997 H   0  0  0  0  0  0
  -28.3949  -32.6823   25.0265 H   0  0  0  0  0  0
  -28.0721  -31.8341   26.5367 H   0  0  0  0  0  0
  -28.2639  -38.0089   24.7542 H   0  0  0  0  0  0
  -28.1085  -36.2651   24.6251 H   0  0  0  0  0  0
  -27.2257  -37.1421   25.8838 H   0  0  0  0  0  0
  -20.9238  -29.8717   21.7004 H   0  0  0  0  0  0
  -26.0190  -38.2884   24.1474 H   0  0  0  0  0  0
  -30.8027  -21.8187   20.0540 H   0  0  0  0  0  0
  -30.0594  -23.9350   20.9481 H   0  0  0  0  0  0
  -30.3443  -19.5656   19.3352 H   0  0  0  0  0  0
  -25.4697  -20.3501   19.5938 H   0  0  0  0  0  0
  -25.5849  -17.5163   15.2575 H   0  0  0  0  0  0
  -25.7567  -16.2303   16.4529 H   0  0  0  0  0  0
  -27.0531  -17.4101   16.2130 H   0  0  0  0  0  0
  -23.4031  -18.1746   16.3213 H   0  0  0  0  0  0
  -23.3260  -18.6808   18.0034 H   0  0  0  0  0  0
  -23.5408  -16.9723   17.6008 H   0  0  0  0  0  0
  -24.2199  -23.0206   17.2703 H   0  0  0  0  0  0
  -24.0706  -21.6073   18.3042 H   0  0  0  0  0  0
  -25.6631  -22.1721   17.7776 H   0  0  0  0  0  0
  -22.9892  -24.5490   18.8312 H   0  0  0  0  0  0
  -23.4266  -24.6701   20.5271 H   0  0  0  0  0  0
  -22.6746  -23.1973   19.9134 H   0  0  0  0  0  0
  -27.5203  -24.5606   22.6153 H   0  0  0  0  0  0
  -26.5329  -25.1194   21.3031 H   0  0  0  0  0  0
  -29.9034  -17.5271   18.1868 H   0  0  0  0  0  0
  -28.3470  -16.7930   18.0573 H   0  0  0  0  0  0
  -25.1700  -17.9883   19.4750 H   0  0  0  0  0  0
  -26.3317  -16.9187   18.7831 H   0  0  0  0  0  0
  -25.2973  -23.4119   21.4602 H   0  0  0  0  0  0
  -24.9292  -21.8688   20.8924 H   0  0  0  0  0  0
  -28.3866  -16.2363   20.5299 H   0  0  0  0  0  0
  -29.9053  -17.0895   20.6990 H   0  0  0  0  0  0
  -29.5144  -25.8245   21.5802 H   0  0  0  0  0  0
  -28.2149  -26.7574   22.1803 H   0  0  0  0  0  0
  -25.5229  -19.2206   17.0303 H   0  0  0  0  0  0
  -25.3927  -24.2388   19.0482 H   0  0  0  0  0  0
  -30.5819  -15.5234   18.7546 H   0  0  0  0  0  0
  1 25  1  0  0  0
  1 30  2  0  0  0
  1 93  1  0  0  0
  2  3  1  0  0  0
  2 25  1  0  0  0
  2 94  1  0  0  0
  2 95  1  0  0  0
  3  4  1  0  0  0
  3 96  1  0  0  0
  3 97  1  0  0  0
  4  5  1  0  0  0
  4 98  1  0  0  0
  4 99  1  0  0  0
  5  6  1  0  0  0
  5 26  1  0  0  0
  5100  1  0  0  0
  6 25  1  0  0  0
  6101  1  0  0  0
  6102  1  0  0  0
  7  8  2  0  0  0
  7 26  1  0  0  0
  7 29  1  0  0  0
  8  9  1  0  0  0
  8 22  1  0  0  0
  9 10  1  0  0  0
  9 27  2  0  0  0
 10 11  2  0  0  0
 10 15  1  0  0  0
 11 12  1  0  0  0
 11103  1  0  0  0
 12 13  2  0  0  0
 12104  1  0  0  0
 13 14  1  0  0  0
 13 31  1  0  0  0
 14 15  2  0  0  0
 14105  1  0  0  0
 15106  1  0  0  0
 16 17  2  0  0  0
 16 21  1  0  0  0
 16 31  1  0  0  0
 17 18  1  0  0  0
 17107  1  0  0  0
 18 19  2  0  0  0
 18108  1  0  0  0
 19 20  1  0  0  0
 19 24  1  0  0  0
 20 21  2  0  0  0
 20109  1  0  0  0
 21 23  1  0  0  0
 22 28  1  0  0  0
 22 32  2  0  0  0
 26 27  1  0  0  0
 28110  1  0  0  0
 28111  1  0  0  0
 29112  1  0  0  0
 29113  1  0  0  0
 33 34  1  0  0  0
 33 66  1  0  0  0
 33 70  2  0  0  0
 34 36  1  0  0  0
 34 59  1  0  0  0
 34114  1  0  0  0
 35 44  2  0  0  0
 35 45  1  0  0  0
 35 68  1  0  0  0
 36 56  1  0  0  0
 36115  1  0  0  0
 37 39  1  0  0  0
 37 47  1  0  0  0
 37 66  1  0  0  0
 37116  1  0  0  0
 38 43  2  0  0  0
 38 46  1  0  0  0
 38 47  1  0  0  0
 39 64  1  0  0  0
 39 67  2  0  0  0
 40 52  1  0  0  0
 40 53  2  0  0  0
 40 58  1  0  0  0
 41117  1  0  0  0
 41118  1  0  0  0
 41119  1  0  0  0
 41 48  1  0  0  0
 42 43  1  0  0  0
 42 66  1  0  0  0
 42120  1  0  0  0
 42121  1  0  0  0
 43 44  1  0  0  0
 44122  1  0  0  0
 45 46  2  0  0  0
 45123  1  0  0  0
 46124  1  0  0  0
 47125  1  0  0  0
 47126  1  0  0  0
 48 56  1  0  0  0
 48 65  1  0  0  0
 48127  1  0  0  0
 49 50  1  0  0  0
 49 53  1  0  0  0
 49 64  1  0  0  0
 49128  1  0  0  0
 50 51  1  0  0  0
 50129  1  0  0  0
 50130  1  0  0  0
 51 52  1  0  0  0
 51131  1  0  0  0
 51132  1  0  0  0
 52133  1  0  0  0
 52134  1  0  0  0
 53 54  1  0  0  0
 54 55  2  0  0  0
 54135  1  0  0  0
 55 57  1  0  0  0
 55136  1  0  0  0
 56 69  2  0  0  0
 57 58  2  0  0  0
 57137  1  0  0  0
 58138  1  0  0  0
 59 60  1  0  0  0
 59 61  1  0  0  0
 59 62  1  0  0  0
 60139  1  0  0  0
 60140  1  0  0  0
 60141  1  0  0  0
 61142  1  0  0  0
 61143  1  0  0  0
 61144  1  0  0  0
 62145  1  0  0  0
 62146  1  0  0  0
 62147  1  0  0  0
 63 65  1  0  0  0
 63148  1  0  0  0
 63149  1  0  0  0
 63150  1  0  0  0
 64151  1  0  0  0
 65152  1  0  0  0
 68 90  1  0  0  0
 71 72  2  0  0  0
 71 75  1  0  0  0
 71153  1  0  0  0
 72 77  1  0  0  0
 72154  1  0  0  0
 73 75  2  0  0  0
 73 78  1  0  0  0
 73155  1  0  0  0
 74 76  2  0  0  0
 74 79  1  0  0  0
 74156  1  0  0  0
 75 76  1  0  0  0
 76 80  1  0  0  0
 77 80  2  0  0  0
 77 85  1  0  0  0
 78 79  2  0  0  0
 78 86  1  0  0  0
 79 87  1  0  0  0
 80 88  1  0  0  0
 81157  1  0  0  0
 81158  1  0  0  0
 81159  1  0  0  0
 81 91  1  0  0  0
 82 91  1  0  0  0
 82160  1  0  0  0
 82161  1  0  0  0
 82162  1  0  0  0
 83163  1  0  0  0
 83164  1  0  0  0
 83165  1  0  0  0
 83 92  1  0  0  0
 84 92  1  0  0  0
 84166  1  0  0  0
 84167  1  0  0  0
 84168  1  0  0  0
 85 90  1  0  0  0
 85169  1  0  0  0
 85170  1  0  0  0
 86 89  1  0  0  0
 86171  1  0  0  0
 86172  1  0  0  0
 87 91  1  0  0  0
 87173  1  0  0  0
 87174  1  0  0  0
 88 92  1  0  0  0
 88175  1  0  0  0
 88176  1  0  0  0
 89 93  1  0  0  0
 89177  1  0  0  0
 89178  1  0  0  0
 90179  1  0  0  0
 90180  1  0  0  0
 91181  1  0  0  0
 92182  1  0  0  0
 93183  1  0  0  0
M  ISO  4   1 100  68 101  90 101  93 100
M  END
> <chiral flag>
0

> <version>
0

> <s_m_source_file>
/data/baiqing/PycharmProjects/Reinvent-master-3.2/result/LINK_invent/BTK/process_docking_weight1_custom_sum_contain_oxygen_bond_distance_aromatic_linkinvent_7_9_3/rearranged_h_0100.sdf

> <i_m_source_file_index>
26

> <r_mmod_Potential_Energy-OPLS-2005>
135.922805786133

> <r_mmod_Stretch_Energy-OPLS-2005>
39.4243087768555

> <r_mmod_Bend_Energy-OPLS-2005>
120.869438171387

> <r_mmod_Torsional_Energy-OPLS-2005>
315.602630615234

> <r_mmod_Improper_Torsional_Energy-OPLS-2005>
38.7725601196289

> <r_mmod_Van_der_Waal_Energy-OPLS-2005>
161.260314941406

> <r_mmod_Electrostatic_Energy-OPLS-2005>
-381.69970703125

> <r_mmod_Solvation_Energy-OPLS-2005>
-191.779891967773

> <b_mmod_Minimization_Converged-OPLS-2005>
0

> <r_mmod_RMS_Derivative-OPLS-2005>
5.26126146316528

$$$$
26
                    3D
 Structure written by MMmdl.
146153  0  0  1  0            999 V2000
  -30.1608  -16.0062   20.2966 C   0  0  0  0  0  0
  -30.3927  -13.3747   19.5072 C   0  0  0  0  0  0
  -29.5551  -12.7427   18.3465 C   0  0  0  0  0  0
  -28.1673  -12.3009   18.8271 C   0  0  0  0  0  0
  -27.5821  -13.3415   19.8015 C   0  0  2  0  0  0
  -28.5802  -13.8409   20.8822 C   0  0  0  0  0  0
  -25.2269  -13.8319   20.5864 C   0  0  0  0  0  0
  -24.1699  -13.0419   20.9332 C   0  0  0  0  0  0
  -24.6452  -11.6947   20.8770 C   0  0  0  0  0  0
  -23.9155  -10.4286   21.0386 C   0  0  0  0  0  0
  -24.3675   -9.4198   21.9178 C   0  0  0  0  0  0
  -23.6322   -8.2250   22.0753 C   0  0  0  0  0  0
  -22.4297   -8.0298   21.3546 C   0  0  0  0  0  0
  -21.9948   -9.0277   20.4648 C   0  0  0  0  0  0
  -22.7310  -10.2140   20.3045 C   0  0  0  0  0  0
  -21.6862   -6.0752   22.5288 C   0  0  0  0  0  0
  -21.4035   -6.5657   23.8225 C   0  0  0  0  0  0
  -21.3656   -5.6800   24.9180 C   0  0  0  0  0  0
  -21.6031   -4.3064   24.7223 C   0  0  0  0  0  0
  -21.8816   -3.8159   23.4342 C   0  0  0  0  0  0
  -21.9190   -4.6979   22.3403 C   0  0  0  0  0  0
  -22.7702  -13.5130   21.1948 C   0  0  0  0  0  0
  -22.1659   -4.2165   21.0977 F   0  0  0  0  0  0
  -21.5605   -3.4545   25.7731 F   0  0  0  0  0  0
  -29.6739  -14.5841   20.1774 N   0  0  0  0  0  0
  -26.2763  -12.9721   20.3299 N   0  0  0  0  0  0
  -25.9412  -11.6752   20.5693 N   0  0  0  0  0  0
  -22.0372  -12.8100   22.0500 N   0  0  0  0  0  0
  -25.3770  -15.2075   20.4318 N   0  0  0  0  0  0
  -31.4076  -15.8664   20.2826 O   0  0  0  0  0  0
  -21.6644   -6.8911   21.4257 O   0  0  0  0  0  0
  -22.3374  -14.5426   20.6778 O   0  0  0  0  0  0
  -24.7094  -31.7693   23.1299 C   0  0  0  0  0  0
  -25.9545  -32.4318   23.7938 C   0  0  1  0  0  0
  -27.2316  -26.4348   20.2452 C   0  0  0  0  0  0
  -25.6019  -33.8159   24.1802 N   0  0  0  0  0  0
  -23.5466  -30.3604   21.4912 C   0  0  2  0  0  0
  -25.0023  -28.6424   20.1336 C   0  0  0  0  0  0
  -22.7874  -29.4155   22.4646 C   0  0  0  0  0  0
  -18.0351  -28.1433   22.8438 C   0  0  0  0  0  0
  -24.1499  -36.7100   23.2662 C   0  0  0  0  0  0
  -26.1382  -30.4144   21.4326 C   0  0  0  0  0  0
  -26.1984  -28.9481   20.7924 C   0  0  0  0  0  0
  -27.2882  -27.8842   20.8000 C   0  0  0  0  0  0
  -25.9943  -26.4045   19.5310 C   0  0  0  0  0  0
  -24.9548  -27.3982   19.4772 C   0  0  0  0  0  0
  -23.8148  -29.6335   20.1390 C   0  0  0  0  0  0
  -25.4161  -36.2811   24.0261 C   0  0  1  0  0  0
  -20.5997  -28.3804   23.1096 C   0  0  2  0  0  0
  -20.6812  -26.9442   22.5402 C   0  0  0  0  0  0
  -19.5794  -26.6358   21.5217 C   0  0  0  0  0  0
  -18.1973  -26.7952   22.1614 C   0  0  0  0  0  0
  -19.1620  -28.8947   23.2738 C   0  0  0  0  0  0
  -18.9524  -30.1525   23.8797 C   0  0  0  0  0  0
  -17.6516  -30.6610   24.0544 C   0  0  0  0  0  0
  -25.9153  -34.9209   23.4885 C   0  0  0  0  0  0
  -16.5398  -29.9084   23.6354 C   0  0  0  0  0  0
  -16.7326  -28.6512   23.0368 C   0  0  0  0  0  0
  -26.4632  -31.6461   25.0668 C   0  0  0  0  0  0
  -25.3630  -31.3858   26.1235 C   0  0  0  0  0  0
  -27.0610  -30.2773   24.6752 C   0  0  0  0  0  0
  -27.6017  -32.4386   25.7516 C   0  0  0  0  0  0
  -27.5549  -37.1716   24.8472 C   0  0  0  0  0  0
  -21.4498  -29.3004   22.3396 N   0  0  0  0  0  0
  -26.4266  -37.3596   23.9392 N   0  0  0  0  0  0
  -24.8251  -30.8877   22.0697 N   0  0  0  0  0  0
  -23.4197  -28.7788   23.3101 O   0  0  0  0  0  0
  -28.1925  -25.1183   20.2123 O   0  0  0  0  0  0
  -26.5828  -34.8834   22.4525 O   0  0  0  0  0  0
  -23.6059  -32.0889   23.6091 O   0  0  0  0  0  0
  -28.8026  -19.3481   22.0127 C   0  0  0  0  0  0
  -30.9076  -19.6307   20.7158 C   0  0  0  0  0  0
  -28.7359  -21.2604   19.9875 C   0  0  0  0  0  0
  -28.2189  -23.2408   20.5144 C   0  0  0  0  0  0
  -29.4012  -19.3577   20.5994 C   0  0  0  0  0  0
  -29.4154  -17.4776   20.2510 N   0  0  0  0  0  0
  -31.3399  -13.7086   19.0814 H   0  0  0  0  0  0
  -30.6745  -12.6197   20.2430 H   0  0  0  0  0  0
  -30.0868  -11.8995   17.9047 H   0  0  0  0  0  0
  -29.4391  -13.4830   17.5530 H   0  0  0  0  0  0
  -28.2766  -11.3460   19.3425 H   0  0  0  0  0  0
  -27.4974  -12.1227   17.9849 H   0  0  0  0  0  0
  -27.3877  -14.2030   19.1604 H   0  0  0  0  0  0
  -28.9400  -13.0269   21.5137 H   0  0  0  0  0  0
  -28.0792  -14.5409   21.5533 H   0  0  0  0  0  0
  -25.2811   -9.5660   22.4772 H   0  0  0  0  0  0
  -24.0004   -7.4638   22.7475 H   0  0  0  0  0  0
  -21.0871   -8.8826   19.8965 H   0  0  0  0  0  0
  -22.3773  -10.9687   19.6162 H   0  0  0  0  0  0
  -21.2062   -7.6169   23.9739 H   0  0  0  0  0  0
  -21.1471   -6.0531   25.9087 H   0  0  0  0  0  0
  -22.0591   -2.7622   23.2841 H   0  0  0  0  0  0
  -22.4018  -11.9776   22.4895 H   0  0  0  0  0  0
  -21.0983  -13.1106   22.2704 H   0  0  0  0  0  0
  -24.5989  -15.8466   20.5518 H   0  0  0  0  0  0
  -26.2195  -15.6632   20.1081 H   0  0  0  0  0  0
  -26.7654  -32.4724   23.0667 H   0  0  0  0  0  0
  -25.0031  -33.9141   24.9867 H   0  0  0  0  0  0
  -22.8874  -31.2049   21.2790 H   0  0  0  0  0  0
  -23.3760  -35.9429   23.3292 H   0  0  0  0  0  0
  -24.3544  -36.8809   22.2081 H   0  0  0  0  0  0
  -23.7271  -37.6269   23.6782 H   0  0  0  0  0  0
  -26.3667  -31.1169   20.6301 H   0  0  0  0  0  0
  -26.9821  -30.4947   22.1045 H   0  0  0  0  0  0
  -28.1949  -28.1448   21.3271 H   0  0  0  0  0  0
  -25.7853  -25.4860   19.0008 H   0  0  0  0  0  0
  -24.0609  -27.1508   18.9204 H   0  0  0  0  0  0
  -24.0184  -30.3823   19.3729 H   0  0  0  0  0  0
  -22.9130  -29.1181   19.8042 H   0  0  0  0  0  0
  -25.1386  -36.1544   25.0752 H   0  0  0  0  0  0
  -21.0066  -28.3448   24.1227 H   0  0  0  0  0  0
  -20.5664  -26.2432   23.3683 H   0  0  0  0  0  0
  -21.6672  -26.7354   22.1229 H   0  0  0  0  0  0
  -19.6949  -25.6240   21.1315 H   0  0  0  0  0  0
  -19.6744  -27.3111   20.6703 H   0  0  0  0  0  0
  -17.4241  -26.6674   21.4023 H   0  0  0  0  0  0
  -18.0365  -26.0124   22.9040 H   0  0  0  0  0  0
  -19.8000  -30.7364   24.2127 H   0  0  0  0  0  0
  -17.5062  -31.6277   24.5162 H   0  0  0  0  0  0
  -15.5400  -30.2961   23.7738 H   0  0  0  0  0  0
  -15.8723  -28.0801   22.7144 H   0  0  0  0  0  0
  -24.5832  -30.7199   25.7519 H   0  0  0  0  0  0
  -24.8808  -32.3110   26.4398 H   0  0  0  0  0  0
  -25.7737  -30.9176   27.0188 H   0  0  0  0  0  0
  -26.3370  -29.6296   24.1802 H   0  0  0  0  0  0
  -27.3997  -29.7336   25.5580 H   0  0  0  0  0  0
  -27.9362  -30.3841   24.0347 H   0  0  0  0  0  0
  -27.2500  -33.3767   26.1824 H   0  0  0  0  0  0
  -28.3972  -32.6826   25.0465 H   0  0  0  0  0  0
  -28.0532  -31.8712   26.5664 H   0  0  0  0  0  0
  -28.2556  -38.0018   24.7465 H   0  0  0  0  0  0
  -28.1055  -36.2531   24.6374 H   0  0  0  0  0  0
  -27.2251  -37.1442   25.8873 H   0  0  0  0  0  0
  -20.9867  -29.8623   21.6391 H   0  0  0  0  0  0
  -26.0076  -38.2640   24.1371 H   0  0  0  0  0  0
  -28.9723  -20.2961   22.5247 H   0  0  0  0  0  0
  -29.2315  -18.5582   22.6306 H   0  0  0  0  0  0
  -27.7247  -19.1893   21.9738 H   0  0  0  0  0  0
  -31.1061  -20.6215   21.1258 H   0  0  0  0  0  0
  -31.3841  -19.5814   19.7363 H   0  0  0  0  0  0
  -31.4040  -18.9045   21.3606 H   0  0  0  0  0  0
  -29.4594  -21.4647   19.1980 H   0  0  0  0  0  0
  -27.8490  -20.9833   19.4167 H   0  0  0  0  0  0
  -28.7376  -23.2837   21.4721 H   0  0  0  0  0  0
  -27.1784  -23.1010   20.8076 H   0  0  0  0  0  0
  -28.4586  -17.2384   20.0275 H   0  0  0  0  0  0
  1 25  1  0  0  0
  1 30  2  0  0  0
  1 76  1  0  0  0
  2  3  1  0  0  0
  2 25  1  0  0  0
  2 77  1  0  0  0
  2 78  1  0  0  0
  3  4  1  0  0  0
  3 79  1  0  0  0
  3 80  1  0  0  0
  4  5  1  0  0  0
  4 81  1  0  0  0
  4 82  1  0  0  0
  5  6  1  0  0  0
  5 26  1  0  0  0
  5 83  1  0  0  0
  6 25  1  0  0  0
  6 84  1  0  0  0
  6 85  1  0  0  0
  7  8  2  0  0  0
  7 26  1  0  0  0
  7 29  1  0  0  0
  8  9  1  0  0  0
  8 22  1  0  0  0
  9 10  1  0  0  0
  9 27  2  0  0  0
 10 11  2  0  0  0
 10 15  1  0  0  0
 11 12  1  0  0  0
 11 86  1  0  0  0
 12 13  2  0  0  0
 12 87  1  0  0  0
 13 14  1  0  0  0
 13 31  1  0  0  0
 14 15  2  0  0  0
 14 88  1  0  0  0
 15 89  1  0  0  0
 16 17  2  0  0  0
 16 21  1  0  0  0
 16 31  1  0  0  0
 17 18  1  0  0  0
 17 90  1  0  0  0
 18 19  2  0  0  0
 18 91  1  0  0  0
 19 20  1  0  0  0
 19 24  1  0  0  0
 20 21  2  0  0  0
 20 92  1  0  0  0
 21 23  1  0  0  0
 22 28  1  0  0  0
 22 32  2  0  0  0
 26 27  1  0  0  0
 28 93  1  0  0  0
 28 94  1  0  0  0
 29 95  1  0  0  0
 29 96  1  0  0  0
 33 34  1  0  0  0
 33 66  1  0  0  0
 33 70  2  0  0  0
 34 36  1  0  0  0
 34 59  1  0  0  0
 34 97  1  0  0  0
 35 44  2  0  0  0
 35 45  1  0  0  0
 35 68  1  0  0  0
 36 56  1  0  0  0
 36 98  1  0  0  0
 37 39  1  0  0  0
 37 47  1  0  0  0
 37 66  1  0  0  0
 37 99  1  0  0  0
 38 43  2  0  0  0
 38 46  1  0  0  0
 38 47  1  0  0  0
 39 64  1  0  0  0
 39 67  2  0  0  0
 40 52  1  0  0  0
 40 53  2  0  0  0
 40 58  1  0  0  0
 41100  1  0  0  0
 41101  1  0  0  0
 41102  1  0  0  0
 41 48  1  0  0  0
 42 43  1  0  0  0
 42 66  1  0  0  0
 42103  1  0  0  0
 42104  1  0  0  0
 43 44  1  0  0  0
 44105  1  0  0  0
 45 46  2  0  0  0
 45106  1  0  0  0
 46107  1  0  0  0
 47108  1  0  0  0
 47109  1  0  0  0
 48 56  1  0  0  0
 48 65  1  0  0  0
 48110  1  0  0  0
 49 50  1  0  0  0
 49 53  1  0  0  0
 49 64  1  0  0  0
 49111  1  0  0  0
 50 51  1  0  0  0
 50112  1  0  0  0
 50113  1  0  0  0
 51 52  1  0  0  0
 51114  1  0  0  0
 51115  1  0  0  0
 52116  1  0  0  0
 52117  1  0  0  0
 53 54  1  0  0  0
 54 55  2  0  0  0
 54118  1  0  0  0
 55 57  1  0  0  0
 55119  1  0  0  0
 56 69  2  0  0  0
 57 58  2  0  0  0
 57120  1  0  0  0
 58121  1  0  0  0
 59 60  1  0  0  0
 59 61  1  0  0  0
 59 62  1  0  0  0
 60122  1  0  0  0
 60123  1  0  0  0
 60124  1  0  0  0
 61125  1  0  0  0
 61126  1  0  0  0
 61127  1  0  0  0
 62128  1  0  0  0
 62129  1  0  0  0
 62130  1  0  0  0
 63 65  1  0  0  0
 63131  1  0  0  0
 63132  1  0  0  0
 63133  1  0  0  0
 64134  1  0  0  0
 65135  1  0  0  0
 68 74  1  0  0  0
 71136  1  0  0  0
 71137  1  0  0  0
 71138  1  0  0  0
 71 75  1  0  0  0
 72 75  1  0  0  0
 72139  1  0  0  0
 72140  1  0  0  0
 72141  1  0  0  0
 73 74  1  0  0  0
 73 75  1  0  0  0
 73142  1  0  0  0
 73143  1  0  0  0
 74144  1  0  0  0
 74145  1  0  0  0
 75 76  1  0  0  0
 76146  1  0  0  0
M  ISO  4   1 100  68 101  74 101  76 100
M  END
> <chiral flag>
0

> <version>
0

> <s_m_source_file>
/data/baiqing/PycharmProjects/Reinvent-master-3.2/result/LINK_invent/BTK/process_docking_weight1_custom_sum_contain_oxygen_bond_distance_aromatic_linkinvent_7_9_3/rearranged_h_0100.sdf

> <i_m_source_file_index>
27

> <r_mmod_Potential_Energy-OPLS-2005>
4213.8564453125

> <r_mmod_Stretch_Energy-OPLS-2005>
1938.12573242188

> <r_mmod_Bend_Energy-OPLS-2005>
906.880920410156

> <r_mmod_Torsional_Energy-OPLS-2005>
250.115875244141

> <r_mmod_Improper_Torsional_Energy-OPLS-2005>
5.11795663833618

> <r_mmod_Van_der_Waal_Energy-OPLS-2005>
110.50968170166

> <r_mmod_Electrostatic_Energy-OPLS-2005>
-327.6103515625

> <r_mmod_Solvation_Energy-OPLS-2005>
-212.245040893555

> <b_mmod_Minimization_Converged-OPLS-2005>
0

> <r_mmod_RMS_Derivative-OPLS-2005>
1.60384726524353

$$$$
27
                    3D
 Structure written by MMmdl.
166174  0  0  1  0            999 V2000
  -30.6669  -14.5511   20.5132 C   0  0  0  0  0  0
  -30.4200  -12.3371   19.4571 C   0  0  0  0  0  0
  -29.5034  -12.4848   18.2251 C   0  0  0  0  0  0
  -28.0215  -12.3490   18.6281 C   0  0  0  0  0  0
  -27.6519  -13.2118   19.8648 C   0  0  2  0  0  0
  -28.6890  -13.0567   20.9992 C   0  0  0  0  0  0
  -25.2577  -13.8185   20.5699 C   0  0  0  0  0  0
  -24.1841  -13.0458   20.9225 C   0  0  0  0  0  0
  -24.6400  -11.6927   20.8763 C   0  0  0  0  0  0
  -23.9061  -10.4310   21.0402 C   0  0  0  0  0  0
  -24.3621   -9.4218   21.9168 C   0  0  0  0  0  0
  -23.6310   -8.2235   22.0744 C   0  0  0  0  0  0
  -22.4277   -8.0278   21.3555 C   0  0  0  0  0  0
  -21.9910   -9.0243   20.4642 C   0  0  0  0  0  0
  -22.7242  -10.2125   20.3050 C   0  0  0  0  0  0
  -21.6859   -6.0749   22.5292 C   0  0  0  0  0  0
  -21.4015   -6.5648   23.8232 C   0  0  0  0  0  0
  -21.3657   -5.6791   24.9173 C   0  0  0  0  0  0
  -21.6032   -4.3056   24.7224 C   0  0  0  0  0  0
  -21.8815   -3.8156   23.4344 C   0  0  0  0  0  0
  -21.9201   -4.6969   22.3409 C   0  0  0  0  0  0
  -22.7858  -13.5233   21.1868 C   0  0  0  0  0  0
  -22.1661   -4.2163   21.0976 F   0  0  0  0  0  0
  -21.5637   -3.4528   25.7734 F   0  0  0  0  0  0
  -30.0114  -13.3579   20.4390 N   0  0  0  0  0  0
  -26.2974  -12.9348   20.3318 N   0  0  0  0  0  0
  -25.9310  -11.6501   20.5759 N   0  0  0  0  0  0
  -22.0485  -12.8239   22.0429 N   0  0  0  0  0  0
  -25.4324  -15.1895   20.4095 N   0  0  0  0  0  0
  -31.8308  -14.6746   20.1236 O   0  0  0  0  0  0
  -21.6646   -6.8872   21.4254 O   0  0  0  0  0  0
  -22.3527  -14.5522   20.6697 O   0  0  0  0  0  0
  -24.6179  -31.8640   23.2056 C   0  0  0  0  0  0
  -25.9051  -32.4804   23.8365 C   0  0  1  0  0  0
  -27.2345  -27.3921   20.1176 C   0  0  0  0  0  0
  -25.5884  -33.8607   24.2292 N   0  0  0  0  0  0
  -23.4071  -30.4849   21.5483 C   0  0  2  0  0  0
  -24.8541  -28.9390   20.1226 C   0  0  0  0  0  0
  -22.7418  -29.4636   22.4990 C   0  0  0  0  0  0
  -18.0270  -28.1368   22.8499 C   0  0  0  0  0  0
  -24.1480  -36.7311   23.2642 C   0  0  0  0  0  0
  -25.9397  -30.8176   21.3646 C   0  0  0  0  0  0
  -26.0179  -29.4474   20.7149 C   0  0  0  0  0  0
  -27.2129  -28.6848   20.7008 C   0  0  0  0  0  0
  -26.0551  -26.9056   19.5160 C   0  0  0  0  0  0
  -24.8700  -27.6682   19.5190 C   0  0  0  0  0  0
  -23.6182  -29.8120   20.1661 C   0  0  0  0  0  0
  -25.4107  -36.3108   24.0337 C   0  0  1  0  0  0
  -20.5862  -28.3655   23.1317 C   0  0  2  0  0  0
  -20.6759  -26.9390   22.5422 C   0  0  0  0  0  0
  -19.5742  -26.6375   21.5213 C   0  0  0  0  0  0
  -18.1920  -26.7914   22.1623 C   0  0  0  0  0  0
  -19.1521  -28.8828   23.2902 C   0  0  0  0  0  0
  -18.9455  -30.1437   23.8906 C   0  0  0  0  0  0
  -17.6457  -30.6580   24.0562 C   0  0  0  0  0  0
  -25.9040  -34.9471   23.5116 C   0  0  0  0  0  0
  -16.5345  -29.9085   23.6329 C   0  0  0  0  0  0
  -16.7262  -28.6496   23.0358 C   0  0  0  0  0  0
  -26.4468  -31.6601   25.0715 C   0  0  0  0  0  0
  -25.3730  -31.3734   26.1468 C   0  0  0  0  0  0
  -27.0302  -30.3032   24.6128 C   0  0  0  0  0  0
  -27.6038  -32.4327   25.7480 C   0  0  0  0  0  0
  -27.5579  -37.1807   24.8463 C   0  0  0  0  0  0
  -21.4141  -29.3020   22.3721 N   0  0  0  0  0  0
  -26.4290  -37.3793   23.9408 N   0  0  0  0  0  0
  -24.6730  -31.0711   22.0972 N   0  0  0  0  0  0
  -23.4178  -28.8196   23.3057 O   0  0  0  0  0  0
  -28.3983  -26.6392   20.0869 O   0  0  0  0  0  0
  -26.5621  -34.8930   22.4692 O   0  0  0  0  0  0
  -23.5360  -32.1410   23.7427 O   0  0  0  0  0  0
  -29.3889  -19.4189   20.2084 C   0  0  0  0  0  0
  -29.6137  -18.2650   20.9269 C   0  0  0  0  0  0
  -29.1204  -18.5338   22.2413 C   0  0  0  0  0  0
  -28.6741  -19.8368   22.2774 C   0  0  0  0  0  0
  -29.1336  -17.5831   23.4136 C   0  0  0  0  0  0
  -28.1431  -20.5928   23.4628 C   0  0  0  0  0  0
  -30.2031  -23.0173   21.9645 C   0  0  0  0  0  0
  -30.5542  -24.8991   19.3915 C   0  0  0  0  0  0
  -30.3621  -17.0156   20.4125 C   0  0  0  0  0  0
  -28.4282  -21.7718   20.5582 C   0  0  0  0  0  0
  -28.3689  -25.3010   20.6563 C   0  0  0  0  0  0
  -29.5551  -22.8602   20.5738 C   0  0  1  0  0  0
  -29.2352  -24.2502   19.8705 C   0  0  2  0  0  0
  -28.8209  -20.4046   21.0118 N   0  0  0  0  0  0
  -29.9216  -15.6514   20.7948 N   0  0  0  0  0  0
  -31.4656  -12.4331   19.1636 H   0  0  0  0  0  0
  -30.3203  -11.3410   19.8890 H   0  0  0  0  0  0
  -29.7564  -11.7310   17.4789 H   0  0  0  0  0  0
  -29.6746  -13.4541   17.7540 H   0  0  0  0  0  0
  -27.8364  -11.2962   18.8431 H   0  0  0  0  0  0
  -27.3750  -12.5984   17.7862 H   0  0  0  0  0  0
  -27.6763  -14.2483   19.5344 H   0  0  0  0  0  0
  -28.6750  -12.0408   21.3912 H   0  0  0  0  0  0
  -28.4493  -13.7113   21.8384 H   0  0  0  0  0  0
  -25.2737   -9.5712   22.4750 H   0  0  0  0  0  0
  -24.0047   -7.4614   22.7442 H   0  0  0  0  0  0
  -21.0854   -8.8743   19.8935 H   0  0  0  0  0  0
  -22.3685  -10.9658   19.6161 H   0  0  0  0  0  0
  -21.1998   -7.6151   23.9752 H   0  0  0  0  0  0
  -21.1486   -6.0506   25.9093 H   0  0  0  0  0  0
  -22.0606   -2.7617   23.2845 H   0  0  0  0  0  0
  -22.4066  -11.9908   22.4849 H   0  0  0  0  0  0
  -21.1082  -13.1252   22.2559 H   0  0  0  0  0  0
  -24.6728  -15.8512   20.5328 H   0  0  0  0  0  0
  -26.2857  -15.6300   20.0931 H   0  0  0  0  0  0
  -26.7124  -32.5503   23.1124 H   0  0  0  0  0  0
  -24.9995  -33.9753   25.0410 H   0  0  0  0  0  0
  -22.6975  -31.3030   21.4050 H   0  0  0  0  0  0
  -23.3737  -35.9645   23.3315 H   0  0  0  0  0  0
  -24.3568  -36.8920   22.2052 H   0  0  0  0  0  0
  -23.7232  -37.6518   23.6656 H   0  0  0  0  0  0
  -26.0590  -31.5788   20.5933 H   0  0  0  0  0  0
  -26.8245  -30.8692   21.9872 H   0  0  0  0  0  0
  -28.1136  -29.0775   21.1515 H   0  0  0  0  0  0
  -26.0522  -25.9352   19.0385 H   0  0  0  0  0  0
  -23.9762  -27.2690   19.0569 H   0  0  0  0  0  0
  -23.7314  -30.5836   19.4036 H   0  0  0  0  0  0
  -22.7403  -29.2354   19.8689 H   0  0  0  0  0  0
  -25.1283  -36.1967   25.0829 H   0  0  0  0  0  0
  -20.9956  -28.3220   24.1437 H   0  0  0  0  0  0
  -20.5650  -26.2264   23.3609 H   0  0  0  0  0  0
  -21.6632  -26.7426   22.1219 H   0  0  0  0  0  0
  -19.6900  -25.6289   21.1236 H   0  0  0  0  0  0
  -19.6683  -27.3190   20.6748 H   0  0  0  0  0  0
  -17.4190  -26.6667   21.4026 H   0  0  0  0  0  0
  -18.0322  -26.0050   22.9013 H   0  0  0  0  0  0
  -19.7937  -30.7246   24.2279 H   0  0  0  0  0  0
  -17.5019  -31.6270   24.5152 H   0  0  0  0  0  0
  -15.5347  -30.2992   23.7642 H   0  0  0  0  0  0
  -15.8662  -28.0813   22.7075 H   0  0  0  0  0  0
  -24.5855  -30.7142   25.7799 H   0  0  0  0  0  0
  -24.8987  -32.2913   26.4955 H   0  0  0  0  0  0
  -25.8068  -30.8853   27.0204 H   0  0  0  0  0  0
  -26.2861  -29.6795   24.1162 H   0  0  0  0  0  0
  -27.4030  -29.7273   25.4608 H   0  0  0  0  0  0
  -27.8712  -30.4334   23.9313 H   0  0  0  0  0  0
  -27.2642  -33.3601   26.2102 H   0  0  0  0  0  0
  -28.3823  -32.6934   25.0299 H   0  0  0  0  0  0
  -28.0736  -31.8433   26.5363 H   0  0  0  0  0  0
  -28.2607  -38.0094   24.7507 H   0  0  0  0  0  0
  -28.1065  -36.2630   24.6288 H   0  0  0  0  0  0
  -27.2303  -37.1453   25.8868 H   0  0  0  0  0  0
  -20.9302  -29.8739   21.6933 H   0  0  0  0  0  0
  -26.0181  -38.2870   24.1412 H   0  0  0  0  0  0
  -29.6162  -19.6455   19.1741 H   0  0  0  0  0  0
  -28.1495  -17.1290   23.5372 H   0  0  0  0  0  0
  -29.3930  -18.1077   24.3325 H   0  0  0  0  0  0
  -29.8609  -16.7860   23.2695 H   0  0  0  0  0  0
  -27.3851  -20.0093   23.9843 H   0  0  0  0  0  0
  -27.6938  -21.5498   23.2080 H   0  0  0  0  0  0
  -28.9452  -20.7895   24.1763 H   0  0  0  0  0  0
  -30.5487  -22.0572   22.3497 H   0  0  0  0  0  0
  -29.5014  -23.4225   22.6917 H   0  0  0  0  0  0
  -31.0748  -23.6701   21.9344 H   0  0  0  0  0  0
  -30.3707  -25.7948   18.7983 H   0  0  0  0  0  0
  -31.1214  -24.2205   18.7530 H   0  0  0  0  0  0
  -31.1965  -25.1895   20.2223 H   0  0  0  0  0  0
  -31.3948  -17.1398   20.7451 H   0  0  0  0  0  0
  -30.3845  -17.0613   19.3221 H   0  0  0  0  0  0
  -28.0469  -21.6787   19.5397 H   0  0  0  0  0  0
  -27.5747  -22.1172   21.1383 H   0  0  0  0  0  0
  -28.7473  -25.4072   21.6720 H   0  0  0  0  0  0
  -27.3520  -24.9221   20.7628 H   0  0  0  0  0  0
  -30.3297  -22.4094   19.9535 H   0  0  0  0  0  0
  -28.6801  -24.0216   18.9592 H   0  0  0  0  0  0
  -28.9603  -15.5269   21.0665 H   0  0  0  0  0  0
  1 25  1  0  0  0
  1 30  2  0  0  0
  1 85  1  0  0  0
  2  3  1  0  0  0
  2 25  1  0  0  0
  2 86  1  0  0  0
  2 87  1  0  0  0
  3  4  1  0  0  0
  3 88  1  0  0  0
  3 89  1  0  0  0
  4  5  1  0  0  0
  4 90  1  0  0  0
  4 91  1  0  0  0
  5  6  1  0  0  0
  5 26  1  0  0  0
  5 92  1  0  0  0
  6 25  1  0  0  0
  6 93  1  0  0  0
  6 94  1  0  0  0
  7  8  2  0  0  0
  7 26  1  0  0  0
  7 29  1  0  0  0
  8  9  1  0  0  0
  8 22  1  0  0  0
  9 10  1  0  0  0
  9 27  2  0  0  0
 10 11  2  0  0  0
 10 15  1  0  0  0
 11 12  1  0  0  0
 11 95  1  0  0  0
 12 13  2  0  0  0
 12 96  1  0  0  0
 13 14  1  0  0  0
 13 31  1  0  0  0
 14 15  2  0  0  0
 14 97  1  0  0  0
 15 98  1  0  0  0
 16 17  2  0  0  0
 16 21  1  0  0  0
 16 31  1  0  0  0
 17 18  1  0  0  0
 17 99  1  0  0  0
 18 19  2  0  0  0
 18100  1  0  0  0
 19 20  1  0  0  0
 19 24  1  0  0  0
 20 21  2  0  0  0
 20101  1  0  0  0
 21 23  1  0  0  0
 22 28  1  0  0  0
 22 32  2  0  0  0
 26 27  1  0  0  0
 28102  1  0  0  0
 28103  1  0  0  0
 29104  1  0  0  0
 29105  1  0  0  0
 33 34  1  0  0  0
 33 66  1  0  0  0
 33 70  2  0  0  0
 34 36  1  0  0  0
 34 59  1  0  0  0
 34106  1  0  0  0
 35 44  2  0  0  0
 35 45  1  0  0  0
 35 68  1  0  0  0
 36 56  1  0  0  0
 36107  1  0  0  0
 37 39  1  0  0  0
 37 47  1  0  0  0
 37 66  1  0  0  0
 37108  1  0  0  0
 38 43  2  0  0  0
 38 46  1  0  0  0
 38 47  1  0  0  0
 39 64  1  0  0  0
 39 67  2  0  0  0
 40 52  1  0  0  0
 40 53  2  0  0  0
 40 58  1  0  0  0
 41109  1  0  0  0
 41110  1  0  0  0
 41111  1  0  0  0
 41 48  1  0  0  0
 42 43  1  0  0  0
 42 66  1  0  0  0
 42112  1  0  0  0
 42113  1  0  0  0
 43 44  1  0  0  0
 44114  1  0  0  0
 45 46  2  0  0  0
 45115  1  0  0  0
 46116  1  0  0  0
 47117  1  0  0  0
 47118  1  0  0  0
 48 56  1  0  0  0
 48 65  1  0  0  0
 48119  1  0  0  0
 49 50  1  0  0  0
 49 53  1  0  0  0
 49 64  1  0  0  0
 49120  1  0  0  0
 50 51  1  0  0  0
 50121  1  0  0  0
 50122  1  0  0  0
 51 52  1  0  0  0
 51123  1  0  0  0
 51124  1  0  0  0
 52125  1  0  0  0
 52126  1  0  0  0
 53 54  1  0  0  0
 54 55  2  0  0  0
 54127  1  0  0  0
 55 57  1  0  0  0
 55128  1  0  0  0
 56 69  2  0  0  0
 57 58  2  0  0  0
 57129  1  0  0  0
 58130  1  0  0  0
 59 60  1  0  0  0
 59 61  1  0  0  0
 59 62  1  0  0  0
 60131  1  0  0  0
 60132  1  0  0  0
 60133  1  0  0  0
 61134  1  0  0  0
 61135  1  0  0  0
 61136  1  0  0  0
 62137  1  0  0  0
 62138  1  0  0  0
 62139  1  0  0  0
 63 65  1  0  0  0
 63140  1  0  0  0
 63141  1  0  0  0
 63142  1  0  0  0
 64143  1  0  0  0
 65144  1  0  0  0
 68 81  1  0  0  0
 71 72  2  0  0  0
 71 84  1  0  0  0
 71145  1  0  0  0
 72 73  1  0  0  0
 72 79  1  0  0  0
 73 74  2  0  0  0
 73 75  1  0  0  0
 74 76  1  0  0  0
 74 84  1  0  0  0
 75146  1  0  0  0
 75147  1  0  0  0
 75148  1  0  0  0
 76149  1  0  0  0
 76150  1  0  0  0
 76151  1  0  0  0
 77152  1  0  0  0
 77153  1  0  0  0
 77154  1  0  0  0
 77 82  1  0  0  0
 78155  1  0  0  0
 78156  1  0  0  0
 78157  1  0  0  0
 78 83  1  0  0  0
 79 85  1  0  0  0
 79158  1  0  0  0
 79159  1  0  0  0
 80 82  1  0  0  0
 80 84  1  0  0  0
 80160  1  0  0  0
 80161  1  0  0  0
 81 83  1  0  0  0
 81162  1  0  0  0
 81163  1  0  0  0
 82 83  1  0  0  0
 82164  1  0  0  0
 83165  1  0  0  0
 85166  1  0  0  0
M  ISO  4   1 100  68 101  81 101  85 100
M  END
> <chiral flag>
0

> <version>
0

> <s_m_source_file>
/data/baiqing/PycharmProjects/Reinvent-master-3.2/result/LINK_invent/BTK/process_docking_weight1_custom_sum_contain_oxygen_bond_distance_aromatic_linkinvent_7_9_3/rearranged_h_0100.sdf

> <i_m_source_file_index>
28

> <r_mmod_Potential_Energy-OPLS-2005>
-58.2785148620605

> <r_mmod_Stretch_Energy-OPLS-2005>
52.0875358581543

> <r_mmod_Bend_Energy-OPLS-2005>
125.782165527344

> <r_mmod_Torsional_Energy-OPLS-2005>
248.908966064453

> <r_mmod_Improper_Torsional_Energy-OPLS-2005>
6.78373718261719

> <r_mmod_Van_der_Waal_Energy-OPLS-2005>
119.950942993164

> <r_mmod_Electrostatic_Energy-OPLS-2005>
-435.886566162109

> <r_mmod_Solvation_Energy-OPLS-2005>
-199.535278320312

> <b_mmod_Minimization_Converged-OPLS-2005>
0

> <r_mmod_RMS_Derivative-OPLS-2005>
3.20480918884277

$$$$
28
                    3D
 Structure written by MMmdl.
162170  0  0  1  0            999 V2000
  -30.5596  -14.9386   20.4227 C   0  0  0  0  0  0
  -30.4430  -12.5740   19.5220 C   0  0  0  0  0  0
  -29.5350  -12.5173   18.2706 C   0  0  0  0  0  0
  -28.0638  -12.3138   18.6761 C   0  0  0  0  0  0
  -27.6349  -13.2520   19.8355 C   0  0  2  0  0  0
  -28.6715  -13.2818   20.9827 C   0  0  0  0  0  0
  -25.2492  -13.8183   20.5765 C   0  0  0  0  0  0
  -24.1827  -13.0411   20.9272 C   0  0  0  0  0  0
  -24.6458  -11.6896   20.8817 C   0  0  0  0  0  0
  -23.9147  -10.4244   21.0472 C   0  0  0  0  0  0
  -24.3737   -9.4111   21.9166 C   0  0  0  0  0  0
  -23.6361   -8.2171   22.0739 C   0  0  0  0  0  0
  -22.4293   -8.0246   21.3590 C   0  0  0  0  0  0
  -21.9923   -9.0262   20.4738 C   0  0  0  0  0  0
  -22.7312  -10.2109   20.3139 C   0  0  0  0  0  0
  -21.6881   -6.0714   22.5279 C   0  0  0  0  0  0
  -21.4026   -6.5633   23.8206 C   0  0  0  0  0  0
  -21.3691   -5.6807   24.9184 C   0  0  0  0  0  0
  -21.6042   -4.3064   24.7250 C   0  0  0  0  0  0
  -21.8793   -3.8146   23.4372 C   0  0  0  0  0  0
  -21.9200   -4.6948   22.3432 C   0  0  0  0  0  0
  -22.7828  -13.5197   21.1849 C   0  0  0  0  0  0
  -22.1686   -4.2110   21.1028 F   0  0  0  0  0  0
  -21.5608   -3.4576   25.7770 F   0  0  0  0  0  0
  -29.9581  -13.6798   20.4012 N   0  0  0  0  0  0
  -26.2931  -12.9443   20.3217 N   0  0  0  0  0  0
  -25.9375  -11.6566   20.5733 N   0  0  0  0  0  0
  -22.0380  -12.8178   22.0323 N   0  0  0  0  0  0
  -25.4127  -15.1909   20.4187 N   0  0  0  0  0  0
  -31.7586  -14.9813   20.1264 O   0  0  0  0  0  0
  -21.6676   -6.8841   21.4226 O   0  0  0  0  0  0
  -22.3577  -14.5540   20.6719 O   0  0  0  0  0  0
  -24.6447  -31.8422   23.1860 C   0  0  0  0  0  0
  -25.9199  -32.4689   23.8255 C   0  0  1  0  0  0
  -27.2335  -27.1253   20.1802 C   0  0  0  0  0  0
  -25.5929  -33.8490   24.2168 N   0  0  0  0  0  0
  -23.4521  -30.4572   21.5311 C   0  0  2  0  0  0
  -24.9049  -28.8763   20.1150 C   0  0  0  0  0  0
  -22.7578  -29.4522   22.4868 C   0  0  0  0  0  0
  -18.0307  -28.1391   22.8472 C   0  0  0  0  0  0
  -24.1498  -36.7257   23.2636 C   0  0  0  0  0  0
  -26.0063  -30.7149   21.3833 C   0  0  0  0  0  0
  -26.0815  -29.3241   20.7300 C   0  0  0  0  0  0
  -27.2468  -28.4663   20.7408 C   0  0  0  0  0  0
  -26.0310  -26.7803   19.5211 C   0  0  0  0  0  0
  -24.8941  -27.6181   19.4935 C   0  0  0  0  0  0
  -23.6805  -29.7798   20.1539 C   0  0  0  0  0  0
  -25.4119  -36.3024   24.0318 C   0  0  1  0  0  0
  -20.5912  -28.3718   23.1224 C   0  0  2  0  0  0
  -20.6781  -26.9420   22.5403 C   0  0  0  0  0  0
  -19.5760  -26.6377   21.5209 C   0  0  0  0  0  0
  -18.1942  -26.7929   22.1626 C   0  0  0  0  0  0
  -19.1560  -28.8876   23.2833 C   0  0  0  0  0  0
  -18.9479  -30.1464   23.8874 C   0  0  0  0  0  0
  -17.6474  -30.6585   24.0562 C   0  0  0  0  0  0
  -25.9059  -34.9410   23.5062 C   0  0  0  0  0  0
  -16.5362  -29.9083   23.6329 C   0  0  0  0  0  0
  -16.7288  -28.6496   23.0355 C   0  0  0  0  0  0
  -26.4522  -31.6549   25.0698 C   0  0  0  0  0  0
  -25.3717  -31.3753   26.1413 C   0  0  0  0  0  0
  -27.0378  -30.2945   24.6277 C   0  0  0  0  0  0
  -27.6050  -32.4304   25.7485 C   0  0  0  0  0  0
  -27.5584  -37.1775   24.8463 C   0  0  0  0  0  0
  -21.4268  -29.3033   22.3597 N   0  0  0  0  0  0
  -26.4290  -37.3734   23.9416 N   0  0  0  0  0  0
  -24.7206  -31.0264   22.0900 N   0  0  0  0  0  0
  -23.4195  -28.8075   23.3031 O   0  0  0  0  0  0
  -28.2960  -26.1481   20.2655 O   0  0  0  0  0  0
  -26.5670  -34.8912   22.4652 O   0  0  0  0  0  0
  -23.5538  -32.1310   23.7043 O   0  0  0  0  0  0
  -28.3068  -17.4940   18.1357 C   0  0  0  0  0  0
  -27.7539  -18.7363   20.1420 C   0  0  0  0  0  0
  -27.3347  -18.0944   18.9626 C   0  0  0  0  0  0
  -29.6258  -17.3112   18.6068 C   0  0  0  0  0  0
  -29.1279  -18.7525   20.4475 C   0  0  0  0  0  0
  -29.8787  -17.5319   19.9859 C   0  0  0  0  0  0
  -25.8992  -18.2245   18.4956 C   0  0  0  0  0  0
  -30.6550  -16.6883   17.6781 C   0  0  0  0  0  0
  -29.8688  -23.5562   21.8196 C   0  0  0  0  0  0
  -29.6531  -20.3062   20.6465 C   0  0  0  0  0  0
  -28.6818  -21.6861   20.4172 C   0  0  0  0  0  0
  -28.0311  -24.6071   20.2472 C   0  0  0  0  0  0
  -29.1154  -23.3245   20.4978 C   0  0  1  0  0  0
  -29.8083  -16.1345   20.6250 N   0  0  0  0  0  0
  -31.4852  -12.7106   19.2280 H   0  0  0  0  0  0
  -30.4098  -11.6239   20.0552 H   0  0  0  0  0  0
  -29.8494  -11.7086   17.6100 H   0  0  0  0  0  0
  -29.6441  -13.4407   17.7020 H   0  0  0  0  0  0
  -27.9526  -11.2733   18.9891 H   0  0  0  0  0  0
  -27.4149  -12.4458   17.8099 H   0  0  0  0  0  0
  -27.5963  -14.2521   19.4021 H   0  0  0  0  0  0
  -28.7520  -12.3077   21.4667 H   0  0  0  0  0  0
  -28.3691  -13.9876   21.7583 H   0  0  0  0  0  0
  -25.2947   -9.5545   22.4650 H   0  0  0  0  0  0
  -24.0095   -7.4491   22.7399 H   0  0  0  0  0  0
  -21.0822   -8.8824   19.9102 H   0  0  0  0  0  0
  -22.3798  -10.9689   19.6283 H   0  0  0  0  0  0
  -21.2060   -7.6163   23.9667 H   0  0  0  0  0  0
  -21.1556   -6.0577   25.9073 H   0  0  0  0  0  0
  -22.0592   -2.7597   23.2911 H   0  0  0  0  0  0
  -22.3879  -11.9761   22.4635 H   0  0  0  0  0  0
  -21.0970  -13.1179   22.2415 H   0  0  0  0  0  0
  -24.6623  -15.8466   20.6031 H   0  0  0  0  0  0
  -26.2413  -15.6358   20.0483 H   0  0  0  0  0  0
  -26.7277  -32.5301   23.0982 H   0  0  0  0  0  0
  -25.0041  -33.9608   25.0295 H   0  0  0  0  0  0
  -22.7573  -31.2837   21.3735 H   0  0  0  0  0  0
  -23.3768  -35.9583   23.3274 H   0  0  0  0  0  0
  -24.3577  -36.8916   22.2055 H   0  0  0  0  0  0
  -23.7266  -37.6451   23.6684 H   0  0  0  0  0  0
  -26.1579  -31.4655   20.6073 H   0  0  0  0  0  0
  -26.8783  -30.7681   22.0236 H   0  0  0  0  0  0
  -28.1437  -28.8078   21.2406 H   0  0  0  0  0  0
  -25.9368  -25.8169   19.0430 H   0  0  0  0  0  0
  -23.9991  -27.2671   18.9975 H   0  0  0  0  0  0
  -23.8204  -30.5547   19.4005 H   0  0  0  0  0  0
  -22.7977  -29.2208   19.8404 H   0  0  0  0  0  0
  -25.1300  -36.1862   25.0811 H   0  0  0  0  0  0
  -20.9996  -28.3320   24.1345 H   0  0  0  0  0  0
  -20.5662  -26.2346   23.3629 H   0  0  0  0  0  0
  -21.6651  -26.7415   22.1208 H   0  0  0  0  0  0
  -19.6943  -25.6284   21.1251 H   0  0  0  0  0  0
  -19.6704  -27.3187   20.6732 H   0  0  0  0  0  0
  -17.4206  -26.6653   21.4032 H   0  0  0  0  0  0
  -18.0358  -26.0079   22.9028 H   0  0  0  0  0  0
  -19.7951  -30.7283   24.2239 H   0  0  0  0  0  0
  -17.5025  -31.6269   24.5162 H   0  0  0  0  0  0
  -15.5358  -30.2978   23.7662 H   0  0  0  0  0  0
  -15.8689  -28.0811   22.7072 H   0  0  0  0  0  0
  -24.5899  -30.7083   25.7764 H   0  0  0  0  0  0
  -24.8900  -32.2939   26.4769 H   0  0  0  0  0  0
  -25.8011  -30.9000   27.0251 H   0  0  0  0  0  0
  -26.3011  -29.6696   24.1219 H   0  0  0  0  0  0
  -27.3943  -29.7201   25.4839 H   0  0  0  0  0  0
  -27.8934  -30.4182   23.9637 H   0  0  0  0  0  0
  -27.2646  -33.3618   26.2023 H   0  0  0  0  0  0
  -28.3891  -32.6837   25.0336 H   0  0  0  0  0  0
  -28.0704  -31.8476   26.5447 H   0  0  0  0  0  0
  -28.2557  -38.0102   24.7497 H   0  0  0  0  0  0
  -28.1118  -36.2626   24.6282 H   0  0  0  0  0  0
  -27.2311  -37.1424   25.8867 H   0  0  0  0  0  0
  -20.9499  -29.8742   21.6770 H   0  0  0  0  0  0
  -26.0163  -38.2811   24.1407 H   0  0  0  0  0  0
  -28.0380  -17.1588   17.1437 H   0  0  0  0  0  0
  -27.0805  -19.4463   20.5983 H   0  0  0  0  0  0
  -25.6043  -17.3663   17.8917 H   0  0  0  0  0  0
  -25.7791  -19.1279   17.8978 H   0  0  0  0  0  0
  -25.2176  -18.2830   19.3459 H   0  0  0  0  0  0
  -30.4665  -16.9697   16.6426 H   0  0  0  0  0  0
  -30.6351  -15.6030   17.7328 H   0  0  0  0  0  0
  -31.6600  -17.0293   17.9264 H   0  0  0  0  0  0
  -30.7386  -22.9021   21.8911 H   0  0  0  0  0  0
  -29.2363  -23.3590   22.6865 H   0  0  0  0  0  0
  -30.2310  -24.5822   21.8975 H   0  0  0  0  0  0
  -30.5320  -20.4115   20.0090 H   0  0  0  0  0  0
  -30.0416  -20.3480   21.6653 H   0  0  0  0  0  0
  -27.8552  -21.5769   21.1188 H   0  0  0  0  0  0
  -28.2265  -21.5623   19.4338 H   0  0  0  0  0  0
  -27.2128  -24.4469   20.9524 H   0  0  0  0  0  0
  -27.5982  -24.4022   19.2679 H   0  0  0  0  0  0
  -29.8591  -23.4503   19.7095 H   0  0  0  0  0  0
  -28.9172  -15.9534   21.0639 H   0  0  0  0  0  0
  1 25  1  0  0  0
  1 30  2  0  0  0
  1 84  1  0  0  0
  2  3  1  0  0  0
  2 25  1  0  0  0
  2 85  1  0  0  0
  2 86  1  0  0  0
  3  4  1  0  0  0
  3 87  1  0  0  0
  3 88  1  0  0  0
  4  5  1  0  0  0
  4 89  1  0  0  0
  4 90  1  0  0  0
  5  6  1  0  0  0
  5 26  1  0  0  0
  5 91  1  0  0  0
  6 25  1  0  0  0
  6 92  1  0  0  0
  6 93  1  0  0  0
  7  8  2  0  0  0
  7 26  1  0  0  0
  7 29  1  0  0  0
  8  9  1  0  0  0
  8 22  1  0  0  0
  9 10  1  0  0  0
  9 27  2  0  0  0
 10 11  2  0  0  0
 10 15  1  0  0  0
 11 12  1  0  0  0
 11 94  1  0  0  0
 12 13  2  0  0  0
 12 95  1  0  0  0
 13 14  1  0  0  0
 13 31  1  0  0  0
 14 15  2  0  0  0
 14 96  1  0  0  0
 15 97  1  0  0  0
 16 17  2  0  0  0
 16 21  1  0  0  0
 16 31  1  0  0  0
 17 18  1  0  0  0
 17 98  1  0  0  0
 18 19  2  0  0  0
 18 99  1  0  0  0
 19 20  1  0  0  0
 19 24  1  0  0  0
 20 21  2  0  0  0
 20100  1  0  0  0
 21 23  1  0  0  0
 22 28  1  0  0  0
 22 32  2  0  0  0
 26 27  1  0  0  0
 28101  1  0  0  0
 28102  1  0  0  0
 29103  1  0  0  0
 29104  1  0  0  0
 33 34  1  0  0  0
 33 66  1  0  0  0
 33 70  2  0  0  0
 34 36  1  0  0  0
 34 59  1  0  0  0
 34105  1  0  0  0
 35 44  2  0  0  0
 35 45  1  0  0  0
 35 68  1  0  0  0
 36 56  1  0  0  0
 36106  1  0  0  0
 37 39  1  0  0  0
 37 47  1  0  0  0
 37 66  1  0  0  0
 37107  1  0  0  0
 38 43  2  0  0  0
 38 46  1  0  0  0
 38 47  1  0  0  0
 39 64  1  0  0  0
 39 67  2  0  0  0
 40 52  1  0  0  0
 40 53  2  0  0  0
 40 58  1  0  0  0
 41108  1  0  0  0
 41109  1  0  0  0
 41110  1  0  0  0
 41 48  1  0  0  0
 42 43  1  0  0  0
 42 66  1  0  0  0
 42111  1  0  0  0
 42112  1  0  0  0
 43 44  1  0  0  0
 44113  1  0  0  0
 45 46  2  0  0  0
 45114  1  0  0  0
 46115  1  0  0  0
 47116  1  0  0  0
 47117  1  0  0  0
 48 56  1  0  0  0
 48 65  1  0  0  0
 48118  1  0  0  0
 49 50  1  0  0  0
 49 53  1  0  0  0
 49 64  1  0  0  0
 49119  1  0  0  0
 50 51  1  0  0  0
 50120  1  0  0  0
 50121  1  0  0  0
 51 52  1  0  0  0
 51122  1  0  0  0
 51123  1  0  0  0
 52124  1  0  0  0
 52125  1  0  0  0
 53 54  1  0  0  0
 54 55  2  0  0  0
 54126  1  0  0  0
 55 57  1  0  0  0
 55127  1  0  0  0
 56 69  2  0  0  0
 57 58  2  0  0  0
 57128  1  0  0  0
 58129  1  0  0  0
 59 60  1  0  0  0
 59 61  1  0  0  0
 59 62  1  0  0  0
 60130  1  0  0  0
 60131  1  0  0  0
 60132  1  0  0  0
 61133  1  0  0  0
 61134  1  0  0  0
 61135  1  0  0  0
 62136  1  0  0  0
 62137  1  0  0  0
 62138  1  0  0  0
 63 65  1  0  0  0
 63139  1  0  0  0
 63140  1  0  0  0
 63141  1  0  0  0
 64142  1  0  0  0
 65143  1  0  0  0
 68 82  1  0  0  0
 71 73  2  0  0  0
 71 74  1  0  0  0
 71144  1  0  0  0
 72 73  1  0  0  0
 72 75  2  0  0  0
 72145  1  0  0  0
 73 77  1  0  0  0
 74 76  2  0  0  0
 74 78  1  0  0  0
 75 76  1  0  0  0
 75 80  1  0  0  0
 76 84  1  0  0  0
 77146  1  0  0  0
 77147  1  0  0  0
 77148  1  0  0  0
 78149  1  0  0  0
 78150  1  0  0  0
 78151  1  0  0  0
 79152  1  0  0  0
 79153  1  0  0  0
 79154  1  0  0  0
 79 83  1  0  0  0
 80 81  1  0  0  0
 80155  1  0  0  0
 80156  1  0  0  0
 81 83  1  0  0  0
 81157  1  0  0  0
 81158  1  0  0  0
 82 83  1  0  0  0
 82159  1  0  0  0
 82160  1  0  0  0
 83161  1  0  0  0
 84162  1  0  0  0
M  ISO  4   1 100  68 101  82 101  84 100
M  END
> <chiral flag>
0

> <version>
0

> <s_m_source_file>
/data/baiqing/PycharmProjects/Reinvent-master-3.2/result/LINK_invent/BTK/process_docking_weight1_custom_sum_contain_oxygen_bond_distance_aromatic_linkinvent_7_9_3/rearranged_h_0100.sdf

> <i_m_source_file_index>
29

> <r_mmod_Potential_Energy-OPLS-2005>
780.451721191406

> <r_mmod_Stretch_Energy-OPLS-2005>
287.893127441406

> <r_mmod_Bend_Energy-OPLS-2005>
275.729370117188

> <r_mmod_Torsional_Energy-OPLS-2005>
463.386779785156

> <r_mmod_Improper_Torsional_Energy-OPLS-2005>
35.2005958557129

> <r_mmod_Van_der_Waal_Energy-OPLS-2005>
125.145935058594

> <r_mmod_Electrostatic_Energy-OPLS-2005>
-408.569122314453

> <r_mmod_Solvation_Energy-OPLS-2005>
-190.359039306641

> <b_mmod_Minimization_Converged-OPLS-2005>
0

> <r_mmod_RMS_Derivative-OPLS-2005>
4.9797101020813

$$$$
29
                    3D
 Structure written by MMmdl.
167175  0  0  1  0            999 V2000
  -30.5858  -14.9009   20.4644 C   0  0  0  0  0  0
  -30.4368  -12.5669   19.4972 C   0  0  0  0  0  0
  -29.5216  -12.5493   18.2524 C   0  0  0  0  0  0
  -28.0565  -12.3283   18.6663 C   0  0  0  0  0  0
  -27.6351  -13.2460   19.8440 C   0  0  2  0  0  0
  -28.6750  -13.2251   20.9825 C   0  0  0  0  0  0
  -25.2473  -13.8176   20.5708 C   0  0  0  0  0  0
  -24.1789  -13.0406   20.9208 C   0  0  0  0  0  0
  -24.6402  -11.6890   20.8716 C   0  0  0  0  0  0
  -23.9078  -10.4266   21.0381 C   0  0  0  0  0  0
  -24.3631   -9.4189   21.9166 C   0  0  0  0  0  0
  -23.6291   -8.2212   22.0739 C   0  0  0  0  0  0
  -22.4265   -8.0260   21.3523 C   0  0  0  0  0  0
  -21.9918   -9.0245   20.4626 C   0  0  0  0  0  0
  -22.7258  -10.2100   20.3030 C   0  0  0  0  0  0
  -21.6849   -6.0738   22.5282 C   0  0  0  0  0  0
  -21.4017   -6.5642   23.8223 C   0  0  0  0  0  0
  -21.3653   -5.6792   24.9180 C   0  0  0  0  0  0
  -21.6044   -4.3057   24.7227 C   0  0  0  0  0  0
  -21.8813   -3.8155   23.4345 C   0  0  0  0  0  0
  -21.9188   -4.6967   22.3407 C   0  0  0  0  0  0
  -22.7814  -13.5164   21.1904 C   0  0  0  0  0  0
  -22.1655   -4.2158   21.0986 F   0  0  0  0  0  0
  -21.5619   -3.4546   25.7741 F   0  0  0  0  0  0
  -29.9552  -13.6547   20.4002 N   0  0  0  0  0  0
  -26.2920  -12.9409   20.3242 N   0  0  0  0  0  0
  -25.9331  -11.6537   20.5711 N   0  0  0  0  0  0
  -22.0465  -12.8135   22.0450 N   0  0  0  0  0  0
  -25.4159  -15.1898   20.4158 N   0  0  0  0  0  0
  -31.7639  -14.9340   20.0943 O   0  0  0  0  0  0
  -21.6624   -6.8879   21.4237 O   0  0  0  0  0  0
  -22.3497  -14.5490   20.6796 O   0  0  0  0  0  0
  -24.6383  -31.8443   23.1829 C   0  0  0  0  0  0
  -25.9157  -32.4687   23.8244 C   0  0  1  0  0  0
  -27.2075  -27.1688   20.1638 C   0  0  0  0  0  0
  -25.5943  -33.8497   24.2156 N   0  0  0  0  0  0
  -23.4420  -30.4617   21.5270 C   0  0  2  0  0  0
  -24.8887  -28.8843   20.1134 C   0  0  0  0  0  0
  -22.7561  -29.4508   22.4815 C   0  0  0  0  0  0
  -18.0294  -28.1394   22.8414 C   0  0  0  0  0  0
  -24.1509  -36.7277   23.2646 C   0  0  0  0  0  0
  -25.9965  -30.7252   21.3779 C   0  0  0  0  0  0
  -26.0621  -29.3382   20.7311 C   0  0  0  0  0  0
  -27.2292  -28.4951   20.7325 C   0  0  0  0  0  0
  -26.0114  -26.7947   19.5221 C   0  0  0  0  0  0
  -24.8709  -27.6253   19.4954 C   0  0  0  0  0  0
  -23.6675  -29.7858   20.1488 C   0  0  0  0  0  0
  -25.4129  -36.3023   24.0319 C   0  0  1  0  0  0
  -20.5899  -28.3689   23.1205 C   0  0  2  0  0  0
  -20.6778  -26.9400   22.5368 C   0  0  0  0  0  0
  -19.5779  -26.6353   21.5158 C   0  0  0  0  0  0
  -18.1946  -26.7911   22.1566 C   0  0  0  0  0  0
  -19.1557  -28.8851   23.2808 C   0  0  0  0  0  0
  -18.9483  -30.1462   23.8836 C   0  0  0  0  0  0
  -17.6482  -30.6571   24.0557 C   0  0  0  0  0  0
  -25.9071  -34.9398   23.5048 C   0  0  0  0  0  0
  -16.5388  -29.9060   23.6354 C   0  0  0  0  0  0
  -16.7284  -28.6519   23.0296 C   0  0  0  0  0  0
  -26.4514  -31.6572   25.0696 C   0  0  0  0  0  0
  -25.3675  -31.3724   26.1370 C   0  0  0  0  0  0
  -27.0426  -30.2989   24.6259 C   0  0  0  0  0  0
  -27.6060  -32.4349   25.7471 C   0  0  0  0  0  0
  -27.5565  -37.1790   24.8467 C   0  0  0  0  0  0
  -21.4223  -29.3045   22.3611 N   0  0  0  0  0  0
  -26.4278  -37.3734   23.9411 N   0  0  0  0  0  0
  -24.7113  -31.0327   22.0851 N   0  0  0  0  0  0
  -23.4232  -28.8027   23.2904 O   0  0  0  0  0  0
  -28.2864  -26.2342   20.1903 O   0  0  0  0  0  0
  -26.5651  -34.8917   22.4614 O   0  0  0  0  0  0
  -23.5499  -32.1281   23.7058 O   0  0  0  0  0  0
  -30.4233  -21.4737   20.3551 C   0  0  0  0  0  0
  -30.7470  -20.0734   20.3979 C   0  0  0  0  0  0
  -29.7598  -19.0424   20.2181 C   0  0  0  0  0  0
  -29.1080  -21.9727   20.1435 C   0  0  0  0  0  0
  -28.4419  -19.6245   20.0962 C   0  0  0  0  0  0
  -32.2149  -19.7203   20.5738 C   0  0  0  0  0  0
  -26.1401  -18.9171   20.9588 C   0  0  0  0  0  0
  -29.3013  -22.8373   17.2404 C   0  0  0  0  0  0
  -29.1651  -16.4114   21.8791 C   0  0  0  0  0  0
  -30.2080  -17.4766   19.9033 C   0  0  0  0  0  0
  -27.2263  -18.7308   19.8838 C   0  0  0  0  0  0
  -28.3901  -23.5951   18.2218 C   0  0  0  0  0  0
  -28.0785  -24.7383   20.5087 C   0  0  0  0  0  0
  -28.8634  -23.5381   19.6925 C   0  0  1  0  0  0
  -28.1463  -20.9927   20.0577 N   0  0  0  0  0  0
  -29.8718  -16.1314   20.6291 N   0  0  0  0  0  0
  -31.4748  -12.7024   19.1896 H   0  0  0  0  0  0
  -30.4106  -11.6009   20.0049 H   0  0  0  0  0  0
  -29.8405  -11.7733   17.5563 H   0  0  0  0  0  0
  -29.6180  -13.4954   17.7153 H   0  0  0  0  0  0
  -27.9646  -11.2851   18.9720 H   0  0  0  0  0  0
  -27.3883  -12.4617   17.8156 H   0  0  0  0  0  0
  -27.6121  -14.2627   19.4467 H   0  0  0  0  0  0
  -28.7524  -12.2234   21.4063 H   0  0  0  0  0  0
  -28.3545  -13.8693   21.7976 H   0  0  0  0  0  0
  -25.2760   -9.5649   22.4740 H   0  0  0  0  0  0
  -24.0007   -7.4598   22.7436 H   0  0  0  0  0  0
  -21.0854   -8.8742   19.8925 H   0  0  0  0  0  0
  -22.3719  -10.9635   19.6120 H   0  0  0  0  0  0
  -21.2014   -7.6149   23.9726 H   0  0  0  0  0  0
  -21.1479   -6.0531   25.9088 H   0  0  0  0  0  0
  -22.0595   -2.7616   23.2853 H   0  0  0  0  0  0
  -22.4110  -11.9786   22.4805 H   0  0  0  0  0  0
  -21.1061  -13.1121   22.2642 H   0  0  0  0  0  0
  -24.6418  -15.8376   20.5185 H   0  0  0  0  0  0
  -26.2711  -15.6283   20.1046 H   0  0  0  0  0  0
  -26.7231  -32.5310   23.0962 H   0  0  0  0  0  0
  -25.0172  -33.9644   25.0356 H   0  0  0  0  0  0
  -22.7438  -31.2879   21.3634 H   0  0  0  0  0  0
  -23.3777  -35.9613   23.3316 H   0  0  0  0  0  0
  -24.3565  -36.8865   22.2061 H   0  0  0  0  0  0
  -23.7281  -37.6487   23.6671 H   0  0  0  0  0  0
  -26.1406  -31.4646   20.5890 H   0  0  0  0  0  0
  -26.8769  -30.7825   22.0070 H   0  0  0  0  0  0
  -28.1329  -28.8292   21.2235 H   0  0  0  0  0  0
  -25.9420  -25.8241   19.0561 H   0  0  0  0  0  0
  -23.9726  -27.2660   19.0102 H   0  0  0  0  0  0
  -23.8052  -30.5545   19.3867 H   0  0  0  0  0  0
  -22.7890  -29.2160   19.8350 H   0  0  0  0  0  0
  -25.1300  -36.1857   25.0804 H   0  0  0  0  0  0
  -21.0000  -28.3283   24.1319 H   0  0  0  0  0  0
  -20.5645  -26.2321   23.3585 H   0  0  0  0  0  0
  -21.6654  -26.7355   22.1189 H   0  0  0  0  0  0
  -19.6961  -25.6242   21.1244 H   0  0  0  0  0  0
  -19.6753  -27.3152   20.6683 H   0  0  0  0  0  0
  -17.4211  -26.6622   21.3992 H   0  0  0  0  0  0
  -18.0379  -26.0051   22.8967 H   0  0  0  0  0  0
  -19.7969  -30.7301   24.2174 H   0  0  0  0  0  0
  -17.5045  -31.6245   24.5177 H   0  0  0  0  0  0
  -15.5404  -30.2980   23.7709 H   0  0  0  0  0  0
  -15.8656  -28.0890   22.6978 H   0  0  0  0  0  0
  -24.5895  -30.7041   25.7638 H   0  0  0  0  0  0
  -24.8847  -32.2911   26.4739 H   0  0  0  0  0  0
  -25.7914  -30.8909   27.0187 H   0  0  0  0  0  0
  -26.3052  -29.6692   24.1279 H   0  0  0  0  0  0
  -27.4110  -29.7282   25.4803 H   0  0  0  0  0  0
  -27.8897  -30.4297   23.9517 H   0  0  0  0  0  0
  -27.2681  -33.3707   26.1933 H   0  0  0  0  0  0
  -28.3914  -32.6800   25.0306 H   0  0  0  0  0  0
  -28.0693  -31.8560   26.5458 H   0  0  0  0  0  0
  -28.2550  -38.0112   24.7483 H   0  0  0  0  0  0
  -28.1086  -36.2627   24.6320 H   0  0  0  0  0  0
  -27.2296  -37.1447   25.8871 H   0  0  0  0  0  0
  -20.9466  -29.8878   21.6864 H   0  0  0  0  0  0
  -26.0160  -38.2802   24.1405 H   0  0  0  0  0  0
  -31.2356  -22.1895   20.3872 H   0  0  0  0  0  0
  -32.8074  -20.5979   20.8347 H   0  0  0  0  0  0
  -32.6335  -19.3096   19.6557 H   0  0  0  0  0  0
  -32.3504  -18.9998   21.3786 H   0  0  0  0  0  0
  -25.3261  -18.2000   20.8357 H   0  0  0  0  0  0
  -25.6939  -19.9096   20.8881 H   0  0  0  0  0  0
  -26.5470  -18.7973   21.9645 H   0  0  0  0  0  0
  -29.0361  -23.0488   16.2034 H   0  0  0  0  0  0
  -29.2358  -21.7571   17.3879 H   0  0  0  0  0  0
  -30.3418  -23.1245   17.3901 H   0  0  0  0  0  0
  -28.0972  -16.5550   21.7130 H   0  0  0  0  0  0
  -29.5531  -17.3268   22.3291 H   0  0  0  0  0  0
  -29.3018  -15.6309   22.6274 H   0  0  0  0  0  0
  -31.2958  -17.4675   19.8558 H   0  0  0  0  0  0
  -29.9229  -17.3179   18.8622 H   0  0  0  0  0  0
  -27.5311  -17.6896   19.8759 H   0  0  0  0  0  0
  -26.8174  -18.9165   18.8901 H   0  0  0  0  0  0
  -27.3712  -23.2060   18.1561 H   0  0  0  0  0  0
  -28.3311  -24.6383   17.9093 H   0  0  0  0  0  0
  -28.3757  -24.6398   21.5537 H   0  0  0  0  0  0
  -27.0154  -24.4952   20.5183 H   0  0  0  0  0  0
  -29.8802  -23.9288   19.6743 H   0  0  0  0  0  0
  1 25  1  0  0  0
  1 30  2  0  0  0
  1 86  1  0  0  0
  2  3  1  0  0  0
  2 25  1  0  0  0
  2 87  1  0  0  0
  2 88  1  0  0  0
  3  4  1  0  0  0
  3 89  1  0  0  0
  3 90  1  0  0  0
  4  5  1  0  0  0
  4 91  1  0  0  0
  4 92  1  0  0  0
  5  6  1  0  0  0
  5 26  1  0  0  0
  5 93  1  0  0  0
  6 25  1  0  0  0
  6 94  1  0  0  0
  6 95  1  0  0  0
  7  8  2  0  0  0
  7 26  1  0  0  0
  7 29  1  0  0  0
  8  9  1  0  0  0
  8 22  1  0  0  0
  9 10  1  0  0  0
  9 27  2  0  0  0
 10 11  2  0  0  0
 10 15  1  0  0  0
 11 12  1  0  0  0
 11 96  1  0  0  0
 12 13  2  0  0  0
 12 97  1  0  0  0
 13 14  1  0  0  0
 13 31  1  0  0  0
 14 15  2  0  0  0
 14 98  1  0  0  0
 15 99  1  0  0  0
 16 17  2  0  0  0
 16 21  1  0  0  0
 16 31  1  0  0  0
 17 18  1  0  0  0
 17100  1  0  0  0
 18 19  2  0  0  0
 18101  1  0  0  0
 19 20  1  0  0  0
 19 24  1  0  0  0
 20 21  2  0  0  0
 20102  1  0  0  0
 21 23  1  0  0  0
 22 28  1  0  0  0
 22 32  2  0  0  0
 26 27  1  0  0  0
 28103  1  0  0  0
 28104  1  0  0  0
 29105  1  0  0  0
 29106  1  0  0  0
 33 34  1  0  0  0
 33 66  1  0  0  0
 33 70  2  0  0  0
 34 36  1  0  0  0
 34 59  1  0  0  0
 34107  1  0  0  0
 35 44  2  0  0  0
 35 45  1  0  0  0
 35 68  1  0  0  0
 36 56  1  0  0  0
 36108  1  0  0  0
 37 39  1  0  0  0
 37 47  1  0  0  0
 37 66  1  0  0  0
 37109  1  0  0  0
 38 43  2  0  0  0
 38 46  1  0  0  0
 38 47  1  0  0  0
 39 64  1  0  0  0
 39 67  2  0  0  0
 40 52  1  0  0  0
 40 53  2  0  0  0
 40 58  1  0  0  0
 41110  1  0  0  0
 41111  1  0  0  0
 41112  1  0  0  0
 41 48  1  0  0  0
 42 43  1  0  0  0
 42 66  1  0  0  0
 42113  1  0  0  0
 42114  1  0  0  0
 43 44  1  0  0  0
 44115  1  0  0  0
 45 46  2  0  0  0
 45116  1  0  0  0
 46117  1  0  0  0
 47118  1  0  0  0
 47119  1  0  0  0
 48 56  1  0  0  0
 48 65  1  0  0  0
 48120  1  0  0  0
 49 50  1  0  0  0
 49 53  1  0  0  0
 49 64  1  0  0  0
 49121  1  0  0  0
 50 51  1  0  0  0
 50122  1  0  0  0
 50123  1  0  0  0
 51 52  1  0  0  0
 51124  1  0  0  0
 51125  1  0  0  0
 52126  1  0  0  0
 52127  1  0  0  0
 53 54  1  0  0  0
 54 55  2  0  0  0
 54128  1  0  0  0
 55 57  1  0  0  0
 55129  1  0  0  0
 56 69  2  0  0  0
 57 58  2  0  0  0
 57130  1  0  0  0
 58131  1  0  0  0
 59 60  1  0  0  0
 59 61  1  0  0  0
 59 62  1  0  0  0
 60132  1  0  0  0
 60133  1  0  0  0
 60134  1  0  0  0
 61135  1  0  0  0
 61136  1  0  0  0
 61137  1  0  0  0
 62138  1  0  0  0
 62139  1  0  0  0
 62140  1  0  0  0
 63 65  1  0  0  0
 63141  1  0  0  0
 63142  1  0  0  0
 63143  1  0  0  0
 64144  1  0  0  0
 65145  1  0  0  0
 68 83  1  0  0  0
 71 72  2  0  0  0
 71 74  1  0  0  0
 71146  1  0  0  0
 72 73  1  0  0  0
 72 76  1  0  0  0
 73 75  2  0  0  0
 73 80  1  0  0  0
 74 84  1  0  0  0
 74 85  2  0  0  0
 75 81  1  0  0  0
 75 85  1  0  0  0
 76147  1  0  0  0
 76148  1  0  0  0
 76149  1  0  0  0
 77 81  1  0  0  0
 77150  1  0  0  0
 77151  1  0  0  0
 77152  1  0  0  0
 78 82  1  0  0  0
 78153  1  0  0  0
 78154  1  0  0  0
 78155  1  0  0  0
 79 86  1  0  0  0
 79156  1  0  0  0
 79157  1  0  0  0
 79158  1  0  0  0
 80 86  1  0  0  0
 80159  1  0  0  0
 80160  1  0  0  0
 81161  1  0  0  0
 81162  1  0  0  0
 82163  1  0  0  0
 82164  1  0  0  0
 82 84  1  0  0  0
 83 84  1  0  0  0
 83165  1  0  0  0
 83166  1  0  0  0
 84167  1  0  0  0
M  ISO  4   1 100  68 101  83 101  86 100
M  END
> <chiral flag>
0

> <version>
0

> <s_m_source_file>
/data/baiqing/PycharmProjects/Reinvent-master-3.2/result/LINK_invent/BTK/process_docking_weight1_custom_sum_contain_oxygen_bond_distance_aromatic_linkinvent_7_9_3/rearranged_h_0100.sdf

> <i_m_source_file_index>
30

> <r_mmod_Potential_Energy-OPLS-2005>
427.719390869141

> <r_mmod_Stretch_Energy-OPLS-2005>
210.940887451172

> <r_mmod_Bend_Energy-OPLS-2005>
258.142303466797

> <r_mmod_Torsional_Energy-OPLS-2005>
269.771728515625

> <r_mmod_Improper_Torsional_Energy-OPLS-2005>
13.27672290802

> <r_mmod_Van_der_Waal_Energy-OPLS-2005>
130.466384887695

> <r_mmod_Electrostatic_Energy-OPLS-2005>
-409.953491210938

> <r_mmod_Solvation_Energy-OPLS-2005>
-199.350433349609

> <b_mmod_Minimization_Converged-OPLS-2005>
0

> <r_mmod_RMS_Derivative-OPLS-2005>
5.78816890716553

$$$$
30
                    3D
 Structure written by MMmdl.
165174  0  0  1  0            999 V2000
  -30.6562  -14.6037   20.5039 C   0  0  0  0  0  0
  -30.4188  -12.3770   19.4396 C   0  0  0  0  0  0
  -29.4870  -12.4793   18.2135 C   0  0  0  0  0  0
  -28.0130  -12.3272   18.6346 C   0  0  0  0  0  0
  -27.6421  -13.2144   19.8520 C   0  0  2  0  0  0
  -28.6876  -13.0878   20.9811 C   0  0  0  0  0  0
  -25.2514  -13.8155   20.5659 C   0  0  0  0  0  0
  -24.1805  -13.0438   20.9218 C   0  0  0  0  0  0
  -24.6370  -11.6906   20.8775 C   0  0  0  0  0  0
  -23.9046  -10.4289   21.0435 C   0  0  0  0  0  0
  -24.3609   -9.4200   21.9205 C   0  0  0  0  0  0
  -23.6292   -8.2229   22.0762 C   0  0  0  0  0  0
  -22.4273   -8.0277   21.3546 C   0  0  0  0  0  0
  -21.9910   -9.0246   20.4648 C   0  0  0  0  0  0
  -22.7227  -10.2128   20.3068 C   0  0  0  0  0  0
  -21.6845   -6.0737   22.5278 C   0  0  0  0  0  0
  -21.4008   -6.5642   23.8212 C   0  0  0  0  0  0
  -21.3652   -5.6795   24.9179 C   0  0  0  0  0  0
  -21.6039   -4.3058   24.7232 C   0  0  0  0  0  0
  -21.8821   -3.8148   23.4354 C   0  0  0  0  0  0
  -21.9194   -4.6964   22.3407 C   0  0  0  0  0  0
  -22.7831  -13.5235   21.1866 C   0  0  0  0  0  0
  -22.1663   -4.2147   21.0983 F   0  0  0  0  0  0
  -21.5627   -3.4547   25.7740 F   0  0  0  0  0  0
  -29.9971  -13.4115   20.4038 N   0  0  0  0  0  0
  -26.2929  -12.9339   20.3286 N   0  0  0  0  0  0
  -25.9292  -11.6499   20.5788 N   0  0  0  0  0  0
  -22.0481  -12.8224   22.0413 N   0  0  0  0  0  0
  -25.4216  -15.1864   20.3968 N   0  0  0  0  0  0
  -31.8363  -14.7072   20.1605 O   0  0  0  0  0  0
  -21.6634   -6.8878   21.4233 O   0  0  0  0  0  0
  -22.3516  -14.5543   20.6703 O   0  0  0  0  0  0
  -24.6225  -31.8636   23.2012 C   0  0  0  0  0  0
  -25.9053  -32.4816   23.8369 C   0  0  1  0  0  0
  -27.2230  -27.3492   20.1258 C   0  0  0  0  0  0
  -25.5849  -33.8621   24.2264 N   0  0  0  0  0  0
  -23.4177  -30.4844   21.5434 C   0  0  2  0  0  0
  -24.8648  -28.9353   20.1173 C   0  0  0  0  0  0
  -22.7484  -29.4624   22.4925 C   0  0  0  0  0  0
  -18.0291  -28.1381   22.8499 C   0  0  0  0  0  0
  -24.1477  -36.7295   23.2643 C   0  0  0  0  0  0
  -25.9570  -30.8003   21.3727 C   0  0  0  0  0  0
  -26.0309  -29.4292   20.7178 C   0  0  0  0  0  0
  -27.2196  -28.6479   20.7080 C   0  0  0  0  0  0
  -26.0414  -26.8907   19.5118 C   0  0  0  0  0  0
  -24.8685  -27.6692   19.5079 C   0  0  0  0  0  0
  -23.6335  -29.8144   20.1611 C   0  0  0  0  0  0
  -25.4109  -36.3108   24.0333 C   0  0  1  0  0  0
  -20.5902  -28.3677   23.1282 C   0  0  2  0  0  0
  -20.6770  -26.9396   22.5416 C   0  0  0  0  0  0
  -19.5727  -26.6386   21.5226 C   0  0  0  0  0  0
  -18.1917  -26.7927   22.1637 C   0  0  0  0  0  0
  -19.1559  -28.8842   23.2885 C   0  0  0  0  0  0
  -18.9479  -30.1452   23.8894 C   0  0  0  0  0  0
  -17.6481  -30.6587   24.0566 C   0  0  0  0  0  0
  -25.9044  -34.9483   23.5116 C   0  0  0  0  0  0
  -16.5364  -29.9089   23.6328 C   0  0  0  0  0  0
  -16.7293  -28.6511   23.0345 C   0  0  0  0  0  0
  -26.4426  -31.6636   25.0754 C   0  0  0  0  0  0
  -25.3656  -31.3776   26.1482 C   0  0  0  0  0  0
  -27.0291  -30.3068   24.6220 C   0  0  0  0  0  0
  -27.5968  -32.4437   25.7495 C   0  0  0  0  0  0
  -27.5601  -37.1781   24.8456 C   0  0  0  0  0  0
  -21.4194  -29.3035   22.3671 N   0  0  0  0  0  0
  -26.4279  -37.3820   23.9441 N   0  0  0  0  0  0
  -24.6845  -31.0678   22.0955 N   0  0  0  0  0  0
  -23.4222  -28.8198   23.3014 O   0  0  0  0  0  0
  -28.3359  -26.5156   20.1395 O   0  0  0  0  0  0
  -26.5655  -34.8940   22.4711 O   0  0  0  0  0  0
  -23.5380  -32.1432   23.7324 O   0  0  0  0  0  0
  -28.0553  -20.1403   21.3597 C   0  0  0  0  0  0
  -30.4580  -19.5354   20.2479 C   0  0  0  0  0  0
  -28.4870  -18.7789   21.3858 C   0  0  0  0  0  0
  -29.7545  -18.4499   20.8344 C   0  0  0  0  0  0
  -28.8806  -21.1706   20.8374 C   0  0  0  0  0  0
  -26.5929  -16.7989   23.6727 C   0  0  0  0  0  0
  -28.0748  -17.0706   23.3915 C   0  0  0  0  0  0
  -26.2937  -17.9927   22.7574 C   0  0  0  0  0  0
  -27.6380  -17.7089   22.0611 C   0  0  0  0  0  0
  -30.0465  -24.0736   19.5581 C   0  0  0  0  0  0
  -30.5185  -17.0839   21.0184 C   0  0  0  0  0  0
  -28.6117  -22.6736   21.2045 C   0  0  0  0  0  0
  -28.1827  -25.2419   20.8539 C   0  0  0  0  0  0
  -28.6518  -23.8865   20.1746 C   0  0  1  0  0  0
  -30.0628  -20.8387   20.2711 N   0  0  0  0  0  0
  -29.9256  -15.7189   20.8187 N   0  0  0  0  0  0
  -31.4570  -12.4942   19.1264 H   0  0  0  0  0  0
  -30.3542  -11.3886   19.8961 H   0  0  0  0  0  0
  -29.7438  -11.7114   17.4821 H   0  0  0  0  0  0
  -29.6269  -13.4376   17.7115 H   0  0  0  0  0  0
  -27.8506  -11.2773   18.8823 H   0  0  0  0  0  0
  -27.3523  -12.5424   17.7939 H   0  0  0  0  0  0
  -27.6567  -14.2447   19.4960 H   0  0  0  0  0  0
  -28.6963  -12.0722   21.3809 H   0  0  0  0  0  0
  -28.4395  -13.7431   21.8189 H   0  0  0  0  0  0
  -25.2759   -9.5672   22.4779 H   0  0  0  0  0  0
  -23.9998   -7.4620   22.7481 H   0  0  0  0  0  0
  -21.0845   -8.8760   19.8955 H   0  0  0  0  0  0
  -22.3694  -10.9670   19.6175 H   0  0  0  0  0  0
  -21.1995   -7.6154   23.9708 H   0  0  0  0  0  0
  -21.1470   -6.0533   25.9072 H   0  0  0  0  0  0
  -22.0608   -2.7612   23.2852 H   0  0  0  0  0  0
  -22.4116  -11.9888   22.4792 H   0  0  0  0  0  0
  -21.1093  -13.1225   22.2620 H   0  0  0  0  0  0
  -24.6489  -15.8344   20.4946 H   0  0  0  0  0  0
  -26.2463  -15.6086   19.9947 H   0  0  0  0  0  0
  -26.7140  -32.5482   23.1120 H   0  0  0  0  0  0
  -24.9906  -33.9771   25.0349 H   0  0  0  0  0  0
  -22.7092  -31.3025   21.3967 H   0  0  0  0  0  0
  -23.3761  -35.9603   23.3294 H   0  0  0  0  0  0
  -24.3560  -36.8972   22.2061 H   0  0  0  0  0  0
  -23.7198  -37.6475   23.6699 H   0  0  0  0  0  0
  -26.0945  -31.5589   20.6026 H   0  0  0  0  0  0
  -26.8368  -30.8449   22.0041 H   0  0  0  0  0  0
  -28.1210  -29.0210   21.1731 H   0  0  0  0  0  0
  -26.0255  -25.9152   19.0486 H   0  0  0  0  0  0
  -23.9722  -27.2791   19.0455 H   0  0  0  0  0  0
  -23.7572  -30.5879   19.4030 H   0  0  0  0  0  0
  -22.7539  -29.2422   19.8588 H   0  0  0  0  0  0
  -25.1290  -36.1958   25.0821 H   0  0  0  0  0  0
  -21.0002  -28.3261   24.1396 H   0  0  0  0  0  0
  -20.5679  -26.2294   23.3635 H   0  0  0  0  0  0
  -21.6637  -26.7418   22.1200 H   0  0  0  0  0  0
  -19.6870  -25.6303   21.1246 H   0  0  0  0  0  0
  -19.6649  -27.3201   20.6765 H   0  0  0  0  0  0
  -17.4200  -26.6712   21.4030 H   0  0  0  0  0  0
  -18.0264  -26.0063   22.9016 H   0  0  0  0  0  0
  -19.7960  -30.7272   24.2249 H   0  0  0  0  0  0
  -17.5043  -31.6264   24.5175 H   0  0  0  0  0  0
  -15.5361  -30.2992   23.7668 H   0  0  0  0  0  0
  -15.8691  -28.0854   22.7023 H   0  0  0  0  0  0
  -24.5775  -30.7207   25.7791 H   0  0  0  0  0  0
  -24.8869  -32.2936   26.4940 H   0  0  0  0  0  0
  -25.7947  -30.8904   27.0237 H   0  0  0  0  0  0
  -26.2881  -29.6797   24.1240 H   0  0  0  0  0  0
  -27.3999  -29.7351   25.4736 H   0  0  0  0  0  0
  -27.8754  -30.4379   23.9466 H   0  0  0  0  0  0
  -27.2555  -33.3770   26.1995 H   0  0  0  0  0  0
  -28.3764  -32.6995   25.0299 H   0  0  0  0  0  0
  -28.0653  -31.8646   26.5460 H   0  0  0  0  0  0
  -28.2560  -38.0140   24.7628 H   0  0  0  0  0  0
  -28.1176  -36.2686   24.6145 H   0  0  0  0  0  0
  -27.2342  -37.1266   25.8861 H   0  0  0  0  0  0
  -20.9382  -29.8757   21.6878 H   0  0  0  0  0  0
  -26.0165  -38.2894   24.1502 H   0  0  0  0  0  0
  -27.1259  -20.4162   21.8392 H   0  0  0  0  0  0
  -31.4334  -19.3707   19.8163 H   0  0  0  0  0  0
  -26.2855  -16.9208   24.7120 H   0  0  0  0  0  0
  -26.2490  -15.8483   23.2577 H   0  0  0  0  0  0
  -28.7045  -16.1849   23.3025 H   0  0  0  0  0  0
  -28.5057  -17.7931   24.0884 H   0  0  0  0  0  0
  -26.2726  -18.9296   23.3161 H   0  0  0  0  0  0
  -25.4151  -17.8877   22.1210 H   0  0  0  0  0  0
  -27.4740  -16.9301   21.3165 H   0  0  0  0  0  0
  -30.3430  -23.2053   18.9679 H   0  0  0  0  0  0
  -30.8006  -24.2238   20.3318 H   0  0  0  0  0  0
  -30.0749  -24.9403   18.8963 H   0  0  0  0  0  0
  -30.8824  -17.0962   22.0462 H   0  0  0  0  0  0
  -31.4230  -17.1517   20.4117 H   0  0  0  0  0  0
  -29.3004  -22.9044   22.0194 H   0  0  0  0  0  0
  -27.6272  -22.6964   21.6730 H   0  0  0  0  0  0
  -28.7480  -25.3648   21.7796 H   0  0  0  0  0  0
  -27.1518  -25.1112   21.1873 H   0  0  0  0  0  0
  -27.9569  -23.6655   19.3636 H   0  0  0  0  0  0
  -28.9476  -15.5842   21.0192 H   0  0  0  0  0  0
  1 25  1  0  0  0
  1 30  2  0  0  0
  1 86  1  0  0  0
  2  3  1  0  0  0
  2 25  1  0  0  0
  2 87  1  0  0  0
  2 88  1  0  0  0
  3  4  1  0  0  0
  3 89  1  0  0  0
  3 90  1  0  0  0
  4  5  1  0  0  0
  4 91  1  0  0  0
  4 92  1  0  0  0
  5  6  1  0  0  0
  5 26  1  0  0  0
  5 93  1  0  0  0
  6 25  1  0  0  0
  6 94  1  0  0  0
  6 95  1  0  0  0
  7  8  2  0  0  0
  7 26  1  0  0  0
  7 29  1  0  0  0
  8  9  1  0  0  0
  8 22  1  0  0  0
  9 10  1  0  0  0
  9 27  2  0  0  0
 10 11  2  0  0  0
 10 15  1  0  0  0
 11 12  1  0  0  0
 11 96  1  0  0  0
 12 13  2  0  0  0
 12 97  1  0  0  0
 13 14  1  0  0  0
 13 31  1  0  0  0
 14 15  2  0  0  0
 14 98  1  0  0  0
 15 99  1  0  0  0
 16 17  2  0  0  0
 16 21  1  0  0  0
 16 31  1  0  0  0
 17 18  1  0  0  0
 17100  1  0  0  0
 18 19  2  0  0  0
 18101  1  0  0  0
 19 20  1  0  0  0
 19 24  1  0  0  0
 20 21  2  0  0  0
 20102  1  0  0  0
 21 23  1  0  0  0
 22 28  1  0  0  0
 22 32  2  0  0  0
 26 27  1  0  0  0
 28103  1  0  0  0
 28104  1  0  0  0
 29105  1  0  0  0
 29106  1  0  0  0
 33 34  1  0  0  0
 33 66  1  0  0  0
 33 70  2  0  0  0
 34 36  1  0  0  0
 34 59  1  0  0  0
 34107  1  0  0  0
 35 44  2  0  0  0
 35 45  1  0  0  0
 35 68  1  0  0  0
 36 56  1  0  0  0
 36108  1  0  0  0
 37 39  1  0  0  0
 37 47  1  0  0  0
 37 66  1  0  0  0
 37109  1  0  0  0
 38 43  2  0  0  0
 38 46  1  0  0  0
 38 47  1  0  0  0
 39 64  1  0  0  0
 39 67  2  0  0  0
 40 52  1  0  0  0
 40 53  2  0  0  0
 40 58  1  0  0  0
 41110  1  0  0  0
 41111  1  0  0  0
 41112  1  0  0  0
 41 48  1  0  0  0
 42 43  1  0  0  0
 42 66  1  0  0  0
 42113  1  0  0  0
 42114  1  0  0  0
 43 44  1  0  0  0
 44115  1  0  0  0
 45 46  2  0  0  0
 45116  1  0  0  0
 46117  1  0  0  0
 47118  1  0  0  0
 47119  1  0  0  0
 48 56  1  0  0  0
 48 65  1  0  0  0
 48120  1  0  0  0
 49 50  1  0  0  0
 49 53  1  0  0  0
 49 64  1  0  0  0
 49121  1  0  0  0
 50 51  1  0  0  0
 50122  1  0  0  0
 50123  1  0  0  0
 51 52  1  0  0  0
 51124  1  0  0  0
 51125  1  0  0  0
 52126  1  0  0  0
 52127  1  0  0  0
 53 54  1  0  0  0
 54 55  2  0  0  0
 54128  1  0  0  0
 55 57  1  0  0  0
 55129  1  0  0  0
 56 69  2  0  0  0
 57 58  2  0  0  0
 57130  1  0  0  0
 58131  1  0  0  0
 59 60  1  0  0  0
 59 61  1  0  0  0
 59 62  1  0  0  0
 60132  1  0  0  0
 60133  1  0  0  0
 60134  1  0  0  0
 61135  1  0  0  0
 61136  1  0  0  0
 61137  1  0  0  0
 62138  1  0  0  0
 62139  1  0  0  0
 62140  1  0  0  0
 63 65  1  0  0  0
 63141  1  0  0  0
 63142  1  0  0  0
 63143  1  0  0  0
 64144  1  0  0  0
 65145  1  0  0  0
 68 83  1  0  0  0
 71 73  2  0  0  0
 71 75  1  0  0  0
 71146  1  0  0  0
 72 74  2  0  0  0
 72 85  1  0  0  0
 72147  1  0  0  0
 73 74  1  0  0  0
 73 79  1  0  0  0
 74 81  1  0  0  0
 75 82  1  0  0  0
 75 85  2  0  0  0
 76 77  1  0  0  0
 76 78  1  0  0  0
 76148  1  0  0  0
 76149  1  0  0  0
 77 79  1  0  0  0
 77150  1  0  0  0
 77151  1  0  0  0
 78 79  1  0  0  0
 78152  1  0  0  0
 78153  1  0  0  0
 79154  1  0  0  0
 80155  1  0  0  0
 80156  1  0  0  0
 80157  1  0  0  0
 80 84  1  0  0  0
 81 86  1  0  0  0
 81158  1  0  0  0
 81159  1  0  0  0
 82 84  1  0  0  0
 82160  1  0  0  0
 82161  1  0  0  0
 83 84  1  0  0  0
 83162  1  0  0  0
 83163  1  0  0  0
 84164  1  0  0  0
 86165  1  0  0  0
M  ISO  4   1 100  68 101  83 101  86 100
M  END
> <chiral flag>
0

> <version>
0

> <s_m_source_file>
/data/baiqing/PycharmProjects/Reinvent-master-3.2/result/LINK_invent/BTK/process_docking_weight1_custom_sum_contain_oxygen_bond_distance_aromatic_linkinvent_7_9_3/rearranged_h_0100.sdf

> <i_m_source_file_index>
31

> <r_mmod_Potential_Energy-OPLS-2005>
-35.6264801025391

> <r_mmod_Stretch_Energy-OPLS-2005>
68.7400436401367

> <r_mmod_Bend_Energy-OPLS-2005>
163.822494506836

> <r_mmod_Torsional_Energy-OPLS-2005>
254.146026611328

> <r_mmod_Improper_Torsional_Energy-OPLS-2005>
7.60823345184326

> <r_mmod_Van_der_Waal_Energy-OPLS-2005>
136.281845092773

> <r_mmod_Electrostatic_Energy-OPLS-2005>
-494.577545166016

> <r_mmod_Solvation_Energy-OPLS-2005>
-212.144592285156

> <b_mmod_Minimization_Converged-OPLS-2005>
0

> <r_mmod_RMS_Derivative-OPLS-2005>
2.78872346878052

$$$$
31
                    3D
 Structure written by MMmdl.
180188  0  0  1  0            999 V2000
  -30.6335  -14.5693   20.5516 C   0  0  0  0  0  0
  -30.4192  -12.3659   19.4368 C   0  0  0  0  0  0
  -29.4834  -12.5066   18.2175 C   0  0  0  0  0  0
  -28.0143  -12.3347   18.6422 C   0  0  0  0  0  0
  -27.6466  -13.2030   19.8713 C   0  0  2  0  0  0
  -28.6874  -13.0379   20.9959 C   0  0  0  0  0  0
  -25.2543  -13.8068   20.5723 C   0  0  0  0  0  0
  -24.1815  -13.0377   20.9129 C   0  0  0  0  0  0
  -24.6386  -11.6824   20.8709 C   0  0  0  0  0  0
  -23.9081  -10.4240   21.0389 C   0  0  0  0  0  0
  -24.3649   -9.4176   21.9186 C   0  0  0  0  0  0
  -23.6323   -8.2221   22.0785 C   0  0  0  0  0  0
  -22.4312   -8.0267   21.3550 C   0  0  0  0  0  0
  -21.9921   -9.0241   20.4667 C   0  0  0  0  0  0
  -22.7250  -10.2096   20.3055 C   0  0  0  0  0  0
  -21.6851   -6.0751   22.5268 C   0  0  0  0  0  0
  -21.4017   -6.5659   23.8204 C   0  0  0  0  0  0
  -21.3646   -5.6805   24.9159 C   0  0  0  0  0  0
  -21.6038   -4.3071   24.7199 C   0  0  0  0  0  0
  -21.8835   -3.8162   23.4326 C   0  0  0  0  0  0
  -21.9207   -4.6981   22.3381 C   0  0  0  0  0  0
  -22.7862  -13.5193   21.1791 C   0  0  0  0  0  0
  -22.1680   -4.2179   21.0960 F   0  0  0  0  0  0
  -21.5613   -3.4549   25.7710 F   0  0  0  0  0  0
  -29.9978  -13.3696   20.4309 N   0  0  0  0  0  0
  -26.2970  -12.9254   20.3394 N   0  0  0  0  0  0
  -25.9301  -11.6407   20.5770 N   0  0  0  0  0  0
  -22.0576  -12.8219   22.0383 N   0  0  0  0  0  0
  -25.4280  -15.1785   20.4283 N   0  0  0  0  0  0
  -31.7980  -14.7322   20.1826 O   0  0  0  0  0  0
  -21.6653   -6.8888   21.4247 O   0  0  0  0  0  0
  -22.3543  -14.5500   20.6628 O   0  0  0  0  0  0
  -24.6144  -31.8680   23.2133 C   0  0  0  0  0  0
  -25.9012  -32.4811   23.8444 C   0  0  1  0  0  0
  -27.2242  -27.3965   20.0971 C   0  0  0  0  0  0
  -25.5857  -33.8609   24.2359 N   0  0  0  0  0  0
  -23.4034  -30.4937   21.5546 C   0  0  2  0  0  0
  -24.8447  -28.9577   20.1162 C   0  0  0  0  0  0
  -22.7411  -29.4670   22.4989 C   0  0  0  0  0  0
  -18.0345  -28.1336   22.8525 C   0  0  0  0  0  0
  -24.1481  -36.7299   23.2647 C   0  0  0  0  0  0
  -25.9383  -30.8193   21.3731 C   0  0  0  0  0  0
  -26.0082  -29.4541   20.7136 C   0  0  0  0  0  0
  -27.1956  -28.6818   20.6988 C   0  0  0  0  0  0
  -26.0314  -26.9195   19.5129 C   0  0  0  0  0  0
  -24.8519  -27.6904   19.5148 C   0  0  0  0  0  0
  -23.6126  -29.8286   20.1690 C   0  0  0  0  0  0
  -25.4088  -36.3100   24.0355 C   0  0  1  0  0  0
  -20.5911  -28.3688   23.1326 C   0  0  2  0  0  0
  -20.6915  -26.9431   22.5437 C   0  0  0  0  0  0
  -19.5920  -26.6413   21.5213 C   0  0  0  0  0  0
  -18.2050  -26.7902   22.1587 C   0  0  0  0  0  0
  -19.1570  -28.8818   23.2934 C   0  0  0  0  0  0
  -18.9471  -30.1408   23.8951 C   0  0  0  0  0  0
  -17.6485  -30.6569   24.0551 C   0  0  0  0  0  0
  -25.9009  -34.9450   23.5160 C   0  0  0  0  0  0
  -16.5381  -29.9072   23.6277 C   0  0  0  0  0  0
  -16.7323  -28.6459   23.0359 C   0  0  0  0  0  0
  -26.4442  -31.6582   25.0776 C   0  0  0  0  0  0
  -25.3722  -31.3635   26.1542 C   0  0  0  0  0  0
  -27.0318  -30.3065   24.6123 C   0  0  0  0  0  0
  -27.6066  -32.4297   25.7483 C   0  0  0  0  0  0
  -27.5565  -37.1804   24.8468 C   0  0  0  0  0  0
  -21.4137  -29.3109   22.3750 N   0  0  0  0  0  0
  -26.4282  -37.3765   23.9404 N   0  0  0  0  0  0
  -24.6730  -31.0720   22.1081 N   0  0  0  0  0  0
  -23.4148  -28.8142   23.2971 O   0  0  0  0  0  0
  -28.3996  -26.6562   20.1276 O   0  0  0  0  0  0
  -26.5592  -34.8895   22.4732 O   0  0  0  0  0  0
  -23.5326  -32.1485   23.7486 O   0  0  0  0  0  0
  -28.9304  -22.3986   21.6116 C   0  0  0  0  0  0
  -29.0271  -23.7016   21.0816 C   0  0  0  0  0  0
  -27.9542  -21.4845   21.1652 C   0  0  0  0  0  0
  -28.2500  -24.0978   19.9736 C   0  0  0  0  0  0
  -27.3147  -23.1573   19.4464 C   0  0  0  0  0  0
  -27.0575  -21.9347   20.1482 C   0  0  0  0  0  0
  -26.6128  -23.4215   18.1086 C   0  0  0  0  0  0
  -23.2733  -21.0670   20.3763 C   0  0  0  0  0  0
  -24.5849  -22.9886   21.3593 C   0  0  0  0  0  0
  -27.2905  -17.8339   20.8776 C   0  0  0  0  0  0
  -30.0533  -18.6249   23.1513 C   0  0  0  0  0  0
  -30.9239  -18.4316   20.8431 C   0  0  0  0  0  0
  -27.8570  -20.1113   21.8854 C   0  0  0  0  0  0
  -25.7542  -21.1789   19.8693 C   0  0  0  0  0  0
  -28.5641  -25.4652   19.3201 C   0  0  0  0  0  0
  -29.7037  -16.4894   21.9267 C   0  0  0  0  0  0
  -24.4702  -22.0021   20.1733 C   0  0  0  0  0  0
  -28.4362  -18.8184   21.1514 C   0  0  1  0  0  0
  -29.7280  -18.0758   21.7487 C   0  0  0  0  0  0
  -29.8237  -15.6507   20.7116 N   0  0  0  0  0  0
  -31.4563  -12.5011   19.1302 H   0  0  0  0  0  0
  -30.3481  -11.3627   19.8606 H   0  0  0  0  0  0
  -29.7386  -11.7674   17.4585 H   0  0  0  0  0  0
  -29.6184  -13.4818   17.7497 H   0  0  0  0  0  0
  -27.8641  -11.2812   18.8893 H   0  0  0  0  0  0
  -27.3421  -12.5490   17.8100 H   0  0  0  0  0  0
  -27.6723  -14.2384   19.5349 H   0  0  0  0  0  0
  -28.6898  -12.0128   21.3667 H   0  0  0  0  0  0
  -28.4437  -13.6758   21.8478 H   0  0  0  0  0  0
  -25.2818   -9.5681   22.4731 H   0  0  0  0  0  0
  -24.0029   -7.4656   22.7536 H   0  0  0  0  0  0
  -21.0828   -8.8771   19.9018 H   0  0  0  0  0  0
  -22.3727  -10.9639   19.6150 H   0  0  0  0  0  0
  -21.2029   -7.6179   23.9686 H   0  0  0  0  0  0
  -21.1440   -6.0559   25.9051 H   0  0  0  0  0  0
  -22.0635   -2.7644   23.2800 H   0  0  0  0  0  0
  -22.4265  -11.9855   22.4688 H   0  0  0  0  0  0
  -21.1217  -13.1239   22.2612 H   0  0  0  0  0  0
  -24.6713  -15.8302   20.5995 H   0  0  0  0  0  0
  -26.3165  -15.6290   20.2590 H   0  0  0  0  0  0
  -26.7054  -32.5501   23.1176 H   0  0  0  0  0  0
  -24.9968  -33.9789   25.0476 H   0  0  0  0  0  0
  -22.6970  -31.3151   21.4200 H   0  0  0  0  0  0
  -23.3731  -35.9638   23.3333 H   0  0  0  0  0  0
  -24.3573  -36.8908   22.2058 H   0  0  0  0  0  0
  -23.7255  -37.6521   23.6656 H   0  0  0  0  0  0
  -26.0558  -31.5865   20.6083 H   0  0  0  0  0  0
  -26.8213  -30.8662   21.9993 H   0  0  0  0  0  0
  -28.0897  -29.0721   21.1602 H   0  0  0  0  0  0
  -25.9797  -25.9409   19.0724 H   0  0  0  0  0  0
  -23.9503  -27.2970   19.0661 H   0  0  0  0  0  0
  -23.7239  -30.6094   19.4156 H   0  0  0  0  0  0
  -22.7355  -29.2512   19.8746 H   0  0  0  0  0  0
  -25.1255  -36.1981   25.0847 H   0  0  0  0  0  0
  -21.0016  -28.3241   24.1450 H   0  0  0  0  0  0
  -20.5883  -26.2270   23.3619 H   0  0  0  0  0  0
  -21.6791  -26.7585   22.1192 H   0  0  0  0  0  0
  -19.7140  -25.6404   21.1126 H   0  0  0  0  0  0
  -19.6852  -27.3365   20.6853 H   0  0  0  0  0  0
  -17.4379  -26.6779   21.3911 H   0  0  0  0  0  0
  -18.0404  -25.9943   22.8899 H   0  0  0  0  0  0
  -19.7917  -30.7227   24.2331 H   0  0  0  0  0  0
  -17.5041  -31.6272   24.5124 H   0  0  0  0  0  0
  -15.5388  -30.3049   23.7498 H   0  0  0  0  0  0
  -15.8736  -28.0767   22.7092 H   0  0  0  0  0  0
  -24.5891  -30.6998   25.7859 H   0  0  0  0  0  0
  -24.8895  -32.2775   26.5038 H   0  0  0  0  0  0
  -25.8092  -30.8774   27.0284 H   0  0  0  0  0  0
  -26.2906  -29.6799   24.1190 H   0  0  0  0  0  0
  -27.4191  -29.7299   25.4529 H   0  0  0  0  0  0
  -27.8651  -30.4452   23.9233 H   0  0  0  0  0  0
  -27.2726  -33.3586   26.2090 H   0  0  0  0  0  0
  -28.3788  -32.6878   25.0228 H   0  0  0  0  0  0
  -28.0813  -31.8420   26.5345 H   0  0  0  0  0  0
  -28.2591  -38.0090   24.7475 H   0  0  0  0  0  0
  -28.1074  -36.2641   24.6344 H   0  0  0  0  0  0
  -27.2303  -37.1476   25.8877 H   0  0  0  0  0  0
  -20.9267  -29.8973   21.7150 H   0  0  0  0  0  0
  -26.0200  -38.2851   24.1417 H   0  0  0  0  0  0
  -29.5997  -22.1190   22.4097 H   0  0  0  0  0  0
  -29.7654  -24.3787   21.4913 H   0  0  0  0  0  0
  -27.2834  -23.8835   17.3858 H   0  0  0  0  0  0
  -25.7248  -24.0408   18.2036 H   0  0  0  0  0  0
  -26.3005  -22.4990   17.6276 H   0  0  0  0  0  0
  -23.1228  -20.4678   19.4769 H   0  0  0  0  0  0
  -22.3540  -21.6241   20.5614 H   0  0  0  0  0  0
  -23.4331  -20.3967   21.2253 H   0  0  0  0  0  0
  -23.6190  -23.4457   21.5925 H   0  0  0  0  0  0
  -25.2626  -23.8088   21.1290 H   0  0  0  0  0  0
  -24.9507  -22.4981   22.2637 H   0  0  0  0  0  0
  -27.6216  -17.0295   20.2213 H   0  0  0  0  0  0
  -26.4647  -18.3153   20.3603 H   0  0  0  0  0  0
  -26.8972  -17.4060   21.7991 H   0  0  0  0  0  0
  -30.3179  -19.6830   23.1151 H   0  0  0  0  0  0
  -30.9080  -18.1179   23.5895 H   0  0  0  0  0  0
  -29.2160  -18.4961   23.8436 H   0  0  0  0  0  0
  -30.9537  -19.5027   20.6467 H   0  0  0  0  0  0
  -31.8773  -18.1565   21.2988 H   0  0  0  0  0  0
  -30.8596  -17.9375   19.8735 H   0  0  0  0  0  0
  -26.8243  -19.9390   22.1735 H   0  0  0  0  0  0
  -28.2832  -20.2772   22.8710 H   0  0  0  0  0  0
  -25.6990  -20.2940   20.4878 H   0  0  0  0  0  0
  -25.7480  -20.7720   18.8588 H   0  0  0  0  0  0
  -28.1060  -25.6073   18.3466 H   0  0  0  0  0  0
  -29.6303  -25.4167   19.0960 H   0  0  0  0  0  0
  -28.8160  -16.1945   22.4904 H   0  0  0  0  0  0
  -30.5481  -16.2170   22.5655 H   0  0  0  0  0  0
  -24.2664  -22.6176   19.2991 H   0  0  0  0  0  0
  -28.6977  -19.1656   20.1544 H   0  0  0  0  0  0
  -29.9602  -16.2708   19.9291 H   0  0  0  0  0  0
  1 25  1  0  0  0
  1 30  2  0  0  0
  1 90  1  0  0  0
  2  3  1  0  0  0
  2 25  1  0  0  0
  2 91  1  0  0  0
  2 92  1  0  0  0
  3  4  1  0  0  0
  3 93  1  0  0  0
  3 94  1  0  0  0
  4  5  1  0  0  0
  4 95  1  0  0  0
  4 96  1  0  0  0
  5  6  1  0  0  0
  5 26  1  0  0  0
  5 97  1  0  0  0
  6 25  1  0  0  0
  6 98  1  0  0  0
  6 99  1  0  0  0
  7  8  2  0  0  0
  7 26  1  0  0  0
  7 29  1  0  0  0
  8  9  1  0  0  0
  8 22  1  0  0  0
  9 10  1  0  0  0
  9 27  2  0  0  0
 10 11  2  0  0  0
 10 15  1  0  0  0
 11 12  1  0  0  0
 11100  1  0  0  0
 12 13  2  0  0  0
 12101  1  0  0  0
 13 14  1  0  0  0
 13 31  1  0  0  0
 14 15  2  0  0  0
 14102  1  0  0  0
 15103  1  0  0  0
 16 17  2  0  0  0
 16 21  1  0  0  0
 16 31  1  0  0  0
 17 18  1  0  0  0
 17104  1  0  0  0
 18 19  2  0  0  0
 18105  1  0  0  0
 19 20  1  0  0  0
 19 24  1  0  0  0
 20 21  2  0  0  0
 20106  1  0  0  0
 21 23  1  0  0  0
 22 28  1  0  0  0
 22 32  2  0  0  0
 26 27  1  0  0  0
 28107  1  0  0  0
 28108  1  0  0  0
 29109  1  0  0  0
 29110  1  0  0  0
 33 34  1  0  0  0
 33 66  1  0  0  0
 33 70  2  0  0  0
 34 36  1  0  0  0
 34 59  1  0  0  0
 34111  1  0  0  0
 35 44  2  0  0  0
 35 45  1  0  0  0
 35 68  1  0  0  0
 36 56  1  0  0  0
 36112  1  0  0  0
 37 39  1  0  0  0
 37 47  1  0  0  0
 37 66  1  0  0  0
 37113  1  0  0  0
 38 43  2  0  0  0
 38 46  1  0  0  0
 38 47  1  0  0  0
 39 64  1  0  0  0
 39 67  2  0  0  0
 40 52  1  0  0  0
 40 53  2  0  0  0
 40 58  1  0  0  0
 41114  1  0  0  0
 41115  1  0  0  0
 41116  1  0  0  0
 41 48  1  0  0  0
 42 43  1  0  0  0
 42 66  1  0  0  0
 42117  1  0  0  0
 42118  1  0  0  0
 43 44  1  0  0  0
 44119  1  0  0  0
 45 46  2  0  0  0
 45120  1  0  0  0
 46121  1  0  0  0
 47122  1  0  0  0
 47123  1  0  0  0
 48 56  1  0  0  0
 48 65  1  0  0  0
 48124  1  0  0  0
 49 50  1  0  0  0
 49 53  1  0  0  0
 49 64  1  0  0  0
 49125  1  0  0  0
 50 51  1  0  0  0
 50126  1  0  0  0
 50127  1  0  0  0
 51 52  1  0  0  0
 51128  1  0  0  0
 51129  1  0  0  0
 52130  1  0  0  0
 52131  1  0  0  0
 53 54  1  0  0  0
 54 55  2  0  0  0
 54132  1  0  0  0
 55 57  1  0  0  0
 55133  1  0  0  0
 56 69  2  0  0  0
 57 58  2  0  0  0
 57134  1  0  0  0
 58135  1  0  0  0
 59 60  1  0  0  0
 59 61  1  0  0  0
 59 62  1  0  0  0
 60136  1  0  0  0
 60137  1  0  0  0
 60138  1  0  0  0
 61139  1  0  0  0
 61140  1  0  0  0
 61141  1  0  0  0
 62142  1  0  0  0
 62143  1  0  0  0
 62144  1  0  0  0
 63 65  1  0  0  0
 63145  1  0  0  0
 63146  1  0  0  0
 63147  1  0  0  0
 64148  1  0  0  0
 65149  1  0  0  0
 68 85  1  0  0  0
 71 72  2  0  0  0
 71 73  1  0  0  0
 71150  1  0  0  0
 72 74  1  0  0  0
 72151  1  0  0  0
 73 76  2  0  0  0
 73 83  1  0  0  0
 74 75  2  0  0  0
 74 85  1  0  0  0
 75 76  1  0  0  0
 75 77  1  0  0  0
 76 84  1  0  0  0
 77152  1  0  0  0
 77153  1  0  0  0
 77154  1  0  0  0
 78155  1  0  0  0
 78156  1  0  0  0
 78157  1  0  0  0
 78 87  1  0  0  0
 79 87  1  0  0  0
 79158  1  0  0  0
 79159  1  0  0  0
 79160  1  0  0  0
 80161  1  0  0  0
 80162  1  0  0  0
 80163  1  0  0  0
 80 88  1  0  0  0
 81164  1  0  0  0
 81165  1  0  0  0
 81166  1  0  0  0
 81 89  1  0  0  0
 82 89  1  0  0  0
 82167  1  0  0  0
 82168  1  0  0  0
 82169  1  0  0  0
 83 88  1  0  0  0
 83170  1  0  0  0
 83171  1  0  0  0
 84 87  1  0  0  0
 84172  1  0  0  0
 84173  1  0  0  0
 85174  1  0  0  0
 85175  1  0  0  0
 86 89  1  0  0  0
 86 90  1  0  0  0
 86176  1  0  0  0
 86177  1  0  0  0
 87178  1  0  0  0
 88 89  1  0  0  0
 88179  1  0  0  0
 90180  1  0  0  0
M  ISO  4   1 100  68 101  85 101  90 100
M  END
> <chiral flag>
0

> <version>
0

> <s_m_source_file>
/data/baiqing/PycharmProjects/Reinvent-master-3.2/result/LINK_invent/BTK/process_docking_weight1_custom_sum_contain_oxygen_bond_distance_aromatic_linkinvent_7_9_3/rearranged_h_0100.sdf

> <i_m_source_file_index>
32

> <r_mmod_Potential_Energy-OPLS-2005>
172.929992675781

> <r_mmod_Stretch_Energy-OPLS-2005>
65.1102981567383

> <r_mmod_Bend_Energy-OPLS-2005>
163.050827026367

> <r_mmod_Torsional_Energy-OPLS-2005>
340.425018310547

> <r_mmod_Improper_Torsional_Energy-OPLS-2005>
16.7390537261963

> <r_mmod_Van_der_Waal_Energy-OPLS-2005>
166.809036254883

> <r_mmod_Electrostatic_Energy-OPLS-2005>
-425.004699707031

> <r_mmod_Solvation_Energy-OPLS-2005>
-180.678146362305

> <b_mmod_Minimization_Converged-OPLS-2005>
0

> <r_mmod_RMS_Derivative-OPLS-2005>
7.62081718444824

$$$$
32
                    3D
 Structure written by MMmdl.
152160  0  0  1  0            999 V2000
  -30.5449  -14.9473   20.4167 C   0  0  0  0  0  0
  -30.4393  -12.5781   19.5119 C   0  0  0  0  0  0
  -29.5249  -12.5309   18.2649 C   0  0  0  0  0  0
  -28.0581  -12.3133   18.6807 C   0  0  0  0  0  0
  -27.6358  -13.2456   19.8469 C   0  0  2  0  0  0
  -28.6769  -13.2722   20.9885 C   0  0  0  0  0  0
  -25.2491  -13.8217   20.5679 C   0  0  0  0  0  0
  -24.1806  -13.0439   20.9191 C   0  0  0  0  0  0
  -24.6418  -11.6924   20.8756 C   0  0  0  0  0  0
  -23.9083  -10.4290   21.0394 C   0  0  0  0  0  0
  -24.3631   -9.4200   21.9164 C   0  0  0  0  0  0
  -23.6301   -8.2244   22.0743 C   0  0  0  0  0  0
  -22.4280   -8.0284   21.3536 C   0  0  0  0  0  0
  -21.9925   -9.0259   20.4629 C   0  0  0  0  0  0
  -22.7264  -10.2129   20.3030 C   0  0  0  0  0  0
  -21.6861   -6.0721   22.5270 C   0  0  0  0  0  0
  -21.4015   -6.5618   23.8204 C   0  0  0  0  0  0
  -21.3663   -5.6775   24.9163 C   0  0  0  0  0  0
  -21.6044   -4.3044   24.7228 C   0  0  0  0  0  0
  -21.8830   -3.8126   23.4358 C   0  0  0  0  0  0
  -21.9202   -4.6938   22.3398 C   0  0  0  0  0  0
  -22.7827  -13.5211   21.1836 C   0  0  0  0  0  0
  -22.1664   -4.2119   21.0982 F   0  0  0  0  0  0
  -21.5635   -3.4533   25.7747 F   0  0  0  0  0  0
  -29.9539  -13.6826   20.3928 N   0  0  0  0  0  0
  -26.2924  -12.9443   20.3285 N   0  0  0  0  0  0
  -25.9358  -11.6567   20.5774 N   0  0  0  0  0  0
  -22.0482  -12.8203   22.0402 N   0  0  0  0  0  0
  -25.4193  -15.1940   20.4017 N   0  0  0  0  0  0
  -31.7386  -15.0085   20.1007 O   0  0  0  0  0  0
  -21.6653   -6.8873   21.4237 O   0  0  0  0  0  0
  -22.3490  -14.5506   20.6675 O   0  0  0  0  0  0
  -24.6479  -31.8411   23.1837 C   0  0  0  0  0  0
  -25.9253  -32.4676   23.8236 C   0  0  1  0  0  0
  -27.2247  -27.1074   20.1702 C   0  0  0  0  0  0
  -25.5998  -33.8467   24.2194 N   0  0  0  0  0  0
  -23.4526  -30.4566   21.5283 C   0  0  2  0  0  0
  -24.9066  -28.8758   20.1111 C   0  0  0  0  0  0
  -22.7597  -29.4516   22.4854 C   0  0  0  0  0  0
  -18.0314  -28.1387   22.8467 C   0  0  0  0  0  0
  -24.1477  -36.7209   23.2641 C   0  0  0  0  0  0
  -26.0106  -30.7059   21.3853 C   0  0  0  0  0  0
  -26.0838  -29.3118   20.7311 C   0  0  0  0  0  0
  -27.2444  -28.4461   20.7379 C   0  0  0  0  0  0
  -26.0261  -26.7813   19.5008 C   0  0  0  0  0  0
  -24.8911  -27.6255   19.4746 C   0  0  0  0  0  0
  -23.6830  -29.7805   20.1504 C   0  0  0  0  0  0
  -25.4110  -36.3022   24.0347 C   0  0  1  0  0  0
  -20.5929  -28.3702   23.1236 C   0  0  2  0  0  0
  -20.6792  -26.9411   22.5384 C   0  0  0  0  0  0
  -19.5753  -26.6380   21.5202 C   0  0  0  0  0  0
  -18.1948  -26.7934   22.1630 C   0  0  0  0  0  0
  -19.1576  -28.8880   23.2832 C   0  0  0  0  0  0
  -18.9487  -30.1465   23.8853 C   0  0  0  0  0  0
  -17.6489  -30.6579   24.0552 C   0  0  0  0  0  0
  -25.9068  -34.9398   23.5073 C   0  0  0  0  0  0
  -16.5370  -29.9065   23.6344 C   0  0  0  0  0  0
  -16.7299  -28.6488   23.0361 C   0  0  0  0  0  0
  -26.4558  -31.6537   25.0663 C   0  0  0  0  0  0
  -25.3760  -31.3739   26.1360 C   0  0  0  0  0  0
  -27.0412  -30.2945   24.6250 C   0  0  0  0  0  0
  -27.6109  -32.4266   25.7463 C   0  0  0  0  0  0
  -27.5575  -37.1746   24.8467 C   0  0  0  0  0  0
  -21.4296  -29.3024   22.3609 N   0  0  0  0  0  0
  -26.4271  -37.3741   23.9450 N   0  0  0  0  0  0
  -24.7235  -31.0261   22.0860 N   0  0  0  0  0  0
  -23.4234  -28.8089   23.3015 O   0  0  0  0  0  0
  -28.2718  -26.1038   20.2124 O   0  0  0  0  0  0
  -26.5611  -34.8906   22.4621 O   0  0  0  0  0  0
  -23.5601  -32.1307   23.7056 O   0  0  0  0  0  0
  -28.6106  -21.8318   20.5895 C   0  0  0  0  0  0
  -29.4551  -20.6517   20.2405 C   0  0  0  0  0  0
  -30.6129  -21.0604   19.5167 C   0  0  0  0  0  0
  -28.8938  -23.2542   20.2402 C   0  0  0  0  0  0
  -30.8543  -22.4402   19.2353 C   0  0  0  0  0  0
  -32.1234  -22.8481   18.5021 C   0  0  0  0  0  0
  -29.1472  -19.0411   20.6007 C   0  0  0  0  0  0
  -27.9581  -24.5977   20.5413 C   0  0  0  0  0  0
  -30.1023  -17.6656   20.2620 C   0  0  0  0  0  0
  -30.0446  -23.4830   19.5737 N   0  0  0  0  0  0
  -29.7784  -16.1405   20.5856 N   0  0  0  0  0  0
  -31.7787  -19.9100   18.9503 Cl  0  0  0  0  0  0
  -31.4779  -12.7201   19.2093 H   0  0  0  0  0  0
  -30.4162  -11.6234   20.0413 H   0  0  0  0  0  0
  -29.8439  -11.7393   17.5848 H   0  0  0  0  0  0
  -29.6170  -13.4676   17.7110 H   0  0  0  0  0  0
  -27.9542  -11.2717   18.9862 H   0  0  0  0  0  0
  -27.3958  -12.4432   17.8247 H   0  0  0  0  0  0
  -27.6052  -14.2485   19.4209 H   0  0  0  0  0  0
  -28.7643  -12.2945   21.4665 H   0  0  0  0  0  0
  -28.3802  -13.9730   21.7708 H   0  0  0  0  0  0
  -25.2787   -9.5666   22.4735 H   0  0  0  0  0  0
  -23.9998   -7.4633   22.7476 H   0  0  0  0  0  0
  -21.0858   -8.8781   19.8946 H   0  0  0  0  0  0
  -22.3734  -10.9655   19.6125 H   0  0  0  0  0  0
  -21.2000   -7.6128   23.9694 H   0  0  0  0  0  0
  -21.1471   -6.0505   25.9064 H   0  0  0  0  0  0
  -22.0612   -2.7589   23.2872 H   0  0  0  0  0  0
  -22.4128  -11.9867   22.4783 H   0  0  0  0  0  0
  -21.1079  -13.1187   22.2594 H   0  0  0  0  0  0
  -24.6485  -15.8485   20.4808 H   0  0  0  0  0  0
  -26.2616  -15.6211   20.0381 H   0  0  0  0  0  0
  -26.7293  -32.5303   23.0934 H   0  0  0  0  0  0
  -25.0259  -33.9558   25.0417 H   0  0  0  0  0  0
  -22.7527  -31.2785   21.3687 H   0  0  0  0  0  0
  -23.3797  -35.9482   23.3274 H   0  0  0  0  0  0
  -24.3573  -36.8832   22.2061 H   0  0  0  0  0  0
  -23.7144  -37.6371   23.6644 H   0  0  0  0  0  0
  -26.1718  -31.4552   20.6098 H   0  0  0  0  0  0
  -26.8788  -30.7596   22.0313 H   0  0  0  0  0  0
  -28.1411  -28.7787   21.2412 H   0  0  0  0  0  0
  -25.9398  -25.8325   18.9956 H   0  0  0  0  0  0
  -23.9993  -27.2891   18.9656 H   0  0  0  0  0  0
  -23.8199  -30.5455   19.3852 H   0  0  0  0  0  0
  -22.7989  -29.2174   19.8487 H   0  0  0  0  0  0
  -25.1294  -36.1847   25.0845 H   0  0  0  0  0  0
  -21.0018  -28.3269   24.1361 H   0  0  0  0  0  0
  -20.5677  -26.2321   23.3601 H   0  0  0  0  0  0
  -21.6668  -26.7381   22.1207 H   0  0  0  0  0  0
  -19.6897  -25.6295   21.1217 H   0  0  0  0  0  0
  -19.6705  -27.3203   20.6752 H   0  0  0  0  0  0
  -17.4229  -26.6680   21.4023 H   0  0  0  0  0  0
  -18.0331  -26.0081   22.9036 H   0  0  0  0  0  0
  -19.7954  -30.7284   24.2227 H   0  0  0  0  0  0
  -17.5034  -31.6267   24.5131 H   0  0  0  0  0  0
  -15.5363  -30.2947   23.7697 H   0  0  0  0  0  0
  -15.8701  -28.0765   22.7130 H   0  0  0  0  0  0
  -24.5958  -30.7025   25.7720 H   0  0  0  0  0  0
  -24.8929  -32.2923   26.4705 H   0  0  0  0  0  0
  -25.8101  -30.8978   27.0158 H   0  0  0  0  0  0
  -26.3033  -29.6646   24.1256 H   0  0  0  0  0  0
  -27.4025  -29.7253   25.4823 H   0  0  0  0  0  0
  -27.8929  -30.4207   23.9568 H   0  0  0  0  0  0
  -27.2766  -33.3644   26.1911 H   0  0  0  0  0  0
  -28.4026  -32.6665   25.0344 H   0  0  0  0  0  0
  -28.0632  -31.8412   26.5480 H   0  0  0  0  0  0
  -28.2557  -38.0079   24.7636 H   0  0  0  0  0  0
  -28.1105  -36.2632   24.6165 H   0  0  0  0  0  0
  -27.2302  -37.1255   25.8860 H   0  0  0  0  0  0
  -20.9530  -29.8702   21.6754 H   0  0  0  0  0  0
  -26.0137  -38.2783   24.1528 H   0  0  0  0  0  0
  -27.7044  -21.6422   21.1498 H   0  0  0  0  0  0
  -32.9932  -22.6561   19.1293 H   0  0  0  0  0  0
  -32.1255  -23.9072   18.2469 H   0  0  0  0  0  0
  -32.2453  -22.2874   17.5746 H   0  0  0  0  0  0
  -28.1699  -18.8488   20.1558 H   0  0  0  0  0  0
  -28.9539  -19.0196   21.6742 H   0  0  0  0  0  0
  -27.8203  -24.5852   21.6225 H   0  0  0  0  0  0
  -26.9741  -24.3419   20.1529 H   0  0  0  0  0  0
  -31.0874  -17.8452   20.6941 H   0  0  0  0  0  0
  -30.2492  -17.6618   19.1791 H   0  0  0  0  0  0
  -28.8316  -15.9698   20.8890 H   0  0  0  0  0  0
  1 25  1  0  0  0
  1 30  2  0  0  0
  1 81  1  0  0  0
  2  3  1  0  0  0
  2 25  1  0  0  0
  2 83  1  0  0  0
  2 84  1  0  0  0
  3  4  1  0  0  0
  3 85  1  0  0  0
  3 86  1  0  0  0
  4  5  1  0  0  0
  4 87  1  0  0  0
  4 88  1  0  0  0
  5  6  1  0  0  0
  5 26  1  0  0  0
  5 89  1  0  0  0
  6 25  1  0  0  0
  6 90  1  0  0  0
  6 91  1  0  0  0
  7  8  2  0  0  0
  7 26  1  0  0  0
  7 29  1  0  0  0
  8  9  1  0  0  0
  8 22  1  0  0  0
  9 10  1  0  0  0
  9 27  2  0  0  0
 10 11  2  0  0  0
 10 15  1  0  0  0
 11 12  1  0  0  0
 11 92  1  0  0  0
 12 13  2  0  0  0
 12 93  1  0  0  0
 13 14  1  0  0  0
 13 31  1  0  0  0
 14 15  2  0  0  0
 14 94  1  0  0  0
 15 95  1  0  0  0
 16 17  2  0  0  0
 16 21  1  0  0  0
 16 31  1  0  0  0
 17 18  1  0  0  0
 17 96  1  0  0  0
 18 19  2  0  0  0
 18 97  1  0  0  0
 19 20  1  0  0  0
 19 24  1  0  0  0
 20 21  2  0  0  0
 20 98  1  0  0  0
 21 23  1  0  0  0
 22 28  1  0  0  0
 22 32  2  0  0  0
 26 27  1  0  0  0
 28 99  1  0  0  0
 28100  1  0  0  0
 29101  1  0  0  0
 29102  1  0  0  0
 33 34  1  0  0  0
 33 66  1  0  0  0
 33 70  2  0  0  0
 34 36  1  0  0  0
 34 59  1  0  0  0
 34103  1  0  0  0
 35 44  2  0  0  0
 35 45  1  0  0  0
 35 68  1  0  0  0
 36 56  1  0  0  0
 36104  1  0  0  0
 37 39  1  0  0  0
 37 47  1  0  0  0
 37 66  1  0  0  0
 37105  1  0  0  0
 38 43  2  0  0  0
 38 46  1  0  0  0
 38 47  1  0  0  0
 39 64  1  0  0  0
 39 67  2  0  0  0
 40 52  1  0  0  0
 40 53  2  0  0  0
 40 58  1  0  0  0
 41106  1  0  0  0
 41107  1  0  0  0
 41108  1  0  0  0
 41 48  1  0  0  0
 42 43  1  0  0  0
 42 66  1  0  0  0
 42109  1  0  0  0
 42110  1  0  0  0
 43 44  1  0  0  0
 44111  1  0  0  0
 45 46  2  0  0  0
 45112  1  0  0  0
 46113  1  0  0  0
 47114  1  0  0  0
 47115  1  0  0  0
 48 56  1  0  0  0
 48 65  1  0  0  0
 48116  1  0  0  0
 49 50  1  0  0  0
 49 53  1  0  0  0
 49 64  1  0  0  0
 49117  1  0  0  0
 50 51  1  0  0  0
 50118  1  0  0  0
 50119  1  0  0  0
 51 52  1  0  0  0
 51120  1  0  0  0
 51121  1  0  0  0
 52122  1  0  0  0
 52123  1  0  0  0
 53 54  1  0  0  0
 54 55  2  0  0  0
 54124  1  0  0  0
 55 57  1  0  0  0
 55125  1  0  0  0
 56 69  2  0  0  0
 57 58  2  0  0  0
 57126  1  0  0  0
 58127  1  0  0  0
 59 60  1  0  0  0
 59 61  1  0  0  0
 59 62  1  0  0  0
 60128  1  0  0  0
 60129  1  0  0  0
 60130  1  0  0  0
 61131  1  0  0  0
 61132  1  0  0  0
 61133  1  0  0  0
 62134  1  0  0  0
 62135  1  0  0  0
 62136  1  0  0  0
 63 65  1  0  0  0
 63137  1  0  0  0
 63138  1  0  0  0
 63139  1  0  0  0
 64140  1  0  0  0
 65141  1  0  0  0
 68 78  1  0  0  0
 71 72  2  0  0  0
 71 74  1  0  0  0
 71142  1  0  0  0
 72 73  1  0  0  0
 72 77  1  0  0  0
 73 75  2  0  0  0
 73 82  1  0  0  0
 74 78  1  0  0  0
 74 80  2  0  0  0
 75 76  1  0  0  0
 75 80  1  0  0  0
 76143  1  0  0  0
 76144  1  0  0  0
 76145  1  0  0  0
 77 79  1  0  0  0
 77146  1  0  0  0
 77147  1  0  0  0
 78148  1  0  0  0
 78149  1  0  0  0
 79 81  1  0  0  0
 79150  1  0  0  0
 79151  1  0  0  0
 81152  1  0  0  0
M  ISO  4   1 100  68 101  78 101  81 100
M  END
> <chiral flag>
0

> <version>
0

> <s_m_source_file>
/data/baiqing/PycharmProjects/Reinvent-master-3.2/result/LINK_invent/BTK/process_docking_weight1_custom_sum_contain_oxygen_bond_distance_aromatic_linkinvent_7_9_3/rearranged_h_0100.sdf

> <i_m_source_file_index>
33

> <r_mmod_Potential_Energy-OPLS-2005>
443.834320068359

> <r_mmod_Stretch_Energy-OPLS-2005>
292.579742431641

> <r_mmod_Bend_Energy-OPLS-2005>
255.091613769531

> <r_mmod_Torsional_Energy-OPLS-2005>
212.546051025391

> <r_mmod_Improper_Torsional_Energy-OPLS-2005>
4.6019115447998

> <r_mmod_Van_der_Waal_Energy-OPLS-2005>
139.571182250977

> <r_mmod_Electrostatic_Energy-OPLS-2005>
-428.010833740234

> <r_mmod_Solvation_Energy-OPLS-2005>
-235.044784545898

> <b_mmod_Minimization_Converged-OPLS-2005>
0

> <r_mmod_RMS_Derivative-OPLS-2005>
4.35486030578613

$$$$
33
                    3D
 Structure written by MMmdl.
163171  0  0  1  0            999 V2000
  -30.6288  -14.7014   20.4890 C   0  0  0  0  0  0
  -30.4360  -12.4348   19.4701 C   0  0  0  0  0  0
  -29.5096  -12.4875   18.2377 C   0  0  0  0  0  0
  -28.0341  -12.3300   18.6531 C   0  0  0  0  0  0
  -27.6448  -13.2264   19.8572 C   0  0  2  0  0  0
  -28.6885  -13.1394   20.9895 C   0  0  0  0  0  0
  -25.2505  -13.8174   20.5688 C   0  0  0  0  0  0
  -24.1795  -13.0443   20.9206 C   0  0  0  0  0  0
  -24.6375  -11.6901   20.8745 C   0  0  0  0  0  0
  -23.9046  -10.4287   21.0392 C   0  0  0  0  0  0
  -24.3599   -9.4201   21.9172 C   0  0  0  0  0  0
  -23.6284   -8.2237   22.0759 C   0  0  0  0  0  0
  -22.4272   -8.0257   21.3535 C   0  0  0  0  0  0
  -21.9869   -9.0240   20.4665 C   0  0  0  0  0  0
  -22.7202  -10.2117   20.3077 C   0  0  0  0  0  0
  -21.6850   -6.0724   22.5268 C   0  0  0  0  0  0
  -21.4016   -6.5642   23.8204 C   0  0  0  0  0  0
  -21.3668   -5.6802   24.9170 C   0  0  0  0  0  0
  -21.6058   -4.3066   24.7217 C   0  0  0  0  0  0
  -21.8834   -3.8142   23.4343 C   0  0  0  0  0  0
  -21.9198   -4.6955   22.3391 C   0  0  0  0  0  0
  -22.7830  -13.5217   21.1852 C   0  0  0  0  0  0
  -22.1670   -4.2148   21.0970 F   0  0  0  0  0  0
  -21.5620   -3.4548   25.7725 F   0  0  0  0  0  0
  -29.9939  -13.4859   20.4120 N   0  0  0  0  0  0
  -26.2940  -12.9388   20.3303 N   0  0  0  0  0  0
  -25.9299  -11.6528   20.5741 N   0  0  0  0  0  0
  -22.0491  -12.8253   22.0445 N   0  0  0  0  0  0
  -25.4175  -15.1912   20.4097 N   0  0  0  0  0  0
  -31.8097  -14.8069   20.1466 O   0  0  0  0  0  0
  -21.6653   -6.8840   21.4221 O   0  0  0  0  0  0
  -22.3512  -14.5520   20.6668 O   0  0  0  0  0  0
  -24.6403  -31.8551   23.1996 C   0  0  0  0  0  0
  -25.9261  -32.4704   23.8350 C   0  0  1  0  0  0
  -27.2065  -27.2370   20.1373 C   0  0  0  0  0  0
  -25.6060  -33.8515   24.2282 N   0  0  0  0  0  0
  -23.4341  -30.4810   21.5415 C   0  0  2  0  0  0
  -24.8767  -28.9267   20.1038 C   0  0  0  0  0  0
  -22.7529  -29.4626   22.4885 C   0  0  0  0  0  0
  -18.0305  -28.1401   22.8438 C   0  0  0  0  0  0
  -24.1521  -36.7287   23.2614 C   0  0  0  0  0  0
  -25.9823  -30.7544   21.3889 C   0  0  0  0  0  0
  -26.0466  -29.3769   20.7275 C   0  0  0  0  0  0
  -27.2110  -28.5430   20.7389 C   0  0  0  0  0  0
  -26.0253  -26.8733   19.4539 C   0  0  0  0  0  0
  -24.8734  -27.6840   19.4517 C   0  0  0  0  0  0
  -23.6531  -29.8242   20.1529 C   0  0  0  0  0  0
  -25.4134  -36.3042   24.0302 C   0  0  1  0  0  0
  -20.5905  -28.3764   23.1199 C   0  0  2  0  0  0
  -20.6830  -26.9495   22.5342 C   0  0  0  0  0  0
  -19.5817  -26.6467   21.5133 C   0  0  0  0  0  0
  -18.1982  -26.7952   22.1552 C   0  0  0  0  0  0
  -19.1548  -28.8896   23.2810 C   0  0  0  0  0  0
  -18.9460  -30.1466   23.8884 C   0  0  0  0  0  0
  -17.6458  -30.6576   24.0585 C   0  0  0  0  0  0
  -25.9081  -34.9402   23.5073 C   0  0  0  0  0  0
  -16.5353  -29.9079   23.6328 C   0  0  0  0  0  0
  -16.7283  -28.6503   23.0324 C   0  0  0  0  0  0
  -26.4622  -31.6519   25.0757 C   0  0  0  0  0  0
  -25.3858  -31.3733   26.1502 C   0  0  0  0  0  0
  -27.0446  -30.2880   24.6337 C   0  0  0  0  0  0
  -27.6207  -32.4239   25.7510 C   0  0  0  0  0  0
  -27.5588  -37.1790   24.8449 C   0  0  0  0  0  0
  -21.4232  -29.3118   22.3624 N   0  0  0  0  0  0
  -26.4310  -37.3742   23.9381 N   0  0  0  0  0  0
  -24.7036  -31.0502   22.0979 N   0  0  0  0  0  0
  -23.4192  -28.8139   23.2989 O   0  0  0  0  0  0
  -28.2850  -26.3209   20.2432 O   0  0  0  0  0  0
  -26.5610  -34.8873   22.4613 O   0  0  0  0  0  0
  -23.5546  -32.1410   23.7266 O   0  0  0  0  0  0
  -27.4473  -21.3136   22.1563 C   0  0  0  0  0  0
  -28.4217  -20.9274   21.2018 C   0  0  0  0  0  0
  -26.8702  -20.3585   23.0114 C   0  0  0  0  0  0
  -28.7357  -19.4745   21.1997 C   0  0  0  0  0  0
  -25.7532  -20.7149   23.9692 C   0  0  0  0  0  0
  -30.5406  -19.3456   19.3721 C   0  0  0  0  0  0
  -28.5047  -17.9639   19.1752 C   0  0  0  0  0  0
  -28.8856  -22.1146   20.2508 C   0  0  0  0  0  0
  -28.9154  -23.6758   20.7499 C   0  0  0  0  0  0
  -30.3385  -17.2807   20.8644 C   0  0  0  0  0  0
  -28.0887  -24.8413   19.9714 C   0  0  0  0  0  0
  -29.5219  -18.5280   20.1873 C   0  0  0  0  0  0
  -27.2261  -19.0641   22.9828 N   0  0  0  0  0  0
  -28.1223  -18.6522   22.0941 N   0  0  0  0  0  0
  -29.8793  -15.8271   20.7665 N   0  0  0  0  0  0
  -31.4737  -12.5665   19.1585 H   0  0  0  0  0  0
  -30.3926  -11.4573   19.9500 H   0  0  0  0  0  0
  -29.7800  -11.7005   17.5322 H   0  0  0  0  0  0
  -29.6497  -13.4327   17.7110 H   0  0  0  0  0  0
  -27.8760  -11.2795   18.9034 H   0  0  0  0  0  0
  -27.3815  -12.5408   17.8059 H   0  0  0  0  0  0
  -27.6478  -14.2525   19.4876 H   0  0  0  0  0  0
  -28.7135  -12.1381   21.4199 H   0  0  0  0  0  0
  -28.4278  -13.8144   21.8055 H   0  0  0  0  0  0
  -25.2746   -9.5716   22.4729 H   0  0  0  0  0  0
  -24.0021   -7.4645   22.7485 H   0  0  0  0  0  0
  -21.0794   -8.8786   19.8963 H   0  0  0  0  0  0
  -22.3655  -10.9679   19.6213 H   0  0  0  0  0  0
  -21.2012   -7.6154   23.9708 H   0  0  0  0  0  0
  -21.1472   -6.0523   25.9074 H   0  0  0  0  0  0
  -22.0591   -2.7598   23.2855 H   0  0  0  0  0  0
  -22.4131  -11.9933   22.4864 H   0  0  0  0  0  0
  -21.1108  -13.1276   22.2653 H   0  0  0  0  0  0
  -24.6482  -15.8390   20.5353 H   0  0  0  0  0  0
  -26.2680  -15.6436   20.1032 H   0  0  0  0  0  0
  -26.7333  -32.5343   23.1076 H   0  0  0  0  0  0
  -25.0389  -33.9674   25.0553 H   0  0  0  0  0  0
  -22.7332  -31.3058   21.3956 H   0  0  0  0  0  0
  -23.3751  -35.9652   23.3266 H   0  0  0  0  0  0
  -24.3641  -36.8929   22.2035 H   0  0  0  0  0  0
  -23.7309  -37.6498   23.6647 H   0  0  0  0  0  0
  -26.1466  -31.5137   20.6220 H   0  0  0  0  0  0
  -26.8544  -30.7868   22.0321 H   0  0  0  0  0  0
  -28.1018  -28.8717   21.2552 H   0  0  0  0  0  0
  -25.9645  -25.9425   18.9112 H   0  0  0  0  0  0
  -23.9879  -27.3448   18.9320 H   0  0  0  0  0  0
  -23.7841  -30.6101   19.4059 H   0  0  0  0  0  0
  -22.7670  -29.2674   19.8419 H   0  0  0  0  0  0
  -25.1293  -36.1895   25.0787 H   0  0  0  0  0  0
  -20.9965  -28.3375   24.1323 H   0  0  0  0  0  0
  -20.5754  -26.2383   23.3544 H   0  0  0  0  0  0
  -21.6693  -26.7570   22.1110 H   0  0  0  0  0  0
  -19.7014  -25.6395   21.1134 H   0  0  0  0  0  0
  -19.6726  -27.3304   20.6666 H   0  0  0  0  0  0
  -17.4254  -26.6664   21.3954 H   0  0  0  0  0  0
  -18.0406  -26.0074   22.8928 H   0  0  0  0  0  0
  -19.7936  -30.7263   24.2266 H   0  0  0  0  0  0
  -17.5013  -31.6222   24.5247 H   0  0  0  0  0  0
  -15.5351  -30.2964   23.7672 H   0  0  0  0  0  0
  -15.8684  -28.0820   22.7027 H   0  0  0  0  0  0
  -24.6064  -30.7002   25.7901 H   0  0  0  0  0  0
  -24.9036  -32.2925   26.4832 H   0  0  0  0  0  0
  -25.8227  -30.9040   27.0333 H   0  0  0  0  0  0
  -26.3041  -29.6570   24.1409 H   0  0  0  0  0  0
  -27.4081  -29.7197   25.4916 H   0  0  0  0  0  0
  -27.8953  -30.4021   23.9617 H   0  0  0  0  0  0
  -27.2854  -33.3534   26.2105 H   0  0  0  0  0  0
  -28.4025  -32.6796   25.0345 H   0  0  0  0  0  0
  -28.0888  -31.8371   26.5421 H   0  0  0  0  0  0
  -28.2584  -38.0107   24.7486 H   0  0  0  0  0  0
  -28.1108  -36.2636   24.6265 H   0  0  0  0  0  0
  -27.2322  -37.1407   25.8860 H   0  0  0  0  0  0
  -20.9434  -29.8861   21.6837 H   0  0  0  0  0  0
  -26.0181  -38.2818   24.1359 H   0  0  0  0  0  0
  -27.0767  -22.3253   22.2094 H   0  0  0  0  0  0
  -25.7522  -20.0592   24.8411 H   0  0  0  0  0  0
  -24.7880  -20.6072   23.4710 H   0  0  0  0  0  0
  -25.8528  -21.7410   24.3187 H   0  0  0  0  0  0
  -30.0543  -20.0862   18.7382 H   0  0  0  0  0  0
  -31.1187  -18.7063   18.7025 H   0  0  0  0  0  0
  -31.2473  -19.8560   20.0259 H   0  0  0  0  0  0
  -27.9495  -18.7708   18.6939 H   0  0  0  0  0  0
  -27.7754  -17.3193   19.6645 H   0  0  0  0  0  0
  -28.9916  -17.3805   18.3934 H   0  0  0  0  0  0
  -28.2785  -22.0490   19.3480 H   0  0  0  0  0  0
  -29.8964  -21.8831   19.9323 H   0  0  0  0  0  0
  -29.9676  -23.9665   20.7241 H   0  0  0  0  0  0
  -28.6902  -23.7295   21.8152 H   0  0  0  0  0  0
  -30.5112  -17.5043   21.9176 H   0  0  0  0  0  0
  -31.3449  -17.2842   20.4472 H   0  0  0  0  0  0
  -28.2633  -24.7124   18.9008 H   0  0  0  0  0  0
  -27.0447  -24.5631   20.1238 H   0  0  0  0  0  0
  -28.9158  -15.6571   21.0103 H   0  0  0  0  0  0
  1 25  1  0  0  0
  1 30  2  0  0  0
  1 85  1  0  0  0
  2  3  1  0  0  0
  2 25  1  0  0  0
  2 86  1  0  0  0
  2 87  1  0  0  0
  3  4  1  0  0  0
  3 88  1  0  0  0
  3 89  1  0  0  0
  4  5  1  0  0  0
  4 90  1  0  0  0
  4 91  1  0  0  0
  5  6  1  0  0  0
  5 26  1  0  0  0
  5 92  1  0  0  0
  6 25  1  0  0  0
  6 93  1  0  0  0
  6 94  1  0  0  0
  7  8  2  0  0  0
  7 26  1  0  0  0
  7 29  1  0  0  0
  8  9  1  0  0  0
  8 22  1  0  0  0
  9 10  1  0  0  0
  9 27  2  0  0  0
 10 11  2  0  0  0
 10 15  1  0  0  0
 11 12  1  0  0  0
 11 95  1  0  0  0
 12 13  2  0  0  0
 12 96  1  0  0  0
 13 14  1  0  0  0
 13 31  1  0  0  0
 14 15  2  0  0  0
 14 97  1  0  0  0
 15 98  1  0  0  0
 16 17  2  0  0  0
 16 21  1  0  0  0
 16 31  1  0  0  0
 17 18  1  0  0  0
 17 99  1  0  0  0
 18 19  2  0  0  0
 18100  1  0  0  0
 19 20  1  0  0  0
 19 24  1  0  0  0
 20 21  2  0  0  0
 20101  1  0  0  0
 21 23  1  0  0  0
 22 28  1  0  0  0
 22 32  2  0  0  0
 26 27  1  0  0  0
 28102  1  0  0  0
 28103  1  0  0  0
 29104  1  0  0  0
 29105  1  0  0  0
 33 34  1  0  0  0
 33 66  1  0  0  0
 33 70  2  0  0  0
 34 36  1  0  0  0
 34 59  1  0  0  0
 34106  1  0  0  0
 35 44  2  0  0  0
 35 45  1  0  0  0
 35 68  1  0  0  0
 36 56  1  0  0  0
 36107  1  0  0  0
 37 39  1  0  0  0
 37 47  1  0  0  0
 37 66  1  0  0  0
 37108  1  0  0  0
 38 43  2  0  0  0
 38 46  1  0  0  0
 38 47  1  0  0  0
 39 64  1  0  0  0
 39 67  2  0  0  0
 40 52  1  0  0  0
 40 53  2  0  0  0
 40 58  1  0  0  0
 41109  1  0  0  0
 41110  1  0  0  0
 41111  1  0  0  0
 41 48  1  0  0  0
 42 43  1  0  0  0
 42 66  1  0  0  0
 42112  1  0  0  0
 42113  1  0  0  0
 43 44  1  0  0  0
 44114  1  0  0  0
 45 46  2  0  0  0
 45115  1  0  0  0
 46116  1  0  0  0
 47117  1  0  0  0
 47118  1  0  0  0
 48 56  1  0  0  0
 48 65  1  0  0  0
 48119  1  0  0  0
 49 50  1  0  0  0
 49 53  1  0  0  0
 49 64  1  0  0  0
 49120  1  0  0  0
 50 51  1  0  0  0
 50121  1  0  0  0
 50122  1  0  0  0
 51 52  1  0  0  0
 51123  1  0  0  0
 51124  1  0  0  0
 52125  1  0  0  0
 52126  1  0  0  0
 53 54  1  0  0  0
 54 55  2  0  0  0
 54127  1  0  0  0
 55 57  1  0  0  0
 55128  1  0  0  0
 56 69  2  0  0  0
 57 58  2  0  0  0
 57129  1  0  0  0
 58130  1  0  0  0
 59 60  1  0  0  0
 59 61  1  0  0  0
 59 62  1  0  0  0
 60131  1  0  0  0
 60132  1  0  0  0
 60133  1  0  0  0
 61134  1  0  0  0
 61135  1  0  0  0
 61136  1  0  0  0
 62137  1  0  0  0
 62138  1  0  0  0
 62139  1  0  0  0
 63 65  1  0  0  0
 63140  1  0  0  0
 63141  1  0  0  0
 63142  1  0  0  0
 64143  1  0  0  0
 65144  1  0  0  0
 68 81  1  0  0  0
 71 72  2  0  0  0
 71 73  1  0  0  0
 71145  1  0  0  0
 72 74  1  0  0  0
 72 78  1  0  0  0
 73 75  1  0  0  0
 73 83  2  0  0  0
 74 82  1  0  0  0
 74 84  2  0  0  0
 75146  1  0  0  0
 75147  1  0  0  0
 75148  1  0  0  0
 76149  1  0  0  0
 76150  1  0  0  0
 76151  1  0  0  0
 76 82  1  0  0  0
 77 82  1  0  0  0
 77152  1  0  0  0
 77153  1  0  0  0
 77154  1  0  0  0
 78 79  1  0  0  0
 78155  1  0  0  0
 78156  1  0  0  0
 79 81  1  0  0  0
 79157  1  0  0  0
 79158  1  0  0  0
 80 82  1  0  0  0
 80 85  1  0  0  0
 80159  1  0  0  0
 80160  1  0  0  0
 81161  1  0  0  0
 81162  1  0  0  0
 83 84  1  0  0  0
 85163  1  0  0  0
M  ISO  4   1 100  68 101  81 101  85 100
M  END
> <chiral flag>
0

> <version>
0

> <s_m_source_file>
/data/baiqing/PycharmProjects/Reinvent-master-3.2/result/LINK_invent/BTK/process_docking_weight1_custom_sum_contain_oxygen_bond_distance_aromatic_linkinvent_7_9_3/rearranged_h_0100.sdf

> <i_m_source_file_index>
34

> <r_mmod_Potential_Energy-OPLS-2005>
218.25032043457

> <r_mmod_Stretch_Energy-OPLS-2005>
143.859893798828

> <r_mmod_Bend_Energy-OPLS-2005>
215.339630126953

> <r_mmod_Torsional_Energy-OPLS-2005>
234.952835083008

> <r_mmod_Improper_Torsional_Energy-OPLS-2005>
5.28780364990234

> <r_mmod_Van_der_Waal_Energy-OPLS-2005>
148.428787231445

> <r_mmod_Electrostatic_Energy-OPLS-2005>
-397.832794189453

> <r_mmod_Solvation_Energy-OPLS-2005>
-218.804412841797

> <b_mmod_Minimization_Converged-OPLS-2005>
0

> <r_mmod_RMS_Derivative-OPLS-2005>
4.3710994720459

$$$$
34
                    3D
 Structure written by MMmdl.
185193  0  0  1  0            999 V2000
  -30.6766  -14.4788   20.6281 C   0  0  0  0  0  0
  -30.4337  -12.3300   19.4158 C   0  0  0  0  0  0
  -29.4992  -12.5151   18.2021 C   0  0  0  0  0  0
  -28.0201  -12.3606   18.6108 C   0  0  0  0  0  0
  -27.6594  -13.1989   19.8660 C   0  0  2  0  0  0
  -28.6977  -12.9622   20.9837 C   0  0  0  0  0  0
  -25.2589  -13.8147   20.5668 C   0  0  0  0  0  0
  -24.1840  -13.0431   20.9163 C   0  0  0  0  0  0
  -24.6384  -11.6893   20.8739 C   0  0  0  0  0  0
  -23.9053  -10.4288   21.0394 C   0  0  0  0  0  0
  -24.3608   -9.4213   21.9180 C   0  0  0  0  0  0
  -23.6294   -8.2250   22.0766 C   0  0  0  0  0  0
  -22.4289   -8.0270   21.3553 C   0  0  0  0  0  0
  -21.9907   -9.0235   20.4651 C   0  0  0  0  0  0
  -22.7229  -10.2110   20.3049 C   0  0  0  0  0  0
  -21.6849   -6.0743   22.5282 C   0  0  0  0  0  0
  -21.4010   -6.5647   23.8217 C   0  0  0  0  0  0
  -21.3656   -5.6802   24.9182 C   0  0  0  0  0  0
  -21.6046   -4.3062   24.7232 C   0  0  0  0  0  0
  -21.8818   -3.8153   23.4348 C   0  0  0  0  0  0
  -21.9194   -4.6973   22.3408 C   0  0  0  0  0  0
  -22.7861  -13.5235   21.1831 C   0  0  0  0  0  0
  -22.1660   -4.2162   21.0983 F   0  0  0  0  0  0
  -21.5627   -3.4540   25.7735 F   0  0  0  0  0  0
  -30.0250  -13.2987   20.4423 N   0  0  0  0  0  0
  -26.3002  -12.9292   20.3284 N   0  0  0  0  0  0
  -25.9292  -11.6460   20.5709 N   0  0  0  0  0  0
  -22.0484  -12.8238   22.0375 N   0  0  0  0  0  0
  -25.4327  -15.1862   20.4116 N   0  0  0  0  0  0
  -31.7947  -14.7155   20.1595 O   0  0  0  0  0  0
  -21.6643   -6.8878   21.4243 O   0  0  0  0  0  0
  -22.3546  -14.5547   20.6687 O   0  0  0  0  0  0
  -24.6148  -31.8676   23.2127 C   0  0  0  0  0  0
  -25.9035  -32.4805   23.8423 C   0  0  1  0  0  0
  -27.2120  -27.4339   20.0785 C   0  0  0  0  0  0
  -25.5892  -33.8617   24.2353 N   0  0  0  0  0  0
  -23.4074  -30.4910   21.5548 C   0  0  2  0  0  0
  -24.8484  -28.9691   20.1066 C   0  0  0  0  0  0
  -22.7410  -29.4642   22.4973 C   0  0  0  0  0  0
  -18.0269  -28.1371   22.8464 C   0  0  0  0  0  0
  -24.1492  -36.7312   23.2631 C   0  0  0  0  0  0
  -25.9354  -30.8322   21.3695 C   0  0  0  0  0  0
  -26.0117  -29.4707   20.7050 C   0  0  0  0  0  0
  -27.2046  -28.7083   20.6929 C   0  0  0  0  0  0
  -26.0421  -26.9578   19.4547 C   0  0  0  0  0  0
  -24.8561  -27.7112   19.4799 C   0  0  0  0  0  0
  -23.6127  -29.8364   20.1647 C   0  0  0  0  0  0
  -25.4108  -36.3088   24.0329 C   0  0  1  0  0  0
  -20.5872  -28.3641   23.1284 C   0  0  2  0  0  0
  -20.6758  -26.9377   22.5396 C   0  0  0  0  0  0
  -19.5750  -26.6380   21.5179 C   0  0  0  0  0  0
  -18.1919  -26.7914   22.1589 C   0  0  0  0  0  0
  -19.1526  -28.8818   23.2861 C   0  0  0  0  0  0
  -18.9462  -30.1426   23.8872 C   0  0  0  0  0  0
  -17.6470  -30.6570   24.0559 C   0  0  0  0  0  0
  -25.9015  -34.9449   23.5129 C   0  0  0  0  0  0
  -16.5353  -29.9076   23.6330 C   0  0  0  0  0  0
  -16.7264  -28.6502   23.0331 C   0  0  0  0  0  0
  -26.4463  -31.6591   25.0754 C   0  0  0  0  0  0
  -25.3713  -31.3659   26.1486 C   0  0  0  0  0  0
  -27.0314  -30.3043   24.6102 C   0  0  0  0  0  0
  -27.6060  -32.4300   25.7503 C   0  0  0  0  0  0
  -27.5590  -37.1788   24.8453 C   0  0  0  0  0  0
  -21.4138  -29.3016   22.3688 N   0  0  0  0  0  0
  -26.4297  -37.3771   23.9380 N   0  0  0  0  0  0
  -24.6711  -31.0767   22.1038 N   0  0  0  0  0  0
  -23.4161  -28.8155   23.3019 O   0  0  0  0  0  0
  -28.3066  -26.6065   20.1493 O   0  0  0  0  0  0
  -26.5602  -34.8887   22.4698 O   0  0  0  0  0  0
  -23.5339  -32.1444   23.7490 O   0  0  0  0  0  0
  -29.9289  -21.4318   24.7672 C   0  0  0  0  0  0
  -30.5722  -19.5502   23.3987 C   0  0  0  0  0  0
  -30.6425  -20.2413   24.6130 C   0  0  0  0  0  0
  -29.1508  -21.9736   23.7199 C   0  0  0  0  0  0
  -29.7634  -20.0128   22.3338 C   0  0  0  0  0  0
  -29.0743  -21.2689   22.4634 C   0  0  0  0  0  0
  -31.4744  -19.7180   25.7682 C   0  0  0  0  0  0
  -28.6682  -23.9647   25.3864 C   0  0  0  0  0  0
  -24.0237  -20.3427   22.3729 C   0  0  0  0  0  0
  -25.3406  -19.5433   20.3814 C   0  0  0  0  0  0
  -28.4136  -23.2851   24.0255 C   0  0  0  0  0  0
  -29.6147  -19.1365   21.0637 C   0  0  0  0  0  0
  -30.5370  -17.8878   20.8615 C   0  0  0  0  0  0
  -25.1323  -22.0507   20.8588 C   0  0  0  0  0  0
  -26.3901  -22.6056   20.1437 C   0  0  0  0  0  0
  -28.4633  -24.0884   20.4930 C   0  0  0  0  0  0
  -30.3965  -16.6982   21.8566 C   0  0  0  0  0  0
  -28.0394  -25.4862   21.0182 C   0  0  0  0  0  0
  -25.2297  -20.6291   21.4625 C   0  0  0  0  0  0
  -27.5924  -22.9237   21.0681 C   0  0  2  0  0  0
  -28.3642  -21.6965   21.3103 N   0  0  0  0  0  0
  -29.9645  -15.4097   21.2943 N   0  0  0  0  0  0
  -31.4749  -12.4625   19.1180 H   0  0  0  0  0  0
  -30.3614  -11.3144   19.8090 H   0  0  0  0  0  0
  -29.7505  -11.7966   17.4214 H   0  0  0  0  0  0
  -29.6566  -13.5028   17.7674 H   0  0  0  0  0  0
  -27.8412  -11.3050   18.8127 H   0  0  0  0  0  0
  -27.3700  -12.6263   17.7759 H   0  0  0  0  0  0
  -27.7076  -14.2470   19.5698 H   0  0  0  0  0  0
  -28.6898  -11.9171   21.2952 H   0  0  0  0  0  0
  -28.4410  -13.5230   21.8826 H   0  0  0  0  0  0
  -25.2738   -9.5699   22.4766 H   0  0  0  0  0  0
  -24.0011   -7.4639   22.7486 H   0  0  0  0  0  0
  -21.0847   -8.8720   19.8951 H   0  0  0  0  0  0
  -22.3670  -10.9641   19.6162 H   0  0  0  0  0  0
  -21.2002   -7.6152   23.9731 H   0  0  0  0  0  0
  -21.1484   -6.0526   25.9090 H   0  0  0  0  0  0
  -22.0608   -2.7617   23.2839 H   0  0  0  0  0  0
  -22.4099  -11.9907   22.4778 H   0  0  0  0  0  0
  -21.1080  -13.1250   22.2539 H   0  0  0  0  0  0
  -24.6702  -15.8422   20.5423 H   0  0  0  0  0  0
  -26.2907  -15.6267   20.1032 H   0  0  0  0  0  0
  -26.7104  -32.5523   23.1182 H   0  0  0  0  0  0
  -25.0035  -33.9787   25.0485 H   0  0  0  0  0  0
  -22.6985  -31.3091   21.4180 H   0  0  0  0  0  0
  -23.3753  -35.9660   23.3302 H   0  0  0  0  0  0
  -24.3569  -36.8933   22.2053 H   0  0  0  0  0  0
  -23.7271  -37.6518   23.6660 H   0  0  0  0  0  0
  -26.0520  -31.6088   20.6147 H   0  0  0  0  0  0
  -26.8193  -30.8749   21.9942 H   0  0  0  0  0  0
  -28.1033  -29.0680   21.1769 H   0  0  0  0  0  0
  -26.0390  -25.9875   18.9763 H   0  0  0  0  0  0
  -23.9586  -27.3167   19.0254 H   0  0  0  0  0  0
  -23.7185  -30.6186   19.4114 H   0  0  0  0  0  0
  -22.7362  -29.2588   19.8653 H   0  0  0  0  0  0
  -25.1276  -36.1982   25.0828 H   0  0  0  0  0  0
  -20.9931  -28.3222   24.1427 H   0  0  0  0  0  0
  -20.5663  -26.2234   23.3586 H   0  0  0  0  0  0
  -21.6636  -26.7448   22.1206 H   0  0  0  0  0  0
  -19.6946  -25.6293   21.1231 H   0  0  0  0  0  0
  -19.6739  -27.3165   20.6694 H   0  0  0  0  0  0
  -17.4200  -26.6634   21.3989 H   0  0  0  0  0  0
  -18.0342  -26.0077   22.8997 H   0  0  0  0  0  0
  -19.7960  -30.7210   24.2258 H   0  0  0  0  0  0
  -17.5052  -31.6272   24.5126 H   0  0  0  0  0  0
  -15.5347  -30.2955   23.7728 H   0  0  0  0  0  0
  -15.8662  -28.0833   22.7041 H   0  0  0  0  0  0
  -24.5937  -30.6951   25.7796 H   0  0  0  0  0  0
  -24.8829  -32.2782   26.4916 H   0  0  0  0  0  0
  -25.8072  -30.8860   27.0257 H   0  0  0  0  0  0
  -26.2853  -29.6771   24.1205 H   0  0  0  0  0  0
  -27.4102  -29.7298   25.4562 H   0  0  0  0  0  0
  -27.8687  -30.4367   23.9251 H   0  0  0  0  0  0
  -27.2726  -33.3603   26.2106 H   0  0  0  0  0  0
  -28.3885  -32.6801   25.0325 H   0  0  0  0  0  0
  -28.0707  -31.8401   26.5401 H   0  0  0  0  0  0
  -28.2566  -38.0128   24.7506 H   0  0  0  0  0  0
  -28.1137  -36.2635   24.6305 H   0  0  0  0  0  0
  -27.2279  -37.1451   25.8852 H   0  0  0  0  0  0
  -20.9286  -29.8774   21.6957 H   0  0  0  0  0  0
  -26.0206  -38.2838   24.1442 H   0  0  0  0  0  0
  -30.0101  -21.9260   25.7227 H   0  0  0  0  0  0
  -31.1434  -18.6415   23.3089 H   0  0  0  0  0  0
  -30.9857  -19.9389   26.7172 H   0  0  0  0  0  0
  -32.4525  -20.1981   25.7776 H   0  0  0  0  0  0
  -31.6144  -18.6386   25.7143 H   0  0  0  0  0  0
  -28.1188  -24.9031   25.4588 H   0  0  0  0  0  0
  -29.7225  -24.2002   25.5376 H   0  0  0  0  0  0
  -28.3309  -23.3428   26.2154 H   0  0  0  0  0  0
  -24.0983  -19.3574   22.8332 H   0  0  0  0  0  0
  -23.0844  -20.3830   21.8217 H   0  0  0  0  0  0
  -23.9611  -21.0660   23.1871 H   0  0  0  0  0  0
  -25.3729  -18.5443   20.8189 H   0  0  0  0  0  0
  -26.2483  -19.6653   19.7918 H   0  0  0  0  0  0
  -24.4905  -19.5784   19.6993 H   0  0  0  0  0  0
  -27.3429  -23.0918   23.9741 H   0  0  0  0  0  0
  -28.6823  -24.0049   23.2627 H   0  0  0  0  0  0
  -29.7878  -19.7856   20.2033 H   0  0  0  0  0  0
  -28.5730  -18.8200   20.9913 H   0  0  0  0  0  0
  -31.5726  -18.2314   20.8707 H   0  0  0  0  0  0
  -30.3780  -17.5143   19.8493 H   0  0  0  0  0  0
  -24.3067  -22.0569   20.1454 H   0  0  0  0  0  0
  -24.8452  -22.7563   21.6383 H   0  0  0  0  0  0
  -26.0738  -23.5374   19.6732 H   0  0  0  0  0  0
  -26.6835  -21.9656   19.3122 H   0  0  0  0  0  0
  -29.5135  -23.9400   20.7381 H   0  0  0  0  0  0
  -28.4155  -24.0729   19.4021 H   0  0  0  0  0  0
  -29.6856  -16.9545   22.6425 H   0  0  0  0  0  0
  -31.3502  -16.5327   22.3600 H   0  0  0  0  0  0
  -28.5567  -25.7049   21.9498 H   0  0  0  0  0  0
  -26.9852  -25.4264   21.3000 H   0  0  0  0  0  0
  -26.1155  -20.5711   22.0957 H   0  0  0  0  0  0
  -27.1213  -23.2702   21.9762 H   0  0  0  0  0  0
  -28.2710  -20.9952   20.5839 H   0  0  0  0  0  0
  -29.0399  -15.1118   21.5692 H   0  0  0  0  0  0
  1 25  1  0  0  0
  1 30  2  0  0  0
  1 92  1  0  0  0
  2  3  1  0  0  0
  2 25  1  0  0  0
  2 93  1  0  0  0
  2 94  1  0  0  0
  3  4  1  0  0  0
  3 95  1  0  0  0
  3 96  1  0  0  0
  4  5  1  0  0  0
  4 97  1  0  0  0
  4 98  1  0  0  0
  5  6  1  0  0  0
  5 26  1  0  0  0
  5 99  1  0  0  0
  6 25  1  0  0  0
  6100  1  0  0  0
  6101  1  0  0  0
  7  8  2  0  0  0
  7 26  1  0  0  0
  7 29  1  0  0  0
  8  9  1  0  0  0
  8 22  1  0  0  0
  9 10  1  0  0  0
  9 27  2  0  0  0
 10 11  2  0  0  0
 10 15  1  0  0  0
 11 12  1  0  0  0
 11102  1  0  0  0
 12 13  2  0  0  0
 12103  1  0  0  0
 13 14  1  0  0  0
 13 31  1  0  0  0
 14 15  2  0  0  0
 14104  1  0  0  0
 15105  1  0  0  0
 16 17  2  0  0  0
 16 21  1  0  0  0
 16 31  1  0  0  0
 17 18  1  0  0  0
 17106  1  0  0  0
 18 19  2  0  0  0
 18107  1  0  0  0
 19 20  1  0  0  0
 19 24  1  0  0  0
 20 21  2  0  0  0
 20108  1  0  0  0
 21 23  1  0  0  0
 22 28  1  0  0  0
 22 32  2  0  0  0
 26 27  1  0  0  0
 28109  1  0  0  0
 28110  1  0  0  0
 29111  1  0  0  0
 29112  1  0  0  0
 33 34  1  0  0  0
 33 66  1  0  0  0
 33 70  2  0  0  0
 34 36  1  0  0  0
 34 59  1  0  0  0
 34113  1  0  0  0
 35 44  2  0  0  0
 35 45  1  0  0  0
 35 68  1  0  0  0
 36 56  1  0  0  0
 36114  1  0  0  0
 37 39  1  0  0  0
 37 47  1  0  0  0
 37 66  1  0  0  0
 37115  1  0  0  0
 38 43  2  0  0  0
 38 46  1  0  0  0
 38 47  1  0  0  0
 39 64  1  0  0  0
 39 67  2  0  0  0
 40 52  1  0  0  0
 40 53  2  0  0  0
 40 58  1  0  0  0
 41116  1  0  0  0
 41117  1  0  0  0
 41118  1  0  0  0
 41 48  1  0  0  0
 42 43  1  0  0  0
 42 66  1  0  0  0
 42119  1  0  0  0
 42120  1  0  0  0
 43 44  1  0  0  0
 44121  1  0  0  0
 45 46  2  0  0  0
 45122  1  0  0  0
 46123  1  0  0  0
 47124  1  0  0  0
 47125  1  0  0  0
 48 56  1  0  0  0
 48 65  1  0  0  0
 48126  1  0  0  0
 49 50  1  0  0  0
 49 53  1  0  0  0
 49 64  1  0  0  0
 49127  1  0  0  0
 50 51  1  0  0  0
 50128  1  0  0  0
 50129  1  0  0  0
 51 52  1  0  0  0
 51130  1  0  0  0
 51131  1  0  0  0
 52132  1  0  0  0
 52133  1  0  0  0
 53 54  1  0  0  0
 54 55  2  0  0  0
 54134  1  0  0  0
 55 57  1  0  0  0
 55135  1  0  0  0
 56 69  2  0  0  0
 57 58  2  0  0  0
 57136  1  0  0  0
 58137  1  0  0  0
 59 60  1  0  0  0
 59 61  1  0  0  0
 59 62  1  0  0  0
 60138  1  0  0  0
 60139  1  0  0  0
 60140  1  0  0  0
 61141  1  0  0  0
 61142  1  0  0  0
 61143  1  0  0  0
 62144  1  0  0  0
 62145  1  0  0  0
 62146  1  0  0  0
 63 65  1  0  0  0
 63147  1  0  0  0
 63148  1  0  0  0
 63149  1  0  0  0
 64150  1  0  0  0
 65151  1  0  0  0
 68 88  1  0  0  0
 71 73  2  0  0  0
 71 74  1  0  0  0
 71152  1  0  0  0
 72 73  1  0  0  0
 72 75  2  0  0  0
 72153  1  0  0  0
 73 77  1  0  0  0
 74 76  2  0  0  0
 74 81  1  0  0  0
 75 76  1  0  0  0
 75 82  1  0  0  0
 76 91  1  0  0  0
 77154  1  0  0  0
 77155  1  0  0  0
 77156  1  0  0  0
 78 81  1  0  0  0
 78157  1  0  0  0
 78158  1  0  0  0
 78159  1  0  0  0
 79160  1  0  0  0
 79161  1  0  0  0
 79162  1  0  0  0
 79 89  1  0  0  0
 80 89  1  0  0  0
 80163  1  0  0  0
 80164  1  0  0  0
 80165  1  0  0  0
 81166  1  0  0  0
 81167  1  0  0  0
 82 83  1  0  0  0
 82168  1  0  0  0
 82169  1  0  0  0
 83 87  1  0  0  0
 83170  1  0  0  0
 83171  1  0  0  0
 84 85  1  0  0  0
 84 89  1  0  0  0
 84172  1  0  0  0
 84173  1  0  0  0
 85174  1  0  0  0
 85175  1  0  0  0
 85 90  1  0  0  0
 86 88  1  0  0  0
 86 90  1  0  0  0
 86176  1  0  0  0
 86177  1  0  0  0
 87 92  1  0  0  0
 87178  1  0  0  0
 87179  1  0  0  0
 88180  1  0  0  0
 88181  1  0  0  0
 89182  1  0  0  0
 90 91  1  0  0  0
 90183  1  0  0  0
 91184  1  0  0  0
 92185  1  0  0  0
M  ISO  4   1 100  68 101  88 101  92 100
M  END
> <chiral flag>
0

> <version>
0

> <s_m_source_file>
/data/baiqing/PycharmProjects/Reinvent-master-3.2/result/LINK_invent/BTK/process_docking_weight1_custom_sum_contain_oxygen_bond_distance_aromatic_linkinvent_7_9_3/rearranged_h_0100.sdf

> <i_m_source_file_index>
35

> <r_mmod_Potential_Energy-OPLS-2005>
27.7627944946289

> <r_mmod_Stretch_Energy-OPLS-2005>
49.9376373291016

> <r_mmod_Bend_Energy-OPLS-2005>
156.337738037109

> <r_mmod_Torsional_Energy-OPLS-2005>
263.242004394531

> <r_mmod_Improper_Torsional_Energy-OPLS-2005>
2.88104844093323

> <r_mmod_Van_der_Waal_Energy-OPLS-2005>
162.456298828125

> <r_mmod_Electrostatic_Energy-OPLS-2005>
-430.344390869141

> <r_mmod_Solvation_Energy-OPLS-2005>
-194.892623901367

> <b_mmod_Minimization_Converged-OPLS-2005>
0

> <r_mmod_RMS_Derivative-OPLS-2005>
4.27744626998901

$$$$
35
                    3D
 Structure written by MMmdl.
149157  0  0  1  0            999 V2000
  -30.5389  -14.9685   20.4081 C   0  0  0  0  0  0
  -30.4367  -12.5998   19.4968 C   0  0  0  0  0  0
  -29.5213  -12.5329   18.2527 C   0  0  0  0  0  0
  -28.0533  -12.3172   18.6696 C   0  0  0  0  0  0
  -27.6265  -13.2509   19.8328 C   0  0  2  0  0  0
  -28.6692  -13.2924   20.9691 C   0  0  0  0  0  0
  -25.2453  -13.8219   20.5721 C   0  0  0  0  0  0
  -24.1776  -13.0441   20.9237 C   0  0  0  0  0  0
  -24.6385  -11.6925   20.8745 C   0  0  0  0  0  0
  -23.9069  -10.4294   21.0397 C   0  0  0  0  0  0
  -24.3626   -9.4211   21.9174 C   0  0  0  0  0  0
  -23.6307   -8.2243   22.0752 C   0  0  0  0  0  0
  -22.4285   -8.0281   21.3544 C   0  0  0  0  0  0
  -21.9916   -9.0247   20.4642 C   0  0  0  0  0  0
  -22.7239  -10.2128   20.3046 C   0  0  0  0  0  0
  -21.6854   -6.0736   22.5279 C   0  0  0  0  0  0
  -21.4016   -6.5642   23.8213 C   0  0  0  0  0  0
  -21.3663   -5.6794   24.9174 C   0  0  0  0  0  0
  -21.6047   -4.3055   24.7224 C   0  0  0  0  0  0
  -21.8823   -3.8148   23.4346 C   0  0  0  0  0  0
  -21.9196   -4.6965   22.3402 C   0  0  0  0  0  0
  -22.7795  -13.5206   21.1890 C   0  0  0  0  0  0
  -22.1668   -4.2156   21.0978 F   0  0  0  0  0  0
  -21.5628   -3.4535   25.7731 F   0  0  0  0  0  0
  -29.9411  -13.7076   20.3654 N   0  0  0  0  0  0
  -26.2866  -12.9451   20.3219 N   0  0  0  0  0  0
  -25.9313  -11.6575   20.5709 N   0  0  0  0  0  0
  -22.0451  -12.8185   22.0439 N   0  0  0  0  0  0
  -25.4113  -15.1950   20.4157 N   0  0  0  0  0  0
  -31.7475  -15.0212   20.1584 O   0  0  0  0  0  0
  -21.6654   -6.8875   21.4237 O   0  0  0  0  0  0
  -22.3477  -14.5511   20.6730 O   0  0  0  0  0  0
  -24.6470  -31.8422   23.1871 C   0  0  0  0  0  0
  -25.9225  -32.4694   23.8267 C   0  0  1  0  0  0
  -27.2132  -27.1084   20.1467 C   0  0  0  0  0  0
  -25.5964  -33.8499   24.2185 N   0  0  0  0  0  0
  -23.4515  -30.4627   21.5336 C   0  0  2  0  0  0
  -24.9004  -28.8885   20.1076 C   0  0  0  0  0  0
  -22.7589  -29.4541   22.4848 C   0  0  0  0  0  0
  -18.0310  -28.1398   22.8473 C   0  0  0  0  0  0
  -24.1495  -36.7258   23.2642 C   0  0  0  0  0  0
  -26.0111  -30.7064   21.3907 C   0  0  0  0  0  0
  -26.0805  -29.3159   20.7301 C   0  0  0  0  0  0
  -27.2377  -28.4433   20.7316 C   0  0  0  0  0  0
  -26.0069  -26.7959   19.4793 C   0  0  0  0  0  0
  -24.8791  -27.6433   19.4649 C   0  0  0  0  0  0
  -23.6785  -29.7936   20.1526 C   0  0  0  0  0  0
  -25.4128  -36.3034   24.0313 C   0  0  1  0  0  0
  -20.5928  -28.3725   23.1229 C   0  0  2  0  0  0
  -20.6795  -26.9425   22.5402 C   0  0  0  0  0  0
  -19.5764  -26.6378   21.5218 C   0  0  0  0  0  0
  -18.1946  -26.7935   22.1627 C   0  0  0  0  0  0
  -19.1568  -28.8881   23.2844 C   0  0  0  0  0  0
  -18.9475  -30.1475   23.8875 C   0  0  0  0  0  0
  -17.6469  -30.6589   24.0558 C   0  0  0  0  0  0
  -25.9074  -34.9409   23.5058 C   0  0  0  0  0  0
  -16.5362  -29.9080   23.6330 C   0  0  0  0  0  0
  -16.7295  -28.6502   23.0349 C   0  0  0  0  0  0
  -26.4523  -31.6576   25.0724 C   0  0  0  0  0  0
  -25.3690  -31.3766   26.1406 C   0  0  0  0  0  0
  -27.0386  -30.2967   24.6327 C   0  0  0  0  0  0
  -27.6056  -32.4339   25.7506 C   0  0  0  0  0  0
  -27.5577  -37.1791   24.8462 C   0  0  0  0  0  0
  -21.4279  -29.3054   22.3601 N   0  0  0  0  0  0
  -26.4293  -37.3747   23.9400 N   0  0  0  0  0  0
  -24.7233  -31.0253   22.0918 N   0  0  0  0  0  0
  -23.4222  -28.8080   23.2997 O   0  0  0  0  0  0
  -28.2438  -26.0888   20.2203 O   0  0  0  0  0  0
  -26.5651  -34.8906   22.4630 O   0  0  0  0  0  0
  -23.5581  -32.1303   23.7076 O   0  0  0  0  0  0
  -28.4754  -21.8032   20.2193 C   0  0  0  0  0  0
  -30.7290  -21.0706   20.5480 C   0  0  0  0  0  0
  -30.2471  -23.3966   20.4597 C   0  0  0  0  0  0
  -29.3992  -20.6445   20.3678 C   0  0  0  0  0  0
  -28.8650  -23.2401   20.2603 C   0  0  0  0  0  0
  -29.0486  -19.0161   20.3589 C   0  0  0  0  0  0
  -27.8925  -24.5687   20.0456 C   0  0  0  0  0  0
  -30.1416  -17.7134   20.4435 C   0  0  0  0  0  0
  -31.1291  -22.3694   20.5940 N   0  0  0  0  0  0
  -29.7685  -16.1664   20.5202 N   0  0  0  0  0  0
  -31.4712  -12.7545   19.1876 H   0  0  0  0  0  0
  -30.4267  -11.6515   20.0361 H   0  0  0  0  0  0
  -29.8443  -11.7338   17.5835 H   0  0  0  0  0  0
  -29.6071  -13.4611   17.6856 H   0  0  0  0  0  0
  -27.9464  -11.2750   18.9740 H   0  0  0  0  0  0
  -27.3931  -12.4521   17.8122 H   0  0  0  0  0  0
  -27.5834  -14.2509   19.3992 H   0  0  0  0  0  0
  -28.7605  -12.3207   21.4562 H   0  0  0  0  0  0
  -28.3654  -14.0004   21.7417 H   0  0  0  0  0  0
  -25.2769   -9.5702   22.4743 H   0  0  0  0  0  0
  -24.0030   -7.4637   22.7463 H   0  0  0  0  0  0
  -21.0856   -8.8748   19.8942 H   0  0  0  0  0  0
  -22.3686  -10.9663   19.6158 H   0  0  0  0  0  0
  -21.2003   -7.6148   23.9716 H   0  0  0  0  0  0
  -21.1486   -6.0523   25.9078 H   0  0  0  0  0  0
  -22.0598   -2.7609   23.2839 H   0  0  0  0  0  0
  -22.4101  -11.9871   22.4848 H   0  0  0  0  0  0
  -21.1049  -13.1172   22.2619 H   0  0  0  0  0  0
  -24.6370  -15.8412   20.5234 H   0  0  0  0  0  0
  -26.2460  -15.6359   20.0528 H   0  0  0  0  0  0
  -26.7292  -32.5286   23.0995 H   0  0  0  0  0  0
  -25.0105  -33.9606   25.0330 H   0  0  0  0  0  0
  -22.7556  -31.2899   21.3798 H   0  0  0  0  0  0
  -23.3763  -35.9584   23.3296 H   0  0  0  0  0  0
  -24.3581  -36.8896   22.2058 H   0  0  0  0  0  0
  -23.7244  -37.6450   23.6681 H   0  0  0  0  0  0
  -26.1721  -31.4593   20.6179 H   0  0  0  0  0  0
  -26.8805  -30.7562   22.0350 H   0  0  0  0  0  0
  -28.1351  -28.7652   21.2409 H   0  0  0  0  0  0
  -25.8907  -25.8496   18.9747 H   0  0  0  0  0  0
  -23.9818  -27.3136   18.9595 H   0  0  0  0  0  0
  -23.8156  -30.5689   19.3977 H   0  0  0  0  0  0
  -22.7919  -29.2376   19.8425 H   0  0  0  0  0  0
  -25.1322  -36.1865   25.0806 H   0  0  0  0  0  0
  -21.0022  -28.3319   24.1351 H   0  0  0  0  0  0
  -20.5694  -26.2340   23.3624 H   0  0  0  0  0  0
  -21.6656  -26.7427   22.1194 H   0  0  0  0  0  0
  -19.6918  -25.6281   21.1264 H   0  0  0  0  0  0
  -19.6701  -27.3173   20.6735 H   0  0  0  0  0  0
  -17.4214  -26.6678   21.4032 H   0  0  0  0  0  0
  -18.0342  -26.0091   22.9035 H   0  0  0  0  0  0
  -19.7947  -30.7297   24.2246 H   0  0  0  0  0  0
  -17.5016  -31.6270   24.5158 H   0  0  0  0  0  0
  -15.5359  -30.2969   23.7669 H   0  0  0  0  0  0
  -15.8698  -28.0814   22.7073 H   0  0  0  0  0  0
  -24.5890  -30.7097   25.7714 H   0  0  0  0  0  0
  -24.8849  -32.2942   26.4757 H   0  0  0  0  0  0
  -25.7955  -30.8983   27.0231 H   0  0  0  0  0  0
  -26.3005  -29.6690   24.1321 H   0  0  0  0  0  0
  -27.3967  -29.7277   25.4917 H   0  0  0  0  0  0
  -27.8931  -30.4198   23.9672 H   0  0  0  0  0  0
  -27.2663  -33.3669   26.2017 H   0  0  0  0  0  0
  -28.3898  -32.6848   25.0353 H   0  0  0  0  0  0
  -28.0687  -31.8504   26.5472 H   0  0  0  0  0  0
  -28.2591  -38.0092   24.7508 H   0  0  0  0  0  0
  -28.1080  -36.2620   24.6299 H   0  0  0  0  0  0
  -27.2289  -37.1450   25.8863 H   0  0  0  0  0  0
  -20.9494  -29.8783   21.6794 H   0  0  0  0  0  0
  -26.0162  -38.2817   24.1395 H   0  0  0  0  0  0
  -27.4292  -21.5832   20.0642 H   0  0  0  0  0  0
  -31.5152  -20.3399   20.6679 H   0  0  0  0  0  0
  -30.6742  -24.3883   20.5007 H   0  0  0  0  0  0
  -28.4537  -18.8606   19.4585 H   0  0  0  0  0  0
  -28.3406  -18.8770   21.1763 H   0  0  0  0  0  0
  -27.0138  -24.3809   20.6638 H   0  0  0  0  0  0
  -27.5524  -24.4619   19.0153 H   0  0  0  0  0  0
  -30.7697  -17.8917   21.3166 H   0  0  0  0  0  0
  -30.8185  -17.8107   19.5938 H   0  0  0  0  0  0
  -28.7857  -15.9870   20.6646 H   0  0  0  0  0  0
  1 25  1  0  0  0
  1 30  2  0  0  0
  1 80  1  0  0  0
  2  3  1  0  0  0
  2 25  1  0  0  0
  2 81  1  0  0  0
  2 82  1  0  0  0
  3  4  1  0  0  0
  3 83  1  0  0  0
  3 84  1  0  0  0
  4  5  1  0  0  0
  4 85  1  0  0  0
  4 86  1  0  0  0
  5  6  1  0  0  0
  5 26  1  0  0  0
  5 87  1  0  0  0
  6 25  1  0  0  0
  6 88  1  0  0  0
  6 89  1  0  0  0
  7  8  2  0  0  0
  7 26  1  0  0  0
  7 29  1  0  0  0
  8  9  1  0  0  0
  8 22  1  0  0  0
  9 10  1  0  0  0
  9 27  2  0  0  0
 10 11  2  0  0  0
 10 15  1  0  0  0
 11 12  1  0  0  0
 11 90  1  0  0  0
 12 13  2  0  0  0
 12 91  1  0  0  0
 13 14  1  0  0  0
 13 31  1  0  0  0
 14 15  2  0  0  0
 14 92  1  0  0  0
 15 93  1  0  0  0
 16 17  2  0  0  0
 16 21  1  0  0  0
 16 31  1  0  0  0
 17 18  1  0  0  0
 17 94  1  0  0  0
 18 19  2  0  0  0
 18 95  1  0  0  0
 19 20  1  0  0  0
 19 24  1  0  0  0
 20 21  2  0  0  0
 20 96  1  0  0  0
 21 23  1  0  0  0
 22 28  1  0  0  0
 22 32  2  0  0  0
 26 27  1  0  0  0
 28 97  1  0  0  0
 28 98  1  0  0  0
 29 99  1  0  0  0
 29100  1  0  0  0
 33 34  1  0  0  0
 33 66  1  0  0  0
 33 70  2  0  0  0
 34 36  1  0  0  0
 34 59  1  0  0  0
 34101  1  0  0  0
 35 44  2  0  0  0
 35 45  1  0  0  0
 35 68  1  0  0  0
 36 56  1  0  0  0
 36102  1  0  0  0
 37 39  1  0  0  0
 37 47  1  0  0  0
 37 66  1  0  0  0
 37103  1  0  0  0
 38 43  2  0  0  0
 38 46  1  0  0  0
 38 47  1  0  0  0
 39 64  1  0  0  0
 39 67  2  0  0  0
 40 52  1  0  0  0
 40 53  2  0  0  0
 40 58  1  0  0  0
 41104  1  0  0  0
 41105  1  0  0  0
 41106  1  0  0  0
 41 48  1  0  0  0
 42 43  1  0  0  0
 42 66  1  0  0  0
 42107  1  0  0  0
 42108  1  0  0  0
 43 44  1  0  0  0
 44109  1  0  0  0
 45 46  2  0  0  0
 45110  1  0  0  0
 46111  1  0  0  0
 47112  1  0  0  0
 47113  1  0  0  0
 48 56  1  0  0  0
 48 65  1  0  0  0
 48114  1  0  0  0
 49 50  1  0  0  0
 49 53  1  0  0  0
 49 64  1  0  0  0
 49115  1  0  0  0
 50 51  1  0  0  0
 50116  1  0  0  0
 50117  1  0  0  0
 51 52  1  0  0  0
 51118  1  0  0  0
 51119  1  0  0  0
 52120  1  0  0  0
 52121  1  0  0  0
 53 54  1  0  0  0
 54 55  2  0  0  0
 54122  1  0  0  0
 55 57  1  0  0  0
 55123  1  0  0  0
 56 69  2  0  0  0
 57 58  2  0  0  0
 57124  1  0  0  0
 58125  1  0  0  0
 59 60  1  0  0  0
 59 61  1  0  0  0
 59 62  1  0  0  0
 60126  1  0  0  0
 60127  1  0  0  0
 60128  1  0  0  0
 61129  1  0  0  0
 61130  1  0  0  0
 61131  1  0  0  0
 62132  1  0  0  0
 62133  1  0  0  0
 62134  1  0  0  0
 63 65  1  0  0  0
 63135  1  0  0  0
 63136  1  0  0  0
 63137  1  0  0  0
 64138  1  0  0  0
 65139  1  0  0  0
 68 77  1  0  0  0
 71 74  2  0  0  0
 71 75  1  0  0  0
 71140  1  0  0  0
 72 74  1  0  0  0
 72 79  2  0  0  0
 72141  1  0  0  0
 73 75  2  0  0  0
 73 79  1  0  0  0
 73142  1  0  0  0
 74 76  1  0  0  0
 75 77  1  0  0  0
 76 78  1  0  0  0
 76143  1  0  0  0
 76144  1  0  0  0
 77145  1  0  0  0
 77146  1  0  0  0
 78 80  1  0  0  0
 78147  1  0  0  0
 78148  1  0  0  0
 80149  1  0  0  0
M  ISO  4   1 100  68 101  77 101  80 100
M  END
> <chiral flag>
0

> <version>
0

> <s_m_source_file>
/data/baiqing/PycharmProjects/Reinvent-master-3.2/result/LINK_invent/BTK/process_docking_weight1_custom_sum_contain_oxygen_bond_distance_aromatic_linkinvent_7_9_3/rearranged_h_0100.sdf

> <i_m_source_file_index>
36

> <r_mmod_Potential_Energy-OPLS-2005>
339.172821044922

> <r_mmod_Stretch_Energy-OPLS-2005>
277.831207275391

> <r_mmod_Bend_Energy-OPLS-2005>
247.203826904297

> <r_mmod_Torsional_Energy-OPLS-2005>
207.657989501953

> <r_mmod_Improper_Torsional_Energy-OPLS-2005>
4.49741363525391

> <r_mmod_Van_der_Waal_Energy-OPLS-2005>
130.550033569336

> <r_mmod_Electrostatic_Energy-OPLS-2005>
-510.129211425781

> <r_mmod_Solvation_Energy-OPLS-2005>
-233.272872924805

> <b_mmod_Minimization_Converged-OPLS-2005>
0

> <r_mmod_RMS_Derivative-OPLS-2005>
1.16859710216522

$$$$
36
                    3D
 Structure written by MMmdl.
166174  0  0  1  0            999 V2000
  -30.6333  -14.5268   20.4591 C   0  0  0  0  0  0
  -30.4300  -12.2889   19.4557 C   0  0  0  0  0  0
  -29.5120  -12.4086   18.2200 C   0  0  0  0  0  0
  -28.0236  -12.3036   18.6207 C   0  0  0  0  0  0
  -27.6451  -13.1785   19.8480 C   0  0  2  0  0  0
  -28.6849  -13.0352   20.9820 C   0  0  0  0  0  0
  -25.2590  -13.8098   20.5643 C   0  0  0  0  0  0
  -24.1822  -13.0417   20.9178 C   0  0  0  0  0  0
  -24.6330  -11.6879   20.8733 C   0  0  0  0  0  0
  -23.8992  -10.4290   21.0414 C   0  0  0  0  0  0
  -24.3590   -9.4211   21.9172 C   0  0  0  0  0  0
  -23.6295   -8.2234   22.0722 C   0  0  0  0  0  0
  -22.4267   -8.0263   21.3522 C   0  0  0  0  0  0
  -21.9880   -9.0223   20.4613 C   0  0  0  0  0  0
  -22.7179  -10.2120   20.3038 C   0  0  0  0  0  0
  -21.6852   -6.0729   22.5282 C   0  0  0  0  0  0
  -21.4015   -6.5633   23.8218 C   0  0  0  0  0  0
  -21.3661   -5.6775   24.9177 C   0  0  0  0  0  0
  -21.6059   -4.3038   24.7220 C   0  0  0  0  0  0
  -21.8825   -3.8137   23.4339 C   0  0  0  0  0  0
  -21.9204   -4.6957   22.3403 C   0  0  0  0  0  0
  -22.7859  -13.5242   21.1855 C   0  0  0  0  0  0
  -22.1671   -4.2150   21.0974 F   0  0  0  0  0  0
  -21.5626   -3.4519   25.7732 F   0  0  0  0  0  0
  -30.0117  -13.3191   20.4140 N   0  0  0  0  0  0
  -26.2927  -12.9175   20.3217 N   0  0  0  0  0  0
  -25.9229  -11.6380   20.5718 N   0  0  0  0  0  0
  -22.0497  -12.8248   22.0413 N   0  0  0  0  0  0
  -25.4404  -15.1819   20.4095 N   0  0  0  0  0  0
  -31.8290  -14.6802   20.1900 O   0  0  0  0  0  0
  -21.6633   -6.8866   21.4239 O   0  0  0  0  0  0
  -22.3558  -14.5553   20.6690 O   0  0  0  0  0  0
  -24.6132  -31.8721   23.2086 C   0  0  0  0  0  0
  -25.9014  -32.4851   23.8410 C   0  0  1  0  0  0
  -27.2387  -27.4531   20.0908 C   0  0  0  0  0  0
  -25.5870  -33.8645   24.2334 N   0  0  0  0  0  0
  -23.4001  -30.4914   21.5513 C   0  0  2  0  0  0
  -24.8455  -28.9592   20.1126 C   0  0  0  0  0  0
  -22.7396  -29.4669   22.5030 C   0  0  0  0  0  0
  -18.0282  -28.1365   22.8531 C   0  0  0  0  0  0
  -24.1470  -36.7325   23.2648 C   0  0  0  0  0  0
  -25.9285  -30.8449   21.3538 C   0  0  0  0  0  0
  -26.0068  -29.4802   20.7006 C   0  0  0  0  0  0
  -27.2073  -28.7368   20.6786 C   0  0  0  0  0  0
  -26.0615  -26.9443   19.4941 C   0  0  0  0  0  0
  -24.8687  -27.6918   19.5055 C   0  0  0  0  0  0
  -23.6050  -29.8222   20.1662 C   0  0  0  0  0  0
  -25.4085  -36.3137   24.0360 C   0  0  1  0  0  0
  -20.5868  -28.3645   23.1352 C   0  0  2  0  0  0
  -20.6767  -26.9380   22.5442 C   0  0  0  0  0  0
  -19.5733  -26.6373   21.5251 C   0  0  0  0  0  0
  -18.1910  -26.7918   22.1650 C   0  0  0  0  0  0
  -19.1529  -28.8819   23.2943 C   0  0  0  0  0  0
  -18.9447  -30.1442   23.8927 C   0  0  0  0  0  0
  -17.6442  -30.6566   24.0577 C   0  0  0  0  0  0
  -25.9025  -34.9496   23.5137 C   0  0  0  0  0  0
  -16.5347  -29.9066   23.6317 C   0  0  0  0  0  0
  -16.7270  -28.6483   23.0350 C   0  0  0  0  0  0
  -26.4438  -31.6606   25.0715 C   0  0  0  0  0  0
  -25.3731  -31.3680   26.1475 C   0  0  0  0  0  0
  -27.0232  -30.3060   24.6025 C   0  0  0  0  0  0
  -27.6027  -32.4326   25.7479 C   0  0  0  0  0  0
  -27.5583  -37.1806   24.8472 C   0  0  0  0  0  0
  -21.4135  -29.3010   22.3758 N   0  0  0  0  0  0
  -26.4287  -37.3809   23.9436 N   0  0  0  0  0  0
  -24.6662  -31.0852   22.0958 N   0  0  0  0  0  0
  -23.4185  -28.8210   23.3067 O   0  0  0  0  0  0
  -28.3997  -26.7105   20.1319 O   0  0  0  0  0  0
  -26.5607  -34.8943   22.4722 O   0  0  0  0  0  0
  -23.5330  -32.1466   23.7467 O   0  0  0  0  0  0
  -30.2801  -19.0238   22.1975 C   0  0  0  0  0  0
  -30.2040  -17.2947   18.6771 C   0  0  0  0  0  0
  -30.0958  -18.4182   19.7061 C   0  0  0  0  0  0
  -29.3368  -16.1148   19.1197 C   0  0  0  0  0  0
  -29.6762  -16.6047   21.4841 C   0  0  0  0  0  0
  -30.4471  -17.9167   21.1293 C   0  0  2  0  0  0
  -27.7566  -25.3603   22.0552 C   0  0  0  0  0  0
  -29.8627  -23.2071   20.7057 C   0  0  0  0  0  0
  -29.4929  -22.6802   22.1129 C   0  0  0  0  0  0
  -29.7099  -24.7376   20.4992 C   0  0  0  0  0  0
  -30.3128  -21.4835   22.6288 C   0  0  0  0  0  0
  -28.2908  -25.3537   20.6022 C   0  0  1  0  0  0
  -29.7795  -15.5851   20.4213 N   0  0  0  0  0  0
  -30.2175  -20.2995   21.7780 N   0  0  0  0  0  0
  -30.2496  -18.7259   23.3928 O   0  0  0  0  0  0
  -31.4774  -12.3972   19.1677 H   0  0  0  0  0  0
  -30.3344  -11.3000   19.9088 H   0  0  0  0  0  0
  -29.7509  -11.6181   17.5084 H   0  0  0  0  0  0
  -29.7067  -13.3379   17.6886 H   0  0  0  0  0  0
  -27.8287  -11.2545   18.8488 H   0  0  0  0  0  0
  -27.3895  -12.5475   17.7676 H   0  0  0  0  0  0
  -27.6425  -14.2029   19.4985 H   0  0  0  0  0  0
  -28.6582  -12.0282   21.3995 H   0  0  0  0  0  0
  -28.4479  -13.7147   21.8040 H   0  0  0  0  0  0
  -25.2755   -9.5723   22.4716 H   0  0  0  0  0  0
  -24.0032   -7.4631   22.7435 H   0  0  0  0  0  0
  -21.0808   -8.8733   19.8921 H   0  0  0  0  0  0
  -22.3635  -10.9658   19.6144 H   0  0  0  0  0  0
  -21.1994   -7.6137   23.9731 H   0  0  0  0  0  0
  -21.1478   -6.0491   25.9084 H   0  0  0  0  0  0
  -22.0606   -2.7594   23.2835 H   0  0  0  0  0  0
  -22.4109  -11.9953   22.4881 H   0  0  0  0  0  0
  -21.1091  -13.1275   22.2544 H   0  0  0  0  0  0
  -24.6861  -15.8497   20.5294 H   0  0  0  0  0  0
  -26.3104  -15.6141   20.1251 H   0  0  0  0  0  0
  -26.7091  -32.5543   23.1198 H   0  0  0  0  0  0
  -25.0051  -33.9858   25.0499 H   0  0  0  0  0  0
  -22.6918  -31.3085   21.4134 H   0  0  0  0  0  0
  -23.3741  -35.9648   23.3319 H   0  0  0  0  0  0
  -24.3594  -36.8928   22.2065 H   0  0  0  0  0  0
  -23.7187  -37.6531   23.6631 H   0  0  0  0  0  0
  -26.0350  -31.6047   20.5790 H   0  0  0  0  0  0
  -26.8229  -30.9057   21.9624 H   0  0  0  0  0  0
  -28.1060  -29.1322   21.1322 H   0  0  0  0  0  0
  -26.0575  -25.9751   19.0155 H   0  0  0  0  0  0
  -23.9772  -27.2837   19.0474 H   0  0  0  0  0  0
  -23.7052  -30.5973   19.4071 H   0  0  0  0  0  0
  -22.7276  -29.2407   19.8751 H   0  0  0  0  0  0
  -25.1246  -36.2042   25.0854 H   0  0  0  0  0  0
  -20.9998  -28.3172   24.1461 H   0  0  0  0  0  0
  -20.5683  -26.2238   23.3624 H   0  0  0  0  0  0
  -21.6634  -26.7431   22.1217 H   0  0  0  0  0  0
  -19.6873  -25.6290   21.1246 H   0  0  0  0  0  0
  -19.6642  -27.3218   20.6804 H   0  0  0  0  0  0
  -17.4197  -26.6745   21.4023 H   0  0  0  0  0  0
  -18.0257  -26.0041   22.9005 H   0  0  0  0  0  0
  -19.7921  -30.7276   24.2289 H   0  0  0  0  0  0
  -17.4982  -31.6252   24.5172 H   0  0  0  0  0  0
  -15.5335  -30.2971   23.7599 H   0  0  0  0  0  0
  -15.8690  -28.0799   22.7040 H   0  0  0  0  0  0
  -24.5932  -30.6995   25.7813 H   0  0  0  0  0  0
  -24.8893  -32.2818   26.4933 H   0  0  0  0  0  0
  -25.8123  -30.8860   27.0220 H   0  0  0  0  0  0
  -26.2722  -29.6873   24.1094 H   0  0  0  0  0  0
  -27.4059  -29.7231   25.4414 H   0  0  0  0  0  0
  -27.8527  -30.4425   23.9082 H   0  0  0  0  0  0
  -27.2653  -33.3643   26.2033 H   0  0  0  0  0  0
  -28.3821  -32.6867   25.0283 H   0  0  0  0  0  0
  -28.0679  -31.8462   26.5420 H   0  0  0  0  0  0
  -28.2591  -38.0112   24.7570 H   0  0  0  0  0  0
  -28.1082  -36.2664   24.6207 H   0  0  0  0  0  0
  -27.2347  -37.1366   25.8886 H   0  0  0  0  0  0
  -20.9256  -29.8745   21.7013 H   0  0  0  0  0  0
  -26.0184  -38.2896   24.1449 H   0  0  0  0  0  0
  -31.2447  -16.9802   18.5715 H   0  0  0  0  0  0
  -29.8868  -17.6529   17.6973 H   0  0  0  0  0  0
  -29.0790  -18.8183   19.6876 H   0  0  0  0  0  0
  -30.7548  -19.2343   19.4099 H   0  0  0  0  0  0
  -29.3560  -15.3542   18.3441 H   0  0  0  0  0  0
  -28.2934  -16.4319   19.1934 H   0  0  0  0  0  0
  -28.6188  -16.8296   21.6439 H   0  0  0  0  0  0
  -30.0398  -16.1976   22.4296 H   0  0  0  0  0  0
  -31.5092  -17.6711   21.1327 H   0  0  0  0  0  0
  -27.4287  -24.3728   22.3692 H   0  0  0  0  0  0
  -26.8873  -26.0015   22.1896 H   0  0  0  0  0  0
  -28.5189  -25.7035   22.7535 H   0  0  0  0  0  0
  -29.2953  -22.6651   19.9473 H   0  0  0  0  0  0
  -30.9080  -22.9677   20.5132 H   0  0  0  0  0  0
  -28.4335  -22.4216   22.1379 H   0  0  0  0  0  0
  -29.6311  -23.4813   22.8414 H   0  0  0  0  0  0
  -30.0946  -24.9595   19.5022 H   0  0  0  0  0  0
  -30.3837  -25.2572   21.1810 H   0  0  0  0  0  0
  -29.9785  -21.2566   23.6431 H   0  0  0  0  0  0
  -31.3638  -21.7627   22.7144 H   0  0  0  0  0  0
  -27.6183  -24.7829   19.9577 H   0  0  0  0  0  0
  -30.2162  -20.4527   20.7794 H   0  0  0  0  0  0
  1 25  1  0  0  0
  1 30  2  0  0  0
  1 83  1  0  0  0
  2  3  1  0  0  0
  2 25  1  0  0  0
  2 86  1  0  0  0
  2 87  1  0  0  0
  3  4  1  0  0  0
  3 88  1  0  0  0
  3 89  1  0  0  0
  4  5  1  0  0  0
  4 90  1  0  0  0
  4 91  1  0  0  0
  5  6  1  0  0  0
  5 26  1  0  0  0
  5 92  1  0  0  0
  6 25  1  0  0  0
  6 93  1  0  0  0
  6 94  1  0  0  0
  7  8  2  0  0  0
  7 26  1  0  0  0
  7 29  1  0  0  0
  8  9  1  0  0  0
  8 22  1  0  0  0
  9 10  1  0  0  0
  9 27  2  0  0  0
 10 11  2  0  0  0
 10 15  1  0  0  0
 11 12  1  0  0  0
 11 95  1  0  0  0
 12 13  2  0  0  0
 12 96  1  0  0  0
 13 14  1  0  0  0
 13 31  1  0  0  0
 14 15  2  0  0  0
 14 97  1  0  0  0
 15 98  1  0  0  0
 16 17  2  0  0  0
 16 21  1  0  0  0
 16 31  1  0  0  0
 17 18  1  0  0  0
 17 99  1  0  0  0
 18 19  2  0  0  0
 18100  1  0  0  0
 19 20  1  0  0  0
 19 24  1  0  0  0
 20 21  2  0  0  0
 20101  1  0  0  0
 21 23  1  0  0  0
 22 28  1  0  0  0
 22 32  2  0  0  0
 26 27  1  0  0  0
 28102  1  0  0  0
 28103  1  0  0  0
 29104  1  0  0  0
 29105  1  0  0  0
 33 34  1  0  0  0
 33 66  1  0  0  0
 33 70  2  0  0  0
 34 36  1  0  0  0
 34 59  1  0  0  0
 34106  1  0  0  0
 35 44  2  0  0  0
 35 45  1  0  0  0
 35 68  1  0  0  0
 36 56  1  0  0  0
 36107  1  0  0  0
 37 39  1  0  0  0
 37 47  1  0  0  0
 37 66  1  0  0  0
 37108  1  0  0  0
 38 43  2  0  0  0
 38 46  1  0  0  0
 38 47  1  0  0  0
 39 64  1  0  0  0
 39 67  2  0  0  0
 40 52  1  0  0  0
 40 53  2  0  0  0
 40 58  1  0  0  0
 41109  1  0  0  0
 41110  1  0  0  0
 41111  1  0  0  0
 41 48  1  0  0  0
 42 43  1  0  0  0
 42 66  1  0  0  0
 42112  1  0  0  0
 42113  1  0  0  0
 43 44  1  0  0  0
 44114  1  0  0  0
 45 46  2  0  0  0
 45115  1  0  0  0
 46116  1  0  0  0
 47117  1  0  0  0
 47118  1  0  0  0
 48 56  1  0  0  0
 48 65  1  0  0  0
 48119  1  0  0  0
 49 50  1  0  0  0
 49 53  1  0  0  0
 49 64  1  0  0  0
 49120  1  0  0  0
 50 51  1  0  0  0
 50121  1  0  0  0
 50122  1  0  0  0
 51 52  1  0  0  0
 51123  1  0  0  0
 51124  1  0  0  0
 52125  1  0  0  0
 52126  1  0  0  0
 53 54  1  0  0  0
 54 55  2  0  0  0
 54127  1  0  0  0
 55 57  1  0  0  0
 55128  1  0  0  0
 56 69  2  0  0  0
 57 58  2  0  0  0
 57129  1  0  0  0
 58130  1  0  0  0
 59 60  1  0  0  0
 59 61  1  0  0  0
 59 62  1  0  0  0
 60131  1  0  0  0
 60132  1  0  0  0
 60133  1  0  0  0
 61134  1  0  0  0
 61135  1  0  0  0
 61136  1  0  0  0
 62137  1  0  0  0
 62138  1  0  0  0
 62139  1  0  0  0
 63 65  1  0  0  0
 63140  1  0  0  0
 63141  1  0  0  0
 63142  1  0  0  0
 64143  1  0  0  0
 65144  1  0  0  0
 68 82  1  0  0  0
 71 84  1  0  0  0
 71 85  2  0  0  0
 71 76  1  0  0  0
 72 73  1  0  0  0
 72 74  1  0  0  0
 72145  1  0  0  0
 72146  1  0  0  0
 73 76  1  0  0  0
 73147  1  0  0  0
 73148  1  0  0  0
 74 83  1  0  0  0
 74149  1  0  0  0
 74150  1  0  0  0
 75 76  1  0  0  0
 75 83  1  0  0  0
 75151  1  0  0  0
 75152  1  0  0  0
 76153  1  0  0  0
 77154  1  0  0  0
 77155  1  0  0  0
 77156  1  0  0  0
 77 82  1  0  0  0
 78 79  1  0  0  0
 78 80  1  0  0  0
 78157  1  0  0  0
 78158  1  0  0  0
 79 81  1  0  0  0
 79159  1  0  0  0
 79160  1  0  0  0
 80 82  1  0  0  0
 80161  1  0  0  0
 80162  1  0  0  0
 81 84  1  0  0  0
 81163  1  0  0  0
 81164  1  0  0  0
 82165  1  0  0  0
 84166  1  0  0  0
M  ISO  4   1 100  68 101  82 101  83 100
M  END
> <chiral flag>
0

> <version>
0

> <s_m_source_file>
/data/baiqing/PycharmProjects/Reinvent-master-3.2/result/LINK_invent/BTK/process_docking_weight1_custom_sum_contain_oxygen_bond_distance_aromatic_linkinvent_7_9_3/rearranged_h_0100.sdf

> <i_m_source_file_index>
37

> <r_mmod_Potential_Energy-OPLS-2005>
156.884750366211

> <r_mmod_Stretch_Energy-OPLS-2005>
38.8473930358887

> <r_mmod_Bend_Energy-OPLS-2005>
100.503089904785

> <r_mmod_Torsional_Energy-OPLS-2005>
372.128662109375

> <r_mmod_Improper_Torsional_Energy-OPLS-2005>
12.6793699264526

> <r_mmod_Van_der_Waal_Energy-OPLS-2005>
142.28971862793

> <r_mmod_Electrostatic_Energy-OPLS-2005>
-323.964385986328

> <r_mmod_Solvation_Energy-OPLS-2005>
-210.448471069336

> <b_mmod_Minimization_Converged-OPLS-2005>
0

> <r_mmod_RMS_Derivative-OPLS-2005>
3.98744654655457

$$$$
37
                    3D
 Structure written by MMmdl.
175183  0  0  1  0            999 V2000
  -30.5889  -14.7235   20.4606 C   0  0  0  0  0  0
  -30.4428  -12.4393   19.4625 C   0  0  0  0  0  0
  -29.5135  -12.5052   18.2301 C   0  0  0  0  0  0
  -28.0351  -12.3401   18.6402 C   0  0  0  0  0  0
  -27.6447  -13.2255   19.8542 C   0  0  2  0  0  0
  -28.6926  -13.1229   20.9843 C   0  0  0  0  0  0
  -25.2497  -13.8148   20.5730 C   0  0  0  0  0  0
  -24.1797  -13.0387   20.9252 C   0  0  0  0  0  0
  -24.6386  -11.6875   20.8763 C   0  0  0  0  0  0
  -23.9056  -10.4258   21.0401 C   0  0  0  0  0  0
  -24.3602   -9.4168   21.9175 C   0  0  0  0  0  0
  -23.6267   -8.2210   22.0749 C   0  0  0  0  0  0
  -22.4253   -8.0259   21.3537 C   0  0  0  0  0  0
  -21.9889   -9.0231   20.4646 C   0  0  0  0  0  0
  -22.7230  -10.2102   20.3047 C   0  0  0  0  0  0
  -21.6831   -6.0723   22.5272 C   0  0  0  0  0  0
  -21.4012   -6.5626   23.8208 C   0  0  0  0  0  0
  -21.3667   -5.6776   24.9170 C   0  0  0  0  0  0
  -21.6047   -4.3041   24.7223 C   0  0  0  0  0  0
  -21.8815   -3.8135   23.4342 C   0  0  0  0  0  0
  -21.9183   -4.6951   22.3399 C   0  0  0  0  0  0
  -22.7825  -13.5177   21.1914 C   0  0  0  0  0  0
  -22.1658   -4.2143   21.0978 F   0  0  0  0  0  0
  -21.5626   -3.4525   25.7734 F   0  0  0  0  0  0
  -29.9966  -13.4842   20.4084 N   0  0  0  0  0  0
  -26.2940  -12.9356   20.3294 N   0  0  0  0  0  0
  -25.9309  -11.6502   20.5749 N   0  0  0  0  0  0
  -22.0446  -12.8189   22.0467 N   0  0  0  0  0  0
  -25.4069  -15.1868   20.4183 N   0  0  0  0  0  0
  -31.7718  -14.8704   20.1416 O   0  0  0  0  0  0
  -21.6611   -6.8862   21.4236 O   0  0  0  0  0  0
  -22.3511  -14.5466   20.6733 O   0  0  0  0  0  0
  -24.6323  -31.8559   23.1975 C   0  0  0  0  0  0
  -25.9146  -32.4757   23.8325 C   0  0  1  0  0  0
  -27.2167  -27.2540   20.1219 C   0  0  0  0  0  0
  -25.5933  -33.8557   24.2237 N   0  0  0  0  0  0
  -23.4284  -30.4799   21.5447 C   0  0  2  0  0  0
  -24.8733  -28.9296   20.1123 C   0  0  0  0  0  0
  -22.7510  -29.4602   22.4925 C   0  0  0  0  0  0
  -18.0297  -28.1376   22.8500 C   0  0  0  0  0  0
  -24.1483  -36.7275   23.2641 C   0  0  0  0  0  0
  -25.9784  -30.7645   21.3821 C   0  0  0  0  0  0
  -26.0490  -29.3888   20.7200 C   0  0  0  0  0  0
  -27.2236  -28.5661   20.7111 C   0  0  0  0  0  0
  -26.0139  -26.8726   19.4819 C   0  0  0  0  0  0
  -24.8618  -27.6781   19.4839 C   0  0  0  0  0  0
  -23.6450  -29.8172   20.1608 C   0  0  0  0  0  0
  -25.4114  -36.3069   24.0328 C   0  0  1  0  0  0
  -20.5902  -28.3688   23.1266 C   0  0  2  0  0  0
  -20.6794  -26.9406   22.5397 C   0  0  0  0  0  0
  -19.5742  -26.6363   21.5229 C   0  0  0  0  0  0
  -18.1932  -26.7903   22.1666 C   0  0  0  0  0  0
  -19.1552  -28.8854   23.2865 C   0  0  0  0  0  0
  -18.9471  -30.1460   23.8876 C   0  0  0  0  0  0
  -17.6474  -30.6586   24.0559 C   0  0  0  0  0  0
  -25.9069  -34.9445   23.5085 C   0  0  0  0  0  0
  -16.5363  -29.9086   23.6332 C   0  0  0  0  0  0
  -16.7283  -28.6497   23.0370 C   0  0  0  0  0  0
  -26.4493  -31.6590   25.0727 C   0  0  0  0  0  0
  -25.3700  -31.3786   26.1445 C   0  0  0  0  0  0
  -27.0342  -30.2993   24.6250 C   0  0  0  0  0  0
  -27.6037  -32.4344   25.7497 C   0  0  0  0  0  0
  -27.5578  -37.1783   24.8459 C   0  0  0  0  0  0
  -21.4219  -29.3036   22.3662 N   0  0  0  0  0  0
  -26.4281  -37.3776   23.9416 N   0  0  0  0  0  0
  -24.6988  -31.0521   22.0962 N   0  0  0  0  0  0
  -23.4207  -28.8162   23.3041 O   0  0  0  0  0  0
  -28.3087  -26.3468   20.1575 O   0  0  0  0  0  0
  -26.5648  -34.8921   22.4660 O   0  0  0  0  0  0
  -23.5467  -32.1399   23.7267 O   0  0  0  0  0  0
  -29.2771  -20.8669   20.3483 C   0  0  0  0  0  0
  -27.4613  -21.8774   21.0709 C   0  0  0  0  0  0
  -28.6614  -22.1902   20.5206 C   0  0  0  0  0  0
  -28.4568  -19.8075   20.7711 C   0  0  0  0  0  0
  -23.1376  -22.2777   20.5082 C   0  0  0  0  0  0
  -29.8665  -23.7177   18.8682 C   0  0  0  0  0  0
  -23.7231  -20.1357   22.7163 C   0  0  0  0  0  0
  -27.9769  -17.6380   22.1278 C   0  0  0  0  0  0
  -27.6664  -17.7000   19.5966 C   0  0  0  0  0  0
  -24.2484  -21.2174   20.4749 C   0  0  0  0  0  0
  -26.0592  -19.9381   21.7898 C   0  0  0  0  0  0
  -29.9146  -17.3307   20.6002 C   0  0  0  0  0  0
  -28.0157  -24.8666   20.2568 C   0  0  0  0  0  0
  -29.1340  -23.6887   20.2164 C   0  0  1  0  0  0
  -24.7995  -20.8411   21.8695 C   0  0  2  0  0  0
  -28.5406  -18.1858   20.7806 C   0  0  0  0  0  0
  -27.2884  -20.5009   21.2007 N   0  0  0  0  0  0
  -29.7512  -15.8014   20.6673 N   0  0  0  0  0  0
  -31.4797  -12.5813   19.1575 H   0  0  0  0  0  0
  -30.4012  -11.4545   19.9293 H   0  0  0  0  0  0
  -29.7887  -11.7308   17.5121 H   0  0  0  0  0  0
  -29.6512  -13.4608   17.7214 H   0  0  0  0  0  0
  -27.8843  -11.2893   18.8877 H   0  0  0  0  0  0
  -27.3819  -12.5517   17.7930 H   0  0  0  0  0  0
  -27.6445  -14.2538   19.4920 H   0  0  0  0  0  0
  -28.7236  -12.1085   21.3867 H   0  0  0  0  0  0
  -28.4344  -13.7753   21.8195 H   0  0  0  0  0  0
  -25.2745   -9.5633   22.4761 H   0  0  0  0  0  0
  -23.9962   -7.4593   22.7471 H   0  0  0  0  0  0
  -21.0812   -8.8742   19.8967 H   0  0  0  0  0  0
  -22.3676  -10.9628   19.6163 H   0  0  0  0  0  0
  -21.2006   -7.6134   23.9710 H   0  0  0  0  0  0
  -21.1511   -6.0514   25.9073 H   0  0  0  0  0  0
  -22.0597   -2.7601   23.2836 H   0  0  0  0  0  0
  -22.4014  -11.9831   22.4850 H   0  0  0  0  0  0
  -21.1062  -13.1238   22.2650 H   0  0  0  0  0  0
  -24.6188  -15.8168   20.5196 H   0  0  0  0  0  0
  -26.2248  -15.6376   20.0340 H   0  0  0  0  0  0
  -26.7217  -32.5385   23.1069 H   0  0  0  0  0  0
  -25.0047  -33.9683   25.0358 H   0  0  0  0  0  0
  -22.7253  -31.3023   21.4003 H   0  0  0  0  0  0
  -23.3756  -35.9593   23.3289 H   0  0  0  0  0  0
  -24.3588  -36.8912   22.2058 H   0  0  0  0  0  0
  -23.7218  -37.6464   23.6679 H   0  0  0  0  0  0
  -26.1279  -31.5267   20.6166 H   0  0  0  0  0  0
  -26.8511  -30.8044   22.0215 H   0  0  0  0  0  0
  -28.1216  -28.9170   21.1999 H   0  0  0  0  0  0
  -25.9173  -25.9323   18.9658 H   0  0  0  0  0  0
  -23.9655  -27.3197   18.9969 H   0  0  0  0  0  0
  -23.7694  -30.5941   19.4060 H   0  0  0  0  0  0
  -22.7624  -29.2531   19.8543 H   0  0  0  0  0  0
  -25.1291  -36.1912   25.0822 H   0  0  0  0  0  0
  -20.9987  -28.3250   24.1388 H   0  0  0  0  0  0
  -20.5739  -26.2284   23.3596 H   0  0  0  0  0  0
  -21.6650  -26.7452   22.1148 H   0  0  0  0  0  0
  -19.6906  -25.6272   21.1254 H   0  0  0  0  0  0
  -19.6652  -27.3178   20.6754 H   0  0  0  0  0  0
  -17.4186  -26.6619   21.4090 H   0  0  0  0  0  0
  -18.0359  -26.0064   22.9085 H   0  0  0  0  0  0
  -19.7958  -30.7275   24.2217 H   0  0  0  0  0  0
  -17.5044  -31.6270   24.5154 H   0  0  0  0  0  0
  -15.5370  -30.2996   23.7663 H   0  0  0  0  0  0
  -15.8676  -28.0813   22.7108 H   0  0  0  0  0  0
  -24.5808  -30.7222   25.7760 H   0  0  0  0  0  0
  -24.8980  -32.2993   26.4892 H   0  0  0  0  0  0
  -25.7983  -30.8909   27.0211 H   0  0  0  0  0  0
  -26.2944  -29.6739   24.1234 H   0  0  0  0  0  0
  -27.3961  -29.7268   25.4803 H   0  0  0  0  0  0
  -27.8853  -30.4251   23.9550 H   0  0  0  0  0  0
  -27.2627  -33.3655   26.2039 H   0  0  0  0  0  0
  -28.3856  -32.6889   25.0329 H   0  0  0  0  0  0
  -28.0688  -31.8495   26.5442 H   0  0  0  0  0  0
  -28.2566  -38.0108   24.7556 H   0  0  0  0  0  0
  -28.1099  -36.2644   24.6221 H   0  0  0  0  0  0
  -27.2306  -37.1350   25.8861 H   0  0  0  0  0  0
  -20.9413  -29.8745   21.6850 H   0  0  0  0  0  0
  -26.0154  -38.2836   24.1459 H   0  0  0  0  0  0
  -30.2606  -20.7012   19.9304 H   0  0  0  0  0  0
  -26.6855  -22.5641   21.3726 H   0  0  0  0  0  0
  -22.8292  -22.5422   19.4962 H   0  0  0  0  0  0
  -23.4740  -23.1906   21.0006 H   0  0  0  0  0  0
  -22.2484  -21.9226   21.0299 H   0  0  0  0  0  0
  -30.6944  -23.0086   18.8493 H   0  0  0  0  0  0
  -30.2717  -24.7089   18.6654 H   0  0  0  0  0  0
  -29.1951  -23.4599   18.0489 H   0  0  0  0  0  0
  -22.8605  -20.7760   22.8965 H   0  0  0  0  0  0
  -24.1123  -19.8554   23.6963 H   0  0  0  0  0  0
  -23.3670  -19.2261   22.2312 H   0  0  0  0  0  0
  -28.2885  -18.2652   22.9640 H   0  0  0  0  0  0
  -28.2852  -16.6297   22.3914 H   0  0  0  0  0  0
  -26.8958  -17.5570   22.1432 H   0  0  0  0  0  0
  -27.5772  -16.6175   19.5546 H   0  0  0  0  0  0
  -28.0999  -18.0167   18.6484 H   0  0  0  0  0  0
  -26.6533  -18.0917   19.6044 H   0  0  0  0  0  0
  -25.0542  -21.5912   19.8429 H   0  0  0  0  0  0
  -23.8812  -20.3195   19.9753 H   0  0  0  0  0  0
  -25.7562  -19.0663   21.2198 H   0  0  0  0  0  0
  -26.3083  -19.6147   22.8013 H   0  0  0  0  0  0
  -30.6190  -17.6211   21.3798 H   0  0  0  0  0  0
  -30.3914  -17.5872   19.6518 H   0  0  0  0  0  0
  -27.4682  -24.7542   21.1934 H   0  0  0  0  0  0
  -27.3214  -24.5783   19.4729 H   0  0  0  0  0  0
  -29.8641  -23.9272   20.9905 H   0  0  0  0  0  0
  -25.0514  -21.7520   22.4117 H   0  0  0  0  0  0
  -28.8090  -15.5174   20.8834 H   0  0  0  0  0  0
  1 25  1  0  0  0
  1 30  2  0  0  0
  1 88  1  0  0  0
  2  3  1  0  0  0
  2 25  1  0  0  0
  2 89  1  0  0  0
  2 90  1  0  0  0
  3  4  1  0  0  0
  3 91  1  0  0  0
  3 92  1  0  0  0
  4  5  1  0  0  0
  4 93  1  0  0  0
  4 94  1  0  0  0
  5  6  1  0  0  0
  5 26  1  0  0  0
  5 95  1  0  0  0
  6 25  1  0  0  0
  6 96  1  0  0  0
  6 97  1  0  0  0
  7  8  2  0  0  0
  7 26  1  0  0  0
  7 29  1  0  0  0
  8  9  1  0  0  0
  8 22  1  0  0  0
  9 10  1  0  0  0
  9 27  2  0  0  0
 10 11  2  0  0  0
 10 15  1  0  0  0
 11 12  1  0  0  0
 11 98  1  0  0  0
 12 13  2  0  0  0
 12 99  1  0  0  0
 13 14  1  0  0  0
 13 31  1  0  0  0
 14 15  2  0  0  0
 14100  1  0  0  0
 15101  1  0  0  0
 16 17  2  0  0  0
 16 21  1  0  0  0
 16 31  1  0  0  0
 17 18  1  0  0  0
 17102  1  0  0  0
 18 19  2  0  0  0
 18103  1  0  0  0
 19 20  1  0  0  0
 19 24  1  0  0  0
 20 21  2  0  0  0
 20104  1  0  0  0
 21 23  1  0  0  0
 22 28  1  0  0  0
 22 32  2  0  0  0
 26 27  1  0  0  0
 28105  1  0  0  0
 28106  1  0  0  0
 29107  1  0  0  0
 29108  1  0  0  0
 33 34  1  0  0  0
 33 66  1  0  0  0
 33 70  2  0  0  0
 34 36  1  0  0  0
 34 59  1  0  0  0
 34109  1  0  0  0
 35 44  2  0  0  0
 35 45  1  0  0  0
 35 68  1  0  0  0
 36 56  1  0  0  0
 36110  1  0  0  0
 37 39  1  0  0  0
 37 47  1  0  0  0
 37 66  1  0  0  0
 37111  1  0  0  0
 38 43  2  0  0  0
 38 46  1  0  0  0
 38 47  1  0  0  0
 39 64  1  0  0  0
 39 67  2  0  0  0
 40 52  1  0  0  0
 40 53  2  0  0  0
 40 58  1  0  0  0
 41112  1  0  0  0
 41113  1  0  0  0
 41114  1  0  0  0
 41 48  1  0  0  0
 42 43  1  0  0  0
 42 66  1  0  0  0
 42115  1  0  0  0
 42116  1  0  0  0
 43 44  1  0  0  0
 44117  1  0  0  0
 45 46  2  0  0  0
 45118  1  0  0  0
 46119  1  0  0  0
 47120  1  0  0  0
 47121  1  0  0  0
 48 56  1  0  0  0
 48 65  1  0  0  0
 48122  1  0  0  0
 49 50  1  0  0  0
 49 53  1  0  0  0
 49 64  1  0  0  0
 49123  1  0  0  0
 50 51  1  0  0  0
 50124  1  0  0  0
 50125  1  0  0  0
 51 52  1  0  0  0
 51126  1  0  0  0
 51127  1  0  0  0
 52128  1  0  0  0
 52129  1  0  0  0
 53 54  1  0  0  0
 54 55  2  0  0  0
 54130  1  0  0  0
 55 57  1  0  0  0
 55131  1  0  0  0
 56 69  2  0  0  0
 57 58  2  0  0  0
 57132  1  0  0  0
 58133  1  0  0  0
 59 60  1  0  0  0
 59 61  1  0  0  0
 59 62  1  0  0  0
 60134  1  0  0  0
 60135  1  0  0  0
 60136  1  0  0  0
 61137  1  0  0  0
 61138  1  0  0  0
 61139  1  0  0  0
 62140  1  0  0  0
 62141  1  0  0  0
 62142  1  0  0  0
 63 65  1  0  0  0
 63143  1  0  0  0
 63144  1  0  0  0
 63145  1  0  0  0
 64146  1  0  0  0
 65147  1  0  0  0
 68 83  1  0  0  0
 71 73  1  0  0  0
 71 74  2  0  0  0
 71148  1  0  0  0
 72 73  2  0  0  0
 72 87  1  0  0  0
 72149  1  0  0  0
 73 84  1  0  0  0
 74 86  1  0  0  0
 74 87  1  0  0  0
 75 80  1  0  0  0
 75150  1  0  0  0
 75151  1  0  0  0
 75152  1  0  0  0
 76153  1  0  0  0
 76154  1  0  0  0
 76155  1  0  0  0
 76 84  1  0  0  0
 77156  1  0  0  0
 77157  1  0  0  0
 77158  1  0  0  0
 77 85  1  0  0  0
 78159  1  0  0  0
 78160  1  0  0  0
 78161  1  0  0  0
 78 86  1  0  0  0
 79 86  1  0  0  0
 79162  1  0  0  0
 79163  1  0  0  0
 79164  1  0  0  0
 80 85  1  0  0  0
 80165  1  0  0  0
 80166  1  0  0  0
 81 85  1  0  0  0
 81 87  1  0  0  0
 81167  1  0  0  0
 81168  1  0  0  0
 82 86  1  0  0  0
 82 88  1  0  0  0
 82169  1  0  0  0
 82170  1  0  0  0
 83 84  1  0  0  0
 83171  1  0  0  0
 83172  1  0  0  0
 84173  1  0  0  0
 85174  1  0  0  0
 88175  1  0  0  0
M  ISO  4   1 100  68 101  83 101  88 100
M  END
> <chiral flag>
0

> <version>
0

> <s_m_source_file>
/data/baiqing/PycharmProjects/Reinvent-master-3.2/result/LINK_invent/BTK/process_docking_weight1_custom_sum_contain_oxygen_bond_distance_aromatic_linkinvent_7_9_3/rearranged_h_0100.sdf

> <i_m_source_file_index>
38

> <r_mmod_Potential_Energy-OPLS-2005>
185.261413574219

> <r_mmod_Stretch_Energy-OPLS-2005>
144.417724609375

> <r_mmod_Bend_Energy-OPLS-2005>
201.31135559082

> <r_mmod_Torsional_Energy-OPLS-2005>
248.81396484375

> <r_mmod_Improper_Torsional_Energy-OPLS-2005>
5.29700803756714

> <r_mmod_Van_der_Waal_Energy-OPLS-2005>
135.557830810547

> <r_mmod_Electrostatic_Energy-OPLS-2005>
-436.992950439453

> <r_mmod_Solvation_Energy-OPLS-2005>
-195.794586181641

> <b_mmod_Minimization_Converged-OPLS-2005>
0

> <r_mmod_RMS_Derivative-OPLS-2005>
2.27956628799438

$$$$
38
                    3D
 Structure written by MMmdl.
168176  0  0  1  0            999 V2000
  -30.5220  -14.9588   20.4054 C   0  0  0  0  0  0
  -30.4451  -12.5848   19.5240 C   0  0  0  0  0  0
  -29.5342  -12.5410   18.2729 C   0  0  0  0  0  0
  -28.0614  -12.3344   18.6734 C   0  0  0  0  0  0
  -27.6384  -13.2513   19.8501 C   0  0  2  0  0  0
  -28.6766  -13.2607   20.9953 C   0  0  0  0  0  0
  -25.2482  -13.8215   20.5695 C   0  0  0  0  0  0
  -24.1788  -13.0441   20.9207 C   0  0  0  0  0  0
  -24.6409  -11.6929   20.8740 C   0  0  0  0  0  0
  -23.9083  -10.4300   21.0391 C   0  0  0  0  0  0
  -24.3635   -9.4216   21.9169 C   0  0  0  0  0  0
  -23.6313   -8.2245   22.0736 C   0  0  0  0  0  0
  -22.4298   -8.0284   21.3522 C   0  0  0  0  0  0
  -21.9934   -9.0259   20.4626 C   0  0  0  0  0  0
  -22.7254  -10.2142   20.3043 C   0  0  0  0  0  0
  -21.6862   -6.0744   22.5276 C   0  0  0  0  0  0
  -21.4011   -6.5641   23.8209 C   0  0  0  0  0  0
  -21.3660   -5.6790   24.9172 C   0  0  0  0  0  0
  -21.6050   -4.3054   24.7215 C   0  0  0  0  0  0
  -21.8817   -3.8146   23.4334 C   0  0  0  0  0  0
  -21.9192   -4.6970   22.3399 C   0  0  0  0  0  0
  -22.7801  -13.5212   21.1859 C   0  0  0  0  0  0
  -22.1652   -4.2153   21.0977 F   0  0  0  0  0  0
  -21.5648   -3.4542   25.7726 F   0  0  0  0  0  0
  -29.9628  -13.6790   20.4193 N   0  0  0  0  0  0
  -26.2923  -12.9457   20.3259 N   0  0  0  0  0  0
  -25.9351  -11.6582   20.5732 N   0  0  0  0  0  0
  -22.0440  -12.8211   22.0415 N   0  0  0  0  0  0
  -25.4182  -15.1944   20.4119 N   0  0  0  0  0  0
  -31.6829  -15.0597   19.9966 O   0  0  0  0  0  0
  -21.6648   -6.8896   21.4237 O   0  0  0  0  0  0
  -22.3478  -14.5509   20.6696 O   0  0  0  0  0  0
  -24.6450  -31.8409   23.1857 C   0  0  0  0  0  0
  -25.9213  -32.4676   23.8251 C   0  0  1  0  0  0
  -27.2240  -27.1158   20.1509 C   0  0  0  0  0  0
  -25.5949  -33.8491   24.2167 N   0  0  0  0  0  0
  -23.4508  -30.4590   21.5292 C   0  0  2  0  0  0
  -24.9019  -28.8798   20.1041 C   0  0  0  0  0  0
  -22.7578  -29.4526   22.4818 C   0  0  0  0  0  0
  -18.0311  -28.1403   22.8481 C   0  0  0  0  0  0
  -24.1487  -36.7254   23.2643 C   0  0  0  0  0  0
  -26.0068  -30.7067   21.3877 C   0  0  0  0  0  0
  -26.0764  -29.3153   20.7294 C   0  0  0  0  0  0
  -27.2320  -28.4468   20.7413 C   0  0  0  0  0  0
  -26.0218  -26.7798   19.4909 C   0  0  0  0  0  0
  -24.8882  -27.6260   19.4712 C   0  0  0  0  0  0
  -23.6796  -29.7864   20.1478 C   0  0  0  0  0  0
  -25.4124  -36.3027   24.0314 C   0  0  1  0  0  0
  -20.5927  -28.3731   23.1228 C   0  0  2  0  0  0
  -20.6789  -26.9427   22.5406 C   0  0  0  0  0  0
  -19.5764  -26.6376   21.5214 C   0  0  0  0  0  0
  -18.1946  -26.7941   22.1624 C   0  0  0  0  0  0
  -19.1569  -28.8882   23.2851 C   0  0  0  0  0  0
  -18.9484  -30.1476   23.8876 C   0  0  0  0  0  0
  -17.6482  -30.6596   24.0563 C   0  0  0  0  0  0
  -25.9073  -34.9401   23.5049 C   0  0  0  0  0  0
  -16.5372  -29.9092   23.6335 C   0  0  0  0  0  0
  -16.7295  -28.6511   23.0359 C   0  0  0  0  0  0
  -26.4518  -31.6575   25.0713 C   0  0  0  0  0  0
  -25.3692  -31.3795   26.1402 C   0  0  0  0  0  0
  -27.0386  -30.2967   24.6324 C   0  0  0  0  0  0
  -27.6034  -32.4351   25.7509 C   0  0  0  0  0  0
  -27.5576  -37.1787   24.8463 C   0  0  0  0  0  0
  -21.4265  -29.3050   22.3585 N   0  0  0  0  0  0
  -26.4276  -37.3750   23.9412 N   0  0  0  0  0  0
  -24.7206  -31.0241   22.0897 N   0  0  0  0  0  0
  -23.4206  -28.8060   23.2972 O   0  0  0  0  0  0
  -28.2864  -26.1424   20.2794 O   0  0  0  0  0  0
  -26.5663  -34.8911   22.4629 O   0  0  0  0  0  0
  -23.5562  -32.1290   23.7069 O   0  0  0  0  0  0
  -30.6786  -21.8269   20.2105 C   0  0  0  0  0  0
  -31.1289  -19.3832   20.2755 C   0  0  0  0  0  0
  -28.8615  -20.2510   20.2626 C   0  0  0  0  0  0
  -31.5785  -20.7280   20.2412 C   0  0  0  0  0  0
  -29.2582  -21.6985   20.2324 C   0  0  0  0  0  0
  -29.7597  -19.0544   20.2542 C   0  0  0  0  0  0
  -33.6132  -20.6983   18.7535 C   0  0  0  0  0  0
  -33.8876  -20.3026   21.2450 C   0  0  0  0  0  0
  -27.4012  -22.6228   18.9847 C   0  0  0  0  0  0
  -29.5714  -17.2180   18.4114 C   0  0  0  0  0  0
  -28.3965  -24.7309   19.6171 C   0  0  0  0  0  0
  -33.0765  -21.0201   20.1558 C   0  0  0  0  0  0
  -28.2612  -23.0807   20.1985 C   0  0  1  0  0  0
  -29.3614  -17.4720   19.9276 C   0  0  1  0  0  0
  -29.7321  -16.1147   20.6743 N   0  0  0  0  0  0
  -29.0269  -18.2954   17.5652 N   0  3  0  0  0  0
  -31.4838  -12.7327   19.2205 H   0  0  0  0  0  0
  -30.4295  -11.6271   20.0477 H   0  0  0  0  0  0
  -29.8572  -11.7478   17.5968 H   0  0  0  0  0  0
  -29.6349  -13.4747   17.7160 H   0  0  0  0  0  0
  -27.9388  -11.2893   18.9592 H   0  0  0  0  0  0
  -27.4090  -12.4940   17.8146 H   0  0  0  0  0  0
  -27.6099  -14.2611   19.4383 H   0  0  0  0  0  0
  -28.7550  -12.2744   21.4556 H   0  0  0  0  0  0
  -28.3693  -13.9472   21.7858 H   0  0  0  0  0  0
  -25.2781   -9.5714   22.4746 H   0  0  0  0  0  0
  -24.0033   -7.4648   22.7471 H   0  0  0  0  0  0
  -21.0857   -8.8783   19.8947 H   0  0  0  0  0  0
  -22.3700  -10.9684   19.6165 H   0  0  0  0  0  0
  -21.1988   -7.6145   23.9722 H   0  0  0  0  0  0
  -21.1485   -6.0510   25.9083 H   0  0  0  0  0  0
  -22.0595   -2.7607   23.2830 H   0  0  0  0  0  0
  -22.4045  -11.9895   22.4849 H   0  0  0  0  0  0
  -21.1042  -13.1227   22.2585 H   0  0  0  0  0  0
  -24.6551  -15.8526   20.5312 H   0  0  0  0  0  0
  -26.2687  -15.6288   20.0827 H   0  0  0  0  0  0
  -26.7276  -32.5274   23.0982 H   0  0  0  0  0  0
  -25.0091  -33.9596   25.0308 H   0  0  0  0  0  0
  -22.7567  -31.2871   21.3723 H   0  0  0  0  0  0
  -23.3749  -35.9580   23.3285 H   0  0  0  0  0  0
  -24.3570  -36.8908   22.2059 H   0  0  0  0  0  0
  -23.7231  -37.6441   23.6694 H   0  0  0  0  0  0
  -26.1652  -31.4586   20.6134 H   0  0  0  0  0  0
  -26.8764  -30.7586   22.0312 H   0  0  0  0  0  0
  -28.1215  -28.7711   21.2634 H   0  0  0  0  0  0
  -25.9121  -25.8097   19.0319 H   0  0  0  0  0  0
  -23.9891  -27.2820   18.9788 H   0  0  0  0  0  0
  -23.8244  -30.5623   19.3949 H   0  0  0  0  0  0
  -22.7933  -29.2335   19.8304 H   0  0  0  0  0  0
  -25.1311  -36.1846   25.0801 H   0  0  0  0  0  0
  -21.0041  -28.3325   24.1345 H   0  0  0  0  0  0
  -20.5677  -26.2346   23.3635 H   0  0  0  0  0  0
  -21.6659  -26.7423   22.1212 H   0  0  0  0  0  0
  -19.6926  -25.6276   21.1272 H   0  0  0  0  0  0
  -19.6708  -27.3167   20.6730 H   0  0  0  0  0  0
  -17.4223  -26.6699   21.4019 H   0  0  0  0  0  0
  -18.0340  -26.0083   22.9022 H   0  0  0  0  0  0
  -19.7960  -30.7296   24.2240 H   0  0  0  0  0  0
  -17.5037  -31.6278   24.5161 H   0  0  0  0  0  0
  -15.5373  -30.2991   23.7664 H   0  0  0  0  0  0
  -15.8700  -28.0820   22.7087 H   0  0  0  0  0  0
  -24.5877  -30.7130   25.7739 H   0  0  0  0  0  0
  -24.8868  -32.2989   26.4730 H   0  0  0  0  0  0
  -25.7958  -30.9044   27.0244 H   0  0  0  0  0  0
  -26.3016  -29.6688   24.1307 H   0  0  0  0  0  0
  -27.3956  -29.7272   25.4915 H   0  0  0  0  0  0
  -27.8939  -30.4188   23.9679 H   0  0  0  0  0  0
  -27.2609  -33.3671   26.2022 H   0  0  0  0  0  0
  -28.3887  -32.6887   25.0376 H   0  0  0  0  0  0
  -28.0659  -31.8525   26.5487 H   0  0  0  0  0  0
  -28.2578  -38.0097   24.7513 H   0  0  0  0  0  0
  -28.1082  -36.2627   24.6278 H   0  0  0  0  0  0
  -27.2300  -37.1429   25.8866 H   0  0  0  0  0  0
  -20.9468  -29.8774   21.6780 H   0  0  0  0  0  0
  -26.0139  -38.2812   24.1418 H   0  0  0  0  0  0
  -31.1239  -22.8117   20.1556 H   0  0  0  0  0  0
  -31.8529  -18.5806   20.2265 H   0  0  0  0  0  0
  -27.8040  -20.0312   20.2495 H   0  0  0  0  0  0
  -33.0863  -21.2709   17.9891 H   0  0  0  0  0  0
  -33.5025  -19.6386   18.5165 H   0  0  0  0  0  0
  -34.6714  -20.9466   18.6723 H   0  0  0  0  0  0
  -33.5163  -20.5515   22.2390 H   0  0  0  0  0  0
  -34.9366  -20.5963   21.2054 H   0  0  0  0  0  0
  -33.8537  -19.2196   21.1337 H   0  0  0  0  0  0
  -26.9650  -21.6364   19.1190 H   0  0  0  0  0  0
  -27.9761  -22.6030   18.0581 H   0  0  0  0  0  0
  -26.5206  -23.2498   18.8340 H   0  0  0  0  0  0
  -29.1064  -16.2785   18.1086 H   0  0  0  0  0  0
  -30.6379  -17.1252   18.1986 H   0  0  0  0  0  0
  -27.7985  -24.8749   18.7200 H   0  0  0  0  0  0
  -29.3720  -24.8201   19.1231 H   0  0  0  0  0  0
  -33.2240  -22.0895   20.3182 H   0  0  0  0  0  0
  -29.2201  -23.4996   20.4489 H   0  0  0  0  0  0
  -28.2803  -17.4901   20.0697 H   0  0  0  0  0  0
  -28.9573  -15.8427   21.2610 H   0  0  0  0  0  0
  -28.0300  -18.3661   17.6648 H   0  0  0  0  0  0
  -29.2376  -18.1203   16.5985 H   0  0  0  0  0  0
  -29.4452  -19.1708   17.8288 H   0  0  0  0  0  0
  1 25  1  0  0  0
  1 30  2  0  0  0
  1 85  1  0  0  0
  2  3  1  0  0  0
  2 25  1  0  0  0
  2 87  1  0  0  0
  2 88  1  0  0  0
  3  4  1  0  0  0
  3 89  1  0  0  0
  3 90  1  0  0  0
  4  5  1  0  0  0
  4 91  1  0  0  0
  4 92  1  0  0  0
  5  6  1  0  0  0
  5 26  1  0  0  0
  5 93  1  0  0  0
  6 25  1  0  0  0
  6 94  1  0  0  0
  6 95  1  0  0  0
  7  8  2  0  0  0
  7 26  1  0  0  0
  7 29  1  0  0  0
  8  9  1  0  0  0
  8 22  1  0  0  0
  9 10  1  0  0  0
  9 27  2  0  0  0
 10 11  2  0  0  0
 10 15  1  0  0  0
 11 12  1  0  0  0
 11 96  1  0  0  0
 12 13  2  0  0  0
 12 97  1  0  0  0
 13 14  1  0  0  0
 13 31  1  0  0  0
 14 15  2  0  0  0
 14 98  1  0  0  0
 15 99  1  0  0  0
 16 17  2  0  0  0
 16 21  1  0  0  0
 16 31  1  0  0  0
 17 18  1  0  0  0
 17100  1  0  0  0
 18 19  2  0  0  0
 18101  1  0  0  0
 19 20  1  0  0  0
 19 24  1  0  0  0
 20 21  2  0  0  0
 20102  1  0  0  0
 21 23  1  0  0  0
 22 28  1  0  0  0
 22 32  2  0  0  0
 26 27  1  0  0  0
 28103  1  0  0  0
 28104  1  0  0  0
 29105  1  0  0  0
 29106  1  0  0  0
 33 34  1  0  0  0
 33 66  1  0  0  0
 33 70  2  0  0  0
 34 36  1  0  0  0
 34 59  1  0  0  0
 34107  1  0  0  0
 35 44  2  0  0  0
 35 45  1  0  0  0
 35 68  1  0  0  0
 36 56  1  0  0  0
 36108  1  0  0  0
 37 39  1  0  0  0
 37 47  1  0  0  0
 37 66  1  0  0  0
 37109  1  0  0  0
 38 43  2  0  0  0
 38 46  1  0  0  0
 38 47  1  0  0  0
 39 64  1  0  0  0
 39 67  2  0  0  0
 40 52  1  0  0  0
 40 53  2  0  0  0
 40 58  1  0  0  0
 41110  1  0  0  0
 41111  1  0  0  0
 41112  1  0  0  0
 41 48  1  0  0  0
 42 43  1  0  0  0
 42 66  1  0  0  0
 42113  1  0  0  0
 42114  1  0  0  0
 43 44  1  0  0  0
 44115  1  0  0  0
 45 46  2  0  0  0
 45116  1  0  0  0
 46117  1  0  0  0
 47118  1  0  0  0
 47119  1  0  0  0
 48 56  1  0  0  0
 48 65  1  0  0  0
 48120  1  0  0  0
 49 50  1  0  0  0
 49 53  1  0  0  0
 49 64  1  0  0  0
 49121  1  0  0  0
 50 51  1  0  0  0
 50122  1  0  0  0
 50123  1  0  0  0
 51 52  1  0  0  0
 51124  1  0  0  0
 51125  1  0  0  0
 52126  1  0  0  0
 52127  1  0  0  0
 53 54  1  0  0  0
 54 55  2  0  0  0
 54128  1  0  0  0
 55 57  1  0  0  0
 55129  1  0  0  0
 56 69  2  0  0  0
 57 58  2  0  0  0
 57130  1  0  0  0
 58131  1  0  0  0
 59 60  1  0  0  0
 59 61  1  0  0  0
 59 62  1  0  0  0
 60132  1  0  0  0
 60133  1  0  0  0
 60134  1  0  0  0
 61135  1  0  0  0
 61136  1  0  0  0
 61137  1  0  0  0
 62138  1  0  0  0
 62139  1  0  0  0
 62140  1  0  0  0
 63 65  1  0  0  0
 63141  1  0  0  0
 63142  1  0  0  0
 63143  1  0  0  0
 64144  1  0  0  0
 65145  1  0  0  0
 68 81  1  0  0  0
 71 74  2  0  0  0
 71 75  1  0  0  0
 71146  1  0  0  0
 72 74  1  0  0  0
 72 76  2  0  0  0
 72147  1  0  0  0
 73 75  2  0  0  0
 73 76  1  0  0  0
 73148  1  0  0  0
 74 82  1  0  0  0
 75 83  1  0  0  0
 76 84  1  0  0  0
 77149  1  0  0  0
 77150  1  0  0  0
 77151  1  0  0  0
 77 82  1  0  0  0
 78 82  1  0  0  0
 78152  1  0  0  0
 78153  1  0  0  0
 78154  1  0  0  0
 79155  1  0  0  0
 79156  1  0  0  0
 79157  1  0  0  0
 79 83  1  0  0  0
 80 86  1  0  0  0
 80158  1  0  0  0
 80159  1  0  0  0
 80 84  1  0  0  0
 81 83  1  0  0  0
 81160  1  0  0  0
 81161  1  0  0  0
 82162  1  0  0  0
 83163  1  0  0  0
 84 85  1  0  0  0
 84164  1  0  0  0
 85165  1  0  0  0
 86166  1  0  0  0
 86167  1  0  0  0
 86168  1  0  0  0
M  CHG  1  86   1
M  ISO  4   1 100  68 101  81 101  85 100
M  END
> <chiral flag>
0

> <version>
0

> <s_m_source_file>
/data/baiqing/PycharmProjects/Reinvent-master-3.2/result/LINK_invent/BTK/process_docking_weight1_custom_sum_contain_oxygen_bond_distance_aromatic_linkinvent_7_9_3/rearranged_h_0100.sdf

> <i_m_source_file_index>
39

> <r_mmod_Potential_Energy-OPLS-2005>
599.911376953125

> <r_mmod_Stretch_Energy-OPLS-2005>
325.356018066406

> <r_mmod_Bend_Energy-OPLS-2005>
574.273803710938

> <r_mmod_Torsional_Energy-OPLS-2005>
259.293853759766

> <r_mmod_Improper_Torsional_Energy-OPLS-2005>
8.45465183258057

> <r_mmod_Van_der_Waal_Energy-OPLS-2005>
158.254409790039

> <r_mmod_Electrostatic_Energy-OPLS-2005>
-430.426666259766

> <r_mmod_Solvation_Energy-OPLS-2005>
-501.261169433594

> <b_mmod_Minimization_Converged-OPLS-2005>
0

> <r_mmod_RMS_Derivative-OPLS-2005>
2.21738600730896

$$$$
39
                    3D
 Structure written by MMmdl.
167175  0  0  1  0            999 V2000
  -30.6651  -14.6666   20.5466 C   0  0  0  0  0  0
  -30.4311  -12.4259   19.4632 C   0  0  0  0  0  0
  -29.5078  -12.5270   18.2296 C   0  0  0  0  0  0
  -28.0307  -12.3611   18.6352 C   0  0  0  0  0  0
  -27.6522  -13.2276   19.8661 C   0  0  2  0  0  0
  -28.6942  -13.0855   20.9937 C   0  0  0  0  0  0
  -25.2549  -13.8194   20.5701 C   0  0  0  0  0  0
  -24.1821  -13.0440   20.9176 C   0  0  0  0  0  0
  -24.6408  -11.6918   20.8731 C   0  0  0  0  0  0
  -23.9083  -10.4295   21.0392 C   0  0  0  0  0  0
  -24.3634   -9.4212   21.9171 C   0  0  0  0  0  0
  -23.6309   -8.2246   22.0749 C   0  0  0  0  0  0
  -22.4289   -8.0284   21.3544 C   0  0  0  0  0  0
  -21.9917   -9.0257   20.4646 C   0  0  0  0  0  0
  -22.7251  -10.2138   20.3047 C   0  0  0  0  0  0
  -21.6858   -6.0740   22.5288 C   0  0  0  0  0  0
  -21.4014   -6.5641   23.8223 C   0  0  0  0  0  0
  -21.3661   -5.6791   24.9183 C   0  0  0  0  0  0
  -21.6044   -4.3055   24.7225 C   0  0  0  0  0  0
  -21.8820   -3.8150   23.4347 C   0  0  0  0  0  0
  -21.9192   -4.6968   22.3406 C   0  0  0  0  0  0
  -22.7842  -13.5225   21.1848 C   0  0  0  0  0  0
  -22.1658   -4.2158   21.0980 F   0  0  0  0  0  0
  -21.5633   -3.4531   25.7732 F   0  0  0  0  0  0
  -30.0047  -13.4587   20.4383 N   0  0  0  0  0  0
  -26.2992  -12.9400   20.3342 N   0  0  0  0  0  0
  -25.9343  -11.6538   20.5757 N   0  0  0  0  0  0
  -22.0487  -12.8224   22.0412 N   0  0  0  0  0  0
  -25.4244  -15.1921   20.4174 N   0  0  0  0  0  0
  -31.7902  -14.7870   20.0506 O   0  0  0  0  0  0
  -21.6648   -6.8883   21.4249 O   0  0  0  0  0  0
  -22.3516  -14.5526   20.6697 O   0  0  0  0  0  0
  -24.6285  -31.8581   23.2023 C   0  0  0  0  0  0
  -25.9130  -32.4764   23.8348 C   0  0  1  0  0  0
  -27.2144  -27.2848   20.1174 C   0  0  0  0  0  0
  -25.5940  -33.8567   24.2271 N   0  0  0  0  0  0
  -23.4230  -30.4834   21.5457 C   0  0  2  0  0  0
  -24.8682  -28.9386   20.1090 C   0  0  0  0  0  0
  -22.7482  -29.4617   22.4926 C   0  0  0  0  0  0
  -18.0287  -28.1376   22.8482 C   0  0  0  0  0  0
  -24.1489  -36.7279   23.2640 C   0  0  0  0  0  0
  -25.9687  -30.7767   21.3806 C   0  0  0  0  0  0
  -26.0398  -29.4031   20.7196 C   0  0  0  0  0  0
  -27.2145  -28.5868   20.7177 C   0  0  0  0  0  0
  -26.0224  -26.8970   19.4594 C   0  0  0  0  0  0
  -24.8628  -27.6915   19.4712 C   0  0  0  0  0  0
  -23.6382  -29.8218   20.1602 C   0  0  0  0  0  0
  -25.4116  -36.3072   24.0328 C   0  0  1  0  0  0
  -20.5889  -28.3685   23.1269 C   0  0  2  0  0  0
  -20.6776  -26.9406   22.5405 C   0  0  0  0  0  0
  -19.5757  -26.6374   21.5206 C   0  0  0  0  0  0
  -18.1936  -26.7921   22.1616 C   0  0  0  0  0  0
  -19.1542  -28.8851   23.2871 C   0  0  0  0  0  0
  -18.9467  -30.1448   23.8889 C   0  0  0  0  0  0
  -17.6470  -30.6584   24.0557 C   0  0  0  0  0  0
  -25.9056  -34.9444   23.5101 C   0  0  0  0  0  0
  -16.5356  -29.9080   23.6330 C   0  0  0  0  0  0
  -16.7275  -28.6491   23.0362 C   0  0  0  0  0  0
  -26.4508  -31.6585   25.0729 C   0  0  0  0  0  0
  -25.3733  -31.3746   26.1452 C   0  0  0  0  0  0
  -27.0356  -30.3000   24.6215 C   0  0  0  0  0  0
  -27.6055  -32.4333   25.7500 C   0  0  0  0  0  0
  -27.5580  -37.1791   24.8463 C   0  0  0  0  0  0
  -21.4196  -29.3039   22.3663 N   0  0  0  0  0  0
  -26.4288  -37.3772   23.9414 N   0  0  0  0  0  0
  -24.6924  -31.0565   22.0987 N   0  0  0  0  0  0
  -23.4196  -28.8158   23.3017 O   0  0  0  0  0  0
  -28.3084  -26.3934   20.1991 O   0  0  0  0  0  0
  -26.5626  -34.8916   22.4666 O   0  0  0  0  0  0
  -23.5444  -32.1401   23.7327 O   0  0  0  0  0  0
  -27.3982  -19.2453   21.5933 C   0  0  0  0  0  0
  -27.5756  -20.5663   21.1352 C   0  0  0  0  0  0
  -28.7460  -20.9062   20.4074 C   0  0  0  0  0  0
  -29.6747  -19.8054   20.2040 C   0  0  0  0  0  0
  -29.3880  -18.4621   20.6810 C   0  0  0  0  0  0
  -30.9593  -20.0634   19.4262 C   0  0  0  0  0  0
  -24.1860  -22.4465   20.5980 C   0  0  0  0  0  0
  -29.6708  -15.8240   22.4361 C   0  0  0  0  0  0
  -26.4401  -21.5491   21.3975 C   0  0  0  0  0  0
  -28.8411  -22.3268   19.6906 C   0  0  0  0  0  0
  -30.2933  -17.1781   20.4230 C   0  0  0  0  0  0
  -25.3350  -21.4669   20.3322 C   0  0  0  0  0  0
  -28.9821  -23.7445   20.4443 C   0  0  0  0  0  0
  -28.0942  -24.9510   19.8620 C   0  0  0  0  0  0
  -28.2497  -18.2306   21.3579 N   0  0  0  0  0  0
  -29.9953  -15.7928   21.0017 N   0  0  0  0  0  0
  -31.4720  -12.5404   19.1565 H   0  0  0  0  0  0
  -30.3681  -11.4309   19.9074 H   0  0  0  0  0  0
  -29.7799  -11.7721   17.4913 H   0  0  0  0  0  0
  -29.6499  -13.4938   17.7437 H   0  0  0  0  0  0
  -27.8654  -11.3068   18.8593 H   0  0  0  0  0  0
  -27.3792  -12.5981   17.7928 H   0  0  0  0  0  0
  -27.6709  -14.2668   19.5369 H   0  0  0  0  0  0
  -28.7206  -12.0587   21.3615 H   0  0  0  0  0  0
  -28.4069  -13.6882   21.8506 H   0  0  0  0  0  0
  -25.2780   -9.5685   22.4744 H   0  0  0  0  0  0
  -24.0023   -7.4631   22.7463 H   0  0  0  0  0  0
  -21.0847   -8.8778   19.8954 H   0  0  0  0  0  0
  -22.3705  -10.9675   19.6160 H   0  0  0  0  0  0
  -21.2003   -7.6147   23.9732 H   0  0  0  0  0  0
  -21.1482   -6.0514   25.9088 H   0  0  0  0  0  0
  -22.0595   -2.7610   23.2845 H   0  0  0  0  0  0
  -22.4103  -11.9900   22.4824 H   0  0  0  0  0  0
  -21.1097  -13.1245   22.2596 H   0  0  0  0  0  0
  -24.6629  -15.8487   20.5500 H   0  0  0  0  0  0
  -26.2999  -15.6438   20.1822 H   0  0  0  0  0  0
  -26.7188  -32.5418   23.1082 H   0  0  0  0  0  0
  -25.0083  -33.9710   25.0413 H   0  0  0  0  0  0
  -22.7179  -31.3052   21.4030 H   0  0  0  0  0  0
  -23.3758  -35.9604   23.3297 H   0  0  0  0  0  0
  -24.3578  -36.8905   22.2054 H   0  0  0  0  0  0
  -23.7232  -37.6476   23.6664 H   0  0  0  0  0  0
  -26.1089  -31.5409   20.6148 H   0  0  0  0  0  0
  -26.8458  -30.8204   22.0146 H   0  0  0  0  0  0
  -28.1085  -28.9346   21.2163 H   0  0  0  0  0  0
  -25.9431  -25.9573   18.9351 H   0  0  0  0  0  0
  -23.9668  -27.3322   18.9840 H   0  0  0  0  0  0
  -23.7593  -30.6001   19.4058 H   0  0  0  0  0  0
  -22.7568  -29.2541   19.8560 H   0  0  0  0  0  0
  -25.1296  -36.1919   25.0821 H   0  0  0  0  0  0
  -20.9978  -28.3262   24.1392 H   0  0  0  0  0  0
  -20.5667  -26.2299   23.3609 H   0  0  0  0  0  0
  -21.6648  -26.7428   22.1209 H   0  0  0  0  0  0
  -19.6925  -25.6283   21.1245 H   0  0  0  0  0  0
  -19.6702  -27.3176   20.6733 H   0  0  0  0  0  0
  -17.4207  -26.6661   21.4019 H   0  0  0  0  0  0
  -18.0342  -26.0057   22.9009 H   0  0  0  0  0  0
  -19.7947  -30.7261   24.2257 H   0  0  0  0  0  0
  -17.5029  -31.6267   24.5153 H   0  0  0  0  0  0
  -15.5359  -30.2987   23.7661 H   0  0  0  0  0  0
  -15.8668  -28.0806   22.7098 H   0  0  0  0  0  0
  -24.5896  -30.7108   25.7789 H   0  0  0  0  0  0
  -24.8942  -32.2926   26.4866 H   0  0  0  0  0  0
  -25.8047  -30.8930   27.0234 H   0  0  0  0  0  0
  -26.2947  -29.6743   24.1223 H   0  0  0  0  0  0
  -27.4024  -29.7265   25.4738 H   0  0  0  0  0  0
  -27.8831  -30.4275   23.9474 H   0  0  0  0  0  0
  -27.2650  -33.3629   26.2074 H   0  0  0  0  0  0
  -28.3866  -32.6903   25.0333 H   0  0  0  0  0  0
  -28.0725  -31.8467   26.5422 H   0  0  0  0  0  0
  -28.2589  -38.0098   24.7523 H   0  0  0  0  0  0
  -28.1086  -36.2629   24.6270 H   0  0  0  0  0  0
  -27.2301  -37.1414   25.8866 H   0  0  0  0  0  0
  -20.9376  -29.8759   21.6870 H   0  0  0  0  0  0
  -26.0167  -38.2843   24.1431 H   0  0  0  0  0  0
  -26.5023  -18.9755   22.1333 H   0  0  0  0  0  0
  -30.7571  -20.0877   18.3545 H   0  0  0  0  0  0
  -31.7207  -19.3060   19.6035 H   0  0  0  0  0  0
  -31.4011  -21.0174   19.7150 H   0  0  0  0  0  0
  -23.4230  -22.3671   19.8230 H   0  0  0  0  0  0
  -24.5389  -23.4781   20.6115 H   0  0  0  0  0  0
  -23.7063  -22.2436   21.5562 H   0  0  0  0  0  0
  -30.0730  -14.9701   22.9853 H   0  0  0  0  0  0
  -28.5905  -15.8315   22.5809 H   0  0  0  0  0  0
  -30.0757  -16.7163   22.9154 H   0  0  0  0  0  0
  -26.8091  -22.5672   21.4761 H   0  0  0  0  0  0
  -26.0127  -21.3281   22.3776 H   0  0  0  0  0  0
  -27.9292  -22.3895   19.0972 H   0  0  0  0  0  0
  -29.6151  -22.2865   18.9261 H   0  0  0  0  0  0
  -31.3059  -17.4272   20.7415 H   0  0  0  0  0  0
  -30.3486  -17.0638   19.3387 H   0  0  0  0  0  0
  -25.7508  -21.6677   19.3443 H   0  0  0  0  0  0
  -24.9340  -20.4528   20.2926 H   0  0  0  0  0  0
  -30.0330  -24.0314   20.4172 H   0  0  0  0  0  0
  -28.7568  -23.6259   21.5028 H   0  0  0  0  0  0
  -27.0829  -24.6702   20.1547 H   0  0  0  0  0  0
  -28.1222  -24.8900   18.7731 H   0  0  0  0  0  0
  1 25  1  0  0  0
  1 30  2  0  0  0
  1 86  1  0  0  0
  2  3  1  0  0  0
  2 25  1  0  0  0
  2 87  1  0  0  0
  2 88  1  0  0  0
  3  4  1  0  0  0
  3 89  1  0  0  0
  3 90  1  0  0  0
  4  5  1  0  0  0
  4 91  1  0  0  0
  4 92  1  0  0  0
  5  6  1  0  0  0
  5 26  1  0  0  0
  5 93  1  0  0  0
  6 25  1  0  0  0
  6 94  1  0  0  0
  6 95  1  0  0  0
  7  8  2  0  0  0
  7 26  1  0  0  0
  7 29  1  0  0  0
  8  9  1  0  0  0
  8 22  1  0  0  0
  9 10  1  0  0  0
  9 27  2  0  0  0
 10 11  2  0  0  0
 10 15  1  0  0  0
 11 12  1  0  0  0
 11 96  1  0  0  0
 12 13  2  0  0  0
 12 97  1  0  0  0
 13 14  1  0  0  0
 13 31  1  0  0  0
 14 15  2  0  0  0
 14 98  1  0  0  0
 15 99  1  0  0  0
 16 17  2  0  0  0
 16 21  1  0  0  0
 16 31  1  0  0  0
 17 18  1  0  0  0
 17100  1  0  0  0
 18 19  2  0  0  0
 18101  1  0  0  0
 19 20  1  0  0  0
 19 24  1  0  0  0
 20 21  2  0  0  0
 20102  1  0  0  0
 21 23  1  0  0  0
 22 28  1  0  0  0
 22 32  2  0  0  0
 26 27  1  0  0  0
 28103  1  0  0  0
 28104  1  0  0  0
 29105  1  0  0  0
 29106  1  0  0  0
 33 34  1  0  0  0
 33 66  1  0  0  0
 33 70  2  0  0  0
 34 36  1  0  0  0
 34 59  1  0  0  0
 34107  1  0  0  0
 35 44  2  0  0  0
 35 45  1  0  0  0
 35 68  1  0  0  0
 36 56  1  0  0  0
 36108  1  0  0  0
 37 39  1  0  0  0
 37 47  1  0  0  0
 37 66  1  0  0  0
 37109  1  0  0  0
 38 43  2  0  0  0
 38 46  1  0  0  0
 38 47  1  0  0  0
 39 64  1  0  0  0
 39 67  2  0  0  0
 40 52  1  0  0  0
 40 53  2  0  0  0
 40 58  1  0  0  0
 41110  1  0  0  0
 41111  1  0  0  0
 41112  1  0  0  0
 41 48  1  0  0  0
 42 43  1  0  0  0
 42 66  1  0  0  0
 42113  1  0  0  0
 42114  1  0  0  0
 43 44  1  0  0  0
 44115  1  0  0  0
 45 46  2  0  0  0
 45116  1  0  0  0
 46117  1  0  0  0
 47118  1  0  0  0
 47119  1  0  0  0
 48 56  1  0  0  0
 48 65  1  0  0  0
 48120  1  0  0  0
 49 50  1  0  0  0
 49 53  1  0  0  0
 49 64  1  0  0  0
 49121  1  0  0  0
 50 51  1  0  0  0
 50122  1  0  0  0
 50123  1  0  0  0
 51 52  1  0  0  0
 51124  1  0  0  0
 51125  1  0  0  0
 52126  1  0  0  0
 52127  1  0  0  0
 53 54  1  0  0  0
 54 55  2  0  0  0
 54128  1  0  0  0
 55 57  1  0  0  0
 55129  1  0  0  0
 56 69  2  0  0  0
 57 58  2  0  0  0
 57130  1  0  0  0
 58131  1  0  0  0
 59 60  1  0  0  0
 59 61  1  0  0  0
 59 62  1  0  0  0
 60132  1  0  0  0
 60133  1  0  0  0
 60134  1  0  0  0
 61135  1  0  0  0
 61136  1  0  0  0
 61137  1  0  0  0
 62138  1  0  0  0
 62139  1  0  0  0
 62140  1  0  0  0
 63 65  1  0  0  0
 63141  1  0  0  0
 63142  1  0  0  0
 63143  1  0  0  0
 64144  1  0  0  0
 65145  1  0  0  0
 68 84  1  0  0  0
 71 72  2  0  0  0
 71 85  1  0  0  0
 71146  1  0  0  0
 72 73  1  0  0  0
 72 79  1  0  0  0
 73 74  2  0  0  0
 73 80  1  0  0  0
 74 75  1  0  0  0
 74 76  1  0  0  0
 75 81  1  0  0  0
 75 85  2  0  0  0
 76147  1  0  0  0
 76148  1  0  0  0
 76149  1  0  0  0
 77 82  1  0  0  0
 77150  1  0  0  0
 77151  1  0  0  0
 77152  1  0  0  0
 78 86  1  0  0  0
 78153  1  0  0  0
 78154  1  0  0  0
 78155  1  0  0  0
 79 82  1  0  0  0
 79156  1  0  0  0
 79157  1  0  0  0
 80 83  1  0  0  0
 80158  1  0  0  0
 80159  1  0  0  0
 81 86  1  0  0  0
 81160  1  0  0  0
 81161  1  0  0  0
 82162  1  0  0  0
 82163  1  0  0  0
 83 84  1  0  0  0
 83164  1  0  0  0
 83165  1  0  0  0
 84166  1  0  0  0
 84167  1  0  0  0
M  ISO  4   1 100  68 101  84 101  86 100
M  END
> <chiral flag>
0

> <version>
0

> <s_m_source_file>
/data/baiqing/PycharmProjects/Reinvent-master-3.2/result/LINK_invent/BTK/process_docking_weight1_custom_sum_contain_oxygen_bond_distance_aromatic_linkinvent_7_9_3/rearranged_h_0100.sdf

> <i_m_source_file_index>
40

> <r_mmod_Potential_Energy-OPLS-2005>
42.0630302429199

> <r_mmod_Stretch_Energy-OPLS-2005>
114.345329284668

> <r_mmod_Bend_Energy-OPLS-2005>
172.048309326172

> <r_mmod_Torsional_Energy-OPLS-2005>
262.444519042969

> <r_mmod_Improper_Torsional_Energy-OPLS-2005>
8.98713493347168

> <r_mmod_Van_der_Waal_Energy-OPLS-2005>
154.403961181641

> <r_mmod_Electrostatic_Energy-OPLS-2005>
-530.965148925781

> <r_mmod_Solvation_Energy-OPLS-2005>
-200.095794677734

> <b_mmod_Minimization_Converged-OPLS-2005>
0

> <r_mmod_RMS_Derivative-OPLS-2005>
1.21231114864349

$$$$
40
                    3D
 Structure written by MMmdl.
179186  0  0  1  0            999 V2000
  -30.5604  -14.8998   20.4272 C   0  0  0  0  0  0
  -30.4518  -12.5529   19.4944 C   0  0  0  0  0  0
  -29.5302  -12.4950   18.2546 C   0  0  0  0  0  0
  -28.0560  -12.3096   18.6673 C   0  0  0  0  0  0
  -27.6351  -13.2383   19.8357 C   0  0  2  0  0  0
  -28.6798  -13.2520   20.9696 C   0  0  0  0  0  0
  -25.2526  -13.8228   20.5739 C   0  0  0  0  0  0
  -24.1812  -13.0447   20.9213 C   0  0  0  0  0  0
  -24.6412  -11.6923   20.8728 C   0  0  0  0  0  0
  -23.9084  -10.4285   21.0394 C   0  0  0  0  0  0
  -24.3639   -9.4208   21.9191 C   0  0  0  0  0  0
  -23.6293   -8.2240   22.0758 C   0  0  0  0  0  0
  -22.4275   -8.0287   21.3555 C   0  0  0  0  0  0
  -21.9900   -9.0254   20.4657 C   0  0  0  0  0  0
  -22.7236  -10.2130   20.3056 C   0  0  0  0  0  0
  -21.6867   -6.0725   22.5260 C   0  0  0  0  0  0
  -21.4027   -6.5629   23.8199 C   0  0  0  0  0  0
  -21.3637   -5.6792   24.9156 C   0  0  0  0  0  0
  -21.6030   -4.3050   24.7211 C   0  0  0  0  0  0
  -21.8825   -3.8150   23.4329 C   0  0  0  0  0  0
  -21.9207   -4.6956   22.3389 C   0  0  0  0  0  0
  -22.7816  -13.5218   21.1838 C   0  0  0  0  0  0
  -22.1705   -4.2149   21.0968 F   0  0  0  0  0  0
  -21.5626   -3.4538   25.7722 F   0  0  0  0  0  0
  -29.9619  -13.6468   20.3734 N   0  0  0  0  0  0
  -26.2934  -12.9421   20.3259 N   0  0  0  0  0  0
  -25.9347  -11.6557   20.5737 N   0  0  0  0  0  0
  -22.0425  -12.8214   22.0389 N   0  0  0  0  0  0
  -25.4284  -15.1952   20.4240 N   0  0  0  0  0  0
  -31.7637  -14.9792   20.1711 O   0  0  0  0  0  0
  -21.6659   -6.8857   21.4233 O   0  0  0  0  0  0
  -22.3507  -14.5514   20.6661 O   0  0  0  0  0  0
  -24.6428  -31.8450   23.1896 C   0  0  0  0  0  0
  -25.9215  -32.4689   23.8268 C   0  0  1  0  0  0
  -27.2173  -27.1458   20.1523 C   0  0  0  0  0  0
  -25.5967  -33.8493   24.2189 N   0  0  0  0  0  0
  -23.4455  -30.4620   21.5383 C   0  0  2  0  0  0
  -24.8921  -28.8838   20.1166 C   0  0  0  0  0  0
  -22.7554  -29.4555   22.4919 C   0  0  0  0  0  0
  -18.0284  -28.1395   22.8505 C   0  0  0  0  0  0
  -24.1484  -36.7226   23.2640 C   0  0  0  0  0  0
  -25.9997  -30.7196   21.3856 C   0  0  0  0  0  0
  -26.0697  -29.3289   20.7324 C   0  0  0  0  0  0
  -27.2355  -28.4763   20.7310 C   0  0  0  0  0  0
  -26.0181  -26.7994   19.4958 C   0  0  0  0  0  0
  -24.8777  -27.6305   19.4846 C   0  0  0  0  0  0
  -23.6698  -29.7880   20.1586 C   0  0  0  0  0  0
  -25.4114  -36.3012   24.0309 C   0  0  1  0  0  0
  -20.5900  -28.3724   23.1262 C   0  0  2  0  0  0
  -20.6766  -26.9444   22.5408 C   0  0  0  0  0  0
  -19.5739  -26.6393   21.5225 C   0  0  0  0  0  0
  -18.1921  -26.7928   22.1648 C   0  0  0  0  0  0
  -19.1547  -28.8876   23.2871 C   0  0  0  0  0  0
  -18.9477  -30.1459   23.8905 C   0  0  0  0  0  0
  -17.6488  -30.6609   24.0557 C   0  0  0  0  0  0
  -25.9076  -34.9402   23.5053 C   0  0  0  0  0  0
  -16.5363  -29.9109   23.6337 C   0  0  0  0  0  0
  -16.7266  -28.6512   23.0385 C   0  0  0  0  0  0
  -26.4545  -31.6541   25.0704 C   0  0  0  0  0  0
  -25.3746  -31.3757   26.1420 C   0  0  0  0  0  0
  -27.0397  -30.2929   24.6256 C   0  0  0  0  0  0
  -27.6057  -32.4317   25.7487 C   0  0  0  0  0  0
  -27.5559  -37.1766   24.8469 C   0  0  0  0  0  0
  -21.4253  -29.3033   22.3633 N   0  0  0  0  0  0
  -26.4262  -37.3731   23.9428 N   0  0  0  0  0  0
  -24.7153  -31.0303   22.0929 N   0  0  0  0  0  0
  -23.4189  -28.8115   23.3085 O   0  0  0  0  0  0
  -28.2866  -26.1828   20.1710 O   0  0  0  0  0  0
  -26.5681  -34.8897   22.4643 O   0  0  0  0  0  0
  -23.5552  -32.1333   23.7129 O   0  0  0  0  0  0
  -28.9773  -23.5578   18.3183 C   0  0  0  0  0  0
  -30.6214  -16.9256   16.1830 C   0  0  0  0  0  0
  -28.5291  -16.2764   17.4612 C   0  0  0  0  0  0
  -26.0770  -19.0180   17.8086 C   0  0  0  0  0  0
  -27.5742  -19.5713   15.8477 C   0  0  0  0  0  0
  -26.0860  -21.2809   16.8306 C   0  0  0  0  0  0
  -28.7708  -21.7271   20.3031 C   0  0  0  0  0  0
  -28.1313  -20.7623   18.1213 C   0  0  0  0  0  0
  -30.0288  -17.6294   20.5077 C   0  0  0  0  0  0
  -28.0450  -24.6664   20.4363 C   0  0  0  0  0  0
  -28.9430  -23.3706   19.8447 C   0  0  1  0  0  0
  -29.1344  -20.4070   19.3019 C   0  0  2  0  0  0
  -29.9093  -16.9498   17.5473 C   0  0  0  0  0  0
  -29.2761  -18.6741   19.4327 C   0  0  1  0  0  0
  -27.0137  -20.1051   17.1929 C   0  0  0  0  0  0
  -29.7619  -16.0661   20.5263 N   0  0  0  0  0  0
  -29.8566  -18.3341   18.0902 N   0  3  0  0  0  0
  -31.4833  -12.7181   19.1781 H   0  0  0  0  0  0
  -30.4543  -11.6006   20.0283 H   0  0  0  0  0  0
  -29.8327  -11.6828   17.5921 H   0  0  0  0  0  0
  -29.6488  -13.4068   17.6737 H   0  0  0  0  0  0
  -27.9363  -11.2691   18.9703 H   0  0  0  0  0  0
  -27.4010  -12.4533   17.8079 H   0  0  0  0  0  0
  -27.5955  -14.2382   19.4104 H   0  0  0  0  0  0
  -28.7563  -12.2724   21.4450 H   0  0  0  0  0  0
  -28.3853  -13.9545   21.7503 H   0  0  0  0  0  0
  -25.2783   -9.5678   22.4759 H   0  0  0  0  0  0
  -24.0001   -7.4623   22.7462 H   0  0  0  0  0  0
  -21.0827   -8.8765   19.8952 H   0  0  0  0  0  0
  -22.3697  -10.9668   19.6148 H   0  0  0  0  0  0
  -21.2052   -7.6147   23.9712 H   0  0  0  0  0  0
  -21.1458   -6.0514   25.9059 H   0  0  0  0  0  0
  -22.0627   -2.7608   23.2832 H   0  0  0  0  0  0
  -22.4059  -11.9936   22.4869 H   0  0  0  0  0  0
  -21.1050  -13.1253   22.2614 H   0  0  0  0  0  0
  -24.6741  -15.8582   20.5704 H   0  0  0  0  0  0
  -26.2891  -15.6339   20.1293 H   0  0  0  0  0  0
  -26.7279  -32.5304   23.0997 H   0  0  0  0  0  0
  -25.0050  -33.9598   25.0290 H   0  0  0  0  0  0
  -22.7491  -31.2894   21.3857 H   0  0  0  0  0  0
  -23.3754  -35.9550   23.3272 H   0  0  0  0  0  0
  -24.3566  -36.8888   22.2060 H   0  0  0  0  0  0
  -23.7235  -37.6407   23.6692 H   0  0  0  0  0  0
  -26.1541  -31.4733   20.6124 H   0  0  0  0  0  0
  -26.8732  -30.7713   22.0245 H   0  0  0  0  0  0
  -28.1373  -28.8136   21.2223 H   0  0  0  0  0  0
  -25.9493  -25.8488   18.9891 H   0  0  0  0  0  0
  -23.9808  -27.2864   18.9872 H   0  0  0  0  0  0
  -23.8040  -30.5642   19.4040 H   0  0  0  0  0  0
  -22.7850  -29.2289   19.8481 H   0  0  0  0  0  0
  -25.1306  -36.1803   25.0795 H   0  0  0  0  0  0
  -20.9988  -28.3285   24.1389 H   0  0  0  0  0  0
  -20.5662  -26.2355   23.3621 H   0  0  0  0  0  0
  -21.6638  -26.7432   22.1228 H   0  0  0  0  0  0
  -19.6914  -25.6310   21.1256 H   0  0  0  0  0  0
  -19.6659  -27.3195   20.6749 H   0  0  0  0  0  0
  -17.4189  -26.6675   21.4042 H   0  0  0  0  0  0
  -18.0320  -26.0060   22.9043 H   0  0  0  0  0  0
  -19.7943  -30.7264   24.2297 H   0  0  0  0  0  0
  -17.5034  -31.6297   24.5148 H   0  0  0  0  0  0
  -15.5364  -30.3034   23.7646 H   0  0  0  0  0  0
  -15.8648  -28.0809   22.7152 H   0  0  0  0  0  0
  -24.5876  -30.7148   25.7764 H   0  0  0  0  0  0
  -24.9016  -32.2974   26.4813 H   0  0  0  0  0  0
  -25.8052  -30.8940   27.0212 H   0  0  0  0  0  0
  -26.3011  -29.6680   24.1222 H   0  0  0  0  0  0
  -27.3981  -29.7170   25.4802 H   0  0  0  0  0  0
  -27.8928  -30.4167   23.9580 H   0  0  0  0  0  0
  -27.2598  -33.3607   26.2025 H   0  0  0  0  0  0
  -28.3879  -32.6902   25.0339 H   0  0  0  0  0  0
  -28.0706  -31.8491   26.5450 H   0  0  0  0  0  0
  -28.2570  -38.0073   24.7521 H   0  0  0  0  0  0
  -28.1065  -36.2601   24.6276 H   0  0  0  0  0  0
  -27.2295  -37.1395   25.8882 H   0  0  0  0  0  0
  -20.9480  -29.8706   21.6771 H   0  0  0  0  0  0
  -26.0108  -38.2778   24.1479 H   0  0  0  0  0  0
  -29.7078  -22.8977   17.8501 H   0  0  0  0  0  0
  -29.2661  -24.5738   18.0473 H   0  0  0  0  0  0
  -27.9966  -23.3855   17.8736 H   0  0  0  0  0  0
  -30.6652  -15.9086   15.7918 H   0  0  0  0  0  0
  -31.6526  -17.2720   16.2718 H   0  0  0  0  0  0
  -30.1203  -17.5392   15.4352 H   0  0  0  0  0  0
  -28.6215  -15.2485   17.1213 H   0  0  0  0  0  0
  -27.8683  -16.7716   16.7544 H   0  0  0  0  0  0
  -28.0287  -16.2556   18.4254 H   0  0  0  0  0  0
  -25.3131  -18.7028   17.0949 H   0  0  0  0  0  0
  -25.5438  -19.3916   18.6859 H   0  0  0  0  0  0
  -26.5939  -18.1112   18.1027 H   0  0  0  0  0  0
  -26.7765  -19.1937   15.2051 H   0  0  0  0  0  0
  -28.2768  -18.7575   15.9769 H   0  0  0  0  0  0
  -28.0884  -20.3512   15.2833 H   0  0  0  0  0  0
  -25.2911  -20.9784   16.1450 H   0  0  0  0  0  0
  -26.6413  -22.0870   16.3483 H   0  0  0  0  0  0
  -25.6140  -21.7057   17.7180 H   0  0  0  0  0  0
  -27.7374  -21.6090   20.6320 H   0  0  0  0  0  0
  -29.3479  -21.5995   21.2204 H   0  0  0  0  0  0
  -27.5434  -20.2789   18.8897 H   0  0  0  0  0  0
  -28.9223  -20.4528   17.4512 H   0  0  0  0  0  0
  -29.7714  -17.9800   21.5075 H   0  0  0  0  0  0
  -31.1086  -17.7711   20.4355 H   0  0  0  0  0  0
  -27.0014  -24.4338   20.2356 H   0  0  0  0  0  0
  -28.1102  -24.5863   21.5208 H   0  0  0  0  0  0
  -29.9626  -23.6020   20.1561 H   0  0  0  0  0  0
  -30.1498  -20.6923   19.0146 H   0  0  0  0  0  0
  -30.5603  -16.3610   18.1796 H   0  0  0  0  0  0
  -28.2516  -18.3178   19.4810 H   0  0  0  0  0  0
  -28.7979  -15.8395   20.7121 H   0  0  0  0  0  0
  -29.3539  -18.8999   17.4219 H   0  0  0  0  0  0
  -30.8080  -18.6723   18.0924 H   0  0  0  0  0  0
  1 25  1  0  0  0
  1 30  2  0  0  0
  1 86  1  0  0  0
  2  3  1  0  0  0
  2 25  1  0  0  0
  2 88  1  0  0  0
  2 89  1  0  0  0
  3  4  1  0  0  0
  3 90  1  0  0  0
  3 91  1  0  0  0
  4  5  1  0  0  0
  4 92  1  0  0  0
  4 93  1  0  0  0
  5  6  1  0  0  0
  5 26  1  0  0  0
  5 94  1  0  0  0
  6 25  1  0  0  0
  6 95  1  0  0  0
  6 96  1  0  0  0
  7  8  2  0  0  0
  7 26  1  0  0  0
  7 29  1  0  0  0
  8  9  1  0  0  0
  8 22  1  0  0  0
  9 10  1  0  0  0
  9 27  2  0  0  0
 10 11  2  0  0  0
 10 15  1  0  0  0
 11 12  1  0  0  0
 11 97  1  0  0  0
 12 13  2  0  0  0
 12 98  1  0  0  0
 13 14  1  0  0  0
 13 31  1  0  0  0
 14 15  2  0  0  0
 14 99  1  0  0  0
 15100  1  0  0  0
 16 17  2  0  0  0
 16 21  1  0  0  0
 16 31  1  0  0  0
 17 18  1  0  0  0
 17101  1  0  0  0
 18 19  2  0  0  0
 18102  1  0  0  0
 19 20  1  0  0  0
 19 24  1  0  0  0
 20 21  2  0  0  0
 20103  1  0  0  0
 21 23  1  0  0  0
 22 28  1  0  0  0
 22 32  2  0  0  0
 26 27  1  0  0  0
 28104  1  0  0  0
 28105  1  0  0  0
 29106  1  0  0  0
 29107  1  0  0  0
 33 34  1  0  0  0
 33 66  1  0  0  0
 33 70  2  0  0  0
 34 36  1  0  0  0
 34 59  1  0  0  0
 34108  1  0  0  0
 35 44  2  0  0  0
 35 45  1  0  0  0
 35 68  1  0  0  0
 36 56  1  0  0  0
 36109  1  0  0  0
 37 39  1  0  0  0
 37 47  1  0  0  0
 37 66  1  0  0  0
 37110  1  0  0  0
 38 43  2  0  0  0
 38 46  1  0  0  0
 38 47  1  0  0  0
 39 64  1  0  0  0
 39 67  2  0  0  0
 40 52  1  0  0  0
 40 53  2  0  0  0
 40 58  1  0  0  0
 41111  1  0  0  0
 41112  1  0  0  0
 41113  1  0  0  0
 41 48  1  0  0  0
 42 43  1  0  0  0
 42 66  1  0  0  0
 42114  1  0  0  0
 42115  1  0  0  0
 43 44  1  0  0  0
 44116  1  0  0  0
 45 46  2  0  0  0
 45117  1  0  0  0
 46118  1  0  0  0
 47119  1  0  0  0
 47120  1  0  0  0
 48 56  1  0  0  0
 48 65  1  0  0  0
 48121  1  0  0  0
 49 50  1  0  0  0
 49 53  1  0  0  0
 49 64  1  0  0  0
 49122  1  0  0  0
 50 51  1  0  0  0
 50123  1  0  0  0
 50124  1  0  0  0
 51 52  1  0  0  0
 51125  1  0  0  0
 51126  1  0  0  0
 52127  1  0  0  0
 52128  1  0  0  0
 53 54  1  0  0  0
 54 55  2  0  0  0
 54129  1  0  0  0
 55 57  1  0  0  0
 55130  1  0  0  0
 56 69  2  0  0  0
 57 58  2  0  0  0
 57131  1  0  0  0
 58132  1  0  0  0
 59 60  1  0  0  0
 59 61  1  0  0  0
 59 62  1  0  0  0
 60133  1  0  0  0
 60134  1  0  0  0
 60135  1  0  0  0
 61136  1  0  0  0
 61137  1  0  0  0
 61138  1  0  0  0
 62139  1  0  0  0
 62140  1  0  0  0
 62141  1  0  0  0
 63 65  1  0  0  0
 63142  1  0  0  0
 63143  1  0  0  0
 63144  1  0  0  0
 64145  1  0  0  0
 65146  1  0  0  0
 68 80  1  0  0  0
 71147  1  0  0  0
 71148  1  0  0  0
 71149  1  0  0  0
 71 81  1  0  0  0
 72150  1  0  0  0
 72151  1  0  0  0
 72152  1  0  0  0
 72 83  1  0  0  0
 73 83  1  0  0  0
 73153  1  0  0  0
 73154  1  0  0  0
 73155  1  0  0  0
 74156  1  0  0  0
 74157  1  0  0  0
 74158  1  0  0  0
 74 85  1  0  0  0
 75 85  1  0  0  0
 75159  1  0  0  0
 75160  1  0  0  0
 75161  1  0  0  0
 76 85  1  0  0  0
 76162  1  0  0  0
 76163  1  0  0  0
 76164  1  0  0  0
 77 81  1  0  0  0
 77165  1  0  0  0
 77166  1  0  0  0
 77 82  1  0  0  0
 78 82  1  0  0  0
 78 85  1  0  0  0
 78167  1  0  0  0
 78168  1  0  0  0
 79 86  1  0  0  0
 79169  1  0  0  0
 79170  1  0  0  0
 79 84  1  0  0  0
 80 81  1  0  0  0
 80171  1  0  0  0
 80172  1  0  0  0
 81173  1  0  0  0
 82 84  1  0  0  0
 82174  1  0  0  0
 83 87  1  0  0  0
 83175  1  0  0  0
 84 87  1  0  0  0
 84176  1  0  0  0
 86177  1  0  0  0
 87178  1  0  0  0
 87179  1  0  0  0
M  CHG  1  87   1
M  ISO  4   1 100  68 101  80 101  86 100
M  END
> <chiral flag>
0

> <version>
0

> <s_m_source_file>
/data/baiqing/PycharmProjects/Reinvent-master-3.2/result/LINK_invent/BTK/process_docking_weight1_custom_sum_contain_oxygen_bond_distance_aromatic_linkinvent_7_9_3/rearranged_h_0100.sdf

> <i_m_source_file_index>
41

> <r_mmod_Potential_Energy-OPLS-2005>
823.506958007812

> <r_mmod_Stretch_Energy-OPLS-2005>
314.435516357422

> <r_mmod_Bend_Energy-OPLS-2005>
624.547973632812

> <r_mmod_Torsional_Energy-OPLS-2005>
310.846618652344

> <r_mmod_Improper_Torsional_Energy-OPLS-2005>
5.16281223297119

> <r_mmod_Van_der_Waal_Energy-OPLS-2005>
145.186614990234

> <r_mmod_Electrostatic_Energy-OPLS-2005>
-308.341278076172

> <r_mmod_Solvation_Energy-OPLS-2005>
-437.446960449219

> <b_mmod_Minimization_Converged-OPLS-2005>
0

> <r_mmod_RMS_Derivative-OPLS-2005>
3.88374757766724

$$$$
41
                    3D
 Structure written by MMmdl.
159167  0  0  1  0            999 V2000
  -30.2974  -15.5089   20.3461 C   0  0  0  0  0  0
  -30.4477  -12.9744   19.5524 C   0  0  0  0  0  0
  -29.5599  -12.6390   18.3192 C   0  0  0  0  0  0
  -28.1185  -12.3084   18.7422 C   0  0  0  0  0  0
  -27.6079  -13.2960   19.8164 C   0  0  2  0  0  0
  -28.6268  -13.5479   20.9492 C   0  0  0  0  0  0
  -25.2379  -13.8265   20.5749 C   0  0  0  0  0  0
  -24.1747  -13.0432   20.9245 C   0  0  0  0  0  0
  -24.6428  -11.6937   20.8732 C   0  0  0  0  0  0
  -23.9122  -10.4291   21.0382 C   0  0  0  0  0  0
  -24.3655   -9.4210   21.9170 C   0  0  0  0  0  0
  -23.6314   -8.2254   22.0755 C   0  0  0  0  0  0
  -22.4293   -8.0292   21.3547 C   0  0  0  0  0  0
  -21.9937   -9.0266   20.4646 C   0  0  0  0  0  0
  -22.7284  -10.2134   20.3042 C   0  0  0  0  0  0
  -21.6861   -6.0742   22.5279 C   0  0  0  0  0  0
  -21.4022   -6.5644   23.8212 C   0  0  0  0  0  0
  -21.3657   -5.6794   24.9172 C   0  0  0  0  0  0
  -21.6040   -4.3056   24.7220 C   0  0  0  0  0  0
  -21.8821   -3.8150   23.4341 C   0  0  0  0  0  0
  -21.9196   -4.6969   22.3399 C   0  0  0  0  0  0
  -22.7763  -13.5176   21.1896 C   0  0  0  0  0  0
  -22.1663   -4.2153   21.0977 F   0  0  0  0  0  0
  -21.5624   -3.4539   25.7732 F   0  0  0  0  0  0
  -29.8393  -14.1307   20.3374 N   0  0  0  0  0  0
  -26.2819  -12.9575   20.3178 N   0  0  0  0  0  0
  -25.9370  -11.6659   20.5661 N   0  0  0  0  0  0
  -22.0426  -12.8158   22.0452 N   0  0  0  0  0  0
  -25.3996  -15.2009   20.4240 N   0  0  0  0  0  0
  -31.5162  -15.5213   20.0930 O   0  0  0  0  0  0
  -21.6652   -6.8891   21.4244 O   0  0  0  0  0  0
  -22.3434  -14.5471   20.6730 O   0  0  0  0  0  0
  -24.6782  -31.8072   23.1571 C   0  0  0  0  0  0
  -25.9396  -32.4503   23.8089 C   0  0  1  0  0  0
  -27.2247  -26.7693   20.2082 C   0  0  0  0  0  0
  -25.6005  -33.8322   24.1991 N   0  0  0  0  0  0
  -23.5011  -30.4127   21.5097 C   0  0  2  0  0  0
  -24.9579  -28.7684   20.1169 C   0  0  0  0  0  0
  -22.7743  -29.4357   22.4726 C   0  0  0  0  0  0
  -18.0333  -28.1423   22.8459 C   0  0  0  0  0  0
  -24.1486  -36.7148   23.2650 C   0  0  0  0  0  0
  -26.0791  -30.5629   21.4111 C   0  0  0  0  0  0
  -26.1464  -29.1350   20.7605 C   0  0  0  0  0  0
  -27.2688  -28.1626   20.7740 C   0  0  0  0  0  0
  -26.0038  -26.5971   19.5096 C   0  0  0  0  0  0
  -24.9223  -27.5232   19.4680 C   0  0  0  0  0  0
  -23.7516  -29.7158   20.1423 C   0  0  0  0  0  0
  -25.4134  -36.2910   24.0293 C   0  0  1  0  0  0
  -20.5970  -28.3775   23.1154 C   0  0  2  0  0  0
  -20.6806  -26.9441   22.5402 C   0  0  0  0  0  0
  -19.5780  -26.6380   21.5216 C   0  0  0  0  0  0
  -18.1961  -26.7954   22.1620 C   0  0  0  0  0  0
  -19.1601  -28.8922   23.2790 C   0  0  0  0  0  0
  -18.9509  -30.1506   23.8833 C   0  0  0  0  0  0
  -17.6502  -30.6607   24.0553 C   0  0  0  0  0  0
  -25.9120  -34.9303   23.4971 C   0  0  0  0  0  0
  -16.5388  -29.9093   23.6353 C   0  0  0  0  0  0
  -16.7315  -28.6514   23.0369 C   0  0  0  0  0  0
  -26.4599  -31.6505   25.0677 C   0  0  0  0  0  0
  -25.3690  -31.3799   26.1309 C   0  0  0  0  0  0
  -27.0520  -30.2853   24.6522 C   0  0  0  0  0  0
  -27.6063  -32.4348   25.7489 C   0  0  0  0  0  0
  -27.5563  -37.1721   24.8463 C   0  0  0  0  0  0
  -21.4394  -29.3033   22.3478 N   0  0  0  0  0  0
  -26.4254  -37.3676   23.9434 N   0  0  0  0  0  0
  -24.7756  -30.9586   22.0787 N   0  0  0  0  0  0
  -23.4216  -28.7951   23.3043 O   0  0  0  0  0  0
  -28.1908  -25.5755   20.2741 O   0  0  0  0  0  0
  -26.5742  -34.8875   22.4576 O   0  0  0  0  0  0
  -23.5818  -32.1109   23.6573 O   0  0  0  0  0  0
  -28.7188  -21.2263   19.1460 C   0  0  0  0  0  0
  -29.0225  -19.7407   19.1966 C   0  0  0  0  0  0
  -29.3358  -18.9096   20.3798 C   0  0  0  0  0  0
  -28.6462  -22.2231   20.2318 C   0  0  0  0  0  0
  -29.2482  -19.9705   21.4253 C   0  0  0  0  0  0
  -29.4556  -19.5098   22.8535 C   0  0  0  0  0  0
  -30.1193  -17.5307   16.1833 C   0  0  0  0  0  0
  -31.0674  -19.8038   16.7635 C   0  0  0  0  0  0
  -29.3591  -17.0740   20.5835 C   0  0  0  0  0  0
  -28.9150  -18.9912   17.8756 C   0  0  0  0  0  0
  -27.8507  -23.8872   20.1989 C   0  0  0  0  0  0
  -30.2830  -18.5887   17.2858 C   0  0  0  0  0  0
  -28.9354  -21.3991   21.3552 N   0  0  0  0  0  0
  -31.4518  -13.2234   19.2080 H   0  0  0  0  0  0
  -30.5729  -12.0958   20.1872 H   0  0  0  0  0  0
  -29.9878  -11.8095   17.7551 H   0  0  0  0  0  0
  -29.5505  -13.4964   17.6447 H   0  0  0  0  0  0
  -28.1132  -11.2954   19.1458 H   0  0  0  0  0  0
  -27.4547  -12.2989   17.8764 H   0  0  0  0  0  0
  -27.4972  -14.2421   19.2848 H   0  0  0  0  0  0
  -28.8412  -12.6353   21.5075 H   0  0  0  0  0  0
  -28.2165  -14.2579   21.6690 H   0  0  0  0  0  0
  -25.2798   -9.5684   22.4748 H   0  0  0  0  0  0
  -24.0014   -7.4649   22.7483 H   0  0  0  0  0  0
  -21.0864   -8.8793   19.8957 H   0  0  0  0  0  0
  -22.3744  -10.9670   19.6147 H   0  0  0  0  0  0
  -21.2022   -7.6153   23.9717 H   0  0  0  0  0  0
  -21.1473   -6.0522   25.9074 H   0  0  0  0  0  0
  -22.0601   -2.7612   23.2838 H   0  0  0  0  0  0
  -22.4065  -11.9831   22.4842 H   0  0  0  0  0  0
  -21.1035  -13.1159   22.2647 H   0  0  0  0  0  0
  -24.6288  -15.8488   20.5470 H   0  0  0  0  0  0
  -26.2461  -15.6501   20.1014 H   0  0  0  0  0  0
  -26.7466  -32.4994   23.0793 H   0  0  0  0  0  0
  -25.0093  -33.9370   25.0105 H   0  0  0  0  0  0
  -22.8230  -31.2486   21.3255 H   0  0  0  0  0  0
  -23.3784  -35.9438   23.3243 H   0  0  0  0  0  0
  -24.3571  -36.8872   22.2079 H   0  0  0  0  0  0
  -23.7198  -37.6293   23.6757 H   0  0  0  0  0  0
  -26.2756  -31.2930   20.6249 H   0  0  0  0  0  0
  -26.9325  -30.6273   22.0737 H   0  0  0  0  0  0
  -28.1645  -28.4482   21.3075 H   0  0  0  0  0  0
  -25.8442  -25.6543   19.0074 H   0  0  0  0  0  0
  -24.0250  -27.2342   18.9383 H   0  0  0  0  0  0
  -23.9219  -30.4788   19.3819 H   0  0  0  0  0  0
  -22.8575  -29.1801   19.8186 H   0  0  0  0  0  0
  -25.1336  -36.1668   25.0781 H   0  0  0  0  0  0
  -21.0053  -28.3393   24.1282 H   0  0  0  0  0  0
  -20.5672  -26.2398   23.3658 H   0  0  0  0  0  0
  -21.6668  -26.7396   22.1217 H   0  0  0  0  0  0
  -19.6939  -25.6278   21.1281 H   0  0  0  0  0  0
  -19.6725  -27.3161   20.6723 H   0  0  0  0  0  0
  -17.4233  -26.6693   21.4022 H   0  0  0  0  0  0
  -18.0350  -26.0113   22.9031 H   0  0  0  0  0  0
  -19.7986  -30.7336   24.2177 H   0  0  0  0  0  0
  -17.5056  -31.6283   24.5166 H   0  0  0  0  0  0
  -15.5386  -30.2976   23.7725 H   0  0  0  0  0  0
  -15.8713  -28.0815   22.7125 H   0  0  0  0  0  0
  -24.5903  -30.7114   25.7620 H   0  0  0  0  0  0
  -24.8844  -32.3007   26.4558 H   0  0  0  0  0  0
  -25.7896  -30.9088   27.0201 H   0  0  0  0  0  0
  -26.3229  -29.6490   24.1494 H   0  0  0  0  0  0
  -27.3960  -29.7269   25.5238 H   0  0  0  0  0  0
  -27.9205  -30.4003   24.0035 H   0  0  0  0  0  0
  -27.2624  -33.3725   26.1866 H   0  0  0  0  0  0
  -28.3977  -32.6783   25.0386 H   0  0  0  0  0  0
  -28.0611  -31.8597   26.5564 H   0  0  0  0  0  0
  -28.2521  -38.0074   24.7572 H   0  0  0  0  0  0
  -28.1115  -36.2604   24.6205 H   0  0  0  0  0  0
  -27.2294  -37.1260   25.8865 H   0  0  0  0  0  0
  -20.9683  -29.8689   21.6555 H   0  0  0  0  0  0
  -26.0076  -38.2710   24.1500 H   0  0  0  0  0  0
  -28.4474  -21.6188   18.1750 H   0  0  0  0  0  0
  -30.4091  -18.9896   22.9469 H   0  0  0  0  0  0
  -28.6606  -18.8264   23.1518 H   0  0  0  0  0  0
  -29.4613  -20.3445   23.5552 H   0  0  0  0  0  0
  -31.0872  -17.2199   15.7883 H   0  0  0  0  0  0
  -29.5276  -17.9114   15.3497 H   0  0  0  0  0  0
  -29.6217  -16.6372   16.5626 H   0  0  0  0  0  0
  -32.0398  -19.5073   16.3696 H   0  0  0  0  0  0
  -31.2468  -20.5303   17.5566 H   0  0  0  0  0  0
  -30.5269  -20.3136   15.9650 H   0  0  0  0  0  0
  -28.4291  -16.8070   20.0832 H   0  0  0  0  0  0
  -29.1020  -16.9741   21.6370 H   0  0  0  0  0  0
  -28.3511  -19.5784   17.1497 H   0  0  0  0  0  0
  -28.3110  -18.1002   18.0497 H   0  0  0  0  0  0
  -27.0979  -23.7832   20.9799 H   0  0  0  0  0  0
  -27.2720  -23.8206   19.2786 H   0  0  0  0  0  0
  -30.8698  -18.1251   18.0803 H   0  0  0  0  0  0
  1 25  1  0  0  0
  1 30  2  0  0  0
  1 79  1  0  0  0
  2  3  1  0  0  0
  2 25  1  0  0  0
  2 84  1  0  0  0
  2 85  1  0  0  0
  3  4  1  0  0  0
  3 86  1  0  0  0
  3 87  1  0  0  0
  4  5  1  0  0  0
  4 88  1  0  0  0
  4 89  1  0  0  0
  5  6  1  0  0  0
  5 26  1  0  0  0
  5 90  1  0  0  0
  6 25  1  0  0  0
  6 91  1  0  0  0
  6 92  1  0  0  0
  7  8  2  0  0  0
  7 26  1  0  0  0
  7 29  1  0  0  0
  8  9  1  0  0  0
  8 22  1  0  0  0
  9 10  1  0  0  0
  9 27  2  0  0  0
 10 11  2  0  0  0
 10 15  1  0  0  0
 11 12  1  0  0  0
 11 93  1  0  0  0
 12 13  2  0  0  0
 12 94  1  0  0  0
 13 14  1  0  0  0
 13 31  1  0  0  0
 14 15  2  0  0  0
 14 95  1  0  0  0
 15 96  1  0  0  0
 16 17  2  0  0  0
 16 21  1  0  0  0
 16 31  1  0  0  0
 17 18  1  0  0  0
 17 97  1  0  0  0
 18 19  2  0  0  0
 18 98  1  0  0  0
 19 20  1  0  0  0
 19 24  1  0  0  0
 20 21  2  0  0  0
 20 99  1  0  0  0
 21 23  1  0  0  0
 22 28  1  0  0  0
 22 32  2  0  0  0
 26 27  1  0  0  0
 28100  1  0  0  0
 28101  1  0  0  0
 29102  1  0  0  0
 29103  1  0  0  0
 33 34  1  0  0  0
 33 66  1  0  0  0
 33 70  2  0  0  0
 34 36  1  0  0  0
 34 59  1  0  0  0
 34104  1  0  0  0
 35 44  2  0  0  0
 35 45  1  0  0  0
 35 68  1  0  0  0
 36 56  1  0  0  0
 36105  1  0  0  0
 37 39  1  0  0  0
 37 47  1  0  0  0
 37 66  1  0  0  0
 37106  1  0  0  0
 38 43  2  0  0  0
 38 46  1  0  0  0
 38 47  1  0  0  0
 39 64  1  0  0  0
 39 67  2  0  0  0
 40 52  1  0  0  0
 40 53  2  0  0  0
 40 58  1  0  0  0
 41107  1  0  0  0
 41108  1  0  0  0
 41109  1  0  0  0
 41 48  1  0  0  0
 42 43  1  0  0  0
 42 66  1  0  0  0
 42110  1  0  0  0
 42111  1  0  0  0
 43 44  1  0  0  0
 44112  1  0  0  0
 45 46  2  0  0  0
 45113  1  0  0  0
 46114  1  0  0  0
 47115  1  0  0  0
 47116  1  0  0  0
 48 56  1  0  0  0
 48 65  1  0  0  0
 48117  1  0  0  0
 49 50  1  0  0  0
 49 53  1  0  0  0
 49 64  1  0  0  0
 49118  1  0  0  0
 50 51  1  0  0  0
 50119  1  0  0  0
 50120  1  0  0  0
 51 52  1  0  0  0
 51121  1  0  0  0
 51122  1  0  0  0
 52123  1  0  0  0
 52124  1  0  0  0
 53 54  1  0  0  0
 54 55  2  0  0  0
 54125  1  0  0  0
 55 57  1  0  0  0
 55126  1  0  0  0
 56 69  2  0  0  0
 57 58  2  0  0  0
 57127  1  0  0  0
 58128  1  0  0  0
 59 60  1  0  0  0
 59 61  1  0  0  0
 59 62  1  0  0  0
 60129  1  0  0  0
 60130  1  0  0  0
 60131  1  0  0  0
 61132  1  0  0  0
 61133  1  0  0  0
 61134  1  0  0  0
 62135  1  0  0  0
 62136  1  0  0  0
 62137  1  0  0  0
 63 65  1  0  0  0
 63138  1  0  0  0
 63139  1  0  0  0
 63140  1  0  0  0
 64141  1  0  0  0
 65142  1  0  0  0
 68 81  1  0  0  0
 71 72  2  0  0  0
 71 74  1  0  0  0
 71143  1  0  0  0
 72 73  1  0  0  0
 72 80  1  0  0  0
 73 75  2  0  0  0
 73 79  1  0  0  0
 74 81  1  0  0  0
 74 83  2  0  0  0
 75 76  1  0  0  0
 75 83  1  0  0  0
 76144  1  0  0  0
 76145  1  0  0  0
 76146  1  0  0  0
 77147  1  0  0  0
 77148  1  0  0  0
 77149  1  0  0  0
 77 82  1  0  0  0
 78 82  1  0  0  0
 78150  1  0  0  0
 78151  1  0  0  0
 78152  1  0  0  0
 79153  1  0  0  0
 79154  1  0  0  0
 80 82  1  0  0  0
 80155  1  0  0  0
 80156  1  0  0  0
 81157  1  0  0  0
 81158  1  0  0  0
 82159  1  0  0  0
M  ISO  4   1 100  68 101  79 100  81 101
M  END
> <chiral flag>
0

> <version>
0

> <s_m_source_file>
/data/baiqing/PycharmProjects/Reinvent-master-3.2/result/LINK_invent/BTK/process_docking_weight1_custom_sum_contain_oxygen_bond_distance_aromatic_linkinvent_7_9_3/rearranged_h_0100.sdf

> <i_m_source_file_index>
42

> <r_mmod_Potential_Energy-OPLS-2005>
1925.60729980469

> <r_mmod_Stretch_Energy-OPLS-2005>
850.543029785156

> <r_mmod_Bend_Energy-OPLS-2005>
636.937255859375

> <r_mmod_Torsional_Energy-OPLS-2005>
203.418380737305

> <r_mmod_Improper_Torsional_Energy-OPLS-2005>
8.95103454589844

> <r_mmod_Van_der_Waal_Energy-OPLS-2005>
124.071914672852

> <r_mmod_Electrostatic_Energy-OPLS-2005>
-423.684539794922

> <r_mmod_Solvation_Energy-OPLS-2005>
-219.456192016602

> <b_mmod_Minimization_Converged-OPLS-2005>
0

> <r_mmod_RMS_Derivative-OPLS-2005>
0.673896610736847

$$$$
42
                    3D
 Structure written by MMmdl.
163171  0  0  1  0            999 V2000
  -30.6359  -14.7207   20.4443 C   0  0  0  0  0  0
  -30.4321  -12.4340   19.4733 C   0  0  0  0  0  0
  -29.5154  -12.5064   18.2332 C   0  0  0  0  0  0
  -28.0396  -12.3426   18.6441 C   0  0  0  0  0  0
  -27.6481  -13.2339   19.8553 C   0  0  2  0  0  0
  -28.6965  -13.1625   20.9894 C   0  0  0  0  0  0
  -25.2530  -13.8205   20.5716 C   0  0  0  0  0  0
  -24.1820  -13.0459   20.9231 C   0  0  0  0  0  0
  -24.6408  -11.6938   20.8766 C   0  0  0  0  0  0
  -23.9078  -10.4310   21.0422 C   0  0  0  0  0  0
  -24.3619   -9.4221   21.9194 C   0  0  0  0  0  0
  -23.6293   -8.2252   22.0747 C   0  0  0  0  0  0
  -22.4280   -8.0286   21.3535 C   0  0  0  0  0  0
  -21.9919   -9.0274   20.4643 C   0  0  0  0  0  0
  -22.7258  -10.2157   20.3062 C   0  0  0  0  0  0
  -21.6857   -6.0742   22.5280 C   0  0  0  0  0  0
  -21.4029   -6.5639   23.8215 C   0  0  0  0  0  0
  -21.3659   -5.6789   24.9172 C   0  0  0  0  0  0
  -21.6035   -4.3045   24.7225 C   0  0  0  0  0  0
  -21.8819   -3.8147   23.4347 C   0  0  0  0  0  0
  -21.9206   -4.6965   22.3406 C   0  0  0  0  0  0
  -22.7839  -13.5260   21.1852 C   0  0  0  0  0  0
  -22.1669   -4.2159   21.0983 F   0  0  0  0  0  0
  -21.5615   -3.4518   25.7734 F   0  0  0  0  0  0
  -29.9969  -13.5024   20.4003 N   0  0  0  0  0  0
  -26.2979  -12.9425   20.3313 N   0  0  0  0  0  0
  -25.9344  -11.6569   20.5762 N   0  0  0  0  0  0
  -22.0438  -12.8284   22.0392 N   0  0  0  0  0  0
  -25.4135  -15.1926   20.4077 N   0  0  0  0  0  0
  -31.8290  -14.7972   20.1378 O   0  0  0  0  0  0
  -21.6635   -6.8880   21.4238 O   0  0  0  0  0  0
  -22.3552  -14.5568   20.6681 O   0  0  0  0  0  0
  -24.6352  -31.8545   23.1949 C   0  0  0  0  0  0
  -25.9183  -32.4743   23.8304 C   0  0  1  0  0  0
  -27.2222  -27.2532   20.1251 C   0  0  0  0  0  0
  -25.5991  -33.8533   24.2252 N   0  0  0  0  0  0
  -23.4299  -30.4765   21.5389 C   0  0  2  0  0  0
  -24.8745  -28.9199   20.1088 C   0  0  0  0  0  0
  -22.7478  -29.4641   22.4912 C   0  0  0  0  0  0
  -18.0311  -28.1388   22.8478 C   0  0  0  0  0  0
  -24.1484  -36.7260   23.2636 C   0  0  0  0  0  0
  -25.9746  -30.7654   21.3741 C   0  0  0  0  0  0
  -26.0473  -29.3878   20.7150 C   0  0  0  0  0  0
  -27.2199  -28.5649   20.7108 C   0  0  0  0  0  0
  -26.0172  -26.8484   19.5034 C   0  0  0  0  0  0
  -24.8661  -27.6586   19.4953 C   0  0  0  0  0  0
  -23.6443  -29.8043   20.1578 C   0  0  0  0  0  0
  -25.4108  -36.3053   24.0327 C   0  0  1  0  0  0
  -20.5891  -28.3722   23.1252 C   0  0  2  0  0  0
  -20.6796  -26.9432   22.5392 C   0  0  0  0  0  0
  -19.5802  -26.6370   21.5183 C   0  0  0  0  0  0
  -18.1989  -26.7909   22.1634 C   0  0  0  0  0  0
  -19.1547  -28.8871   23.2862 C   0  0  0  0  0  0
  -18.9469  -30.1460   23.8902 C   0  0  0  0  0  0
  -17.6475  -30.6609   24.0548 C   0  0  0  0  0  0
  -25.9053  -34.9431   23.5078 C   0  0  0  0  0  0
  -16.5372  -29.9089   23.6341 C   0  0  0  0  0  0
  -16.7289  -28.6490   23.0383 C   0  0  0  0  0  0
  -26.4530  -31.6583   25.0719 C   0  0  0  0  0  0
  -25.3743  -31.3744   26.1441 C   0  0  0  0  0  0
  -27.0410  -30.3011   24.6232 C   0  0  0  0  0  0
  -27.6091  -32.4323   25.7498 C   0  0  0  0  0  0
  -27.5577  -37.1785   24.8466 C   0  0  0  0  0  0
  -21.4178  -29.3083   22.3629 N   0  0  0  0  0  0
  -26.4298  -37.3754   23.9402 N   0  0  0  0  0  0
  -24.6983  -31.0510   22.0923 N   0  0  0  0  0  0
  -23.4148  -28.8196   23.3040 O   0  0  0  0  0  0
  -28.3448  -26.3941   20.2039 O   0  0  0  0  0  0
  -26.5606  -34.8920   22.4636 O   0  0  0  0  0  0
  -23.5512  -32.1379   23.7258 O   0  0  0  0  0  0
  -29.6741  -19.8885   19.9899 C   0  0  0  0  0  0
  -29.4862  -18.6066   20.5238 C   0  0  0  0  0  0
  -28.3321  -18.7743   21.3505 C   0  0  0  0  0  0
  -27.8259  -20.0517   21.1848 C   0  0  0  0  0  0
  -27.7235  -17.7146   22.2345 C   0  0  0  0  0  0
  -26.5251  -20.5575   21.7239 C   0  0  0  0  0  0
  -27.3311  -23.7708   21.6384 C   0  0  0  0  0  0
  -29.8135  -23.7029   21.4148 C   0  0  0  0  0  0
  -30.3651  -17.2942   20.2953 C   0  0  0  0  0  0
  -28.4385  -22.2403   19.8049 C   0  0  0  0  0  0
  -28.3879  -24.9813   19.6809 C   0  0  0  0  0  0
  -28.4893  -23.6582   20.6283 C   0  0  0  0  0  0
  -28.6703  -20.8183   20.3718 N   0  0  0  0  0  0
  -29.8898  -15.8738   20.5922 N   0  0  0  0  0  0
  -31.4794  -12.5390   19.1786 H   0  0  0  0  0  0
  -30.3533  -11.4578   19.9570 H   0  0  0  0  0  0
  -29.7863  -11.7312   17.5155 H   0  0  0  0  0  0
  -29.6572  -13.4621   17.7239 H   0  0  0  0  0  0
  -27.8907  -11.2936   18.9000 H   0  0  0  0  0  0
  -27.3876  -12.5468   17.7939 H   0  0  0  0  0  0
  -27.6440  -14.2576   19.4834 H   0  0  0  0  0  0
  -28.7380  -12.1692   21.4376 H   0  0  0  0  0  0
  -28.4407  -13.8500   21.7966 H   0  0  0  0  0  0
  -25.2755   -9.5697   22.4777 H   0  0  0  0  0  0
  -23.9995   -7.4650   22.7484 H   0  0  0  0  0  0
  -21.0833   -8.8821   19.8964 H   0  0  0  0  0  0
  -22.3714  -10.9705   19.6173 H   0  0  0  0  0  0
  -21.2020   -7.6144   23.9728 H   0  0  0  0  0  0
  -21.1468   -6.0501   25.9076 H   0  0  0  0  0  0
  -22.0594   -2.7604   23.2841 H   0  0  0  0  0  0
  -22.4028  -12.0009   22.4913 H   0  0  0  0  0  0
  -21.1037  -13.1330   22.2480 H   0  0  0  0  0  0
  -24.6290  -15.8298   20.4878 H   0  0  0  0  0  0
  -26.2369  -15.6323   20.0188 H   0  0  0  0  0  0
  -26.7261  -32.5386   23.1052 H   0  0  0  0  0  0
  -25.0191  -33.9633   25.0437 H   0  0  0  0  0  0
  -22.7318  -31.3010   21.3893 H   0  0  0  0  0  0
  -23.3757  -35.9589   23.3304 H   0  0  0  0  0  0
  -24.3572  -36.8878   22.2054 H   0  0  0  0  0  0
  -23.7231  -37.6455   23.6654 H   0  0  0  0  0  0
  -26.1202  -31.5295   20.6083 H   0  0  0  0  0  0
  -26.8463  -30.8079   22.0156 H   0  0  0  0  0  0
  -28.1183  -28.9142   21.2028 H   0  0  0  0  0  0
  -25.9080  -25.8790   19.0471 H   0  0  0  0  0  0
  -23.9644  -27.2862   19.0300 H   0  0  0  0  0  0
  -23.7580  -30.5713   19.3911 H   0  0  0  0  0  0
  -22.7614  -29.2312   19.8671 H   0  0  0  0  0  0
  -25.1287  -36.1900   25.0827 H   0  0  0  0  0  0
  -20.9967  -28.3334   24.1380 H   0  0  0  0  0  0
  -20.5697  -26.2284   23.3565 H   0  0  0  0  0  0
  -21.6663  -26.7493   22.1158 H   0  0  0  0  0  0
  -19.7015  -25.6274   21.1253 H   0  0  0  0  0  0
  -19.6729  -27.3131   20.6666 H   0  0  0  0  0  0
  -17.4208  -26.6549   21.4100 H   0  0  0  0  0  0
  -18.0486  -26.0094   22.9092 H   0  0  0  0  0  0
  -19.7925  -30.7272   24.2332 H   0  0  0  0  0  0
  -17.5045  -31.6304   24.5131 H   0  0  0  0  0  0
  -15.5377  -30.2992   23.7694 H   0  0  0  0  0  0
  -15.8701  -28.0761   22.7163 H   0  0  0  0  0  0
  -24.5912  -30.7111   25.7743 H   0  0  0  0  0  0
  -24.8953  -32.2925   26.4862 H   0  0  0  0  0  0
  -25.8059  -30.8915   27.0221 H   0  0  0  0  0  0
  -26.3028  -29.6713   24.1268 H   0  0  0  0  0  0
  -27.4095  -29.7334   25.4779 H   0  0  0  0  0  0
  -27.8884  -30.4269   23.9493 H   0  0  0  0  0  0
  -27.2717  -33.3632   26.2060 H   0  0  0  0  0  0
  -28.3918  -32.6868   25.0339 H   0  0  0  0  0  0
  -28.0742  -31.8463   26.5430 H   0  0  0  0  0  0
  -28.2592  -38.0078   24.7502 H   0  0  0  0  0  0
  -28.1086  -36.2618   24.6316 H   0  0  0  0  0  0
  -27.2300  -37.1445   25.8870 H   0  0  0  0  0  0
  -20.9357  -29.8737   21.6780 H   0  0  0  0  0  0
  -26.0182  -38.2837   24.1407 H   0  0  0  0  0  0
  -30.4450  -20.2168   19.3035 H   0  0  0  0  0  0
  -28.4746  -16.9987   22.5674 H   0  0  0  0  0  0
  -26.9427  -17.1749   21.6999 H   0  0  0  0  0  0
  -27.2852  -18.1639   23.1267 H   0  0  0  0  0  0
  -25.7825  -19.7601   21.7155 H   0  0  0  0  0  0
  -26.1085  -21.3689   21.1283 H   0  0  0  0  0  0
  -26.6303  -20.8798   22.7595 H   0  0  0  0  0  0
  -27.3621  -22.9780   22.3832 H   0  0  0  0  0  0
  -26.3589  -23.7507   21.1417 H   0  0  0  0  0  0
  -27.3781  -24.7120   22.1906 H   0  0  0  0  0  0
  -29.9107  -22.8458   22.0835 H   0  0  0  0  0  0
  -29.8879  -24.6022   22.0287 H   0  0  0  0  0  0
  -30.6728  -23.6846   20.7427 H   0  0  0  0  0  0
  -31.2940  -17.4421   20.8485 H   0  0  0  0  0  0
  -30.6568  -17.3053   19.2429 H   0  0  0  0  0  0
  -29.1342  -22.3407   18.9718 H   0  0  0  0  0  0
  -27.4649  -22.2006   19.3162 H   0  0  0  0  0  0
  -27.6221  -24.8067   18.9305 H   0  0  0  0  0  0
  -29.2934  -24.9713   19.0727 H   0  0  0  0  0  0
  -28.9089  -15.7584   20.7929 H   0  0  0  0  0  0
  1 25  1  0  0  0
  1 30  2  0  0  0
  1 84  1  0  0  0
  2  3  1  0  0  0
  2 25  1  0  0  0
  2 85  1  0  0  0
  2 86  1  0  0  0
  3  4  1  0  0  0
  3 87  1  0  0  0
  3 88  1  0  0  0
  4  5  1  0  0  0
  4 89  1  0  0  0
  4 90  1  0  0  0
  5  6  1  0  0  0
  5 26  1  0  0  0
  5 91  1  0  0  0
  6 25  1  0  0  0
  6 92  1  0  0  0
  6 93  1  0  0  0
  7  8  2  0  0  0
  7 26  1  0  0  0
  7 29  1  0  0  0
  8  9  1  0  0  0
  8 22  1  0  0  0
  9 10  1  0  0  0
  9 27  2  0  0  0
 10 11  2  0  0  0
 10 15  1  0  0  0
 11 12  1  0  0  0
 11 94  1  0  0  0
 12 13  2  0  0  0
 12 95  1  0  0  0
 13 14  1  0  0  0
 13 31  1  0  0  0
 14 15  2  0  0  0
 14 96  1  0  0  0
 15 97  1  0  0  0
 16 17  2  0  0  0
 16 21  1  0  0  0
 16 31  1  0  0  0
 17 18  1  0  0  0
 17 98  1  0  0  0
 18 19  2  0  0  0
 18 99  1  0  0  0
 19 20  1  0  0  0
 19 24  1  0  0  0
 20 21  2  0  0  0
 20100  1  0  0  0
 21 23  1  0  0  0
 22 28  1  0  0  0
 22 32  2  0  0  0
 26 27  1  0  0  0
 28101  1  0  0  0
 28102  1  0  0  0
 29103  1  0  0  0
 29104  1  0  0  0
 33 34  1  0  0  0
 33 66  1  0  0  0
 33 70  2  0  0  0
 34 36  1  0  0  0
 34 59  1  0  0  0
 34105  1  0  0  0
 35 44  2  0  0  0
 35 45  1  0  0  0
 35 68  1  0  0  0
 36 56  1  0  0  0
 36106  1  0  0  0
 37 39  1  0  0  0
 37 47  1  0  0  0
 37 66  1  0  0  0
 37107  1  0  0  0
 38 43  2  0  0  0
 38 46  1  0  0  0
 38 47  1  0  0  0
 39 64  1  0  0  0
 39 67  2  0  0  0
 40 52  1  0  0  0
 40 53  2  0  0  0
 40 58  1  0  0  0
 41108  1  0  0  0
 41109  1  0  0  0
 41110  1  0  0  0
 41 48  1  0  0  0
 42 43  1  0  0  0
 42 66  1  0  0  0
 42111  1  0  0  0
 42112  1  0  0  0
 43 44  1  0  0  0
 44113  1  0  0  0
 45 46  2  0  0  0
 45114  1  0  0  0
 46115  1  0  0  0
 47116  1  0  0  0
 47117  1  0  0  0
 48 56  1  0  0  0
 48 65  1  0  0  0
 48118  1  0  0  0
 49 50  1  0  0  0
 49 53  1  0  0  0
 49 64  1  0  0  0
 49119  1  0  0  0
 50 51  1  0  0  0
 50120  1  0  0  0
 50121  1  0  0  0
 51 52  1  0  0  0
 51122  1  0  0  0
 51123  1  0  0  0
 52124  1  0  0  0
 52125  1  0  0  0
 53 54  1  0  0  0
 54 55  2  0  0  0
 54126  1  0  0  0
 55 57  1  0  0  0
 55127  1  0  0  0
 56 69  2  0  0  0
 57 58  2  0  0  0
 57128  1  0  0  0
 58129  1  0  0  0
 59 60  1  0  0  0
 59 61  1  0  0  0
 59 62  1  0  0  0
 60130  1  0  0  0
 60131  1  0  0  0
 60132  1  0  0  0
 61133  1  0  0  0
 61134  1  0  0  0
 61135  1  0  0  0
 62136  1  0  0  0
 62137  1  0  0  0
 62138  1  0  0  0
 63 65  1  0  0  0
 63139  1  0  0  0
 63140  1  0  0  0
 63141  1  0  0  0
 64142  1  0  0  0
 65143  1  0  0  0
 68 81  1  0  0  0
 71 72  2  0  0  0
 71 83  1  0  0  0
 71144  1  0  0  0
 72 73  1  0  0  0
 72 79  1  0  0  0
 73 74  2  0  0  0
 73 75  1  0  0  0
 74 76  1  0  0  0
 74 83  1  0  0  0
 75145  1  0  0  0
 75146  1  0  0  0
 75147  1  0  0  0
 76148  1  0  0  0
 76149  1  0  0  0
 76150  1  0  0  0
 77151  1  0  0  0
 77152  1  0  0  0
 77153  1  0  0  0
 77 82  1  0  0  0
 78 82  1  0  0  0
 78154  1  0  0  0
 78155  1  0  0  0
 78156  1  0  0  0
 79 84  1  0  0  0
 79157  1  0  0  0
 79158  1  0  0  0
 80 82  1  0  0  0
 80 83  1  0  0  0
 80159  1  0  0  0
 80160  1  0  0  0
 81 82  1  0  0  0
 81161  1  0  0  0
 81162  1  0  0  0
 84163  1  0  0  0
M  ISO  4   1 100  68 101  81 101  84 100
M  END
> <chiral flag>
0

> <version>
0

> <s_m_source_file>
/data/baiqing/PycharmProjects/Reinvent-master-3.2/result/LINK_invent/BTK/process_docking_weight1_custom_sum_contain_oxygen_bond_distance_aromatic_linkinvent_7_9_3/rearranged_h_0100.sdf

> <i_m_source_file_index>
43

> <r_mmod_Potential_Energy-OPLS-2005>
106.663154602051

> <r_mmod_Stretch_Energy-OPLS-2005>
127.036521911621

> <r_mmod_Bend_Energy-OPLS-2005>
202.395324707031

> <r_mmod_Torsional_Energy-OPLS-2005>
215.844314575195

> <r_mmod_Improper_Torsional_Energy-OPLS-2005>
7.83057165145874

> <r_mmod_Van_der_Waal_Energy-OPLS-2005>
109.742065429688

> <r_mmod_Electrostatic_Energy-OPLS-2005>
-431.449340820312

> <r_mmod_Solvation_Energy-OPLS-2005>
-204.758087158203

> <b_mmod_Minimization_Converged-OPLS-2005>
0

> <r_mmod_RMS_Derivative-OPLS-2005>
3.65372753143311

$$$$
43
                    3D
 Structure written by MMmdl.
146153  0  0  1  0            999 V2000
  -30.1594  -16.0066   20.2966 C   0  0  0  0  0  0
  -30.3938  -13.3595   19.5608 C   0  0  0  0  0  0
  -29.5670  -12.7633   18.3719 C   0  0  0  0  0  0
  -28.1713  -12.3208   18.8268 C   0  0  0  0  0  0
  -27.5869  -13.3480   19.8169 C   0  0  2  0  0  0
  -28.5711  -13.8276   20.9221 C   0  0  0  0  0  0
  -25.2262  -13.8335   20.5850 C   0  0  0  0  0  0
  -24.1683  -13.0437   20.9294 C   0  0  0  0  0  0
  -24.6443  -11.6961   20.8741 C   0  0  0  0  0  0
  -23.9154  -10.4287   21.0361 C   0  0  0  0  0  0
  -24.3684   -9.4202   21.9156 C   0  0  0  0  0  0
  -23.6326   -8.2254   22.0761 C   0  0  0  0  0  0
  -22.4310   -8.0293   21.3553 C   0  0  0  0  0  0
  -21.9947   -9.0269   20.4652 C   0  0  0  0  0  0
  -22.7304  -10.2132   20.3025 C   0  0  0  0  0  0
  -21.6865   -6.0738   22.5271 C   0  0  0  0  0  0
  -21.4018   -6.5638   23.8202 C   0  0  0  0  0  0
  -21.3674   -5.6795   24.9164 C   0  0  0  0  0  0
  -21.6050   -4.3052   24.7210 C   0  0  0  0  0  0
  -21.8815   -3.8146   23.4335 C   0  0  0  0  0  0
  -21.9197   -4.6966   22.3389 C   0  0  0  0  0  0
  -22.7684  -13.5145   21.1885 C   0  0  0  0  0  0
  -22.1661   -4.2146   21.0965 F   0  0  0  0  0  0
  -21.5633   -3.4539   25.7726 F   0  0  0  0  0  0
  -29.6906  -14.5697   20.2584 N   0  0  0  0  0  0
  -26.2757  -12.9748   20.3298 N   0  0  0  0  0  0
  -25.9409  -11.6779   20.5687 N   0  0  0  0  0  0
  -22.0348  -12.8148   22.0448 N   0  0  0  0  0  0
  -25.3832  -15.2072   20.4298 N   0  0  0  0  0  0
  -31.3936  -15.8901   20.1029 O   0  0  0  0  0  0
  -21.6661   -6.8888   21.4242 O   0  0  0  0  0  0
  -22.3354  -14.5428   20.6691 O   0  0  0  0  0  0
  -24.7071  -31.7703   23.1293 C   0  0  0  0  0  0
  -25.9524  -32.4329   23.7943 C   0  0  1  0  0  0
  -27.2513  -26.4466   20.2363 C   0  0  0  0  0  0
  -25.5990  -33.8170   24.1804 N   0  0  0  0  0  0
  -23.5467  -30.3590   21.4880 C   0  0  2  0  0  0
  -25.0115  -28.6445   20.1240 C   0  0  0  0  0  0
  -22.7869  -29.4159   22.4625 C   0  0  0  0  0  0
  -18.0352  -28.1442   22.8451 C   0  0  0  0  0  0
  -24.1491  -36.7079   23.2661 C   0  0  0  0  0  0
  -26.1373  -30.4167   21.4368 C   0  0  0  0  0  0
  -26.2023  -28.9529   20.7904 C   0  0  0  0  0  0
  -27.2883  -27.8890   20.8128 C   0  0  0  0  0  0
  -26.0314  -26.4185   19.4925 C   0  0  0  0  0  0
  -24.9822  -27.4059   19.4503 C   0  0  0  0  0  0
  -23.8171  -29.6287   20.1355 C   0  0  0  0  0  0
  -25.4161  -36.2822   24.0263 C   0  0  1  0  0  0
  -20.5998  -28.3812   23.1088 C   0  0  2  0  0  0
  -20.6804  -26.9446   22.5409 C   0  0  0  0  0  0
  -19.5784  -26.6368   21.5219 C   0  0  0  0  0  0
  -18.1968  -26.7963   22.1621 C   0  0  0  0  0  0
  -19.1625  -28.8961   23.2745 C   0  0  0  0  0  0
  -18.9525  -30.1535   23.8812 C   0  0  0  0  0  0
  -17.6511  -30.6624   24.0552 C   0  0  0  0  0  0
  -25.9156  -34.9213   23.4901 C   0  0  0  0  0  0
  -16.5400  -29.9100   23.6363 C   0  0  0  0  0  0
  -16.7331  -28.6515   23.0393 C   0  0  0  0  0  0
  -26.4636  -31.6475   25.0671 C   0  0  0  0  0  0
  -25.3615  -31.3859   26.1214 C   0  0  0  0  0  0
  -27.0594  -30.2775   24.6774 C   0  0  0  0  0  0
  -27.6047  -32.4397   25.7494 C   0  0  0  0  0  0
  -27.5563  -37.1697   24.8466 C   0  0  0  0  0  0
  -21.4490  -29.3005   22.3367 N   0  0  0  0  0  0
  -26.4268  -37.3609   23.9409 N   0  0  0  0  0  0
  -24.8228  -30.8894   22.0684 N   0  0  0  0  0  0
  -23.4193  -28.7817   23.3096 O   0  0  0  0  0  0
  -28.1811  -25.1154   20.3733 O   0  0  0  0  0  0
  -26.5845  -34.8831   22.4548 O   0  0  0  0  0  0
  -23.6035  -32.0893   23.6081 O   0  0  0  0  0  0
  -29.8586  -21.5589   21.6057 C   0  0  0  0  0  0
  -27.4525  -20.9328   21.3300 C   0  0  0  0  0  0
  -29.3582  -19.3477   19.9976 C   0  0  0  0  0  0
  -28.3205  -23.2590   19.9813 C   0  0  0  0  0  0
  -28.7484  -21.2770   20.5833 C   0  0  0  0  0  0
  -29.4074  -17.4719   20.3748 N   0  0  0  0  0  0
  -31.3588  -13.6699   19.1605 H   0  0  0  0  0  0
  -30.6461  -12.5808   20.2828 H   0  0  0  0  0  0
  -30.1009  -11.9284   17.9140 H   0  0  0  0  0  0
  -29.4664  -13.5234   17.5950 H   0  0  0  0  0  0
  -28.2661  -11.3556   19.3266 H   0  0  0  0  0  0
  -27.5107  -12.1667   17.9716 H   0  0  0  0  0  0
  -27.4078  -14.2247   19.1923 H   0  0  0  0  0  0
  -28.9061  -13.0012   21.5506 H   0  0  0  0  0  0
  -28.0650  -14.5223   21.5939 H   0  0  0  0  0  0
  -25.2828   -9.5683   22.4737 H   0  0  0  0  0  0
  -24.0028   -7.4654   22.7507 H   0  0  0  0  0  0
  -21.0867   -8.8790   19.8976 H   0  0  0  0  0  0
  -22.3749  -10.9669   19.6130 H   0  0  0  0  0  0
  -21.2014   -7.6150   23.9693 H   0  0  0  0  0  0
  -21.1506   -6.0529   25.9065 H   0  0  0  0  0  0
  -22.0586   -2.7609   23.2819 H   0  0  0  0  0  0
  -22.4024  -11.9876   22.4911 H   0  0  0  0  0  0
  -21.0946  -13.1137   22.2608 H   0  0  0  0  0  0
  -24.6116  -15.8560   20.5398 H   0  0  0  0  0  0
  -26.2267  -15.6463   20.0871 H   0  0  0  0  0  0
  -26.7624  -32.4746   23.0661 H   0  0  0  0  0  0
  -24.9987  -33.9177   24.9857 H   0  0  0  0  0  0
  -22.8875  -31.2030   21.2738 H   0  0  0  0  0  0
  -23.3791  -35.9370   23.3275 H   0  0  0  0  0  0
  -24.3522  -36.8811   22.2082 H   0  0  0  0  0  0
  -23.7222  -37.6222   23.6790 H   0  0  0  0  0  0
  -26.3726  -31.1273   20.6441 H   0  0  0  0  0  0
  -26.9739  -30.4924   22.1173 H   0  0  0  0  0  0
  -28.1712  -28.1405   21.3827 H   0  0  0  0  0  0
  -25.8333  -25.4996   18.9576 H   0  0  0  0  0  0
  -24.0933  -27.1579   18.8870 H   0  0  0  0  0  0
  -24.0098  -30.3776   19.3661 H   0  0  0  0  0  0
  -22.9185  -29.1037   19.8069 H   0  0  0  0  0  0
  -25.1388  -36.1557   25.0754 H   0  0  0  0  0  0
  -21.0086  -28.3474   24.1211 H   0  0  0  0  0  0
  -20.5626  -26.2457   23.3701 H   0  0  0  0  0  0
  -21.6663  -26.7336   22.1256 H   0  0  0  0  0  0
  -19.6928  -25.6246   21.1331 H   0  0  0  0  0  0
  -19.6742  -27.3114   20.6698 H   0  0  0  0  0  0
  -17.4236  -26.6716   21.4026 H   0  0  0  0  0  0
  -18.0350  -26.0122   22.9035 H   0  0  0  0  0  0
  -19.8001  -30.7368   24.2154 H   0  0  0  0  0  0
  -17.5065  -31.6294   24.5168 H   0  0  0  0  0  0
  -15.5400  -30.2986   23.7723 H   0  0  0  0  0  0
  -15.8728  -28.0796   22.7182 H   0  0  0  0  0  0
  -24.5831  -30.7207   25.7455 H   0  0  0  0  0  0
  -24.8770  -32.3100   26.4369 H   0  0  0  0  0  0
  -25.7693  -30.9157   27.0169 H   0  0  0  0  0  0
  -26.3335  -29.6316   24.1822 H   0  0  0  0  0  0
  -27.3953  -29.7338   25.5616 H   0  0  0  0  0  0
  -27.9369  -30.3828   24.0391 H   0  0  0  0  0  0
  -27.2567  -33.3800   26.1783 H   0  0  0  0  0  0
  -28.3994  -32.6801   25.0417 H   0  0  0  0  0  0
  -28.0566  -31.8721   26.5639 H   0  0  0  0  0  0
  -28.2550  -38.0019   24.7511 H   0  0  0  0  0  0
  -28.1096  -36.2538   24.6317 H   0  0  0  0  0  0
  -27.2261  -37.1352   25.8862 H   0  0  0  0  0  0
  -20.9850  -29.8618   21.6355 H   0  0  0  0  0  0
  -26.0084  -38.2654   24.1418 H   0  0  0  0  0  0
  -30.0686  -20.6819   22.2186 H   0  0  0  0  0  0
  -29.5941  -22.3781   22.2743 H   0  0  0  0  0  0
  -30.7843  -21.8340   21.0964 H   0  0  0  0  0  0
  -27.5834  -20.0723   21.9871 H   0  0  0  0  0  0
  -26.6531  -20.6908   20.6283 H   0  0  0  0  0  0
  -27.1123  -21.7691   21.9410 H   0  0  0  0  0  0
  -30.4033  -19.5148   19.7349 H   0  0  0  0  0  0
  -28.8678  -19.2894   19.0248 H   0  0  0  0  0  0
  -27.4231  -23.1217   19.3776 H   0  0  0  0  0  0
  -29.1029  -23.3676   19.2306 H   0  0  0  0  0  0
  -28.4630  -17.2303   20.6449 H   0  0  0  0  0  0
  1 25  1  0  0  0
  1 30  2  0  0  0
  1 76  1  0  0  0
  2  3  1  0  0  0
  2 25  1  0  0  0
  2 77  1  0  0  0
  2 78  1  0  0  0
  3  4  1  0  0  0
  3 79  1  0  0  0
  3 80  1  0  0  0
  4  5  1  0  0  0
  4 81  1  0  0  0
  4 82  1  0  0  0
  5  6  1  0  0  0
  5 26  1  0  0  0
  5 83  1  0  0  0
  6 25  1  0  0  0
  6 84  1  0  0  0
  6 85  1  0  0  0
  7  8  2  0  0  0
  7 26  1  0  0  0
  7 29  1  0  0  0
  8  9  1  0  0  0
  8 22  1  0  0  0
  9 10  1  0  0  0
  9 27  2  0  0  0
 10 11  2  0  0  0
 10 15  1  0  0  0
 11 12  1  0  0  0
 11 86  1  0  0  0
 12 13  2  0  0  0
 12 87  1  0  0  0
 13 14  1  0  0  0
 13 31  1  0  0  0
 14 15  2  0  0  0
 14 88  1  0  0  0
 15 89  1  0  0  0
 16 17  2  0  0  0
 16 21  1  0  0  0
 16 31  1  0  0  0
 17 18  1  0  0  0
 17 90  1  0  0  0
 18 19  2  0  0  0
 18 91  1  0  0  0
 19 20  1  0  0  0
 19 24  1  0  0  0
 20 21  2  0  0  0
 20 92  1  0  0  0
 21 23  1  0  0  0
 22 28  1  0  0  0
 22 32  2  0  0  0
 26 27  1  0  0  0
 28 93  1  0  0  0
 28 94  1  0  0  0
 29 95  1  0  0  0
 29 96  1  0  0  0
 33 34  1  0  0  0
 33 66  1  0  0  0
 33 70  2  0  0  0
 34 36  1  0  0  0
 34 59  1  0  0  0
 34 97  1  0  0  0
 35 44  2  0  0  0
 35 45  1  0  0  0
 35 68  1  0  0  0
 36 56  1  0  0  0
 36 98  1  0  0  0
 37 39  1  0  0  0
 37 47  1  0  0  0
 37 66  1  0  0  0
 37 99  1  0  0  0
 38 43  2  0  0  0
 38 46  1  0  0  0
 38 47  1  0  0  0
 39 64  1  0  0  0
 39 67  2  0  0  0
 40 52  1  0  0  0
 40 53  2  0  0  0
 40 58  1  0  0  0
 41100  1  0  0  0
 41101  1  0  0  0
 41102  1  0  0  0
 41 48  1  0  0  0
 42 43  1  0  0  0
 42 66  1  0  0  0
 42103  1  0  0  0
 42104  1  0  0  0
 43 44  1  0  0  0
 44105  1  0  0  0
 45 46  2  0  0  0
 45106  1  0  0  0
 46107  1  0  0  0
 47108  1  0  0  0
 47109  1  0  0  0
 48 56  1  0  0  0
 48 65  1  0  0  0
 48110  1  0  0  0
 49 50  1  0  0  0
 49 53  1  0  0  0
 49 64  1  0  0  0
 49111  1  0  0  0
 50 51  1  0  0  0
 50112  1  0  0  0
 50113  1  0  0  0
 51 52  1  0  0  0
 51114  1  0  0  0
 51115  1  0  0  0
 52116  1  0  0  0
 52117  1  0  0  0
 53 54  1  0  0  0
 54 55  2  0  0  0
 54118  1  0  0  0
 55 57  1  0  0  0
 55119  1  0  0  0
 56 69  2  0  0  0
 57 58  2  0  0  0
 57120  1  0  0  0
 58121  1  0  0  0
 59 60  1  0  0  0
 59 61  1  0  0  0
 59 62  1  0  0  0
 60122  1  0  0  0
 60123  1  0  0  0
 60124  1  0  0  0
 61125  1  0  0  0
 61126  1  0  0  0
 61127  1  0  0  0
 62128  1  0  0  0
 62129  1  0  0  0
 62130  1  0  0  0
 63 65  1  0  0  0
 63131  1  0  0  0
 63132  1  0  0  0
 63133  1  0  0  0
 64134  1  0  0  0
 65135  1  0  0  0
 68 74  1  0  0  0
 71136  1  0  0  0
 71137  1  0  0  0
 71138  1  0  0  0
 71 75  1  0  0  0
 72 75  1  0  0  0
 72139  1  0  0  0
 72140  1  0  0  0
 72141  1  0  0  0
 73 75  1  0  0  0
 73 76  1  0  0  0
 73142  1  0  0  0
 73143  1  0  0  0
 74 75  1  0  0  0
 74144  1  0  0  0
 74145  1  0  0  0
 76146  1  0  0  0
M  ISO  4   1 100  68 101  74 101  76 100
M  END
> <chiral flag>
0

> <version>
0

> <s_m_source_file>
/data/baiqing/PycharmProjects/Reinvent-master-3.2/result/LINK_invent/BTK/process_docking_weight1_custom_sum_contain_oxygen_bond_distance_aromatic_linkinvent_7_9_3/rearranged_h_0100.sdf

> <i_m_source_file_index>
44

> <r_mmod_Potential_Energy-OPLS-2005>
4154.009765625

> <r_mmod_Stretch_Energy-OPLS-2005>
1946.06066894531

> <r_mmod_Bend_Energy-OPLS-2005>
907.354675292969

> <r_mmod_Torsional_Energy-OPLS-2005>
237.135360717773

> <r_mmod_Improper_Torsional_Energy-OPLS-2005>
4.05898284912109

> <r_mmod_Van_der_Waal_Energy-OPLS-2005>
111.919425964355

> <r_mmod_Electrostatic_Energy-OPLS-2005>
-373.071075439453

> <r_mmod_Solvation_Energy-OPLS-2005>
-217.193542480469

> <b_mmod_Minimization_Converged-OPLS-2005>
0

> <r_mmod_RMS_Derivative-OPLS-2005>
2.43039011955261

$$$$
44
                    3D
 Structure written by MMmdl.
143150  0  0  1  0            999 V2000
  -30.1599  -16.0065   20.3092 C   0  0  0  0  0  0
  -30.3935  -13.3731   19.5187 C   0  0  0  0  0  0
  -29.5598  -12.7500   18.3505 C   0  0  0  0  0  0
  -28.1676  -12.3099   18.8210 C   0  0  0  0  0  0
  -27.5835  -13.3433   19.8034 C   0  0  2  0  0  0
  -28.5790  -13.8376   20.8884 C   0  0  0  0  0  0
  -25.2276  -13.8328   20.5855 C   0  0  0  0  0  0
  -24.1698  -13.0433   20.9315 C   0  0  0  0  0  0
  -24.6450  -11.6959   20.8763 C   0  0  0  0  0  0
  -23.9156  -10.4293   21.0382 C   0  0  0  0  0  0
  -24.3676   -9.4205   21.9172 C   0  0  0  0  0  0
  -23.6325   -8.2252   22.0752 C   0  0  0  0  0  0
  -22.4304   -8.0294   21.3544 C   0  0  0  0  0  0
  -21.9959   -9.0272   20.4641 C   0  0  0  0  0  0
  -22.7315  -10.2137   20.3040 C   0  0  0  0  0  0
  -21.6864   -6.0746   22.5278 C   0  0  0  0  0  0
  -21.4023   -6.5646   23.8213 C   0  0  0  0  0  0
  -21.3661   -5.6796   24.9173 C   0  0  0  0  0  0
  -21.6043   -4.3059   24.7223 C   0  0  0  0  0  0
  -21.8818   -3.8152   23.4343 C   0  0  0  0  0  0
  -21.9196   -4.6971   22.3400 C   0  0  0  0  0  0
  -22.7700  -13.5135   21.1936 C   0  0  0  0  0  0
  -22.1661   -4.2155   21.0978 F   0  0  0  0  0  0
  -21.5626   -3.4540   25.7734 F   0  0  0  0  0  0
  -29.6765  -14.5824   20.1908 N   0  0  0  0  0  0
  -26.2769  -12.9729   20.3291 N   0  0  0  0  0  0
  -25.9413  -11.6759   20.5683 N   0  0  0  0  0  0
  -22.0375  -12.8102   22.0487 N   0  0  0  0  0  0
  -25.3813  -15.2077   20.4302 N   0  0  0  0  0  0
  -31.4074  -15.8745   20.2870 O   0  0  0  0  0  0
  -21.6655   -6.8897   21.4243 O   0  0  0  0  0  0
  -22.3364  -14.5430   20.6772 O   0  0  0  0  0  0
  -24.7088  -31.7706   23.1300 C   0  0  0  0  0  0
  -25.9546  -32.4324   23.7941 C   0  0  1  0  0  0
  -27.2351  -26.4397   20.2498 C   0  0  0  0  0  0
  -25.6017  -33.8161   24.1804 N   0  0  0  0  0  0
  -23.5464  -30.3611   21.4912 C   0  0  2  0  0  0
  -25.0042  -28.6432   20.1351 C   0  0  0  0  0  0
  -22.7877  -29.4165   22.4652 C   0  0  0  0  0  0
  -18.0356  -28.1437   22.8444 C   0  0  0  0  0  0
  -24.1495  -36.7090   23.2660 C   0  0  0  0  0  0
  -26.1378  -30.4180   21.4325 C   0  0  0  0  0  0
  -26.2003  -28.9512   20.7933 C   0  0  0  0  0  0
  -27.2910  -27.8892   20.8034 C   0  0  0  0  0  0
  -25.9989  -26.4062   19.5352 C   0  0  0  0  0  0
  -24.9576  -27.3983   19.4806 C   0  0  0  0  0  0
  -23.8150  -29.6324   20.1399 C   0  0  0  0  0  0
  -25.4155  -36.2810   24.0263 C   0  0  1  0  0  0
  -20.6002  -28.3808   23.1097 C   0  0  2  0  0  0
  -20.6809  -26.9445   22.5407 C   0  0  0  0  0  0
  -19.5788  -26.6365   21.5221 C   0  0  0  0  0  0
  -18.1971  -26.7960   22.1618 C   0  0  0  0  0  0
  -19.1628  -28.8953   23.2743 C   0  0  0  0  0  0
  -18.9529  -30.1529   23.8801 C   0  0  0  0  0  0
  -17.6516  -30.6613   24.0547 C   0  0  0  0  0  0
  -25.9151  -34.9209   23.4888 C   0  0  0  0  0  0
  -16.5404  -29.9089   23.6358 C   0  0  0  0  0  0
  -16.7334  -28.6513   23.0374 C   0  0  0  0  0  0
  -26.4637  -31.6464   25.0670 C   0  0  0  0  0  0
  -25.3632  -31.3855   26.1237 C   0  0  0  0  0  0
  -27.0608  -30.2776   24.6751 C   0  0  0  0  0  0
  -27.6035  -32.4384   25.7504 C   0  0  0  0  0  0
  -27.5552  -37.1703   24.8469 C   0  0  0  0  0  0
  -21.4502  -29.3008   22.3393 N   0  0  0  0  0  0
  -26.4259  -37.3599   23.9406 N   0  0  0  0  0  0
  -24.8245  -30.8895   22.0697 N   0  0  0  0  0  0
  -23.4199  -28.7806   23.3115 O   0  0  0  0  0  0
  -28.1914  -25.1207   20.2210 O   0  0  0  0  0  0
  -26.5825  -34.8839   22.4530 O   0  0  0  0  0  0
  -23.6051  -32.0900   23.6090 O   0  0  0  0  0  0
  -28.4216  -23.2845   22.0223 C   0  0  0  0  0  0
  -28.7925  -21.2930   20.0002 C   0  0  0  0  0  0
  -29.3429  -19.3540   20.6135 C   0  0  0  0  0  0
  -28.1751  -23.2455   20.5121 C   0  0  2  0  0  0
  -29.4056  -17.4715   20.2727 N   0  0  0  0  0  0
  -31.3452  -13.7045   19.1023 H   0  0  0  0  0  0
  -30.6649  -12.6111   20.2517 H   0  0  0  0  0  0
  -30.0922  -11.9093   17.9040 H   0  0  0  0  0  0
  -29.4499  -13.4960   17.5621 H   0  0  0  0  0  0
  -28.2674  -11.3482   19.3260 H   0  0  0  0  0  0
  -27.5011  -12.1497   17.9724 H   0  0  0  0  0  0
  -27.3919  -14.2096   19.1681 H   0  0  0  0  0  0
  -28.9347  -13.0228   21.5213 H   0  0  0  0  0  0
  -28.0766  -14.5368   21.5582 H   0  0  0  0  0  0
  -25.2812   -9.5676   22.4762 H   0  0  0  0  0  0
  -24.0019   -7.4647   22.7484 H   0  0  0  0  0  0
  -21.0886   -8.8807   19.8949 H   0  0  0  0  0  0
  -22.3774  -10.9680   19.6153 H   0  0  0  0  0  0
  -21.2021   -7.6154   23.9718 H   0  0  0  0  0  0
  -21.1482   -6.0525   25.9076 H   0  0  0  0  0  0
  -22.0594   -2.7614   23.2843 H   0  0  0  0  0  0
  -22.4032  -11.9782   22.4878 H   0  0  0  0  0  0
  -21.0976  -13.1082   22.2684 H   0  0  0  0  0  0
  -24.6087  -15.8546   20.5472 H   0  0  0  0  0  0
  -26.2272  -15.6549   20.1031 H   0  0  0  0  0  0
  -26.7655  -32.4735   23.0669 H   0  0  0  0  0  0
  -25.0040  -33.9150   24.9877 H   0  0  0  0  0  0
  -22.8868  -31.2048   21.2777 H   0  0  0  0  0  0
  -23.3778  -35.9396   23.3257 H   0  0  0  0  0  0
  -24.3553  -36.8832   22.2088 H   0  0  0  0  0  0
  -23.7238  -37.6235   23.6799 H   0  0  0  0  0  0
  -26.3643  -31.1220   20.6307 H   0  0  0  0  0  0
  -26.9807  -30.4993   22.1059 H   0  0  0  0  0  0
  -28.1959  -28.1515   21.3333 H   0  0  0  0  0  0
  -25.7912  -25.4857   19.0078 H   0  0  0  0  0  0
  -24.0634  -27.1476   18.9263 H   0  0  0  0  0  0
  -24.0156  -30.3794   19.3710 H   0  0  0  0  0  0
  -22.9138  -29.1139   19.8081 H   0  0  0  0  0  0
  -25.1378  -36.1535   25.0752 H   0  0  0  0  0  0
  -21.0077  -28.3451   24.1226 H   0  0  0  0  0  0
  -20.5652  -26.2441   23.3691 H   0  0  0  0  0  0
  -21.6668  -26.7350   22.1239 H   0  0  0  0  0  0
  -19.6939  -25.6249   21.1314 H   0  0  0  0  0  0
  -19.6736  -27.3123   20.6710 H   0  0  0  0  0  0
  -17.4241  -26.6707   21.4018 H   0  0  0  0  0  0
  -18.0348  -26.0126   22.9035 H   0  0  0  0  0  0
  -19.8004  -30.7370   24.2129 H   0  0  0  0  0  0
  -17.5065  -31.6283   24.5168 H   0  0  0  0  0  0
  -15.5400  -30.2961   23.7737 H   0  0  0  0  0  0
  -15.8735  -28.0798   22.7145 H   0  0  0  0  0  0
  -24.5860  -30.7164   25.7527 H   0  0  0  0  0  0
  -24.8779  -32.3100   26.4375 H   0  0  0  0  0  0
  -25.7750  -30.9204   27.0202 H   0  0  0  0  0  0
  -26.3374  -29.6311   24.1777 H   0  0  0  0  0  0
  -27.3970  -29.7326   25.5582 H   0  0  0  0  0  0
  -27.9376  -30.3845   24.0364 H   0  0  0  0  0  0
  -27.2545  -33.3786   26.1785 H   0  0  0  0  0  0
  -28.3997  -32.6783   25.0445 H   0  0  0  0  0  0
  -28.0537  -31.8717   26.5665 H   0  0  0  0  0  0
  -28.2531  -38.0031   24.7505 H   0  0  0  0  0  0
  -28.1084  -36.2550   24.6312 H   0  0  0  0  0  0
  -27.2265  -37.1355   25.8870 H   0  0  0  0  0  0
  -20.9868  -29.8624   21.6385 H   0  0  0  0  0  0
  -26.0063  -38.2635   24.1418 H   0  0  0  0  0  0
  -28.1887  -22.3246   22.4837 H   0  0  0  0  0  0
  -27.8031  -24.0409   22.5061 H   0  0  0  0  0  0
  -29.4646  -23.5151   22.2391 H   0  0  0  0  0  0
  -28.0253  -21.0494   19.2652 H   0  0  0  0  0  0
  -29.6493  -21.5319   19.3702 H   0  0  0  0  0  0
  -28.7841  -19.3052   21.5485 H   0  0  0  0  0  0
  -30.3661  -19.5183   20.9524 H   0  0  0  0  0  0
  -27.0994  -23.1024   20.4048 H   0  0  0  0  0  0
  -28.4475  -17.2145   20.0756 H   0  0  0  0  0  0
  1 25  1  0  0  0
  1 30  2  0  0  0
  1 75  1  0  0  0
  2  3  1  0  0  0
  2 25  1  0  0  0
  2 76  1  0  0  0
  2 77  1  0  0  0
  3  4  1  0  0  0
  3 78  1  0  0  0
  3 79  1  0  0  0
  4  5  1  0  0  0
  4 80  1  0  0  0
  4 81  1  0  0  0
  5  6  1  0  0  0
  5 26  1  0  0  0
  5 82  1  0  0  0
  6 25  1  0  0  0
  6 83  1  0  0  0
  6 84  1  0  0  0
  7  8  2  0  0  0
  7 26  1  0  0  0
  7 29  1  0  0  0
  8  9  1  0  0  0
  8 22  1  0  0  0
  9 10  1  0  0  0
  9 27  2  0  0  0
 10 11  2  0  0  0
 10 15  1  0  0  0
 11 12  1  0  0  0
 11 85  1  0  0  0
 12 13  2  0  0  0
 12 86  1  0  0  0
 13 14  1  0  0  0
 13 31  1  0  0  0
 14 15  2  0  0  0
 14 87  1  0  0  0
 15 88  1  0  0  0
 16 17  2  0  0  0
 16 21  1  0  0  0
 16 31  1  0  0  0
 17 18  1  0  0  0
 17 89  1  0  0  0
 18 19  2  0  0  0
 18 90  1  0  0  0
 19 20  1  0  0  0
 19 24  1  0  0  0
 20 21  2  0  0  0
 20 91  1  0  0  0
 21 23  1  0  0  0
 22 28  1  0  0  0
 22 32  2  0  0  0
 26 27  1  0  0  0
 28 92  1  0  0  0
 28 93  1  0  0  0
 29 94  1  0  0  0
 29 95  1  0  0  0
 33 34  1  0  0  0
 33 66  1  0  0  0
 33 70  2  0  0  0
 34 36  1  0  0  0
 34 59  1  0  0  0
 34 96  1  0  0  0
 35 44  2  0  0  0
 35 45  1  0  0  0
 35 68  1  0  0  0
 36 56  1  0  0  0
 36 97  1  0  0  0
 37 39  1  0  0  0
 37 47  1  0  0  0
 37 66  1  0  0  0
 37 98  1  0  0  0
 38 43  2  0  0  0
 38 46  1  0  0  0
 38 47  1  0  0  0
 39 64  1  0  0  0
 39 67  2  0  0  0
 40 52  1  0  0  0
 40 53  2  0  0  0
 40 58  1  0  0  0
 41 99  1  0  0  0
 41100  1  0  0  0
 41101  1  0  0  0
 41 48  1  0  0  0
 42 43  1  0  0  0
 42 66  1  0  0  0
 42102  1  0  0  0
 42103  1  0  0  0
 43 44  1  0  0  0
 44104  1  0  0  0
 45 46  2  0  0  0
 45105  1  0  0  0
 46106  1  0  0  0
 47107  1  0  0  0
 47108  1  0  0  0
 48 56  1  0  0  0
 48 65  1  0  0  0
 48109  1  0  0  0
 49 50  1  0  0  0
 49 53  1  0  0  0
 49 64  1  0  0  0
 49110  1  0  0  0
 50 51  1  0  0  0
 50111  1  0  0  0
 50112  1  0  0  0
 51 52  1  0  0  0
 51113  1  0  0  0
 51114  1  0  0  0
 52115  1  0  0  0
 52116  1  0  0  0
 53 54  1  0  0  0
 54 55  2  0  0  0
 54117  1  0  0  0
 55 57  1  0  0  0
 55118  1  0  0  0
 56 69  2  0  0  0
 57 58  2  0  0  0
 57119  1  0  0  0
 58120  1  0  0  0
 59 60  1  0  0  0
 59 61  1  0  0  0
 59 62  1  0  0  0
 60121  1  0  0  0
 60122  1  0  0  0
 60123  1  0  0  0
 61124  1  0  0  0
 61125  1  0  0  0
 61126  1  0  0  0
 62127  1  0  0  0
 62128  1  0  0  0
 62129  1  0  0  0
 63 65  1  0  0  0
 63130  1  0  0  0
 63131  1  0  0  0
 63132  1  0  0  0
 64133  1  0  0  0
 65134  1  0  0  0
 68 74  1  0  0  0
 71135  1  0  0  0
 71136  1  0  0  0
 71137  1  0  0  0
 71 74  1  0  0  0
 72 73  1  0  0  0
 72 74  1  0  0  0
 72138  1  0  0  0
 72139  1  0  0  0
 73 75  1  0  0  0
 73140  1  0  0  0
 73141  1  0  0  0
 74142  1  0  0  0
 75143  1  0  0  0
M  ISO  4   1 100  68 101  74 101  75 100
M  END
> <chiral flag>
0

> <version>
0

> <s_m_source_file>
/data/baiqing/PycharmProjects/Reinvent-master-3.2/result/LINK_invent/BTK/process_docking_weight1_custom_sum_contain_oxygen_bond_distance_aromatic_linkinvent_7_9_3/rearranged_h_0100.sdf

> <i_m_source_file_index>
45

> <r_mmod_Potential_Energy-OPLS-2005>
4163.64404296875

> <r_mmod_Stretch_Energy-OPLS-2005>
1928.9091796875

> <r_mmod_Bend_Energy-OPLS-2005>
898.639953613281

> <r_mmod_Torsional_Energy-OPLS-2005>
250.23063659668

> <r_mmod_Improper_Torsional_Energy-OPLS-2005>
5.06112670898438

> <r_mmod_Van_der_Waal_Energy-OPLS-2005>
111.411064147949

> <r_mmod_Electrostatic_Energy-OPLS-2005>
-349.921966552734

> <r_mmod_Solvation_Energy-OPLS-2005>
-219.875640869141

> <b_mmod_Minimization_Converged-OPLS-2005>
0

> <r_mmod_RMS_Derivative-OPLS-2005>
0.312528491020203

$$$$
45
                    3D
 Structure written by MMmdl.
178186  0  0  1  0            999 V2000
  -30.7252  -14.5225   20.3946 C   0  0  0  0  0  0
  -30.4114  -12.2876   19.4443 C   0  0  0  0  0  0
  -29.4951  -12.3990   18.2092 C   0  0  0  0  0  0
  -28.0081  -12.3273   18.6219 C   0  0  0  0  0  0
  -27.6391  -13.2045   19.8545 C   0  0  2  0  0  0
  -28.7018  -13.1084   20.9709 C   0  0  0  0  0  0
  -25.2516  -13.8132   20.5723 C   0  0  0  0  0  0
  -24.1769  -13.0422   20.9218 C   0  0  0  0  0  0
  -24.6330  -11.6886   20.8802 C   0  0  0  0  0  0
  -23.9011  -10.4269   21.0463 C   0  0  0  0  0  0
  -24.3583   -9.4173   21.9218 C   0  0  0  0  0  0
  -23.6254   -8.2214   22.0765 C   0  0  0  0  0  0
  -22.4239   -8.0261   21.3553 C   0  0  0  0  0  0
  -21.9883   -9.0231   20.4648 C   0  0  0  0  0  0
  -22.7209  -10.2109   20.3075 C   0  0  0  0  0  0
  -21.6842   -6.0697   22.5273 C   0  0  0  0  0  0
  -21.4015   -6.5604   23.8206 C   0  0  0  0  0  0
  -21.3660   -5.6763   24.9173 C   0  0  0  0  0  0
  -21.6055   -4.3024   24.7230 C   0  0  0  0  0  0
  -21.8826   -3.8115   23.4349 C   0  0  0  0  0  0
  -21.9188   -4.6928   22.3398 C   0  0  0  0  0  0
  -22.7792  -13.5229   21.1863 C   0  0  0  0  0  0
  -22.1649   -4.2126   21.0969 F   0  0  0  0  0  0
  -21.5646   -3.4503   25.7733 F   0  0  0  0  0  0
  -30.0186  -13.3587   20.3654 N   0  0  0  0  0  0
  -26.2931  -12.9280   20.3383 N   0  0  0  0  0  0
  -25.9253  -11.6458   20.5843 N   0  0  0  0  0  0
  -22.0421  -12.8232   22.0409 N   0  0  0  0  0  0
  -25.4215  -15.1867   20.4139 N   0  0  0  0  0  0
  -31.9496  -14.5511   20.3042 O   0  0  0  0  0  0
  -21.6621   -6.8849   21.4239 O   0  0  0  0  0  0
  -22.3488  -14.5525   20.6686 O   0  0  0  0  0  0
  -24.6116  -31.8679   23.2112 C   0  0  0  0  0  0
  -25.9007  -32.4832   23.8392 C   0  0  1  0  0  0
  -27.2569  -27.4572   20.0938 C   0  0  0  0  0  0
  -25.5875  -33.8625   24.2333 N   0  0  0  0  0  0
  -23.3999  -30.4878   21.5503 C   0  0  2  0  0  0
  -24.8537  -28.9584   20.1160 C   0  0  0  0  0  0
  -22.7401  -29.4642   22.4991 C   0  0  0  0  0  0
  -18.0270  -28.1390   22.8519 C   0  0  0  0  0  0
  -24.1490  -36.7299   23.2641 C   0  0  0  0  0  0
  -25.9259  -30.8405   21.3632 C   0  0  0  0  0  0
  -26.0078  -29.4741   20.7158 C   0  0  0  0  0  0
  -27.2107  -28.7306   20.7130 C   0  0  0  0  0  0
  -26.0844  -26.9552   19.4948 C   0  0  0  0  0  0
  -24.8837  -27.6933   19.5054 C   0  0  0  0  0  0
  -23.6096  -29.8168   20.1658 C   0  0  0  0  0  0
  -25.4114  -36.3106   24.0337 C   0  0  1  0  0  0
  -20.5865  -28.3671   23.1335 C   0  0  2  0  0  0
  -20.6752  -26.9401   22.5438 C   0  0  0  0  0  0
  -19.5747  -26.6394   21.5223 C   0  0  0  0  0  0
  -18.1915  -26.7949   22.1620 C   0  0  0  0  0  0
  -19.1519  -28.8857   23.2933 C   0  0  0  0  0  0
  -18.9445  -30.1462   23.8940 C   0  0  0  0  0  0
  -17.6443  -30.6605   24.0585 C   0  0  0  0  0  0
  -25.9042  -34.9468   23.5137 C   0  0  0  0  0  0
  -16.5344  -29.9112   23.6321 C   0  0  0  0  0  0
  -16.7263  -28.6511   23.0386 C   0  0  0  0  0  0
  -26.4436  -31.6601   25.0703 C   0  0  0  0  0  0
  -25.3688  -31.3706   26.1431 C   0  0  0  0  0  0
  -27.0296  -30.3060   24.6068 C   0  0  0  0  0  0
  -27.5993  -32.4317   25.7494 C   0  0  0  0  0  0
  -27.5588  -37.1804   24.8456 C   0  0  0  0  0  0
  -21.4134  -29.3031   22.3735 N   0  0  0  0  0  0
  -26.4305  -37.3789   23.9398 N   0  0  0  0  0  0
  -24.6631  -31.0806   22.0997 N   0  0  0  0  0  0
  -23.4174  -28.8181   23.3027 O   0  0  0  0  0  0
  -28.3809  -26.6563   20.0084 O   0  0  0  0  0  0
  -26.5606  -34.8916   22.4701 O   0  0  0  0  0  0
  -23.5316  -32.1389   23.7524 O   0  0  0  0  0  0
  -30.4933  -21.4363   20.2449 C   0  0  0  0  0  0
  -30.4960  -20.0263   20.2361 C   0  0  0  0  0  0
  -32.6306  -21.4073   21.3729 C   0  0  0  0  0  0
  -31.5803  -22.1452   20.7868 C   0  0  0  0  0  0
  -31.5695  -19.2677   20.7740 C   0  0  0  0  0  0
  -32.6516  -19.9880   21.3759 C   0  0  0  0  0  0
  -34.0068  -19.6205   23.4846 C   0  0  0  0  0  0
  -35.1793  -19.7114   21.2356 C   0  0  0  0  0  0
  -30.0122  -16.8124   22.3224 C   0  0  0  0  0  0
  -29.6811  -15.8755   18.6913 C   0  0  0  0  0  0
  -31.7170  -23.6626   20.6251 C   0  0  0  0  0  0
  -30.4505  -24.5275   20.8581 C   0  0  0  0  0  0
  -30.6941  -26.0084   20.4705 C   0  0  0  0  0  0
  -29.5385  -26.9904   20.7669 C   0  0  0  0  0  0
  -32.3606  -17.5049   19.1752 C   0  0  0  0  0  0
  -31.5959  -17.7348   20.5153 C   0  0  2  0  0  0
  -33.8936  -19.3176   21.9828 C   0  0  0  0  0  0
  -30.2312  -16.9703   20.8010 C   0  0  1  0  0  0
  -30.0254  -15.6591   20.1131 N   0  0  0  0  0  0
  -31.7578  -18.1080   18.0393 O   0  0  0  0  0  0
  -31.4594  -12.3578   19.1465 H   0  0  0  0  0  0
  -30.2909  -11.3161   19.9273 H   0  0  0  0  0  0
  -29.7219  -11.5878   17.5147 H   0  0  0  0  0  0
  -29.7018  -13.3116   17.6550 H   0  0  0  0  0  0
  -27.7952  -11.2826   18.8493 H   0  0  0  0  0  0
  -27.3727  -12.5790   17.7709 H   0  0  0  0  0  0
  -27.6097  -14.2338   19.5250 H   0  0  0  0  0  0
  -28.6811  -12.1223   21.4375 H   0  0  0  0  0  0
  -28.4911  -13.8332   21.7597 H   0  0  0  0  0  0
  -25.2746   -9.5613   22.4779 H   0  0  0  0  0  0
  -23.9966   -7.4584   22.7454 H   0  0  0  0  0  0
  -21.0841   -8.8729   19.8918 H   0  0  0  0  0  0
  -22.3704  -10.9640   19.6156 H   0  0  0  0  0  0
  -21.2004   -7.6111   23.9707 H   0  0  0  0  0  0
  -21.1492   -6.0490   25.9076 H   0  0  0  0  0  0
  -22.0614   -2.7579   23.2849 H   0  0  0  0  0  0
  -22.4040  -11.9926   22.4863 H   0  0  0  0  0  0
  -21.1008  -13.1212   22.2560 H   0  0  0  0  0  0
  -24.6561  -15.8419   20.5299 H   0  0  0  0  0  0
  -26.2859  -15.6313   20.1316 H   0  0  0  0  0  0
  -26.7087  -32.5567   23.1170 H   0  0  0  0  0  0
  -25.0053  -33.9787   25.0499 H   0  0  0  0  0  0
  -22.6861  -31.3027   21.4097 H   0  0  0  0  0  0
  -23.3763  -35.9627   23.3299 H   0  0  0  0  0  0
  -24.3589  -36.8919   22.2054 H   0  0  0  0  0  0
  -23.7232  -37.6494   23.6663 H   0  0  0  0  0  0
  -26.0310  -31.6087   20.5952 H   0  0  0  0  0  0
  -26.8155  -30.8994   21.9777 H   0  0  0  0  0  0
  -28.0881  -29.1542   21.1795 H   0  0  0  0  0  0
  -26.1013  -25.9852   19.0185 H   0  0  0  0  0  0
  -23.9964  -27.2874   19.0393 H   0  0  0  0  0  0
  -23.7059  -30.5901   19.4030 H   0  0  0  0  0  0
  -22.7365  -29.2275   19.8767 H   0  0  0  0  0  0
  -25.1300  -36.1978   25.0835 H   0  0  0  0  0  0
  -20.9966  -28.3249   24.1457 H   0  0  0  0  0  0
  -20.5633  -26.2282   23.3631 H   0  0  0  0  0  0
  -21.6625  -26.7419   22.1255 H   0  0  0  0  0  0
  -19.6900  -25.6309   21.1239 H   0  0  0  0  0  0
  -19.6708  -27.3214   20.6761 H   0  0  0  0  0  0
  -17.4192  -26.6763   21.3997 H   0  0  0  0  0  0
  -18.0281  -26.0065   22.8976 H   0  0  0  0  0  0
  -19.7909  -30.7275   24.2329 H   0  0  0  0  0  0
  -17.4985  -31.6274   24.5204 H   0  0  0  0  0  0
  -15.5344  -30.3037   23.7592 H   0  0  0  0  0  0
  -15.8666  -28.0814   22.7133 H   0  0  0  0  0  0
  -24.5929  -30.6970   25.7770 H   0  0  0  0  0  0
  -24.8792  -32.2863   26.4758 H   0  0  0  0  0  0
  -25.8034  -30.8980   27.0246 H   0  0  0  0  0  0
  -26.2872  -29.6844   24.1044 H   0  0  0  0  0  0
  -27.3997  -29.7270   25.4536 H   0  0  0  0  0  0
  -27.8714  -30.4409   23.9276 H   0  0  0  0  0  0
  -27.2589  -33.3605   26.2085 H   0  0  0  0  0  0
  -28.3815  -32.6886   25.0339 H   0  0  0  0  0  0
  -28.0626  -31.8410   26.5409 H   0  0  0  0  0  0
  -28.2597  -38.0104   24.7520 H   0  0  0  0  0  0
  -28.1089  -36.2631   24.6281 H   0  0  0  0  0  0
  -27.2287  -37.1461   25.8854 H   0  0  0  0  0  0
  -20.9289  -29.8747   21.6953 H   0  0  0  0  0  0
  -26.0189  -38.2863   24.1423 H   0  0  0  0  0  0
  -29.6783  -21.9624   19.7690 H   0  0  0  0  0  0
  -29.6827  -19.5391   19.7204 H   0  0  0  0  0  0
  -33.4743  -21.9464   21.7817 H   0  0  0  0  0  0
  -33.1174  -19.2831   24.0165 H   0  0  0  0  0  0
  -34.1235  -20.6869   23.6756 H   0  0  0  0  0  0
  -34.8662  -19.1146   23.9260 H   0  0  0  0  0  0
  -35.1034  -19.4703   20.1753 H   0  0  0  0  0  0
  -36.0408  -19.1726   21.6331 H   0  0  0  0  0  0
  -35.3974  -20.7760   21.3189 H   0  0  0  0  0  0
  -30.0586  -17.7777   22.8277 H   0  0  0  0  0  0
  -30.7662  -16.1752   22.7840 H   0  0  0  0  0  0
  -29.0334  -16.3853   22.5413 H   0  0  0  0  0  0
  -29.3417  -16.8876   18.4748 H   0  0  0  0  0  0
  -28.8888  -15.2342   18.3293 H   0  0  0  0  0  0
  -30.5394  -15.6766   18.0470 H   0  0  0  0  0  0
  -32.0801  -23.8309   19.6095 H   0  0  0  0  0  0
  -32.5111  -24.0187   21.2823 H   0  0  0  0  0  0
  -30.1375  -24.4569   21.9009 H   0  0  0  0  0  0
  -29.6223  -24.1528   20.2564 H   0  0  0  0  0  0
  -30.9429  -26.0648   19.4094 H   0  0  0  0  0  0
  -31.5785  -26.3673   20.9979 H   0  0  0  0  0  0
  -29.8695  -27.9924   20.4945 H   0  0  0  0  0  0
  -29.3064  -26.9941   21.8328 H   0  0  0  0  0  0
  -32.5350  -16.4543   18.9626 H   0  0  0  0  0  0
  -33.3601  -17.9308   19.2686 H   0  0  0  0  0  0
  -32.2401  -17.2699   21.2523 H   0  0  0  0  0  0
  -33.8495  -18.2384   21.9056 H   0  0  0  0  0  0
  -29.4018  -17.5947   20.4794 H   0  0  0  0  0  0
  -30.8879  -17.7395   17.9373 H   0  0  0  0  0  0
  1 25  1  0  0  0
  1 30  2  0  0  0
  1 89  1  0  0  0
  2  3  1  0  0  0
  2 25  1  0  0  0
  2 91  1  0  0  0
  2 92  1  0  0  0
  3  4  1  0  0  0
  3 93  1  0  0  0
  3 94  1  0  0  0
  4  5  1  0  0  0
  4 95  1  0  0  0
  4 96  1  0  0  0
  5  6  1  0  0  0
  5 26  1  0  0  0
  5 97  1  0  0  0
  6 25  1  0  0  0
  6 98  1  0  0  0
  6 99  1  0  0  0
  7  8  2  0  0  0
  7 26  1  0  0  0
  7 29  1  0  0  0
  8  9  1  0  0  0
  8 22  1  0  0  0
  9 10  1  0  0  0
  9 27  2  0  0  0
 10 11  2  0  0  0
 10 15  1  0  0  0
 11 12  1  0  0  0
 11100  1  0  0  0
 12 13  2  0  0  0
 12101  1  0  0  0
 13 14  1  0  0  0
 13 31  1  0  0  0
 14 15  2  0  0  0
 14102  1  0  0  0
 15103  1  0  0  0
 16 17  2  0  0  0
 16 21  1  0  0  0
 16 31  1  0  0  0
 17 18  1  0  0  0
 17104  1  0  0  0
 18 19  2  0  0  0
 18105  1  0  0  0
 19 20  1  0  0  0
 19 24  1  0  0  0
 20 21  2  0  0  0
 20106  1  0  0  0
 21 23  1  0  0  0
 22 28  1  0  0  0
 22 32  2  0  0  0
 26 27  1  0  0  0
 28107  1  0  0  0
 28108  1  0  0  0
 29109  1  0  0  0
 29110  1  0  0  0
 33 34  1  0  0  0
 33 66  1  0  0  0
 33 70  2  0  0  0
 34 36  1  0  0  0
 34 59  1  0  0  0
 34111  1  0  0  0
 35 44  2  0  0  0
 35 45  1  0  0  0
 35 68  1  0  0  0
 36 56  1  0  0  0
 36112  1  0  0  0
 37 39  1  0  0  0
 37 47  1  0  0  0
 37 66  1  0  0  0
 37113  1  0  0  0
 38 43  2  0  0  0
 38 46  1  0  0  0
 38 47  1  0  0  0
 39 64  1  0  0  0
 39 67  2  0  0  0
 40 52  1  0  0  0
 40 53  2  0  0  0
 40 58  1  0  0  0
 41114  1  0  0  0
 41115  1  0  0  0
 41116  1  0  0  0
 41 48  1  0  0  0
 42 43  1  0  0  0
 42 66  1  0  0  0
 42117  1  0  0  0
 42118  1  0  0  0
 43 44  1  0  0  0
 44119  1  0  0  0
 45 46  2  0  0  0
 45120  1  0  0  0
 46121  1  0  0  0
 47122  1  0  0  0
 47123  1  0  0  0
 48 56  1  0  0  0
 48 65  1  0  0  0
 48124  1  0  0  0
 49 50  1  0  0  0
 49 53  1  0  0  0
 49 64  1  0  0  0
 49125  1  0  0  0
 50 51  1  0  0  0
 50126  1  0  0  0
 50127  1  0  0  0
 51 52  1  0  0  0
 51128  1  0  0  0
 51129  1  0  0  0
 52130  1  0  0  0
 52131  1  0  0  0
 53 54  1  0  0  0
 54 55  2  0  0  0
 54132  1  0  0  0
 55 57  1  0  0  0
 55133  1  0  0  0
 56 69  2  0  0  0
 57 58  2  0  0  0
 57134  1  0  0  0
 58135  1  0  0  0
 59 60  1  0  0  0
 59 61  1  0  0  0
 59 62  1  0  0  0
 60136  1  0  0  0
 60137  1  0  0  0
 60138  1  0  0  0
 61139  1  0  0  0
 61140  1  0  0  0
 61141  1  0  0  0
 62142  1  0  0  0
 62143  1  0  0  0
 62144  1  0  0  0
 63 65  1  0  0  0
 63145  1  0  0  0
 63146  1  0  0  0
 63147  1  0  0  0
 64148  1  0  0  0
 65149  1  0  0  0
 68 84  1  0  0  0
 71 72  2  0  0  0
 71 74  1  0  0  0
 71150  1  0  0  0
 72 75  1  0  0  0
 72151  1  0  0  0
 73 74  2  0  0  0
 73 76  1  0  0  0
 73152  1  0  0  0
 74 81  1  0  0  0
 75 76  2  0  0  0
 75 86  1  0  0  0
 76 87  1  0  0  0
 77153  1  0  0  0
 77154  1  0  0  0
 77155  1  0  0  0
 77 87  1  0  0  0
 78 87  1  0  0  0
 78156  1  0  0  0
 78157  1  0  0  0
 78158  1  0  0  0
 79159  1  0  0  0
 79160  1  0  0  0
 79161  1  0  0  0
 79 88  1  0  0  0
 80 89  1  0  0  0
 80162  1  0  0  0
 80163  1  0  0  0
 80164  1  0  0  0
 81 82  1  0  0  0
 81165  1  0  0  0
 81166  1  0  0  0
 82 83  1  0  0  0
 82167  1  0  0  0
 82168  1  0  0  0
 83 84  1  0  0  0
 83169  1  0  0  0
 83170  1  0  0  0
 84171  1  0  0  0
 84172  1  0  0  0
 85 90  1  0  0  0
 85173  1  0  0  0
 85174  1  0  0  0
 85 86  1  0  0  0
 86 88  1  0  0  0
 86175  1  0  0  0
 87176  1  0  0  0
 88 89  1  0  0  0
 88177  1  0  0  0
 90178  1  0  0  0
M  ISO  4   1 100  68 101  84 101  89 100
M  END
> <chiral flag>
0

> <version>
0

> <s_m_source_file>
/data/baiqing/PycharmProjects/Reinvent-master-3.2/result/LINK_invent/BTK/process_docking_weight1_custom_sum_contain_oxygen_bond_distance_aromatic_linkinvent_7_9_3/rearranged_h_0100.sdf

> <i_m_source_file_index>
46

> <r_mmod_Potential_Energy-OPLS-2005>
256.448669433594

> <r_mmod_Stretch_Energy-OPLS-2005>
51.5102272033691

> <r_mmod_Bend_Energy-OPLS-2005>
140.893188476562

> <r_mmod_Torsional_Energy-OPLS-2005>
315.175384521484

> <r_mmod_Improper_Torsional_Energy-OPLS-2005>
15.1524238586426

> <r_mmod_Van_der_Waal_Energy-OPLS-2005>
162.856231689453

> <r_mmod_Electrostatic_Energy-OPLS-2005>
-268.364349365234

> <r_mmod_Solvation_Energy-OPLS-2005>
-196.575134277344

> <b_mmod_Minimization_Converged-OPLS-2005>
0

> <r_mmod_RMS_Derivative-OPLS-2005>
2.88412475585938

$$$$
46
                    3D
 Structure written by MMmdl.
157165  0  0  1  0            999 V2000
  -30.6314  -14.8264   20.4443 C   0  0  0  0  0  0
  -30.4208  -12.5170   19.4739 C   0  0  0  0  0  0
  -29.4999  -12.5055   18.2363 C   0  0  0  0  0  0
  -28.0353  -12.3043   18.6644 C   0  0  0  0  0  0
  -27.6260  -13.2342   19.8362 C   0  0  2  0  0  0
  -28.6746  -13.2544   20.9684 C   0  0  0  0  0  0
  -25.2454  -13.8183   20.5716 C   0  0  0  0  0  0
  -24.1761  -13.0424   20.9235 C   0  0  0  0  0  0
  -24.6366  -11.6906   20.8775 C   0  0  0  0  0  0
  -23.9053  -10.4285   21.0428 C   0  0  0  0  0  0
  -24.3608   -9.4200   21.9200 C   0  0  0  0  0  0
  -23.6286   -8.2234   22.0757 C   0  0  0  0  0  0
  -22.4271   -8.0276   21.3545 C   0  0  0  0  0  0
  -21.9912   -9.0246   20.4644 C   0  0  0  0  0  0
  -22.7235  -10.2128   20.3064 C   0  0  0  0  0  0
  -21.6850   -6.0734   22.5278 C   0  0  0  0  0  0
  -21.4012   -6.5639   23.8212 C   0  0  0  0  0  0
  -21.3656   -5.6791   24.9175 C   0  0  0  0  0  0
  -21.6046   -4.3055   24.7226 C   0  0  0  0  0  0
  -21.8817   -3.8147   23.4347 C   0  0  0  0  0  0
  -21.9191   -4.6964   22.3402 C   0  0  0  0  0  0
  -22.7786  -13.5209   21.1886 C   0  0  0  0  0  0
  -22.1661   -4.2149   21.0981 F   0  0  0  0  0  0
  -21.5630   -3.4540   25.7740 F   0  0  0  0  0  0
  -29.9599  -13.6176   20.3604 N   0  0  0  0  0  0
  -26.2864  -12.9388   20.3275 N   0  0  0  0  0  0
  -25.9296  -11.6534   20.5781 N   0  0  0  0  0  0
  -22.0428  -12.8192   22.0431 N   0  0  0  0  0  0
  -25.4129  -15.1902   20.4116 N   0  0  0  0  0  0
  -31.8422  -14.8288   20.2004 O   0  0  0  0  0  0
  -21.6634   -6.8874   21.4238 O   0  0  0  0  0  0
  -22.3480  -14.5522   20.6738 O   0  0  0  0  0  0
  -24.6368  -31.8503   23.1945 C   0  0  0  0  0  0
  -25.9169  -32.4727   23.8309 C   0  0  1  0  0  0
  -27.2113  -27.2033   20.1420 C   0  0  0  0  0  0
  -25.5941  -33.8530   24.2227 N   0  0  0  0  0  0
  -23.4355  -30.4727   21.5402 C   0  0  2  0  0  0
  -24.8822  -28.9117   20.1132 C   0  0  0  0  0  0
  -22.7528  -29.4578   22.4898 C   0  0  0  0  0  0
  -18.0296  -28.1387   22.8480 C   0  0  0  0  0  0
  -24.1488  -36.7268   23.2641 C   0  0  0  0  0  0
  -25.9866  -30.7462   21.3823 C   0  0  0  0  0  0
  -26.0578  -29.3627   20.7267 C   0  0  0  0  0  0
  -27.2268  -28.5240   20.7259 C   0  0  0  0  0  0
  -26.0155  -26.8442   19.4821 C   0  0  0  0  0  0
  -24.8695  -27.6629   19.4773 C   0  0  0  0  0  0
  -23.6561  -29.8059   20.1578 C   0  0  0  0  0  0
  -25.4117  -36.3050   24.0321 C   0  0  1  0  0  0
  -20.5903  -28.3703   23.1256 C   0  0  2  0  0  0
  -20.6782  -26.9416   22.5398 C   0  0  0  0  0  0
  -19.5754  -26.6388   21.5204 C   0  0  0  0  0  0
  -18.1936  -26.7929   22.1619 C   0  0  0  0  0  0
  -19.1552  -28.8864   23.2862 C   0  0  0  0  0  0
  -18.9472  -30.1465   23.8882 C   0  0  0  0  0  0
  -17.6468  -30.6586   24.0565 C   0  0  0  0  0  0
  -25.9064  -34.9422   23.5082 C   0  0  0  0  0  0
  -16.5361  -29.9078   23.6340 C   0  0  0  0  0  0
  -16.7282  -28.6500   23.0354 C   0  0  0  0  0  0
  -26.4517  -31.6568   25.0720 C   0  0  0  0  0  0
  -25.3721  -31.3719   26.1426 C   0  0  0  0  0  0
  -27.0383  -30.2983   24.6240 C   0  0  0  0  0  0
  -27.6061  -32.4325   25.7499 C   0  0  0  0  0  0
  -27.5574  -37.1794   24.8468 C   0  0  0  0  0  0
  -21.4230  -29.3047   22.3648 N   0  0  0  0  0  0
  -26.4286  -37.3755   23.9409 N   0  0  0  0  0  0
  -24.7060  -31.0420   22.0948 N   0  0  0  0  0  0
  -23.4208  -28.8116   23.3013 O   0  0  0  0  0  0
  -28.2819  -26.2601   20.1759 O   0  0  0  0  0  0
  -26.5645  -34.8908   22.4657 O   0  0  0  0  0  0
  -23.5508  -32.1350   23.7208 O   0  0  0  0  0  0
  -30.6364  -18.6018   21.2221 C   0  0  0  0  0  0
  -28.9511  -18.2494   19.5595 C   0  0  0  0  0  0
  -30.5473  -17.0725   21.6673 C   0  0  0  0  0  0
  -28.8629  -16.6904   19.9550 C   0  0  0  0  0  0
  -29.3421  -19.2985   20.6705 C   0  0  0  0  0  0
  -28.5463  -21.9441   20.4878 C   0  0  0  0  0  0
  -27.9928  -24.7871   20.4895 C   0  0  0  0  0  0
  -29.0100  -23.5119   20.2193 C   0  0  1  0  0  0
  -29.9831  -16.0531   20.7243 N   0  0  0  0  0  0
  -29.5537  -20.7880   20.2286 N   0  3  0  0  0  0
  -30.1413  -23.7044   21.0571 O   0  0  0  0  0  0
  -31.4584  -12.6387   19.1596 H   0  0  0  0  0  0
  -30.3792  -11.5603   19.9969 H   0  0  0  0  0  0
  -29.7998  -11.7155   17.5464 H   0  0  0  0  0  0
  -29.5989  -13.4449   17.6902 H   0  0  0  0  0  0
  -27.9249  -11.2620   18.9675 H   0  0  0  0  0  0
  -27.3662  -12.4450   17.8147 H   0  0  0  0  0  0
  -27.5855  -14.2321   19.4065 H   0  0  0  0  0  0
  -28.7384  -12.2851   21.4650 H   0  0  0  0  0  0
  -28.3946  -13.9801   21.7339 H   0  0  0  0  0  0
  -25.2749   -9.5680   22.4780 H   0  0  0  0  0  0
  -23.9995   -7.4627   22.7477 H   0  0  0  0  0  0
  -21.0847   -8.8765   19.8944 H   0  0  0  0  0  0
  -22.3697  -10.9670   19.6174 H   0  0  0  0  0  0
  -21.2001   -7.6146   23.9715 H   0  0  0  0  0  0
  -21.1481   -6.0524   25.9077 H   0  0  0  0  0  0
  -22.0600   -2.7610   23.2849 H   0  0  0  0  0  0
  -22.4038  -11.9842   22.4801 H   0  0  0  0  0  0
  -21.1044  -13.1217   22.2638 H   0  0  0  0  0  0
  -24.6449  -15.8433   20.5222 H   0  0  0  0  0  0
  -26.2612  -15.6281   20.0789 H   0  0  0  0  0  0
  -26.7235  -32.5358   23.1043 H   0  0  0  0  0  0
  -25.0074  -33.9660   25.0364 H   0  0  0  0  0  0
  -22.7350  -31.2973   21.3921 H   0  0  0  0  0  0
  -23.3755  -35.9595   23.3291 H   0  0  0  0  0  0
  -24.3574  -36.8905   22.2057 H   0  0  0  0  0  0
  -23.7243  -37.6463   23.6680 H   0  0  0  0  0  0
  -26.1301  -31.5014   20.6087 H   0  0  0  0  0  0
  -26.8631  -30.7982   22.0167 H   0  0  0  0  0  0
  -28.1263  -28.8655   21.2187 H   0  0  0  0  0  0
  -25.9388  -25.9048   18.9574 H   0  0  0  0  0  0
  -23.9742  -27.3179   18.9789 H   0  0  0  0  0  0
  -23.7852  -30.5822   19.4026 H   0  0  0  0  0  0
  -22.7722  -29.2436   19.8512 H   0  0  0  0  0  0
  -25.1299  -36.1886   25.0812 H   0  0  0  0  0  0
  -20.9998  -28.3278   24.1375 H   0  0  0  0  0  0
  -20.5680  -26.2309   23.3600 H   0  0  0  0  0  0
  -21.6648  -26.7423   22.1192 H   0  0  0  0  0  0
  -19.6912  -25.6300   21.1230 H   0  0  0  0  0  0
  -19.6688  -27.3206   20.6739 H   0  0  0  0  0  0
  -17.4200  -26.6681   21.4024 H   0  0  0  0  0  0
  -18.0335  -26.0068   22.9012 H   0  0  0  0  0  0
  -19.7949  -30.7292   24.2235 H   0  0  0  0  0  0
  -17.5020  -31.6263   24.5170 H   0  0  0  0  0  0
  -15.5363  -30.2973   23.7673 H   0  0  0  0  0  0
  -15.8682  -28.0818   22.7069 H   0  0  0  0  0  0
  -24.5925  -30.7035   25.7750 H   0  0  0  0  0  0
  -24.8878  -32.2881   26.4815 H   0  0  0  0  0  0
  -25.8026  -30.8929   27.0228 H   0  0  0  0  0  0
  -26.2987  -29.6713   24.1250 H   0  0  0  0  0  0
  -27.4043  -29.7262   25.4775 H   0  0  0  0  0  0
  -27.8863  -30.4252   23.9508 H   0  0  0  0  0  0
  -27.2674  -33.3653   26.2015 H   0  0  0  0  0  0
  -28.3901  -32.6838   25.0343 H   0  0  0  0  0  0
  -28.0691  -31.8486   26.5463 H   0  0  0  0  0  0
  -28.2584  -38.0097   24.7514 H   0  0  0  0  0  0
  -28.1079  -36.2629   24.6294 H   0  0  0  0  0  0
  -27.2289  -37.1436   25.8870 H   0  0  0  0  0  0
  -20.9428  -29.8770   21.6844 H   0  0  0  0  0  0
  -26.0155  -38.2822   24.1416 H   0  0  0  0  0  0
  -31.4233  -18.6822   20.4703 H   0  0  0  0  0  0
  -30.9985  -19.1762   22.0756 H   0  0  0  0  0  0
  -27.9952  -18.5457   19.1250 H   0  0  0  0  0  0
  -29.6700  -18.3359   18.7433 H   0  0  0  0  0  0
  -29.9353  -17.0199   22.5688 H   0  0  0  0  0  0
  -31.5415  -16.7546   21.9867 H   0  0  0  0  0  0
  -28.7116  -16.1247   19.0354 H   0  0  0  0  0  0
  -27.9626  -16.5426   20.5510 H   0  0  0  0  0  0
  -28.5856  -19.2892   21.4562 H   0  0  0  0  0  0
  -27.6608  -21.7405   19.8843 H   0  0  0  0  0  0
  -28.2143  -21.8588   21.5229 H   0  0  0  0  0  0
  -27.7212  -24.7653   21.5456 H   0  0  0  0  0  0
  -27.0775  -24.4983   19.9803 H   0  0  0  0  0  0
  -29.3405  -23.5777   19.1816 H   0  0  0  0  0  0
  -29.7926  -20.8035   19.2509 H   0  0  0  0  0  0
  -30.3821  -21.1004   20.7097 H   0  0  0  0  0  0
  -29.8261  -23.8967   21.9363 H   0  0  0  0  0  0
  1 25  1  0  0  0
  1 30  2  0  0  0
  1 79  1  0  0  0
  2  3  1  0  0  0
  2 25  1  0  0  0
  2 82  1  0  0  0
  2 83  1  0  0  0
  3  4  1  0  0  0
  3 84  1  0  0  0
  3 85  1  0  0  0
  4  5  1  0  0  0
  4 86  1  0  0  0
  4 87  1  0  0  0
  5  6  1  0  0  0
  5 26  1  0  0  0
  5 88  1  0  0  0
  6 25  1  0  0  0
  6 89  1  0  0  0
  6 90  1  0  0  0
  7  8  2  0  0  0
  7 26  1  0  0  0
  7 29  1  0  0  0
  8  9  1  0  0  0
  8 22  1  0  0  0
  9 10  1  0  0  0
  9 27  2  0  0  0
 10 11  2  0  0  0
 10 15  1  0  0  0
 11 12  1  0  0  0
 11 91  1  0  0  0
 12 13  2  0  0  0
 12 92  1  0  0  0
 13 14  1  0  0  0
 13 31  1  0  0  0
 14 15  2  0  0  0
 14 93  1  0  0  0
 15 94  1  0  0  0
 16 17  2  0  0  0
 16 21  1  0  0  0
 16 31  1  0  0  0
 17 18  1  0  0  0
 17 95  1  0  0  0
 18 19  2  0  0  0
 18 96  1  0  0  0
 19 20  1  0  0  0
 19 24  1  0  0  0
 20 21  2  0  0  0
 20 97  1  0  0  0
 21 23  1  0  0  0
 22 28  1  0  0  0
 22 32  2  0  0  0
 26 27  1  0  0  0
 28 98  1  0  0  0
 28 99  1  0  0  0
 29100  1  0  0  0
 29101  1  0  0  0
 33 34  1  0  0  0
 33 66  1  0  0  0
 33 70  2  0  0  0
 34 36  1  0  0  0
 34 59  1  0  0  0
 34102  1  0  0  0
 35 44  2  0  0  0
 35 45  1  0  0  0
 35 68  1  0  0  0
 36 56  1  0  0  0
 36103  1  0  0  0
 37 39  1  0  0  0
 37 47  1  0  0  0
 37 66  1  0  0  0
 37104  1  0  0  0
 38 43  2  0  0  0
 38 46  1  0  0  0
 38 47  1  0  0  0
 39 64  1  0  0  0
 39 67  2  0  0  0
 40 52  1  0  0  0
 40 53  2  0  0  0
 40 58  1  0  0  0
 41105  1  0  0  0
 41106  1  0  0  0
 41107  1  0  0  0
 41 48  1  0  0  0
 42 43  1  0  0  0
 42 66  1  0  0  0
 42108  1  0  0  0
 42109  1  0  0  0
 43 44  1  0  0  0
 44110  1  0  0  0
 45 46  2  0  0  0
 45111  1  0  0  0
 46112  1  0  0  0
 47113  1  0  0  0
 47114  1  0  0  0
 48 56  1  0  0  0
 48 65  1  0  0  0
 48115  1  0  0  0
 49 50  1  0  0  0
 49 53  1  0  0  0
 49 64  1  0  0  0
 49116  1  0  0  0
 50 51  1  0  0  0
 50117  1  0  0  0
 50118  1  0  0  0
 51 52  1  0  0  0
 51119  1  0  0  0
 51120  1  0  0  0
 52121  1  0  0  0
 52122  1  0  0  0
 53 54  1  0  0  0
 54 55  2  0  0  0
 54123  1  0  0  0
 55 57  1  0  0  0
 55124  1  0  0  0
 56 69  2  0  0  0
 57 58  2  0  0  0
 57125  1  0  0  0
 58126  1  0  0  0
 59 60  1  0  0  0
 59 61  1  0  0  0
 59 62  1  0  0  0
 60127  1  0  0  0
 60128  1  0  0  0
 60129  1  0  0  0
 61130  1  0  0  0
 61131  1  0  0  0
 61132  1  0  0  0
 62133  1  0  0  0
 62134  1  0  0  0
 62135  1  0  0  0
 63 65  1  0  0  0
 63136  1  0  0  0
 63137  1  0  0  0
 63138  1  0  0  0
 64139  1  0  0  0
 65140  1  0  0  0
 68 77  1  0  0  0
 71 73  1  0  0  0
 71 75  1  0  0  0
 71141  1  0  0  0
 71142  1  0  0  0
 72 74  1  0  0  0
 72 75  1  0  0  0
 72143  1  0  0  0
 72144  1  0  0  0
 73 79  1  0  0  0
 73145  1  0  0  0
 73146  1  0  0  0
 74 79  1  0  0  0
 74147  1  0  0  0
 74148  1  0  0  0
 75 80  1  0  0  0
 75149  1  0  0  0
 76 78  1  0  0  0
 76 80  1  0  0  0
 76150  1  0  0  0
 76151  1  0  0  0
 77 78  1  0  0  0
 77152  1  0  0  0
 77153  1  0  0  0
 78 81  1  0  0  0
 78154  1  0  0  0
 80155  1  0  0  0
 80156  1  0  0  0
 81157  1  0  0  0
M  CHG  1  80   1
M  ISO  4   1 100  68 101  77 101  79 100
M  END
> <chiral flag>
0

> <version>
0

> <s_m_source_file>
/data/baiqing/PycharmProjects/Reinvent-master-3.2/result/LINK_invent/BTK/process_docking_weight1_custom_sum_contain_oxygen_bond_distance_aromatic_linkinvent_7_9_3/rearranged_h_0100.sdf

> <i_m_source_file_index>
47

> <r_mmod_Potential_Energy-OPLS-2005>
316.897064208984

> <r_mmod_Stretch_Energy-OPLS-2005>
169.17268371582

> <r_mmod_Bend_Energy-OPLS-2005>
223.774856567383

> <r_mmod_Torsional_Energy-OPLS-2005>
358.344787597656

> <r_mmod_Improper_Torsional_Energy-OPLS-2005>
2.26651310920715

> <r_mmod_Van_der_Waal_Energy-OPLS-2005>
117.970039367676

> <r_mmod_Electrostatic_Energy-OPLS-2005>
-199.771377563477

> <r_mmod_Solvation_Energy-OPLS-2005>
-483.075408935547

> <b_mmod_Minimization_Converged-OPLS-2005>
0

> <r_mmod_RMS_Derivative-OPLS-2005>
0.699395716190338

$$$$
47
                    3D
 Structure written by MMmdl.
162170  0  0  1  0            999 V2000
  -30.4512  -15.0433   20.4019 C   0  0  0  0  0  0
  -30.4337  -12.6608   19.4820 C   0  0  0  0  0  0
  -29.5054  -12.5352   18.2496 C   0  0  0  0  0  0
  -28.0430  -12.3117   18.6741 C   0  0  0  0  0  0
  -27.6127  -13.2446   19.8321 C   0  0  2  0  0  0
  -28.6552  -13.2869   20.9631 C   0  0  0  0  0  0
  -25.2387  -13.7946   20.5785 C   0  0  0  0  0  0
  -24.1703  -13.0227   20.9291 C   0  0  0  0  0  0
  -24.6356  -11.6762   20.8759 C   0  0  0  0  0  0
  -23.9042  -10.4185   21.0394 C   0  0  0  0  0  0
  -24.3606   -9.4126   21.9171 C   0  0  0  0  0  0
  -23.6277   -8.2179   22.0740 C   0  0  0  0  0  0
  -22.4261   -8.0235   21.3524 C   0  0  0  0  0  0
  -21.9901   -9.0200   20.4618 C   0  0  0  0  0  0
  -22.7229  -10.2073   20.3027 C   0  0  0  0  0  0
  -21.6828   -6.0729   22.5282 C   0  0  0  0  0  0
  -21.3986   -6.5619   23.8218 C   0  0  0  0  0  0
  -21.3654   -5.6771   24.9173 C   0  0  0  0  0  0
  -21.6057   -4.3036   24.7222 C   0  0  0  0  0  0
  -21.8832   -3.8142   23.4328 C   0  0  0  0  0  0
  -21.9200   -4.6969   22.3391 C   0  0  0  0  0  0
  -22.7750  -13.5085   21.1940 C   0  0  0  0  0  0
  -22.1671   -4.2160   21.0973 F   0  0  0  0  0  0
  -21.5658   -3.4518   25.7729 F   0  0  0  0  0  0
  -29.9039  -13.7554   20.3499 N   0  0  0  0  0  0
  -26.2794  -12.9259   20.3239 N   0  0  0  0  0  0
  -25.9284  -11.6384   20.5702 N   0  0  0  0  0  0
  -22.0384  -12.8069   22.0477 N   0  0  0  0  0  0
  -25.3962  -15.1550   20.4262 N   0  0  0  0  0  0
  -31.6687  -15.1237   20.1879 O   0  0  0  0  0  0
  -21.6595   -6.8852   21.4234 O   0  0  0  0  0  0
  -22.3459  -14.5423   20.6827 O   0  0  0  0  0  0
  -24.6463  -31.8424   23.1773 C   0  0  0  0  0  0
  -25.9217  -32.4698   23.8203 C   0  0  1  0  0  0
  -27.2279  -27.1125   20.1736 C   0  0  0  0  0  0
  -25.5936  -33.8502   24.2115 N   0  0  0  0  0  0
  -23.4475  -30.4575   21.5267 C   0  0  2  0  0  0
  -24.8957  -28.8629   20.1215 C   0  0  0  0  0  0
  -22.7529  -29.4609   22.4871 C   0  0  0  0  0  0
  -18.0255  -28.1472   22.8430 C   0  0  0  0  0  0
  -24.1493  -36.7254   23.2645 C   0  0  0  0  0  0
  -26.0032  -30.7127   21.3687 C   0  0  0  0  0  0
  -26.0735  -29.3131   20.7301 C   0  0  0  0  0  0
  -27.2393  -28.4590   20.7271 C   0  0  0  0  0  0
  -26.0224  -26.7498   19.5408 C   0  0  0  0  0  0
  -24.8819  -27.5919   19.5159 C   0  0  0  0  0  0
  -23.6721  -29.7687   20.1530 C   0  0  0  0  0  0
  -25.4138  -36.3036   24.0299 C   0  0  1  0  0  0
  -20.5871  -28.3768   23.1141 C   0  0  2  0  0  0
  -20.6700  -26.9442   22.5401 C   0  0  0  0  0  0
  -19.5647  -26.6237   21.5300 C   0  0  0  0  0  0
  -18.1848  -26.7958   22.1677 C   0  0  0  0  0  0
  -19.1523  -28.8937   23.2765 C   0  0  0  0  0  0
  -18.9464  -30.1588   23.8700 C   0  0  0  0  0  0
  -17.6478  -30.6739   24.0355 C   0  0  0  0  0  0
  -25.9103  -34.9418   23.5036 C   0  0  0  0  0  0
  -16.5358  -29.9191   23.6227 C   0  0  0  0  0  0
  -16.7255  -28.6598   23.0282 C   0  0  0  0  0  0
  -26.4501  -31.6584   25.0682 C   0  0  0  0  0  0
  -25.3658  -31.3749   26.1337 C   0  0  0  0  0  0
  -27.0338  -30.2986   24.6266 C   0  0  0  0  0  0
  -27.6011  -32.4344   25.7523 C   0  0  0  0  0  0
  -27.5568  -37.1804   24.8470 C   0  0  0  0  0  0
  -21.4234  -29.3043   22.3504 N   0  0  0  0  0  0
  -26.4281  -37.3768   23.9425 N   0  0  0  0  0  0
  -24.7209  -31.0283   22.0795 N   0  0  0  0  0  0
  -23.4146  -28.8273   23.3135 O   0  0  0  0  0  0
  -28.3587  -26.2238   20.0900 O   0  0  0  0  0  0
  -26.5722  -34.8920   22.4647 O   0  0  0  0  0  0
  -23.5591  -32.1305   23.6999 O   0  0  0  0  0  0
  -27.8339  -21.2923   18.4333 C   0  0  0  0  0  0
  -27.6315  -19.9418   18.1234 C   0  0  0  0  0  0
  -29.0410  -20.5884   20.3956 C   0  0  0  0  0  0
  -28.3548  -21.7221   19.6726 C   0  0  0  0  0  0
  -28.0341  -18.9035   18.9872 C   0  0  0  0  0  0
  -28.9876  -19.1220   20.0128 C   0  0  0  0  0  0
  -25.9902  -18.1385   20.0736 C   0  0  0  0  0  0
  -25.2455  -22.7686   19.9525 C   0  0  0  0  0  0
  -27.0659  -17.7474   19.0380 C   0  0  0  0  0  0
  -29.8687  -17.8103   20.5992 C   0  0  0  0  0  0
  -26.4740  -23.1802   20.7944 C   0  0  0  0  0  0
  -28.5631  -24.7108   20.4749 C   0  0  0  0  0  0
  -27.8094  -23.2885   20.0099 C   0  0  1  0  0  0
  -29.6209  -16.2205   20.4949 N   0  0  0  0  0  0
  -31.4500  -12.8684   19.1468 H   0  0  0  0  0  0
  -30.4844  -11.7193   20.0327 H   0  0  0  0  0  0
  -29.8252  -11.7144   17.6076 H   0  0  0  0  0  0
  -29.5780  -13.4396   17.6425 H   0  0  0  0  0  0
  -27.9491  -11.2724   18.9927 H   0  0  0  0  0  0
  -27.3690  -12.4310   17.8249 H   0  0  0  0  0  0
  -27.5601  -14.2450   19.4021 H   0  0  0  0  0  0
  -28.7765  -12.3045   21.4193 H   0  0  0  0  0  0
  -28.3370  -13.9646   21.7565 H   0  0  0  0  0  0
  -25.2766   -9.5605   22.4721 H   0  0  0  0  0  0
  -23.9996   -7.4563   22.7449 H   0  0  0  0  0  0
  -21.0837   -8.8709   19.8910 H   0  0  0  0  0  0
  -22.3697  -10.9607   19.6138 H   0  0  0  0  0  0
  -21.1932   -7.6122   23.9709 H   0  0  0  0  0  0
  -21.1459   -6.0497   25.9077 H   0  0  0  0  0  0
  -22.0612   -2.7606   23.2813 H   0  0  0  0  0  0
  -22.4003  -11.9743   22.4863 H   0  0  0  0  0  0
  -21.0995  -13.1086   22.2656 H   0  0  0  0  0  0
  -24.5962  -15.7743   20.4884 H   0  0  0  0  0  0
  -26.2051  -15.5860   20.0051 H   0  0  0  0  0  0
  -26.7294  -32.5287   23.0941 H   0  0  0  0  0  0
  -24.9945  -33.9635   25.0149 H   0  0  0  0  0  0
  -22.7486  -31.2816   21.3594 H   0  0  0  0  0  0
  -23.3756  -35.9585   23.3334 H   0  0  0  0  0  0
  -24.3527  -36.8903   22.2047 H   0  0  0  0  0  0
  -23.7230  -37.6444   23.6684 H   0  0  0  0  0  0
  -26.1546  -31.4533   20.5815 H   0  0  0  0  0  0
  -26.8755  -30.7767   22.0070 H   0  0  0  0  0  0
  -28.1467  -28.8217   21.1887 H   0  0  0  0  0  0
  -25.9585  -25.7865   19.0522 H   0  0  0  0  0  0
  -23.9824  -27.2456   19.0299 H   0  0  0  0  0  0
  -23.7914  -30.5390   19.3888 H   0  0  0  0  0  0
  -22.7903  -29.2005   19.8526 H   0  0  0  0  0  0
  -25.1335  -36.1850   25.0784 H   0  0  0  0  0  0
  -20.9988  -28.3393   24.1243 H   0  0  0  0  0  0
  -21.6535  -26.7409   22.1132 H   0  0  0  0  0  0
  -20.5642  -26.2418   23.3684 H   0  0  0  0  0  0
  -19.6642  -25.5980   21.1734 H   0  0  0  0  0  0
  -19.6587  -27.2694   20.6548 H   0  0  0  0  0  0
  -17.4170  -26.6672   21.4019 H   0  0  0  0  0  0
  -18.0240  -26.0218   22.9184 H   0  0  0  0  0  0
  -19.7948  -30.7515   24.1847 H   0  0  0  0  0  0
  -17.5090  -31.6492   24.4841 H   0  0  0  0  0  0
  -15.5365  -30.3124   23.7477 H   0  0  0  0  0  0
  -15.8620  -28.0909   22.7060 H   0  0  0  0  0  0
  -24.5880  -30.7077   25.7595 H   0  0  0  0  0  0
  -24.8793  -32.2920   26.4681 H   0  0  0  0  0  0
  -25.7907  -30.8959   27.0165 H   0  0  0  0  0  0
  -26.2911  -29.6744   24.1292 H   0  0  0  0  0  0
  -27.3941  -29.7273   25.4821 H   0  0  0  0  0  0
  -27.8822  -30.4202   23.9534 H   0  0  0  0  0  0
  -27.2595  -33.3668   26.2021 H   0  0  0  0  0  0
  -28.3891  -32.6885   25.0423 H   0  0  0  0  0  0
  -28.0594  -31.8521   26.5530 H   0  0  0  0  0  0
  -28.2619  -38.0076   24.7527 H   0  0  0  0  0  0
  -28.1045  -36.2617   24.6297 H   0  0  0  0  0  0
  -27.2294  -37.1446   25.8876 H   0  0  0  0  0  0
  -20.9505  -29.8554   21.6479 H   0  0  0  0  0  0
  -26.0149  -38.2853   24.1395 H   0  0  0  0  0  0
  -27.3400  -21.9936   17.7758 H   0  0  0  0  0  0
  -26.9663  -19.7234   17.2988 H   0  0  0  0  0  0
  -29.5962  -20.8373   21.2887 H   0  0  0  0  0  0
  -25.0657  -17.5771   19.9626 H   0  0  0  0  0  0
  -25.7050  -19.1889   19.9782 H   0  0  0  0  0  0
  -26.3551  -17.9960   21.0936 H   0  0  0  0  0  0
  -24.3878  -22.5496   20.5865 H   0  0  0  0  0  0
  -25.4281  -21.8783   19.3543 H   0  0  0  0  0  0
  -24.9392  -23.5597   19.2663 H   0  0  0  0  0  0
  -27.5349  -16.7977   19.2690 H   0  0  0  0  0  0
  -26.5951  -17.6167   18.0627 H   0  0  0  0  0  0
  -30.0136  -18.0152   21.6576 H   0  0  0  0  0  0
  -30.8583  -17.9516   20.1631 H   0  0  0  0  0  0
  -26.5954  -22.4838   21.6264 H   0  0  0  0  0  0
  -26.2273  -24.1437   21.2426 H   0  0  0  0  0  0
  -29.5977  -24.5658   20.1611 H   0  0  0  0  0  0
  -28.6256  -24.6839   21.5631 H   0  0  0  0  0  0
  -27.5093  -23.6476   19.0244 H   0  0  0  0  0  0
  -28.6478  -15.9842   20.6049 H   0  0  0  0  0  0
  1 25  1  0  0  0
  1 30  2  0  0  0
  1 84  1  0  0  0
  2  3  1  0  0  0
  2 25  1  0  0  0
  2 85  1  0  0  0
  2 86  1  0  0  0
  3  4  1  0  0  0
  3 87  1  0  0  0
  3 88  1  0  0  0
  4  5  1  0  0  0
  4 89  1  0  0  0
  4 90  1  0  0  0
  5  6  1  0  0  0
  5 26  1  0  0  0
  5 91  1  0  0  0
  6 25  1  0  0  0
  6 92  1  0  0  0
  6 93  1  0  0  0
  7  8  2  0  0  0
  7 26  1  0  0  0
  7 29  1  0  0  0
  8  9  1  0  0  0
  8 22  1  0  0  0
  9 10  1  0  0  0
  9 27  2  0  0  0
 10 11  2  0  0  0
 10 15  1  0  0  0
 11 12  1  0  0  0
 11 94  1  0  0  0
 12 13  2  0  0  0
 12 95  1  0  0  0
 13 14  1  0  0  0
 13 31  1  0  0  0
 14 15  2  0  0  0
 14 96  1  0  0  0
 15 97  1  0  0  0
 16 17  2  0  0  0
 16 21  1  0  0  0
 16 31  1  0  0  0
 17 18  1  0  0  0
 17 98  1  0  0  0
 18 19  2  0  0  0
 18 99  1  0  0  0
 19 20  1  0  0  0
 19 24  1  0  0  0
 20 21  2  0  0  0
 20100  1  0  0  0
 21 23  1  0  0  0
 22 28  1  0  0  0
 22 32  2  0  0  0
 26 27  1  0  0  0
 28101  1  0  0  0
 28102  1  0  0  0
 29103  1  0  0  0
 29104  1  0  0  0
 33 34  1  0  0  0
 33 66  1  0  0  0
 33 70  2  0  0  0
 34 36  1  0  0  0
 34 59  1  0  0  0
 34105  1  0  0  0
 35 44  2  0  0  0
 35 45  1  0  0  0
 35 68  1  0  0  0
 36 56  1  0  0  0
 36106  1  0  0  0
 37 39  1  0  0  0
 37 47  1  0  0  0
 37 66  1  0  0  0
 37107  1  0  0  0
 38 43  2  0  0  0
 38 46  1  0  0  0
 38 47  1  0  0  0
 39 64  1  0  0  0
 39 67  2  0  0  0
 40 52  1  0  0  0
 40 53  2  0  0  0
 40 58  1  0  0  0
 41108  1  0  0  0
 41109  1  0  0  0
 41110  1  0  0  0
 41 48  1  0  0  0
 42 43  1  0  0  0
 42 66  1  0  0  0
 42111  1  0  0  0
 42112  1  0  0  0
 43 44  1  0  0  0
 44113  1  0  0  0
 45 46  2  0  0  0
 45114  1  0  0  0
 46115  1  0  0  0
 47116  1  0  0  0
 47117  1  0  0  0
 48 56  1  0  0  0
 48 65  1  0  0  0
 48118  1  0  0  0
 49 50  1  0  0  0
 49 53  1  0  0  0
 49 64  1  0  0  0
 49119  1  0  0  0
 50 51  1  0  0  0
 50120  1  0  0  0
 50121  1  0  0  0
 51 52  1  0  0  0
 51122  1  0  0  0
 51123  1  0  0  0
 52124  1  0  0  0
 52125  1  0  0  0
 53 54  1  0  0  0
 54 55  2  0  0  0
 54126  1  0  0  0
 55 57  1  0  0  0
 55127  1  0  0  0
 56 69  2  0  0  0
 57 58  2  0  0  0
 57128  1  0  0  0
 58129  1  0  0  0
 59 60  1  0  0  0
 59 61  1  0  0  0
 59 62  1  0  0  0
 60130  1  0  0  0
 60131  1  0  0  0
 60132  1  0  0  0
 61133  1  0  0  0
 61134  1  0  0  0
 61135  1  0  0  0
 62136  1  0  0  0
 62137  1  0  0  0
 62138  1  0  0  0
 63 65  1  0  0  0
 63139  1  0  0  0
 63140  1  0  0  0
 63141  1  0  0  0
 64142  1  0  0  0
 65143  1  0  0  0
 68 82  1  0  0  0
 71 72  2  0  0  0
 71 74  1  0  0  0
 71144  1  0  0  0
 72 75  1  0  0  0
 72145  1  0  0  0
 73 74  2  0  0  0
 73 76  1  0  0  0
 73146  1  0  0  0
 74 83  1  0  0  0
 75 76  2  0  0  0
 75 79  1  0  0  0
 76 80  1  0  0  0
 77 79  1  0  0  0
 77147  1  0  0  0
 77148  1  0  0  0
 77149  1  0  0  0
 78 81  1  0  0  0
 78150  1  0  0  0
 78151  1  0  0  0
 78152  1  0  0  0
 79153  1  0  0  0
 79154  1  0  0  0
 80 84  1  0  0  0
 80155  1  0  0  0
 80156  1  0  0  0
 81157  1  0  0  0
 81158  1  0  0  0
 81 83  1  0  0  0
 82 83  1  0  0  0
 82159  1  0  0  0
 82160  1  0  0  0
 83161  1  0  0  0
 84162  1  0  0  0
M  ISO  4   1 100  68 101  82 101  84 100
M  END
> <chiral flag>
0

> <version>
0

> <s_m_source_file>
/data/baiqing/PycharmProjects/Reinvent-master-3.2/result/LINK_invent/BTK/process_docking_weight1_custom_sum_contain_oxygen_bond_distance_aromatic_linkinvent_7_9_3/rearranged_h_0100.sdf

> <i_m_source_file_index>
48

> <r_mmod_Potential_Energy-OPLS-2005>
826.74365234375

> <r_mmod_Stretch_Energy-OPLS-2005>
323.164764404297

> <r_mmod_Bend_Energy-OPLS-2005>
397.383026123047

> <r_mmod_Torsional_Energy-OPLS-2005>
322.468383789062

> <r_mmod_Improper_Torsional_Energy-OPLS-2005>
11.7811660766602

> <r_mmod_Van_der_Waal_Energy-OPLS-2005>
129.852722167969

> <r_mmod_Electrostatic_Energy-OPLS-2005>
-388.142517089844

> <r_mmod_Solvation_Energy-OPLS-2005>
-199.554656982422

> <b_mmod_Minimization_Converged-OPLS-2005>
0

> <r_mmod_RMS_Derivative-OPLS-2005>
5.8067512512207

$$$$
48
                    3D
 Structure written by MMmdl.
149157  0  0  1  0            999 V2000
  -30.3887  -15.3452   20.3478 C   0  0  0  0  0  0
  -30.4307  -12.8678   19.5135 C   0  0  0  0  0  0
  -29.5305  -12.5805   18.2851 C   0  0  0  0  0  0
  -28.0790  -12.3009   18.7152 C   0  0  0  0  0  0
  -27.5993  -13.2783   19.8141 C   0  0  2  0  0  0
  -28.6331  -13.4897   20.9354 C   0  0  0  0  0  0
  -25.2337  -13.8243   20.5775 C   0  0  0  0  0  0
  -24.1706  -13.0438   20.9289 C   0  0  0  0  0  0
  -24.6357  -11.6929   20.8767 C   0  0  0  0  0  0
  -23.9062  -10.4283   21.0397 C   0  0  0  0  0  0
  -24.3626   -9.4207   21.9175 C   0  0  0  0  0  0
  -23.6313   -8.2233   22.0751 C   0  0  0  0  0  0
  -22.4284   -8.0268   21.3545 C   0  0  0  0  0  0
  -21.9905   -9.0241   20.4640 C   0  0  0  0  0  0
  -22.7233  -10.2126   20.3055 C   0  0  0  0  0  0
  -21.6854   -6.0726   22.5279 C   0  0  0  0  0  0
  -21.4015   -6.5638   23.8200 C   0  0  0  0  0  0
  -21.3665   -5.6792   24.9164 C   0  0  0  0  0  0
  -21.6050   -4.3050   24.7213 C   0  0  0  0  0  0
  -21.8833   -3.8146   23.4337 C   0  0  0  0  0  0
  -21.9197   -4.6958   22.3397 C   0  0  0  0  0  0
  -22.7724  -13.5170   21.1951 C   0  0  0  0  0  0
  -22.1670   -4.2138   21.0970 F   0  0  0  0  0  0
  -21.5621   -3.4552   25.7728 F   0  0  0  0  0  0
  -29.8413  -14.0262   20.2846 N   0  0  0  0  0  0
  -26.2747  -12.9525   20.3210 N   0  0  0  0  0  0
  -25.9282  -11.6626   20.5696 N   0  0  0  0  0  0
  -22.0412  -12.8121   22.0502 N   0  0  0  0  0  0
  -25.3999  -15.1976   20.4232 N   0  0  0  0  0  0
  -31.6242  -15.3323   20.2310 O   0  0  0  0  0  0
  -21.6660   -6.8865   21.4239 O   0  0  0  0  0  0
  -22.3389  -14.5482   20.6809 O   0  0  0  0  0  0
  -24.6689  -31.8203   23.1663 C   0  0  0  0  0  0
  -25.9355  -32.4569   23.8135 C   0  0  1  0  0  0
  -27.2137  -26.8901   20.1987 C   0  0  0  0  0  0
  -25.6021  -33.8386   24.2058 N   0  0  0  0  0  0
  -23.4838  -30.4346   21.5162 C   0  0  2  0  0  0
  -24.9332  -28.8098   20.1193 C   0  0  0  0  0  0
  -22.7694  -29.4455   22.4759 C   0  0  0  0  0  0
  -18.0351  -28.1439   22.8458 C   0  0  0  0  0  0
  -24.1500  -36.7207   23.2650 C   0  0  0  0  0  0
  -26.0557  -30.6189   21.3973 C   0  0  0  0  0  0
  -26.1214  -29.2011   20.7509 C   0  0  0  0  0  0
  -27.2586  -28.2682   20.7574 C   0  0  0  0  0  0
  -25.9981  -26.6597   19.5177 C   0  0  0  0  0  0
  -24.9012  -27.5609   19.4805 C   0  0  0  0  0  0
  -23.7251  -29.7482   20.1442 C   0  0  0  0  0  0
  -25.4133  -36.2946   24.0295 C   0  0  1  0  0  0
  -20.5965  -28.3797   23.1175 C   0  0  2  0  0  0
  -20.6815  -26.9470   22.5410 C   0  0  0  0  0  0
  -19.5779  -26.6392   21.5237 C   0  0  0  0  0  0
  -18.1965  -26.7962   22.1635 C   0  0  0  0  0  0
  -19.1604  -28.8933   23.2808 C   0  0  0  0  0  0
  -18.9505  -30.1525   23.8842 C   0  0  0  0  0  0
  -17.6482  -30.6609   24.0561 C   0  0  0  0  0  0
  -25.9104  -34.9337   23.4990 C   0  0  0  0  0  0
  -16.5378  -29.9099   23.6352 C   0  0  0  0  0  0
  -16.7322  -28.6537   23.0344 C   0  0  0  0  0  0
  -26.4573  -31.6517   25.0685 C   0  0  0  0  0  0
  -25.3686  -31.3763   26.1338 C   0  0  0  0  0  0
  -27.0457  -30.2872   24.6425 C   0  0  0  0  0  0
  -27.6048  -32.4344   25.7479 C   0  0  0  0  0  0
  -27.5563  -37.1763   24.8464 C   0  0  0  0  0  0
  -21.4351  -29.3070   22.3505 N   0  0  0  0  0  0
  -26.4261  -37.3691   23.9416 N   0  0  0  0  0  0
  -24.7588  -30.9858   22.0807 N   0  0  0  0  0  0
  -23.4231  -28.8046   23.3016 O   0  0  0  0  0  0
  -28.2151  -25.7710   20.1804 O   0  0  0  0  0  0
  -26.5698  -34.8877   22.4581 O   0  0  0  0  0  0
  -23.5753  -32.1190   23.6747 O   0  0  0  0  0  0
  -28.9430  -21.2467   20.6678 C   0  0  0  0  0  0
  -28.2973  -22.3544   18.6608 C   0  0  0  0  0  0
  -28.5080  -22.5949   20.0294 C   0  0  0  0  0  0
  -29.1480  -19.8480   20.0179 C   0  0  0  0  0  0
  -28.8393  -19.9941   18.6415 C   0  0  0  0  0  0
  -28.9526  -18.8171   17.6921 C   0  0  0  0  0  0
  -29.7999  -18.2955   20.6145 C   0  0  0  0  0  0
  -28.0211  -24.1811   20.6435 C   0  0  0  0  0  0
  -28.4474  -21.1538   18.0319 N   0  0  0  0  0  0
  -29.6060  -16.6292   20.3419 N   0  0  0  0  0  0
  -31.4412  -13.0996   19.1728 H   0  0  0  0  0  0
  -30.5278  -11.9814   20.1428 H   0  0  0  0  0  0
  -29.9189  -11.7378   17.7112 H   0  0  0  0  0  0
  -29.5469  -13.4434   17.6174 H   0  0  0  0  0  0
  -28.0319  -11.2780   19.0888 H   0  0  0  0  0  0
  -27.4107  -12.3444   17.8545 H   0  0  0  0  0  0
  -27.4976  -14.2372   19.3033 H   0  0  0  0  0  0
  -28.8261  -12.5652   21.4817 H   0  0  0  0  0  0
  -28.2607  -14.2119   21.6634 H   0  0  0  0  0  0
  -25.2776   -9.5681   22.4760 H   0  0  0  0  0  0
  -24.0023   -7.4602   22.7466 H   0  0  0  0  0  0
  -21.0840   -8.8746   19.8939 H   0  0  0  0  0  0
  -22.3684  -10.9660   19.6175 H   0  0  0  0  0  0
  -21.2026   -7.6142   23.9699 H   0  0  0  0  0  0
  -21.1470   -6.0524   25.9061 H   0  0  0  0  0  0
  -22.0614   -2.7613   23.2843 H   0  0  0  0  0  0
  -22.4086  -11.9798   22.4863 H   0  0  0  0  0  0
  -21.1013  -13.1086   22.2730 H   0  0  0  0  0  0
  -24.6418  -15.8577   20.5589 H   0  0  0  0  0  0
  -26.2334  -15.6304   20.0520 H   0  0  0  0  0  0
  -26.7436  -32.5081   23.0861 H   0  0  0  0  0  0
  -25.0147  -33.9450   25.0193 H   0  0  0  0  0  0
  -22.8015  -31.2702   21.3438 H   0  0  0  0  0  0
  -23.3754  -35.9544   23.3252 H   0  0  0  0  0  0
  -24.3593  -36.8920   22.2076 H   0  0  0  0  0  0
  -23.7264  -37.6388   23.6742 H   0  0  0  0  0  0
  -26.2366  -31.3546   20.6109 H   0  0  0  0  0  0
  -26.9158  -30.6804   22.0520 H   0  0  0  0  0  0
  -28.1661  -28.5797   21.2558 H   0  0  0  0  0  0
  -25.8782  -25.7111   19.0142 H   0  0  0  0  0  0
  -24.0035  -27.2567   18.9610 H   0  0  0  0  0  0
  -23.8962  -30.5176   19.3906 H   0  0  0  0  0  0
  -22.8297  -29.2172   19.8175 H   0  0  0  0  0  0
  -25.1329  -36.1716   25.0777 H   0  0  0  0  0  0
  -21.0073  -28.3414   24.1285 H   0  0  0  0  0  0
  -20.5741  -26.2407   23.3655 H   0  0  0  0  0  0
  -21.6676  -26.7453   22.1185 H   0  0  0  0  0  0
  -19.6939  -25.6294   21.1307 H   0  0  0  0  0  0
  -19.6720  -27.3168   20.6734 H   0  0  0  0  0  0
  -17.4241  -26.6728   21.4034 H   0  0  0  0  0  0
  -18.0341  -26.0132   22.9050 H   0  0  0  0  0  0
  -19.7973  -30.7391   24.2153 H   0  0  0  0  0  0
  -17.5029  -31.6273   24.5198 H   0  0  0  0  0  0
  -15.5379  -30.2970   23.7709 H   0  0  0  0  0  0
  -15.8734  -28.0854   22.7032 H   0  0  0  0  0  0
  -24.5902  -30.7082   25.7661 H   0  0  0  0  0  0
  -24.8843  -32.2950   26.4645 H   0  0  0  0  0  0
  -25.7928  -30.9027   27.0198 H   0  0  0  0  0  0
  -26.3110  -29.6543   24.1442 H   0  0  0  0  0  0
  -27.3990  -29.7259   25.5088 H   0  0  0  0  0  0
  -27.9055  -30.4053   23.9823 H   0  0  0  0  0  0
  -27.2609  -33.3709   26.1878 H   0  0  0  0  0  0
  -28.3924  -32.6804   25.0348 H   0  0  0  0  0  0
  -28.0623  -31.8587   26.5541 H   0  0  0  0  0  0
  -28.2532  -38.0098   24.7510 H   0  0  0  0  0  0
  -28.1093  -36.2623   24.6261 H   0  0  0  0  0  0
  -27.2286  -37.1367   25.8867 H   0  0  0  0  0  0
  -20.9631  -29.8744   21.6609 H   0  0  0  0  0  0
  -26.0091  -38.2743   24.1429 H   0  0  0  0  0  0
  -29.1284  -21.2809   21.7325 H   0  0  0  0  0  0
  -27.9385  -23.1588   18.0335 H   0  0  0  0  0  0
  -29.9410  -18.3616   17.7582 H   0  0  0  0  0  0
  -28.7988  -19.1205   16.6535 H   0  0  0  0  0  0
  -28.1987  -18.0663   17.9309 H   0  0  0  0  0  0
  -29.6702  -18.3750   21.6940 H   0  0  0  0  0  0
  -30.8735  -18.4299   20.4802 H   0  0  0  0  0  0
  -26.9425  -24.0777   20.7604 H   0  0  0  0  0  0
  -28.3872  -24.1707   21.6707 H   0  0  0  0  0  0
  -28.6257  -16.4028   20.2688 H   0  0  0  0  0  0
  1 25  1  0  0  0
  1 30  2  0  0  0
  1 80  1  0  0  0
  2  3  1  0  0  0
  2 25  1  0  0  0
  2 81  1  0  0  0
  2 82  1  0  0  0
  3  4  1  0  0  0
  3 83  1  0  0  0
  3 84  1  0  0  0
  4  5  1  0  0  0
  4 85  1  0  0  0
  4 86  1  0  0  0
  5  6  1  0  0  0
  5 26  1  0  0  0
  5 87  1  0  0  0
  6 25  1  0  0  0
  6 88  1  0  0  0
  6 89  1  0  0  0
  7  8  2  0  0  0
  7 26  1  0  0  0
  7 29  1  0  0  0
  8  9  1  0  0  0
  8 22  1  0  0  0
  9 10  1  0  0  0
  9 27  2  0  0  0
 10 11  2  0  0  0
 10 15  1  0  0  0
 11 12  1  0  0  0
 11 90  1  0  0  0
 12 13  2  0  0  0
 12 91  1  0  0  0
 13 14  1  0  0  0
 13 31  1  0  0  0
 14 15  2  0  0  0
 14 92  1  0  0  0
 15 93  1  0  0  0
 16 17  2  0  0  0
 16 21  1  0  0  0
 16 31  1  0  0  0
 17 18  1  0  0  0
 17 94  1  0  0  0
 18 19  2  0  0  0
 18 95  1  0  0  0
 19 20  1  0  0  0
 19 24  1  0  0  0
 20 21  2  0  0  0
 20 96  1  0  0  0
 21 23  1  0  0  0
 22 28  1  0  0  0
 22 32  2  0  0  0
 26 27  1  0  0  0
 28 97  1  0  0  0
 28 98  1  0  0  0
 29 99  1  0  0  0
 29100  1  0  0  0
 33 34  1  0  0  0
 33 66  1  0  0  0
 33 70  2  0  0  0
 34 36  1  0  0  0
 34 59  1  0  0  0
 34101  1  0  0  0
 35 44  2  0  0  0
 35 45  1  0  0  0
 35 68  1  0  0  0
 36 56  1  0  0  0
 36102  1  0  0  0
 37 39  1  0  0  0
 37 47  1  0  0  0
 37 66  1  0  0  0
 37103  1  0  0  0
 38 43  2  0  0  0
 38 46  1  0  0  0
 38 47  1  0  0  0
 39 64  1  0  0  0
 39 67  2  0  0  0
 40 52  1  0  0  0
 40 53  2  0  0  0
 40 58  1  0  0  0
 41104  1  0  0  0
 41105  1  0  0  0
 41106  1  0  0  0
 41 48  1  0  0  0
 42 43  1  0  0  0
 42 66  1  0  0  0
 42107  1  0  0  0
 42108  1  0  0  0
 43 44  1  0  0  0
 44109  1  0  0  0
 45 46  2  0  0  0
 45110  1  0  0  0
 46111  1  0  0  0
 47112  1  0  0  0
 47113  1  0  0  0
 48 56  1  0  0  0
 48 65  1  0  0  0
 48114  1  0  0  0
 49 50  1  0  0  0
 49 53  1  0  0  0
 49 64  1  0  0  0
 49115  1  0  0  0
 50 51  1  0  0  0
 50116  1  0  0  0
 50117  1  0  0  0
 51 52  1  0  0  0
 51118  1  0  0  0
 51119  1  0  0  0
 52120  1  0  0  0
 52121  1  0  0  0
 53 54  1  0  0  0
 54 55  2  0  0  0
 54122  1  0  0  0
 55 57  1  0  0  0
 55123  1  0  0  0
 56 69  2  0  0  0
 57 58  2  0  0  0
 57124  1  0  0  0
 58125  1  0  0  0
 59 60  1  0  0  0
 59 61  1  0  0  0
 59 62  1  0  0  0
 60126  1  0  0  0
 60127  1  0  0  0
 60128  1  0  0  0
 61129  1  0  0  0
 61130  1  0  0  0
 61131  1  0  0  0
 62132  1  0  0  0
 62133  1  0  0  0
 62134  1  0  0  0
 63 65  1  0  0  0
 63135  1  0  0  0
 63136  1  0  0  0
 63137  1  0  0  0
 64138  1  0  0  0
 65139  1  0  0  0
 68 78  1  0  0  0
 71 73  2  0  0  0
 71 74  1  0  0  0
 71140  1  0  0  0
 72 73  1  0  0  0
 72 79  2  0  0  0
 72141  1  0  0  0
 73 78  1  0  0  0
 74 75  2  0  0  0
 74 77  1  0  0  0
 75 76  1  0  0  0
 75 79  1  0  0  0
 76142  1  0  0  0
 76143  1  0  0  0
 76144  1  0  0  0
 77 80  1  0  0  0
 77145  1  0  0  0
 77146  1  0  0  0
 78147  1  0  0  0
 78148  1  0  0  0
 80149  1  0  0  0
M  ISO  4   1 100  68 101  78 101  80 100
M  END
> <chiral flag>
0

> <version>
0

> <s_m_source_file>
/data/baiqing/PycharmProjects/Reinvent-master-3.2/result/LINK_invent/BTK/process_docking_weight1_custom_sum_contain_oxygen_bond_distance_aromatic_linkinvent_7_9_3/rearranged_h_0100.sdf

> <i_m_source_file_index>
49

> <r_mmod_Potential_Energy-OPLS-2005>
1306.49255371094

> <r_mmod_Stretch_Energy-OPLS-2005>
645.536376953125

> <r_mmod_Bend_Energy-OPLS-2005>
459.327026367188

> <r_mmod_Torsional_Energy-OPLS-2005>
239.918487548828

> <r_mmod_Improper_Torsional_Energy-OPLS-2005>
6.23313283920288

> <r_mmod_Van_der_Waal_Energy-OPLS-2005>
123.16569519043

> <r_mmod_Electrostatic_Energy-OPLS-2005>
-473.268890380859

> <r_mmod_Solvation_Energy-OPLS-2005>
-228.130477905273

> <b_mmod_Minimization_Converged-OPLS-2005>
0

> <r_mmod_RMS_Derivative-OPLS-2005>
3.4355685710907

$$$$
49
                    3D
 Structure written by MMmdl.
189197  0  0  1  0            999 V2000
  -30.5659  -14.7499   20.4321 C   0  0  0  0  0  0
  -30.4446  -12.4493   19.4782 C   0  0  0  0  0  0
  -29.5331  -12.5177   18.2326 C   0  0  0  0  0  0
  -28.0515  -12.3381   18.6319 C   0  0  0  0  0  0
  -27.6486  -13.2269   19.8421 C   0  0  2  0  0  0
  -28.6846  -13.1424   20.9830 C   0  0  0  0  0  0
  -25.2531  -13.8200   20.5635 C   0  0  0  0  0  0
  -24.1821  -13.0467   20.9216 C   0  0  0  0  0  0
  -24.6383  -11.6938   20.8702 C   0  0  0  0  0  0
  -23.9074  -10.4310   21.0359 C   0  0  0  0  0  0
  -24.3641   -9.4226   21.9154 C   0  0  0  0  0  0
  -23.6312   -8.2270   22.0741 C   0  0  0  0  0  0
  -22.4288   -8.0288   21.3546 C   0  0  0  0  0  0
  -21.9909   -9.0274   20.4649 C   0  0  0  0  0  0
  -22.7256  -10.2137   20.3024 C   0  0  0  0  0  0
  -21.6848   -6.0747   22.5284 C   0  0  0  0  0  0
  -21.4030   -6.5650   23.8234 C   0  0  0  0  0  0
  -21.3656   -5.6767   24.9175 C   0  0  0  0  0  0
  -21.6025   -4.3029   24.7211 C   0  0  0  0  0  0
  -21.8833   -3.8156   23.4329 C   0  0  0  0  0  0
  -21.9197   -4.6986   22.3389 C   0  0  0  0  0  0
  -22.7834  -13.5276   21.1844 C   0  0  0  0  0  0
  -22.1662   -4.2174   21.0964 F   0  0  0  0  0  0
  -21.5609   -3.4497   25.7724 F   0  0  0  0  0  0
  -29.9857  -13.5050   20.4104 N   0  0  0  0  0  0
  -26.2952  -12.9399   20.3181 N   0  0  0  0  0  0
  -25.9300  -11.6561   20.5650 N   0  0  0  0  0  0
  -22.0437  -12.8277   22.0392 N   0  0  0  0  0  0
  -25.4211  -15.1914   20.4009 N   0  0  0  0  0  0
  -31.7539  -14.8726   20.1236 O   0  0  0  0  0  0
  -21.6634   -6.8884   21.4252 O   0  0  0  0  0  0
  -22.3538  -14.5573   20.6638 O   0  0  0  0  0  0
  -24.6356  -31.8528   23.1983 C   0  0  0  0  0  0
  -25.9165  -32.4740   23.8342 C   0  0  1  0  0  0
  -27.2063  -27.2262   20.1545 C   0  0  0  0  0  0
  -25.5941  -33.8540   24.2260 N   0  0  0  0  0  0
  -23.4340  -30.4749   21.5414 C   0  0  2  0  0  0
  -24.8805  -28.9177   20.1098 C   0  0  0  0  0  0
  -22.7536  -29.4583   22.4907 C   0  0  0  0  0  0
  -18.0284  -28.1404   22.8484 C   0  0  0  0  0  0
  -24.1476  -36.7270   23.2648 C   0  0  0  0  0  0
  -25.9808  -30.7607   21.3790 C   0  0  0  0  0  0
  -26.0523  -29.3780   20.7211 C   0  0  0  0  0  0
  -27.2201  -28.5488   20.7264 C   0  0  0  0  0  0
  -26.0177  -26.8425   19.4974 C   0  0  0  0  0  0
  -24.8701  -27.6621   19.4793 C   0  0  0  0  0  0
  -23.6548  -29.8100   20.1566 C   0  0  0  0  0  0
  -25.4101  -36.3053   24.0332 C   0  0  1  0  0  0
  -20.5895  -28.3715   23.1258 C   0  0  2  0  0  0
  -20.6764  -26.9420   22.5416 C   0  0  0  0  0  0
  -19.5736  -26.6379   21.5216 C   0  0  0  0  0  0
  -18.1915  -26.7943   22.1618 C   0  0  0  0  0  0
  -19.1549  -28.8873   23.2857 C   0  0  0  0  0  0
  -18.9465  -30.1479   23.8875 C   0  0  0  0  0  0
  -17.6466  -30.6598   24.0550 C   0  0  0  0  0  0
  -25.9055  -34.9429   23.5098 C   0  0  0  0  0  0
  -16.5350  -29.9105   23.6331 C   0  0  0  0  0  0
  -16.7276  -28.6518   23.0350 C   0  0  0  0  0  0
  -26.4525  -31.6586   25.0757 C   0  0  0  0  0  0
  -25.3713  -31.3770   26.1466 C   0  0  0  0  0  0
  -27.0402  -30.3000   24.6288 C   0  0  0  0  0  0
  -27.6070  -32.4337   25.7530 C   0  0  0  0  0  0
  -27.5566  -37.1778   24.8455 C   0  0  0  0  0  0
  -21.4238  -29.3053   22.3659 N   0  0  0  0  0  0
  -26.4257  -37.3764   23.9431 N   0  0  0  0  0  0
  -24.7036  -31.0466   22.0957 N   0  0  0  0  0  0
  -23.4228  -28.8104   23.3003 O   0  0  0  0  0  0
  -28.2802  -26.3059   20.2476 O   0  0  0  0  0  0
  -26.5619  -34.8911   22.4665 O   0  0  0  0  0  0
  -23.5493  -32.1351   23.7228 O   0  0  0  0  0  0
  -31.6028  -22.8726   21.9166 C   0  0  0  0  0  0
  -29.8987  -24.5602   21.8502 C   0  0  0  0  0  0
  -31.0473  -24.0327   22.4547 C   0  0  0  0  0  0
  -30.9113  -22.0954   20.9710 C   0  0  0  0  0  0
  -29.1753  -23.8607   20.8508 C   0  0  0  0  0  0
  -29.5642  -22.4409   20.6059 C   0  0  0  0  0  0
  -33.1980  -21.1374   20.1986 C   0  0  0  0  0  0
  -29.0655  -18.6683   17.3563 C   0  0  0  0  0  0
  -26.9457  -19.6967   18.1091 C   0  0  0  0  0  0
  -28.8556  -21.1516   17.4129 C   0  0  0  0  0  0
  -30.6048  -20.8448   26.7712 C   0  0  0  0  0  0
  -31.7183  -24.7189   23.6388 C   0  0  0  0  0  0
  -31.6855  -20.8938   20.4094 C   0  0  0  0  0  0
  -28.5732  -21.2099   20.3096 C   0  0  0  0  0  0
  -28.0433  -24.7977   20.2250 C   0  0  0  0  0  0
  -32.1396  -23.7440   24.7696 C   0  0  0  0  0  0
  -30.0223  -17.3346   20.1930 C   0  0  0  0  0  0
  -31.0192  -22.8257   25.3128 C   0  0  0  0  0  0
  -28.8745  -18.5058   20.3399 C   0  0  0  0  0  0
  -28.4887  -19.8490   18.1736 C   0  0  0  0  0  0
  -29.7387  -15.8669   20.5632 N   0  0  0  0  0  0
  -31.5235  -21.9307   26.3766 N   0  3  0  0  0  0
  -29.0132  -19.8841   19.6013 N   0  3  1  0  0  0
  -31.4904  -12.5838   19.1958 H   0  0  0  0  0  0
  -30.3929  -11.4648   19.9485 H   0  0  0  0  0  0
  -29.8356  -11.7592   17.5078 H   0  0  0  0  0  0
  -29.6650  -13.4816   17.7371 H   0  0  0  0  0  0
  -27.8966  -11.2869   18.8784 H   0  0  0  0  0  0
  -27.4055  -12.5462   17.7781 H   0  0  0  0  0  0
  -27.6510  -14.2524   19.4697 H   0  0  0  0  0  0
  -28.7126  -12.1393   21.4105 H   0  0  0  0  0  0
  -28.4226  -13.8063   21.8072 H   0  0  0  0  0  0
  -25.2789   -9.5716   22.4721 H   0  0  0  0  0  0
  -24.0027   -7.4652   22.7445 H   0  0  0  0  0  0
  -21.0847   -8.8830   19.8957 H   0  0  0  0  0  0
  -22.3741  -10.9690   19.6123 H   0  0  0  0  0  0
  -21.2057   -7.6154   23.9768 H   0  0  0  0  0  0
  -21.1437   -6.0467   25.9075 H   0  0  0  0  0  0
  -22.0613   -2.7630   23.2803 H   0  0  0  0  0  0
  -22.3966  -11.9984   22.4906 H   0  0  0  0  0  0
  -21.1038  -13.1354   22.2477 H   0  0  0  0  0  0
  -24.6401  -15.8313   20.5020 H   0  0  0  0  0  0
  -26.2356  -15.6240   19.9889 H   0  0  0  0  0  0
  -26.7235  -32.5396   23.1088 H   0  0  0  0  0  0
  -25.0060  -33.9663   25.0384 H   0  0  0  0  0  0
  -22.7315  -31.2985   21.3942 H   0  0  0  0  0  0
  -23.3742  -35.9594   23.3267 H   0  0  0  0  0  0
  -24.3557  -36.8935   22.2069 H   0  0  0  0  0  0
  -23.7208  -37.6448   23.6701 H   0  0  0  0  0  0
  -26.1197  -31.5204   20.6084 H   0  0  0  0  0  0
  -26.8582  -30.8118   22.0131 H   0  0  0  0  0  0
  -28.1200  -28.8931   21.2192 H   0  0  0  0  0  0
  -25.9540  -25.8809   19.0101 H   0  0  0  0  0  0
  -23.9740  -27.3092   18.9909 H   0  0  0  0  0  0
  -23.7889  -30.5869   19.4031 H   0  0  0  0  0  0
  -22.7723  -29.2508   19.8453 H   0  0  0  0  0  0
  -25.1269  -36.1890   25.0817 H   0  0  0  0  0  0
  -20.9975  -28.3294   24.1381 H   0  0  0  0  0  0
  -20.5633  -26.2334   23.3638 H   0  0  0  0  0  0
  -21.6640  -26.7421   22.1232 H   0  0  0  0  0  0
  -19.6891  -25.6282   21.1261 H   0  0  0  0  0  0
  -19.6669  -27.3173   20.6730 H   0  0  0  0  0  0
  -17.4189  -26.6702   21.4006 H   0  0  0  0  0  0
  -18.0288  -26.0095   22.9021 H   0  0  0  0  0  0
  -19.7942  -30.7291   24.2249 H   0  0  0  0  0  0
  -17.5019  -31.6271   24.5176 H   0  0  0  0  0  0
  -15.5349  -30.2993   23.7679 H   0  0  0  0  0  0
  -15.8672  -28.0838   22.7068 H   0  0  0  0  0  0
  -24.5855  -30.7173   25.7779 H   0  0  0  0  0  0
  -24.8949  -32.2961   26.4885 H   0  0  0  0  0  0
  -25.7984  -30.8923   27.0256 H   0  0  0  0  0  0
  -26.3045  -29.6716   24.1269 H   0  0  0  0  0  0
  -27.4032  -29.7297   25.4849 H   0  0  0  0  0  0
  -27.8927  -30.4273   23.9608 H   0  0  0  0  0  0
  -27.2690  -33.3640   26.2107 H   0  0  0  0  0  0
  -28.3891  -32.6894   25.0366 H   0  0  0  0  0  0
  -28.0756  -31.8472   26.5445 H   0  0  0  0  0  0
  -28.2557  -38.0102   24.7523 H   0  0  0  0  0  0
  -28.1076  -36.2621   24.6229 H   0  0  0  0  0  0
  -27.2291  -37.1388   25.8860 H   0  0  0  0  0  0
  -20.9449  -29.8815   21.6878 H   0  0  0  0  0  0
  -26.0123  -38.2829   24.1446 H   0  0  0  0  0  0
  -32.5639  -22.5552   22.2892 H   0  0  0  0  0  0
  -29.5525  -25.5303   22.1739 H   0  0  0  0  0  0
  -33.6401  -20.2963   19.6631 H   0  0  0  0  0  0
  -33.7594  -21.2353   21.1308 H   0  0  0  0  0  0
  -33.3767  -22.0364   19.6032 H   0  0  0  0  0  0
  -28.6937  -18.6902   16.3302 H   0  0  0  0  0  0
  -28.7590  -17.6996   17.7472 H   0  0  0  0  0  0
  -30.1541  -18.6855   17.3060 H   0  0  0  0  0  0
  -26.6057  -19.7676   17.0763 H   0  0  0  0  0  0
  -26.4037  -20.4660   18.6511 H   0  0  0  0  0  0
  -26.5968  -18.7365   18.4834 H   0  0  0  0  0  0
  -28.6994  -21.0365   16.3409 H   0  0  0  0  0  0
  -29.8954  -21.4513   17.5550 H   0  0  0  0  0  0
  -28.2262  -21.9942   17.6991 H   0  0  0  0  0  0
  -31.0326  -20.2773   27.5981 H   0  0  0  0  0  0
  -30.4374  -20.1469   25.9508 H   0  0  0  0  0  0
  -29.6381  -21.2306   27.0955 H   0  0  0  0  0  0
  -31.0519  -25.4819   24.0459 H   0  0  0  0  0  0
  -32.5962  -25.2540   23.2720 H   0  0  0  0  0  0
  -31.3169  -20.6526   19.4157 H   0  0  0  0  0  0
  -31.5502  -20.0278   21.0604 H   0  0  0  0  0  0
  -27.6974  -21.6429   19.8374 H   0  0  0  0  0  0
  -28.1885  -20.9191   21.2844 H   0  0  0  0  0  0
  -27.1185  -24.5737   20.7599 H   0  0  0  0  0  0
  -27.8873  -24.4860   19.1914 H   0  0  0  0  0  0
  -32.5702  -24.3267   25.5847 H   0  0  0  0  0  0
  -32.9532  -23.1143   24.4069 H   0  0  0  0  0  0
  -30.8785  -17.6362   20.7978 H   0  0  0  0  0  0
  -30.4201  -17.3166   19.1797 H   0  0  0  0  0  0
  -30.6100  -22.2189   24.5044 H   0  0  0  0  0  0
  -30.1920  -23.4200   25.7047 H   0  0  0  0  0  0
  -28.7815  -18.7078   21.4059 H   0  0  0  0  0  0
  -27.9126  -18.0651   20.0809 H   0  0  0  0  0  0
  -28.7845  -15.6540   20.8189 H   0  0  0  0  0  0
  -32.3825  -21.5076   26.0661 H   0  0  0  0  0  0
  -31.7343  -22.4789   27.1948 H   0  0  0  0  0  0
  -30.0100  -20.0093   19.5313 H   0  0  0  0  0  0
  1 25  1  0  0  0
  1 30  2  0  0  0
  1 91  1  0  0  0
  2  3  1  0  0  0
  2 25  1  0  0  0
  2 94  1  0  0  0
  2 95  1  0  0  0
  3  4  1  0  0  0
  3 96  1  0  0  0
  3 97  1  0  0  0
  4  5  1  0  0  0
  4 98  1  0  0  0
  4 99  1  0  0  0
  5  6  1  0  0  0
  5 26  1  0  0  0
  5100  1  0  0  0
  6 25  1  0  0  0
  6101  1  0  0  0
  6102  1  0  0  0
  7  8  2  0  0  0
  7 26  1  0  0  0
  7 29  1  0  0  0
  8  9  1  0  0  0
  8 22  1  0  0  0
  9 10  1  0  0  0
  9 27  2  0  0  0
 10 11  2  0  0  0
 10 15  1  0  0  0
 11 12  1  0  0  0
 11103  1  0  0  0
 12 13  2  0  0  0
 12104  1  0  0  0
 13 14  1  0  0  0
 13 31  1  0  0  0
 14 15  2  0  0  0
 14105  1  0  0  0
 15106  1  0  0  0
 16 17  2  0  0  0
 16 21  1  0  0  0
 16 31  1  0  0  0
 17 18  1  0  0  0
 17107  1  0  0  0
 18 19  2  0  0  0
 18108  1  0  0  0
 19 20  1  0  0  0
 19 24  1  0  0  0
 20 21  2  0  0  0
 20109  1  0  0  0
 21 23  1  0  0  0
 22 28  1  0  0  0
 22 32  2  0  0  0
 26 27  1  0  0  0
 28110  1  0  0  0
 28111  1  0  0  0
 29112  1  0  0  0
 29113  1  0  0  0
 33 34  1  0  0  0
 33 66  1  0  0  0
 33 70  2  0  0  0
 34 36  1  0  0  0
 34 59  1  0  0  0
 34114  1  0  0  0
 35 44  2  0  0  0
 35 45  1  0  0  0
 35 68  1  0  0  0
 36 56  1  0  0  0
 36115  1  0  0  0
 37 39  1  0  0  0
 37 47  1  0  0  0
 37 66  1  0  0  0
 37116  1  0  0  0
 38 43  2  0  0  0
 38 46  1  0  0  0
 38 47  1  0  0  0
 39 64  1  0  0  0
 39 67  2  0  0  0
 40 52  1  0  0  0
 40 53  2  0  0  0
 40 58  1  0  0  0
 41117  1  0  0  0
 41118  1  0  0  0
 41119  1  0  0  0
 41 48  1  0  0  0
 42 43  1  0  0  0
 42 66  1  0  0  0
 42120  1  0  0  0
 42121  1  0  0  0
 43 44  1  0  0  0
 44122  1  0  0  0
 45 46  2  0  0  0
 45123  1  0  0  0
 46124  1  0  0  0
 47125  1  0  0  0
 47126  1  0  0  0
 48 56  1  0  0  0
 48 65  1  0  0  0
 48127  1  0  0  0
 49 50  1  0  0  0
 49 53  1  0  0  0
 49 64  1  0  0  0
 49128  1  0  0  0
 50 51  1  0  0  0
 50129  1  0  0  0
 50130  1  0  0  0
 51 52  1  0  0  0
 51131  1  0  0  0
 51132  1  0  0  0
 52133  1  0  0  0
 52134  1  0  0  0
 53 54  1  0  0  0
 54 55  2  0  0  0
 54135  1  0  0  0
 55 57  1  0  0  0
 55136  1  0  0  0
 56 69  2  0  0  0
 57 58  2  0  0  0
 57137  1  0  0  0
 58138  1  0  0  0
 59 60  1  0  0  0
 59 61  1  0  0  0
 59 62  1  0  0  0
 60139  1  0  0  0
 60140  1  0  0  0
 60141  1  0  0  0
 61142  1  0  0  0
 61143  1  0  0  0
 61144  1  0  0  0
 62145  1  0  0  0
 62146  1  0  0  0
 62147  1  0  0  0
 63 65  1  0  0  0
 63148  1  0  0  0
 63149  1  0  0  0
 63150  1  0  0  0
 64151  1  0  0  0
 65152  1  0  0  0
 68 85  1  0  0  0
 71 73  2  0  0  0
 71 74  1  0  0  0
 71153  1  0  0  0
 72 73  1  0  0  0
 72 75  2  0  0  0
 72154  1  0  0  0
 73 82  1  0  0  0
 74 76  2  0  0  0
 74 83  1  0  0  0
 75 76  1  0  0  0
 75 85  1  0  0  0
 76 84  1  0  0  0
 77 83  1  0  0  0
 77155  1  0  0  0
 77156  1  0  0  0
 77157  1  0  0  0
 78158  1  0  0  0
 78159  1  0  0  0
 78160  1  0  0  0
 78 90  1  0  0  0
 79 90  1  0  0  0
 79161  1  0  0  0
 79162  1  0  0  0
 79163  1  0  0  0
 80 90  1  0  0  0
 80164  1  0  0  0
 80165  1  0  0  0
 80166  1  0  0  0
 81 92  1  0  0  0
 81167  1  0  0  0
 81168  1  0  0  0
 81169  1  0  0  0
 82 86  1  0  0  0
 82170  1  0  0  0
 82171  1  0  0  0
 83172  1  0  0  0
 83173  1  0  0  0
 84174  1  0  0  0
 84175  1  0  0  0
 84 93  1  0  0  0
 85176  1  0  0  0
 85177  1  0  0  0
 86 88  1  0  0  0
 86178  1  0  0  0
 86179  1  0  0  0
 87 89  1  0  0  0
 87 91  1  0  0  0
 87180  1  0  0  0
 87181  1  0  0  0
 88 92  1  0  0  0
 88182  1  0  0  0
 88183  1  0  0  0
 89 93  1  0  0  0
 89184  1  0  0  0
 89185  1  0  0  0
 90 93  1  0  0  0
 91186  1  0  0  0
 92187  1  0  0  0
 92188  1  0  0  0
 93189  1  0  0  0
M  CHG  2  92   1  93   1
M  ISO  4   1 100  68 101  85 101  91 100
M  END
> <chiral flag>
0

> <version>
0

> <s_m_source_file>
/data/baiqing/PycharmProjects/Reinvent-master-3.2/result/LINK_invent/BTK/process_docking_weight1_custom_sum_contain_oxygen_bond_distance_aromatic_linkinvent_7_9_3/rearranged_h_0100.sdf

> <i_m_source_file_index>
50

> <r_mmod_Potential_Energy-OPLS-2005>
82.0824661254883

> <r_mmod_Stretch_Energy-OPLS-2005>
177.685470581055

> <r_mmod_Bend_Energy-OPLS-2005>
217.766448974609

> <r_mmod_Torsional_Energy-OPLS-2005>
323.810302734375

> <r_mmod_Improper_Torsional_Energy-OPLS-2005>
8.734619140625

> <r_mmod_Van_der_Waal_Energy-OPLS-2005>
150.296478271484

> <r_mmod_Electrostatic_Energy-OPLS-2005>
-16.6297016143799

> <r_mmod_Solvation_Energy-OPLS-2005>
-880.491271972656

> <b_mmod_Minimization_Converged-OPLS-2005>
0

> <r_mmod_RMS_Derivative-OPLS-2005>
5.59020471572876

$$$$
50
                    3D
 Structure written by MMmdl.
181189  0  0  1  0            999 V2000
  -30.5698  -14.8641   20.3937 C   0  0  0  0  0  0
  -30.4501  -12.5117   19.5002 C   0  0  0  0  0  0
  -29.5272  -12.4933   18.2585 C   0  0  0  0  0  0
  -28.0559  -12.2890   18.6728 C   0  0  0  0  0  0
  -27.6354  -13.2053   19.8491 C   0  0  2  0  0  0
  -28.6877  -13.2264   20.9801 C   0  0  0  0  0  0
  -25.2510  -13.8045   20.5651 C   0  0  0  0  0  0
  -24.1784  -13.0362   20.9215 C   0  0  0  0  0  0
  -24.6355  -11.6833   20.8780 C   0  0  0  0  0  0
  -23.9016  -10.4243   21.0421 C   0  0  0  0  0  0
  -24.3579   -9.4164   21.9192 C   0  0  0  0  0  0
  -23.6252   -8.2202   22.0760 C   0  0  0  0  0  0
  -22.4238   -8.0247   21.3538 C   0  0  0  0  0  0
  -21.9865   -9.0220   20.4649 C   0  0  0  0  0  0
  -22.7192  -10.2096   20.3064 C   0  0  0  0  0  0
  -21.6839   -6.0702   22.5264 C   0  0  0  0  0  0
  -21.4007   -6.5616   23.8192 C   0  0  0  0  0  0
  -21.3649   -5.6771   24.9161 C   0  0  0  0  0  0
  -21.6042   -4.3038   24.7214 C   0  0  0  0  0  0
  -21.8831   -3.8122   23.4339 C   0  0  0  0  0  0
  -21.9196   -4.6931   22.3393 C   0  0  0  0  0  0
  -22.7822  -13.5195   21.1864 C   0  0  0  0  0  0
  -22.1666   -4.2120   21.0972 F   0  0  0  0  0  0
  -21.5626   -3.4525   25.7732 F   0  0  0  0  0  0
  -29.9863  -13.6020   20.3996 N   0  0  0  0  0  0
  -26.2924  -12.9190   20.3326 N   0  0  0  0  0  0
  -25.9291  -11.6379   20.5824 N   0  0  0  0  0  0
  -22.0456  -12.8209   22.0422 N   0  0  0  0  0  0
  -25.4187  -15.1724   20.3883 N   0  0  0  0  0  0
  -31.7704  -14.9281   20.1190 O   0  0  0  0  0  0
  -21.6619   -6.8840   21.4225 O   0  0  0  0  0  0
  -22.3546  -14.5512   20.6718 O   0  0  0  0  0  0
  -24.6350  -31.8515   23.1917 C   0  0  0  0  0  0
  -25.9140  -32.4752   23.8301 C   0  0  1  0  0  0
  -27.2267  -27.2093   20.1502 C   0  0  0  0  0  0
  -25.5908  -33.8553   24.2238 N   0  0  0  0  0  0
  -23.4390  -30.4724   21.5345 C   0  0  2  0  0  0
  -24.8898  -28.9114   20.1087 C   0  0  0  0  0  0
  -22.7548  -29.4584   22.4839 C   0  0  0  0  0  0
  -18.0316  -28.1377   22.8492 C   0  0  0  0  0  0
  -24.1497  -36.7269   23.2659 C   0  0  0  0  0  0
  -25.9892  -30.7485   21.3820 C   0  0  0  0  0  0
  -26.0633  -29.3670   20.7234 C   0  0  0  0  0  0
  -27.2339  -28.5331   20.7270 C   0  0  0  0  0  0
  -26.0277  -26.8375   19.5005 C   0  0  0  0  0  0
  -24.8817  -27.6566   19.4823 C   0  0  0  0  0  0
  -23.6635  -29.8037   20.1522 C   0  0  0  0  0  0
  -25.4124  -36.3079   24.0359 C   0  0  1  0  0  0
  -20.5929  -28.3694   23.1250 C   0  0  2  0  0  0
  -20.6813  -26.9403   22.5396 C   0  0  0  0  0  0
  -19.5785  -26.6361   21.5210 C   0  0  0  0  0  0
  -18.1959  -26.7932   22.1612 C   0  0  0  0  0  0
  -19.1576  -28.8848   23.2880 C   0  0  0  0  0  0
  -18.9487  -30.1447   23.8893 C   0  0  0  0  0  0
  -17.6496  -30.6582   24.0556 C   0  0  0  0  0  0
  -25.9054  -34.9444   23.5112 C   0  0  0  0  0  0
  -16.5378  -29.9078   23.6322 C   0  0  0  0  0  0
  -16.7309  -28.6497   23.0355 C   0  0  0  0  0  0
  -26.4473  -31.6600   25.0706 C   0  0  0  0  0  0
  -25.3663  -31.3739   26.1404 C   0  0  0  0  0  0
  -27.0350  -30.3036   24.6207 C   0  0  0  0  0  0
  -27.6052  -32.4309   25.7449 C   0  0  0  0  0  0
  -27.5598  -37.1800   24.8480 C   0  0  0  0  0  0
  -21.4242  -29.3051   22.3624 N   0  0  0  0  0  0
  -26.4302  -37.3774   23.9431 N   0  0  0  0  0  0
  -24.7079  -31.0433   22.0916 N   0  0  0  0  0  0
  -23.4235  -28.8123   23.2954 O   0  0  0  0  0  0
  -28.3038  -26.2736   20.2275 O   0  0  0  0  0  0
  -26.5632  -34.8936   22.4678 O   0  0  0  0  0  0
  -23.5474  -32.1330   23.7154 O   0  0  0  0  0  0
  -26.0844  -16.9717   25.0852 C   0  0  0  0  0  0
  -27.6448  -18.2189   26.4694 C   0  0  0  0  0  0
  -26.7227  -17.1682   26.3220 C   0  0  0  0  0  0
  -26.3862  -17.7984   23.9847 C   0  0  0  0  0  0
  -27.9609  -19.0567   25.3792 C   0  0  0  0  0  0
  -27.3470  -18.8370   24.1148 C   0  0  0  0  0  0
  -26.4261  -16.2543   27.4928 C   0  0  0  0  0  0
  -25.6683  -17.5300   22.6721 C   0  0  0  0  0  0
  -28.9795  -20.1661   25.6035 C   0  0  0  0  0  0
  -28.8384  -16.3644   19.1896 C   0  0  0  0  0  0
  -31.5507  -17.8322   21.5684 C   0  0  0  0  0  0
  -27.7848  -19.6382   22.8876 C   0  0  0  0  0  0
  -28.6691  -21.9602   20.4701 C   0  0  0  0  0  0
  -29.1042  -23.5583   20.4330 C   0  0  0  0  0  0
  -29.7325  -20.6877   20.5680 C   0  0  0  0  0  0
  -28.0243  -24.7727   20.1455 C   0  0  0  0  0  0
  -29.7098  -16.2741   20.4688 C   0  0  2  0  0  0
  -30.3350  -17.8142   20.6166 C   0  0  1  0  0  0
  -29.3286  -19.1114   20.9246 C   0  0  1  0  0  0
  -28.9993  -18.9938   22.3655 N   0  3  0  0  0  0
  -31.4886  -12.6439   19.1931 H   0  0  0  0  0  0
  -30.4177  -11.5491   20.0160 H   0  0  0  0  0  0
  -29.8333  -11.6999   17.5764 H   0  0  0  0  0  0
  -29.6352  -13.4256   17.7037 H   0  0  0  0  0  0
  -27.9431  -11.2449   18.9675 H   0  0  0  0  0  0
  -27.3945  -12.4365   17.8182 H   0  0  0  0  0  0
  -27.5762  -14.1933   19.4224 H   0  0  0  0  0  0
  -28.7559  -12.2502   21.4638 H   0  0  0  0  0  0
  -28.3999  -13.9302   21.7619 H   0  0  0  0  0  0
  -25.2722   -9.5633   22.4760 H   0  0  0  0  0  0
  -23.9956   -7.4590   22.7478 H   0  0  0  0  0  0
  -21.0791   -8.8720   19.8959 H   0  0  0  0  0  0
  -22.3639  -10.9631   19.6167 H   0  0  0  0  0  0
  -21.2002   -7.6127   23.9679 H   0  0  0  0  0  0
  -21.1456   -6.0510   25.9056 H   0  0  0  0  0  0
  -22.0631   -2.7586   23.2844 H   0  0  0  0  0  0
  -22.4036  -11.9848   22.4794 H   0  0  0  0  0  0
  -21.1076  -13.1255   22.2633 H   0  0  0  0  0  0
  -24.6371  -15.8146   20.4473 H   0  0  0  0  0  0
  -26.2578  -15.5928   20.0145 H   0  0  0  0  0  0
  -26.7197  -32.5387   23.1035 H   0  0  0  0  0  0
  -25.0075  -33.9677   25.0402 H   0  0  0  0  0  0
  -22.7394  -31.2961   21.3807 H   0  0  0  0  0  0
  -23.3799  -35.9559   23.3288 H   0  0  0  0  0  0
  -24.3597  -36.8877   22.2075 H   0  0  0  0  0  0
  -23.7201  -37.6454   23.6665 H   0  0  0  0  0  0
  -26.1409  -31.5079   20.6139 H   0  0  0  0  0  0
  -26.8637  -30.7944   22.0194 H   0  0  0  0  0  0
  -28.1290  -28.8795   21.2240 H   0  0  0  0  0  0
  -25.9425  -25.8788   19.0135 H   0  0  0  0  0  0
  -23.9871  -27.3006   18.9892 H   0  0  0  0  0  0
  -23.8020  -30.5810   19.4001 H   0  0  0  0  0  0
  -22.7829  -29.2417   19.8337 H   0  0  0  0  0  0
  -25.1301  -36.1932   25.0852 H   0  0  0  0  0  0
  -21.0033  -28.3252   24.1374 H   0  0  0  0  0  0
  -20.5690  -26.2292   23.3592 H   0  0  0  0  0  0
  -21.6678  -26.7408   22.1193 H   0  0  0  0  0  0
  -19.6939  -25.6262   21.1247 H   0  0  0  0  0  0
  -19.6737  -27.3170   20.6737 H   0  0  0  0  0  0
  -17.4238  -26.6685   21.4008 H   0  0  0  0  0  0
  -18.0358  -26.0072   22.8995 H   0  0  0  0  0  0
  -19.7962  -30.7264   24.2259 H   0  0  0  0  0  0
  -17.5046  -31.6267   24.5143 H   0  0  0  0  0  0
  -15.5379  -30.2976   23.7661 H   0  0  0  0  0  0
  -15.8709  -28.0807   22.7067 H   0  0  0  0  0  0
  -24.5882  -30.7054   25.7703 H   0  0  0  0  0  0
  -24.8797  -32.2892   26.4777 H   0  0  0  0  0  0
  -25.7937  -30.8948   27.0220 H   0  0  0  0  0  0
  -26.2962  -29.6759   24.1223 H   0  0  0  0  0  0
  -27.4082  -29.7316   25.4711 H   0  0  0  0  0  0
  -27.8791  -30.4376   23.9444 H   0  0  0  0  0  0
  -27.2749  -33.3669   26.1967 H   0  0  0  0  0  0
  -28.3873  -32.6745   25.0245 H   0  0  0  0  0  0
  -28.0707  -31.8447   26.5382 H   0  0  0  0  0  0
  -28.2607  -38.0108   24.7545 H   0  0  0  0  0  0
  -28.1090  -36.2643   24.6257 H   0  0  0  0  0  0
  -27.2313  -37.1369   25.8878 H   0  0  0  0  0  0
  -20.9402  -29.8793   21.6861 H   0  0  0  0  0  0
  -26.0191  -38.2850   24.1415 H   0  0  0  0  0  0
  -25.3674  -16.1695   24.9762 H   0  0  0  0  0  0
  -28.1244  -18.3696   27.4268 H   0  0  0  0  0  0
  -25.7361  -15.4563   27.2168 H   0  0  0  0  0  0
  -25.9840  -16.8179   28.3137 H   0  0  0  0  0  0
  -27.3467  -15.7936   27.8516 H   0  0  0  0  0  0
  -24.9902  -16.6792   22.7544 H   0  0  0  0  0  0
  -26.3826  -17.3068   21.8797 H   0  0  0  0  0  0
  -25.0698  -18.3906   22.3716 H   0  0  0  0  0  0
  -29.2345  -20.2615   26.6603 H   0  0  0  0  0  0
  -28.5904  -21.1334   25.2842 H   0  0  0  0  0  0
  -29.9054  -19.9666   25.0640 H   0  0  0  0  0  0
  -27.7826  -16.4559   19.4370 H   0  0  0  0  0  0
  -28.9708  -15.5183   18.5170 H   0  0  0  0  0  0
  -29.0771  -17.2304   18.5725 H   0  0  0  0  0  0
  -32.3569  -17.2054   21.1881 H   0  0  0  0  0  0
  -31.3043  -17.4663   22.5659 H   0  0  0  0  0  0
  -31.9636  -18.8366   21.6664 H   0  0  0  0  0  0
  -27.9826  -20.6758   23.1509 H   0  0  0  0  0  0
  -27.0066  -19.6646   22.1269 H   0  0  0  0  0  0
  -28.0619  -21.7777   19.5816 H   0  0  0  0  0  0
  -27.9604  -21.8790   21.2903 H   0  0  0  0  0  0
  -29.8984  -23.6621   19.6940 H   0  0  0  0  0  0
  -29.5785  -23.7805   21.3892 H   0  0  0  0  0  0
  -30.5271  -20.9837   21.2530 H   0  0  0  0  0  0
  -30.2216  -20.6506   19.5955 H   0  0  0  0  0  0
  -27.1729  -24.5866   20.8012 H   0  0  0  0  0  0
  -27.6634  -24.5879   19.1346 H   0  0  0  0  0  0
  -29.0478  -16.1237   21.3216 H   0  0  0  0  0  0
  -30.7732  -18.0426   19.6443 H   0  0  0  0  0  0
  -28.4157  -18.9105   20.3636 H   0  0  0  0  0  0
  -28.8674  -18.0145   22.5598 H   0  0  0  0  0  0
  -29.7868  -19.2912   22.9173 H   0  0  0  0  0  0
  1 25  1  0  0  0
  1 30  2  0  0  0
  1 87  1  0  0  0
  2  3  1  0  0  0
  2 25  1  0  0  0
  2 91  1  0  0  0
  2 92  1  0  0  0
  3  4  1  0  0  0
  3 93  1  0  0  0
  3 94  1  0  0  0
  4  5  1  0  0  0
  4 95  1  0  0  0
  4 96  1  0  0  0
  5  6  1  0  0  0
  5 26  1  0  0  0
  5 97  1  0  0  0
  6 25  1  0  0  0
  6 98  1  0  0  0
  6 99  1  0  0  0
  7  8  2  0  0  0
  7 26  1  0  0  0
  7 29  1  0  0  0
  8  9  1  0  0  0
  8 22  1  0  0  0
  9 10  1  0  0  0
  9 27  2  0  0  0
 10 11  2  0  0  0
 10 15  1  0  0  0
 11 12  1  0  0  0
 11100  1  0  0  0
 12 13  2  0  0  0
 12101  1  0  0  0
 13 14  1  0  0  0
 13 31  1  0  0  0
 14 15  2  0  0  0
 14102  1  0  0  0
 15103  1  0  0  0
 16 17  2  0  0  0
 16 21  1  0  0  0
 16 31  1  0  0  0
 17 18  1  0  0  0
 17104  1  0  0  0
 18 19  2  0  0  0
 18105  1  0  0  0
 19 20  1  0  0  0
 19 24  1  0  0  0
 20 21  2  0  0  0
 20106  1  0  0  0
 21 23  1  0  0  0
 22 28  1  0  0  0
 22 32  2  0  0  0
 26 27  1  0  0  0
 28107  1  0  0  0
 28108  1  0  0  0
 29109  1  0  0  0
 29110  1  0  0  0
 33 34  1  0  0  0
 33 66  1  0  0  0
 33 70  2  0  0  0
 34 36  1  0  0  0
 34 59  1  0  0  0
 34111  1  0  0  0
 35 44  2  0  0  0
 35 45  1  0  0  0
 35 68  1  0  0  0
 36 56  1  0  0  0
 36112  1  0  0  0
 37 39  1  0  0  0
 37 47  1  0  0  0
 37 66  1  0  0  0
 37113  1  0  0  0
 38 43  2  0  0  0
 38 46  1  0  0  0
 38 47  1  0  0  0
 39 64  1  0  0  0
 39 67  2  0  0  0
 40 52  1  0  0  0
 40 53  2  0  0  0
 40 58  1  0  0  0
 41114  1  0  0  0
 41115  1  0  0  0
 41116  1  0  0  0
 41 48  1  0  0  0
 42 43  1  0  0  0
 42 66  1  0  0  0
 42117  1  0  0  0
 42118  1  0  0  0
 43 44  1  0  0  0
 44119  1  0  0  0
 45 46  2  0  0  0
 45120  1  0  0  0
 46121  1  0  0  0
 47122  1  0  0  0
 47123  1  0  0  0
 48 56  1  0  0  0
 48 65  1  0  0  0
 48124  1  0  0  0
 49 50  1  0  0  0
 49 53  1  0  0  0
 49 64  1  0  0  0
 49125  1  0  0  0
 50 51  1  0  0  0
 50126  1  0  0  0
 50127  1  0  0  0
 51 52  1  0  0  0
 51128  1  0  0  0
 51129  1  0  0  0
 52130  1  0  0  0
 52131  1  0  0  0
 53 54  1  0  0  0
 54 55  2  0  0  0
 54132  1  0  0  0
 55 57  1  0  0  0
 55133  1  0  0  0
 56 69  2  0  0  0
 57 58  2  0  0  0
 57134  1  0  0  0
 58135  1  0  0  0
 59 60  1  0  0  0
 59 61  1  0  0  0
 59 62  1  0  0  0
 60136  1  0  0  0
 60137  1  0  0  0
 60138  1  0  0  0
 61139  1  0  0  0
 61140  1  0  0  0
 61141  1  0  0  0
 62142  1  0  0  0
 62143  1  0  0  0
 62144  1  0  0  0
 63 65  1  0  0  0
 63145  1  0  0  0
 63146  1  0  0  0
 63147  1  0  0  0
 64148  1  0  0  0
 65149  1  0  0  0
 68 86  1  0  0  0
 71 73  2  0  0  0
 71 74  1  0  0  0
 71150  1  0  0  0
 72 73  1  0  0  0
 72 75  2  0  0  0
 72151  1  0  0  0
 73 77  1  0  0  0
 74 76  2  0  0  0
 74 78  1  0  0  0
 75 76  1  0  0  0
 75 79  1  0  0  0
 76 82  1  0  0  0
 77152  1  0  0  0
 77153  1  0  0  0
 77154  1  0  0  0
 78155  1  0  0  0
 78156  1  0  0  0
 78157  1  0  0  0
 79158  1  0  0  0
 79159  1  0  0  0
 79160  1  0  0  0
 80161  1  0  0  0
 80162  1  0  0  0
 80163  1  0  0  0
 80 87  1  0  0  0
 81164  1  0  0  0
 81165  1  0  0  0
 81166  1  0  0  0
 81 88  1  0  0  0
 82 90  1  0  0  0
 82167  1  0  0  0
 82168  1  0  0  0
 83 84  1  0  0  0
 83 85  1  0  0  0
 83169  1  0  0  0
 83170  1  0  0  0
 84 86  1  0  0  0
 84171  1  0  0  0
 84172  1  0  0  0
 85173  1  0  0  0
 85174  1  0  0  0
 85 89  1  0  0  0
 86175  1  0  0  0
 86176  1  0  0  0
 87 88  1  0  0  0
 87177  1  0  0  0
 88 89  1  0  0  0
 88178  1  0  0  0
 89 90  1  0  0  0
 89179  1  0  0  0
 90180  1  0  0  0
 90181  1  0  0  0
M  CHG  1  90   1
M  ISO  4   1 100  68 101  86 101  87 100
M  END
> <chiral flag>
0

> <version>
0

> <s_m_source_file>
/data/baiqing/PycharmProjects/Reinvent-master-3.2/result/LINK_invent/BTK/process_docking_weight1_custom_sum_contain_oxygen_bond_distance_aromatic_linkinvent_7_9_3/rearranged_h_0100.sdf

> <i_m_source_file_index>
51

> <r_mmod_Potential_Energy-OPLS-2005>
271.219848632812

> <r_mmod_Stretch_Energy-OPLS-2005>
217.363891601562

> <r_mmod_Bend_Energy-OPLS-2005>
234.289306640625

> <r_mmod_Torsional_Energy-OPLS-2005>
225.167037963867

> <r_mmod_Improper_Torsional_Energy-OPLS-2005>
5.7844614982605

> <r_mmod_Van_der_Waal_Energy-OPLS-2005>
133.23991394043

> <r_mmod_Electrostatic_Energy-OPLS-2005>
-256.483581542969

> <r_mmod_Solvation_Energy-OPLS-2005>
-423.7314453125

> <b_mmod_Minimization_Converged-OPLS-2005>
0

> <r_mmod_RMS_Derivative-OPLS-2005>
2.54520606994629

$$$$
51
                    3D
 Structure written by MMmdl.
176184  0  0  1  0            999 V2000
  -27.8212  -17.1484   21.1716 C   0  0  0  0  0  0
  -29.5417  -14.6648   19.9230 C   0  0  0  0  0  0
  -29.3791  -13.4451   18.7967 C   0  0  0  0  0  0
  -28.2404  -12.4828   19.1033 C   0  0  0  0  0  0
  -27.3521  -13.3809   19.9411 C   0  0  2  0  0  0
  -27.9309  -14.1123   21.1973 C   0  0  0  0  0  0
  -25.0630  -13.8017   20.5417 C   0  0  0  0  0  0
  -24.0514  -13.0036   20.9266 C   0  0  0  0  0  0
  -24.5576  -11.6662   20.8859 C   0  0  0  0  0  0
  -23.8631  -10.4044   21.0521 C   0  0  0  0  0  0
  -24.3380   -9.4060   21.9265 C   0  0  0  0  0  0
  -23.6160   -8.2059   22.0783 C   0  0  0  0  0  0
  -22.4151   -8.0088   21.3546 C   0  0  0  0  0  0
  -21.9684   -8.9996   20.4644 C   0  0  0  0  0  0
  -22.6900  -10.1894   20.3089 C   0  0  0  0  0  0
  -21.6795   -6.0625   22.5293 C   0  0  0  0  0  0
  -21.3978   -6.5580   23.8207 C   0  0  0  0  0  0
  -21.3638   -5.6757   24.9185 C   0  0  0  0  0  0
  -21.6034   -4.3017   24.7251 C   0  0  0  0  0  0
  -21.8837   -3.8083   23.4388 C   0  0  0  0  0  0
  -21.9187   -4.6873   22.3431 C   0  0  0  0  0  0
  -22.6709  -13.4818   21.2071 C   0  0  0  0  0  0
  -22.1656   -4.2060   21.1006 F   0  0  0  0  0  0
  -21.5633   -3.4525   25.7777 F   0  0  0  0  0  0
  -28.2620  -15.5205   20.7329 N   0  0  0  0  0  0
  -26.0931  -12.9323   20.2986 N   0  0  0  0  0  0
  -25.8407  -11.6420   20.5677 N   0  0  0  0  0  0
  -21.9577  -12.7859   22.0797 N   0  0  0  0  0  0
  -25.1905  -15.1827   20.3659 N   0  0  0  0  0  0
  -29.1502  -17.1975   20.9719 O   0  0  0  0  0  0
  -21.6553   -6.8695   21.4230 O   0  0  0  0  0  0
  -22.2485  -14.5186   20.6958 O   0  0  0  0  0  0
  -24.7081  -31.9847   23.2137 C   0  0  0  0  0  0
  -25.9861  -32.5313   23.8762 C   0  0  1  0  0  0
  -27.0359  -27.4090   20.1069 C   0  0  0  0  0  0
  -25.6656  -33.9004   24.2793 N   0  0  0  0  0  0
  -23.5458  -30.7324   21.5041 C   0  0  2  0  0  0
  -24.8951  -29.1616   20.0028 C   0  0  0  0  0  0
  -23.0221  -29.7060   22.4722 C   0  0  0  0  0  0
  -18.6236  -26.1472   22.4735 C   0  0  0  0  0  0
  -24.1532  -36.7396   23.2586 C   0  0  0  0  0  0
  -26.0560  -30.8894   21.3986 C   0  0  0  0  0  0
  -26.0467  -29.5337   20.7105 C   0  0  0  0  0  0
  -27.1440  -28.6480   20.7758 C   0  0  0  0  0  0
  -26.0011  -27.1690   19.1962 C   0  0  0  0  0  0
  -24.8976  -28.0204   19.1880 C   0  0  0  0  0  0
  -23.7281  -30.1126   20.0857 C   0  0  0  0  0  0
  -25.4142  -36.3286   24.0347 C   0  0  1  0  0  0
  -21.8893  -27.9177   22.1436 C   0  0  2  0  0  0
  -21.9011  -27.1039   20.3104 C   0  0  0  0  0  0
  -20.3338  -25.7481   19.6810 C   0  0  0  0  0  0
  -18.7124  -25.3911   20.8804 C   0  0  0  0  0  0
  -20.6110  -27.6907   23.2023 C   0  0  0  0  0  0
  -20.1623  -28.6215   24.5500 C   0  0  0  0  0  0
  -18.6797  -28.5261   25.2533 C   0  0  0  0  0  0
  -25.9186  -34.9713   23.5220 C   0  0  0  0  0  0
  -17.4091  -27.5648   24.8247 C   0  0  0  0  0  0
  -17.3203  -26.4454   23.5806 C   0  0  0  0  0  0
  -26.4726  -31.6684   25.0983 C   0  0  0  0  0  0
  -25.3769  -31.3784   26.1489 C   0  0  0  0  0  0
  -27.0430  -30.3087   24.6314 C   0  0  0  0  0  0
  -27.6280  -32.4137   25.8024 C   0  0  0  0  0  0
  -27.5612  -37.1927   24.8464 C   0  0  0  0  0  0
  -21.8471  -29.3140   22.1430 N   0  0  0  0  0  0
  -26.4296  -37.3978   23.9453 N   0  0  0  0  0  0
  -24.7925  -31.2457   22.0750 N   0  0  0  0  0  0
  -23.6973  -29.1929   23.3832 O   0  0  0  0  0  0
  -27.6641  -26.2975   20.5559 O   0  0  0  0  0  0
  -26.5423  -34.9077   22.4594 O   0  0  0  0  0  0
  -23.6157  -32.2582   23.7407 O   0  0  0  0  0  0
  -19.8116  -27.4624   21.0869 C   0  0  0  0  0  0
  -20.9194  -25.7149   21.9530 C   0  0  0  0  0  0
  -21.0181  -24.7985   23.2794 C   0  0  0  0  0  0
  -19.7290  -26.0727   24.3123 C   0  0  0  0  0  0
  -18.5558  -28.2643   22.9039 C   0  0  0  0  0  0
  -18.3838  -25.5270   26.6155 C   0  0  0  0  0  0
  -20.8496  -26.1827   26.6196 C   0  0  0  0  0  0
  -16.2057  -29.2929   22.2628 C   0  0  0  0  0  0
  -18.1789  -30.8784   22.6459 C   0  0  0  0  0  0
  -22.2962  -24.8376   21.4430 C   0  0  0  0  0  0
  -22.6781  -22.5881   22.9980 C   0  0  0  0  0  0
  -23.8049  -24.9965   20.7688 C   0  0  0  0  0  0
  -25.1130  -25.6052   21.5185 C   0  0  0  0  0  0
  -24.8169  -20.6762   22.1550 C   0  0  0  0  0  0
  -26.6328  -25.2735   20.9747 C   0  0  0  0  0  0
  -19.6868  -25.6123   25.7941 C   0  0  0  0  0  0
  -17.5341  -29.5246   23.0248 C   0  0  0  0  0  0
  -18.8906  -28.4228   21.5389 N   0  0  0  0  0  0
  -26.3259  -18.5978   21.6371 N   0  0  0  0  0  0
  -30.0677  -15.4470   19.3749 H   0  0  0  0  0  0
  -30.3003  -14.3604   20.6500 H   0  0  0  0  0  0
  -30.3155  -12.8977   18.6736 H   0  0  0  0  0  0
  -29.1810  -13.9076   17.8271 H   0  0  0  0  0  0
  -28.5822  -11.6285   19.6932 H   0  0  0  0  0  0
  -27.7521  -12.1229   18.1984 H   0  0  0  0  0  0
  -27.1103  -14.1397   19.1917 H   0  0  0  0  0  0
  -28.6998  -13.5482   21.7341 H   0  0  0  0  0  0
  -27.1812  -14.2476   21.9787 H   0  0  0  0  0  0
  -25.2490   -9.5652   22.4868 H   0  0  0  0  0  0
  -23.9899   -7.4459   22.7485 H   0  0  0  0  0  0
  -21.0631   -8.8453   19.8948 H   0  0  0  0  0  0
  -22.3317  -10.9451   19.6248 H   0  0  0  0  0  0
  -21.1955   -7.6093   23.9672 H   0  0  0  0  0  0
  -21.1446   -6.0506   25.9076 H   0  0  0  0  0  0
  -22.0646   -2.7549   23.2915 H   0  0  0  0  0  0
  -22.3272  -11.9509   22.5090 H   0  0  0  0  0  0
  -21.0295  -13.0980   22.3252 H   0  0  0  0  0  0
  -24.3846  -15.7974   20.4075 H   0  0  0  0  0  0
  -25.9485  -15.5595   19.8151 H   0  0  0  0  0  0
  -26.8103  -32.5956   23.1687 H   0  0  0  0  0  0
  -25.1090  -34.0180   25.1128 H   0  0  0  0  0  0
  -22.8233  -31.5485   21.4196 H   0  0  0  0  0  0
  -23.3831  -35.9684   23.3235 H   0  0  0  0  0  0
  -24.3657  -36.9001   22.1998 H   0  0  0  0  0  0
  -23.7208  -37.6591   23.6562 H   0  0  0  0  0  0
  -26.2714  -31.6615   20.6573 H   0  0  0  0  0  0
  -26.9172  -30.8698   22.0553 H   0  0  0  0  0  0
  -27.9741  -28.8423   21.4425 H   0  0  0  0  0  0
  -25.9578  -26.2491   18.6293 H   0  0  0  0  0  0
  -24.0729  -27.8170   18.5191 H   0  0  0  0  0  0
  -23.9405  -30.9326   19.3979 H   0  0  0  0  0  0
  -22.8151  -29.6834   19.6919 H   0  0  0  0  0  0
  -25.1264  -36.2164   25.0822 H   0  0  0  0  0  0
  -22.6891  -27.3659   22.6545 H   0  0  0  0  0  0
  -21.7549  -27.9282   19.6146 H   0  0  0  0  0  0
  -22.8667  -26.9260   19.9348 H   0  0  0  0  0  0
  -20.7587  -24.7919   19.3780 H   0  0  0  0  0  0
  -19.9552  -26.1093   18.7232 H   0  0  0  0  0  0
  -17.8102  -25.6762   20.3412 H   0  0  0  0  0  0
  -18.6294  -24.3162   21.0325 H   0  0  0  0  0  0
  -20.8643  -29.3549   24.9132 H   0  0  0  0  0  0
  -18.5138  -29.1759   26.1014 H   0  0  0  0  0  0
  -16.5158  -27.6705   25.4274 H   0  0  0  0  0  0
  -16.3764  -25.9478   23.4192 H   0  0  0  0  0  0
  -24.5876  -30.7379   25.7539 H   0  0  0  0  0  0
  -24.9097  -32.2955   26.5088 H   0  0  0  0  0  0
  -25.7890  -30.8651   27.0192 H   0  0  0  0  0  0
  -26.3047  -29.7088   24.0997 H   0  0  0  0  0  0
  -27.3751  -29.7092   25.4799 H   0  0  0  0  0  0
  -27.9122  -30.4325   23.9858 H   0  0  0  0  0  0
  -27.2969  -33.3413   26.2736 H   0  0  0  0  0  0
  -28.4262  -32.6696   25.1028 H   0  0  0  0  0  0
  -28.0746  -31.8051   26.5913 H   0  0  0  0  0  0
  -28.2564  -38.0294   24.7634 H   0  0  0  0  0  0
  -28.1188  -36.2838   24.6138 H   0  0  0  0  0  0
  -27.2361  -37.1392   25.8872 H   0  0  0  0  0  0
  -21.2993  -29.7979   21.4437 H   0  0  0  0  0  0
  -26.0181  -38.3041   24.1536 H   0  0  0  0  0  0
  -19.8235  -27.9023   20.0898 H   0  0  0  0  0  0
  -18.5371  -24.8844   27.4838 H   0  0  0  0  0  0
  -17.5615  -25.0932   26.0484 H   0  0  0  0  0  0
  -18.0722  -26.4883   27.0224 H   0  0  0  0  0  0
  -21.7959  -26.0860   26.0837 H   0  0  0  0  0  0
  -20.9547  -25.6444   27.5615 H   0  0  0  0  0  0
  -20.7057  -27.2338   26.8645 H   0  0  0  0  0  0
  -15.6938  -28.4027   22.6322 H   0  0  0  0  0  0
  -16.3575  -29.1659   21.1904 H   0  0  0  0  0  0
  -15.5221  -30.1319   22.4045 H   0  0  0  0  0  0
  -19.0873  -31.0465   23.2258 H   0  0  0  0  0  0
  -17.4969  -31.6993   22.8648 H   0  0  0  0  0  0
  -18.4341  -30.9555   21.5885 H   0  0  0  0  0  0
  -21.9235  -23.8755   21.0875 H   0  0  0  0  0  0
  -22.9049  -24.7840   22.3445 H   0  0  0  0  0  0
  -21.8648  -21.8595   23.0237 H   0  0  0  0  0  0
  -22.9996  -22.6421   24.0388 H   0  0  0  0  0  0
  -23.8010  -25.2255   19.7049 H   0  0  0  0  0  0
  -24.1013  -23.9498   20.6726 H   0  0  0  0  0  0
  -25.0800  -25.2206   22.5376 H   0  0  0  0  0  0
  -24.9720  -26.6749   21.6631 H   0  0  0  0  0  0
  -25.4364  -20.9137   23.0252 H   0  0  0  0  0  0
  -25.2327  -21.2967   21.3585 H   0  0  0  0  0  0
  -26.5407  -24.5577   20.1592 H   0  0  0  0  0  0
  -27.1230  -24.6939   21.7591 H   0  0  0  0  0  0
  -19.9408  -24.5611   25.6646 H   0  0  0  0  0  0
  -17.1661  -29.7828   24.0142 H   0  0  0  0  0  0
  -27.1244  -19.2133   21.7237 H   0  0  0  0  0  0
  1 25  1  0  0  0
  1 30  2  0  0  0
  1 89  1  0  0  0
  2  3  1  0  0  0
  2 25  1  0  0  0
  2 90  1  0  0  0
  2 91  1  0  0  0
  3  4  1  0  0  0
  3 92  1  0  0  0
  3 93  1  0  0  0
  4  5  1  0  0  0
  4 94  1  0  0  0
  4 95  1  0  0  0
  5  6  1  0  0  0
  5 26  1  0  0  0
  5 96  1  0  0  0
  6 25  1  0  0  0
  6 97  1  0  0  0
  6 98  1  0  0  0
  7  8  2  0  0  0
  7 26  1  0  0  0
  7 29  1  0  0  0
  8  9  1  0  0  0
  8 22  1  0  0  0
  9 10  1  0  0  0
  9 27  2  0  0  0
 10 11  2  0  0  0
 10 15  1  0  0  0
 11 12  1  0  0  0
 11 99  1  0  0  0
 12 13  2  0  0  0
 12100  1  0  0  0
 13 14  1  0  0  0
 13 31  1  0  0  0
 14 15  2  0  0  0
 14101  1  0  0  0
 15102  1  0  0  0
 16 17  2  0  0  0
 16 21  1  0  0  0
 16 31  1  0  0  0
 17 18  1  0  0  0
 17103  1  0  0  0
 18 19  2  0  0  0
 18104  1  0  0  0
 19 20  1  0  0  0
 19 24  1  0  0  0
 20 21  2  0  0  0
 20105  1  0  0  0
 21 23  1  0  0  0
 22 28  1  0  0  0
 22 32  2  0  0  0
 26 27  1  0  0  0
 28106  1  0  0  0
 28107  1  0  0  0
 29108  1  0  0  0
 29109  1  0  0  0
 33 34  1  0  0  0
 33 66  1  0  0  0
 33 70  2  0  0  0
 34 36  1  0  0  0
 34 59  1  0  0  0
 34110  1  0  0  0
 35 44  2  0  0  0
 35 45  1  0  0  0
 35 68  1  0  0  0
 36 56  1  0  0  0
 36111  1  0  0  0
 37 39  1  0  0  0
 37 47  1  0  0  0
 37 66  1  0  0  0
 37112  1  0  0  0
 38 43  2  0  0  0
 38 46  1  0  0  0
 38 47  1  0  0  0
 39 64  1  0  0  0
 39 67  2  0  0  0
 40 52  1  0  0  0
 40 53  2  0  0  0
 40 58  1  0  0  0
 41113  1  0  0  0
 41114  1  0  0  0
 41115  1  0  0  0
 41 48  1  0  0  0
 42 43  1  0  0  0
 42 66  1  0  0  0
 42116  1  0  0  0
 42117  1  0  0  0
 43 44  1  0  0  0
 44118  1  0  0  0
 45 46  2  0  0  0
 45119  1  0  0  0
 46120  1  0  0  0
 47121  1  0  0  0
 47122  1  0  0  0
 48 56  1  0  0  0
 48 65  1  0  0  0
 48123  1  0  0  0
 49 50  1  0  0  0
 49 53  1  0  0  0
 49 64  1  0  0  0
 49124  1  0  0  0
 50 51  1  0  0  0
 50125  1  0  0  0
 50126  1  0  0  0
 51 52  1  0  0  0
 51127  1  0  0  0
 51128  1  0  0  0
 52129  1  0  0  0
 52130  1  0  0  0
 53 54  1  0  0  0
 54 55  2  0  0  0
 54131  1  0  0  0
 55 57  1  0  0  0
 55132  1  0  0  0
 56 69  2  0  0  0
 57 58  2  0  0  0
 57133  1  0  0  0
 58134  1  0  0  0
 59 60  1  0  0  0
 59 61  1  0  0  0
 59 62  1  0  0  0
 60135  1  0  0  0
 60136  1  0  0  0
 60137  1  0  0  0
 61138  1  0  0  0
 61139  1  0  0  0
 61140  1  0  0  0
 62141  1  0  0  0
 62142  1  0  0  0
 62143  1  0  0  0
 63 65  1  0  0  0
 63144  1  0  0  0
 63145  1  0  0  0
 63146  1  0  0  0
 64147  1  0  0  0
 65148  1  0  0  0
 68 85  1  0  0  0
 71 72  2  0  0  0
 71 88  1  0  0  0
 71149  1  0  0  0
 72 73  1  0  0  0
 72 80  1  0  0  0
 73 74  2  0  0  0
 73 81  1  0  0  0
 74 75  1  0  0  0
 74 86  1  0  0  0
 75 87  1  0  0  0
 75 88  2  0  0  0
 76150  1  0  0  0
 76151  1  0  0  0
 76152  1  0  0  0
 76 86  1  0  0  0
 77 86  1  0  0  0
 77153  1  0  0  0
 77154  1  0  0  0
 77155  1  0  0  0
 78156  1  0  0  0
 78157  1  0  0  0
 78158  1  0  0  0
 78 87  1  0  0  0
 79 87  1  0  0  0
 79159  1  0  0  0
 79160  1  0  0  0
 79161  1  0  0  0
 80 82  1  0  0  0
 80162  1  0  0  0
 80163  1  0  0  0
 81 84  1  0  0  0
 81164  1  0  0  0
 81165  1  0  0  0
 82 83  1  0  0  0
 82166  1  0  0  0
 82167  1  0  0  0
 83 85  1  0  0  0
 83168  1  0  0  0
 83169  1  0  0  0
 84 89  1  0  0  0
 84170  1  0  0  0
 84171  1  0  0  0
 85172  1  0  0  0
 85173  1  0  0  0
 86174  1  0  0  0
 87175  1  0  0  0
 89176  1  0  0  0
M  ISO  4   1 100  68 101  85 101  89 100
M  END
> <chiral flag>
0

> <version>
0

> <s_m_source_file>
/data/baiqing/PycharmProjects/Reinvent-master-3.2/result/LINK_invent/BTK/process_docking_weight1_custom_sum_contain_oxygen_bond_distance_aromatic_linkinvent_7_9_3/rearranged_h_0100.sdf

> <i_m_source_file_index>
52

> <r_mmod_Potential_Energy-OPLS-2005>
37451.6796875

> <r_mmod_Stretch_Energy-OPLS-2005>
19894.01171875

> <r_mmod_Bend_Energy-OPLS-2005>
2468.6142578125

> <r_mmod_Torsional_Energy-OPLS-2005>
373.686279296875

> <r_mmod_Improper_Torsional_Energy-OPLS-2005>
21.370922088623

> <r_mmod_Van_der_Waal_Energy-OPLS-2005>
5055.390625

> <r_mmod_Electrostatic_Energy-OPLS-2005>
-473.907104492188

> <r_mmod_Solvation_Energy-OPLS-2005>
-218.954849243164

> <b_mmod_Minimization_Converged-OPLS-2005>
0

> <r_mmod_RMS_Derivative-OPLS-2005>
9.94297695159912

$$$$
52
                    3D
 Structure written by MMmdl.
168176  0  0  1  0            999 V2000
  -30.5769  -14.9920   20.3872 C   0  0  0  0  0  0
  -30.4427  -12.6113   19.5082 C   0  0  0  0  0  0
  -29.5277  -12.5411   18.2638 C   0  0  0  0  0  0
  -28.0605  -12.3432   18.6761 C   0  0  0  0  0  0
  -27.6390  -13.2641   19.8473 C   0  0  2  0  0  0
  -28.6905  -13.3217   20.9796 C   0  0  0  0  0  0
  -25.2511  -13.8236   20.5752 C   0  0  0  0  0  0
  -24.1842  -13.0445   20.9242 C   0  0  0  0  0  0
  -24.6478  -11.6902   20.8778 C   0  0  0  0  0  0
  -23.9160  -10.4273   21.0407 C   0  0  0  0  0  0
  -24.3699   -9.4183   21.9189 C   0  0  0  0  0  0
  -23.6344   -8.2243   22.0748 C   0  0  0  0  0  0
  -22.4309   -8.0302   21.3547 C   0  0  0  0  0  0
  -21.9977   -9.0284   20.4635 C   0  0  0  0  0  0
  -22.7332  -10.2144   20.3046 C   0  0  0  0  0  0
  -21.6858   -6.0739   22.5273 C   0  0  0  0  0  0
  -21.4006   -6.5641   23.8198 C   0  0  0  0  0  0
  -21.3677   -5.6805   24.9178 C   0  0  0  0  0  0
  -21.6070   -4.3071   24.7227 C   0  0  0  0  0  0
  -21.8831   -3.8149   23.4354 C   0  0  0  0  0  0
  -21.9199   -4.6970   22.3401 C   0  0  0  0  0  0
  -22.7859  -13.5181   21.1864 C   0  0  0  0  0  0
  -22.1676   -4.2152   21.0986 F   0  0  0  0  0  0
  -21.5642   -3.4554   25.7744 F   0  0  0  0  0  0
  -29.9660  -13.7310   20.3766 N   0  0  0  0  0  0
  -26.2988  -12.9514   20.3348 N   0  0  0  0  0  0
  -25.9429  -11.6612   20.5810 N   0  0  0  0  0  0
  -22.0530  -12.8141   22.0408 N   0  0  0  0  0  0
  -25.4212  -15.1970   20.4102 N   0  0  0  0  0  0
  -31.7676  -15.0264   20.0633 O   0  0  0  0  0  0
  -21.6663   -6.8901   21.4231 O   0  0  0  0  0  0
  -22.3516  -14.5496   20.6695 O   0  0  0  0  0  0
  -24.6526  -31.8382   23.1802 C   0  0  0  0  0  0
  -25.9259  -32.4673   23.8257 C   0  0  1  0  0  0
  -27.2321  -27.0829   20.1387 C   0  0  0  0  0  0
  -25.5994  -33.8476   24.2161 N   0  0  0  0  0  0
  -23.4586  -30.4531   21.5296 C   0  0  2  0  0  0
  -24.9092  -28.8636   20.1106 C   0  0  0  0  0  0
  -22.7603  -29.4508   22.4860 C   0  0  0  0  0  0
  -18.0323  -28.1378   22.8470 C   0  0  0  0  0  0
  -24.1488  -36.7229   23.2642 C   0  0  0  0  0  0
  -26.0176  -30.6879   21.3884 C   0  0  0  0  0  0
  -26.0904  -29.2937   20.7295 C   0  0  0  0  0  0
  -27.2498  -28.4213   20.7218 C   0  0  0  0  0  0
  -26.0124  -26.7580   19.5017 C   0  0  0  0  0  0
  -24.8860  -27.6111   19.4808 C   0  0  0  0  0  0
  -23.6874  -29.7738   20.1520 C   0  0  0  0  0  0
  -25.4129  -36.3026   24.0306 C   0  0  1  0  0  0
  -20.5926  -28.3712   23.1201 C   0  0  2  0  0  0
  -20.6778  -26.9409   22.5389 C   0  0  0  0  0  0
  -19.5758  -26.6369   21.5183 C   0  0  0  0  0  0
  -18.1947  -26.7932   22.1606 C   0  0  0  0  0  0
  -19.1568  -28.8868   23.2838 C   0  0  0  0  0  0
  -18.9502  -30.1472   23.8865 C   0  0  0  0  0  0
  -17.6484  -30.6582   24.0538 C   0  0  0  0  0  0
  -25.9105  -34.9393   23.5040 C   0  0  0  0  0  0
  -16.5373  -29.9070   23.6338 C   0  0  0  0  0  0
  -16.7305  -28.6487   23.0368 C   0  0  0  0  0  0
  -26.4548  -31.6571   25.0734 C   0  0  0  0  0  0
  -25.3719  -31.3726   26.1424 C   0  0  0  0  0  0
  -27.0438  -30.2987   24.6328 C   0  0  0  0  0  0
  -27.6097  -32.4329   25.7522 C   0  0  0  0  0  0
  -27.5570  -37.1778   24.8470 C   0  0  0  0  0  0
  -21.4289  -29.3055   22.3603 N   0  0  0  0  0  0
  -26.4283  -37.3754   23.9418 N   0  0  0  0  0  0
  -24.7303  -31.0160   22.0887 N   0  0  0  0  0  0
  -23.4209  -28.8064   23.3045 O   0  0  0  0  0  0
  -28.2915  -26.0846   20.1703 O   0  0  0  0  0  0
  -26.5675  -34.8897   22.4618 O   0  0  0  0  0  0
  -23.5629  -32.1286   23.6980 O   0  0  0  0  0  0
  -30.3921  -23.6249   19.5739 C   0  0  0  0  0  0
  -31.4152  -22.6623   19.4971 C   0  0  0  0  0  0
  -28.9669  -21.8317   20.3144 C   0  0  0  0  0  0
  -29.1195  -23.2989   20.0378 C   0  0  0  0  0  0
  -31.3226  -21.2910   19.8989 C   0  0  0  0  0  0
  -30.0159  -20.7518   20.2571 C   0  0  0  0  0  0
  -33.3164  -21.2374   21.4067 C   0  0  0  0  0  0
  -33.7405  -20.9784   18.9536 C   0  0  0  0  0  0
  -32.8774  -19.1210   20.2398 C   0  0  0  0  0  0
  -29.7904  -19.1614   20.7666 C   0  0  0  0  0  0
  -28.0069  -24.5343   20.0921 C   0  0  0  0  0  0
  -29.1724  -17.7718   18.6464 C   0  0  0  0  0  0
  -30.0265  -17.6827   19.9290 C   0  0  2  0  0  0
  -32.7436  -20.6427   20.1072 C   0  0  0  0  0  0
  -29.8395  -16.2098   20.5285 N   0  0  0  0  0  0
  -29.5643  -18.8899   17.7655 N   0  3  0  0  0  0
  -31.4752  -12.7551   19.1936 H   0  0  0  0  0  0
  -30.4279  -11.6658   20.0513 H   0  0  0  0  0  0
  -29.8405  -11.7304   17.6064 H   0  0  0  0  0  0
  -29.6246  -13.4617   17.6852 H   0  0  0  0  0  0
  -27.9469  -11.2982   18.9629 H   0  0  0  0  0  0
  -27.4021  -12.5033   17.8227 H   0  0  0  0  0  0
  -27.5900  -14.2636   19.4142 H   0  0  0  0  0  0
  -28.7857  -12.3584   21.4812 H   0  0  0  0  0  0
  -28.3917  -14.0418   21.7404 H   0  0  0  0  0  0
  -25.2850   -9.5636   22.4766 H   0  0  0  0  0  0
  -24.0047   -7.4617   22.7449 H   0  0  0  0  0  0
  -21.0925   -8.8829   19.8911 H   0  0  0  0  0  0
  -22.3834  -10.9707   19.6150 H   0  0  0  0  0  0
  -21.1964   -7.6136   23.9698 H   0  0  0  0  0  0
  -21.1503   -6.0534   25.9082 H   0  0  0  0  0  0
  -22.0583   -2.7602   23.2860 H   0  0  0  0  0  0
  -22.4220  -11.9858   22.4848 H   0  0  0  0  0  0
  -21.1097  -13.1064   22.2519 H   0  0  0  0  0  0
  -24.6607  -15.8580   20.5169 H   0  0  0  0  0  0
  -26.2672  -15.6247   20.0587 H   0  0  0  0  0  0
  -26.7328  -32.5243   23.0985 H   0  0  0  0  0  0
  -25.0132  -33.9604   25.0309 H   0  0  0  0  0  0
  -22.7670  -31.2824   21.3699 H   0  0  0  0  0  0
  -23.3782  -35.9535   23.3292 H   0  0  0  0  0  0
  -24.3561  -36.8893   22.2060 H   0  0  0  0  0  0
  -23.7204  -37.6398   23.6690 H   0  0  0  0  0  0
  -26.1741  -31.4347   20.6115 H   0  0  0  0  0  0
  -26.8884  -30.7446   22.0295 H   0  0  0  0  0  0
  -28.1515  -28.7419   21.2205 H   0  0  0  0  0  0
  -25.8893  -25.7996   19.0207 H   0  0  0  0  0  0
  -23.9897  -27.2665   18.9848 H   0  0  0  0  0  0
  -23.8234  -30.5451   19.3934 H   0  0  0  0  0  0
  -22.7989  -29.2185   19.8440 H   0  0  0  0  0  0
  -25.1326  -36.1831   25.0799 H   0  0  0  0  0  0
  -21.0012  -28.3293   24.1314 H   0  0  0  0  0  0
  -20.5606  -26.2352   23.3624 H   0  0  0  0  0  0
  -21.6659  -26.7373   22.1227 H   0  0  0  0  0  0
  -19.6911  -25.6263   21.1255 H   0  0  0  0  0  0
  -19.6678  -27.3150   20.6674 H   0  0  0  0  0  0
  -17.4205  -26.6665   21.4019 H   0  0  0  0  0  0
  -18.0363  -26.0077   22.9006 H   0  0  0  0  0  0
  -19.7970  -30.7296   24.2211 H   0  0  0  0  0  0
  -17.5035  -31.6257   24.5141 H   0  0  0  0  0  0
  -15.5370  -30.2940   23.7681 H   0  0  0  0  0  0
  -15.8715  -28.0772   22.7101 H   0  0  0  0  0  0
  -24.5938  -30.7048   25.7705 H   0  0  0  0  0  0
  -24.8870  -32.2878   26.4823 H   0  0  0  0  0  0
  -25.8023  -30.8908   27.0219 H   0  0  0  0  0  0
  -26.3067  -29.6704   24.1319 H   0  0  0  0  0  0
  -27.4049  -29.7301   25.4910 H   0  0  0  0  0  0
  -27.8969  -30.4281   23.9668 H   0  0  0  0  0  0
  -27.2744  -33.3673   26.2029 H   0  0  0  0  0  0
  -28.3944  -32.6810   25.0363 H   0  0  0  0  0  0
  -28.0716  -31.8485   26.5494 H   0  0  0  0  0  0
  -28.2586  -38.0080   24.7556 H   0  0  0  0  0  0
  -28.1079  -36.2620   24.6268 H   0  0  0  0  0  0
  -27.2297  -37.1379   25.8876 H   0  0  0  0  0  0
  -20.9508  -29.8789   21.6787 H   0  0  0  0  0  0
  -26.0141  -38.2820   24.1454 H   0  0  0  0  0  0
  -30.6146  -24.6463   19.3012 H   0  0  0  0  0  0
  -32.3559  -23.0879   19.1983 H   0  0  0  0  0  0
  -27.9770  -21.5303   20.6271 H   0  0  0  0  0  0
  -33.3864  -22.3242   21.3573 H   0  0  0  0  0  0
  -34.3217  -20.8609   21.5921 H   0  0  0  0  0  0
  -32.6946  -20.9897   22.2682 H   0  0  0  0  0  0
  -34.0494  -22.0207   18.9304 H   0  0  0  0  0  0
  -33.3473  -20.7244   17.9698 H   0  0  0  0  0  0
  -34.6797  -20.4290   19.0594 H   0  0  0  0  0  0
  -32.2783  -18.6779   21.0264 H   0  0  0  0  0  0
  -33.8883  -18.8514   20.5441 H   0  0  0  0  0  0
  -32.7343  -18.6385   19.2728 H   0  0  0  0  0  0
  -28.7523  -19.1302   21.0917 H   0  0  0  0  0  0
  -30.3295  -19.0936   21.7130 H   0  0  0  0  0  0
  -27.3372  -24.2914   20.9170 H   0  0  0  0  0  0
  -27.4216  -24.3631   19.1899 H   0  0  0  0  0  0
  -28.1279  -17.8926   18.9352 H   0  0  0  0  0  0
  -29.2243  -16.8483   18.0709 H   0  0  0  0  0  0
  -31.0352  -17.6096   19.5650 H   0  0  0  0  0  0
  -28.9150  -16.0502   20.9014 H   0  0  0  0  0  0
  -29.5832  -19.7596   18.2735 H   0  0  0  0  0  0
  -28.9195  -18.9757   16.9977 H   0  0  0  0  0  0
  -30.4782  -18.7180   17.3836 H   0  0  0  0  0  0
  1 25  1  0  0  0
  1 30  2  0  0  0
  1 85  1  0  0  0
  2  3  1  0  0  0
  2 25  1  0  0  0
  2 87  1  0  0  0
  2 88  1  0  0  0
  3  4  1  0  0  0
  3 89  1  0  0  0
  3 90  1  0  0  0
  4  5  1  0  0  0
  4 91  1  0  0  0
  4 92  1  0  0  0
  5  6  1  0  0  0
  5 26  1  0  0  0
  5 93  1  0  0  0
  6 25  1  0  0  0
  6 94  1  0  0  0
  6 95  1  0  0  0
  7  8  2  0  0  0
  7 26  1  0  0  0
  7 29  1  0  0  0
  8  9  1  0  0  0
  8 22  1  0  0  0
  9 10  1  0  0  0
  9 27  2  0  0  0
 10 11  2  0  0  0
 10 15  1  0  0  0
 11 12  1  0  0  0
 11 96  1  0  0  0
 12 13  2  0  0  0
 12 97  1  0  0  0
 13 14  1  0  0  0
 13 31  1  0  0  0
 14 15  2  0  0  0
 14 98  1  0  0  0
 15 99  1  0  0  0
 16 17  2  0  0  0
 16 21  1  0  0  0
 16 31  1  0  0  0
 17 18  1  0  0  0
 17100  1  0  0  0
 18 19  2  0  0  0
 18101  1  0  0  0
 19 20  1  0  0  0
 19 24  1  0  0  0
 20 21  2  0  0  0
 20102  1  0  0  0
 21 23  1  0  0  0
 22 28  1  0  0  0
 22 32  2  0  0  0
 26 27  1  0  0  0
 28103  1  0  0  0
 28104  1  0  0  0
 29105  1  0  0  0
 29106  1  0  0  0
 33 34  1  0  0  0
 33 66  1  0  0  0
 33 70  2  0  0  0
 34 36  1  0  0  0
 34 59  1  0  0  0
 34107  1  0  0  0
 35 44  2  0  0  0
 35 45  1  0  0  0
 35 68  1  0  0  0
 36 56  1  0  0  0
 36108  1  0  0  0
 37 39  1  0  0  0
 37 47  1  0  0  0
 37 66  1  0  0  0
 37109  1  0  0  0
 38 43  2  0  0  0
 38 46  1  0  0  0
 38 47  1  0  0  0
 39 64  1  0  0  0
 39 67  2  0  0  0
 40 52  1  0  0  0
 40 53  2  0  0  0
 40 58  1  0  0  0
 41110  1  0  0  0
 41111  1  0  0  0
 41112  1  0  0  0
 41 48  1  0  0  0
 42 43  1  0  0  0
 42 66  1  0  0  0
 42113  1  0  0  0
 42114  1  0  0  0
 43 44  1  0  0  0
 44115  1  0  0  0
 45 46  2  0  0  0
 45116  1  0  0  0
 46117  1  0  0  0
 47118  1  0  0  0
 47119  1  0  0  0
 48 56  1  0  0  0
 48 65  1  0  0  0
 48120  1  0  0  0
 49 50  1  0  0  0
 49 53  1  0  0  0
 49 64  1  0  0  0
 49121  1  0  0  0
 50 51  1  0  0  0
 50122  1  0  0  0
 50123  1  0  0  0
 51 52  1  0  0  0
 51124  1  0  0  0
 51125  1  0  0  0
 52126  1  0  0  0
 52127  1  0  0  0
 53 54  1  0  0  0
 54 55  2  0  0  0
 54128  1  0  0  0
 55 57  1  0  0  0
 55129  1  0  0  0
 56 69  2  0  0  0
 57 58  2  0  0  0
 57130  1  0  0  0
 58131  1  0  0  0
 59 60  1  0  0  0
 59 61  1  0  0  0
 59 62  1  0  0  0
 60132  1  0  0  0
 60133  1  0  0  0
 60134  1  0  0  0
 61135  1  0  0  0
 61136  1  0  0  0
 61137  1  0  0  0
 62138  1  0  0  0
 62139  1  0  0  0
 62140  1  0  0  0
 63 65  1  0  0  0
 63141  1  0  0  0
 63142  1  0  0  0
 63143  1  0  0  0
 64144  1  0  0  0
 65145  1  0  0  0
 68 81  1  0  0  0
 71 72  2  0  0  0
 71 74  1  0  0  0
 71146  1  0  0  0
 72 75  1  0  0  0
 72147  1  0  0  0
 73 74  2  0  0  0
 73 76  1  0  0  0
 73148  1  0  0  0
 74 81  1  0  0  0
 75 76  2  0  0  0
 75 84  1  0  0  0
 76 80  1  0  0  0
 77149  1  0  0  0
 77150  1  0  0  0
 77151  1  0  0  0
 77 84  1  0  0  0
 78 84  1  0  0  0
 78152  1  0  0  0
 78153  1  0  0  0
 78154  1  0  0  0
 79 84  1  0  0  0
 79155  1  0  0  0
 79156  1  0  0  0
 79157  1  0  0  0
 80158  1  0  0  0
 80159  1  0  0  0
 80 83  1  0  0  0
 81160  1  0  0  0
 81161  1  0  0  0
 82 83  1  0  0  0
 82 86  1  0  0  0
 82162  1  0  0  0
 82163  1  0  0  0
 83 85  1  0  0  0
 83164  1  0  0  0
 85165  1  0  0  0
 86166  1  0  0  0
 86167  1  0  0  0
 86168  1  0  0  0
M  CHG  1  86   1
M  ISO  4   1 100  68 101  81 101  85 100
M  END
> <chiral flag>
0

> <version>
0

> <s_m_source_file>
/data/baiqing/PycharmProjects/Reinvent-master-3.2/result/LINK_invent/BTK/process_docking_weight1_custom_sum_contain_oxygen_bond_distance_aromatic_linkinvent_7_9_3/rearranged_h_0100.sdf

> <i_m_source_file_index>
53

> <r_mmod_Potential_Energy-OPLS-2005>
378.200408935547

> <r_mmod_Stretch_Energy-OPLS-2005>
331.781707763672

> <r_mmod_Bend_Energy-OPLS-2005>
316.044219970703

> <r_mmod_Torsional_Energy-OPLS-2005>
243.395629882812

> <r_mmod_Improper_Torsional_Energy-OPLS-2005>
8.10862636566162

> <r_mmod_Van_der_Waal_Energy-OPLS-2005>
153.507125854492

> <r_mmod_Electrostatic_Energy-OPLS-2005>
-409.327789306641

> <r_mmod_Solvation_Energy-OPLS-2005>
-492.348693847656

> <b_mmod_Minimization_Converged-OPLS-2005>
0

> <r_mmod_RMS_Derivative-OPLS-2005>
5.27000570297241

$$$$
53
                    3D
 Structure written by MMmdl.
173181  0  0  1  0            999 V2000
  -30.6372  -14.6727   20.4910 C   0  0  0  0  0  0
  -30.4217  -12.4149   19.4608 C   0  0  0  0  0  0
  -29.4937  -12.5053   18.2274 C   0  0  0  0  0  0
  -28.0189  -12.3419   18.6402 C   0  0  0  0  0  0
  -27.6452  -13.2229   19.8610 C   0  0  2  0  0  0
  -28.6905  -13.1234   20.9908 C   0  0  0  0  0  0
  -25.2514  -13.8152   20.5641 C   0  0  0  0  0  0
  -24.1814  -13.0448   20.9189 C   0  0  0  0  0  0
  -24.6389  -11.6911   20.8785 C   0  0  0  0  0  0
  -23.9040  -10.4328   21.0418 C   0  0  0  0  0  0
  -24.3645   -9.4214   21.9117 C   0  0  0  0  0  0
  -23.6357   -8.2216   22.0692 C   0  0  0  0  0  0
  -22.4302   -8.0269   21.3524 C   0  0  0  0  0  0
  -21.9862   -9.0300   20.4706 C   0  0  0  0  0  0
  -22.7158  -10.2209   20.3149 C   0  0  0  0  0  0
  -21.6877   -6.0710   22.5287 C   0  0  0  0  0  0
  -21.4005   -6.5610   23.8227 C   0  0  0  0  0  0
  -21.3660   -5.6779   24.9192 C   0  0  0  0  0  0
  -21.6058   -4.3037   24.7254 C   0  0  0  0  0  0
  -21.8816   -3.8117   23.4384 C   0  0  0  0  0  0
  -21.9200   -4.6912   22.3443 C   0  0  0  0  0  0
  -22.7852  -13.5220   21.1867 C   0  0  0  0  0  0
  -22.1648   -4.2093   21.1014 F   0  0  0  0  0  0
  -21.5665   -3.4537   25.7769 F   0  0  0  0  0  0
  -29.9976  -13.4617   20.4148 N   0  0  0  0  0  0
  -26.2975  -12.9371   20.3362 N   0  0  0  0  0  0
  -25.9338  -11.6523   20.5874 N   0  0  0  0  0  0
  -22.0629  -12.8341   22.0609 N   0  0  0  0  0  0
  -25.4134  -15.1854   20.3829 N   0  0  0  0  0  0
  -31.8178  -14.7812   20.1532 O   0  0  0  0  0  0
  -21.6672   -6.8845   21.4245 O   0  0  0  0  0  0
  -22.3450  -14.5450   20.6611 O   0  0  0  0  0  0
  -24.6312  -31.8557   23.1956 C   0  0  0  0  0  0
  -25.9130  -32.4767   23.8294 C   0  0  1  0  0  0
  -27.2265  -27.2853   20.1641 C   0  0  0  0  0  0
  -25.5926  -33.8558   24.2226 N   0  0  0  0  0  0
  -23.4247  -30.4761   21.5367 C   0  0  2  0  0  0
  -24.8733  -28.9154   20.1162 C   0  0  0  0  0  0
  -22.7501  -29.4615   22.4910 C   0  0  0  0  0  0
  -18.0306  -28.1398   22.8511 C   0  0  0  0  0  0
  -24.1475  -36.7242   23.2644 C   0  0  0  0  0  0
  -25.9640  -30.7860   21.3574 C   0  0  0  0  0  0
  -26.0428  -29.4039   20.7143 C   0  0  0  0  0  0
  -27.2265  -28.6066   20.7147 C   0  0  0  0  0  0
  -26.0343  -26.8402   19.5574 C   0  0  0  0  0  0
  -24.8727  -27.6401   19.5250 C   0  0  0  0  0  0
  -23.6409  -29.7962   20.1559 C   0  0  0  0  0  0
  -25.4118  -36.3066   24.0343 C   0  0  1  0  0  0
  -20.5918  -28.3672   23.1295 C   0  0  2  0  0  0
  -20.6774  -26.9394   22.5394 C   0  0  0  0  0  0
  -19.5731  -26.6414   21.5211 C   0  0  0  0  0  0
  -18.1932  -26.7957   22.1644 C   0  0  0  0  0  0
  -19.1556  -28.8870   23.2900 C   0  0  0  0  0  0
  -18.9470  -30.1501   23.8883 C   0  0  0  0  0  0
  -17.6455  -30.6586   24.0594 C   0  0  0  0  0  0
  -25.9063  -34.9441   23.5079 C   0  0  0  0  0  0
  -16.5359  -29.9080   23.6349 C   0  0  0  0  0  0
  -16.7293  -28.6509   23.0360 C   0  0  0  0  0  0
  -26.4508  -31.6578   25.0654 C   0  0  0  0  0  0
  -25.3776  -31.3682   26.1391 C   0  0  0  0  0  0
  -27.0341  -30.3036   24.6061 C   0  0  0  0  0  0
  -27.6076  -32.4300   25.7434 C   0  0  0  0  0  0
  -27.5576  -37.1770   24.8490 C   0  0  0  0  0  0
  -21.4217  -29.3019   22.3670 N   0  0  0  0  0  0
  -26.4269  -37.3787   23.9460 N   0  0  0  0  0  0
  -24.6930  -31.0561   22.0884 N   0  0  0  0  0  0
  -23.4240  -28.8210   23.3020 O   0  0  0  0  0  0
  -28.3422  -26.4279   20.1672 O   0  0  0  0  0  0
  -26.5592  -34.8912   22.4638 O   0  0  0  0  0  0
  -23.5463  -32.1331   23.7262 O   0  0  0  0  0  0
  -29.5925  -19.8162   20.9574 C   0  0  0  0  0  0
  -28.3492  -18.2894   19.5759 C   0  0  0  0  0  0
  -29.4108  -18.4613   20.4755 C   0  0  0  0  0  0
  -28.6982  -20.9103   20.6201 C   0  0  0  0  0  0
  -27.6343  -20.5250   19.7537 C   0  0  0  0  0  0
  -29.6597  -21.7978   23.6734 C   0  0  0  0  0  0
  -23.0696  -20.1649   20.8209 C   0  0  0  0  0  0
  -25.3863  -19.6993   21.7489 C   0  0  0  0  0  0
  -30.3534  -17.2361   20.8371 C   0  0  0  0  0  0
  -26.4930  -21.4693   19.3776 C   0  0  0  0  0  0
  -29.8433  -22.5644   22.3468 C   0  0  0  0  0  0
  -25.0695  -20.8750   19.4668 C   0  0  0  0  0  0
  -28.7434  -23.7259   20.3186 C   0  0  0  0  0  0
  -28.2633  -25.1488   20.9318 C   0  0  0  0  0  0
  -28.7442  -22.3920   21.2605 C   0  0  1  0  0  0
  -24.5243  -20.6516   20.8959 C   0  0  0  0  0  0
  -27.5250  -19.2884   19.2058 N   0  0  0  0  0  0
  -29.8813  -15.7930   20.7632 N   0  0  0  0  0  0
  -31.4611  -12.5288   19.1478 H   0  0  0  0  0  0
  -30.3494  -11.4314   19.9330 H   0  0  0  0  0  0
  -29.7574  -11.7453   17.4887 H   0  0  0  0  0  0
  -29.6300  -13.4679   17.7290 H   0  0  0  0  0  0
  -27.8554  -11.2905   18.8764 H   0  0  0  0  0  0
  -27.3638  -12.5692   17.7975 H   0  0  0  0  0  0
  -27.6451  -14.2543   19.5063 H   0  0  0  0  0  0
  -28.7060  -12.1176   21.4092 H   0  0  0  0  0  0
  -28.4325  -13.7879   21.8151 H   0  0  0  0  0  0
  -25.2823   -9.5675   22.4643 H   0  0  0  0  0  0
  -24.0148   -7.4569   22.7330 H   0  0  0  0  0  0
  -21.0757   -8.8874   19.9069 H   0  0  0  0  0  0
  -22.3529  -10.9816   19.6384 H   0  0  0  0  0  0
  -21.1955   -7.6121   23.9709 H   0  0  0  0  0  0
  -21.1490   -6.0497   25.9097 H   0  0  0  0  0  0
  -22.0579   -2.7569   23.2941 H   0  0  0  0  0  0
  -22.4465  -12.0270   22.5290 H   0  0  0  0  0  0
  -21.1299  -13.1425   22.2950 H   0  0  0  0  0  0
  -24.6150  -15.8091   20.3966 H   0  0  0  0  0  0
  -26.2331  -15.6004   19.9625 H   0  0  0  0  0  0
  -26.7206  -32.5429   23.1032 H   0  0  0  0  0  0
  -25.0143  -33.9710   25.0426 H   0  0  0  0  0  0
  -22.7165  -31.2944   21.3894 H   0  0  0  0  0  0
  -23.3744  -35.9560   23.3311 H   0  0  0  0  0  0
  -24.3548  -36.8836   22.2042 H   0  0  0  0  0  0
  -23.7177  -37.6435   23.6653 H   0  0  0  0  0  0
  -26.0837  -31.5376   20.5765 H   0  0  0  0  0  0
  -26.8499  -30.8534   21.9782 H   0  0  0  0  0  0
  -28.1329  -28.9907   21.1656 H   0  0  0  0  0  0
  -25.9932  -25.8500   19.1244 H   0  0  0  0  0  0
  -23.9747  -27.2602   19.0580 H   0  0  0  0  0  0
  -23.7496  -30.5625   19.3865 H   0  0  0  0  0  0
  -22.7638  -29.2165   19.8618 H   0  0  0  0  0  0
  -25.1293  -36.1877   25.0830 H   0  0  0  0  0  0
  -21.0044  -28.3222   24.1406 H   0  0  0  0  0  0
  -20.5673  -26.2290   23.3598 H   0  0  0  0  0  0
  -21.6650  -26.7394   22.1217 H   0  0  0  0  0  0
  -19.6854  -25.6341   21.1219 H   0  0  0  0  0  0
  -19.6679  -27.3243   20.6763 H   0  0  0  0  0  0
  -17.4226  -26.6768   21.4026 H   0  0  0  0  0  0
  -18.0301  -26.0074   22.8996 H   0  0  0  0  0  0
  -19.7935  -30.7366   24.2198 H   0  0  0  0  0  0
  -17.4990  -31.6260   24.5189 H   0  0  0  0  0  0
  -15.5351  -30.2962   23.7682 H   0  0  0  0  0  0
  -15.8718  -28.0837   22.7034 H   0  0  0  0  0  0
  -24.5994  -30.6986   25.7718 H   0  0  0  0  0  0
  -24.8931  -32.2831   26.4812 H   0  0  0  0  0  0
  -25.8143  -30.8882   27.0152 H   0  0  0  0  0  0
  -26.2878  -29.6816   24.1118 H   0  0  0  0  0  0
  -27.4096  -29.7271   25.4504 H   0  0  0  0  0  0
  -27.8727  -30.4349   23.9234 H   0  0  0  0  0  0
  -27.2721  -33.3632   26.1955 H   0  0  0  0  0  0
  -28.3927  -32.6763   25.0288 H   0  0  0  0  0  0
  -28.0698  -31.8442   26.5381 H   0  0  0  0  0  0
  -28.2601  -38.0059   24.7565 H   0  0  0  0  0  0
  -28.1049  -36.2585   24.6287 H   0  0  0  0  0  0
  -27.2300  -37.1391   25.8892 H   0  0  0  0  0  0
  -20.9396  -29.8693   21.6845 H   0  0  0  0  0  0
  -26.0117  -38.2851   24.1495 H   0  0  0  0  0  0
  -30.4180  -19.9984   21.6245 H   0  0  0  0  0  0
  -28.1476  -17.3159   19.1423 H   0  0  0  0  0  0
  -30.4356  -22.1005   24.3763 H   0  0  0  0  0  0
  -29.7336  -20.7165   23.5684 H   0  0  0  0  0  0
  -28.7060  -22.0253   24.1509 H   0  0  0  0  0  0
  -22.6646  -19.9760   21.8138 H   0  0  0  0  0  0
  -22.9802  -19.2461   20.2358 H   0  0  0  0  0  0
  -22.4331  -20.9196   20.3558 H   0  0  0  0  0  0
  -26.2901  -20.2008   22.1022 H   0  0  0  0  0  0
  -25.7057  -18.8196   21.1875 H   0  0  0  0  0  0
  -24.8556  -19.3577   22.6359 H   0  0  0  0  0  0
  -31.2132  -17.3264   20.1734 H   0  0  0  0  0  0
  -30.7541  -17.3987   21.8388 H   0  0  0  0  0  0
  -26.6779  -21.8587   18.3757 H   0  0  0  0  0  0
  -26.4735  -22.3212   20.0457 H   0  0  0  0  0  0
  -30.8236  -22.3541   21.9233 H   0  0  0  0  0  0
  -29.8823  -23.6142   22.6335 H   0  0  0  0  0  0
  -24.9875  -19.9657   18.8722 H   0  0  0  0  0  0
  -24.4077  -21.5952   18.9805 H   0  0  0  0  0  0
  -29.7430  -23.8442   19.8995 H   0  0  0  0  0  0
  -28.1107  -23.5611   19.4538 H   0  0  0  0  0  0
  -28.8829  -25.3560   21.8070 H   0  0  0  0  0  0
  -27.2588  -25.0266   21.3346 H   0  0  0  0  0  0
  -27.7989  -22.4513   21.8033 H   0  0  0  0  0  0
  -24.5162  -21.6153   21.4085 H   0  0  0  0  0  0
  -28.9167  -15.6175   20.9986 H   0  0  0  0  0  0
  1 25  1  0  0  0
  1 30  2  0  0  0
  1 88  1  0  0  0
  2  3  1  0  0  0
  2 25  1  0  0  0
  2 89  1  0  0  0
  2 90  1  0  0  0
  3  4  1  0  0  0
  3 91  1  0  0  0
  3 92  1  0  0  0
  4  5  1  0  0  0
  4 93  1  0  0  0
  4 94  1  0  0  0
  5  6  1  0  0  0
  5 26  1  0  0  0
  5 95  1  0  0  0
  6 25  1  0  0  0
  6 96  1  0  0  0
  6 97  1  0  0  0
  7  8  2  0  0  0
  7 26  1  0  0  0
  7 29  1  0  0  0
  8  9  1  0  0  0
  8 22  1  0  0  0
  9 10  1  0  0  0
  9 27  2  0  0  0
 10 11  2  0  0  0
 10 15  1  0  0  0
 11 12  1  0  0  0
 11 98  1  0  0  0
 12 13  2  0  0  0
 12 99  1  0  0  0
 13 14  1  0  0  0
 13 31  1  0  0  0
 14 15  2  0  0  0
 14100  1  0  0  0
 15101  1  0  0  0
 16 17  2  0  0  0
 16 21  1  0  0  0
 16 31  1  0  0  0
 17 18  1  0  0  0
 17102  1  0  0  0
 18 19  2  0  0  0
 18103  1  0  0  0
 19 20  1  0  0  0
 19 24  1  0  0  0
 20 21  2  0  0  0
 20104  1  0  0  0
 21 23  1  0  0  0
 22 28  1  0  0  0
 22 32  2  0  0  0
 26 27  1  0  0  0
 28105  1  0  0  0
 28106  1  0  0  0
 29107  1  0  0  0
 29108  1  0  0  0
 33 34  1  0  0  0
 33 66  1  0  0  0
 33 70  2  0  0  0
 34 36  1  0  0  0
 34 59  1  0  0  0
 34109  1  0  0  0
 35 44  2  0  0  0
 35 45  1  0  0  0
 35 68  1  0  0  0
 36 56  1  0  0  0
 36110  1  0  0  0
 37 39  1  0  0  0
 37 47  1  0  0  0
 37 66  1  0  0  0
 37111  1  0  0  0
 38 43  2  0  0  0
 38 46  1  0  0  0
 38 47  1  0  0  0
 39 64  1  0  0  0
 39 67  2  0  0  0
 40 52  1  0  0  0
 40 53  2  0  0  0
 40 58  1  0  0  0
 41112  1  0  0  0
 41113  1  0  0  0
 41114  1  0  0  0
 41 48  1  0  0  0
 42 43  1  0  0  0
 42 66  1  0  0  0
 42115  1  0  0  0
 42116  1  0  0  0
 43 44  1  0  0  0
 44117  1  0  0  0
 45 46  2  0  0  0
 45118  1  0  0  0
 46119  1  0  0  0
 47120  1  0  0  0
 47121  1  0  0  0
 48 56  1  0  0  0
 48 65  1  0  0  0
 48122  1  0  0  0
 49 50  1  0  0  0
 49 53  1  0  0  0
 49 64  1  0  0  0
 49123  1  0  0  0
 50 51  1  0  0  0
 50124  1  0  0  0
 50125  1  0  0  0
 51 52  1  0  0  0
 51126  1  0  0  0
 51127  1  0  0  0
 52128  1  0  0  0
 52129  1  0  0  0
 53 54  1  0  0  0
 54 55  2  0  0  0
 54130  1  0  0  0
 55 57  1  0  0  0
 55131  1  0  0  0
 56 69  2  0  0  0
 57 58  2  0  0  0
 57132  1  0  0  0
 58133  1  0  0  0
 59 60  1  0  0  0
 59 61  1  0  0  0
 59 62  1  0  0  0
 60134  1  0  0  0
 60135  1  0  0  0
 60136  1  0  0  0
 61137  1  0  0  0
 61138  1  0  0  0
 61139  1  0  0  0
 62140  1  0  0  0
 62141  1  0  0  0
 62142  1  0  0  0
 63 65  1  0  0  0
 63143  1  0  0  0
 63144  1  0  0  0
 63145  1  0  0  0
 64146  1  0  0  0
 65147  1  0  0  0
 68 84  1  0  0  0
 71 73  2  0  0  0
 71 74  1  0  0  0
 71148  1  0  0  0
 72 73  1  0  0  0
 72 87  2  0  0  0
 72149  1  0  0  0
 73 79  1  0  0  0
 74 75  2  0  0  0
 74 85  1  0  0  0
 75 80  1  0  0  0
 75 87  1  0  0  0
 76 81  1  0  0  0
 76150  1  0  0  0
 76151  1  0  0  0
 76152  1  0  0  0
 77153  1  0  0  0
 77154  1  0  0  0
 77155  1  0  0  0
 77 86  1  0  0  0
 78 86  1  0  0  0
 78156  1  0  0  0
 78157  1  0  0  0
 78158  1  0  0  0
 79 88  1  0  0  0
 79159  1  0  0  0
 79160  1  0  0  0
 80 82  1  0  0  0
 80161  1  0  0  0
 80162  1  0  0  0
 81163  1  0  0  0
 81164  1  0  0  0
 81 85  1  0  0  0
 82 86  1  0  0  0
 82165  1  0  0  0
 82166  1  0  0  0
 83 84  1  0  0  0
 83 85  1  0  0  0
 83167  1  0  0  0
 83168  1  0  0  0
 84169  1  0  0  0
 84170  1  0  0  0
 85171  1  0  0  0
 86172  1  0  0  0
 88173  1  0  0  0
M  ISO  4   1 100  68 101  84 101  88 100
M  END
> <chiral flag>
0

> <version>
0

> <s_m_source_file>
/data/baiqing/PycharmProjects/Reinvent-master-3.2/result/LINK_invent/BTK/process_docking_weight1_custom_sum_contain_oxygen_bond_distance_aromatic_linkinvent_7_9_3/rearranged_h_0100.sdf

> <i_m_source_file_index>
54

> <r_mmod_Potential_Energy-OPLS-2005>
41.7470817565918

> <r_mmod_Stretch_Energy-OPLS-2005>
118.166213989258

> <r_mmod_Bend_Energy-OPLS-2005>
167.720413208008

> <r_mmod_Torsional_Energy-OPLS-2005>
239.274108886719

> <r_mmod_Improper_Torsional_Energy-OPLS-2005>
5.71097278594971

> <r_mmod_Van_der_Waal_Energy-OPLS-2005>
138.325653076172

> <r_mmod_Electrostatic_Energy-OPLS-2005>
-484.593597412109

> <r_mmod_Solvation_Energy-OPLS-2005>
-205.5830078125

> <b_mmod_Minimization_Converged-OPLS-2005>
0

> <r_mmod_RMS_Derivative-OPLS-2005>
5.99640369415283

$$$$
54
                    3D
 Structure written by MMmdl.
174182  0  0  1  0            999 V2000
  -30.7320  -14.4600   20.6448 C   0  0  0  0  0  0
  -30.4215  -12.3307   19.4116 C   0  0  0  0  0  0
  -29.4894  -12.5257   18.1995 C   0  0  0  0  0  0
  -28.0138  -12.3751   18.6170 C   0  0  0  0  0  0
  -27.6620  -13.2115   19.8746 C   0  0  2  0  0  0
  -28.7029  -12.9939   20.9948 C   0  0  0  0  0  0
  -25.2599  -13.8179   20.5691 C   0  0  0  0  0  0
  -24.1856  -13.0456   20.9184 C   0  0  0  0  0  0
  -24.6410  -11.6922   20.8741 C   0  0  0  0  0  0
  -23.9082  -10.4298   21.0410 C   0  0  0  0  0  0
  -24.3630   -9.4208   21.9185 C   0  0  0  0  0  0
  -23.6296   -8.2252   22.0762 C   0  0  0  0  0  0
  -22.4279   -8.0288   21.3547 C   0  0  0  0  0  0
  -21.9918   -9.0267   20.4653 C   0  0  0  0  0  0
  -22.7259  -10.2137   20.3051 C   0  0  0  0  0  0
  -21.6851   -6.0747   22.5281 C   0  0  0  0  0  0
  -21.4012   -6.5654   23.8217 C   0  0  0  0  0  0
  -21.3650   -5.6802   24.9181 C   0  0  0  0  0  0
  -21.6046   -4.3065   24.7231 C   0  0  0  0  0  0
  -21.8819   -3.8158   23.4351 C   0  0  0  0  0  0
  -21.9188   -4.6972   22.3405 C   0  0  0  0  0  0
  -22.7868  -13.5233   21.1838 C   0  0  0  0  0  0
  -22.1663   -4.2158   21.0981 F   0  0  0  0  0  0
  -21.5619   -3.4548   25.7744 F   0  0  0  0  0  0
  -30.0364  -13.3024   20.4492 N   0  0  0  0  0  0
  -26.3043  -12.9356   20.3377 N   0  0  0  0  0  0
  -25.9337  -11.6511   20.5763 N   0  0  0  0  0  0
  -22.0507  -12.8213   22.0383 N   0  0  0  0  0  0
  -25.4338  -15.1900   20.4093 N   0  0  0  0  0  0
  -31.7911  -14.7067   20.0598 O   0  0  0  0  0  0
  -21.6638   -6.8891   21.4243 O   0  0  0  0  0  0
  -22.3541  -14.5541   20.6685 O   0  0  0  0  0  0
  -24.6126  -31.8691   23.2070 C   0  0  0  0  0  0
  -25.9016  -32.4814   23.8382 C   0  0  1  0  0  0
  -27.2393  -27.4252   20.1021 C   0  0  0  0  0  0
  -25.5882  -33.8616   24.2313 N   0  0  0  0  0  0
  -23.3995  -30.4909   21.5490 C   0  0  2  0  0  0
  -24.8464  -28.9496   20.1177 C   0  0  0  0  0  0
  -22.7392  -29.4671   22.4988 C   0  0  0  0  0  0
  -18.0265  -28.1363   22.8496 C   0  0  0  0  0  0
  -24.1484  -36.7314   23.2637 C   0  0  0  0  0  0
  -25.9264  -30.8308   21.3602 C   0  0  0  0  0  0
  -26.0037  -29.4620   20.7128 C   0  0  0  0  0  0
  -27.1975  -28.7075   20.7022 C   0  0  0  0  0  0
  -26.0562  -26.9223   19.5100 C   0  0  0  0  0  0
  -24.8678  -27.6790   19.5165 C   0  0  0  0  0  0
  -23.6084  -29.8182   20.1646 C   0  0  0  0  0  0
  -25.4102  -36.3107   24.0334 C   0  0  1  0  0  0
  -20.5856  -28.3656   23.1320 C   0  0  2  0  0  0
  -20.6753  -26.9399   22.5420 C   0  0  0  0  0  0
  -19.5740  -26.6391   21.5205 C   0  0  0  0  0  0
  -18.1911  -26.7907   22.1615 C   0  0  0  0  0  0
  -19.1520  -28.8819   23.2901 C   0  0  0  0  0  0
  -18.9453  -30.1421   23.8919 C   0  0  0  0  0  0
  -17.6464  -30.6575   24.0561 C   0  0  0  0  0  0
  -25.9041  -34.9476   23.5121 C   0  0  0  0  0  0
  -16.5345  -29.9094   23.6319 C   0  0  0  0  0  0
  -16.7258  -28.6498   23.0352 C   0  0  0  0  0  0
  -26.4457  -31.6589   25.0705 C   0  0  0  0  0  0
  -25.3731  -31.3668   26.1454 C   0  0  0  0  0  0
  -27.0296  -30.3044   24.6065 C   0  0  0  0  0  0
  -27.6036  -32.4314   25.7469 C   0  0  0  0  0  0
  -27.5578  -37.1803   24.8456 C   0  0  0  0  0  0
  -21.4129  -29.3030   22.3728 N   0  0  0  0  0  0
  -26.4280  -37.3804   23.9413 N   0  0  0  0  0  0
  -24.6645  -31.0789   22.0976 N   0  0  0  0  0  0
  -23.4160  -28.8234   23.3047 O   0  0  0  0  0  0
  -28.4452  -26.7478   20.1225 O   0  0  0  0  0  0
  -26.5627  -34.8931   22.4703 O   0  0  0  0  0  0
  -23.5317  -32.1469   23.7462 O   0  0  0  0  0  0
  -30.5506  -21.1072   21.1429 C   0  0  0  0  0  0
  -29.5575  -22.2192   21.5705 C   0  0  0  0  0  0
  -28.4597  -22.1754   19.4132 C   0  0  0  0  0  0
  -30.0684  -20.2207   19.9624 C   0  0  2  0  0  0
  -29.4500  -21.1241   18.8401 C   0  0  1  0  0  0
  -28.6113  -21.3396   16.4217 C   0  0  0  0  0  0
  -29.8526  -19.2756   17.0861 C   0  0  0  0  0  0
  -30.8941  -15.3935   22.8830 C   0  0  0  0  0  0
  -29.2550  -18.9660   20.4213 C   0  0  0  0  0  0
  -30.1566  -17.7645   20.8416 C   0  0  0  0  0  0
  -29.3835  -16.4768   21.2452 C   0  0  0  0  0  0
  -28.4315  -24.3161   20.7338 C   0  0  0  0  0  0
  -28.5836  -25.4027   19.6304 C   0  0  0  0  0  0
  -28.8952  -20.3736   17.5923 C   0  0  0  0  0  0
  -30.2359  -15.3115   21.5776 N   0  0  0  0  0  0
  -29.1483  -23.0408   20.4015 N   0  3  1  0  0  0
  -31.4634  -12.4398   19.1080 H   0  0  0  0  0  0
  -30.3326  -11.3162   19.8047 H   0  0  0  0  0  0
  -29.7322  -11.8059   17.4163 H   0  0  0  0  0  0
  -29.6501  -13.5137   17.7651 H   0  0  0  0  0  0
  -27.8277  -11.3191   18.8101 H   0  0  0  0  0  0
  -27.3586  -12.6514   17.7892 H   0  0  0  0  0  0
  -27.7030  -14.2584   19.5748 H   0  0  0  0  0  0
  -28.6826  -11.9595   21.3400 H   0  0  0  0  0  0
  -28.4471  -13.5949   21.8680 H   0  0  0  0  0  0
  -25.2778   -9.5675   22.4761 H   0  0  0  0  0  0
  -24.0003   -7.4640   22.7485 H   0  0  0  0  0  0
  -21.0854   -8.8799   19.8948 H   0  0  0  0  0  0
  -22.3743  -10.9680   19.6156 H   0  0  0  0  0  0
  -21.2013   -7.6162   23.9722 H   0  0  0  0  0  0
  -21.1467   -6.0536   25.9083 H   0  0  0  0  0  0
  -22.0597   -2.7615   23.2855 H   0  0  0  0  0  0
  -22.4108  -11.9868   22.4770 H   0  0  0  0  0  0
  -21.1113  -13.1219   22.2563 H   0  0  0  0  0  0
  -24.6759  -15.8526   20.5292 H   0  0  0  0  0  0
  -26.2941  -15.6246   20.1011 H   0  0  0  0  0  0
  -26.7086  -32.5543   23.1148 H   0  0  0  0  0  0
  -24.9993  -33.9807   25.0419 H   0  0  0  0  0  0
  -22.6853  -31.3046   21.4062 H   0  0  0  0  0  0
  -23.3751  -35.9638   23.3297 H   0  0  0  0  0  0
  -24.3571  -36.8962   22.2054 H   0  0  0  0  0  0
  -23.7243  -37.6516   23.6667 H   0  0  0  0  0  0
  -26.0345  -31.5935   20.5876 H   0  0  0  0  0  0
  -26.8141  -30.8907   21.9767 H   0  0  0  0  0  0
  -28.0934  -29.1054   21.1607 H   0  0  0  0  0  0
  -26.0192  -25.9511   19.0399 H   0  0  0  0  0  0
  -23.9750  -27.2742   19.0595 H   0  0  0  0  0  0
  -23.7140  -30.5913   19.4017 H   0  0  0  0  0  0
  -22.7320  -29.2362   19.8721 H   0  0  0  0  0  0
  -25.1278  -36.1964   25.0826 H   0  0  0  0  0  0
  -20.9930  -28.3227   24.1451 H   0  0  0  0  0  0
  -20.5647  -26.2279   23.3611 H   0  0  0  0  0  0
  -21.6629  -26.7444   22.1229 H   0  0  0  0  0  0
  -19.6918  -25.6313   21.1219 H   0  0  0  0  0  0
  -19.6673  -27.3212   20.6735 H   0  0  0  0  0  0
  -17.4192  -26.6665   21.4001 H   0  0  0  0  0  0
  -18.0302  -26.0018   22.8982 H   0  0  0  0  0  0
  -19.7932  -30.7206   24.2322 H   0  0  0  0  0  0
  -17.5030  -31.6260   24.5158 H   0  0  0  0  0  0
  -15.5353  -30.3004   23.7632 H   0  0  0  0  0  0
  -15.8650  -28.0825   22.7067 H   0  0  0  0  0  0
  -24.5918  -30.7002   25.7788 H   0  0  0  0  0  0
  -24.8883  -32.2798   26.4916 H   0  0  0  0  0  0
  -25.8093  -30.8838   27.0207 H   0  0  0  0  0  0
  -26.2838  -29.6799   24.1133 H   0  0  0  0  0  0
  -27.4113  -29.7280   25.4503 H   0  0  0  0  0  0
  -27.8638  -30.4387   23.9175 H   0  0  0  0  0  0
  -27.2668  -33.3623   26.2044 H   0  0  0  0  0  0
  -28.3834  -32.6881   25.0282 H   0  0  0  0  0  0
  -28.0698  -31.8439   26.5392 H   0  0  0  0  0  0
  -28.2575  -38.0127   24.7553 H   0  0  0  0  0  0
  -28.1116  -36.2667   24.6220 H   0  0  0  0  0  0
  -27.2308  -37.1372   25.8865 H   0  0  0  0  0  0
  -20.9284  -29.8784   21.6978 H   0  0  0  0  0  0
  -26.0174  -38.2878   24.1445 H   0  0  0  0  0  0
  -30.8006  -20.4868   22.0042 H   0  0  0  0  0  0
  -31.4882  -21.5860   20.8561 H   0  0  0  0  0  0
  -30.0367  -22.8481   22.3223 H   0  0  0  0  0  0
  -28.6777  -21.7825   22.0459 H   0  0  0  0  0  0
  -27.5940  -21.6923   19.8694 H   0  0  0  0  0  0
  -28.0723  -22.8083   18.6168 H   0  0  0  0  0  0
  -30.9812  -19.8153   19.5226 H   0  0  0  0  0  0
  -30.2916  -21.7072   18.4603 H   0  0  0  0  0  0
  -27.7658  -21.9992   16.6162 H   0  0  0  0  0  0
  -28.3691  -20.7980   15.5070 H   0  0  0  0  0  0
  -29.4788  -21.9640   16.2030 H   0  0  0  0  0  0
  -29.9618  -18.4534   17.7914 H   0  0  0  0  0  0
  -30.8476  -19.6768   16.8910 H   0  0  0  0  0  0
  -29.4894  -18.8305   16.1592 H   0  0  0  0  0  0
  -30.1606  -15.5636   23.6719 H   0  0  0  0  0  0
  -31.6161  -16.2107   22.9058 H   0  0  0  0  0  0
  -31.4301  -14.4735   23.1298 H   0  0  0  0  0  0
  -28.6099  -18.6174   19.6168 H   0  0  0  0  0  0
  -28.5735  -19.2356   21.2288 H   0  0  0  0  0  0
  -30.7926  -18.0802   21.6690 H   0  0  0  0  0  0
  -30.8342  -17.5209   20.0213 H   0  0  0  0  0  0
  -28.7058  -16.1992   20.4385 H   0  0  0  0  0  0
  -28.7465  -16.6954   22.1033 H   0  0  0  0  0  0
  -27.3799  -24.1295   20.9510 H   0  0  0  0  0  0
  -28.8644  -24.7238   21.6481 H   0  0  0  0  0  0
  -27.9641  -25.1950   18.7596 H   0  0  0  0  0  0
  -29.6049  -25.3593   19.2519 H   0  0  0  0  0  0
  -27.9496  -19.8980   17.8551 H   0  0  0  0  0  0
  -30.0132  -23.3315   19.9701 H   0  0  0  0  0  0
  1 25  1  0  0  0
  1 30  2  0  0  0
  1 85  1  0  0  0
  2  3  1  0  0  0
  2 25  1  0  0  0
  2 87  1  0  0  0
  2 88  1  0  0  0
  3  4  1  0  0  0
  3 89  1  0  0  0
  3 90  1  0  0  0
  4  5  1  0  0  0
  4 91  1  0  0  0
  4 92  1  0  0  0
  5  6  1  0  0  0
  5 26  1  0  0  0
  5 93  1  0  0  0
  6 25  1  0  0  0
  6 94  1  0  0  0
  6 95  1  0  0  0
  7  8  2  0  0  0
  7 26  1  0  0  0
  7 29  1  0  0  0
  8  9  1  0  0  0
  8 22  1  0  0  0
  9 10  1  0  0  0
  9 27  2  0  0  0
 10 11  2  0  0  0
 10 15  1  0  0  0
 11 12  1  0  0  0
 11 96  1  0  0  0
 12 13  2  0  0  0
 12 97  1  0  0  0
 13 14  1  0  0  0
 13 31  1  0  0  0
 14 15  2  0  0  0
 14 98  1  0  0  0
 15 99  1  0  0  0
 16 17  2  0  0  0
 16 21  1  0  0  0
 16 31  1  0  0  0
 17 18  1  0  0  0
 17100  1  0  0  0
 18 19  2  0  0  0
 18101  1  0  0  0
 19 20  1  0  0  0
 19 24  1  0  0  0
 20 21  2  0  0  0
 20102  1  0  0  0
 21 23  1  0  0  0
 22 28  1  0  0  0
 22 32  2  0  0  0
 26 27  1  0  0  0
 28103  1  0  0  0
 28104  1  0  0  0
 29105  1  0  0  0
 29106  1  0  0  0
 33 34  1  0  0  0
 33 66  1  0  0  0
 33 70  2  0  0  0
 34 36  1  0  0  0
 34 59  1  0  0  0
 34107  1  0  0  0
 35 44  2  0  0  0
 35 45  1  0  0  0
 35 68  1  0  0  0
 36 56  1  0  0  0
 36108  1  0  0  0
 37 39  1  0  0  0
 37 47  1  0  0  0
 37 66  1  0  0  0
 37109  1  0  0  0
 38 43  2  0  0  0
 38 46  1  0  0  0
 38 47  1  0  0  0
 39 64  1  0  0  0
 39 67  2  0  0  0
 40 52  1  0  0  0
 40 53  2  0  0  0
 40 58  1  0  0  0
 41110  1  0  0  0
 41111  1  0  0  0
 41112  1  0  0  0
 41 48  1  0  0  0
 42 43  1  0  0  0
 42 66  1  0  0  0
 42113  1  0  0  0
 42114  1  0  0  0
 43 44  1  0  0  0
 44115  1  0  0  0
 45 46  2  0  0  0
 45116  1  0  0  0
 46117  1  0  0  0
 47118  1  0  0  0
 47119  1  0  0  0
 48 56  1  0  0  0
 48 65  1  0  0  0
 48120  1  0  0  0
 49 50  1  0  0  0
 49 53  1  0  0  0
 49 64  1  0  0  0
 49121  1  0  0  0
 50 51  1  0  0  0
 50122  1  0  0  0
 50123  1  0  0  0
 51 52  1  0  0  0
 51124  1  0  0  0
 51125  1  0  0  0
 52126  1  0  0  0
 52127  1  0  0  0
 53 54  1  0  0  0
 54 55  2  0  0  0
 54128  1  0  0  0
 55 57  1  0  0  0
 55129  1  0  0  0
 56 69  2  0  0  0
 57 58  2  0  0  0
 57130  1  0  0  0
 58131  1  0  0  0
 59 60  1  0  0  0
 59 61  1  0  0  0
 59 62  1  0  0  0
 60132  1  0  0  0
 60133  1  0  0  0
 60134  1  0  0  0
 61135  1  0  0  0
 61136  1  0  0  0
 61137  1  0  0  0
 62138  1  0  0  0
 62139  1  0  0  0
 62140  1  0  0  0
 63 65  1  0  0  0
 63141  1  0  0  0
 63142  1  0  0  0
 63143  1  0  0  0
 64144  1  0  0  0
 65145  1  0  0  0
 68 83  1  0  0  0
 71 72  1  0  0  0
 71 74  1  0  0  0
 71146  1  0  0  0
 71147  1  0  0  0
 72 86  1  0  0  0
 72148  1  0  0  0
 72149  1  0  0  0
 73 86  1  0  0  0
 73150  1  0  0  0
 73151  1  0  0  0
 73 75  1  0  0  0
 74 75  1  0  0  0
 74 79  1  0  0  0
 74152  1  0  0  0
 75 84  1  0  0  0
 75153  1  0  0  0
 76154  1  0  0  0
 76155  1  0  0  0
 76156  1  0  0  0
 76 84  1  0  0  0
 77 84  1  0  0  0
 77157  1  0  0  0
 77158  1  0  0  0
 77159  1  0  0  0
 78 85  1  0  0  0
 78160  1  0  0  0
 78161  1  0  0  0
 78162  1  0  0  0
 79 80  1  0  0  0
 79163  1  0  0  0
 79164  1  0  0  0
 80 81  1  0  0  0
 80165  1  0  0  0
 80166  1  0  0  0
 81 85  1  0  0  0
 81167  1  0  0  0
 81168  1  0  0  0
 82 83  1  0  0  0
 82169  1  0  0  0
 82170  1  0  0  0
 82 86  1  0  0  0
 83171  1  0  0  0
 83172  1  0  0  0
 84173  1  0  0  0
 86174  1  0  0  0
M  CHG  1  86   1
M  ISO  4   1 100  68 101  83 101  85 100
M  END
> <chiral flag>
0

> <version>
0

> <s_m_source_file>
/data/baiqing/PycharmProjects/Reinvent-master-3.2/result/LINK_invent/BTK/process_docking_weight1_custom_sum_contain_oxygen_bond_distance_aromatic_linkinvent_7_9_3/rearranged_h_0100.sdf

> <i_m_source_file_index>
55

> <r_mmod_Potential_Energy-OPLS-2005>
128.411392211914

> <r_mmod_Stretch_Energy-OPLS-2005>
45.5080871582031

> <r_mmod_Bend_Energy-OPLS-2005>
126.720085144043

> <r_mmod_Torsional_Energy-OPLS-2005>
341.984497070312

> <r_mmod_Improper_Torsional_Energy-OPLS-2005>
3.03414535522461

> <r_mmod_Van_der_Waal_Energy-OPLS-2005>
133.372634887695

> <r_mmod_Electrostatic_Energy-OPLS-2005>
-137.480560302734

> <r_mmod_Solvation_Energy-OPLS-2005>
-396.542938232422

> <b_mmod_Minimization_Converged-OPLS-2005>
0

> <r_mmod_RMS_Derivative-OPLS-2005>
2.47016453742981

$$$$
55
                    3D
 Structure written by MMmdl.
182190  0  0  1  0            999 V2000
  -30.7063  -14.4431   20.6532 C   0  0  0  0  0  0
  -30.4338  -12.3167   19.4224 C   0  0  0  0  0  0
  -29.5053  -12.5620   18.2169 C   0  0  0  0  0  0
  -28.0272  -12.3923   18.6187 C   0  0  0  0  0  0
  -27.6667  -13.2076   19.8861 C   0  0  2  0  0  0
  -28.7036  -12.9528   21.0054 C   0  0  0  0  0  0
  -25.2565  -13.8155   20.5626 C   0  0  0  0  0  0
  -24.1810  -13.0396   20.9093 C   0  0  0  0  0  0
  -24.6404  -11.6910   20.8713 C   0  0  0  0  0  0
  -23.9089  -10.4311   21.0366 C   0  0  0  0  0  0
  -24.3628   -9.4294   21.9180 C   0  0  0  0  0  0
  -23.6326   -8.2323   22.0761 C   0  0  0  0  0  0
  -22.4330   -8.0330   21.3553 C   0  0  0  0  0  0
  -21.9931   -9.0304   20.4686 C   0  0  0  0  0  0
  -22.7238  -10.2181   20.3077 C   0  0  0  0  0  0
  -21.6917   -6.0775   22.5266 C   0  0  0  0  0  0
  -21.4051   -6.5641   23.8200 C   0  0  0  0  0  0
  -21.3634   -5.6805   24.9149 C   0  0  0  0  0  0
  -21.6042   -4.3062   24.7232 C   0  0  0  0  0  0
  -21.8868   -3.8142   23.4355 C   0  0  0  0  0  0
  -21.9191   -4.6972   22.3403 C   0  0  0  0  0  0
  -22.7843  -13.5252   21.1754 C   0  0  0  0  0  0
  -22.1685   -4.2135   21.0999 F   0  0  0  0  0  0
  -21.5629   -3.4564   25.7741 F   0  0  0  0  0  0
  -30.0497  -13.2627   20.4844 N   0  0  0  0  0  0
  -26.3035  -12.9326   20.3375 N   0  0  0  0  0  0
  -25.9336  -11.6476   20.5765 N   0  0  0  0  0  0
  -22.0539  -12.8293   22.0402 N   0  0  0  0  0  0
  -25.4157  -15.1841   20.3895 N   0  0  0  0  0  0
  -31.7454  -14.7366   20.0624 O   0  0  0  0  0  0
  -21.6739   -6.8915   21.4221 O   0  0  0  0  0  0
  -22.3569  -14.5551   20.6560 O   0  0  0  0  0  0
  -24.6182  -31.8738   23.2178 C   0  0  0  0  0  0
  -25.9100  -32.4829   23.8466 C   0  0  1  0  0  0
  -27.2462  -27.4793   20.0398 C   0  0  0  0  0  0
  -25.5935  -33.8632   24.2404 N   0  0  0  0  0  0
  -23.4004  -30.5071   21.5541 C   0  0  2  0  0  0
  -24.8512  -28.9829   20.1079 C   0  0  0  0  0  0
  -22.7405  -29.4765   22.4995 C   0  0  0  0  0  0
  -18.0313  -28.1258   22.8522 C   0  0  0  0  0  0
  -24.1490  -36.7258   23.2627 C   0  0  0  0  0  0
  -25.9372  -30.8501   21.3778 C   0  0  0  0  0  0
  -26.0234  -29.5000   20.6919 C   0  0  0  0  0  0
  -27.2307  -28.7590   20.6451 C   0  0  0  0  0  0
  -26.0694  -27.0087   19.4162 C   0  0  0  0  0  0
  -24.8652  -27.7307   19.4783 C   0  0  0  0  0  0
  -23.6155  -29.8562   20.1644 C   0  0  0  0  0  0
  -25.4101  -36.3107   24.0347 C   0  0  1  0  0  0
  -20.5888  -28.3784   23.1415 C   0  0  2  0  0  0
  -20.6852  -26.9499   22.5642 C   0  0  0  0  0  0
  -19.5973  -26.6467   21.5298 C   0  0  0  0  0  0
  -18.2110  -26.7793   22.1609 C   0  0  0  0  0  0
  -19.1496  -28.8825   23.2927 C   0  0  0  0  0  0
  -18.9336  -30.1487   23.8835 C   0  0  0  0  0  0
  -17.6322  -30.6531   24.0436 C   0  0  0  0  0  0
  -25.9049  -34.9479   23.5189 C   0  0  0  0  0  0
  -16.5277  -29.8933   23.6182 C   0  0  0  0  0  0
  -16.7274  -28.6346   23.0314 C   0  0  0  0  0  0
  -26.4484  -31.6581   25.0773 C   0  0  0  0  0  0
  -25.3715  -31.3742   26.1497 C   0  0  0  0  0  0
  -27.0385  -30.2997   24.6274 C   0  0  0  0  0  0
  -27.6083  -32.4292   25.7457 C   0  0  0  0  0  0
  -27.5571  -37.1791   24.8470 C   0  0  0  0  0  0
  -21.4110  -29.3100   22.3731 N   0  0  0  0  0  0
  -26.4291  -37.3756   23.9400 N   0  0  0  0  0  0
  -24.6694  -31.0876   22.1047 N   0  0  0  0  0  0
  -23.4180  -28.8301   23.3039 O   0  0  0  0  0  0
  -28.3625  -26.6711   20.0818 O   0  0  0  0  0  0
  -26.5547  -34.8918   22.4733 O   0  0  0  0  0  0
  -23.5375  -32.1504   23.7551 O   0  0  0  0  0  0
  -30.1826  -21.1803   21.7315 C   0  0  0  0  0  0
  -30.1897  -19.7743   21.6501 C   0  0  0  0  0  0
  -28.9629  -21.8790   21.7588 C   0  0  0  0  0  0
  -28.9673  -19.0808   21.5743 C   0  0  0  0  0  0
  -27.7732  -21.1042   21.7006 C   0  0  0  0  0  0
  -29.0167  -18.1637   18.7794 C   0  0  0  0  0  0
  -28.0493  -16.9706   23.7898 C   0  0  0  0  0  0
  -23.3626  -21.8488   19.3322 C   0  0  0  0  0  0
  -23.3285  -20.5664   21.5238 C   0  0  0  0  0  0
  -28.9961  -23.3965   21.9864 C   0  0  0  0  0  0
  -26.3588  -21.6578   21.8416 C   0  0  0  0  0  0
  -28.3796  -17.2944   19.8764 C   0  0  0  0  0  0
  -27.7708  -16.9146   22.2829 C   0  0  0  0  0  0
  -29.0726  -24.3079   20.7380 C   0  0  0  0  0  0
  -25.5215  -21.4691   20.5591 C   0  0  0  0  0  0
  -30.2170  -16.7859   21.5325 C   0  0  0  0  0  0
  -28.1239  -25.5183   20.9091 C   0  0  0  0  0  0
  -24.0054  -21.6951   20.7184 C   0  0  0  0  0  0
  -28.8517  -17.5455   21.3387 C   0  0  0  0  0  0
  -27.7971  -19.7600   21.5966 N   0  0  0  0  0  0
  -30.0744  -15.3151   21.4614 N   0  0  0  0  0  0
  -31.4793  -12.4255   19.1300 H   0  0  0  0  0  0
  -30.3348  -11.2889   19.7718 H   0  0  0  0  0  0
  -29.7477  -11.8968   17.3854 H   0  0  0  0  0  0
  -29.6591  -13.5793   17.8488 H   0  0  0  0  0  0
  -27.8400  -11.3311   18.7927 H   0  0  0  0  0  0
  -27.3799  -12.6827   17.7912 H   0  0  0  0  0  0
  -27.7140  -14.2538   19.5992 H   0  0  0  0  0  0
  -28.6791  -11.9077   21.3126 H   0  0  0  0  0  0
  -28.4401  -13.5190   21.9001 H   0  0  0  0  0  0
  -25.2758   -9.5827   22.4750 H   0  0  0  0  0  0
  -24.0077   -7.4767   22.7460 H   0  0  0  0  0  0
  -21.0861   -8.8835   19.9024 H   0  0  0  0  0  0
  -22.3654  -10.9735   19.6232 H   0  0  0  0  0  0
  -21.2065   -7.6143   23.9695 H   0  0  0  0  0  0
  -21.1387   -6.0535   25.9068 H   0  0  0  0  0  0
  -22.0621   -2.7596   23.2874 H   0  0  0  0  0  0
  -22.4176  -11.9974   22.4873 H   0  0  0  0  0  0
  -21.1175  -13.1399   22.2636 H   0  0  0  0  0  0
  -24.6171  -15.8067   20.4292 H   0  0  0  0  0  0
  -26.2601  -15.6375   20.0673 H   0  0  0  0  0  0
  -26.7171  -32.5487   23.1233 H   0  0  0  0  0  0
  -25.0245  -33.9877   25.0632 H   0  0  0  0  0  0
  -22.6916  -31.3284   21.4250 H   0  0  0  0  0  0
  -23.3772  -35.9565   23.3321 H   0  0  0  0  0  0
  -24.3616  -36.8826   22.2037 H   0  0  0  0  0  0
  -23.7243  -37.6468   23.6629 H   0  0  0  0  0  0
  -26.1041  -31.6614   20.6635 H   0  0  0  0  0  0
  -26.7899  -30.8401   22.0409 H   0  0  0  0  0  0
  -28.1431  -29.1524   21.0816 H   0  0  0  0  0  0
  -26.0797  -26.0791   18.8708 H   0  0  0  0  0  0
  -23.9720  -27.3188   19.0255 H   0  0  0  0  0  0
  -23.7315  -30.6480   19.4221 H   0  0  0  0  0  0
  -22.7195  -29.3171   19.8554 H   0  0  0  0  0  0
  -25.1281  -36.1978   25.0820 H   0  0  0  0  0  0
  -21.0002  -28.3474   24.1535 H   0  0  0  0  0  0
  -20.5575  -26.2496   23.3904 H   0  0  0  0  0  0
  -21.6824  -26.7463   22.1720 H   0  0  0  0  0  0
  -19.7315  -25.6486   21.1188 H   0  0  0  0  0  0
  -19.6954  -27.3436   20.6991 H   0  0  0  0  0  0
  -17.4421  -26.6422   21.3980 H   0  0  0  0  0  0
  -18.0620  -25.9865   22.8945 H   0  0  0  0  0  0
  -19.7769  -30.7380   24.2120 H   0  0  0  0  0  0
  -17.4792  -31.6241   24.4881 H   0  0  0  0  0  0
  -15.5244  -30.2756   23.7401 H   0  0  0  0  0  0
  -15.8736  -28.0542   22.6994 H   0  0  0  0  0  0
  -24.5902  -30.7066   25.7850 H   0  0  0  0  0  0
  -24.8877  -32.2916   26.4840 H   0  0  0  0  0  0
  -25.7998  -30.8994   27.0336 H   0  0  0  0  0  0
  -26.3063  -29.6644   24.1273 H   0  0  0  0  0  0
  -27.4055  -29.7334   25.4847 H   0  0  0  0  0  0
  -27.8918  -30.4249   23.9598 H   0  0  0  0  0  0
  -27.2765  -33.3626   26.2003 H   0  0  0  0  0  0
  -28.3837  -32.6779   25.0200 H   0  0  0  0  0  0
  -28.0805  -31.8439   26.5357 H   0  0  0  0  0  0
  -28.2612  -38.0066   24.7493 H   0  0  0  0  0  0
  -28.1070  -36.2612   24.6339 H   0  0  0  0  0  0
  -27.2320  -37.1465   25.8887 H   0  0  0  0  0  0
  -20.9230  -29.8875   21.7036 H   0  0  0  0  0  0
  -26.0205  -38.2844   24.1379 H   0  0  0  0  0  0
  -31.1155  -21.7201   21.7901 H   0  0  0  0  0  0
  -31.1332  -19.2524   21.6272 H   0  0  0  0  0  0
  -28.7085  -17.8039   17.7954 H   0  0  0  0  0  0
  -30.1048  -18.1452   18.8130 H   0  0  0  0  0  0
  -28.7006  -19.2048   18.8538 H   0  0  0  0  0  0
  -27.2312  -16.4959   24.3353 H   0  0  0  0  0  0
  -28.1318  -17.9949   24.1510 H   0  0  0  0  0  0
  -28.9613  -16.4365   24.0475 H   0  0  0  0  0  0
  -22.2926  -22.0477   19.4037 H   0  0  0  0  0  0
  -23.4989  -20.9495   18.7308 H   0  0  0  0  0  0
  -23.8107  -22.6795   18.7842 H   0  0  0  0  0  0
  -22.2503  -20.7190   21.5843 H   0  0  0  0  0  0
  -23.7028  -20.5201   22.5475 H   0  0  0  0  0  0
  -23.4941  -19.5895   21.0689 H   0  0  0  0  0  0
  -29.8525  -23.6495   22.6148 H   0  0  0  0  0  0
  -28.1396  -23.6599   22.6025 H   0  0  0  0  0  0
  -26.3412  -22.7033   22.1426 H   0  0  0  0  0  0
  -25.8982  -21.1227   22.6735 H   0  0  0  0  0  0
  -28.5385  -16.2563   19.6103 H   0  0  0  0  0  0
  -27.3027  -17.4391   19.8108 H   0  0  0  0  0  0
  -26.7961  -17.3765   22.1150 H   0  0  0  0  0  0
  -27.6076  -15.8744   22.0139 H   0  0  0  0  0  0
  -28.7840  -23.7554   19.8447 H   0  0  0  0  0  0
  -30.1098  -24.6227   20.5767 H   0  0  0  0  0  0
  -25.6647  -20.4550   20.1903 H   0  0  0  0  0  0
  -25.9298  -22.1210   19.7849 H   0  0  0  0  0  0
  -30.6375  -17.0317   22.5082 H   0  0  0  0  0  0
  -30.9375  -17.1336   20.7865 H   0  0  0  0  0  0
  -28.1246  -25.8480   21.9487 H   0  0  0  0  0  0
  -27.1175  -25.1269   20.7590 H   0  0  0  0  0  0
  -23.8516  -22.6267   21.2602 H   0  0  0  0  0  0
  -29.3016  -14.9203   21.9720 H   0  0  0  0  0  0
  1 25  1  0  0  0
  1 30  2  0  0  0
  1 91  1  0  0  0
  2  3  1  0  0  0
  2 25  1  0  0  0
  2 92  1  0  0  0
  2 93  1  0  0  0
  3  4  1  0  0  0
  3 94  1  0  0  0
  3 95  1  0  0  0
  4  5  1  0  0  0
  4 96  1  0  0  0
  4 97  1  0  0  0
  5  6  1  0  0  0
  5 26  1  0  0  0
  5 98  1  0  0  0
  6 25  1  0  0  0
  6 99  1  0  0  0
  6100  1  0  0  0
  7  8  2  0  0  0
  7 26  1  0  0  0
  7 29  1  0  0  0
  8  9  1  0  0  0
  8 22  1  0  0  0
  9 10  1  0  0  0
  9 27  2  0  0  0
 10 11  2  0  0  0
 10 15  1  0  0  0
 11 12  1  0  0  0
 11101  1  0  0  0
 12 13  2  0  0  0
 12102  1  0  0  0
 13 14  1  0  0  0
 13 31  1  0  0  0
 14 15  2  0  0  0
 14103  1  0  0  0
 15104  1  0  0  0
 16 17  2  0  0  0
 16 21  1  0  0  0
 16 31  1  0  0  0
 17 18  1  0  0  0
 17105  1  0  0  0
 18 19  2  0  0  0
 18106  1  0  0  0
 19 20  1  0  0  0
 19 24  1  0  0  0
 20 21  2  0  0  0
 20107  1  0  0  0
 21 23  1  0  0  0
 22 28  1  0  0  0
 22 32  2  0  0  0
 26 27  1  0  0  0
 28108  1  0  0  0
 28109  1  0  0  0
 29110  1  0  0  0
 29111  1  0  0  0
 33 34  1  0  0  0
 33 66  1  0  0  0
 33 70  2  0  0  0
 34 36  1  0  0  0
 34 59  1  0  0  0
 34112  1  0  0  0
 35 44  2  0  0  0
 35 45  1  0  0  0
 35 68  1  0  0  0
 36 56  1  0  0  0
 36113  1  0  0  0
 37 39  1  0  0  0
 37 47  1  0  0  0
 37 66  1  0  0  0
 37114  1  0  0  0
 38 43  2  0  0  0
 38 46  1  0  0  0
 38 47  1  0  0  0
 39 64  1  0  0  0
 39 67  2  0  0  0
 40 52  1  0  0  0
 40 53  2  0  0  0
 40 58  1  0  0  0
 41115  1  0  0  0
 41116  1  0  0  0
 41117  1  0  0  0
 41 48  1  0  0  0
 42 43  1  0  0  0
 42 66  1  0  0  0
 42118  1  0  0  0
 42119  1  0  0  0
 43 44  1  0  0  0
 44120  1  0  0  0
 45 46  2  0  0  0
 45121  1  0  0  0
 46122  1  0  0  0
 47123  1  0  0  0
 47124  1  0  0  0
 48 56  1  0  0  0
 48 65  1  0  0  0
 48125  1  0  0  0
 49 50  1  0  0  0
 49 53  1  0  0  0
 49 64  1  0  0  0
 49126  1  0  0  0
 50 51  1  0  0  0
 50127  1  0  0  0
 50128  1  0  0  0
 51 52  1  0  0  0
 51129  1  0  0  0
 51130  1  0  0  0
 52131  1  0  0  0
 52132  1  0  0  0
 53 54  1  0  0  0
 54 55  2  0  0  0
 54133  1  0  0  0
 55 57  1  0  0  0
 55134  1  0  0  0
 56 69  2  0  0  0
 57 58  2  0  0  0
 57135  1  0  0  0
 58136  1  0  0  0
 59 60  1  0  0  0
 59 61  1  0  0  0
 59 62  1  0  0  0
 60137  1  0  0  0
 60138  1  0  0  0
 60139  1  0  0  0
 61140  1  0  0  0
 61141  1  0  0  0
 61142  1  0  0  0
 62143  1  0  0  0
 62144  1  0  0  0
 62145  1  0  0  0
 63 65  1  0  0  0
 63146  1  0  0  0
 63147  1  0  0  0
 63148  1  0  0  0
 64149  1  0  0  0
 65150  1  0  0  0
 68 87  1  0  0  0
 71 72  2  0  0  0
 71 73  1  0  0  0
 71151  1  0  0  0
 72 74  1  0  0  0
 72152  1  0  0  0
 73 75  2  0  0  0
 73 80  1  0  0  0
 74 89  1  0  0  0
 74 90  2  0  0  0
 75 81  1  0  0  0
 75 90  1  0  0  0
 76 82  1  0  0  0
 76153  1  0  0  0
 76154  1  0  0  0
 76155  1  0  0  0
 77 83  1  0  0  0
 77156  1  0  0  0
 77157  1  0  0  0
 77158  1  0  0  0
 78159  1  0  0  0
 78160  1  0  0  0
 78161  1  0  0  0
 78 88  1  0  0  0
 79 88  1  0  0  0
 79162  1  0  0  0
 79163  1  0  0  0
 79164  1  0  0  0
 80 84  1  0  0  0
 80165  1  0  0  0
 80166  1  0  0  0
 81 85  1  0  0  0
 81167  1  0  0  0
 81168  1  0  0  0
 82169  1  0  0  0
 82170  1  0  0  0
 82 89  1  0  0  0
 83 89  1  0  0  0
 83171  1  0  0  0
 83172  1  0  0  0
 84 87  1  0  0  0
 84173  1  0  0  0
 84174  1  0  0  0
 85 88  1  0  0  0
 85175  1  0  0  0
 85176  1  0  0  0
 86 89  1  0  0  0
 86 91  1  0  0  0
 86177  1  0  0  0
 86178  1  0  0  0
 87179  1  0  0  0
 87180  1  0  0  0
 88181  1  0  0  0
 91182  1  0  0  0
M  ISO  4   1 100  68 101  87 101  91 100
M  END
> <chiral flag>
0

> <version>
0

> <s_m_source_file>
/data/baiqing/PycharmProjects/Reinvent-master-3.2/result/LINK_invent/BTK/process_docking_weight1_custom_sum_contain_oxygen_bond_distance_aromatic_linkinvent_7_9_3/rearranged_h_0100.sdf

> <i_m_source_file_index>
56

> <r_mmod_Potential_Energy-OPLS-2005>
-108.946998596191

> <r_mmod_Stretch_Energy-OPLS-2005>
44.773983001709

> <r_mmod_Bend_Energy-OPLS-2005>
121.920700073242

> <r_mmod_Torsional_Energy-OPLS-2005>
245.996475219727

> <r_mmod_Improper_Torsional_Energy-OPLS-2005>
3.99176716804504

> <r_mmod_Van_der_Waal_Energy-OPLS-2005>
154.11003112793

> <r_mmod_Electrostatic_Energy-OPLS-2005>
-501.528900146484

> <r_mmod_Solvation_Energy-OPLS-2005>
-192.136627197266

> <b_mmod_Minimization_Converged-OPLS-2005>
0

> <r_mmod_RMS_Derivative-OPLS-2005>
9.96943283081055

$$$$
56
                    3D
 Structure written by MMmdl.
165173  0  0  1  0            999 V2000
  -30.6573  -14.6101   20.4560 C   0  0  0  0  0  0
  -30.4167  -12.3660   19.4502 C   0  0  0  0  0  0
  -29.5033  -12.4944   18.2150 C   0  0  0  0  0  0
  -28.0247  -12.3336   18.6259 C   0  0  0  0  0  0
  -27.6419  -13.2171   19.8469 C   0  0  2  0  0  0
  -28.6863  -13.1171   20.9799 C   0  0  0  0  0  0
  -25.2536  -13.8163   20.5678 C   0  0  0  0  0  0
  -24.1802  -13.0431   20.9169 C   0  0  0  0  0  0
  -24.6367  -11.6898   20.8709 C   0  0  0  0  0  0
  -23.9036  -10.4288   21.0382 C   0  0  0  0  0  0
  -24.3605   -9.4216   21.9162 C   0  0  0  0  0  0
  -23.6307   -8.2240   22.0738 C   0  0  0  0  0  0
  -22.4288   -8.0257   21.3534 C   0  0  0  0  0  0
  -21.9902   -9.0214   20.4644 C   0  0  0  0  0  0
  -22.7207  -10.2111   20.3043 C   0  0  0  0  0  0
  -21.6858   -6.0735   22.5290 C   0  0  0  0  0  0
  -21.4012   -6.5643   23.8222 C   0  0  0  0  0  0
  -21.3661   -5.6788   24.9181 C   0  0  0  0  0  0
  -21.6030   -4.3053   24.7228 C   0  0  0  0  0  0
  -21.8820   -3.8145   23.4350 C   0  0  0  0  0  0
  -21.9200   -4.6960   22.3409 C   0  0  0  0  0  0
  -22.7832  -13.5231   21.1838 C   0  0  0  0  0  0
  -22.1673   -4.2147   21.0980 F   0  0  0  0  0  0
  -21.5637   -3.4533   25.7739 F   0  0  0  0  0  0
  -29.9990  -13.4153   20.3975 N   0  0  0  0  0  0
  -26.2936  -12.9343   20.3258 N   0  0  0  0  0  0
  -25.9296  -11.6498   20.5714 N   0  0  0  0  0  0
  -22.0480  -12.8245   22.0421 N   0  0  0  0  0  0
  -25.4275  -15.1884   20.4144 N   0  0  0  0  0  0
  -31.8559  -14.6935   20.1728 O   0  0  0  0  0  0
  -21.6654   -6.8856   21.4231 O   0  0  0  0  0  0
  -22.3520  -14.5532   20.6694 O   0  0  0  0  0  0
  -24.6214  -31.8612   23.2028 C   0  0  0  0  0  0
  -25.9071  -32.4793   23.8359 C   0  0  1  0  0  0
  -27.2406  -27.3542   20.1093 C   0  0  0  0  0  0
  -25.5886  -33.8585   24.2285 N   0  0  0  0  0  0
  -23.4140  -30.4800   21.5447 C   0  0  2  0  0  0
  -24.8616  -28.9306   20.1117 C   0  0  0  0  0  0
  -22.7451  -29.4618   22.4979 C   0  0  0  0  0  0
  -18.0268  -28.1411   22.8503 C   0  0  0  0  0  0
  -24.1465  -36.7282   23.2642 C   0  0  0  0  0  0
  -25.9480  -30.8020   21.3644 C   0  0  0  0  0  0
  -26.0225  -29.4273   20.7134 C   0  0  0  0  0  0
  -27.2088  -28.6455   20.7102 C   0  0  0  0  0  0
  -26.0550  -26.8874   19.4963 C   0  0  0  0  0  0
  -24.8769  -27.6629   19.5004 C   0  0  0  0  0  0
  -23.6257  -29.8060   20.1611 C   0  0  0  0  0  0
  -25.4087  -36.3087   24.0345 C   0  0  1  0  0  0
  -20.5871  -28.3689   23.1324 C   0  0  2  0  0  0
  -20.6751  -26.9420   22.5434 C   0  0  0  0  0  0
  -19.5730  -26.6403   21.5235 C   0  0  0  0  0  0
  -18.1905  -26.7970   22.1621 C   0  0  0  0  0  0
  -19.1523  -28.8873   23.2905 C   0  0  0  0  0  0
  -18.9449  -30.1473   23.8927 C   0  0  0  0  0  0
  -17.6446  -30.6605   24.0574 C   0  0  0  0  0  0
  -25.9042  -34.9459   23.5120 C   0  0  0  0  0  0
  -16.5341  -29.9107   23.6338 C   0  0  0  0  0  0
  -16.7254  -28.6526   23.0357 C   0  0  0  0  0  0
  -26.4479  -31.6605   25.0709 C   0  0  0  0  0  0
  -25.3733  -31.3694   26.1455 C   0  0  0  0  0  0
  -27.0325  -30.3049   24.6129 C   0  0  0  0  0  0
  -27.6070  -32.4323   25.7457 C   0  0  0  0  0  0
  -27.5595  -37.1743   24.8433 C   0  0  0  0  0  0
  -21.4173  -29.3027   22.3708 N   0  0  0  0  0  0
  -26.4246  -37.3800   23.9481 N   0  0  0  0  0  0
  -24.6804  -31.0641   22.0958 N   0  0  0  0  0  0
  -23.4204  -28.8195   23.3061 O   0  0  0  0  0  0
  -28.4105  -26.5960   20.1721 O   0  0  0  0  0  0
  -26.5610  -34.8936   22.4688 O   0  0  0  0  0  0
  -23.5386  -32.1387   23.7368 O   0  0  0  0  0  0
  -29.2562  -17.9359   19.1696 C   0  0  0  0  0  0
  -29.6872  -16.4370   19.1764 C   0  0  0  0  0  0
  -30.0273  -16.6540   21.6831 C   0  0  0  0  0  0
  -29.7002  -18.1981   21.5613 C   0  0  2  0  0  0
  -30.0826  -18.7626   20.1712 C   0  0  2  0  0  0
  -30.3715  -18.9445   22.7280 C   0  0  0  0  0  0
  -30.8332  -20.5632   18.6446 C   0  0  0  0  0  0
  -29.2281  -22.7288   19.7452 C   0  0  0  0  0  0
  -28.3956  -23.9506   20.3153 C   0  0  0  0  0  0
  -28.9813  -21.2130   20.2038 C   0  0  0  0  0  0
  -28.5880  -25.3040   19.5071 C   0  0  0  0  0  0
  -29.8938  -15.7616   20.4917 N   0  0  0  0  0  0
  -30.1521  -20.2765   19.9387 N   0  3  1  0  0  0
  -31.4655  -12.4513   19.1587 H   0  0  0  0  0  0
  -30.3081  -11.3812   19.9061 H   0  0  0  0  0  0
  -29.7746  -11.7468   17.4683 H   0  0  0  0  0  0
  -29.6532  -13.4654   17.7412 H   0  0  0  0  0  0
  -27.8680  -11.2808   18.8660 H   0  0  0  0  0  0
  -27.3703  -12.5485   17.7784 H   0  0  0  0  0  0
  -27.6402  -14.2456   19.4898 H   0  0  0  0  0  0
  -28.6861  -12.1212   21.4260 H   0  0  0  0  0  0
  -28.4444  -13.8186   21.7815 H   0  0  0  0  0  0
  -25.2747   -9.5732   22.4725 H   0  0  0  0  0  0
  -24.0052   -7.4625   22.7437 H   0  0  0  0  0  0
  -21.0841   -8.8685   19.8952 H   0  0  0  0  0  0
  -22.3626  -10.9623   19.6141 H   0  0  0  0  0  0
  -21.1996   -7.6155   23.9730 H   0  0  0  0  0  0
  -21.1491   -6.0520   25.9083 H   0  0  0  0  0  0
  -22.0604   -2.7610   23.2847 H   0  0  0  0  0  0
  -22.4123  -11.9970   22.4899 H   0  0  0  0  0  0
  -21.1070  -13.1211   22.2526 H   0  0  0  0  0  0
  -24.6659  -15.8479   20.5347 H   0  0  0  0  0  0
  -26.2945  -15.6310   20.1422 H   0  0  0  0  0  0
  -26.7152  -32.5484   23.1118 H   0  0  0  0  0  0
  -24.9984  -33.9736   25.0397 H   0  0  0  0  0  0
  -22.7055  -31.2988   21.3989 H   0  0  0  0  0  0
  -23.3791  -35.9546   23.3172 H   0  0  0  0  0  0
  -24.3608  -36.9028   22.2091 H   0  0  0  0  0  0
  -23.7112  -37.6398   23.6743 H   0  0  0  0  0  0
  -26.0636  -31.5633   20.5917 H   0  0  0  0  0  0
  -26.8352  -30.8628   21.9832 H   0  0  0  0  0  0
  -28.1030  -29.0225   21.1869 H   0  0  0  0  0  0
  -26.0137  -25.9122   19.0324 H   0  0  0  0  0  0
  -23.9808  -27.2755   19.0355 H   0  0  0  0  0  0
  -23.7384  -30.5789   19.3997 H   0  0  0  0  0  0
  -22.7472  -29.2294   19.8654 H   0  0  0  0  0  0
  -25.1249  -36.1917   25.0830 H   0  0  0  0  0  0
  -20.9951  -28.3258   24.1454 H   0  0  0  0  0  0
  -20.5659  -26.2307   23.3636 H   0  0  0  0  0  0
  -21.6619  -26.7460   22.1218 H   0  0  0  0  0  0
  -19.6878  -25.6309   21.1276 H   0  0  0  0  0  0
  -19.6696  -27.3215   20.6775 H   0  0  0  0  0  0
  -17.4193  -26.6759   21.3999 H   0  0  0  0  0  0
  -18.0256  -26.0114   22.9004 H   0  0  0  0  0  0
  -19.7926  -30.7271   24.2325 H   0  0  0  0  0  0
  -17.5003  -31.6295   24.5152 H   0  0  0  0  0  0
  -15.5342  -30.3004   23.7666 H   0  0  0  0  0  0
  -15.8657  -28.0844   22.7074 H   0  0  0  0  0  0
  -24.5913  -30.7050   25.7749 H   0  0  0  0  0  0
  -24.8919  -32.2837   26.4932 H   0  0  0  0  0  0
  -25.8068  -30.8819   27.0193 H   0  0  0  0  0  0
  -26.2868  -29.6776   24.1233 H   0  0  0  0  0  0
  -27.4136  -29.7323   25.4584 H   0  0  0  0  0  0
  -27.8678  -30.4355   23.9251 H   0  0  0  0  0  0
  -27.2722  -33.3618   26.2061 H   0  0  0  0  0  0
  -28.3848  -32.6890   25.0254 H   0  0  0  0  0  0
  -28.0791  -31.8444   26.5329 H   0  0  0  0  0  0
  -28.2475  -38.0174   24.7717 H   0  0  0  0  0  0
  -28.1232  -36.2739   24.5940 H   0  0  0  0  0  0
  -27.2380  -37.0965   25.8832 H   0  0  0  0  0  0
  -20.9367  -29.8704   21.6866 H   0  0  0  0  0  0
  -26.0123  -38.2843   24.1649 H   0  0  0  0  0  0
  -28.1929  -18.0179   19.4010 H   0  0  0  0  0  0
  -29.3620  -18.3199   18.1554 H   0  0  0  0  0  0
  -30.6190  -16.3755   18.6089 H   0  0  0  0  0  0
  -28.9641  -15.8647   18.5934 H   0  0  0  0  0  0
  -29.4047  -16.2327   22.4734 H   0  0  0  0  0  0
  -31.0553  -16.5606   22.0413 H   0  0  0  0  0  0
  -28.6236  -18.3189   21.6876 H   0  0  0  0  0  0
  -31.1206  -18.4500   20.0378 H   0  0  0  0  0  0
  -31.4590  -18.9250   22.6425 H   0  0  0  0  0  0
  -30.1130  -18.4823   23.6812 H   0  0  0  0  0  0
  -30.0578  -19.9855   22.7900 H   0  0  0  0  0  0
  -31.6175  -19.8406   18.4198 H   0  0  0  0  0  0
  -31.3311  -21.5321   18.6457 H   0  0  0  0  0  0
  -30.1259  -20.5485   17.8151 H   0  0  0  0  0  0
  -30.2692  -22.9789   19.9511 H   0  0  0  0  0  0
  -29.1300  -22.7585   18.6587 H   0  0  0  0  0  0
  -28.6997  -24.1132   21.3504 H   0  0  0  0  0  0
  -27.3345  -23.7009   20.3474 H   0  0  0  0  0  0
  -28.0987  -20.8297   19.6903 H   0  0  0  0  0  0
  -28.7478  -21.1836   21.2672 H   0  0  0  0  0  0
  -28.0525  -25.2645   18.5598 H   0  0  0  0  0  0
  -29.6360  -25.3307   19.2044 H   0  0  0  0  0  0
  -30.8329  -20.5691   20.6250 H   0  0  0  0  0  0
  1 25  1  0  0  0
  1 30  2  0  0  0
  1 82  1  0  0  0
  2  3  1  0  0  0
  2 25  1  0  0  0
  2 84  1  0  0  0
  2 85  1  0  0  0
  3  4  1  0  0  0
  3 86  1  0  0  0
  3 87  1  0  0  0
  4  5  1  0  0  0
  4 88  1  0  0  0
  4 89  1  0  0  0
  5  6  1  0  0  0
  5 26  1  0  0  0
  5 90  1  0  0  0
  6 25  1  0  0  0
  6 91  1  0  0  0
  6 92  1  0  0  0
  7  8  2  0  0  0
  7 26  1  0  0  0
  7 29  1  0  0  0
  8  9  1  0  0  0
  8 22  1  0  0  0
  9 10  1  0  0  0
  9 27  2  0  0  0
 10 11  2  0  0  0
 10 15  1  0  0  0
 11 12  1  0  0  0
 11 93  1  0  0  0
 12 13  2  0  0  0
 12 94  1  0  0  0
 13 14  1  0  0  0
 13 31  1  0  0  0
 14 15  2  0  0  0
 14 95  1  0  0  0
 15 96  1  0  0  0
 16 17  2  0  0  0
 16 21  1  0  0  0
 16 31  1  0  0  0
 17 18  1  0  0  0
 17 97  1  0  0  0
 18 19  2  0  0  0
 18 98  1  0  0  0
 19 20  1  0  0  0
 19 24  1  0  0  0
 20 21  2  0  0  0
 20 99  1  0  0  0
 21 23  1  0  0  0
 22 28  1  0  0  0
 22 32  2  0  0  0
 26 27  1  0  0  0
 28100  1  0  0  0
 28101  1  0  0  0
 29102  1  0  0  0
 29103  1  0  0  0
 33 34  1  0  0  0
 33 66  1  0  0  0
 33 70  2  0  0  0
 34 36  1  0  0  0
 34 59  1  0  0  0
 34104  1  0  0  0
 35 44  2  0  0  0
 35 45  1  0  0  0
 35 68  1  0  0  0
 36 56  1  0  0  0
 36105  1  0  0  0
 37 39  1  0  0  0
 37 47  1  0  0  0
 37 66  1  0  0  0
 37106  1  0  0  0
 38 43  2  0  0  0
 38 46  1  0  0  0
 38 47  1  0  0  0
 39 64  1  0  0  0
 39 67  2  0  0  0
 40 52  1  0  0  0
 40 53  2  0  0  0
 40 58  1  0  0  0
 41107  1  0  0  0
 41108  1  0  0  0
 41109  1  0  0  0
 41 48  1  0  0  0
 42 43  1  0  0  0
 42 66  1  0  0  0
 42110  1  0  0  0
 42111  1  0  0  0
 43 44  1  0  0  0
 44112  1  0  0  0
 45 46  2  0  0  0
 45113  1  0  0  0
 46114  1  0  0  0
 47115  1  0  0  0
 47116  1  0  0  0
 48 56  1  0  0  0
 48 65  1  0  0  0
 48117  1  0  0  0
 49 50  1  0  0  0
 49 53  1  0  0  0
 49 64  1  0  0  0
 49118  1  0  0  0
 50 51  1  0  0  0
 50119  1  0  0  0
 50120  1  0  0  0
 51 52  1  0  0  0
 51121  1  0  0  0
 51122  1  0  0  0
 52123  1  0  0  0
 52124  1  0  0  0
 53 54  1  0  0  0
 54 55  2  0  0  0
 54125  1  0  0  0
 55 57  1  0  0  0
 55126  1  0  0  0
 56 69  2  0  0  0
 57 58  2  0  0  0
 57127  1  0  0  0
 58128  1  0  0  0
 59 60  1  0  0  0
 59 61  1  0  0  0
 59 62  1  0  0  0
 60129  1  0  0  0
 60130  1  0  0  0
 60131  1  0  0  0
 61132  1  0  0  0
 61133  1  0  0  0
 61134  1  0  0  0
 62135  1  0  0  0
 62136  1  0  0  0
 62137  1  0  0  0
 63 65  1  0  0  0
 63138  1  0  0  0
 63139  1  0  0  0
 63140  1  0  0  0
 64141  1  0  0  0
 65142  1  0  0  0
 68 81  1  0  0  0
 71 72  1  0  0  0
 71143  1  0  0  0
 71144  1  0  0  0
 71 75  1  0  0  0
 72 82  1  0  0  0
 72145  1  0  0  0
 72146  1  0  0  0
 73 74  1  0  0  0
 73 82  1  0  0  0
 73147  1  0  0  0
 73148  1  0  0  0
 74 75  1  0  0  0
 74 76  1  0  0  0
 74149  1  0  0  0
 75 83  1  0  0  0
 75150  1  0  0  0
 76151  1  0  0  0
 76152  1  0  0  0
 76153  1  0  0  0
 77154  1  0  0  0
 77155  1  0  0  0
 77156  1  0  0  0
 77 83  1  0  0  0
 78 79  1  0  0  0
 78 80  1  0  0  0
 78157  1  0  0  0
 78158  1  0  0  0
 79 81  1  0  0  0
 79159  1  0  0  0
 79160  1  0  0  0
 80 83  1  0  0  0
 80161  1  0  0  0
 80162  1  0  0  0
 81163  1  0  0  0
 81164  1  0  0  0
 83165  1  0  0  0
M  CHG  1  83   1
M  ISO  4   1 100  68 101  81 101  82 100
M  END
> <chiral flag>
0

> <version>
0

> <s_m_source_file>
/data/baiqing/PycharmProjects/Reinvent-master-3.2/result/LINK_invent/BTK/process_docking_weight1_custom_sum_contain_oxygen_bond_distance_aromatic_linkinvent_7_9_3/rearranged_h_0100.sdf

> <i_m_source_file_index>
57

> <r_mmod_Potential_Energy-OPLS-2005>
233.191818237305

> <r_mmod_Stretch_Energy-OPLS-2005>
77.0759353637695

> <r_mmod_Bend_Energy-OPLS-2005>
188.294692993164

> <r_mmod_Torsional_Energy-OPLS-2005>
362.610595703125

> <r_mmod_Improper_Torsional_Energy-OPLS-2005>
11.5337295532227

> <r_mmod_Van_der_Waal_Energy-OPLS-2005>
129.107772827148

> <r_mmod_Electrostatic_Energy-OPLS-2005>
-155.162536621094

> <r_mmod_Solvation_Energy-OPLS-2005>
-421.203186035156

> <b_mmod_Minimization_Converged-OPLS-2005>
0

> <r_mmod_RMS_Derivative-OPLS-2005>
3.12183117866516

$$$$
57
                    3D
 Structure written by MMmdl.
174182  0  0  1  0            999 V2000
  -30.6635  -14.5925   20.5791 C   0  0  0  0  0  0
  -30.4218  -12.3857   19.4203 C   0  0  0  0  0  0
  -29.4882  -12.5349   18.2022 C   0  0  0  0  0  0
  -28.0134  -12.3765   18.6156 C   0  0  0  0  0  0
  -27.6580  -13.2150   19.8743 C   0  0  2  0  0  0
  -28.7065  -13.0164   20.9897 C   0  0  0  0  0  0
  -25.2608  -13.8169   20.5658 C   0  0  0  0  0  0
  -24.1873  -13.0420   20.9142 C   0  0  0  0  0  0
  -24.6443  -11.6891   20.8720 C   0  0  0  0  0  0
  -23.9117  -10.4277   21.0382 C   0  0  0  0  0  0
  -24.3646   -9.4206   21.9179 C   0  0  0  0  0  0
  -23.6299   -8.2255   22.0768 C   0  0  0  0  0  0
  -22.4299   -8.0280   21.3545 C   0  0  0  0  0  0
  -21.9937   -9.0259   20.4656 C   0  0  0  0  0  0
  -22.7272  -10.2136   20.3052 C   0  0  0  0  0  0
  -21.6875   -6.0732   22.5275 C   0  0  0  0  0  0
  -21.4024   -6.5629   23.8204 C   0  0  0  0  0  0
  -21.3660   -5.6778   24.9160 C   0  0  0  0  0  0
  -21.6061   -4.3041   24.7237 C   0  0  0  0  0  0
  -21.8822   -3.8142   23.4356 C   0  0  0  0  0  0
  -21.9216   -4.6959   22.3407 C   0  0  0  0  0  0
  -22.7908  -13.5221   21.1773 C   0  0  0  0  0  0
  -22.1673   -4.2145   21.0985 F   0  0  0  0  0  0
  -21.5644   -3.4522   25.7751 F   0  0  0  0  0  0
  -30.0194  -13.3852   20.4376 N   0  0  0  0  0  0
  -26.3031  -12.9328   20.3375 N   0  0  0  0  0  0
  -25.9371  -11.6487   20.5778 N   0  0  0  0  0  0
  -22.0570  -12.8187   22.0342 N   0  0  0  0  0  0
  -25.4362  -15.1873   20.4058 N   0  0  0  0  0  0
  -31.7455  -14.7751   20.0174 O   0  0  0  0  0  0
  -21.6668   -6.8877   21.4239 O   0  0  0  0  0  0
  -22.3575  -14.5529   20.6628 O   0  0  0  0  0  0
  -24.6259  -31.8607   23.2061 C   0  0  0  0  0  0
  -25.9112  -32.4784   23.8375 C   0  0  1  0  0  0
  -27.2203  -27.3528   20.0863 C   0  0  0  0  0  0
  -25.5937  -33.8586   24.2324 N   0  0  0  0  0  0
  -23.4138  -30.4850   21.5538 C   0  0  2  0  0  0
  -24.8547  -28.9484   20.1106 C   0  0  0  0  0  0
  -22.7466  -29.4606   22.5018 C   0  0  0  0  0  0
  -18.0273  -28.1329   22.8529 C   0  0  0  0  0  0
  -24.1488  -36.7306   23.2636 C   0  0  0  0  0  0
  -25.9538  -30.8033   21.3651 C   0  0  0  0  0  0
  -26.0252  -29.4332   20.7065 C   0  0  0  0  0  0
  -27.2116  -28.6468   20.6835 C   0  0  0  0  0  0
  -26.0206  -26.9078   19.4821 C   0  0  0  0  0  0
  -24.8525  -27.6885   19.4934 C   0  0  0  0  0  0
  -23.6207  -29.8233   20.1676 C   0  0  0  0  0  0
  -25.4101  -36.3094   24.0342 C   0  0  1  0  0  0
  -20.5875  -28.3625   23.1356 C   0  0  2  0  0  0
  -20.6762  -26.9356   22.5450 C   0  0  0  0  0  0
  -19.5711  -26.6355   21.5263 C   0  0  0  0  0  0
  -18.1893  -26.7888   22.1656 C   0  0  0  0  0  0
  -19.1521  -28.8805   23.2926 C   0  0  0  0  0  0
  -18.9427  -30.1427   23.8906 C   0  0  0  0  0  0
  -17.6410  -30.6552   24.0556 C   0  0  0  0  0  0
  -25.9044  -34.9458   23.5130 C   0  0  0  0  0  0
  -16.5314  -29.9035   23.6319 C   0  0  0  0  0  0
  -16.7256  -28.6453   23.0358 C   0  0  0  0  0  0
  -26.4499  -31.6542   25.0712 C   0  0  0  0  0  0
  -25.3798  -31.3603   26.1484 C   0  0  0  0  0  0
  -27.0303  -30.2982   24.6046 C   0  0  0  0  0  0
  -27.6031  -32.4288   25.7509 C   0  0  0  0  0  0
  -27.5571  -37.1806   24.8465 C   0  0  0  0  0  0
  -21.4178  -29.3004   22.3786 N   0  0  0  0  0  0
  -26.4281  -37.3781   23.9415 N   0  0  0  0  0  0
  -24.6844  -31.0640   22.1004 N   0  0  0  0  0  0
  -23.4234  -28.8136   23.3063 O   0  0  0  0  0  0
  -28.3623  -26.5466   20.1010 O   0  0  0  0  0  0
  -26.5594  -34.8916   22.4687 O   0  0  0  0  0  0
  -23.5443  -32.1393   23.7422 O   0  0  0  0  0  0
  -31.1136  -19.4807   20.4595 C   0  0  0  0  0  0
  -28.8796  -17.9461   20.6924 C   0  0  0  0  0  0
  -31.2624  -18.1168   20.8667 C   0  0  0  0  0  0
  -30.1087  -17.2832   20.9429 C   0  0  0  0  0  0
  -29.8421  -20.0356   20.1824 C   0  0  0  0  0  0
  -31.9645  -25.8835   17.3753 C   0  0  0  0  0  0
  -33.2454  -18.3782   22.4370 C   0  0  0  0  0  0
  -33.6104  -17.6423   20.0387 C   0  0  0  0  0  0
  -28.6089  -21.4369   18.4348 C   0  0  0  0  0  0
  -30.0798  -15.7829   21.4502 C   0  0  0  0  0  0
  -30.9181  -25.8489   18.4998 C   0  0  0  0  0  0
  -30.4789  -24.4055   18.8292 C   0  0  0  0  0  0
  -29.3722  -22.7126   20.5299 C   0  0  0  0  0  0
  -28.2143  -25.1016   19.8708 C   0  0  0  0  0  0
  -32.6566  -17.6105   21.2420 C   0  0  0  0  0  0
  -29.6535  -21.4803   19.5643 C   0  0  1  0  0  0
  -29.5284  -24.2417   20.0450 C   0  0  2  0  0  0
  -28.7427  -19.2617   20.3538 N   0  0  0  0  0  0
  -31.4607  -12.4980   19.1092 H   0  0  0  0  0  0
  -30.3442  -11.3760   19.8270 H   0  0  0  0  0  0
  -29.7381  -11.8057   17.4318 H   0  0  0  0  0  0
  -29.6386  -13.5161   17.7485 H   0  0  0  0  0  0
  -27.8303  -11.3189   18.8060 H   0  0  0  0  0  0
  -27.3603  -12.6503   17.7851 H   0  0  0  0  0  0
  -27.6944  -14.2612   19.5709 H   0  0  0  0  0  0
  -28.7170  -11.9726   21.3053 H   0  0  0  0  0  0
  -28.4408  -13.5728   21.8853 H   0  0  0  0  0  0
  -25.2802   -9.5670   22.4721 H   0  0  0  0  0  0
  -24.0031   -7.4660   22.7477 H   0  0  0  0  0  0
  -21.0889   -8.8761   19.8934 H   0  0  0  0  0  0
  -22.3742  -10.9661   19.6146 H   0  0  0  0  0  0
  -21.1980   -7.6128   23.9679 H   0  0  0  0  0  0
  -21.1488   -6.0521   25.9047 H   0  0  0  0  0  0
  -22.0607   -2.7613   23.2863 H   0  0  0  0  0  0
  -22.4220  -11.9842   22.4696 H   0  0  0  0  0  0
  -21.1185  -13.1183   22.2543 H   0  0  0  0  0  0
  -24.6671  -15.8422   20.4856 H   0  0  0  0  0  0
  -26.2891  -15.6218   20.0784 H   0  0  0  0  0  0
  -26.7174  -32.5454   23.1116 H   0  0  0  0  0  0
  -25.0134  -33.9732   25.0506 H   0  0  0  0  0  0
  -22.7047  -31.3039   21.4184 H   0  0  0  0  0  0
  -23.3753  -35.9636   23.3284 H   0  0  0  0  0  0
  -24.3607  -36.8937   22.2059 H   0  0  0  0  0  0
  -23.7236  -37.6504   23.6662 H   0  0  0  0  0  0
  -26.0686  -31.5665   20.5945 H   0  0  0  0  0  0
  -26.8454  -30.8600   21.9781 H   0  0  0  0  0  0
  -28.1158  -29.0193   21.1425 H   0  0  0  0  0  0
  -25.9553  -25.9474   18.9941 H   0  0  0  0  0  0
  -23.9539  -27.3088   19.0267 H   0  0  0  0  0  0
  -23.7264  -30.6039   19.4141 H   0  0  0  0  0  0
  -22.7434  -29.2449   19.8730 H   0  0  0  0  0  0
  -25.1271  -36.1944   25.0834 H   0  0  0  0  0  0
  -20.9942  -28.3158   24.1477 H   0  0  0  0  0  0
  -20.5704  -26.2203   23.3625 H   0  0  0  0  0  0
  -21.6613  -26.7390   22.1195 H   0  0  0  0  0  0
  -19.6850  -25.6284   21.1241 H   0  0  0  0  0  0
  -19.6645  -27.3226   20.6847 H   0  0  0  0  0  0
  -17.4184  -26.6730   21.4026 H   0  0  0  0  0  0
  -18.0198  -25.9997   22.9000 H   0  0  0  0  0  0
  -19.7888  -30.7279   24.2262 H   0  0  0  0  0  0
  -17.4935  -31.6228   24.5124 H   0  0  0  0  0  0
  -15.5310  -30.2909   23.7604 H   0  0  0  0  0  0
  -15.8674  -28.0764   22.7034 H   0  0  0  0  0  0
  -24.6046  -30.6827   25.7878 H   0  0  0  0  0  0
  -24.8921  -32.2725   26.4928 H   0  0  0  0  0  0
  -25.8254  -30.8848   27.0234 H   0  0  0  0  0  0
  -26.2805  -29.6777   24.1121 H   0  0  0  0  0  0
  -27.4097  -29.7151   25.4440 H   0  0  0  0  0  0
  -27.8639  -30.4297   23.9151 H   0  0  0  0  0  0
  -27.2590  -33.3595   26.2029 H   0  0  0  0  0  0
  -28.3881  -32.6829   25.0380 H   0  0  0  0  0  0
  -28.0632  -31.8455   26.5491 H   0  0  0  0  0  0
  -28.2561  -38.0125   24.7517 H   0  0  0  0  0  0
  -28.1086  -36.2651   24.6268 H   0  0  0  0  0  0
  -27.2300  -37.1431   25.8870 H   0  0  0  0  0  0
  -20.9332  -29.8790   21.7066 H   0  0  0  0  0  0
  -26.0161  -38.2852   24.1417 H   0  0  0  0  0  0
  -31.9917  -20.1039   20.3492 H   0  0  0  0  0  0
  -27.9513  -17.4050   20.8052 H   0  0  0  0  0  0
  -32.0803  -26.8877   16.9650 H   0  0  0  0  0  0
  -31.6656  -25.2360   16.5510 H   0  0  0  0  0  0
  -32.9433  -25.5498   17.7243 H   0  0  0  0  0  0
  -32.5765  -18.3411   23.2969 H   0  0  0  0  0  0
  -33.4225  -19.4270   22.2013 H   0  0  0  0  0  0
  -34.1978  -17.9464   22.7518 H   0  0  0  0  0  0
  -33.1909  -17.0964   19.1940 H   0  0  0  0  0  0
  -34.5689  -17.1806   20.2823 H   0  0  0  0  0  0
  -33.8092  -18.6601   19.7072 H   0  0  0  0  0  0
  -28.8181  -20.6245   17.7390 H   0  0  0  0  0  0
  -28.5759  -22.3598   17.8606 H   0  0  0  0  0  0
  -27.6086  -21.2747   18.8352 H   0  0  0  0  0  0
  -29.0453  -15.5743   21.7134 H   0  0  0  0  0  0
  -30.6126  -15.7515   22.3995 H   0  0  0  0  0  0
  -30.0567  -26.4371   18.1799 H   0  0  0  0  0  0
  -31.3092  -26.3512   19.3866 H   0  0  0  0  0  0
  -31.3714  -23.8040   18.9935 H   0  0  0  0  0  0
  -30.0044  -23.9960   17.9371 H   0  0  0  0  0  0
  -30.0894  -22.5883   21.3425 H   0  0  0  0  0  0
  -28.4034  -22.5836   21.0117 H   0  0  0  0  0  0
  -27.4470  -24.7255   20.5497 H   0  0  0  0  0  0
  -27.8388  -24.9319   18.8608 H   0  0  0  0  0  0
  -32.5812  -16.5777   21.5662 H   0  0  0  0  0  0
  -30.6098  -21.6726   19.0788 H   0  0  0  0  0  0
  -30.0283  -24.7227   20.8878 H   0  0  0  0  0  0
  1 25  1  0  0  0
  1 30  2  0  0  0
  1 80  1  0  0  0
  2  3  1  0  0  0
  2 25  1  0  0  0
  2 89  1  0  0  0
  2 90  1  0  0  0
  3  4  1  0  0  0
  3 91  1  0  0  0
  3 92  1  0  0  0
  4  5  1  0  0  0
  4 93  1  0  0  0
  4 94  1  0  0  0
  5  6  1  0  0  0
  5 26  1  0  0  0
  5 95  1  0  0  0
  6 25  1  0  0  0
  6 96  1  0  0  0
  6 97  1  0  0  0
  7  8  2  0  0  0
  7 26  1  0  0  0
  7 29  1  0  0  0
  8  9  1  0  0  0
  8 22  1  0  0  0
  9 10  1  0  0  0
  9 27  2  0  0  0
 10 11  2  0  0  0
 10 15  1  0  0  0
 11 12  1  0  0  0
 11 98  1  0  0  0
 12 13  2  0  0  0
 12 99  1  0  0  0
 13 14  1  0  0  0
 13 31  1  0  0  0
 14 15  2  0  0  0
 14100  1  0  0  0
 15101  1  0  0  0
 16 17  2  0  0  0
 16 21  1  0  0  0
 16 31  1  0  0  0
 17 18  1  0  0  0
 17102  1  0  0  0
 18 19  2  0  0  0
 18103  1  0  0  0
 19 20  1  0  0  0
 19 24  1  0  0  0
 20 21  2  0  0  0
 20104  1  0  0  0
 21 23  1  0  0  0
 22 28  1  0  0  0
 22 32  2  0  0  0
 26 27  1  0  0  0
 28105  1  0  0  0
 28106  1  0  0  0
 29107  1  0  0  0
 29108  1  0  0  0
 33 34  1  0  0  0
 33 66  1  0  0  0
 33 70  2  0  0  0
 34 36  1  0  0  0
 34 59  1  0  0  0
 34109  1  0  0  0
 35 44  2  0  0  0
 35 45  1  0  0  0
 35 68  1  0  0  0
 36 56  1  0  0  0
 36110  1  0  0  0
 37 39  1  0  0  0
 37 47  1  0  0  0
 37 66  1  0  0  0
 37111  1  0  0  0
 38 43  2  0  0  0
 38 46  1  0  0  0
 38 47  1  0  0  0
 39 64  1  0  0  0
 39 67  2  0  0  0
 40 52  1  0  0  0
 40 53  2  0  0  0
 40 58  1  0  0  0
 41112  1  0  0  0
 41113  1  0  0  0
 41114  1  0  0  0
 41 48  1  0  0  0
 42 43  1  0  0  0
 42 66  1  0  0  0
 42115  1  0  0  0
 42116  1  0  0  0
 43 44  1  0  0  0
 44117  1  0  0  0
 45 46  2  0  0  0
 45118  1  0  0  0
 46119  1  0  0  0
 47120  1  0  0  0
 47121  1  0  0  0
 48 56  1  0  0  0
 48 65  1  0  0  0
 48122  1  0  0  0
 49 50  1  0  0  0
 49 53  1  0  0  0
 49 64  1  0  0  0
 49123  1  0  0  0
 50 51  1  0  0  0
 50124  1  0  0  0
 50125  1  0  0  0
 51 52  1  0  0  0
 51126  1  0  0  0
 51127  1  0  0  0
 52128  1  0  0  0
 52129  1  0  0  0
 53 54  1  0  0  0
 54 55  2  0  0  0
 54130  1  0  0  0
 55 57  1  0  0  0
 55131  1  0  0  0
 56 69  2  0  0  0
 57 58  2  0  0  0
 57132  1  0  0  0
 58133  1  0  0  0
 59 60  1  0  0  0
 59 61  1  0  0  0
 59 62  1  0  0  0
 60134  1  0  0  0
 60135  1  0  0  0
 60136  1  0  0  0
 61137  1  0  0  0
 61138  1  0  0  0
 61139  1  0  0  0
 62140  1  0  0  0
 62141  1  0  0  0
 62142  1  0  0  0
 63 65  1  0  0  0
 63143  1  0  0  0
 63144  1  0  0  0
 63145  1  0  0  0
 64146  1  0  0  0
 65147  1  0  0  0
 68 84  1  0  0  0
 71 73  2  0  0  0
 71 75  1  0  0  0
 71148  1  0  0  0
 72 74  2  0  0  0
 72 88  1  0  0  0
 72149  1  0  0  0
 73 74  1  0  0  0
 73 85  1  0  0  0
 74 80  1  0  0  0
 75 86  1  0  0  0
 75 88  2  0  0  0
 76 81  1  0  0  0
 76150  1  0  0  0
 76151  1  0  0  0
 76152  1  0  0  0
 77153  1  0  0  0
 77154  1  0  0  0
 77155  1  0  0  0
 77 85  1  0  0  0
 78 85  1  0  0  0
 78156  1  0  0  0
 78157  1  0  0  0
 78158  1  0  0  0
 79159  1  0  0  0
 79160  1  0  0  0
 79161  1  0  0  0
 79 86  1  0  0  0
 80162  1  0  0  0
 80163  1  0  0  0
 81 82  1  0  0  0
 81164  1  0  0  0
 81165  1  0  0  0
 82166  1  0  0  0
 82167  1  0  0  0
 82 87  1  0  0  0
 83 86  1  0  0  0
 83 87  1  0  0  0
 83168  1  0  0  0
 83169  1  0  0  0
 84 87  1  0  0  0
 84170  1  0  0  0
 84171  1  0  0  0
 85172  1  0  0  0
 86173  1  0  0  0
 87174  1  0  0  0
M  ISO  4   1 100  68 101  80 100  84 101
M  END
> <chiral flag>
0

> <version>
0

> <s_m_source_file>
/data/baiqing/PycharmProjects/Reinvent-master-3.2/result/LINK_invent/BTK/process_docking_weight1_custom_sum_contain_oxygen_bond_distance_aromatic_linkinvent_7_9_3/rearranged_h_0100.sdf

> <i_m_source_file_index>
58

> <r_mmod_Potential_Energy-OPLS-2005>
-104.777320861816

> <r_mmod_Stretch_Energy-OPLS-2005>
84.0137786865234

> <r_mmod_Bend_Energy-OPLS-2005>
153.796051025391

> <r_mmod_Torsional_Energy-OPLS-2005>
190.015090942383

> <r_mmod_Improper_Torsional_Energy-OPLS-2005>
2.90424871444702

> <r_mmod_Van_der_Waal_Energy-OPLS-2005>
146.022430419922

> <r_mmod_Electrostatic_Energy-OPLS-2005>
-523.6953125

> <r_mmod_Solvation_Energy-OPLS-2005>
-189.107070922852

> <b_mmod_Minimization_Converged-OPLS-2005>
0

> <r_mmod_RMS_Derivative-OPLS-2005>
4.63406944274902

$$$$
58
                    3D
 Structure written by MMmdl.
170178  0  0  1  0            999 V2000
  -30.3905  -15.3833   20.3626 C   0  0  0  0  0  0
  -30.4436  -12.9054   19.5020 C   0  0  0  0  0  0
  -29.5395  -12.5909   18.2825 C   0  0  0  0  0  0
  -28.0938  -12.2940   18.7212 C   0  0  0  0  0  0
  -27.6057  -13.2819   19.8084 C   0  0  2  0  0  0
  -28.6429  -13.5089   20.9266 C   0  0  0  0  0  0
  -25.2385  -13.8249   20.5744 C   0  0  0  0  0  0
  -24.1744  -13.0440   20.9276 C   0  0  0  0  0  0
  -24.6413  -11.6936   20.8773 C   0  0  0  0  0  0
  -23.9109  -10.4299   21.0412 C   0  0  0  0  0  0
  -24.3646   -9.4210   21.9190 C   0  0  0  0  0  0
  -23.6317   -8.2249   22.0745 C   0  0  0  0  0  0
  -22.4298   -8.0296   21.3534 C   0  0  0  0  0  0
  -21.9948   -9.0276   20.4637 C   0  0  0  0  0  0
  -22.7284  -10.2148   20.3060 C   0  0  0  0  0  0
  -21.6858   -6.0750   22.5275 C   0  0  0  0  0  0
  -21.4019   -6.5642   23.8216 C   0  0  0  0  0  0
  -21.3656   -5.6790   24.9174 C   0  0  0  0  0  0
  -21.6043   -4.3056   24.7217 C   0  0  0  0  0  0
  -21.8823   -3.8150   23.4340 C   0  0  0  0  0  0
  -21.9199   -4.6975   22.3397 C   0  0  0  0  0  0
  -22.7759  -13.5201   21.1914 C   0  0  0  0  0  0
  -22.1660   -4.2165   21.0974 F   0  0  0  0  0  0
  -21.5631   -3.4527   25.7725 F   0  0  0  0  0  0
  -29.8434  -14.0611   20.2699 N   0  0  0  0  0  0
  -26.2811  -12.9532   20.3191 N   0  0  0  0  0  0
  -25.9352  -11.6629   20.5714 N   0  0  0  0  0  0
  -22.0392  -12.8193   22.0457 N   0  0  0  0  0  0
  -25.4012  -15.1986   20.4145 N   0  0  0  0  0  0
  -31.6286  -15.3689   20.2915 O   0  0  0  0  0  0
  -21.6644   -6.8900   21.4243 O   0  0  0  0  0  0
  -22.3450  -14.5504   20.6752 O   0  0  0  0  0  0
  -24.6697  -31.8168   23.1670 C   0  0  0  0  0  0
  -25.9341  -32.4556   23.8163 C   0  0  1  0  0  0
  -27.2163  -26.8572   20.2013 C   0  0  0  0  0  0
  -25.5983  -33.8372   24.2068 N   0  0  0  0  0  0
  -23.4892  -30.4263   21.5177 C   0  0  2  0  0  0
  -24.9438  -28.7997   20.1187 C   0  0  0  0  0  0
  -22.7712  -29.4399   22.4762 C   0  0  0  0  0  0
  -18.0323  -28.1409   22.8470 C   0  0  0  0  0  0
  -24.1488  -36.7181   23.2652 C   0  0  0  0  0  0
  -26.0637  -30.6018   21.4073 C   0  0  0  0  0  0
  -26.1315  -29.1829   20.7550 C   0  0  0  0  0  0
  -27.2631  -28.2377   20.7643 C   0  0  0  0  0  0
  -25.9996  -26.6432   19.5153 C   0  0  0  0  0  0
  -24.9076  -27.5518   19.4754 C   0  0  0  0  0  0
  -23.7358  -29.7396   20.1457 C   0  0  0  0  0  0
  -25.4131  -36.2951   24.0306 C   0  0  1  0  0  0
  -20.5956  -28.3757   23.1178 C   0  0  2  0  0  0
  -20.6796  -26.9426   22.5409 C   0  0  0  0  0  0
  -19.5766  -26.6371   21.5221 C   0  0  0  0  0  0
  -18.1947  -26.7941   22.1624 C   0  0  0  0  0  0
  -19.1588  -28.8905   23.2810 C   0  0  0  0  0  0
  -18.9495  -30.1492   23.8849 C   0  0  0  0  0  0
  -17.6488  -30.6599   24.0552 C   0  0  0  0  0  0
  -25.9101  -34.9332   23.5014 C   0  0  0  0  0  0
  -16.5376  -29.9088   23.6343 C   0  0  0  0  0  0
  -16.7305  -28.6506   23.0365 C   0  0  0  0  0  0
  -26.4573  -31.6515   25.0712 C   0  0  0  0  0  0
  -25.3693  -31.3777   26.1368 C   0  0  0  0  0  0
  -27.0489  -30.2879   24.6485 C   0  0  0  0  0  0
  -27.6071  -32.4331   25.7509 C   0  0  0  0  0  0
  -27.5565  -37.1750   24.8471 C   0  0  0  0  0  0
  -21.4370  -29.3038   22.3524 N   0  0  0  0  0  0
  -26.4273  -37.3693   23.9413 N   0  0  0  0  0  0
  -24.7631  -30.9769   22.0841 N   0  0  0  0  0  0
  -23.4229  -28.7969   23.3028 O   0  0  0  0  0  0
  -28.2003  -25.7093   20.2413 O   0  0  0  0  0  0
  -26.5715  -34.8877   22.4616 O   0  0  0  0  0  0
  -23.5751  -32.1160   23.6713 O   0  0  0  0  0  0
  -29.8115  -22.7155   19.1251 C   0  0  0  0  0  0
  -30.5840  -21.6263   18.6429 C   0  0  0  0  0  0
  -30.4211  -20.2753   19.1117 C   0  0  0  0  0  0
  -28.8299  -22.5820   20.1111 C   0  0  0  0  0  0
  -29.4685  -19.9447   20.1134 C   0  0  0  0  0  0
  -31.3301  -19.1557   18.6012 C   0  0  0  0  0  0
  -26.4063  -24.7540   22.5346 C   0  0  0  0  0  0
  -34.7800  -23.9995   19.0408 C   0  0  0  0  0  0
  -34.2094  -23.6651   16.5975 C   0  0  0  0  0  0
  -31.6827  -22.0204   17.6596 C   0  0  0  0  0  0
  -29.5828  -18.3004   20.8024 C   0  0  0  0  0  0
  -27.6344  -23.9834   22.0213 C   0  0  0  0  0  0
  -33.0141  -22.2994   18.3937 C   0  0  0  0  0  0
  -27.9133  -24.0640   20.5013 C   0  0  1  0  0  0
  -33.6715  -23.6483   18.0360 C   0  0  0  0  0  0
  -28.7084  -21.1551   20.5607 N   0  0  0  0  0  0
  -29.6026  -16.6649   20.3168 N   0  0  0  0  0  0
  -31.4420  -13.1585   19.1455 H   0  0  0  0  0  0
  -30.5707  -12.0292   20.1394 H   0  0  0  0  0  0
  -29.9439  -11.7514   17.7176 H   0  0  0  0  0  0
  -29.5431  -13.4447   17.6036 H   0  0  0  0  0  0
  -28.0685  -11.2774   19.1146 H   0  0  0  0  0  0
  -27.4246  -12.3069   17.8601 H   0  0  0  0  0  0
  -27.5011  -14.2338   19.2854 H   0  0  0  0  0  0
  -28.8521  -12.5920   21.4805 H   0  0  0  0  0  0
  -28.2633  -14.2321   21.6501 H   0  0  0  0  0  0
  -25.2785   -9.5686   22.4773 H   0  0  0  0  0  0
  -24.0014   -7.4646   22.7467 H   0  0  0  0  0  0
  -21.0879   -8.8823   19.8950 H   0  0  0  0  0  0
  -22.3757  -10.9698   19.6175 H   0  0  0  0  0  0
  -21.2005   -7.6147   23.9733 H   0  0  0  0  0  0
  -21.1469   -6.0504   25.9082 H   0  0  0  0  0  0
  -22.0606   -2.7615   23.2827 H   0  0  0  0  0  0
  -22.4002  -11.9865   22.4866 H   0  0  0  0  0  0
  -21.1006  -13.1227   22.2630 H   0  0  0  0  0  0
  -24.6315  -15.8499   20.5262 H   0  0  0  0  0  0
  -26.2384  -15.6365   20.0549 H   0  0  0  0  0  0
  -26.7420  -32.5084   23.0881 H   0  0  0  0  0  0
  -25.0091  -33.9444   25.0195 H   0  0  0  0  0  0
  -22.8054  -31.2602   21.3423 H   0  0  0  0  0  0
  -23.3772  -35.9490   23.3281 H   0  0  0  0  0  0
  -24.3567  -36.8857   22.2076 H   0  0  0  0  0  0
  -23.7216  -37.6348   23.6725 H   0  0  0  0  0  0
  -26.2504  -31.3383   20.6242 H   0  0  0  0  0  0
  -26.9207  -30.6645   22.0663 H   0  0  0  0  0  0
  -28.1641  -28.5353   21.2818 H   0  0  0  0  0  0
  -25.8618  -25.6934   19.0190 H   0  0  0  0  0  0
  -24.0096  -27.2527   18.9533 H   0  0  0  0  0  0
  -23.9060  -30.5093   19.3921 H   0  0  0  0  0  0
  -22.8432  -29.2045   19.8184 H   0  0  0  0  0  0
  -25.1327  -36.1753   25.0798 H   0  0  0  0  0  0
  -21.0037  -28.3360   24.1304 H   0  0  0  0  0  0
  -20.5660  -26.2375   23.3655 H   0  0  0  0  0  0
  -21.6658  -26.7388   22.1217 H   0  0  0  0  0  0
  -19.6918  -25.6268   21.1281 H   0  0  0  0  0  0
  -19.6702  -27.3157   20.6730 H   0  0  0  0  0  0
  -17.4216  -26.6691   21.4024 H   0  0  0  0  0  0
  -18.0328  -26.0095   22.9030 H   0  0  0  0  0  0
  -19.7969  -30.7321   24.2194 H   0  0  0  0  0  0
  -17.5036  -31.6271   24.5163 H   0  0  0  0  0  0
  -15.5372  -30.2973   23.7690 H   0  0  0  0  0  0
  -15.8703  -28.0807   22.7107 H   0  0  0  0  0  0
  -24.5899  -30.7092   25.7682 H   0  0  0  0  0  0
  -24.8854  -32.2980   26.4655 H   0  0  0  0  0  0
  -25.7929  -30.9044   27.0237 H   0  0  0  0  0  0
  -26.3182  -29.6531   24.1461 H   0  0  0  0  0  0
  -27.3973  -29.7264   25.5162 H   0  0  0  0  0  0
  -27.9137  -30.4053   23.9952 H   0  0  0  0  0  0
  -27.2654  -33.3697   26.1923 H   0  0  0  0  0  0
  -28.3962  -32.6770   25.0386 H   0  0  0  0  0  0
  -28.0640  -31.8552   26.5551 H   0  0  0  0  0  0
  -28.2567  -38.0061   24.7516 H   0  0  0  0  0  0
  -28.1072  -36.2585   24.6297 H   0  0  0  0  0  0
  -27.2281  -37.1394   25.8873 H   0  0  0  0  0  0
  -20.9624  -29.8756   21.6670 H   0  0  0  0  0  0
  -26.0116  -38.2749   24.1424 H   0  0  0  0  0  0
  -29.9834  -23.7097   18.7323 H   0  0  0  0  0  0
  -32.1511  -19.4872   17.9717 H   0  0  0  0  0  0
  -30.7499  -18.4285   18.0318 H   0  0  0  0  0  0
  -31.8014  -18.6316   19.4321 H   0  0  0  0  0  0
  -26.1986  -24.4938   23.5727 H   0  0  0  0  0  0
  -25.5151  -24.5156   21.9514 H   0  0  0  0  0  0
  -26.5542  -25.8325   22.5083 H   0  0  0  0  0  0
  -35.2367  -24.9625   18.8093 H   0  0  0  0  0  0
  -35.5705  -23.2491   19.0480 H   0  0  0  0  0  0
  -34.3841  -24.0713   20.0547 H   0  0  0  0  0  0
  -34.6714  -24.6249   16.3632 H   0  0  0  0  0  0
  -33.4128  -23.5070   15.8705 H   0  0  0  0  0  0
  -34.9596  -22.8897   16.4412 H   0  0  0  0  0  0
  -31.3592  -22.9166   17.1276 H   0  0  0  0  0  0
  -31.8040  -21.2831   16.8680 H   0  0  0  0  0  0
  -28.7826  -18.3086   21.5426 H   0  0  0  0  0  0
  -30.4825  -18.3689   21.4146 H   0  0  0  0  0  0
  -27.4566  -22.9375   22.2714 H   0  0  0  0  0  0
  -28.5282  -24.2694   22.5771 H   0  0  0  0  0  0
  -33.7062  -21.4714   18.2350 H   0  0  0  0  0  0
  -32.8199  -22.3028   19.4680 H   0  0  0  0  0  0
  -26.9703  -23.8768   19.9883 H   0  0  0  0  0  0
  -32.9123  -24.4285   18.1189 H   0  0  0  0  0  0
  -28.6568  -16.4188   20.0703 H   0  0  0  0  0  0
  1 25  1  0  0  0
  1 30  2  0  0  0
  1 87  1  0  0  0
  2  3  1  0  0  0
  2 25  1  0  0  0
  2 88  1  0  0  0
  2 89  1  0  0  0
  3  4  1  0  0  0
  3 90  1  0  0  0
  3 91  1  0  0  0
  4  5  1  0  0  0
  4 92  1  0  0  0
  4 93  1  0  0  0
  5  6  1  0  0  0
  5 26  1  0  0  0
  5 94  1  0  0  0
  6 25  1  0  0  0
  6 95  1  0  0  0
  6 96  1  0  0  0
  7  8  2  0  0  0
  7 26  1  0  0  0
  7 29  1  0  0  0
  8  9  1  0  0  0
  8 22  1  0  0  0
  9 10  1  0  0  0
  9 27  2  0  0  0
 10 11  2  0  0  0
 10 15  1  0  0  0
 11 12  1  0  0  0
 11 97  1  0  0  0
 12 13  2  0  0  0
 12 98  1  0  0  0
 13 14  1  0  0  0
 13 31  1  0  0  0
 14 15  2  0  0  0
 14 99  1  0  0  0
 15100  1  0  0  0
 16 17  2  0  0  0
 16 21  1  0  0  0
 16 31  1  0  0  0
 17 18  1  0  0  0
 17101  1  0  0  0
 18 19  2  0  0  0
 18102  1  0  0  0
 19 20  1  0  0  0
 19 24  1  0  0  0
 20 21  2  0  0  0
 20103  1  0  0  0
 21 23  1  0  0  0
 22 28  1  0  0  0
 22 32  2  0  0  0
 26 27  1  0  0  0
 28104  1  0  0  0
 28105  1  0  0  0
 29106  1  0  0  0
 29107  1  0  0  0
 33 34  1  0  0  0
 33 66  1  0  0  0
 33 70  2  0  0  0
 34 36  1  0  0  0
 34 59  1  0  0  0
 34108  1  0  0  0
 35 44  2  0  0  0
 35 45  1  0  0  0
 35 68  1  0  0  0
 36 56  1  0  0  0
 36109  1  0  0  0
 37 39  1  0  0  0
 37 47  1  0  0  0
 37 66  1  0  0  0
 37110  1  0  0  0
 38 43  2  0  0  0
 38 46  1  0  0  0
 38 47  1  0  0  0
 39 64  1  0  0  0
 39 67  2  0  0  0
 40 52  1  0  0  0
 40 53  2  0  0  0
 40 58  1  0  0  0
 41111  1  0  0  0
 41112  1  0  0  0
 41113  1  0  0  0
 41 48  1  0  0  0
 42 43  1  0  0  0
 42 66  1  0  0  0
 42114  1  0  0  0
 42115  1  0  0  0
 43 44  1  0  0  0
 44116  1  0  0  0
 45 46  2  0  0  0
 45117  1  0  0  0
 46118  1  0  0  0
 47119  1  0  0  0
 47120  1  0  0  0
 48 56  1  0  0  0
 48 65  1  0  0  0
 48121  1  0  0  0
 49 50  1  0  0  0
 49 53  1  0  0  0
 49 64  1  0  0  0
 49122  1  0  0  0
 50 51  1  0  0  0
 50123  1  0  0  0
 50124  1  0  0  0
 51 52  1  0  0  0
 51125  1  0  0  0
 51126  1  0  0  0
 52127  1  0  0  0
 52128  1  0  0  0
 53 54  1  0  0  0
 54 55  2  0  0  0
 54129  1  0  0  0
 55 57  1  0  0  0
 55130  1  0  0  0
 56 69  2  0  0  0
 57 58  2  0  0  0
 57131  1  0  0  0
 58132  1  0  0  0
 59 60  1  0  0  0
 59 61  1  0  0  0
 59 62  1  0  0  0
 60133  1  0  0  0
 60134  1  0  0  0
 60135  1  0  0  0
 61136  1  0  0  0
 61137  1  0  0  0
 61138  1  0  0  0
 62139  1  0  0  0
 62140  1  0  0  0
 62141  1  0  0  0
 63 65  1  0  0  0
 63142  1  0  0  0
 63143  1  0  0  0
 63144  1  0  0  0
 64145  1  0  0  0
 65146  1  0  0  0
 68 84  1  0  0  0
 71 72  2  0  0  0
 71 74  1  0  0  0
 71147  1  0  0  0
 72 73  1  0  0  0
 72 80  1  0  0  0
 73 75  2  0  0  0
 73 76  1  0  0  0
 74 84  1  0  0  0
 74 86  2  0  0  0
 75 81  1  0  0  0
 75 86  1  0  0  0
 76148  1  0  0  0
 76149  1  0  0  0
 76150  1  0  0  0
 77 82  1  0  0  0
 77151  1  0  0  0
 77152  1  0  0  0
 77153  1  0  0  0
 78154  1  0  0  0
 78155  1  0  0  0
 78156  1  0  0  0
 78 85  1  0  0  0
 79 85  1  0  0  0
 79157  1  0  0  0
 79158  1  0  0  0
 79159  1  0  0  0
 80 83  1  0  0  0
 80160  1  0  0  0
 80161  1  0  0  0
 81 87  1  0  0  0
 81162  1  0  0  0
 81163  1  0  0  0
 82164  1  0  0  0
 82165  1  0  0  0
 82 84  1  0  0  0
 83 85  1  0  0  0
 83166  1  0  0  0
 83167  1  0  0  0
 84168  1  0  0  0
 85169  1  0  0  0
 87170  1  0  0  0
M  ISO  4   1 100  68 101  84 101  87 100
M  END
> <chiral flag>
0

> <version>
0

> <s_m_source_file>
/data/baiqing/PycharmProjects/Reinvent-master-3.2/result/LINK_invent/BTK/process_docking_weight1_custom_sum_contain_oxygen_bond_distance_aromatic_linkinvent_7_9_3/rearranged_h_0100.sdf

> <i_m_source_file_index>
59

> <r_mmod_Potential_Energy-OPLS-2005>
1388.888671875

> <r_mmod_Stretch_Energy-OPLS-2005>
704.118896484375

> <r_mmod_Bend_Energy-OPLS-2005>
500.759216308594

> <r_mmod_Torsional_Energy-OPLS-2005>
255.276077270508

> <r_mmod_Improper_Torsional_Energy-OPLS-2005>
7.44413566589355

> <r_mmod_Van_der_Waal_Energy-OPLS-2005>
124.587455749512

> <r_mmod_Electrostatic_Energy-OPLS-2005>
-569.374328613281

> <r_mmod_Solvation_Energy-OPLS-2005>
-223.323791503906

> <b_mmod_Minimization_Converged-OPLS-2005>
0

> <r_mmod_RMS_Derivative-OPLS-2005>
1.89209079742432

$$$$
59
                    3D
 Structure written by MMmdl.
196204  0  0  1  0            999 V2000
  -30.7636  -14.3681   20.6856 C   0  0  0  0  0  0
  -30.4252  -12.2973   19.3786 C   0  0  0  0  0  0
  -29.4814  -12.5136   18.1818 C   0  0  0  0  0  0
  -28.0065  -12.3743   18.6065 C   0  0  0  0  0  0
  -27.6677  -13.1993   19.8760 C   0  0  2  0  0  0
  -28.7086  -12.9334   20.9834 C   0  0  0  0  0  0
  -25.2627  -13.8152   20.5669 C   0  0  0  0  0  0
  -24.1855  -13.0427   20.9136 C   0  0  0  0  0  0
  -24.6394  -11.6898   20.8707 C   0  0  0  0  0  0
  -23.9046  -10.4287   21.0386 C   0  0  0  0  0  0
  -24.3596   -9.4212   21.9168 C   0  0  0  0  0  0
  -23.6274   -8.2246   22.0755 C   0  0  0  0  0  0
  -22.4260   -8.0269   21.3542 C   0  0  0  0  0  0
  -21.9887   -9.0235   20.4646 C   0  0  0  0  0  0
  -22.7209  -10.2122   20.3042 C   0  0  0  0  0  0
  -21.6850   -6.0721   22.5273 C   0  0  0  0  0  0
  -21.4014   -6.5630   23.8211 C   0  0  0  0  0  0
  -21.3660   -5.6790   24.9174 C   0  0  0  0  0  0
  -21.6040   -4.3047   24.7236 C   0  0  0  0  0  0
  -21.8818   -3.8134   23.4355 C   0  0  0  0  0  0
  -21.9195   -4.6947   22.3410 C   0  0  0  0  0  0
  -22.7880  -13.5239   21.1804 C   0  0  0  0  0  0
  -22.1657   -4.2126   21.0985 F   0  0  0  0  0  0
  -21.5629   -3.4537   25.7754 F   0  0  0  0  0  0
  -30.0490  -13.2354   20.4453 N   0  0  0  0  0  0
  -26.3062  -12.9311   20.3375 N   0  0  0  0  0  0
  -25.9320  -11.6476   20.5743 N   0  0  0  0  0  0
  -22.0534  -12.8235   22.0388 N   0  0  0  0  0  0
  -25.4358  -15.1863   20.4081 N   0  0  0  0  0  0
  -31.7656  -14.6934   20.0406 O   0  0  0  0  0  0
  -21.6630   -6.8861   21.4239 O   0  0  0  0  0  0
  -22.3566  -14.5540   20.6665 O   0  0  0  0  0  0
  -24.6167  -31.8672   23.2103 C   0  0  0  0  0  0
  -25.9051  -32.4830   23.8396 C   0  0  1  0  0  0
  -27.2295  -27.4138   20.0966 C   0  0  0  0  0  0
  -25.5890  -33.8628   24.2319 N   0  0  0  0  0  0
  -23.4070  -30.4930   21.5517 C   0  0  2  0  0  0
  -24.8528  -28.9655   20.1105 C   0  0  0  0  0  0
  -22.7445  -29.4638   22.4975 C   0  0  0  0  0  0
  -18.0278  -28.1364   22.8483 C   0  0  0  0  0  0
  -24.1491  -36.7344   23.2629 C   0  0  0  0  0  0
  -25.9400  -30.8285   21.3682 C   0  0  0  0  0  0
  -26.0168  -29.4649   20.7082 C   0  0  0  0  0  0
  -27.2108  -28.7002   20.6923 C   0  0  0  0  0  0
  -26.0449  -26.9492   19.4760 C   0  0  0  0  0  0
  -24.8641  -27.7101   19.4875 C   0  0  0  0  0  0
  -23.6164  -29.8326   20.1637 C   0  0  0  0  0  0
  -25.4112  -36.3118   24.0313 C   0  0  1  0  0  0
  -20.5884  -28.3645   23.1313 C   0  0  2  0  0  0
  -20.6779  -26.9383   22.5415 C   0  0  0  0  0  0
  -19.5747  -26.6366   21.5214 C   0  0  0  0  0  0
  -18.1924  -26.7912   22.1622 C   0  0  0  0  0  0
  -19.1539  -28.8821   23.2890 C   0  0  0  0  0  0
  -18.9461  -30.1434   23.8872 C   0  0  0  0  0  0
  -17.6461  -30.6566   24.0549 C   0  0  0  0  0  0
  -25.9031  -34.9479   23.5118 C   0  0  0  0  0  0
  -16.5350  -29.9070   23.6305 C   0  0  0  0  0  0
  -16.7270  -28.6501   23.0314 C   0  0  0  0  0  0
  -26.4458  -31.6612   25.0726 C   0  0  0  0  0  0
  -25.3695  -31.3734   26.1456 C   0  0  0  0  0  0
  -27.0290  -30.3047   24.6114 C   0  0  0  0  0  0
  -27.6016  -32.4357   25.7484 C   0  0  0  0  0  0
  -27.5604  -37.1821   24.8449 C   0  0  0  0  0  0
  -21.4169  -29.3021   22.3723 N   0  0  0  0  0  0
  -26.4315  -37.3800   23.9388 N   0  0  0  0  0  0
  -24.6729  -31.0768   22.1021 N   0  0  0  0  0  0
  -23.4212  -28.8162   23.3013 O   0  0  0  0  0  0
  -28.3722  -26.6295   20.1264 O   0  0  0  0  0  0
  -26.5602  -34.8923   22.4688 O   0  0  0  0  0  0
  -23.5349  -32.1448   23.7479 O   0  0  0  0  0  0
  -27.9402  -20.3098   22.5943 C   0  0  0  0  0  0
  -27.8493  -19.6357   23.8416 C   0  0  0  0  0  0
  -28.9323  -19.7680   21.8358 C   0  0  0  0  0  0
  -28.7978  -18.6374   23.7962 C   0  0  0  0  0  0
  -28.7144  -21.3812   26.2027 C   0  0  0  0  0  0
  -32.5499  -17.0457   26.7976 C   0  0  0  0  0  0
  -30.3260  -17.2651   27.9698 C   0  0  0  0  0  0
  -30.4627  -24.7808   21.4691 C   0  0  0  0  0  0
  -25.8621  -18.8588   25.1649 C   0  0  0  0  0  0
  -26.0488  -21.2550   24.5795 C   0  0  0  0  0  0
  -31.1939  -14.8024   23.0097 C   0  0  0  0  0  0
  -29.4209  -20.2713   20.4966 C   0  0  0  0  0  0
  -29.2277  -17.6690   24.8731 C   0  0  0  0  0  0
  -27.6173  -20.3056   26.2961 C   0  0  0  0  0  0
  -29.9664  -21.7315   20.4780 C   0  0  0  0  0  0
  -30.5727  -18.0315   25.5389 C   0  0  0  0  0  0
  -28.9436  -22.8528   20.8076 C   0  0  0  0  0  0
  -30.2748  -17.5733   22.0131 C   0  0  0  0  0  0
  -29.5378  -16.2268   21.7578 C   0  0  0  0  0  0
  -28.1427  -25.2495   20.4943 C   0  0  0  0  0  0
  -31.0238  -17.0255   26.6211 C   0  0  0  0  0  0
  -29.3809  -24.3121   20.4830 C   0  0  1  0  0  0
  -26.8749  -20.0058   24.9662 C   0  0  0  0  0  0
  -29.3657  -18.6212   22.5117 N   0  0  0  0  0  0
  -30.4087  -15.0368   21.7977 N   0  0  0  0  0  0
  -31.4636  -12.4176   19.0625 H   0  0  0  0  0  0
  -30.3486  -11.2736   19.7457 H   0  0  0  0  0  0
  -29.7073  -11.7971   17.3903 H   0  0  0  0  0  0
  -29.6499  -13.5037   17.7549 H   0  0  0  0  0  0
  -27.8142  -11.3174   18.7924 H   0  0  0  0  0  0
  -27.3484  -12.6613   17.7859 H   0  0  0  0  0  0
  -27.7272  -14.2526   19.6025 H   0  0  0  0  0  0
  -28.6764  -11.8861   21.2894 H   0  0  0  0  0  0
  -28.4592  -13.5014   21.8804 H   0  0  0  0  0  0
  -25.2748   -9.5689   22.4736 H   0  0  0  0  0  0
  -23.9972   -7.4658   22.7498 H   0  0  0  0  0  0
  -21.0808   -8.8743   19.8976 H   0  0  0  0  0  0
  -22.3648  -10.9642   19.6141 H   0  0  0  0  0  0
  -21.2004   -7.6142   23.9705 H   0  0  0  0  0  0
  -21.1481   -6.0523   25.9080 H   0  0  0  0  0  0
  -22.0599   -2.7591   23.2873 H   0  0  0  0  0  0
  -22.4148  -11.9872   22.4734 H   0  0  0  0  0  0
  -21.1174  -13.1298   22.2645 H   0  0  0  0  0  0
  -24.6774  -15.8475   20.5372 H   0  0  0  0  0  0
  -26.2987  -15.6282   20.1157 H   0  0  0  0  0  0
  -26.7126  -32.5531   23.1168 H   0  0  0  0  0  0
  -24.9988  -33.9796   25.0425 H   0  0  0  0  0  0
  -22.6937  -31.3085   21.4167 H   0  0  0  0  0  0
  -23.3745  -35.9693   23.3286 H   0  0  0  0  0  0
  -24.3579  -36.8983   22.2052 H   0  0  0  0  0  0
  -23.7283  -37.6545   23.6669 H   0  0  0  0  0  0
  -26.0624  -31.5969   20.6047 H   0  0  0  0  0  0
  -26.8258  -30.8774   21.9902 H   0  0  0  0  0  0
  -28.1097  -29.0832   21.1550 H   0  0  0  0  0  0
  -26.0091  -26.0006   18.9619 H   0  0  0  0  0  0
  -23.9750  -27.3270   19.0083 H   0  0  0  0  0  0
  -23.7303  -30.6117   19.4101 H   0  0  0  0  0  0
  -22.7388  -29.2562   19.8636 H   0  0  0  0  0  0
  -25.1316  -36.1969   25.0814 H   0  0  0  0  0  0
  -20.9959  -28.3206   24.1444 H   0  0  0  0  0  0
  -20.5703  -26.2246   23.3607 H   0  0  0  0  0  0
  -21.6647  -26.7437   22.1193 H   0  0  0  0  0  0
  -19.6897  -25.6276   21.1243 H   0  0  0  0  0  0
  -19.6684  -27.3159   20.6731 H   0  0  0  0  0  0
  -17.4208  -26.6647   21.4012 H   0  0  0  0  0  0
  -18.0308  -26.0058   22.9019 H   0  0  0  0  0  0
  -19.7935  -30.7256   24.2244 H   0  0  0  0  0  0
  -17.5011  -31.6240   24.5165 H   0  0  0  0  0  0
  -15.5348  -30.2962   23.7636 H   0  0  0  0  0  0
  -15.8677  -28.0827   22.6999 H   0  0  0  0  0  0
  -24.5831  -30.7132   25.7779 H   0  0  0  0  0  0
  -24.8916  -32.2902   26.4920 H   0  0  0  0  0  0
  -25.8009  -30.8867   27.0212 H   0  0  0  0  0  0
  -26.2839  -29.6809   24.1151 H   0  0  0  0  0  0
  -27.4040  -29.7285   25.4579 H   0  0  0  0  0  0
  -27.8690  -30.4373   23.9287 H   0  0  0  0  0  0
  -27.2616  -33.3655   26.2065 H   0  0  0  0  0  0
  -28.3800  -32.6941   25.0289 H   0  0  0  0  0  0
  -28.0704  -31.8491   26.5394 H   0  0  0  0  0  0
  -28.2596  -38.0144   24.7542 H   0  0  0  0  0  0
  -28.1142  -36.2683   24.6243 H   0  0  0  0  0  0
  -27.2315  -37.1423   25.8847 H   0  0  0  0  0  0
  -20.9323  -29.8801   21.6995 H   0  0  0  0  0  0
  -26.0196  -38.2879   24.1385 H   0  0  0  0  0  0
  -27.3454  -21.1554   22.2859 H   0  0  0  0  0  0
  -29.2743  -21.4410   27.1356 H   0  0  0  0  0  0
  -28.2934  -22.3677   26.0123 H   0  0  0  0  0  0
  -29.4299  -21.1668   25.4081 H   0  0  0  0  0  0
  -32.8701  -16.3288   27.5543 H   0  0  0  0  0  0
  -32.9079  -18.0305   27.1001 H   0  0  0  0  0  0
  -33.0556  -16.7790   25.8689 H   0  0  0  0  0  0
  -30.6448  -16.5273   28.7079 H   0  0  0  0  0  0
  -29.2418  -17.1879   27.8854 H   0  0  0  0  0  0
  -30.5594  -18.2520   28.3734 H   0  0  0  0  0  0
  -31.3470  -24.1453   21.4174 H   0  0  0  0  0  0
  -30.1005  -24.7552   22.4975 H   0  0  0  0  0  0
  -30.7790  -25.8012   21.2542 H   0  0  0  0  0  0
  -25.3015  -18.6724   24.2476 H   0  0  0  0  0  0
  -25.1382  -19.1008   25.9433 H   0  0  0  0  0  0
  -26.3341  -17.9195   25.4437 H   0  0  0  0  0  0
  -25.4408  -21.0717   23.6925 H   0  0  0  0  0  0
  -26.6825  -22.1153   24.3634 H   0  0  0  0  0  0
  -25.3673  -21.5474   25.3783 H   0  0  0  0  0  0
  -30.7388  -15.2466   23.8893 H   0  0  0  0  0  0
  -32.1973  -15.2155   22.8984 H   0  0  0  0  0  0
  -31.2889  -13.7328   23.2073 H   0  0  0  0  0  0
  -28.6030  -20.1954   19.7785 H   0  0  0  0  0  0
  -30.2013  -19.6295   20.0961 H   0  0  0  0  0  0
  -29.2756  -16.6635   24.4756 H   0  0  0  0  0  0
  -28.4665  -17.5852   25.6416 H   0  0  0  0  0  0
  -26.8973  -20.6026   27.0590 H   0  0  0  0  0  0
  -28.0733  -19.4006   26.6891 H   0  0  0  0  0  0
  -30.3588  -21.9181   19.4786 H   0  0  0  0  0  0
  -30.8198  -21.8021   21.1504 H   0  0  0  0  0  0
  -30.5247  -19.0356   25.9615 H   0  0  0  0  0  0
  -31.3422  -18.0912   24.7705 H   0  0  0  0  0  0
  -28.6905  -22.8129   21.8675 H   0  0  0  0  0  0
  -28.0204  -22.6299   20.2718 H   0  0  0  0  0  0
  -30.7775  -17.8912   21.1041 H   0  0  0  0  0  0
  -31.0749  -17.4477   22.7375 H   0  0  0  0  0  0
  -29.0214  -16.2866   20.7982 H   0  0  0  0  0  0
  -28.7379  -16.0653   22.4782 H   0  0  0  0  0  0
  -27.6838  -25.2288   21.4841 H   0  0  0  0  0  0
  -27.4264  -24.7872   19.8190 H   0  0  0  0  0  0
  -30.7611  -16.0202   26.2854 H   0  0  0  0  0  0
  -29.7963  -24.3311   19.4736 H   0  0  0  0  0  0
  1 25  1  0  0  0
  1 30  2  0  0  0
  1 95  1  0  0  0
  2  3  1  0  0  0
  2 25  1  0  0  0
  2 96  1  0  0  0
  2 97  1  0  0  0
  3  4  1  0  0  0
  3 98  1  0  0  0
  3 99  1  0  0  0
  4  5  1  0  0  0
  4100  1  0  0  0
  4101  1  0  0  0
  5  6  1  0  0  0
  5 26  1  0  0  0
  5102  1  0  0  0
  6 25  1  0  0  0
  6103  1  0  0  0
  6104  1  0  0  0
  7  8  2  0  0  0
  7 26  1  0  0  0
  7 29  1  0  0  0
  8  9  1  0  0  0
  8 22  1  0  0  0
  9 10  1  0  0  0
  9 27  2  0  0  0
 10 11  2  0  0  0
 10 15  1  0  0  0
 11 12  1  0  0  0
 11105  1  0  0  0
 12 13  2  0  0  0
 12106  1  0  0  0
 13 14  1  0  0  0
 13 31  1  0  0  0
 14 15  2  0  0  0
 14107  1  0  0  0
 15108  1  0  0  0
 16 17  2  0  0  0
 16 21  1  0  0  0
 16 31  1  0  0  0
 17 18  1  0  0  0
 17109  1  0  0  0
 18 19  2  0  0  0
 18110  1  0  0  0
 19 20  1  0  0  0
 19 24  1  0  0  0
 20 21  2  0  0  0
 20111  1  0  0  0
 21 23  1  0  0  0
 22 28  1  0  0  0
 22 32  2  0  0  0
 26 27  1  0  0  0
 28112  1  0  0  0
 28113  1  0  0  0
 29114  1  0  0  0
 29115  1  0  0  0
 33 34  1  0  0  0
 33 66  1  0  0  0
 33 70  2  0  0  0
 34 36  1  0  0  0
 34 59  1  0  0  0
 34116  1  0  0  0
 35 44  2  0  0  0
 35 45  1  0  0  0
 35 68  1  0  0  0
 36 56  1  0  0  0
 36117  1  0  0  0
 37 39  1  0  0  0
 37 47  1  0  0  0
 37 66  1  0  0  0
 37118  1  0  0  0
 38 43  2  0  0  0
 38 46  1  0  0  0
 38 47  1  0  0  0
 39 64  1  0  0  0
 39 67  2  0  0  0
 40 52  1  0  0  0
 40 53  2  0  0  0
 40 58  1  0  0  0
 41119  1  0  0  0
 41120  1  0  0  0
 41121  1  0  0  0
 41 48  1  0  0  0
 42 43  1  0  0  0
 42 66  1  0  0  0
 42122  1  0  0  0
 42123  1  0  0  0
 43 44  1  0  0  0
 44124  1  0  0  0
 45 46  2  0  0  0
 45125  1  0  0  0
 46126  1  0  0  0
 47127  1  0  0  0
 47128  1  0  0  0
 48 56  1  0  0  0
 48 65  1  0  0  0
 48129  1  0  0  0
 49 50  1  0  0  0
 49 53  1  0  0  0
 49 64  1  0  0  0
 49130  1  0  0  0
 50 51  1  0  0  0
 50131  1  0  0  0
 50132  1  0  0  0
 51 52  1  0  0  0
 51133  1  0  0  0
 51134  1  0  0  0
 52135  1  0  0  0
 52136  1  0  0  0
 53 54  1  0  0  0
 54 55  2  0  0  0
 54137  1  0  0  0
 55 57  1  0  0  0
 55138  1  0  0  0
 56 69  2  0  0  0
 57 58  2  0  0  0
 57139  1  0  0  0
 58140  1  0  0  0
 59 60  1  0  0  0
 59 61  1  0  0  0
 59 62  1  0  0  0
 60141  1  0  0  0
 60142  1  0  0  0
 60143  1  0  0  0
 61144  1  0  0  0
 61145  1  0  0  0
 61146  1  0  0  0
 62147  1  0  0  0
 62148  1  0  0  0
 62149  1  0  0  0
 63 65  1  0  0  0
 63150  1  0  0  0
 63151  1  0  0  0
 63152  1  0  0  0
 64153  1  0  0  0
 65154  1  0  0  0
 68 90  1  0  0  0
 71 72  1  0  0  0
 71 73  2  0  0  0
 71155  1  0  0  0
 72 74  2  0  0  0
 72 93  1  0  0  0
 73 82  1  0  0  0
 73 94  1  0  0  0
 74 83  1  0  0  0
 74 94  1  0  0  0
 75 84  1  0  0  0
 75156  1  0  0  0
 75157  1  0  0  0
 75158  1  0  0  0
 76159  1  0  0  0
 76160  1  0  0  0
 76161  1  0  0  0
 76 91  1  0  0  0
 77 91  1  0  0  0
 77162  1  0  0  0
 77163  1  0  0  0
 77164  1  0  0  0
 78165  1  0  0  0
 78166  1  0  0  0
 78167  1  0  0  0
 78 92  1  0  0  0
 79168  1  0  0  0
 79169  1  0  0  0
 79170  1  0  0  0
 79 93  1  0  0  0
 80 93  1  0  0  0
 80171  1  0  0  0
 80172  1  0  0  0
 80173  1  0  0  0
 81 95  1  0  0  0
 81174  1  0  0  0
 81175  1  0  0  0
 81176  1  0  0  0
 82 85  1  0  0  0
 82177  1  0  0  0
 82178  1  0  0  0
 83 86  1  0  0  0
 83179  1  0  0  0
 83180  1  0  0  0
 84 93  1  0  0  0
 84181  1  0  0  0
 84182  1  0  0  0
 85 87  1  0  0  0
 85183  1  0  0  0
 85184  1  0  0  0
 86 91  1  0  0  0
 86185  1  0  0  0
 86186  1  0  0  0
 87 92  1  0  0  0
 87187  1  0  0  0
 87188  1  0  0  0
 88 89  1  0  0  0
 88 94  1  0  0  0
 88189  1  0  0  0
 88190  1  0  0  0
 89 95  1  0  0  0
 89191  1  0  0  0
 89192  1  0  0  0
 90 92  1  0  0  0
 90193  1  0  0  0
 90194  1  0  0  0
 91195  1  0  0  0
 92196  1  0  0  0
M  ISO  4   1 100  68 101  90 101  95 100
M  END
> <chiral flag>
0

> <version>
0

> <s_m_source_file>
/data/baiqing/PycharmProjects/Reinvent-master-3.2/result/LINK_invent/BTK/process_docking_weight1_custom_sum_contain_oxygen_bond_distance_aromatic_linkinvent_7_9_3/rearranged_h_0100.sdf

> <i_m_source_file_index>
60

> <r_mmod_Potential_Energy-OPLS-2005>
129.673492431641

> <r_mmod_Stretch_Energy-OPLS-2005>
46.0737228393555

> <r_mmod_Bend_Energy-OPLS-2005>
117.94637298584

> <r_mmod_Torsional_Energy-OPLS-2005>
354.692687988281

> <r_mmod_Improper_Torsional_Energy-OPLS-2005>
4.11144399642944

> <r_mmod_Van_der_Waal_Energy-OPLS-2005>
129.163986206055

> <r_mmod_Electrostatic_Energy-OPLS-2005>
-366.244842529297

> <r_mmod_Solvation_Energy-OPLS-2005>
-167.468185424805

> <b_mmod_Minimization_Converged-OPLS-2005>
0

> <r_mmod_RMS_Derivative-OPLS-2005>
2.52623128890991

$$$$
60
                    3D
 Structure written by MMmdl.
168176  0  0  1  0            999 V2000
  -30.5895  -14.9983   20.4246 C   0  0  0  0  0  0
  -30.4166  -12.6285   19.5155 C   0  0  0  0  0  0
  -29.5137  -12.5367   18.2667 C   0  0  0  0  0  0
  -28.0525  -12.3142   18.6872 C   0  0  0  0  0  0
  -27.6193  -13.2644   19.8339 C   0  0  2  0  0  0
  -28.6570  -13.3554   20.9736 C   0  0  0  0  0  0
  -25.2422  -13.8249   20.5760 C   0  0  0  0  0  0
  -24.1752  -13.0446   20.9239 C   0  0  0  0  0  0
  -24.6389  -11.6940   20.8755 C   0  0  0  0  0  0
  -23.9085  -10.4300   21.0399 C   0  0  0  0  0  0
  -24.3632   -9.4214   21.9177 C   0  0  0  0  0  0
  -23.6307   -8.2246   22.0749 C   0  0  0  0  0  0
  -22.4288   -8.0281   21.3541 C   0  0  0  0  0  0
  -21.9924   -9.0253   20.4642 C   0  0  0  0  0  0
  -22.7253  -10.2134   20.3050 C   0  0  0  0  0  0
  -21.6859   -6.0740   22.5278 C   0  0  0  0  0  0
  -21.4019   -6.5642   23.8210 C   0  0  0  0  0  0
  -21.3657   -5.6796   24.9172 C   0  0  0  0  0  0
  -21.6044   -4.3058   24.7225 C   0  0  0  0  0  0
  -21.8819   -3.8151   23.4345 C   0  0  0  0  0  0
  -21.9199   -4.6969   22.3403 C   0  0  0  0  0  0
  -22.7776  -13.5204   21.1888 C   0  0  0  0  0  0
  -22.1666   -4.2154   21.0981 F   0  0  0  0  0  0
  -21.5627   -3.4542   25.7734 F   0  0  0  0  0  0
  -29.9267  -13.7645   20.3644 N   0  0  0  0  0  0
  -26.2843  -12.9510   20.3263 N   0  0  0  0  0  0
  -25.9329  -11.6622   20.5752 N   0  0  0  0  0  0
  -22.0441  -12.8175   22.0441 N   0  0  0  0  0  0
  -25.4105  -15.1981   20.4227 N   0  0  0  0  0  0
  -31.7884  -14.9421   20.1238 O   0  0  0  0  0  0
  -21.6651   -6.8881   21.4240 O   0  0  0  0  0  0
  -22.3449  -14.5508   20.6737 O   0  0  0  0  0  0
  -24.6456  -31.8389   23.1836 C   0  0  0  0  0  0
  -25.9210  -32.4662   23.8241 C   0  0  1  0  0  0
  -27.2063  -27.0933   20.1563 C   0  0  0  0  0  0
  -25.5938  -33.8477   24.2146 N   0  0  0  0  0  0
  -23.4509  -30.4589   21.5284 C   0  0  2  0  0  0
  -24.8999  -28.8810   20.1033 C   0  0  0  0  0  0
  -22.7584  -29.4517   22.4813 C   0  0  0  0  0  0
  -18.0305  -28.1404   22.8460 C   0  0  0  0  0  0
  -24.1495  -36.7267   23.2644 C   0  0  0  0  0  0
  -26.0102  -30.6996   21.3883 C   0  0  0  0  0  0
  -26.0777  -29.3079   20.7295 C   0  0  0  0  0  0
  -27.2307  -28.4307   20.7376 C   0  0  0  0  0  0
  -26.0055  -26.7802   19.4828 C   0  0  0  0  0  0
  -24.8803  -27.6329   19.4622 C   0  0  0  0  0  0
  -23.6783  -29.7876   20.1471 C   0  0  0  0  0  0
  -25.4125  -36.3012   24.0299 C   0  0  1  0  0  0
  -20.5923  -28.3726   23.1226 C   0  0  2  0  0  0
  -20.6780  -26.9420   22.5408 C   0  0  0  0  0  0
  -19.5758  -26.6378   21.5217 C   0  0  0  0  0  0
  -18.1937  -26.7936   22.1621 C   0  0  0  0  0  0
  -19.1563  -28.8882   23.2836 C   0  0  0  0  0  0
  -18.9478  -30.1479   23.8865 C   0  0  0  0  0  0
  -17.6474  -30.6589   24.0564 C   0  0  0  0  0  0
  -25.9081  -34.9391   23.5038 C   0  0  0  0  0  0
  -16.5365  -29.9085   23.6344 C   0  0  0  0  0  0
  -16.7290  -28.6514   23.0339 C   0  0  0  0  0  0
  -26.4521  -31.6543   25.0703 C   0  0  0  0  0  0
  -25.3688  -31.3751   26.1383 C   0  0  0  0  0  0
  -27.0376  -30.2921   24.6318 C   0  0  0  0  0  0
  -27.6050  -32.4317   25.7470 C   0  0  0  0  0  0
  -27.5572  -37.1782   24.8459 C   0  0  0  0  0  0
  -21.4263  -29.3048   22.3591 N   0  0  0  0  0  0
  -26.4278  -37.3726   23.9407 N   0  0  0  0  0  0
  -24.7225  -31.0217   22.0880 N   0  0  0  0  0  0
  -23.4220  -28.8049   23.2960 O   0  0  0  0  0  0
  -28.2385  -26.0774   20.2459 O   0  0  0  0  0  0
  -26.5694  -34.8893   22.4636 O   0  0  0  0  0  0
  -23.5569  -32.1289   23.7031 O   0  0  0  0  0  0
  -31.2959  -19.3572   17.5060 C   0  0  0  0  0  0
  -30.2467  -21.2110   18.5805 C   0  0  0  0  0  0
  -31.1050  -20.7289   17.5956 C   0  0  0  0  0  0
  -30.6353  -18.4690   18.3701 C   0  0  0  0  0  0
  -29.5844  -20.4170   19.5512 C   0  0  0  0  0  0
  -29.8312  -18.8888   19.4907 C   0  0  0  0  0  0
  -30.7898  -17.0236   17.9183 C   0  0  0  0  0  0
  -31.1441  -21.4781   15.1830 C   0  0  0  0  0  0
  -33.2675  -21.5830   16.5747 C   0  0  0  0  0  0
  -30.8014  -16.7723   22.0244 C   0  0  0  0  0  0
  -28.6484  -21.4907   20.3921 C   0  0  0  0  0  0
  -29.2503  -17.5565   20.3059 C   0  0  0  0  0  0
  -28.9191  -23.2019   20.5090 C   0  0  0  0  0  0
  -27.9689  -24.5378   20.0303 C   0  0  0  0  0  0
  -31.7357  -21.6821   16.5853 C   0  0  0  0  0  0
  -30.0449  -16.2655   20.8709 N   0  0  0  0  0  0
  -31.4542  -12.7511   19.2025 H   0  0  0  0  0  0
  -30.3958  -11.6936   20.0778 H   0  0  0  0  0  0
  -29.8451  -11.7262   17.6166 H   0  0  0  0  0  0
  -29.5963  -13.4552   17.6833 H   0  0  0  0  0  0
  -27.9613  -11.2779   19.0146 H   0  0  0  0  0  0
  -27.3873  -12.4218   17.8299 H   0  0  0  0  0  0
  -27.5647  -14.2546   19.3795 H   0  0  0  0  0  0
  -28.7559  -12.4045   21.4985 H   0  0  0  0  0  0
  -28.3440  -14.0923   21.7152 H   0  0  0  0  0  0
  -25.2775   -9.5697   22.4756 H   0  0  0  0  0  0
  -24.0020   -7.4641   22.7467 H   0  0  0  0  0  0
  -21.0857   -8.8765   19.8948 H   0  0  0  0  0  0
  -22.3699  -10.9672   19.6161 H   0  0  0  0  0  0
  -21.2009   -7.6149   23.9713 H   0  0  0  0  0  0
  -21.1478   -6.0526   25.9073 H   0  0  0  0  0  0
  -22.0602   -2.7616   23.2844 H   0  0  0  0  0  0
  -22.4088  -11.9846   22.4824 H   0  0  0  0  0  0
  -21.1045  -13.1165   22.2649 H   0  0  0  0  0  0
  -24.6462  -15.8536   20.5461 H   0  0  0  0  0  0
  -26.2668  -15.6403   20.1163 H   0  0  0  0  0  0
  -26.7263  -32.5240   23.0952 H   0  0  0  0  0  0
  -24.9999  -33.9596   25.0227 H   0  0  0  0  0  0
  -22.7549  -31.2857   21.3710 H   0  0  0  0  0  0
  -23.3743  -35.9616   23.3285 H   0  0  0  0  0  0
  -24.3592  -36.8943   22.2068 H   0  0  0  0  0  0
  -23.7273  -37.6460   23.6718 H   0  0  0  0  0  0
  -26.1715  -31.4489   20.6122 H   0  0  0  0  0  0
  -26.8805  -30.7504   22.0315 H   0  0  0  0  0  0
  -28.1243  -28.7486   21.2552 H   0  0  0  0  0  0
  -25.9025  -25.8265   18.9862 H   0  0  0  0  0  0
  -23.9839  -27.3047   18.9542 H   0  0  0  0  0  0
  -23.8151  -30.5623   19.3923 H   0  0  0  0  0  0
  -22.7931  -29.2309   19.8355 H   0  0  0  0  0  0
  -25.1309  -36.1827   25.0789 H   0  0  0  0  0  0
  -21.0018  -28.3320   24.1349 H   0  0  0  0  0  0
  -20.5666  -26.2338   23.3632 H   0  0  0  0  0  0
  -21.6641  -26.7408   22.1212 H   0  0  0  0  0  0
  -19.6922  -25.6287   21.1258 H   0  0  0  0  0  0
  -19.6704  -27.3177   20.6741 H   0  0  0  0  0  0
  -17.4206  -26.6683   21.4025 H   0  0  0  0  0  0
  -18.0329  -26.0092   22.9033 H   0  0  0  0  0  0
  -19.7955  -30.7301   24.2216 H   0  0  0  0  0  0
  -17.5026  -31.6262   24.5175 H   0  0  0  0  0  0
  -15.5365  -30.2972   23.7682 H   0  0  0  0  0  0
  -15.8690  -28.0830   22.7053 H   0  0  0  0  0  0
  -24.5893  -30.7056   25.7710 H   0  0  0  0  0  0
  -24.8828  -32.2929   26.4703 H   0  0  0  0  0  0
  -25.7946  -30.9001   27.0226 H   0  0  0  0  0  0
  -26.2983  -29.6629   24.1335 H   0  0  0  0  0  0
  -27.3968  -29.7238   25.4911 H   0  0  0  0  0  0
  -27.8908  -30.4126   23.9639 H   0  0  0  0  0  0
  -27.2654  -33.3659   26.1946 H   0  0  0  0  0  0
  -28.3891  -32.6807   25.0310 H   0  0  0  0  0  0
  -28.0669  -31.8500   26.5456 H   0  0  0  0  0  0
  -28.2560  -38.0100   24.7496 H   0  0  0  0  0  0
  -28.1086  -36.2624   24.6270 H   0  0  0  0  0  0
  -27.2306  -37.1415   25.8866 H   0  0  0  0  0  0
  -20.9469  -29.8798   21.6801 H   0  0  0  0  0  0
  -26.0138  -38.2794   24.1402 H   0  0  0  0  0  0
  -31.9103  -18.9744   16.7020 H   0  0  0  0  0  0
  -30.0663  -22.2701   18.5243 H   0  0  0  0  0  0
  -30.9012  -16.9723   16.8344 H   0  0  0  0  0  0
  -29.9285  -16.3943   18.1286 H   0  0  0  0  0  0
  -31.6994  -16.6000   18.3354 H   0  0  0  0  0  0
  -30.0620  -21.6140   15.1899 H   0  0  0  0  0  0
  -31.3503  -20.4790   14.7994 H   0  0  0  0  0  0
  -31.5585  -22.1955   14.4736 H   0  0  0  0  0  0
  -33.6800  -21.7988   17.5609 H   0  0  0  0  0  0
  -33.6964  -22.3024   15.8758 H   0  0  0  0  0  0
  -33.6105  -20.5922   16.2769 H   0  0  0  0  0  0
  -30.2352  -17.4940   22.6132 H   0  0  0  0  0  0
  -31.7142  -17.2672   21.6885 H   0  0  0  0  0  0
  -31.0843  -15.9749   22.7153 H   0  0  0  0  0  0
  -28.6386  -21.1066   21.4134 H   0  0  0  0  0  0
  -27.6257  -21.3486   20.0441 H   0  0  0  0  0  0
  -28.4657  -17.1459   19.6686 H   0  0  0  0  0  0
  -28.6766  -17.9656   21.1385 H   0  0  0  0  0  0
  -29.9468  -23.4216   20.2262 H   0  0  0  0  0  0
  -28.9778  -23.3494   21.5875 H   0  0  0  0  0  0
  -26.9842  -24.3517   20.4607 H   0  0  0  0  0  0
  -27.8269  -24.4302   18.9539 H   0  0  0  0  0  0
  -31.4900  -22.7020   16.8866 H   0  0  0  0  0  0
  1 25  1  0  0  0
  1 30  2  0  0  0
  1 86  1  0  0  0
  2  3  1  0  0  0
  2 25  1  0  0  0
  2 87  1  0  0  0
  2 88  1  0  0  0
  3  4  1  0  0  0
  3 89  1  0  0  0
  3 90  1  0  0  0
  4  5  1  0  0  0
  4 91  1  0  0  0
  4 92  1  0  0  0
  5  6  1  0  0  0
  5 26  1  0  0  0
  5 93  1  0  0  0
  6 25  1  0  0  0
  6 94  1  0  0  0
  6 95  1  0  0  0
  7  8  2  0  0  0
  7 26  1  0  0  0
  7 29  1  0  0  0
  8  9  1  0  0  0
  8 22  1  0  0  0
  9 10  1  0  0  0
  9 27  2  0  0  0
 10 11  2  0  0  0
 10 15  1  0  0  0
 11 12  1  0  0  0
 11 96  1  0  0  0
 12 13  2  0  0  0
 12 97  1  0  0  0
 13 14  1  0  0  0
 13 31  1  0  0  0
 14 15  2  0  0  0
 14 98  1  0  0  0
 15 99  1  0  0  0
 16 17  2  0  0  0
 16 21  1  0  0  0
 16 31  1  0  0  0
 17 18  1  0  0  0
 17100  1  0  0  0
 18 19  2  0  0  0
 18101  1  0  0  0
 19 20  1  0  0  0
 19 24  1  0  0  0
 20 21  2  0  0  0
 20102  1  0  0  0
 21 23  1  0  0  0
 22 28  1  0  0  0
 22 32  2  0  0  0
 26 27  1  0  0  0
 28103  1  0  0  0
 28104  1  0  0  0
 29105  1  0  0  0
 29106  1  0  0  0
 33 34  1  0  0  0
 33 66  1  0  0  0
 33 70  2  0  0  0
 34 36  1  0  0  0
 34 59  1  0  0  0
 34107  1  0  0  0
 35 44  2  0  0  0
 35 45  1  0  0  0
 35 68  1  0  0  0
 36 56  1  0  0  0
 36108  1  0  0  0
 37 39  1  0  0  0
 37 47  1  0  0  0
 37 66  1  0  0  0
 37109  1  0  0  0
 38 43  2  0  0  0
 38 46  1  0  0  0
 38 47  1  0  0  0
 39 64  1  0  0  0
 39 67  2  0  0  0
 40 52  1  0  0  0
 40 53  2  0  0  0
 40 58  1  0  0  0
 41110  1  0  0  0
 41111  1  0  0  0
 41112  1  0  0  0
 41 48  1  0  0  0
 42 43  1  0  0  0
 42 66  1  0  0  0
 42113  1  0  0  0
 42114  1  0  0  0
 43 44  1  0  0  0
 44115  1  0  0  0
 45 46  2  0  0  0
 45116  1  0  0  0
 46117  1  0  0  0
 47118  1  0  0  0
 47119  1  0  0  0
 48 56  1  0  0  0
 48 65  1  0  0  0
 48120  1  0  0  0
 49 50  1  0  0  0
 49 53  1  0  0  0
 49 64  1  0  0  0
 49121  1  0  0  0
 50 51  1  0  0  0
 50122  1  0  0  0
 50123  1  0  0  0
 51 52  1  0  0  0
 51124  1  0  0  0
 51125  1  0  0  0
 52126  1  0  0  0
 52127  1  0  0  0
 53 54  1  0  0  0
 54 55  2  0  0  0
 54128  1  0  0  0
 55 57  1  0  0  0
 55129  1  0  0  0
 56 69  2  0  0  0
 57 58  2  0  0  0
 57130  1  0  0  0
 58131  1  0  0  0
 59 60  1  0  0  0
 59 61  1  0  0  0
 59 62  1  0  0  0
 60132  1  0  0  0
 60133  1  0  0  0
 60134  1  0  0  0
 61135  1  0  0  0
 61136  1  0  0  0
 61137  1  0  0  0
 62138  1  0  0  0
 62139  1  0  0  0
 62140  1  0  0  0
 63 65  1  0  0  0
 63141  1  0  0  0
 63142  1  0  0  0
 63143  1  0  0  0
 64144  1  0  0  0
 65145  1  0  0  0
 68 84  1  0  0  0
 71 73  2  0  0  0
 71 74  1  0  0  0
 71146  1  0  0  0
 72 73  1  0  0  0
 72 75  2  0  0  0
 72147  1  0  0  0
 73 85  1  0  0  0
 74 76  2  0  0  0
 74 77  1  0  0  0
 75 76  1  0  0  0
 75 81  1  0  0  0
 76 82  1  0  0  0
 77148  1  0  0  0
 77149  1  0  0  0
 77150  1  0  0  0
 78151  1  0  0  0
 78152  1  0  0  0
 78153  1  0  0  0
 78 85  1  0  0  0
 79 85  1  0  0  0
 79154  1  0  0  0
 79155  1  0  0  0
 79156  1  0  0  0
 80 86  1  0  0  0
 80157  1  0  0  0
 80158  1  0  0  0
 80159  1  0  0  0
 81 83  1  0  0  0
 81160  1  0  0  0
 81161  1  0  0  0
 82 86  1  0  0  0
 82162  1  0  0  0
 82163  1  0  0  0
 83 84  1  0  0  0
 83164  1  0  0  0
 83165  1  0  0  0
 84166  1  0  0  0
 84167  1  0  0  0
 85168  1  0  0  0
M  ISO  4   1 100  68 101  84 101  86 100
M  END
> <chiral flag>
0

> <version>
0

> <s_m_source_file>
/data/baiqing/PycharmProjects/Reinvent-master-3.2/result/LINK_invent/BTK/process_docking_weight1_custom_sum_contain_oxygen_bond_distance_aromatic_linkinvent_7_9_3/rearranged_h_0100.sdf

> <i_m_source_file_index>
61

> <r_mmod_Potential_Energy-OPLS-2005>
930.506774902344

> <r_mmod_Stretch_Energy-OPLS-2005>
367.871124267578

> <r_mmod_Bend_Energy-OPLS-2005>
415.433715820312

> <r_mmod_Torsional_Energy-OPLS-2005>
291.156799316406

> <r_mmod_Improper_Torsional_Energy-OPLS-2005>
5.16664934158325

> <r_mmod_Van_der_Waal_Energy-OPLS-2005>
153.872833251953

> <r_mmod_Electrostatic_Energy-OPLS-2005>
-342.227844238281

> <r_mmod_Solvation_Energy-OPLS-2005>
-191.581649780273

> <b_mmod_Minimization_Converged-OPLS-2005>
0

> <r_mmod_RMS_Derivative-OPLS-2005>
1.49258518218994

$$$$
61
                    3D
 Structure written by MMmdl.
175183  0  0  1  0            999 V2000
  -30.6302  -14.7312   20.4992 C   0  0  0  0  0  0
  -30.4305  -12.4615   19.4682 C   0  0  0  0  0  0
  -29.5077  -12.5173   18.2312 C   0  0  0  0  0  0
  -28.0331  -12.3409   18.6430 C   0  0  0  0  0  0
  -27.6394  -13.2335   19.8495 C   0  0  2  0  0  0
  -28.6845  -13.1625   20.9835 C   0  0  0  0  0  0
  -25.2502  -13.8190   20.5700 C   0  0  0  0  0  0
  -24.1797  -13.0429   20.9211 C   0  0  0  0  0  0
  -24.6378  -11.6904   20.8730 C   0  0  0  0  0  0
  -23.9038  -10.4290   21.0388 C   0  0  0  0  0  0
  -24.3599   -9.4217   21.9172 C   0  0  0  0  0  0
  -23.6299   -8.2242   22.0747 C   0  0  0  0  0  0
  -22.4280   -8.0273   21.3544 C   0  0  0  0  0  0
  -21.9899   -9.0225   20.4637 C   0  0  0  0  0  0
  -22.7201  -10.2122   20.3041 C   0  0  0  0  0  0
  -21.6854   -6.0732   22.5275 C   0  0  0  0  0  0
  -21.4008   -6.5639   23.8204 C   0  0  0  0  0  0
  -21.3673   -5.6797   24.9170 C   0  0  0  0  0  0
  -21.6049   -4.3055   24.7222 C   0  0  0  0  0  0
  -21.8822   -3.8146   23.4343 C   0  0  0  0  0  0
  -21.9193   -4.6959   22.3400 C   0  0  0  0  0  0
  -22.7828  -13.5207   21.1879 C   0  0  0  0  0  0
  -22.1654   -4.2146   21.0978 F   0  0  0  0  0  0
  -21.5637   -3.4540   25.7734 F   0  0  0  0  0  0
  -29.9857  -13.5190   20.4033 N   0  0  0  0  0  0
  -26.2916  -12.9387   20.3264 N   0  0  0  0  0  0
  -25.9306  -11.6519   20.5724 N   0  0  0  0  0  0
  -22.0482  -12.8197   22.0442 N   0  0  0  0  0  0
  -25.4194  -15.1919   20.4139 N   0  0  0  0  0  0
  -31.8232  -14.8141   20.1966 O   0  0  0  0  0  0
  -21.6650   -6.8870   21.4237 O   0  0  0  0  0  0
  -22.3510  -14.5509   20.6721 O   0  0  0  0  0  0
  -24.6318  -31.8558   23.2002 C   0  0  0  0  0  0
  -25.9139  -32.4771   23.8352 C   0  0  1  0  0  0
  -27.2178  -27.2665   20.1282 C   0  0  0  0  0  0
  -25.5919  -33.8567   24.2279 N   0  0  0  0  0  0
  -23.4292  -30.4803   21.5449 C   0  0  2  0  0  0
  -24.8745  -28.9345   20.1084 C   0  0  0  0  0  0
  -22.7522  -29.4595   22.4921 C   0  0  0  0  0  0
  -18.0304  -28.1382   22.8495 C   0  0  0  0  0  0
  -24.1483  -36.7290   23.2647 C   0  0  0  0  0  0
  -25.9761  -30.7715   21.3802 C   0  0  0  0  0  0
  -26.0477  -29.3966   20.7187 C   0  0  0  0  0  0
  -27.2232  -28.5772   20.7155 C   0  0  0  0  0  0
  -26.0197  -26.8778   19.4823 C   0  0  0  0  0  0
  -24.8666  -27.6837   19.4765 C   0  0  0  0  0  0
  -23.6449  -29.8199   20.1588 C   0  0  0  0  0  0
  -25.4112  -36.3092   24.0345 C   0  0  1  0  0  0
  -20.5907  -28.3689   23.1275 C   0  0  2  0  0  0
  -20.6785  -26.9406   22.5407 C   0  0  0  0  0  0
  -19.5750  -26.6373   21.5223 C   0  0  0  0  0  0
  -18.1935  -26.7923   22.1635 C   0  0  0  0  0  0
  -19.1556  -28.8854   23.2875 C   0  0  0  0  0  0
  -18.9473  -30.1460   23.8886 C   0  0  0  0  0  0
  -17.6469  -30.6576   24.0563 C   0  0  0  0  0  0
  -25.9055  -34.9457   23.5119 C   0  0  0  0  0  0
  -16.5362  -29.9077   23.6324 C   0  0  0  0  0  0
  -16.7291  -28.6494   23.0349 C   0  0  0  0  0  0
  -26.4487  -31.6597   25.0746 C   0  0  0  0  0  0
  -25.3695  -31.3743   26.1455 C   0  0  0  0  0  0
  -27.0341  -30.3022   24.6233 C   0  0  0  0  0  0
  -27.6049  -32.4331   25.7500 C   0  0  0  0  0  0
  -27.5585  -37.1804   24.8471 C   0  0  0  0  0  0
  -21.4228  -29.3039   22.3674 N   0  0  0  0  0  0
  -26.4295  -37.3786   23.9425 N   0  0  0  0  0  0
  -24.6988  -31.0528   22.0981 N   0  0  0  0  0  0
  -23.4231  -28.8142   23.3019 O   0  0  0  0  0  0
  -28.3051  -26.3591   20.2027 O   0  0  0  0  0  0
  -26.5630  -34.8924   22.4696 O   0  0  0  0  0  0
  -23.5465  -32.1369   23.7298 O   0  0  0  0  0  0
  -29.3788  -19.7956   21.0479 C   0  0  0  0  0  0
  -29.8031  -18.6367   20.3939 C   0  0  0  0  0  0
  -29.7335  -19.0056   19.0013 C   0  0  0  0  0  0
  -29.3006  -20.3276   18.8952 C   0  0  0  0  0  0
  -27.5465  -21.5580   15.6050 C   0  0  0  0  0  0
  -29.0855  -16.9751   17.6068 C   0  0  0  0  0  0
  -31.5556  -17.6581   17.8319 C   0  0  0  0  0  0
  -30.3686  -21.4569   16.8920 C   0  0  0  0  0  0
  -30.3062  -23.7691   19.5815 C   0  0  0  0  0  0
  -30.3598  -17.2904   21.0656 C   0  0  0  0  0  0
  -27.9243  -20.6346   16.7719 C   0  0  0  0  0  0
  -28.3725  -22.1912   20.5105 C   0  0  0  0  0  0
  -28.0100  -24.8897   20.0670 C   0  0  0  0  0  0
  -30.0918  -18.1141   17.8181 C   0  0  0  0  0  0
  -29.0634  -21.1762   17.6629 C   0  0  1  0  0  0
  -29.0315  -23.6823   20.4301 C   0  0  2  0  0  0
  -29.0566  -20.8556   20.1672 N   0  0  0  0  0  0
  -29.8861  -15.8698   20.7682 N   0  0  0  0  0  0
  -31.4694  -12.5916   19.1623 H   0  0  0  0  0  0
  -30.3774  -11.4824   19.9470 H   0  0  0  0  0  0
  -29.7884  -11.7475   17.5116 H   0  0  0  0  0  0
  -29.6359  -13.4757   17.7245 H   0  0  0  0  0  0
  -27.8882  -11.2906   18.8993 H   0  0  0  0  0  0
  -27.3764  -12.5434   17.7958 H   0  0  0  0  0  0
  -27.6332  -14.2575   19.4771 H   0  0  0  0  0  0
  -28.7192  -12.1605   21.4128 H   0  0  0  0  0  0
  -28.4200  -13.8387   21.7978 H   0  0  0  0  0  0
  -25.2730   -9.5706   22.4754 H   0  0  0  0  0  0
  -24.0019   -7.4627   22.7459 H   0  0  0  0  0  0
  -21.0830   -8.8701   19.8945 H   0  0  0  0  0  0
  -22.3616  -10.9650   19.6160 H   0  0  0  0  0  0
  -21.1988   -7.6145   23.9698 H   0  0  0  0  0  0
  -21.1499   -6.0532   25.9075 H   0  0  0  0  0  0
  -22.0594   -2.7607   23.2834 H   0  0  0  0  0  0
  -22.4099  -11.9863   22.4825 H   0  0  0  0  0  0
  -21.1090  -13.1201   22.2624 H   0  0  0  0  0  0
  -24.6508  -15.8460   20.5217 H   0  0  0  0  0  0
  -26.2648  -15.6309   20.0733 H   0  0  0  0  0  0
  -26.7212  -32.5411   23.1100 H   0  0  0  0  0  0
  -25.0053  -33.9700   25.0412 H   0  0  0  0  0  0
  -22.7262  -31.3037   21.4028 H   0  0  0  0  0  0
  -23.3761  -35.9604   23.3305 H   0  0  0  0  0  0
  -24.3585  -36.8903   22.2061 H   0  0  0  0  0  0
  -23.7202  -37.6482   23.6662 H   0  0  0  0  0  0
  -26.1189  -31.5349   20.6143 H   0  0  0  0  0  0
  -26.8517  -30.8144   22.0168 H   0  0  0  0  0  0
  -28.1200  -28.9264   21.2080 H   0  0  0  0  0  0
  -25.9318  -25.9237   18.9860 H   0  0  0  0  0  0
  -23.9719  -27.3268   18.9856 H   0  0  0  0  0  0
  -23.7693  -30.5989   19.4055 H   0  0  0  0  0  0
  -22.7623  -29.2545   19.8535 H   0  0  0  0  0  0
  -25.1288  -36.1956   25.0837 H   0  0  0  0  0  0
  -21.0005  -28.3257   24.1395 H   0  0  0  0  0  0
  -20.5685  -26.2306   23.3617 H   0  0  0  0  0  0
  -21.6654  -26.7426   22.1199 H   0  0  0  0  0  0
  -19.6914  -25.6284   21.1251 H   0  0  0  0  0  0
  -19.6681  -27.3188   20.6758 H   0  0  0  0  0  0
  -17.4212  -26.6688   21.4030 H   0  0  0  0  0  0
  -18.0324  -26.0054   22.9016 H   0  0  0  0  0  0
  -19.7946  -30.7280   24.2245 H   0  0  0  0  0  0
  -17.5018  -31.6257   24.5171 H   0  0  0  0  0  0
  -15.5358  -30.2973   23.7643 H   0  0  0  0  0  0
  -15.8695  -28.0807   22.7062 H   0  0  0  0  0  0
  -24.5868  -30.7104   25.7774 H   0  0  0  0  0  0
  -24.8873  -32.2896   26.4887 H   0  0  0  0  0  0
  -25.7971  -30.8901   27.0238 H   0  0  0  0  0  0
  -26.2936  -29.6769   24.1232 H   0  0  0  0  0  0
  -27.4011  -29.7293   25.4759 H   0  0  0  0  0  0
  -27.8817  -30.4334   23.9505 H   0  0  0  0  0  0
  -27.2694  -33.3655   26.2058 H   0  0  0  0  0  0
  -28.3848  -32.6848   25.0304 H   0  0  0  0  0  0
  -28.0731  -31.8460   26.5410 H   0  0  0  0  0  0
  -28.2608  -38.0098   24.7529 H   0  0  0  0  0  0
  -28.1065  -36.2629   24.6274 H   0  0  0  0  0  0
  -27.2306  -37.1432   25.8872 H   0  0  0  0  0  0
  -20.9432  -29.8770   21.6870 H   0  0  0  0  0  0
  -26.0182  -38.2871   24.1396 H   0  0  0  0  0  0
  -29.2606  -19.9639   22.1105 H   0  0  0  0  0  0
  -26.6785  -21.1691   15.0730 H   0  0  0  0  0  0
  -28.3564  -21.6382   14.8805 H   0  0  0  0  0  0
  -27.3018  -22.5625   15.9496 H   0  0  0  0  0  0
  -28.0805  -17.3748   17.4732 H   0  0  0  0  0  0
  -29.0480  -16.2794   18.4375 H   0  0  0  0  0  0
  -29.3305  -16.3995   16.7135 H   0  0  0  0  0  0
  -32.2227  -18.5205   17.8528 H   0  0  0  0  0  0
  -31.7901  -17.0861   16.9334 H   0  0  0  0  0  0
  -31.7913  -17.0310   18.6877 H   0  0  0  0  0  0
  -31.1493  -21.7908   17.5747 H   0  0  0  0  0  0
  -30.2337  -22.2457   16.1529 H   0  0  0  0  0  0
  -30.7542  -20.5890   16.3635 H   0  0  0  0  0  0
  -30.9665  -22.9220   19.7688 H   0  0  0  0  0  0
  -30.8626  -24.6754   19.8198 H   0  0  0  0  0  0
  -30.0830  -23.8079   18.5173 H   0  0  0  0  0  0
  -30.2207  -17.4195   22.1406 H   0  0  0  0  0  0
  -31.4423  -17.3179   20.9408 H   0  0  0  0  0  0
  -28.1622  -19.6521   16.3712 H   0  0  0  0  0  0
  -27.0402  -20.4930   17.3941 H   0  0  0  0  0  0
  -27.4699  -22.2167   19.8993 H   0  0  0  0  0  0
  -27.9771  -22.0788   21.5203 H   0  0  0  0  0  0
  -27.1151  -24.7012   20.6622 H   0  0  0  0  0  0
  -27.7185  -24.7251   19.0296 H   0  0  0  0  0  0
  -30.0131  -18.7064   16.9150 H   0  0  0  0  0  0
  -28.7134  -22.1551   17.9780 H   0  0  0  0  0  0
  -29.3668  -23.8801   21.4489 H   0  0  0  0  0  0
  -28.9024  -15.7103   20.9210 H   0  0  0  0  0  0
  1 25  1  0  0  0
  1 30  2  0  0  0
  1 88  1  0  0  0
  2  3  1  0  0  0
  2 25  1  0  0  0
  2 89  1  0  0  0
  2 90  1  0  0  0
  3  4  1  0  0  0
  3 91  1  0  0  0
  3 92  1  0  0  0
  4  5  1  0  0  0
  4 93  1  0  0  0
  4 94  1  0  0  0
  5  6  1  0  0  0
  5 26  1  0  0  0
  5 95  1  0  0  0
  6 25  1  0  0  0
  6 96  1  0  0  0
  6 97  1  0  0  0
  7  8  2  0  0  0
  7 26  1  0  0  0
  7 29  1  0  0  0
  8  9  1  0  0  0
  8 22  1  0  0  0
  9 10  1  0  0  0
  9 27  2  0  0  0
 10 11  2  0  0  0
 10 15  1  0  0  0
 11 12  1  0  0  0
 11 98  1  0  0  0
 12 13  2  0  0  0
 12 99  1  0  0  0
 13 14  1  0  0  0
 13 31  1  0  0  0
 14 15  2  0  0  0
 14100  1  0  0  0
 15101  1  0  0  0
 16 17  2  0  0  0
 16 21  1  0  0  0
 16 31  1  0  0  0
 17 18  1  0  0  0
 17102  1  0  0  0
 18 19  2  0  0  0
 18103  1  0  0  0
 19 20  1  0  0  0
 19 24  1  0  0  0
 20 21  2  0  0  0
 20104  1  0  0  0
 21 23  1  0  0  0
 22 28  1  0  0  0
 22 32  2  0  0  0
 26 27  1  0  0  0
 28105  1  0  0  0
 28106  1  0  0  0
 29107  1  0  0  0
 29108  1  0  0  0
 33 34  1  0  0  0
 33 66  1  0  0  0
 33 70  2  0  0  0
 34 36  1  0  0  0
 34 59  1  0  0  0
 34109  1  0  0  0
 35 44  2  0  0  0
 35 45  1  0  0  0
 35 68  1  0  0  0
 36 56  1  0  0  0
 36110  1  0  0  0
 37 39  1  0  0  0
 37 47  1  0  0  0
 37 66  1  0  0  0
 37111  1  0  0  0
 38 43  2  0  0  0
 38 46  1  0  0  0
 38 47  1  0  0  0
 39 64  1  0  0  0
 39 67  2  0  0  0
 40 52  1  0  0  0
 40 53  2  0  0  0
 40 58  1  0  0  0
 41112  1  0  0  0
 41113  1  0  0  0
 41114  1  0  0  0
 41 48  1  0  0  0
 42 43  1  0  0  0
 42 66  1  0  0  0
 42115  1  0  0  0
 42116  1  0  0  0
 43 44  1  0  0  0
 44117  1  0  0  0
 45 46  2  0  0  0
 45118  1  0  0  0
 46119  1  0  0  0
 47120  1  0  0  0
 47121  1  0  0  0
 48 56  1  0  0  0
 48 65  1  0  0  0
 48122  1  0  0  0
 49 50  1  0  0  0
 49 53  1  0  0  0
 49 64  1  0  0  0
 49123  1  0  0  0
 50 51  1  0  0  0
 50124  1  0  0  0
 50125  1  0  0  0
 51 52  1  0  0  0
 51126  1  0  0  0
 51127  1  0  0  0
 52128  1  0  0  0
 52129  1  0  0  0
 53 54  1  0  0  0
 54 55  2  0  0  0
 54130  1  0  0  0
 55 57  1  0  0  0
 55131  1  0  0  0
 56 69  2  0  0  0
 57 58  2  0  0  0
 57132  1  0  0  0
 58133  1  0  0  0
 59 60  1  0  0  0
 59 61  1  0  0  0
 59 62  1  0  0  0
 60134  1  0  0  0
 60135  1  0  0  0
 60136  1  0  0  0
 61137  1  0  0  0
 61138  1  0  0  0
 61139  1  0  0  0
 62140  1  0  0  0
 62141  1  0  0  0
 62142  1  0  0  0
 63 65  1  0  0  0
 63143  1  0  0  0
 63144  1  0  0  0
 63145  1  0  0  0
 64146  1  0  0  0
 65147  1  0  0  0
 68 83  1  0  0  0
 71 72  2  0  0  0
 71 87  1  0  0  0
 71148  1  0  0  0
 72 73  1  0  0  0
 72 80  1  0  0  0
 73 74  2  0  0  0
 73 84  1  0  0  0
 74 85  1  0  0  0
 74 87  1  0  0  0
 75 81  1  0  0  0
 75149  1  0  0  0
 75150  1  0  0  0
 75151  1  0  0  0
 76152  1  0  0  0
 76153  1  0  0  0
 76154  1  0  0  0
 76 84  1  0  0  0
 77 84  1  0  0  0
 77155  1  0  0  0
 77156  1  0  0  0
 77157  1  0  0  0
 78158  1  0  0  0
 78159  1  0  0  0
 78160  1  0  0  0
 78 85  1  0  0  0
 79161  1  0  0  0
 79162  1  0  0  0
 79163  1  0  0  0
 79 86  1  0  0  0
 80 88  1  0  0  0
 80164  1  0  0  0
 80165  1  0  0  0
 81 85  1  0  0  0
 81166  1  0  0  0
 81167  1  0  0  0
 82 86  1  0  0  0
 82 87  1  0  0  0
 82168  1  0  0  0
 82169  1  0  0  0
 83 86  1  0  0  0
 83170  1  0  0  0
 83171  1  0  0  0
 84172  1  0  0  0
 85173  1  0  0  0
 86174  1  0  0  0
 88175  1  0  0  0
M  ISO  4   1 100  68 101  83 101  88 100
M  END
> <chiral flag>
0

> <version>
0

> <s_m_source_file>
/data/baiqing/PycharmProjects/Reinvent-master-3.2/result/LINK_invent/BTK/process_docking_weight1_custom_sum_contain_oxygen_bond_distance_aromatic_linkinvent_7_9_3/rearranged_h_0100.sdf

> <i_m_source_file_index>
62

> <r_mmod_Potential_Energy-OPLS-2005>
107.992874145508

> <r_mmod_Stretch_Energy-OPLS-2005>
124.940223693848

> <r_mmod_Bend_Energy-OPLS-2005>
200.632202148438

> <r_mmod_Torsional_Energy-OPLS-2005>
238.224822998047

> <r_mmod_Improper_Torsional_Energy-OPLS-2005>
5.50558185577393

> <r_mmod_Van_der_Waal_Energy-OPLS-2005>
110.968322753906

> <r_mmod_Electrostatic_Energy-OPLS-2005>
-455.167358398438

> <r_mmod_Solvation_Energy-OPLS-2005>
-200.595199584961

> <b_mmod_Minimization_Converged-OPLS-2005>
0

> <r_mmod_RMS_Derivative-OPLS-2005>
2.07732391357422

$$$$
62
                    3D
 Structure written by MMmdl.
164172  0  0  1  0            999 V2000
  -30.5594  -14.9454   20.4221 C   0  0  0  0  0  0
  -30.4388  -12.5839   19.4882 C   0  0  0  0  0  0
  -29.5121  -12.5103   18.2530 C   0  0  0  0  0  0
  -28.0499  -12.2938   18.6866 C   0  0  0  0  0  0
  -27.6272  -13.2412   19.8377 C   0  0  2  0  0  0
  -28.6769  -13.2833   20.9689 C   0  0  0  0  0  0
  -25.2466  -13.8221   20.5745 C   0  0  0  0  0  0
  -24.1769  -13.0429   20.9251 C   0  0  0  0  0  0
  -24.6382  -11.6915   20.8771 C   0  0  0  0  0  0
  -23.9073  -10.4272   21.0408 C   0  0  0  0  0  0
  -24.3626   -9.4189   21.9171 C   0  0  0  0  0  0
  -23.6302   -8.2224   22.0728 C   0  0  0  0  0  0
  -22.4281   -8.0263   21.3526 C   0  0  0  0  0  0
  -21.9927   -9.0237   20.4633 C   0  0  0  0  0  0
  -22.7256  -10.2116   20.3050 C   0  0  0  0  0  0
  -21.6856   -6.0731   22.5278 C   0  0  0  0  0  0
  -21.4019   -6.5638   23.8214 C   0  0  0  0  0  0
  -21.3657   -5.6788   24.9177 C   0  0  0  0  0  0
  -21.6042   -4.3052   24.7234 C   0  0  0  0  0  0
  -21.8824   -3.8143   23.4359 C   0  0  0  0  0  0
  -21.9200   -4.6956   22.3407 C   0  0  0  0  0  0
  -22.7788  -13.5185   21.1906 C   0  0  0  0  0  0
  -22.1659   -4.2138   21.0983 F   0  0  0  0  0  0
  -21.5631   -3.4534   25.7751 F   0  0  0  0  0  0
  -29.9454  -13.6946   20.3515 N   0  0  0  0  0  0
  -26.2876  -12.9423   20.3291 N   0  0  0  0  0  0
  -25.9320  -11.6556   20.5790 N   0  0  0  0  0  0
  -22.0476  -12.8125   22.0466 N   0  0  0  0  0  0
  -25.4139  -15.1937   20.4153 N   0  0  0  0  0  0
  -31.7761  -14.9686   20.1951 O   0  0  0  0  0  0
  -21.6638   -6.8862   21.4230 O   0  0  0  0  0  0
  -22.3447  -14.5484   20.6776 O   0  0  0  0  0  0
  -24.6425  -31.8458   23.1934 C   0  0  0  0  0  0
  -25.9212  -32.4682   23.8280 C   0  0  1  0  0  0
  -27.1972  -27.1038   20.1610 C   0  0  0  0  0  0
  -25.5972  -33.8501   24.2198 N   0  0  0  0  0  0
  -23.4452  -30.4678   21.5406 C   0  0  2  0  0  0
  -24.8973  -28.9024   20.1075 C   0  0  0  0  0  0
  -22.7566  -29.4572   22.4900 C   0  0  0  0  0  0
  -18.0306  -28.1406   22.8479 C   0  0  0  0  0  0
  -24.1503  -36.7242   23.2644 C   0  0  0  0  0  0
  -26.0061  -30.7065   21.4036 C   0  0  0  0  0  0
  -26.0736  -29.3159   20.7451 C   0  0  0  0  0  0
  -27.2234  -28.4307   20.7658 C   0  0  0  0  0  0
  -26.0265  -26.8495   19.4159 C   0  0  0  0  0  0
  -24.8885  -27.6807   19.4240 C   0  0  0  0  0  0
  -23.6712  -29.8017   20.1588 C   0  0  0  0  0  0
  -25.4128  -36.3013   24.0313 C   0  0  1  0  0  0
  -20.5915  -28.3737   23.1245 C   0  0  2  0  0  0
  -20.6809  -26.9446   22.5406 C   0  0  0  0  0  0
  -19.5780  -26.6395   21.5216 C   0  0  0  0  0  0
  -18.1954  -26.7950   22.1616 C   0  0  0  0  0  0
  -19.1555  -28.8887   23.2853 C   0  0  0  0  0  0
  -18.9481  -30.1489   23.8871 C   0  0  0  0  0  0
  -17.6478  -30.6614   24.0550 C   0  0  0  0  0  0
  -25.9093  -34.9396   23.5066 C   0  0  0  0  0  0
  -16.5370  -29.9094   23.6351 C   0  0  0  0  0  0
  -16.7289  -28.6515   23.0370 C   0  0  0  0  0  0
  -26.4548  -31.6533   25.0717 C   0  0  0  0  0  0
  -25.3735  -31.3695   26.1406 C   0  0  0  0  0  0
  -27.0386  -30.2906   24.6304 C   0  0  0  0  0  0
  -27.6091  -32.4299   25.7476 C   0  0  0  0  0  0
  -27.5573  -37.1758   24.8469 C   0  0  0  0  0  0
  -21.4260  -29.3061   22.3626 N   0  0  0  0  0  0
  -26.4290  -37.3715   23.9413 N   0  0  0  0  0  0
  -24.7170  -31.0280   22.1000 N   0  0  0  0  0  0
  -23.4209  -28.8140   23.3066 O   0  0  0  0  0  0
  -28.2234  -26.0716   20.1934 O   0  0  0  0  0  0
  -26.5674  -34.8892   22.4646 O   0  0  0  0  0  0
  -23.5551  -32.1392   23.7137 O   0  0  0  0  0  0
  -29.3060  -18.8215   20.3701 C   0  0  0  0  0  0
  -29.5852  -20.2242   20.7994 C   0  0  0  0  0  0
  -30.7004  -20.2818   21.6874 C   0  0  0  0  0  0
  -31.4463  -19.1007   21.9880 C   0  0  0  0  0  0
  -30.1019  -17.6168   20.7352 C   0  0  0  0  0  0
  -32.1766  -22.3555   21.7304 C   0  0  0  0  0  0
  -32.0385  -18.6099   24.3983 C   0  0  0  0  0  0
  -26.5473  -24.0458   20.3273 C   0  0  0  0  0  0
  -28.6192  -21.5687   20.5710 C   0  0  0  0  0  0
  -31.0426  -21.5805   22.4141 C   0  0  0  0  0  0
  -32.5668  -19.0570   23.0253 C   0  0  0  0  0  0
  -28.9877  -23.2076   20.2299 C   0  0  0  0  0  0
  -27.9860  -24.5451   20.5679 C   0  0  1  0  0  0
  -31.1713  -17.8680   21.5076 N   0  0  0  0  0  0
  -29.7856  -16.1460   20.4508 N   0  0  0  0  0  0
  -31.4708  -12.7333   19.1676 H   0  0  0  0  0  0
  -30.4303  -11.6414   20.0374 H   0  0  0  0  0  0
  -29.8257  -11.7033   17.5891 H   0  0  0  0  0  0
  -29.5865  -13.4346   17.6797 H   0  0  0  0  0  0
  -27.9622  -11.2574   19.0163 H   0  0  0  0  0  0
  -27.3772  -12.4007   17.8353 H   0  0  0  0  0  0
  -27.5845  -14.2361   19.3944 H   0  0  0  0  0  0
  -28.7713  -12.3111   21.4543 H   0  0  0  0  0  0
  -28.3860  -13.9904   21.7475 H   0  0  0  0  0  0
  -25.2778   -9.5652   22.4734 H   0  0  0  0  0  0
  -24.0025   -7.4608   22.7433 H   0  0  0  0  0  0
  -21.0868   -8.8766   19.8912 H   0  0  0  0  0  0
  -22.3740  -10.9655   19.6150 H   0  0  0  0  0  0
  -21.2005   -7.6144   23.9713 H   0  0  0  0  0  0
  -21.1471   -6.0519   25.9076 H   0  0  0  0  0  0
  -22.0608   -2.7602   23.2873 H   0  0  0  0  0  0
  -22.4171  -11.9807   22.4814 H   0  0  0  0  0  0
  -21.1066  -13.1038   22.2688 H   0  0  0  0  0  0
  -24.6502  -15.8492   20.5398 H   0  0  0  0  0  0
  -26.2542  -15.6322   20.0631 H   0  0  0  0  0  0
  -26.7275  -32.5278   23.0997 H   0  0  0  0  0  0
  -25.0024  -33.9622   25.0275 H   0  0  0  0  0  0
  -22.7451  -31.2943   21.3886 H   0  0  0  0  0  0
  -23.3772  -35.9564   23.3280 H   0  0  0  0  0  0
  -24.3612  -36.8914   22.2071 H   0  0  0  0  0  0
  -23.7270  -37.6426   23.6720 H   0  0  0  0  0  0
  -26.1710  -31.4587   20.6307 H   0  0  0  0  0  0
  -26.8721  -30.7551   22.0493 H   0  0  0  0  0  0
  -28.1089  -28.7432   21.3020 H   0  0  0  0  0  0
  -25.9557  -25.9585   18.8169 H   0  0  0  0  0  0
  -24.0072  -27.3773   18.8762 H   0  0  0  0  0  0
  -23.7918  -30.5781   19.4022 H   0  0  0  0  0  0
  -22.7869  -29.2379   19.8560 H   0  0  0  0  0  0
  -25.1308  -36.1822   25.0796 H   0  0  0  0  0  0
  -20.9978  -28.3347   24.1374 H   0  0  0  0  0  0
  -20.5734  -26.2351   23.3622 H   0  0  0  0  0  0
  -21.6676  -26.7502   22.1168 H   0  0  0  0  0  0
  -19.6961  -25.6304   21.1257 H   0  0  0  0  0  0
  -19.6718  -27.3196   20.6741 H   0  0  0  0  0  0
  -17.4221  -26.6698   21.4017 H   0  0  0  0  0  0
  -18.0354  -26.0088   22.9007 H   0  0  0  0  0  0
  -19.7964  -30.7303   24.2229 H   0  0  0  0  0  0
  -17.5040  -31.6285   24.5170 H   0  0  0  0  0  0
  -15.5376  -30.2974   23.7719 H   0  0  0  0  0  0
  -15.8687  -28.0820   22.7117 H   0  0  0  0  0  0
  -24.5977  -30.6975   25.7720 H   0  0  0  0  0  0
  -24.8845  -32.2840   26.4761 H   0  0  0  0  0  0
  -25.8009  -30.8925   27.0237 H   0  0  0  0  0  0
  -26.2978  -29.6626   24.1337 H   0  0  0  0  0  0
  -27.4007  -29.7204   25.4873 H   0  0  0  0  0  0
  -27.8909  -30.4102   23.9602 H   0  0  0  0  0  0
  -27.2730  -33.3688   26.1897 H   0  0  0  0  0  0
  -28.3940  -32.6725   25.0297 H   0  0  0  0  0  0
  -28.0697  -31.8509   26.5488 H   0  0  0  0  0  0
  -28.2550  -38.0088   24.7520 H   0  0  0  0  0  0
  -28.1092  -36.2605   24.6272 H   0  0  0  0  0  0
  -27.2283  -37.1385   25.8869 H   0  0  0  0  0  0
  -20.9514  -29.8718   21.6733 H   0  0  0  0  0  0
  -26.0143  -38.2772   24.1425 H   0  0  0  0  0  0
  -28.4221  -18.6575   19.7704 H   0  0  0  0  0  0
  -32.3506  -23.3029   22.2408 H   0  0  0  0  0  0
  -31.9461  -22.5793   20.6902 H   0  0  0  0  0  0
  -33.1091  -21.7951   21.7392 H   0  0  0  0  0  0
  -32.8325  -18.5881   25.1442 H   0  0  0  0  0  0
  -31.6098  -17.6087   24.3413 H   0  0  0  0  0  0
  -31.2581  -19.2830   24.7547 H   0  0  0  0  0  0
  -26.3780  -23.0874   20.8165 H   0  0  0  0  0  0
  -26.3368  -23.8998   19.2660 H   0  0  0  0  0  0
  -25.7972  -24.7023   20.7635 H   0  0  0  0  0  0
  -28.0515  -21.6046   21.4999 H   0  0  0  0  0  0
  -27.8813  -21.2631   19.8296 H   0  0  0  0  0  0
  -31.3247  -21.3593   23.4433 H   0  0  0  0  0  0
  -30.1615  -22.2090   22.5336 H   0  0  0  0  0  0
  -33.0944  -20.0058   23.1135 H   0  0  0  0  0  0
  -33.3305  -18.3465   22.6996 H   0  0  0  0  0  0
  -29.2058  -23.2368   19.1620 H   0  0  0  0  0  0
  -29.9358  -23.4590   20.6904 H   0  0  0  0  0  0
  -28.0397  -24.6183   21.6550 H   0  0  0  0  0  0
  -28.7999  -15.9686   20.3501 H   0  0  0  0  0  0
  1 25  1  0  0  0
  1 30  2  0  0  0
  1 85  1  0  0  0
  2  3  1  0  0  0
  2 25  1  0  0  0
  2 86  1  0  0  0
  2 87  1  0  0  0
  3  4  1  0  0  0
  3 88  1  0  0  0
  3 89  1  0  0  0
  4  5  1  0  0  0
  4 90  1  0  0  0
  4 91  1  0  0  0
  5  6  1  0  0  0
  5 26  1  0  0  0
  5 92  1  0  0  0
  6 25  1  0  0  0
  6 93  1  0  0  0
  6 94  1  0  0  0
  7  8  2  0  0  0
  7 26  1  0  0  0
  7 29  1  0  0  0
  8  9  1  0  0  0
  8 22  1  0  0  0
  9 10  1  0  0  0
  9 27  2  0  0  0
 10 11  2  0  0  0
 10 15  1  0  0  0
 11 12  1  0  0  0
 11 95  1  0  0  0
 12 13  2  0  0  0
 12 96  1  0  0  0
 13 14  1  0  0  0
 13 31  1  0  0  0
 14 15  2  0  0  0
 14 97  1  0  0  0
 15 98  1  0  0  0
 16 17  2  0  0  0
 16 21  1  0  0  0
 16 31  1  0  0  0
 17 18  1  0  0  0
 17 99  1  0  0  0
 18 19  2  0  0  0
 18100  1  0  0  0
 19 20  1  0  0  0
 19 24  1  0  0  0
 20 21  2  0  0  0
 20101  1  0  0  0
 21 23  1  0  0  0
 22 28  1  0  0  0
 22 32  2  0  0  0
 26 27  1  0  0  0
 28102  1  0  0  0
 28103  1  0  0  0
 29104  1  0  0  0
 29105  1  0  0  0
 33 34  1  0  0  0
 33 66  1  0  0  0
 33 70  2  0  0  0
 34 36  1  0  0  0
 34 59  1  0  0  0
 34106  1  0  0  0
 35 44  2  0  0  0
 35 45  1  0  0  0
 35 68  1  0  0  0
 36 56  1  0  0  0
 36107  1  0  0  0
 37 39  1  0  0  0
 37 47  1  0  0  0
 37 66  1  0  0  0
 37108  1  0  0  0
 38 43  2  0  0  0
 38 46  1  0  0  0
 38 47  1  0  0  0
 39 64  1  0  0  0
 39 67  2  0  0  0
 40 52  1  0  0  0
 40 53  2  0  0  0
 40 58  1  0  0  0
 41109  1  0  0  0
 41110  1  0  0  0
 41111  1  0  0  0
 41 48  1  0  0  0
 42 43  1  0  0  0
 42 66  1  0  0  0
 42112  1  0  0  0
 42113  1  0  0  0
 43 44  1  0  0  0
 44114  1  0  0  0
 45 46  2  0  0  0
 45115  1  0  0  0
 46116  1  0  0  0
 47117  1  0  0  0
 47118  1  0  0  0
 48 56  1  0  0  0
 48 65  1  0  0  0
 48119  1  0  0  0
 49 50  1  0  0  0
 49 53  1  0  0  0
 49 64  1  0  0  0
 49120  1  0  0  0
 50 51  1  0  0  0
 50121  1  0  0  0
 50122  1  0  0  0
 51 52  1  0  0  0
 51123  1  0  0  0
 51124  1  0  0  0
 52125  1  0  0  0
 52126  1  0  0  0
 53 54  1  0  0  0
 54 55  2  0  0  0
 54127  1  0  0  0
 55 57  1  0  0  0
 55128  1  0  0  0
 56 69  2  0  0  0
 57 58  2  0  0  0
 57129  1  0  0  0
 58130  1  0  0  0
 59 60  1  0  0  0
 59 61  1  0  0  0
 59 62  1  0  0  0
 60131  1  0  0  0
 60132  1  0  0  0
 60133  1  0  0  0
 61134  1  0  0  0
 61135  1  0  0  0
 61136  1  0  0  0
 62137  1  0  0  0
 62138  1  0  0  0
 62139  1  0  0  0
 63 65  1  0  0  0
 63140  1  0  0  0
 63141  1  0  0  0
 63142  1  0  0  0
 64143  1  0  0  0
 65144  1  0  0  0
 68 83  1  0  0  0
 71 72  2  0  0  0
 71 75  1  0  0  0
 71145  1  0  0  0
 72 73  1  0  0  0
 72 79  1  0  0  0
 73 74  2  0  0  0
 73 80  1  0  0  0
 74 81  1  0  0  0
 74 84  1  0  0  0
 75 84  2  0  0  0
 75 85  1  0  0  0
 76 80  1  0  0  0
 76146  1  0  0  0
 76147  1  0  0  0
 76148  1  0  0  0
 77 81  1  0  0  0
 77149  1  0  0  0
 77150  1  0  0  0
 77151  1  0  0  0
 78152  1  0  0  0
 78153  1  0  0  0
 78154  1  0  0  0
 78 83  1  0  0  0
 79 82  1  0  0  0
 79155  1  0  0  0
 79156  1  0  0  0
 80157  1  0  0  0
 80158  1  0  0  0
 81159  1  0  0  0
 81160  1  0  0  0
 82 83  1  0  0  0
 82161  1  0  0  0
 82162  1  0  0  0
 83163  1  0  0  0
 85164  1  0  0  0
M  ISO  4   1 100  68 101  83 101  85 100
M  END
> <chiral flag>
0

> <version>
0

> <s_m_source_file>
/data/baiqing/PycharmProjects/Reinvent-master-3.2/result/LINK_invent/BTK/process_docking_weight1_custom_sum_contain_oxygen_bond_distance_aromatic_linkinvent_7_9_3/rearranged_h_0100.sdf

> <i_m_source_file_index>
63

> <r_mmod_Potential_Energy-OPLS-2005>
428.703735351562

> <r_mmod_Stretch_Energy-OPLS-2005>
298.121612548828

> <r_mmod_Bend_Energy-OPLS-2005>
288.333038330078

> <r_mmod_Torsional_Energy-OPLS-2005>
236.621429443359

> <r_mmod_Improper_Torsional_Energy-OPLS-2005>
9.6227502822876

> <r_mmod_Van_der_Waal_Energy-OPLS-2005>
148.476089477539

> <r_mmod_Electrostatic_Energy-OPLS-2005>
-530.20263671875

> <r_mmod_Solvation_Energy-OPLS-2005>
-229.264770507812

> <b_mmod_Minimization_Converged-OPLS-2005>
0

> <r_mmod_RMS_Derivative-OPLS-2005>
3.24459147453308

$$$$
63
                    3D
 Structure written by MMmdl.
165173  0  0  1  0            999 V2000
  -30.6660  -14.6193   20.4658 C   0  0  0  0  0  0
  -30.4108  -12.3692   19.4565 C   0  0  0  0  0  0
  -29.4829  -12.4639   18.2250 C   0  0  0  0  0  0
  -28.0117  -12.3173   18.6585 C   0  0  0  0  0  0
  -27.6415  -13.2199   19.8652 C   0  0  2  0  0  0
  -28.6930  -13.1362   20.9926 C   0  0  0  0  0  0
  -25.2506  -13.8210   20.5766 C   0  0  0  0  0  0
  -24.1750  -13.0464   20.9245 C   0  0  0  0  0  0
  -24.6318  -11.6956   20.8817 C   0  0  0  0  0  0
  -23.9007  -10.4322   21.0458 C   0  0  0  0  0  0
  -24.3560   -9.4239   21.9228 C   0  0  0  0  0  0
  -23.6245   -8.2270   22.0786 C   0  0  0  0  0  0
  -22.4246   -8.0282   21.3565 C   0  0  0  0  0  0
  -21.9876   -9.0261   20.4689 C   0  0  0  0  0  0
  -22.7186  -10.2151   20.3112 C   0  0  0  0  0  0
  -21.6846   -6.0723   22.5281 C   0  0  0  0  0  0
  -21.4029   -6.5640   23.8214 C   0  0  0  0  0  0
  -21.3680   -5.6801   24.9178 C   0  0  0  0  0  0
  -21.6041   -4.3059   24.7234 C   0  0  0  0  0  0
  -21.8801   -3.8139   23.4356 C   0  0  0  0  0  0
  -21.9181   -4.6948   22.3406 C   0  0  0  0  0  0
  -22.7787  -13.5299   21.1855 C   0  0  0  0  0  0
  -22.1641   -4.2136   21.0982 F   0  0  0  0  0  0
  -21.5627   -3.4548   25.7746 F   0  0  0  0  0  0
  -29.9988  -13.4283   20.3963 N   0  0  0  0  0  0
  -26.2925  -12.9381   20.3453 N   0  0  0  0  0  0
  -25.9259  -11.6547   20.5910 N   0  0  0  0  0  0
  -22.0379  -12.8334   22.0414 N   0  0  0  0  0  0
  -25.4211  -15.1920   20.4155 N   0  0  0  0  0  0
  -31.8764  -14.6782   20.2286 O   0  0  0  0  0  0
  -21.6641   -6.8859   21.4238 O   0  0  0  0  0  0
  -22.3519  -14.5605   20.6681 O   0  0  0  0  0  0
  -24.6200  -31.8639   23.2072 C   0  0  0  0  0  0
  -25.9068  -32.4801   23.8389 C   0  0  1  0  0  0
  -27.2258  -27.3590   20.1174 C   0  0  0  0  0  0
  -25.5903  -33.8595   24.2330 N   0  0  0  0  0  0
  -23.4122  -30.4847   21.5523 C   0  0  2  0  0  0
  -24.8610  -28.9520   20.1069 C   0  0  0  0  0  0
  -22.7464  -29.4611   22.5008 C   0  0  0  0  0  0
  -18.0261  -28.1352   22.8515 C   0  0  0  0  0  0
  -24.1481  -36.7293   23.2645 C   0  0  0  0  0  0
  -25.9472  -30.8089   21.3708 C   0  0  0  0  0  0
  -26.0249  -29.4384   20.7159 C   0  0  0  0  0  0
  -27.2095  -28.6522   20.7136 C   0  0  0  0  0  0
  -26.0452  -26.9271   19.4655 C   0  0  0  0  0  0
  -24.8741  -27.7044   19.4695 C   0  0  0  0  0  0
  -23.6219  -29.8197   20.1658 C   0  0  0  0  0  0
  -25.4105  -36.3103   24.0346 C   0  0  1  0  0  0
  -20.5867  -28.3657   23.1317 C   0  0  2  0  0  0
  -20.6739  -26.9378   22.5431 C   0  0  0  0  0  0
  -19.5709  -26.6368   21.5235 C   0  0  0  0  0  0
  -18.1895  -26.7897   22.1650 C   0  0  0  0  0  0
  -19.1511  -28.8825   23.2903 C   0  0  0  0  0  0
  -18.9442  -30.1430   23.8911 C   0  0  0  0  0  0
  -17.6436  -30.6569   24.0554 C   0  0  0  0  0  0
  -25.9034  -34.9464   23.5136 C   0  0  0  0  0  0
  -16.5329  -29.9062   23.6320 C   0  0  0  0  0  0
  -16.7245  -28.6468   23.0375 C   0  0  0  0  0  0
  -26.4477  -31.6583   25.0725 C   0  0  0  0  0  0
  -25.3724  -31.3688   26.1459 C   0  0  0  0  0  0
  -27.0310  -30.3023   24.6119 C   0  0  0  0  0  0
  -27.6069  -32.4300   25.7474 C   0  0  0  0  0  0
  -27.5572  -37.1795   24.8470 C   0  0  0  0  0  0
  -21.4183  -29.3008   22.3734 N   0  0  0  0  0  0
  -26.4288  -37.3789   23.9407 N   0  0  0  0  0  0
  -24.6788  -31.0677   22.1015 N   0  0  0  0  0  0
  -23.4209  -28.8167   23.3077 O   0  0  0  0  0  0
  -28.3522  -26.5358   20.1990 O   0  0  0  0  0  0
  -26.5598  -34.8922   22.4701 O   0  0  0  0  0  0
  -23.5376  -32.1403   23.7434 O   0  0  0  0  0  0
  -30.7306  -20.5187   20.3347 C   0  0  0  0  0  0
  -28.3668  -20.1161   21.0988 C   0  0  0  0  0  0
  -30.2281  -21.7912   19.5864 C   0  0  0  0  0  0
  -28.4974  -21.6480   21.4320 C   0  0  0  0  0  0
  -29.6359  -19.4307   20.4966 C   0  0  1  0  0  0
  -29.0307  -22.5471   20.2709 C   0  0  1  0  0  0
  -30.6449  -24.6236   20.4611 C   0  0  0  0  0  0
  -29.9965  -16.2462   18.7956 C   0  0  0  0  0  0
  -30.1669  -18.1289   21.2323 C   0  0  0  0  0  0
  -29.3682  -16.7620   21.1034 C   0  0  0  0  0  0
  -28.1761  -25.0909   19.9910 C   0  0  0  0  0  0
  -29.2138  -24.0968   20.6549 C   0  0  2  0  0  0
  -29.9110  -15.7287   20.1654 N   0  0  0  0  0  0
  -31.4555  -12.4605   19.1574 H   0  0  0  0  0  0
  -30.3139  -11.3910   19.9299 H   0  0  0  0  0  0
  -29.7295  -11.6851   17.5004 H   0  0  0  0  0  0
  -29.6210  -13.4131   17.7124 H   0  0  0  0  0  0
  -27.8612  -11.2705   18.9246 H   0  0  0  0  0  0
  -27.3421  -12.5151   17.8217 H   0  0  0  0  0  0
  -27.6438  -14.2431   19.4887 H   0  0  0  0  0  0
  -28.7026  -12.1501   21.4550 H   0  0  0  0  0  0
  -28.4644  -13.8538   21.7842 H   0  0  0  0  0  0
  -25.2660   -9.5729   22.4863 H   0  0  0  0  0  0
  -23.9937   -7.4672   22.7534 H   0  0  0  0  0  0
  -21.0798   -8.8770   19.9013 H   0  0  0  0  0  0
  -22.3591  -10.9699   19.6270 H   0  0  0  0  0  0
  -21.2043   -7.6153   23.9706 H   0  0  0  0  0  0
  -21.1533   -6.0549   25.9087 H   0  0  0  0  0  0
  -22.0556   -2.7601   23.2862 H   0  0  0  0  0  0
  -22.3895  -11.9957   22.4816 H   0  0  0  0  0  0
  -21.1051  -13.1499   22.2686 H   0  0  0  0  0  0
  -24.6566  -15.8473   20.5335 H   0  0  0  0  0  0
  -26.2841  -15.6317   20.1227 H   0  0  0  0  0  0
  -26.7131  -32.5516   23.1145 H   0  0  0  0  0  0
  -25.0036  -33.9744   25.0470 H   0  0  0  0  0  0
  -22.7013  -31.3014   21.4127 H   0  0  0  0  0  0
  -23.3749  -35.9615   23.3316 H   0  0  0  0  0  0
  -24.3580  -36.8892   22.2055 H   0  0  0  0  0  0
  -23.7211  -37.6496   23.6647 H   0  0  0  0  0  0
  -26.0587  -31.5720   20.6000 H   0  0  0  0  0  0
  -26.8350  -30.8688   21.9897 H   0  0  0  0  0  0
  -28.1031  -29.0182   21.2011 H   0  0  0  0  0  0
  -26.0000  -25.9789   18.9510 H   0  0  0  0  0  0
  -23.9882  -27.3365   18.9713 H   0  0  0  0  0  0
  -23.7196  -30.5905   19.4008 H   0  0  0  0  0  0
  -22.7465  -29.2321   19.8833 H   0  0  0  0  0  0
  -25.1273  -36.1977   25.0836 H   0  0  0  0  0  0
  -20.9940  -28.3205   24.1447 H   0  0  0  0  0  0
  -20.5642  -26.2263   23.3628 H   0  0  0  0  0  0
  -21.6608  -26.7398   22.1220 H   0  0  0  0  0  0
  -19.6861  -25.6298   21.1222 H   0  0  0  0  0  0
  -19.6616  -27.3218   20.6796 H   0  0  0  0  0  0
  -17.4164  -26.6672   21.4040 H   0  0  0  0  0  0
  -18.0263  -26.0020   22.9027 H   0  0  0  0  0  0
  -19.7915  -30.7242   24.2297 H   0  0  0  0  0  0
  -17.4982  -31.6257   24.5145 H   0  0  0  0  0  0
  -15.5324  -30.2963   23.7625 H   0  0  0  0  0  0
  -15.8654  -28.0770   22.7109 H   0  0  0  0  0  0
  -24.5927  -30.7008   25.7772 H   0  0  0  0  0  0
  -24.8888  -32.2847   26.4877 H   0  0  0  0  0  0
  -25.8066  -30.8871   27.0235 H   0  0  0  0  0  0
  -26.2872  -29.6784   24.1158 H   0  0  0  0  0  0
  -27.4050  -29.7246   25.4583 H   0  0  0  0  0  0
  -27.8716  -30.4319   23.9296 H   0  0  0  0  0  0
  -27.2711  -33.3616   26.2040 H   0  0  0  0  0  0
  -28.3874  -32.6830   25.0283 H   0  0  0  0  0  0
  -28.0739  -31.8426   26.5389 H   0  0  0  0  0  0
  -28.2606  -38.0077   24.7515 H   0  0  0  0  0  0
  -28.1047  -36.2609   24.6308 H   0  0  0  0  0  0
  -27.2284  -37.1462   25.8872 H   0  0  0  0  0  0
  -20.9375  -29.8719   21.6934 H   0  0  0  0  0  0
  -26.0182  -38.2865   24.1419 H   0  0  0  0  0  0
  -31.1149  -20.7945   21.3203 H   0  0  0  0  0  0
  -31.5787  -20.0973   19.7938 H   0  0  0  0  0  0
  -27.5484  -19.9938   20.3880 H   0  0  0  0  0  0
  -28.0388  -19.5837   21.9916 H   0  0  0  0  0  0
  -29.8906  -21.4712   18.6007 H   0  0  0  0  0  0
  -31.0827  -22.4277   19.3637 H   0  0  0  0  0  0
  -27.5288  -22.0278   21.7598 H   0  0  0  0  0  0
  -29.1533  -21.7463   22.2982 H   0  0  0  0  0  0
  -29.3801  -19.1165   19.4826 H   0  0  0  0  0  0
  -28.2372  -22.5404   19.5211 H   0  0  0  0  0  0
  -30.9030  -24.6929   19.4037 H   0  0  0  0  0  0
  -31.3789  -23.9840   20.9531 H   0  0  0  0  0  0
  -30.7606  -25.6177   20.8900 H   0  0  0  0  0  0
  -29.0047  -16.5012   18.4238 H   0  0  0  0  0  0
  -30.4267  -15.5228   18.1004 H   0  0  0  0  0  0
  -30.6246  -17.1350   18.7423 H   0  0  0  0  0  0
  -30.2573  -18.3677   22.2946 H   0  0  0  0  0  0
  -31.1974  -17.9450   20.9202 H   0  0  0  0  0  0
  -29.3025  -16.3130   22.0967 H   0  0  0  0  0  0
  -28.3348  -16.9741   20.8201 H   0  0  0  0  0  0
  -27.2005  -24.7886   20.3771 H   0  0  0  0  0  0
  -28.1576  -24.9175   18.9158 H   0  0  0  0  0  0
  -29.0351  -24.1653   21.7281 H   0  0  0  0  0  0
  1 25  1  0  0  0
  1 30  2  0  0  0
  1 83  1  0  0  0
  2  3  1  0  0  0
  2 25  1  0  0  0
  2 84  1  0  0  0
  2 85  1  0  0  0
  3  4  1  0  0  0
  3 86  1  0  0  0
  3 87  1  0  0  0
  4  5  1  0  0  0
  4 88  1  0  0  0
  4 89  1  0  0  0
  5  6  1  0  0  0
  5 26  1  0  0  0
  5 90  1  0  0  0
  6 25  1  0  0  0
  6 91  1  0  0  0
  6 92  1  0  0  0
  7  8  2  0  0  0
  7 26  1  0  0  0
  7 29  1  0  0  0
  8  9  1  0  0  0
  8 22  1  0  0  0
  9 10  1  0  0  0
  9 27  2  0  0  0
 10 11  2  0  0  0
 10 15  1  0  0  0
 11 12  1  0  0  0
 11 93  1  0  0  0
 12 13  2  0  0  0
 12 94  1  0  0  0
 13 14  1  0  0  0
 13 31  1  0  0  0
 14 15  2  0  0  0
 14 95  1  0  0  0
 15 96  1  0  0  0
 16 17  2  0  0  0
 16 21  1  0  0  0
 16 31  1  0  0  0
 17 18  1  0  0  0
 17 97  1  0  0  0
 18 19  2  0  0  0
 18 98  1  0  0  0
 19 20  1  0  0  0
 19 24  1  0  0  0
 20 21  2  0  0  0
 20 99  1  0  0  0
 21 23  1  0  0  0
 22 28  1  0  0  0
 22 32  2  0  0  0
 26 27  1  0  0  0
 28100  1  0  0  0
 28101  1  0  0  0
 29102  1  0  0  0
 29103  1  0  0  0
 33 34  1  0  0  0
 33 66  1  0  0  0
 33 70  2  0  0  0
 34 36  1  0  0  0
 34 59  1  0  0  0
 34104  1  0  0  0
 35 44  2  0  0  0
 35 45  1  0  0  0
 35 68  1  0  0  0
 36 56  1  0  0  0
 36105  1  0  0  0
 37 39  1  0  0  0
 37 47  1  0  0  0
 37 66  1  0  0  0
 37106  1  0  0  0
 38 43  2  0  0  0
 38 46  1  0  0  0
 38 47  1  0  0  0
 39 64  1  0  0  0
 39 67  2  0  0  0
 40 52  1  0  0  0
 40 53  2  0  0  0
 40 58  1  0  0  0
 41107  1  0  0  0
 41108  1  0  0  0
 41109  1  0  0  0
 41 48  1  0  0  0
 42 43  1  0  0  0
 42 66  1  0  0  0
 42110  1  0  0  0
 42111  1  0  0  0
 43 44  1  0  0  0
 44112  1  0  0  0
 45 46  2  0  0  0
 45113  1  0  0  0
 46114  1  0  0  0
 47115  1  0  0  0
 47116  1  0  0  0
 48 56  1  0  0  0
 48 65  1  0  0  0
 48117  1  0  0  0
 49 50  1  0  0  0
 49 53  1  0  0  0
 49 64  1  0  0  0
 49118  1  0  0  0
 50 51  1  0  0  0
 50119  1  0  0  0
 50120  1  0  0  0
 51 52  1  0  0  0
 51121  1  0  0  0
 51122  1  0  0  0
 52123  1  0  0  0
 52124  1  0  0  0
 53 54  1  0  0  0
 54 55  2  0  0  0
 54125  1  0  0  0
 55 57  1  0  0  0
 55126  1  0  0  0
 56 69  2  0  0  0
 57 58  2  0  0  0
 57127  1  0  0  0
 58128  1  0  0  0
 59 60  1  0  0  0
 59 61  1  0  0  0
 59 62  1  0  0  0
 60129  1  0  0  0
 60130  1  0  0  0
 60131  1  0  0  0
 61132  1  0  0  0
 61133  1  0  0  0
 61134  1  0  0  0
 62135  1  0  0  0
 62136  1  0  0  0
 62137  1  0  0  0
 63 65  1  0  0  0
 63138  1  0  0  0
 63139  1  0  0  0
 63140  1  0  0  0
 64141  1  0  0  0
 65142  1  0  0  0
 68 81  1  0  0  0
 71 73  1  0  0  0
 71 75  1  0  0  0
 71143  1  0  0  0
 71144  1  0  0  0
 72 74  1  0  0  0
 72 75  1  0  0  0
 72145  1  0  0  0
 72146  1  0  0  0
 73147  1  0  0  0
 73148  1  0  0  0
 73 76  1  0  0  0
 74 76  1  0  0  0
 74149  1  0  0  0
 74150  1  0  0  0
 75 79  1  0  0  0
 75151  1  0  0  0
 76 82  1  0  0  0
 76152  1  0  0  0
 77153  1  0  0  0
 77154  1  0  0  0
 77155  1  0  0  0
 77 82  1  0  0  0
 78 83  1  0  0  0
 78156  1  0  0  0
 78157  1  0  0  0
 78158  1  0  0  0
 79 80  1  0  0  0
 79159  1  0  0  0
 79160  1  0  0  0
 80 83  1  0  0  0
 80161  1  0  0  0
 80162  1  0  0  0
 81 82  1  0  0  0
 81163  1  0  0  0
 81164  1  0  0  0
 82165  1  0  0  0
M  ISO  4   1 100  68 101  81 101  83 100
M  END
> <chiral flag>
0

> <version>
0

> <s_m_source_file>
/data/baiqing/PycharmProjects/Reinvent-master-3.2/result/LINK_invent/BTK/process_docking_weight1_custom_sum_contain_oxygen_bond_distance_aromatic_linkinvent_7_9_3/rearranged_h_0100.sdf

> <i_m_source_file_index>
64

> <r_mmod_Potential_Energy-OPLS-2005>
345.760711669922

> <r_mmod_Stretch_Energy-OPLS-2005>
71.8774261474609

> <r_mmod_Bend_Energy-OPLS-2005>
140.929931640625

> <r_mmod_Torsional_Energy-OPLS-2005>
386.735717773438

> <r_mmod_Improper_Torsional_Energy-OPLS-2005>
23.4872093200684

> <r_mmod_Van_der_Waal_Energy-OPLS-2005>
138.556930541992

> <r_mmod_Electrostatic_Energy-OPLS-2005>
-283.347869873047

> <r_mmod_Solvation_Energy-OPLS-2005>
-179.495529174805

> <b_mmod_Minimization_Converged-OPLS-2005>
0

> <r_mmod_RMS_Derivative-OPLS-2005>
3.90666127204895

$$$$
64
                    3D
 Structure written by MMmdl.
169177  0  0  1  0            999 V2000
  -30.6207  -14.7290   20.4771 C   0  0  0  0  0  0
  -30.4273  -12.4477   19.4660 C   0  0  0  0  0  0
  -29.4996  -12.5096   18.2345 C   0  0  0  0  0  0
  -28.0303  -12.3287   18.6560 C   0  0  0  0  0  0
  -27.6413  -13.2301   19.8556 C   0  0  2  0  0  0
  -28.6883  -13.1562   20.9883 C   0  0  0  0  0  0
  -25.2520  -13.8207   20.5748 C   0  0  0  0  0  0
  -24.1813  -13.0450   20.9247 C   0  0  0  0  0  0
  -24.6401  -11.6919   20.8741 C   0  0  0  0  0  0
  -23.9083  -10.4302   21.0399 C   0  0  0  0  0  0
  -24.3640   -9.4228   21.9191 C   0  0  0  0  0  0
  -23.6305   -8.2261   22.0750 C   0  0  0  0  0  0
  -22.4281   -8.0308   21.3550 C   0  0  0  0  0  0
  -21.9928   -9.0270   20.4643 C   0  0  0  0  0  0
  -22.7246  -10.2162   20.3044 C   0  0  0  0  0  0
  -21.6860   -6.0740   22.5274 C   0  0  0  0  0  0
  -21.4002   -6.5630   23.8210 C   0  0  0  0  0  0
  -21.3676   -5.6789   24.9184 C   0  0  0  0  0  0
  -21.6062   -4.3046   24.7229 C   0  0  0  0  0  0
  -21.8815   -3.8140   23.4341 C   0  0  0  0  0  0
  -21.9200   -4.6966   22.3398 C   0  0  0  0  0  0
  -22.7821  -13.5209   21.1936 C   0  0  0  0  0  0
  -22.1660   -4.2155   21.0963 F   0  0  0  0  0  0
  -21.5669   -3.4520   25.7735 F   0  0  0  0  0  0
  -29.9884  -13.5077   20.4036 N   0  0  0  0  0  0
  -26.2950  -12.9411   20.3340 N   0  0  0  0  0  0
  -25.9326  -11.6554   20.5752 N   0  0  0  0  0  0
  -22.0483  -12.8142   22.0455 N   0  0  0  0  0  0
  -25.4209  -15.1928   20.4118 N   0  0  0  0  0  0
  -31.8075  -14.8305   20.1571 O   0  0  0  0  0  0
  -21.6664   -6.8894   21.4244 O   0  0  0  0  0  0
  -22.3492  -14.5534   20.6831 O   0  0  0  0  0  0
  -24.6303  -31.8545   23.1962 C   0  0  0  0  0  0
  -25.9123  -32.4753   23.8309 C   0  0  1  0  0  0
  -27.2205  -27.2686   20.1346 C   0  0  0  0  0  0
  -25.5924  -33.8561   24.2233 N   0  0  0  0  0  0
  -23.4268  -30.4763   21.5411 C   0  0  2  0  0  0
  -24.8757  -28.9236   20.1115 C   0  0  0  0  0  0
  -22.7497  -29.4588   22.4916 C   0  0  0  0  0  0
  -18.0282  -28.1395   22.8473 C   0  0  0  0  0  0
  -24.1498  -36.7281   23.2638 C   0  0  0  0  0  0
  -25.9710  -30.7739   21.3726 C   0  0  0  0  0  0
  -26.0459  -29.3955   20.7181 C   0  0  0  0  0  0
  -27.2251  -28.5843   20.7121 C   0  0  0  0  0  0
  -26.0283  -26.8634   19.4966 C   0  0  0  0  0  0
  -24.8715  -27.6665   19.4880 C   0  0  0  0  0  0
  -23.6452  -29.8091   20.1578 C   0  0  0  0  0  0
  -25.4129  -36.3068   24.0316 C   0  0  1  0  0  0
  -20.5876  -28.3698   23.1281 C   0  0  2  0  0  0
  -20.6771  -26.9422   22.5414 C   0  0  0  0  0  0
  -19.5752  -26.6386   21.5211 C   0  0  0  0  0  0
  -18.1928  -26.7934   22.1610 C   0  0  0  0  0  0
  -19.1530  -28.8862   23.2865 C   0  0  0  0  0  0
  -18.9451  -30.1465   23.8889 C   0  0  0  0  0  0
  -17.6451  -30.6590   24.0566 C   0  0  0  0  0  0
  -25.9063  -34.9435   23.5079 C   0  0  0  0  0  0
  -16.5344  -29.9095   23.6338 C   0  0  0  0  0  0
  -16.7264  -28.6514   23.0347 C   0  0  0  0  0  0
  -26.4490  -31.6567   25.0690 C   0  0  0  0  0  0
  -25.3708  -31.3700   26.1405 C   0  0  0  0  0  0
  -27.0322  -30.2985   24.6142 C   0  0  0  0  0  0
  -27.6044  -32.4305   25.7469 C   0  0  0  0  0  0
  -27.5589  -37.1799   24.8461 C   0  0  0  0  0  0
  -21.4203  -29.3039   22.3687 N   0  0  0  0  0  0
  -26.4305  -37.3773   23.9395 N   0  0  0  0  0  0
  -24.6951  -31.0521   22.0938 N   0  0  0  0  0  0
  -23.4199  -28.8139   23.3034 O   0  0  0  0  0  0
  -28.3268  -26.3925   20.1534 O   0  0  0  0  0  0
  -26.5659  -34.8912   22.4660 O   0  0  0  0  0  0
  -23.5449  -32.1361   23.7260 O   0  0  0  0  0  0
  -28.8623  -21.1495   20.0067 C   0  0  0  0  0  0
  -29.4883  -20.0930   20.6732 C   0  0  0  0  0  0
  -30.3661  -20.7768   21.5860 C   0  0  0  0  0  0
  -30.2004  -22.1551   21.4629 C   0  0  0  0  0  0
  -31.3289  -20.0934   22.5314 C   0  0  0  0  0  0
  -29.7006  -22.9509   17.3827 C   0  0  0  0  0  0
  -32.3151  -23.5234   21.7475 C   0  0  0  0  0  0
  -30.7461  -23.1996   23.7417 C   0  0  0  0  0  0
  -29.2208  -18.5168   20.4794 C   0  0  0  0  0  0
  -28.6992  -23.7174   18.2690 C   0  0  0  0  0  0
  -30.2940  -17.3382   20.7898 C   0  0  0  0  0  0
  -28.1332  -24.9330   20.4837 C   0  0  0  0  0  0
  -30.8675  -23.2957   22.2099 C   0  0  0  0  0  0
  -29.0676  -23.8188   19.7693 C   0  0  1  0  0  0
  -29.3276  -22.4309   20.4047 N   0  0  0  0  0  0
  -29.8626  -15.8646   20.7183 N   0  0  0  0  0  0
  -31.4665  -12.5693   19.1572 H   0  0  0  0  0  0
  -30.3669  -11.4676   19.9415 H   0  0  0  0  0  0
  -29.7718  -11.7349   17.5179 H   0  0  0  0  0  0
  -29.6268  -13.4631   17.7196 H   0  0  0  0  0  0
  -27.8905  -11.2774   18.9142 H   0  0  0  0  0  0
  -27.3656  -12.5244   17.8148 H   0  0  0  0  0  0
  -27.6353  -14.2512   19.4757 H   0  0  0  0  0  0
  -28.7208  -12.1508   21.4124 H   0  0  0  0  0  0
  -28.4265  -13.8284   21.8066 H   0  0  0  0  0  0
  -25.2775   -9.5694   22.4782 H   0  0  0  0  0  0
  -24.0046   -7.4611   22.7405 H   0  0  0  0  0  0
  -21.0908   -8.8738   19.8886 H   0  0  0  0  0  0
  -22.3691  -10.9701   19.6158 H   0  0  0  0  0  0
  -21.1937   -7.6124   23.9697 H   0  0  0  0  0  0
  -21.1529   -6.0526   25.9091 H   0  0  0  0  0  0
  -22.0577   -2.7609   23.2820 H   0  0  0  0  0  0
  -22.4142  -11.9791   22.4793 H   0  0  0  0  0  0
  -21.1095  -13.1124   22.2699 H   0  0  0  0  0  0
  -24.6524  -15.8469   20.5180 H   0  0  0  0  0  0
  -26.2632  -15.6291   20.0591 H   0  0  0  0  0  0
  -26.7198  -32.5411   23.1061 H   0  0  0  0  0  0
  -25.0049  -33.9685   25.0362 H   0  0  0  0  0  0
  -22.7205  -31.2964   21.3931 H   0  0  0  0  0  0
  -23.3766  -35.9607   23.3289 H   0  0  0  0  0  0
  -24.3598  -36.8918   22.2052 H   0  0  0  0  0  0
  -23.7229  -37.6468   23.6681 H   0  0  0  0  0  0
  -26.1005  -31.5343   20.6013 H   0  0  0  0  0  0
  -26.8520  -30.8278   22.0005 H   0  0  0  0  0  0
  -28.1276  -28.9464   21.1843 H   0  0  0  0  0  0
  -25.9736  -25.9084   18.9947 H   0  0  0  0  0  0
  -23.9800  -27.3011   18.9982 H   0  0  0  0  0  0
  -23.7688  -30.5832   19.3993 H   0  0  0  0  0  0
  -22.7639  -29.2403   19.8551 H   0  0  0  0  0  0
  -25.1317  -36.1924   25.0809 H   0  0  0  0  0  0
  -20.9937  -28.3272   24.1408 H   0  0  0  0  0  0
  -20.5671  -26.2306   23.3613 H   0  0  0  0  0  0
  -21.6644  -26.7463   22.1204 H   0  0  0  0  0  0
  -19.6922  -25.6290   21.1253 H   0  0  0  0  0  0
  -19.6697  -27.3191   20.6733 H   0  0  0  0  0  0
  -17.4199  -26.6666   21.4016 H   0  0  0  0  0  0
  -18.0337  -26.0091   22.9016 H   0  0  0  0  0  0
  -19.7925  -30.7291   24.2245 H   0  0  0  0  0  0
  -17.5001  -31.6271   24.5172 H   0  0  0  0  0  0
  -15.5340  -30.2998   23.7662 H   0  0  0  0  0  0
  -15.8656  -28.0842   22.7056 H   0  0  0  0  0  0
  -24.5899  -30.7040   25.7713 H   0  0  0  0  0  0
  -24.8880  -32.2858   26.4826 H   0  0  0  0  0  0
  -25.8019  -30.8869   27.0180 H   0  0  0  0  0  0
  -26.2876  -29.6742   24.1186 H   0  0  0  0  0  0
  -27.4032  -29.7242   25.4638 H   0  0  0  0  0  0
  -27.8750  -30.4256   23.9345 H   0  0  0  0  0  0
  -27.2652  -33.3613   26.2028 H   0  0  0  0  0  0
  -28.3869  -32.6845   25.0307 H   0  0  0  0  0  0
  -28.0698  -31.8438   26.5395 H   0  0  0  0  0  0
  -28.2595  -38.0109   24.7544 H   0  0  0  0  0  0
  -28.1099  -36.2642   24.6268 H   0  0  0  0  0  0
  -27.2309  -37.1421   25.8864 H   0  0  0  0  0  0
  -20.9397  -29.8773   21.6893 H   0  0  0  0  0  0
  -26.0179  -38.2846   24.1417 H   0  0  0  0  0  0
  -28.1278  -21.0938   19.2153 H   0  0  0  0  0  0
  -31.8853  -19.3021   22.0299 H   0  0  0  0  0  0
  -30.7941  -19.6668   23.3791 H   0  0  0  0  0  0
  -32.0818  -20.7779   22.9149 H   0  0  0  0  0  0
  -29.4546  -23.0685   16.3261 H   0  0  0  0  0  0
  -29.7105  -21.8814   17.5892 H   0  0  0  0  0  0
  -30.7155  -23.3234   17.5240 H   0  0  0  0  0  0
  -32.3501  -23.7535   20.6815 H   0  0  0  0  0  0
  -32.9384  -22.6457   21.9142 H   0  0  0  0  0  0
  -32.7740  -24.3609   22.2747 H   0  0  0  0  0  0
  -29.7017  -23.1268   24.0485 H   0  0  0  0  0  0
  -31.1550  -24.0920   24.2186 H   0  0  0  0  0  0
  -31.2708  -22.3428   24.1576 H   0  0  0  0  0  0
  -28.9126  -18.3971   19.4404 H   0  0  0  0  0  0
  -28.3299  -18.3063   21.0696 H   0  0  0  0  0  0
  -27.7068  -23.2832   18.1589 H   0  0  0  0  0  0
  -28.6209  -24.7312   17.8750 H   0  0  0  0  0  0
  -31.1660  -17.4802   20.1478 H   0  0  0  0  0  0
  -30.6494  -17.4734   21.8091 H   0  0  0  0  0  0
  -28.2696  -24.8589   21.5629 H   0  0  0  0  0  0
  -27.0990  -24.6260   20.3362 H   0  0  0  0  0  0
  -30.3505  -24.2246   21.9826 H   0  0  0  0  0  0
  -30.0517  -24.2862   19.7557 H   0  0  0  0  0  0
  -28.8908  -15.6830   20.9218 H   0  0  0  0  0  0
  1 25  1  0  0  0
  1 30  2  0  0  0
  1 86  1  0  0  0
  2  3  1  0  0  0
  2 25  1  0  0  0
  2 87  1  0  0  0
  2 88  1  0  0  0
  3  4  1  0  0  0
  3 89  1  0  0  0
  3 90  1  0  0  0
  4  5  1  0  0  0
  4 91  1  0  0  0
  4 92  1  0  0  0
  5  6  1  0  0  0
  5 26  1  0  0  0
  5 93  1  0  0  0
  6 25  1  0  0  0
  6 94  1  0  0  0
  6 95  1  0  0  0
  7  8  2  0  0  0
  7 26  1  0  0  0
  7 29  1  0  0  0
  8  9  1  0  0  0
  8 22  1  0  0  0
  9 10  1  0  0  0
  9 27  2  0  0  0
 10 11  2  0  0  0
 10 15  1  0  0  0
 11 12  1  0  0  0
 11 96  1  0  0  0
 12 13  2  0  0  0
 12 97  1  0  0  0
 13 14  1  0  0  0
 13 31  1  0  0  0
 14 15  2  0  0  0
 14 98  1  0  0  0
 15 99  1  0  0  0
 16 17  2  0  0  0
 16 21  1  0  0  0
 16 31  1  0  0  0
 17 18  1  0  0  0
 17100  1  0  0  0
 18 19  2  0  0  0
 18101  1  0  0  0
 19 20  1  0  0  0
 19 24  1  0  0  0
 20 21  2  0  0  0
 20102  1  0  0  0
 21 23  1  0  0  0
 22 28  1  0  0  0
 22 32  2  0  0  0
 26 27  1  0  0  0
 28103  1  0  0  0
 28104  1  0  0  0
 29105  1  0  0  0
 29106  1  0  0  0
 33 34  1  0  0  0
 33 66  1  0  0  0
 33 70  2  0  0  0
 34 36  1  0  0  0
 34 59  1  0  0  0
 34107  1  0  0  0
 35 44  2  0  0  0
 35 45  1  0  0  0
 35 68  1  0  0  0
 36 56  1  0  0  0
 36108  1  0  0  0
 37 39  1  0  0  0
 37 47  1  0  0  0
 37 66  1  0  0  0
 37109  1  0  0  0
 38 43  2  0  0  0
 38 46  1  0  0  0
 38 47  1  0  0  0
 39 64  1  0  0  0
 39 67  2  0  0  0
 40 52  1  0  0  0
 40 53  2  0  0  0
 40 58  1  0  0  0
 41110  1  0  0  0
 41111  1  0  0  0
 41112  1  0  0  0
 41 48  1  0  0  0
 42 43  1  0  0  0
 42 66  1  0  0  0
 42113  1  0  0  0
 42114  1  0  0  0
 43 44  1  0  0  0
 44115  1  0  0  0
 45 46  2  0  0  0
 45116  1  0  0  0
 46117  1  0  0  0
 47118  1  0  0  0
 47119  1  0  0  0
 48 56  1  0  0  0
 48 65  1  0  0  0
 48120  1  0  0  0
 49 50  1  0  0  0
 49 53  1  0  0  0
 49 64  1  0  0  0
 49121  1  0  0  0
 50 51  1  0  0  0
 50122  1  0  0  0
 50123  1  0  0  0
 51 52  1  0  0  0
 51124  1  0  0  0
 51125  1  0  0  0
 52126  1  0  0  0
 52127  1  0  0  0
 53 54  1  0  0  0
 54 55  2  0  0  0
 54128  1  0  0  0
 55 57  1  0  0  0
 55129  1  0  0  0
 56 69  2  0  0  0
 57 58  2  0  0  0
 57130  1  0  0  0
 58131  1  0  0  0
 59 60  1  0  0  0
 59 61  1  0  0  0
 59 62  1  0  0  0
 60132  1  0  0  0
 60133  1  0  0  0
 60134  1  0  0  0
 61135  1  0  0  0
 61136  1  0  0  0
 61137  1  0  0  0
 62138  1  0  0  0
 62139  1  0  0  0
 62140  1  0  0  0
 63 65  1  0  0  0
 63141  1  0  0  0
 63142  1  0  0  0
 63143  1  0  0  0
 64144  1  0  0  0
 65145  1  0  0  0
 68 82  1  0  0  0
 71 72  2  0  0  0
 71 85  1  0  0  0
 71146  1  0  0  0
 72 73  1  0  0  0
 72 79  1  0  0  0
 73 74  2  0  0  0
 73 75  1  0  0  0
 74 83  1  0  0  0
 74 85  1  0  0  0
 75147  1  0  0  0
 75148  1  0  0  0
 75149  1  0  0  0
 76 80  1  0  0  0
 76150  1  0  0  0
 76151  1  0  0  0
 76152  1  0  0  0
 77153  1  0  0  0
 77154  1  0  0  0
 77155  1  0  0  0
 77 83  1  0  0  0
 78 83  1  0  0  0
 78156  1  0  0  0
 78157  1  0  0  0
 78158  1  0  0  0
 79 81  1  0  0  0
 79159  1  0  0  0
 79160  1  0  0  0
 80161  1  0  0  0
 80162  1  0  0  0
 80 84  1  0  0  0
 81 86  1  0  0  0
 81163  1  0  0  0
 81164  1  0  0  0
 82 84  1  0  0  0
 82165  1  0  0  0
 82166  1  0  0  0
 83167  1  0  0  0
 84 85  1  0  0  0
 84168  1  0  0  0
 86169  1  0  0  0
M  ISO  4   1 100  68 101  82 101  86 100
M  END
> <chiral flag>
0

> <version>
0

> <s_m_source_file>
/data/baiqing/PycharmProjects/Reinvent-master-3.2/result/LINK_invent/BTK/process_docking_weight1_custom_sum_contain_oxygen_bond_distance_aromatic_linkinvent_7_9_3/rearranged_h_0100.sdf

> <i_m_source_file_index>
65

> <r_mmod_Potential_Energy-OPLS-2005>
152.413772583008

> <r_mmod_Stretch_Energy-OPLS-2005>
128.976318359375

> <r_mmod_Bend_Energy-OPLS-2005>
181.583465576172

> <r_mmod_Torsional_Energy-OPLS-2005>
251.50830078125

> <r_mmod_Improper_Torsional_Energy-OPLS-2005>
4.88292646408081

> <r_mmod_Van_der_Waal_Energy-OPLS-2005>
115.043800354004

> <r_mmod_Electrostatic_Energy-OPLS-2005>
-401.568878173828

> <r_mmod_Solvation_Energy-OPLS-2005>
-205.45085144043

> <b_mmod_Minimization_Converged-OPLS-2005>
0

> <r_mmod_RMS_Derivative-OPLS-2005>
3.54448962211609

$$$$
65
                    3D
 Structure written by MMmdl.
164172  0  0  1  0            999 V2000
  -30.4169  -15.3614   20.3907 C   0  0  0  0  0  0
  -30.4380  -12.8844   19.5219 C   0  0  0  0  0  0
  -29.5360  -12.5950   18.2942 C   0  0  0  0  0  0
  -28.0960  -12.2844   18.7355 C   0  0  0  0  0  0
  -27.6073  -13.2760   19.8174 C   0  0  2  0  0  0
  -28.6389  -13.5071   20.9423 C   0  0  0  0  0  0
  -25.2391  -13.8246   20.5750 C   0  0  0  0  0  0
  -24.1736  -13.0450   20.9264 C   0  0  0  0  0  0
  -24.6384  -11.6947   20.8788 C   0  0  0  0  0  0
  -23.9074  -10.4306   21.0421 C   0  0  0  0  0  0
  -24.3621   -9.4220   21.9197 C   0  0  0  0  0  0
  -23.6289   -8.2260   22.0768 C   0  0  0  0  0  0
  -22.4260   -8.0304   21.3563 C   0  0  0  0  0  0
  -21.9909   -9.0280   20.4658 C   0  0  0  0  0  0
  -22.7247  -10.2150   20.3068 C   0  0  0  0  0  0
  -21.6854   -6.0750   22.5291 C   0  0  0  0  0  0
  -21.4021   -6.5648   23.8226 C   0  0  0  0  0  0
  -21.3659   -5.6795   24.9185 C   0  0  0  0  0  0
  -21.6046   -4.3063   24.7225 C   0  0  0  0  0  0
  -21.8814   -3.8155   23.4348 C   0  0  0  0  0  0
  -21.9189   -4.6979   22.3410 C   0  0  0  0  0  0
  -22.7754  -13.5226   21.1906 C   0  0  0  0  0  0
  -22.1659   -4.2173   21.0986 F   0  0  0  0  0  0
  -21.5615   -3.4536   25.7730 F   0  0  0  0  0  0
  -29.8519  -14.0454   20.2973 N   0  0  0  0  0  0
  -26.2799  -12.9511   20.3222 N   0  0  0  0  0  0
  -25.9307  -11.6621   20.5721 N   0  0  0  0  0  0
  -22.0383  -12.8231   22.0449 N   0  0  0  0  0  0
  -25.4060  -15.1983   20.4190 N   0  0  0  0  0  0
  -31.6535  -15.3219   20.2595 O   0  0  0  0  0  0
  -21.6638   -6.8895   21.4251 O   0  0  0  0  0  0
  -22.3466  -14.5539   20.6758 O   0  0  0  0  0  0
  -24.6656  -31.8188   23.1693 C   0  0  0  0  0  0
  -25.9317  -32.4566   23.8171 C   0  0  1  0  0  0
  -27.2243  -26.8876   20.2160 C   0  0  0  0  0  0
  -25.5973  -33.8386   24.2080 N   0  0  0  0  0  0
  -23.4833  -30.4269   21.5187 C   0  0  2  0  0  0
  -24.9394  -28.7995   20.1256 C   0  0  0  0  0  0
  -22.7677  -29.4409   22.4800 C   0  0  0  0  0  0
  -18.0315  -28.1401   22.8454 C   0  0  0  0  0  0
  -24.1488  -36.7199   23.2652 C   0  0  0  0  0  0
  -26.0539  -30.6170   21.4023 C   0  0  0  0  0  0
  -26.1249  -29.1986   20.7571 C   0  0  0  0  0  0
  -27.2644  -28.2691   20.7643 C   0  0  0  0  0  0
  -26.0053  -26.6429   19.5456 C   0  0  0  0  0  0
  -24.9071  -27.5431   19.4983 C   0  0  0  0  0  0
  -23.7280  -29.7335   20.1486 C   0  0  0  0  0  0
  -25.4130  -36.2964   24.0304 C   0  0  1  0  0  0
  -20.5941  -28.3742   23.1187 C   0  0  2  0  0  0
  -20.6788  -26.9423   22.5401 C   0  0  0  0  0  0
  -19.5765  -26.6363   21.5204 C   0  0  0  0  0  0
  -18.1944  -26.7936   22.1616 C   0  0  0  0  0  0
  -19.1581  -28.8892   23.2806 C   0  0  0  0  0  0
  -18.9489  -30.1485   23.8845 C   0  0  0  0  0  0
  -17.6480  -30.6590   24.0540 C   0  0  0  0  0  0
  -25.9080  -34.9339   23.5008 C   0  0  0  0  0  0
  -16.5371  -29.9072   23.6352 C   0  0  0  0  0  0
  -16.7292  -28.6497   23.0362 C   0  0  0  0  0  0
  -26.4568  -31.6534   25.0711 C   0  0  0  0  0  0
  -25.3693  -31.3819   26.1371 C   0  0  0  0  0  0
  -27.0460  -30.2896   24.6461 C   0  0  0  0  0  0
  -27.6058  -32.4350   25.7511 C   0  0  0  0  0  0
  -27.5565  -37.1763   24.8474 C   0  0  0  0  0  0
  -21.4345  -29.3026   22.3541 N   0  0  0  0  0  0
  -26.4284  -37.3696   23.9389 N   0  0  0  0  0  0
  -24.7564  -30.9815   22.0850 N   0  0  0  0  0  0
  -23.4204  -28.7981   23.3055 O   0  0  0  0  0  0
  -28.2585  -25.8006   20.1990 O   0  0  0  0  0  0
  -26.5692  -34.8876   22.4606 O   0  0  0  0  0  0
  -23.5706  -32.1174   23.6754 O   0  0  0  0  0  0
  -30.1891  -21.0731   21.4868 C   0  0  0  0  0  0
  -29.0425  -19.5106   20.0999 C   0  0  0  0  0  0
  -29.1946  -21.0070   20.4971 C   0  0  0  0  0  0
  -30.9220  -19.9402   21.9520 C   0  0  0  0  0  0
  -29.8040  -18.2617   20.6208 C   0  0  0  0  0  0
  -27.3520  -22.2152   19.0663 C   0  0  0  0  0  0
  -29.7193  -22.9545   18.8710 C   0  0  0  0  0  0
  -32.3125  -21.6034   23.3699 C   0  0  0  0  0  0
  -33.3923  -19.5959   22.3826 C   0  0  0  0  0  0
  -31.7244  -19.3605   24.2826 C   0  0  0  0  0  0
  -28.2092  -24.1800   20.6229 C   0  0  0  0  0  0
  -28.6155  -22.5613   19.8652 C   0  0  0  0  0  0
  -32.0663  -20.1206   22.9820 C   0  0  0  0  0  0
  -30.7266  -18.6422   21.5431 N   0  0  0  0  0  0
  -29.6491  -16.6540   20.3377 N   0  0  0  0  0  0
  -31.4474  -13.1134   19.1759 H   0  0  0  0  0  0
  -30.5359  -11.9985   20.1532 H   0  0  0  0  0  0
  -29.9363  -11.7660   17.7098 H   0  0  0  0  0  0
  -29.5324  -13.4648   17.6355 H   0  0  0  0  0  0
  -28.0863  -11.2715   19.1410 H   0  0  0  0  0  0
  -27.4210  -12.2843   17.8787 H   0  0  0  0  0  0
  -27.5025  -14.2234   19.2888 H   0  0  0  0  0  0
  -28.8367  -12.5930   21.5055 H   0  0  0  0  0  0
  -28.2558  -14.2348   21.6588 H   0  0  0  0  0  0
  -25.2758   -9.5692   22.4794 H   0  0  0  0  0  0
  -23.9998   -7.4641   22.7485 H   0  0  0  0  0  0
  -21.0842   -8.8803   19.8962 H   0  0  0  0  0  0
  -22.3704  -10.9701   19.6197 H   0  0  0  0  0  0
  -21.2025   -7.6154   23.9744 H   0  0  0  0  0  0
  -21.1480   -6.0518   25.9096 H   0  0  0  0  0  0
  -22.0585   -2.7618   23.2839 H   0  0  0  0  0  0
  -22.3959  -11.9869   22.4824 H   0  0  0  0  0  0
  -21.1026  -13.1326   22.2689 H   0  0  0  0  0  0
  -24.6363  -15.8492   20.5230 H   0  0  0  0  0  0
  -26.2457  -15.6367   20.0656 H   0  0  0  0  0  0
  -26.7386  -32.5104   23.0886 H   0  0  0  0  0  0
  -25.0101  -33.9457   25.0218 H   0  0  0  0  0  0
  -22.7991  -31.2596   21.3403 H   0  0  0  0  0  0
  -23.3744  -35.9536   23.3333 H   0  0  0  0  0  0
  -24.3552  -36.8812   22.2060 H   0  0  0  0  0  0
  -23.7251  -37.6401   23.6685 H   0  0  0  0  0  0
  -26.2245  -31.3542   20.6166 H   0  0  0  0  0  0
  -26.9168  -30.6867   22.0529 H   0  0  0  0  0  0
  -28.1739  -28.5841   21.2580 H   0  0  0  0  0  0
  -25.8837  -25.6835   19.0624 H   0  0  0  0  0  0
  -24.0103  -27.2309   18.9819 H   0  0  0  0  0  0
  -23.8884  -30.4964   19.3850 H   0  0  0  0  0  0
  -22.8384  -29.1862   19.8321 H   0  0  0  0  0  0
  -25.1329  -36.1781   25.0799 H   0  0  0  0  0  0
  -21.0010  -28.3331   24.1317 H   0  0  0  0  0  0
  -20.5640  -26.2354   23.3632 H   0  0  0  0  0  0
  -21.6653  -26.7370   22.1228 H   0  0  0  0  0  0
  -19.6912  -25.6254   21.1270 H   0  0  0  0  0  0
  -19.6708  -27.3143   20.6709 H   0  0  0  0  0  0
  -17.4211  -26.6666   21.4023 H   0  0  0  0  0  0
  -18.0346  -26.0088   22.9026 H   0  0  0  0  0  0
  -19.7964  -30.7312   24.2197 H   0  0  0  0  0  0
  -17.5028  -31.6274   24.5135 H   0  0  0  0  0  0
  -15.5371  -30.2945   23.7706 H   0  0  0  0  0  0
  -15.8699  -28.0786   22.7114 H   0  0  0  0  0  0
  -24.5860  -30.7177   25.7706 H   0  0  0  0  0  0
  -24.8894  -32.3033   26.4685 H   0  0  0  0  0  0
  -25.7913  -30.9066   27.0232 H   0  0  0  0  0  0
  -26.3137  -29.6574   24.1422 H   0  0  0  0  0  0
  -27.3937  -29.7269   25.5136 H   0  0  0  0  0  0
  -27.9102  -30.4081   23.9919 H   0  0  0  0  0  0
  -27.2631  -33.3695   26.1977 H   0  0  0  0  0  0
  -28.3935  -32.6841   25.0386 H   0  0  0  0  0  0
  -28.0657  -31.8547   26.5523 H   0  0  0  0  0  0
  -28.2609  -38.0036   24.7453 H   0  0  0  0  0  0
  -28.1031  -36.2548   24.6387 H   0  0  0  0  0  0
  -27.2261  -37.1523   25.8877 H   0  0  0  0  0  0
  -20.9605  -29.8730   21.6679 H   0  0  0  0  0  0
  -26.0139  -38.2760   24.1367 H   0  0  0  0  0  0
  -30.4210  -22.0647   21.8433 H   0  0  0  0  0  0
  -28.3185  -19.3134   19.3232 H   0  0  0  0  0  0
  -27.5445  -21.4466   18.3173 H   0  0  0  0  0  0
  -26.9561  -23.0897   18.5501 H   0  0  0  0  0  0
  -26.5689  -21.8397   19.7250 H   0  0  0  0  0  0
  -29.9376  -22.1458   18.1726 H   0  0  0  0  0  0
  -30.6450  -23.1921   19.3969 H   0  0  0  0  0  0
  -29.4374  -23.8321   18.2875 H   0  0  0  0  0  0
  -32.6246  -22.2025   22.5128 H   0  0  0  0  0  0
  -33.1016  -21.6976   24.1162 H   0  0  0  0  0  0
  -31.4289  -22.0712   23.8057 H   0  0  0  0  0  0
  -33.6316  -20.1060   21.4484 H   0  0  0  0  0  0
  -33.3502  -18.5285   22.1637 H   0  0  0  0  0  0
  -34.2340  -19.7482   23.0596 H   0  0  0  0  0  0
  -30.7895  -19.7179   24.7185 H   0  0  0  0  0  0
  -32.5033  -19.4896   25.0354 H   0  0  0  0  0  0
  -31.6156  -18.2883   24.1107 H   0  0  0  0  0  0
  -28.8804  -24.1977   21.4823 H   0  0  0  0  0  0
  -27.2331  -24.0510   21.0920 H   0  0  0  0  0  0
  -28.6914  -16.4361   20.1103 H   0  0  0  0  0  0
  1 25  1  0  0  0
  1 30  2  0  0  0
  1 85  1  0  0  0
  2  3  1  0  0  0
  2 25  1  0  0  0
  2 86  1  0  0  0
  2 87  1  0  0  0
  3  4  1  0  0  0
  3 88  1  0  0  0
  3 89  1  0  0  0
  4  5  1  0  0  0
  4 90  1  0  0  0
  4 91  1  0  0  0
  5  6  1  0  0  0
  5 26  1  0  0  0
  5 92  1  0  0  0
  6 25  1  0  0  0
  6 93  1  0  0  0
  6 94  1  0  0  0
  7  8  2  0  0  0
  7 26  1  0  0  0
  7 29  1  0  0  0
  8  9  1  0  0  0
  8 22  1  0  0  0
  9 10  1  0  0  0
  9 27  2  0  0  0
 10 11  2  0  0  0
 10 15  1  0  0  0
 11 12  1  0  0  0
 11 95  1  0  0  0
 12 13  2  0  0  0
 12 96  1  0  0  0
 13 14  1  0  0  0
 13 31  1  0  0  0
 14 15  2  0  0  0
 14 97  1  0  0  0
 15 98  1  0  0  0
 16 17  2  0  0  0
 16 21  1  0  0  0
 16 31  1  0  0  0
 17 18  1  0  0  0
 17 99  1  0  0  0
 18 19  2  0  0  0
 18100  1  0  0  0
 19 20  1  0  0  0
 19 24  1  0  0  0
 20 21  2  0  0  0
 20101  1  0  0  0
 21 23  1  0  0  0
 22 28  1  0  0  0
 22 32  2  0  0  0
 26 27  1  0  0  0
 28102  1  0  0  0
 28103  1  0  0  0
 29104  1  0  0  0
 29105  1  0  0  0
 33 34  1  0  0  0
 33 66  1  0  0  0
 33 70  2  0  0  0
 34 36  1  0  0  0
 34 59  1  0  0  0
 34106  1  0  0  0
 35 44  2  0  0  0
 35 45  1  0  0  0
 35 68  1  0  0  0
 36 56  1  0  0  0
 36107  1  0  0  0
 37 39  1  0  0  0
 37 47  1  0  0  0
 37 66  1  0  0  0
 37108  1  0  0  0
 38 43  2  0  0  0
 38 46  1  0  0  0
 38 47  1  0  0  0
 39 64  1  0  0  0
 39 67  2  0  0  0
 40 52  1  0  0  0
 40 53  2  0  0  0
 40 58  1  0  0  0
 41109  1  0  0  0
 41110  1  0  0  0
 41111  1  0  0  0
 41 48  1  0  0  0
 42 43  1  0  0  0
 42 66  1  0  0  0
 42112  1  0  0  0
 42113  1  0  0  0
 43 44  1  0  0  0
 44114  1  0  0  0
 45 46  2  0  0  0
 45115  1  0  0  0
 46116  1  0  0  0
 47117  1  0  0  0
 47118  1  0  0  0
 48 56  1  0  0  0
 48 65  1  0  0  0
 48119  1  0  0  0
 49 50  1  0  0  0
 49 53  1  0  0  0
 49 64  1  0  0  0
 49120  1  0  0  0
 50 51  1  0  0  0
 50121  1  0  0  0
 50122  1  0  0  0
 51 52  1  0  0  0
 51123  1  0  0  0
 51124  1  0  0  0
 52125  1  0  0  0
 52126  1  0  0  0
 53 54  1  0  0  0
 54 55  2  0  0  0
 54127  1  0  0  0
 55 57  1  0  0  0
 55128  1  0  0  0
 56 69  2  0  0  0
 57 58  2  0  0  0
 57129  1  0  0  0
 58130  1  0  0  0
 59 60  1  0  0  0
 59 61  1  0  0  0
 59 62  1  0  0  0
 60131  1  0  0  0
 60132  1  0  0  0
 60133  1  0  0  0
 61134  1  0  0  0
 61135  1  0  0  0
 61136  1  0  0  0
 62137  1  0  0  0
 62138  1  0  0  0
 62139  1  0  0  0
 63 65  1  0  0  0
 63140  1  0  0  0
 63141  1  0  0  0
 63142  1  0  0  0
 64143  1  0  0  0
 65144  1  0  0  0
 68 81  1  0  0  0
 71 73  2  0  0  0
 71 74  1  0  0  0
 71145  1  0  0  0
 72 73  1  0  0  0
 72 75  2  0  0  0
 72146  1  0  0  0
 73 82  1  0  0  0
 74 83  1  0  0  0
 74 84  2  0  0  0
 75 84  1  0  0  0
 75 85  1  0  0  0
 76147  1  0  0  0
 76148  1  0  0  0
 76149  1  0  0  0
 76 82  1  0  0  0
 77 82  1  0  0  0
 77150  1  0  0  0
 77151  1  0  0  0
 77152  1  0  0  0
 78153  1  0  0  0
 78154  1  0  0  0
 78155  1  0  0  0
 78 83  1  0  0  0
 79 83  1  0  0  0
 79156  1  0  0  0
 79157  1  0  0  0
 79158  1  0  0  0
 80 83  1  0  0  0
 80159  1  0  0  0
 80160  1  0  0  0
 80161  1  0  0  0
 81 82  1  0  0  0
 81162  1  0  0  0
 81163  1  0  0  0
 85164  1  0  0  0
M  ISO  4   1 100  68 101  81 101  85 100
M  END
> <chiral flag>
0

> <version>
0

> <s_m_source_file>
/data/baiqing/PycharmProjects/Reinvent-master-3.2/result/LINK_invent/BTK/process_docking_weight1_custom_sum_contain_oxygen_bond_distance_aromatic_linkinvent_7_9_3/rearranged_h_0100.sdf

> <i_m_source_file_index>
66

> <r_mmod_Potential_Energy-OPLS-2005>
1259.6494140625

> <r_mmod_Stretch_Energy-OPLS-2005>
660.007629394531

> <r_mmod_Bend_Energy-OPLS-2005>
482.286376953125

> <r_mmod_Torsional_Energy-OPLS-2005>
237.432205200195

> <r_mmod_Improper_Torsional_Energy-OPLS-2005>
8.70512676239014

> <r_mmod_Van_der_Waal_Energy-OPLS-2005>
130.222030639648

> <r_mmod_Electrostatic_Energy-OPLS-2005>
-575.436462402344

> <r_mmod_Solvation_Energy-OPLS-2005>
-218.874130249023

> <b_mmod_Minimization_Converged-OPLS-2005>
0

> <r_mmod_RMS_Derivative-OPLS-2005>
3.1425986289978

$$$$
66
                    3D
 Structure written by MMmdl.
170178  0  0  1  0            999 V2000
  -30.6791  -14.5952   20.5305 C   0  0  0  0  0  0
  -30.4271  -12.3790   19.4408 C   0  0  0  0  0  0
  -29.4972  -12.5000   18.2152 C   0  0  0  0  0  0
  -28.0219  -12.3432   18.6331 C   0  0  0  0  0  0
  -27.6503  -13.2190   19.8598 C   0  0  2  0  0  0
  -28.6979  -13.0849   20.9877 C   0  0  0  0  0  0
  -25.2541  -13.8178   20.5691 C   0  0  0  0  0  0
  -24.1818  -13.0436   20.9199 C   0  0  0  0  0  0
  -24.6394  -11.6909   20.8749 C   0  0  0  0  0  0
  -23.9064  -10.4290   21.0410 C   0  0  0  0  0  0
  -24.3616   -9.4206   21.9189 C   0  0  0  0  0  0
  -23.6293   -8.2240   22.0755 C   0  0  0  0  0  0
  -22.4276   -8.0278   21.3547 C   0  0  0  0  0  0
  -21.9912   -9.0251   20.4646 C   0  0  0  0  0  0
  -22.7237  -10.2131   20.3058 C   0  0  0  0  0  0
  -21.6853   -6.0734   22.5280 C   0  0  0  0  0  0
  -21.4011   -6.5637   23.8211 C   0  0  0  0  0  0
  -21.3659   -5.6792   24.9175 C   0  0  0  0  0  0
  -21.6044   -4.3054   24.7229 C   0  0  0  0  0  0
  -21.8819   -3.8145   23.4348 C   0  0  0  0  0  0
  -21.9193   -4.6961   22.3404 C   0  0  0  0  0  0
  -22.7839  -13.5226   21.1862 C   0  0  0  0  0  0
  -22.1662   -4.2146   21.0983 F   0  0  0  0  0  0
  -21.5631   -3.4539   25.7743 F   0  0  0  0  0  0
  -30.0124  -13.4074   20.4136 N   0  0  0  0  0  0
  -26.2976  -12.9366   20.3327 N   0  0  0  0  0  0
  -25.9323  -11.6517   20.5772 N   0  0  0  0  0  0
  -22.0482  -12.8211   22.0413 N   0  0  0  0  0  0
  -25.4236  -15.1897   20.4086 N   0  0  0  0  0  0
  -31.8413  -14.7275   20.1433 O   0  0  0  0  0  0
  -21.6641   -6.8876   21.4241 O   0  0  0  0  0  0
  -22.3524  -14.5537   20.6717 O   0  0  0  0  0  0
  -24.6247  -31.8627   23.2061 C   0  0  0  0  0  0
  -25.9108  -32.4793   23.8371 C   0  0  1  0  0  0
  -27.2211  -27.3388   20.1003 C   0  0  0  0  0  0
  -25.5946  -33.8595   24.2302 N   0  0  0  0  0  0
  -23.4158  -30.4904   21.5481 C   0  0  2  0  0  0
  -24.8596  -28.9535   20.1098 C   0  0  0  0  0  0
  -22.7466  -29.4641   22.4931 C   0  0  0  0  0  0
  -18.0293  -28.1370   22.8475 C   0  0  0  0  0  0
  -24.1494  -36.7288   23.2634 C   0  0  0  0  0  0
  -25.9578  -30.7971   21.3775 C   0  0  0  0  0  0
  -26.0291  -29.4281   20.7167 C   0  0  0  0  0  0
  -27.2105  -28.6304   20.7083 C   0  0  0  0  0  0
  -26.0253  -26.9218   19.4636 C   0  0  0  0  0  0
  -24.8584  -27.7035   19.4786 C   0  0  0  0  0  0
  -23.6285  -29.8325   20.1613 C   0  0  0  0  0  0
  -25.4118  -36.3089   24.0329 C   0  0  1  0  0  0
  -20.5892  -28.3678   23.1272 C   0  0  2  0  0  0
  -20.6789  -26.9400   22.5396 C   0  0  0  0  0  0
  -19.5768  -26.6367   21.5200 C   0  0  0  0  0  0
  -18.1943  -26.7910   22.1605 C   0  0  0  0  0  0
  -19.1545  -28.8839   23.2871 C   0  0  0  0  0  0
  -18.9471  -30.1445   23.8884 C   0  0  0  0  0  0
  -17.6473  -30.6576   24.0561 C   0  0  0  0  0  0
  -25.9055  -34.9463   23.5108 C   0  0  0  0  0  0
  -16.5365  -29.9072   23.6329 C   0  0  0  0  0  0
  -16.7280  -28.6492   23.0341 C   0  0  0  0  0  0
  -26.4501  -31.6588   25.0728 C   0  0  0  0  0  0
  -25.3740  -31.3722   26.1458 C   0  0  0  0  0  0
  -27.0349  -30.3018   24.6166 C   0  0  0  0  0  0
  -27.6060  -32.4324   25.7501 C   0  0  0  0  0  0
  -27.5587  -37.1801   24.8468 C   0  0  0  0  0  0
  -21.4181  -29.3049   22.3678 N   0  0  0  0  0  0
  -26.4297  -37.3785   23.9414 N   0  0  0  0  0  0
  -24.6846  -31.0664   22.1002 N   0  0  0  0  0  0
  -23.4205  -28.8168   23.2983 O   0  0  0  0  0  0
  -28.3445  -26.4969   20.1543 O   0  0  0  0  0  0
  -26.5606  -34.8922   22.4661 O   0  0  0  0  0  0
  -23.5414  -32.1412   23.7405 O   0  0  0  0  0  0
  -29.3783  -22.2759   16.6552 C   0  0  0  0  0  0
  -29.5569  -23.1470   17.7356 C   0  0  0  0  0  0
  -28.7175  -21.0549   16.8508 C   0  0  0  0  0  0
  -29.2020  -22.7776   19.0514 C   0  0  0  0  0  0
  -28.3510  -20.6545   18.1595 C   0  0  0  0  0  0
  -28.7898  -21.4078   19.2938 C   0  0  0  0  0  0
  -28.3870  -20.2110   15.6294 C   0  0  0  0  0  0
  -27.3535  -19.5074   18.2980 C   0  0  0  0  0  0
  -29.2316  -23.9654   20.0652 C   0  0  0  0  0  0
  -28.7736  -20.7798   20.7200 C   0  0  0  0  0  0
  -30.5150  -17.0026   21.4025 C   0  0  0  0  0  0
  -28.1713  -25.0974   19.7245 C   0  0  0  0  0  0
  -28.8856  -19.1960   20.9944 C   0  0  1  0  0  0
  -30.1993  -18.3644   20.6224 C   0  0  2  0  0  0
  -28.6311  -19.0734   22.4235 N   0  0  0  0  0  0
  -29.9639  -15.6835   20.9396 N   0  0  0  0  0  0
  -30.2852  -18.1139   19.1779 N   0  3  0  0  0  0
  -31.4690  -12.4895   19.1352 H   0  0  0  0  0  0
  -30.3513  -11.3861   19.8865 H   0  0  0  0  0  0
  -29.7552  -11.7449   17.4711 H   0  0  0  0  0  0
  -29.6421  -13.4678   17.7327 H   0  0  0  0  0  0
  -27.8577  -11.2906   18.8671 H   0  0  0  0  0  0
  -27.3649  -12.5724   17.7932 H   0  0  0  0  0  0
  -27.6658  -14.2534   19.5154 H   0  0  0  0  0  0
  -28.7039  -12.0700   21.3878 H   0  0  0  0  0  0
  -28.4504  -13.7361   21.8279 H   0  0  0  0  0  0
  -25.2763   -9.5684   22.4763 H   0  0  0  0  0  0
  -24.0006   -7.4631   22.7474 H   0  0  0  0  0  0
  -21.0847   -8.8767   19.8949 H   0  0  0  0  0  0
  -22.3700  -10.9671   19.6166 H   0  0  0  0  0  0
  -21.1996   -7.6143   23.9717 H   0  0  0  0  0  0
  -21.1482   -6.0521   25.9081 H   0  0  0  0  0  0
  -22.0597   -2.7607   23.2853 H   0  0  0  0  0  0
  -22.4097  -11.9866   22.4790 H   0  0  0  0  0  0
  -21.1098  -13.1228   22.2620 H   0  0  0  0  0  0
  -24.6536  -15.8408   20.5168 H   0  0  0  0  0  0
  -26.2686  -15.6304   20.0703 H   0  0  0  0  0  0
  -26.7166  -32.5465   23.1110 H   0  0  0  0  0  0
  -25.0169  -33.9758   25.0497 H   0  0  0  0  0  0
  -22.7086  -31.3111   21.4098 H   0  0  0  0  0  0
  -23.3772  -35.9608   23.3296 H   0  0  0  0  0  0
  -24.3586  -36.8902   22.2049 H   0  0  0  0  0  0
  -23.7229  -37.6482   23.6652 H   0  0  0  0  0  0
  -26.0939  -31.5632   20.6127 H   0  0  0  0  0  0
  -26.8369  -30.8391   22.0084 H   0  0  0  0  0  0
  -28.1058  -28.9908   21.1954 H   0  0  0  0  0  0
  -25.9485  -25.9777   18.9468 H   0  0  0  0  0  0
  -23.9626  -27.3360   18.9968 H   0  0  0  0  0  0
  -23.7473  -30.6136   19.4092 H   0  0  0  0  0  0
  -22.7474  -29.2648   19.8562 H   0  0  0  0  0  0
  -25.1292  -36.1947   25.0821 H   0  0  0  0  0  0
  -20.9993  -28.3245   24.1390 H   0  0  0  0  0  0
  -20.5694  -26.2283   23.3592 H   0  0  0  0  0  0
  -21.6657  -26.7430   22.1190 H   0  0  0  0  0  0
  -19.6944  -25.6279   21.1230 H   0  0  0  0  0  0
  -19.6715  -27.3180   20.6734 H   0  0  0  0  0  0
  -17.4217  -26.6660   21.4005 H   0  0  0  0  0  0
  -18.0346  -26.0041   22.8991 H   0  0  0  0  0  0
  -19.7956  -30.7263   24.2236 H   0  0  0  0  0  0
  -17.5033  -31.6256   24.5164 H   0  0  0  0  0  0
  -15.5367  -30.2979   23.7660 H   0  0  0  0  0  0
  -15.8674  -28.0820   22.7050 H   0  0  0  0  0  0
  -24.5931  -30.7045   25.7796 H   0  0  0  0  0  0
  -24.8915  -32.2889   26.4864 H   0  0  0  0  0  0
  -25.8070  -30.8924   27.0245 H   0  0  0  0  0  0
  -26.2922  -29.6762   24.1201 H   0  0  0  0  0  0
  -27.4079  -29.7270   25.4652 H   0  0  0  0  0  0
  -27.8771  -30.4318   23.9368 H   0  0  0  0  0  0
  -27.2674  -33.3637   26.2055 H   0  0  0  0  0  0
  -28.3885  -32.6861   25.0336 H   0  0  0  0  0  0
  -28.0706  -31.8460   26.5436 H   0  0  0  0  0  0
  -28.2591  -38.0113   24.7530 H   0  0  0  0  0  0
  -28.1094  -36.2643   24.6272 H   0  0  0  0  0  0
  -27.2305  -37.1419   25.8870 H   0  0  0  0  0  0
  -20.9346  -29.8786   21.6914 H   0  0  0  0  0  0
  -26.0178  -38.2857   24.1431 H   0  0  0  0  0  0
  -29.6577  -22.5968   15.6604 H   0  0  0  0  0  0
  -29.9433  -24.1378   17.5377 H   0  0  0  0  0  0
  -29.0119  -20.4873   14.7793 H   0  0  0  0  0  0
  -27.3464  -20.3524   15.3361 H   0  0  0  0  0  0
  -28.5541  -19.1515   15.8235 H   0  0  0  0  0  0
  -26.6324  -19.5235   17.4804 H   0  0  0  0  0  0
  -26.7454  -19.6188   19.1954 H   0  0  0  0  0  0
  -27.8230  -18.5267   18.2864 H   0  0  0  0  0  0
  -30.2323  -24.3982   20.0388 H   0  0  0  0  0  0
  -29.0822  -23.6090   21.0841 H   0  0  0  0  0  0
  -27.8524  -21.1460   21.1769 H   0  0  0  0  0  0
  -29.5808  -21.2638   21.2712 H   0  0  0  0  0  0
  -30.2687  -17.1031   22.4587 H   0  0  0  0  0  0
  -31.6026  -16.9087   21.4198 H   0  0  0  0  0  0
  -27.2250  -24.7087   20.1014 H   0  0  0  0  0  0
  -28.0692  -25.1531   18.6405 H   0  0  0  0  0  0
  -28.0403  -18.6736   20.5566 H   0  0  0  0  0  0
  -31.0299  -19.0330   20.8575 H   0  0  0  0  0  0
  -29.3931  -19.4859   22.9521 H   0  0  0  0  0  0
  -28.6250  -18.0971   22.6983 H   0  0  0  0  0  0
  -28.9981  -15.4990   21.1677 H   0  0  0  0  0  0
  -29.5831  -17.4580   18.8894 H   0  0  0  0  0  0
  -31.1868  -17.7283   18.9570 H   0  0  0  0  0  0
  -30.1771  -18.9752   18.6696 H   0  0  0  0  0  0
  1 25  1  0  0  0
  1 30  2  0  0  0
  1 86  1  0  0  0
  2  3  1  0  0  0
  2 25  1  0  0  0
  2 88  1  0  0  0
  2 89  1  0  0  0
  3  4  1  0  0  0
  3 90  1  0  0  0
  3 91  1  0  0  0
  4  5  1  0  0  0
  4 92  1  0  0  0
  4 93  1  0  0  0
  5  6  1  0  0  0
  5 26  1  0  0  0
  5 94  1  0  0  0
  6 25  1  0  0  0
  6 95  1  0  0  0
  6 96  1  0  0  0
  7  8  2  0  0  0
  7 26  1  0  0  0
  7 29  1  0  0  0
  8  9  1  0  0  0
  8 22  1  0  0  0
  9 10  1  0  0  0
  9 27  2  0  0  0
 10 11  2  0  0  0
 10 15  1  0  0  0
 11 12  1  0  0  0
 11 97  1  0  0  0
 12 13  2  0  0  0
 12 98  1  0  0  0
 13 14  1  0  0  0
 13 31  1  0  0  0
 14 15  2  0  0  0
 14 99  1  0  0  0
 15100  1  0  0  0
 16 17  2  0  0  0
 16 21  1  0  0  0
 16 31  1  0  0  0
 17 18  1  0  0  0
 17101  1  0  0  0
 18 19  2  0  0  0
 18102  1  0  0  0
 19 20  1  0  0  0
 19 24  1  0  0  0
 20 21  2  0  0  0
 20103  1  0  0  0
 21 23  1  0  0  0
 22 28  1  0  0  0
 22 32  2  0  0  0
 26 27  1  0  0  0
 28104  1  0  0  0
 28105  1  0  0  0
 29106  1  0  0  0
 29107  1  0  0  0
 33 34  1  0  0  0
 33 66  1  0  0  0
 33 70  2  0  0  0
 34 36  1  0  0  0
 34 59  1  0  0  0
 34108  1  0  0  0
 35 44  2  0  0  0
 35 45  1  0  0  0
 35 68  1  0  0  0
 36 56  1  0  0  0
 36109  1  0  0  0
 37 39  1  0  0  0
 37 47  1  0  0  0
 37 66  1  0  0  0
 37110  1  0  0  0
 38 43  2  0  0  0
 38 46  1  0  0  0
 38 47  1  0  0  0
 39 64  1  0  0  0
 39 67  2  0  0  0
 40 52  1  0  0  0
 40 53  2  0  0  0
 40 58  1  0  0  0
 41111  1  0  0  0
 41112  1  0  0  0
 41113  1  0  0  0
 41 48  1  0  0  0
 42 43  1  0  0  0
 42 66  1  0  0  0
 42114  1  0  0  0
 42115  1  0  0  0
 43 44  1  0  0  0
 44116  1  0  0  0
 45 46  2  0  0  0
 45117  1  0  0  0
 46118  1  0  0  0
 47119  1  0  0  0
 47120  1  0  0  0
 48 56  1  0  0  0
 48 65  1  0  0  0
 48121  1  0  0  0
 49 50  1  0  0  0
 49 53  1  0  0  0
 49 64  1  0  0  0
 49122  1  0  0  0
 50 51  1  0  0  0
 50123  1  0  0  0
 50124  1  0  0  0
 51 52  1  0  0  0
 51125  1  0  0  0
 51126  1  0  0  0
 52127  1  0  0  0
 52128  1  0  0  0
 53 54  1  0  0  0
 54 55  2  0  0  0
 54129  1  0  0  0
 55 57  1  0  0  0
 55130  1  0  0  0
 56 69  2  0  0  0
 57 58  2  0  0  0
 57131  1  0  0  0
 58132  1  0  0  0
 59 60  1  0  0  0
 59 61  1  0  0  0
 59 62  1  0  0  0
 60133  1  0  0  0
 60134  1  0  0  0
 60135  1  0  0  0
 61136  1  0  0  0
 61137  1  0  0  0
 61138  1  0  0  0
 62139  1  0  0  0
 62140  1  0  0  0
 62141  1  0  0  0
 63 65  1  0  0  0
 63142  1  0  0  0
 63143  1  0  0  0
 63144  1  0  0  0
 64145  1  0  0  0
 65146  1  0  0  0
 68 82  1  0  0  0
 71 72  2  0  0  0
 71 73  1  0  0  0
 71147  1  0  0  0
 72 74  1  0  0  0
 72148  1  0  0  0
 73 75  2  0  0  0
 73 77  1  0  0  0
 74 76  2  0  0  0
 74 79  1  0  0  0
 75 76  1  0  0  0
 75 78  1  0  0  0
 76 80  1  0  0  0
 77149  1  0  0  0
 77150  1  0  0  0
 77151  1  0  0  0
 78152  1  0  0  0
 78153  1  0  0  0
 78154  1  0  0  0
 79 82  1  0  0  0
 79155  1  0  0  0
 79156  1  0  0  0
 80 83  1  0  0  0
 80157  1  0  0  0
 80158  1  0  0  0
 81 84  1  0  0  0
 81 86  1  0  0  0
 81159  1  0  0  0
 81160  1  0  0  0
 82161  1  0  0  0
 82162  1  0  0  0
 83 84  1  0  0  0
 83 85  1  0  0  0
 83163  1  0  0  0
 84 87  1  0  0  0
 84164  1  0  0  0
 85165  1  0  0  0
 85166  1  0  0  0
 86167  1  0  0  0
 87168  1  0  0  0
 87169  1  0  0  0
 87170  1  0  0  0
M  CHG  1  87   1
M  ISO  4   1 100  68 101  82 101  86 100
M  END
> <chiral flag>
0

> <version>
0

> <s_m_source_file>
/data/baiqing/PycharmProjects/Reinvent-master-3.2/result/LINK_invent/BTK/process_docking_weight1_custom_sum_contain_oxygen_bond_distance_aromatic_linkinvent_7_9_3/rearranged_h_0100.sdf

> <i_m_source_file_index>
67

> <r_mmod_Potential_Energy-OPLS-2005>
-137.665924072266

> <r_mmod_Stretch_Energy-OPLS-2005>
85.7196273803711

> <r_mmod_Bend_Energy-OPLS-2005>
164.144470214844

> <r_mmod_Torsional_Energy-OPLS-2005>
305.30810546875

> <r_mmod_Improper_Torsional_Energy-OPLS-2005>
4.80846500396729

> <r_mmod_Van_der_Waal_Energy-OPLS-2005>
161.246520996094

> <r_mmod_Electrostatic_Energy-OPLS-2005>
-409.207427978516

> <r_mmod_Solvation_Energy-OPLS-2005>
-489.570709228516

> <b_mmod_Minimization_Converged-OPLS-2005>
0

> <r_mmod_RMS_Derivative-OPLS-2005>
1.01719784736633

$$$$
67
                    3D
 Structure written by MMmdl.
157164  0  0  1  0            999 V2000
  -30.5703  -14.8789   20.4313 C   0  0  0  0  0  0
  -30.4379  -12.5429   19.4861 C   0  0  0  0  0  0
  -29.5156  -12.5190   18.2462 C   0  0  0  0  0  0
  -28.0468  -12.3189   18.6655 C   0  0  0  0  0  0
  -27.6331  -13.2434   19.8410 C   0  0  2  0  0  0
  -28.6785  -13.2430   20.9766 C   0  0  0  0  0  0
  -25.2476  -13.8210   20.5712 C   0  0  0  0  0  0
  -24.1784  -13.0437   20.9219 C   0  0  0  0  0  0
  -24.6395  -11.6922   20.8750 C   0  0  0  0  0  0
  -23.9078  -10.4292   21.0404 C   0  0  0  0  0  0
  -24.3626   -9.4207   21.9183 C   0  0  0  0  0  0
  -23.6299   -8.2244   22.0755 C   0  0  0  0  0  0
  -22.4281   -8.0281   21.3546 C   0  0  0  0  0  0
  -21.9918   -9.0255   20.4648 C   0  0  0  0  0  0
  -22.7249  -10.2132   20.3056 C   0  0  0  0  0  0
  -21.6854   -6.0736   22.5279 C   0  0  0  0  0  0
  -21.4014   -6.5640   23.8212 C   0  0  0  0  0  0
  -21.3660   -5.6793   24.9175 C   0  0  0  0  0  0
  -21.6043   -4.3055   24.7225 C   0  0  0  0  0  0
  -21.8819   -3.8147   23.4346 C   0  0  0  0  0  0
  -21.9193   -4.6964   22.3402 C   0  0  0  0  0  0
  -22.7805  -13.5209   21.1879 C   0  0  0  0  0  0
  -22.1661   -4.2148   21.0980 F   0  0  0  0  0  0
  -21.5629   -3.4540   25.7738 F   0  0  0  0  0  0
  -29.9616  -13.6327   20.3792 N   0  0  0  0  0  0
  -26.2904  -12.9438   20.3261 N   0  0  0  0  0  0
  -25.9329  -11.6569   20.5747 N   0  0  0  0  0  0
  -22.0460  -12.8192   22.0435 N   0  0  0  0  0  0
  -25.4134  -15.1939   20.4165 N   0  0  0  0  0  0
  -31.7730  -14.9507   20.1629 O   0  0  0  0  0  0
  -21.6643   -6.8879   21.4241 O   0  0  0  0  0  0
  -22.3481  -14.5511   20.6725 O   0  0  0  0  0  0
  -24.6407  -31.8469   23.1909 C   0  0  0  0  0  0
  -25.9190  -32.4711   23.8288 C   0  0  1  0  0  0
  -27.2159  -27.1654   20.1442 C   0  0  0  0  0  0
  -25.5951  -33.8517   24.2205 N   0  0  0  0  0  0
  -23.4426  -30.4676   21.5364 C   0  0  2  0  0  0
  -24.8906  -28.9002   20.1101 C   0  0  0  0  0  0
  -22.7557  -29.4561   22.4873 C   0  0  0  0  0  0
  -18.0304  -28.1393   22.8482 C   0  0  0  0  0  0
  -24.1489  -36.7258   23.2642 C   0  0  0  0  0  0
  -25.9970  -30.7299   21.3853 C   0  0  0  0  0  0
  -26.0680  -29.3444   20.7256 C   0  0  0  0  0  0
  -27.2324  -28.4930   20.7254 C   0  0  0  0  0  0
  -26.0110  -26.8157   19.4936 C   0  0  0  0  0  0
  -24.8732  -27.6480   19.4803 C   0  0  0  0  0  0
  -23.6665  -29.7992   20.1546 C   0  0  0  0  0  0
  -25.4121  -36.3040   24.0319 C   0  0  1  0  0  0
  -20.5914  -28.3712   23.1244 C   0  0  2  0  0  0
  -20.6787  -26.9418   22.5405 C   0  0  0  0  0  0
  -19.5762  -26.6379   21.5213 C   0  0  0  0  0  0
  -18.1944  -26.7934   22.1624 C   0  0  0  0  0  0
  -19.1560  -28.8871   23.2856 C   0  0  0  0  0  0
  -18.9477  -30.1470   23.8876 C   0  0  0  0  0  0
  -17.6475  -30.6590   24.0561 C   0  0  0  0  0  0
  -25.9071  -34.9416   23.5067 C   0  0  0  0  0  0
  -16.5364  -29.9083   23.6338 C   0  0  0  0  0  0
  -16.7288  -28.6503   23.0358 C   0  0  0  0  0  0
  -26.4520  -31.6573   25.0720 C   0  0  0  0  0  0
  -25.3712  -31.3760   26.1419 C   0  0  0  0  0  0
  -27.0383  -30.2976   24.6283 C   0  0  0  0  0  0
  -27.6051  -32.4338   25.7504 C   0  0  0  0  0  0
  -27.5576  -37.1785   24.8467 C   0  0  0  0  0  0
  -21.4251  -29.3043   22.3620 N   0  0  0  0  0  0
  -26.4286  -37.3751   23.9412 N   0  0  0  0  0  0
  -24.7133  -31.0351   22.0930 N   0  0  0  0  0  0
  -23.4216  -28.8107   23.3009 O   0  0  0  0  0  0
  -28.2759  -26.1974   20.2137 O   0  0  0  0  0  0
  -26.5651  -34.8908   22.4643 O   0  0  0  0  0  0
  -23.5532  -32.1329   23.7147 O   0  0  0  0  0  0
  -27.9989  -18.6702   21.4353 C   0  0  0  0  0  0
  -28.3987  -18.8122   22.8980 C   0  0  0  0  0  0
  -28.4958  -18.6404   18.9593 C   0  0  0  0  0  0
  -28.5762  -21.7900   20.2304 C   0  0  0  0  0  0
  -29.0150  -23.4017   20.3640 C   0  0  0  0  0  0
  -29.5782  -20.4585   20.4342 C   0  0  0  0  0  0
  -30.1853  -17.5741   20.5555 C   0  0  0  0  0  0
  -27.9842  -24.6850   20.0734 C   0  0  0  0  0  0
  -29.1008  -18.8445   20.3660 C   0  0  1  0  0  0
  -29.7967  -16.0507   20.5770 N   0  0  0  0  0  0
  -26.8269  -18.4195   21.1411 O   0  0  0  0  0  0
  -31.4738  -12.6897   19.1762 H   0  0  0  0  0  0
  -30.4152  -11.5837   20.0057 H   0  0  0  0  0  0
  -29.8208  -11.7265   17.5616 H   0  0  0  0  0  0
  -29.6155  -13.4556   17.6955 H   0  0  0  0  0  0
  -27.9305  -11.2755   18.9608 H   0  0  0  0  0  0
  -27.3836  -12.4686   17.8127 H   0  0  0  0  0  0
  -27.6051  -14.2515   19.4264 H   0  0  0  0  0  0
  -28.7493  -12.2609   21.4463 H   0  0  0  0  0  0
  -28.3927  -13.9425   21.7639 H   0  0  0  0  0  0
  -25.2770   -9.5682   22.4761 H   0  0  0  0  0  0
  -24.0004   -7.4635   22.7476 H   0  0  0  0  0  0
  -21.0849   -8.8775   19.8954 H   0  0  0  0  0  0
  -22.3706  -10.9672   19.6167 H   0  0  0  0  0  0
  -21.2007   -7.6149   23.9714 H   0  0  0  0  0  0
  -21.1483   -6.0525   25.9077 H   0  0  0  0  0  0
  -22.0596   -2.7609   23.2846 H   0  0  0  0  0  0
  -22.4089  -11.9855   22.4816 H   0  0  0  0  0  0
  -21.1079  -13.1208   22.2652 H   0  0  0  0  0  0
  -24.6494  -15.8461   20.5560 H   0  0  0  0  0  0
  -26.2619  -15.6511   20.1104 H   0  0  0  0  0  0
  -26.7255  -32.5320   23.1018 H   0  0  0  0  0  0
  -25.0089  -33.9643   25.0344 H   0  0  0  0  0  0
  -22.7438  -31.2927   21.3846 H   0  0  0  0  0  0
  -23.3757  -35.9583   23.3294 H   0  0  0  0  0  0
  -24.3575  -36.8899   22.2059 H   0  0  0  0  0  0
  -23.7238  -37.6451   23.6681 H   0  0  0  0  0  0
  -26.1502  -31.4867   20.6149 H   0  0  0  0  0  0
  -26.8692  -30.7778   22.0259 H   0  0  0  0  0  0
  -28.1298  -28.8279   21.2265 H   0  0  0  0  0  0
  -25.9097  -25.8593   19.0044 H   0  0  0  0  0  0
  -23.9736  -27.3015   18.9900 H   0  0  0  0  0  0
  -23.8001  -30.5749   19.3997 H   0  0  0  0  0  0
  -22.7818  -29.2398   19.8447 H   0  0  0  0  0  0
  -25.1311  -36.1870   25.0812 H   0  0  0  0  0  0
  -21.0007  -28.3292   24.1364 H   0  0  0  0  0  0
  -20.5681  -26.2326   23.3622 H   0  0  0  0  0  0
  -21.6654  -26.7428   22.1200 H   0  0  0  0  0  0
  -19.6924  -25.6285   21.1255 H   0  0  0  0  0  0
  -19.6699  -27.3182   20.6737 H   0  0  0  0  0  0
  -17.4215  -26.6681   21.4026 H   0  0  0  0  0  0
  -18.0336  -26.0083   22.9024 H   0  0  0  0  0  0
  -19.7953  -30.7295   24.2229 H   0  0  0  0  0  0
  -17.5028  -31.6269   24.5167 H   0  0  0  0  0  0
  -15.5364  -30.2979   23.7677 H   0  0  0  0  0  0
  -15.8688  -28.0817   22.7078 H   0  0  0  0  0  0
  -24.5897  -30.7101   25.7744 H   0  0  0  0  0  0
  -24.8893  -32.2943   26.4784 H   0  0  0  0  0  0
  -25.8000  -30.8979   27.0235 H   0  0  0  0  0  0
  -26.2999  -29.6705   24.1277 H   0  0  0  0  0  0
  -27.3997  -29.7265   25.4845 H   0  0  0  0  0  0
  -27.8903  -30.4225   23.9598 H   0  0  0  0  0  0
  -27.2646  -33.3657   26.2028 H   0  0  0  0  0  0
  -28.3889  -32.6872   25.0353 H   0  0  0  0  0  0
  -28.0689  -31.8502   26.5466 H   0  0  0  0  0  0
  -28.2585  -38.0089   24.7511 H   0  0  0  0  0  0
  -28.1079  -36.2619   24.6292 H   0  0  0  0  0  0
  -27.2295  -37.1427   25.8870 H   0  0  0  0  0  0
  -20.9452  -29.8763   21.6812 H   0  0  0  0  0  0
  -26.0153  -38.2820   24.1416 H   0  0  0  0  0  0
  -29.4636  -19.0168   22.9984 H   0  0  0  0  0  0
  -28.1740  -17.8927   23.4375 H   0  0  0  0  0  0
  -27.8466  -19.6305   23.3588 H   0  0  0  0  0  0
  -27.6863  -19.3427   18.7572 H   0  0  0  0  0  0
  -28.0936  -17.6341   18.8340 H   0  0  0  0  0  0
  -29.2508  -18.7846   18.1864 H   0  0  0  0  0  0
  -28.1331  -21.6860   19.2398 H   0  0  0  0  0  0
  -27.7383  -21.6531   20.9145 H   0  0  0  0  0  0
  -29.8788  -23.5466   19.7149 H   0  0  0  0  0  0
  -29.4039  -23.5370   21.3733 H   0  0  0  0  0  0
  -30.0800  -20.5988   21.3920 H   0  0  0  0  0  0
  -30.3822  -20.5692   19.7060 H   0  0  0  0  0  0
  -30.7420  -17.7498   21.4767 H   0  0  0  0  0  0
  -30.9377  -17.6776   19.7726 H   0  0  0  0  0  0
  -27.1030  -24.4981   20.6885 H   0  0  0  0  0  0
  -27.6514  -24.5448   19.0451 H   0  0  0  0  0  0
  -28.8158  -15.8656   20.7230 H   0  0  0  0  0  0
  1 25  1  0  0  0
  1 30  2  0  0  0
  1 80  1  0  0  0
  2  3  1  0  0  0
  2 25  1  0  0  0
  2 82  1  0  0  0
  2 83  1  0  0  0
  3  4  1  0  0  0
  3 84  1  0  0  0
  3 85  1  0  0  0
  4  5  1  0  0  0
  4 86  1  0  0  0
  4 87  1  0  0  0
  5  6  1  0  0  0
  5 26  1  0  0  0
  5 88  1  0  0  0
  6 25  1  0  0  0
  6 89  1  0  0  0
  6 90  1  0  0  0
  7  8  2  0  0  0
  7 26  1  0  0  0
  7 29  1  0  0  0
  8  9  1  0  0  0
  8 22  1  0  0  0
  9 10  1  0  0  0
  9 27  2  0  0  0
 10 11  2  0  0  0
 10 15  1  0  0  0
 11 12  1  0  0  0
 11 91  1  0  0  0
 12 13  2  0  0  0
 12 92  1  0  0  0
 13 14  1  0  0  0
 13 31  1  0  0  0
 14 15  2  0  0  0
 14 93  1  0  0  0
 15 94  1  0  0  0
 16 17  2  0  0  0
 16 21  1  0  0  0
 16 31  1  0  0  0
 17 18  1  0  0  0
 17 95  1  0  0  0
 18 19  2  0  0  0
 18 96  1  0  0  0
 19 20  1  0  0  0
 19 24  1  0  0  0
 20 21  2  0  0  0
 20 97  1  0  0  0
 21 23  1  0  0  0
 22 28  1  0  0  0
 22 32  2  0  0  0
 26 27  1  0  0  0
 28 98  1  0  0  0
 28 99  1  0  0  0
 29100  1  0  0  0
 29101  1  0  0  0
 33 34  1  0  0  0
 33 66  1  0  0  0
 33 70  2  0  0  0
 34 36  1  0  0  0
 34 59  1  0  0  0
 34102  1  0  0  0
 35 44  2  0  0  0
 35 45  1  0  0  0
 35 68  1  0  0  0
 36 56  1  0  0  0
 36103  1  0  0  0
 37 39  1  0  0  0
 37 47  1  0  0  0
 37 66  1  0  0  0
 37104  1  0  0  0
 38 43  2  0  0  0
 38 46  1  0  0  0
 38 47  1  0  0  0
 39 64  1  0  0  0
 39 67  2  0  0  0
 40 52  1  0  0  0
 40 53  2  0  0  0
 40 58  1  0  0  0
 41105  1  0  0  0
 41106  1  0  0  0
 41107  1  0  0  0
 41 48  1  0  0  0
 42 43  1  0  0  0
 42 66  1  0  0  0
 42108  1  0  0  0
 42109  1  0  0  0
 43 44  1  0  0  0
 44110  1  0  0  0
 45 46  2  0  0  0
 45111  1  0  0  0
 46112  1  0  0  0
 47113  1  0  0  0
 47114  1  0  0  0
 48 56  1  0  0  0
 48 65  1  0  0  0
 48115  1  0  0  0
 49 50  1  0  0  0
 49 53  1  0  0  0
 49 64  1  0  0  0
 49116  1  0  0  0
 50 51  1  0  0  0
 50117  1  0  0  0
 50118  1  0  0  0
 51 52  1  0  0  0
 51119  1  0  0  0
 51120  1  0  0  0
 52121  1  0  0  0
 52122  1  0  0  0
 53 54  1  0  0  0
 54 55  2  0  0  0
 54123  1  0  0  0
 55 57  1  0  0  0
 55124  1  0  0  0
 56 69  2  0  0  0
 57 58  2  0  0  0
 57125  1  0  0  0
 58126  1  0  0  0
 59 60  1  0  0  0
 59 61  1  0  0  0
 59 62  1  0  0  0
 60127  1  0  0  0
 60128  1  0  0  0
 60129  1  0  0  0
 61130  1  0  0  0
 61131  1  0  0  0
 61132  1  0  0  0
 62133  1  0  0  0
 62134  1  0  0  0
 62135  1  0  0  0
 63 65  1  0  0  0
 63136  1  0  0  0
 63137  1  0  0  0
 63138  1  0  0  0
 64139  1  0  0  0
 65140  1  0  0  0
 68 78  1  0  0  0
 71 72  1  0  0  0
 71 81  2  0  0  0
 71 79  1  0  0  0
 72141  1  0  0  0
 72142  1  0  0  0
 72143  1  0  0  0
 73144  1  0  0  0
 73145  1  0  0  0
 73146  1  0  0  0
 73 79  1  0  0  0
 74 75  1  0  0  0
 74 76  1  0  0  0
 74147  1  0  0  0
 74148  1  0  0  0
 75 78  1  0  0  0
 75149  1  0  0  0
 75150  1  0  0  0
 76 79  1  0  0  0
 76151  1  0  0  0
 76152  1  0  0  0
 77 79  1  0  0  0
 77 80  1  0  0  0
 77153  1  0  0  0
 77154  1  0  0  0
 78155  1  0  0  0
 78156  1  0  0  0
 80157  1  0  0  0
M  ISO  4   1 100  68 101  78 101  80 100
M  END
> <chiral flag>
0

> <version>
0

> <s_m_source_file>
/data/baiqing/PycharmProjects/Reinvent-master-3.2/result/LINK_invent/BTK/process_docking_weight1_custom_sum_contain_oxygen_bond_distance_aromatic_linkinvent_7_9_3/rearranged_h_0100.sdf

> <i_m_source_file_index>
68

> <r_mmod_Potential_Energy-OPLS-2005>
373.914489746094

> <r_mmod_Stretch_Energy-OPLS-2005>
240.505462646484

> <r_mmod_Bend_Energy-OPLS-2005>
234.617111206055

> <r_mmod_Torsional_Energy-OPLS-2005>
197.965026855469

> <r_mmod_Improper_Torsional_Energy-OPLS-2005>
4.20859670639038

> <r_mmod_Van_der_Waal_Energy-OPLS-2005>
111.875411987305

> <r_mmod_Electrostatic_Energy-OPLS-2005>
-364.261688232422

> <r_mmod_Solvation_Energy-OPLS-2005>
-207.951721191406

> <b_mmod_Minimization_Converged-OPLS-2005>
0

> <r_mmod_RMS_Derivative-OPLS-2005>
0.401288419961929

$$$$
68
                    3D
 Structure written by MMmdl.
155163  0  0  1  0            999 V2000
  -30.4158  -15.3439   20.3584 C   0  0  0  0  0  0
  -30.4411  -12.8721   19.5009 C   0  0  0  0  0  0
  -29.5320  -12.5807   18.2804 C   0  0  0  0  0  0
  -28.0908  -12.2822   18.7296 C   0  0  0  0  0  0
  -27.6076  -13.2751   19.8141 C   0  0  2  0  0  0
  -28.6477  -13.4962   20.9316 C   0  0  0  0  0  0
  -25.2393  -13.8237   20.5775 C   0  0  0  0  0  0
  -24.1739  -13.0426   20.9274 C   0  0  0  0  0  0
  -24.6389  -11.6927   20.8768 C   0  0  0  0  0  0
  -23.9076  -10.4285   21.0399 C   0  0  0  0  0  0
  -24.3613   -9.4204   21.9184 C   0  0  0  0  0  0
  -23.6288   -8.2242   22.0758 C   0  0  0  0  0  0
  -22.4275   -8.0272   21.3541 C   0  0  0  0  0  0
  -21.9907   -9.0252   20.4648 C   0  0  0  0  0  0
  -22.7242  -10.2132   20.3058 C   0  0  0  0  0  0
  -21.6860   -6.0722   22.5275 C   0  0  0  0  0  0
  -21.4016   -6.5630   23.8198 C   0  0  0  0  0  0
  -21.3660   -5.6793   24.9163 C   0  0  0  0  0  0
  -21.6045   -4.3054   24.7228 C   0  0  0  0  0  0
  -21.8817   -3.8133   23.4349 C   0  0  0  0  0  0
  -21.9191   -4.6946   22.3401 C   0  0  0  0  0  0
  -22.7756  -13.5181   21.1922 C   0  0  0  0  0  0
  -22.1660   -4.2121   21.0984 F   0  0  0  0  0  0
  -21.5629   -3.4542   25.7749 F   0  0  0  0  0  0
  -29.8548  -14.0305   20.2730 N   0  0  0  0  0  0
  -26.2812  -12.9510   20.3233 N   0  0  0  0  0  0
  -25.9333  -11.6610   20.5737 N   0  0  0  0  0  0
  -22.0405  -12.8167   22.0471 N   0  0  0  0  0  0
  -25.4027  -15.1975   20.4224 N   0  0  0  0  0  0
  -31.6531  -15.3235   20.2740 O   0  0  0  0  0  0
  -21.6649   -6.8865   21.4238 O   0  0  0  0  0  0
  -22.3441  -14.5483   20.6765 O   0  0  0  0  0  0
  -24.6670  -31.8204   23.1634 C   0  0  0  0  0  0
  -25.9327  -32.4576   23.8126 C   0  0  1  0  0  0
  -27.2324  -26.8882   20.1934 C   0  0  0  0  0  0
  -25.5975  -33.8392   24.2030 N   0  0  0  0  0  0
  -23.4846  -30.4284   21.5155 C   0  0  2  0  0  0
  -24.9407  -28.8037   20.1202 C   0  0  0  0  0  0
  -22.7700  -29.4421   22.4763 C   0  0  0  0  0  0
  -18.0331  -28.1431   22.8456 C   0  0  0  0  0  0
  -24.1491  -36.7193   23.2652 C   0  0  0  0  0  0
  -26.0576  -30.6141   21.4010 C   0  0  0  0  0  0
  -26.1288  -29.1982   20.7496 C   0  0  0  0  0  0
  -27.2686  -28.2663   20.7546 C   0  0  0  0  0  0
  -26.0105  -26.6545   19.5214 C   0  0  0  0  0  0
  -24.9087  -27.5503   19.4875 C   0  0  0  0  0  0
  -23.7290  -29.7370   20.1469 C   0  0  0  0  0  0
  -25.4133  -36.2966   24.0305 C   0  0  1  0  0  0
  -20.5959  -28.3774   23.1181 C   0  0  2  0  0  0
  -20.6823  -26.9458   22.5397 C   0  0  0  0  0  0
  -19.5795  -26.6383   21.5227 C   0  0  0  0  0  0
  -18.1965  -26.7960   22.1614 C   0  0  0  0  0  0
  -19.1591  -28.8920   23.2804 C   0  0  0  0  0  0
  -18.9511  -30.1503   23.8853 C   0  0  0  0  0  0
  -17.6509  -30.6617   24.0556 C   0  0  0  0  0  0
  -25.9108  -34.9356   23.4990 C   0  0  0  0  0  0
  -16.5399  -29.9108   23.6354 C   0  0  0  0  0  0
  -16.7309  -28.6528   23.0365 C   0  0  0  0  0  0
  -26.4558  -31.6537   25.0666 C   0  0  0  0  0  0
  -25.3659  -31.3797   26.1298 C   0  0  0  0  0  0
  -27.0468  -30.2906   24.6425 C   0  0  0  0  0  0
  -27.6046  -32.4356   25.7462 C   0  0  0  0  0  0
  -27.5566  -37.1754   24.8472 C   0  0  0  0  0  0
  -21.4361  -29.3049   22.3514 N   0  0  0  0  0  0
  -26.4271  -37.3706   23.9422 N   0  0  0  0  0  0
  -24.7582  -30.9820   22.0800 N   0  0  0  0  0  0
  -23.4221  -28.8007   23.3030 O   0  0  0  0  0  0
  -28.2414  -25.7712   20.1922 O   0  0  0  0  0  0
  -26.5726  -34.8905   22.4592 O   0  0  0  0  0  0
  -23.5721  -32.1195   23.6692 O   0  0  0  0  0  0
  -29.9820  -20.2027   18.8977 C   0  0  0  0  0  0
  -29.9722  -21.5203   18.3605 C   0  0  0  0  0  0
  -29.4121  -19.8765   20.1442 C   0  0  0  0  0  0
  -28.7727  -21.1778   20.7130 C   0  0  0  0  0  0
  -28.7723  -22.6108   20.0917 C   0  0  0  0  0  0
  -26.5916  -21.4577   22.0393 C   0  0  0  0  0  0
  -28.8586  -21.5687   23.2263 C   0  0  0  0  0  0
  -29.7539  -18.2541   20.7862 C   0  0  0  0  0  0
  -27.9819  -24.1500   20.5064 C   0  0  0  0  0  0
  -28.0569  -20.9905   22.0516 C   0  0  0  0  0  0
  -29.4192  -22.6463   18.9032 N   0  0  0  0  0  0
  -29.6464  -16.6301   20.3278 N   0  0  0  0  0  0
  -31.4492  -13.1017   19.1512 H   0  0  0  0  0  0
  -30.5438  -11.9873   20.1316 H   0  0  0  0  0  0
  -29.9263  -11.7464   17.6988 H   0  0  0  0  0  0
  -29.5326  -13.4469   17.6166 H   0  0  0  0  0  0
  -28.0789  -11.2709   19.1377 H   0  0  0  0  0  0
  -27.4120  -12.2772   17.8766 H   0  0  0  0  0  0
  -27.5062  -14.2267   19.2915 H   0  0  0  0  0  0
  -28.8488  -12.5778   21.4851 H   0  0  0  0  0  0
  -28.2782  -14.2224   21.6578 H   0  0  0  0  0  0
  -25.2743   -9.5687   22.4779 H   0  0  0  0  0  0
  -23.9987   -7.4632   22.7486 H   0  0  0  0  0  0
  -21.0836   -8.8773   19.8958 H   0  0  0  0  0  0
  -22.3683  -10.9674   19.6180 H   0  0  0  0  0  0
  -21.2011   -7.6137   23.9690 H   0  0  0  0  0  0
  -21.1488   -6.0528   25.9066 H   0  0  0  0  0  0
  -22.0592   -2.7592   23.2869 H   0  0  0  0  0  0
  -22.4028  -11.9824   22.4844 H   0  0  0  0  0  0
  -21.1025  -13.1188   22.2679 H   0  0  0  0  0  0
  -24.6334  -15.8479   20.5416 H   0  0  0  0  0  0
  -26.2451  -15.6418   20.0834 H   0  0  0  0  0  0
  -26.7396  -32.5125   23.0839 H   0  0  0  0  0  0
  -25.0090  -33.9462   25.0157 H   0  0  0  0  0  0
  -22.8007  -31.2618   21.3367 H   0  0  0  0  0  0
  -23.3789  -35.9490   23.3283 H   0  0  0  0  0  0
  -24.3560  -36.8864   22.2072 H   0  0  0  0  0  0
  -23.7216  -37.6359   23.6728 H   0  0  0  0  0  0
  -26.2426  -31.3523   20.6192 H   0  0  0  0  0  0
  -26.9154  -30.6740   22.0582 H   0  0  0  0  0  0
  -28.1716  -28.5755   21.2621 H   0  0  0  0  0  0
  -25.8828  -25.7034   19.0246 H   0  0  0  0  0  0
  -24.0086  -27.2361   18.9763 H   0  0  0  0  0  0
  -23.8918  -30.5022   19.3867 H   0  0  0  0  0  0
  -22.8389  -29.1940   19.8245 H   0  0  0  0  0  0
  -25.1334  -36.1753   25.0797 H   0  0  0  0  0  0
  -21.0042  -28.3397   24.1310 H   0  0  0  0  0  0
  -20.5759  -26.2393   23.3629 H   0  0  0  0  0  0
  -21.6678  -26.7468   22.1177 H   0  0  0  0  0  0
  -19.6975  -25.6288   21.1273 H   0  0  0  0  0  0
  -19.6746  -27.3178   20.6751 H   0  0  0  0  0  0
  -17.4246  -26.6708   21.4005 H   0  0  0  0  0  0
  -18.0346  -26.0122   22.9026 H   0  0  0  0  0  0
  -19.7996  -30.7310   24.2211 H   0  0  0  0  0  0
  -17.5076  -31.6295   24.5165 H   0  0  0  0  0  0
  -15.5397  -30.3003   23.7711 H   0  0  0  0  0  0
  -15.8704  -28.0826   22.7128 H   0  0  0  0  0  0
  -24.5862  -30.7138   25.7572 H   0  0  0  0  0  0
  -24.8818  -32.3001   26.4585 H   0  0  0  0  0  0
  -25.7844  -30.9033   27.0166 H   0  0  0  0  0  0
  -26.3147  -29.6561   24.1413 H   0  0  0  0  0  0
  -27.4002  -29.7291   25.5083 H   0  0  0  0  0  0
  -27.9075  -30.4098   23.9836 H   0  0  0  0  0  0
  -27.2629  -33.3730   26.1863 H   0  0  0  0  0  0
  -28.3925  -32.6800   25.0323 H   0  0  0  0  0  0
  -28.0632  -31.8598   26.5508 H   0  0  0  0  0  0
  -28.2564  -38.0069   24.7531 H   0  0  0  0  0  0
  -28.1082  -36.2599   24.6286 H   0  0  0  0  0  0
  -27.2279  -37.1368   25.8873 H   0  0  0  0  0  0
  -20.9644  -29.8704   21.6594 H   0  0  0  0  0  0
  -26.0126  -38.2762   24.1449 H   0  0  0  0  0  0
  -30.4982  -19.4298   18.3440 H   0  0  0  0  0  0
  -30.4666  -21.6852   17.4139 H   0  0  0  0  0  0
  -26.0584  -21.0571   21.1764 H   0  0  0  0  0  0
  -26.4783  -22.5387   22.0313 H   0  0  0  0  0  0
  -26.0693  -21.1028   22.9278 H   0  0  0  0  0  0
  -29.8719  -21.1652   23.2497 H   0  0  0  0  0  0
  -28.3889  -21.3083   24.1755 H   0  0  0  0  0  0
  -28.9316  -22.6551   23.1840 H   0  0  0  0  0  0
  -29.2182  -18.2379   21.7323 H   0  0  0  0  0  0
  -30.7942  -18.3456   21.1012 H   0  0  0  0  0  0
  -27.9639  -24.1391   21.5947 H   0  0  0  0  0  0
  -26.9459  -23.9812   20.2168 H   0  0  0  0  0  0
  -27.9922  -19.9195   22.2285 H   0  0  0  0  0  0
  -28.6812  -16.4156   20.1278 H   0  0  0  0  0  0
  1 25  1  0  0  0
  1 30  2  0  0  0
  1 82  1  0  0  0
  2  3  1  0  0  0
  2 25  1  0  0  0
  2 83  1  0  0  0
  2 84  1  0  0  0
  3  4  1  0  0  0
  3 85  1  0  0  0
  3 86  1  0  0  0
  4  5  1  0  0  0
  4 87  1  0  0  0
  4 88  1  0  0  0
  5  6  1  0  0  0
  5 26  1  0  0  0
  5 89  1  0  0  0
  6 25  1  0  0  0
  6 90  1  0  0  0
  6 91  1  0  0  0
  7  8  2  0  0  0
  7 26  1  0  0  0
  7 29  1  0  0  0
  8  9  1  0  0  0
  8 22  1  0  0  0
  9 10  1  0  0  0
  9 27  2  0  0  0
 10 11  2  0  0  0
 10 15  1  0  0  0
 11 12  1  0  0  0
 11 92  1  0  0  0
 12 13  2  0  0  0
 12 93  1  0  0  0
 13 14  1  0  0  0
 13 31  1  0  0  0
 14 15  2  0  0  0
 14 94  1  0  0  0
 15 95  1  0  0  0
 16 17  2  0  0  0
 16 21  1  0  0  0
 16 31  1  0  0  0
 17 18  1  0  0  0
 17 96  1  0  0  0
 18 19  2  0  0  0
 18 97  1  0  0  0
 19 20  1  0  0  0
 19 24  1  0  0  0
 20 21  2  0  0  0
 20 98  1  0  0  0
 21 23  1  0  0  0
 22 28  1  0  0  0
 22 32  2  0  0  0
 26 27  1  0  0  0
 28 99  1  0  0  0
 28100  1  0  0  0
 29101  1  0  0  0
 29102  1  0  0  0
 33 34  1  0  0  0
 33 66  1  0  0  0
 33 70  2  0  0  0
 34 36  1  0  0  0
 34 59  1  0  0  0
 34103  1  0  0  0
 35 44  2  0  0  0
 35 45  1  0  0  0
 35 68  1  0  0  0
 36 56  1  0  0  0
 36104  1  0  0  0
 37 39  1  0  0  0
 37 47  1  0  0  0
 37 66  1  0  0  0
 37105  1  0  0  0
 38 43  2  0  0  0
 38 46  1  0  0  0
 38 47  1  0  0  0
 39 64  1  0  0  0
 39 67  2  0  0  0
 40 52  1  0  0  0
 40 53  2  0  0  0
 40 58  1  0  0  0
 41106  1  0  0  0
 41107  1  0  0  0
 41108  1  0  0  0
 41 48  1  0  0  0
 42 43  1  0  0  0
 42 66  1  0  0  0
 42109  1  0  0  0
 42110  1  0  0  0
 43 44  1  0  0  0
 44111  1  0  0  0
 45 46  2  0  0  0
 45112  1  0  0  0
 46113  1  0  0  0
 47114  1  0  0  0
 47115  1  0  0  0
 48 56  1  0  0  0
 48 65  1  0  0  0
 48116  1  0  0  0
 49 50  1  0  0  0
 49 53  1  0  0  0
 49 64  1  0  0  0
 49117  1  0  0  0
 50 51  1  0  0  0
 50118  1  0  0  0
 50119  1  0  0  0
 51 52  1  0  0  0
 51120  1  0  0  0
 51121  1  0  0  0
 52122  1  0  0  0
 52123  1  0  0  0
 53 54  1  0  0  0
 54 55  2  0  0  0
 54124  1  0  0  0
 55 57  1  0  0  0
 55125  1  0  0  0
 56 69  2  0  0  0
 57 58  2  0  0  0
 57126  1  0  0  0
 58127  1  0  0  0
 59 60  1  0  0  0
 59 61  1  0  0  0
 59 62  1  0  0  0
 60128  1  0  0  0
 60129  1  0  0  0
 60130  1  0  0  0
 61131  1  0  0  0
 61132  1  0  0  0
 61133  1  0  0  0
 62134  1  0  0  0
 62135  1  0  0  0
 62136  1  0  0  0
 63 65  1  0  0  0
 63137  1  0  0  0
 63138  1  0  0  0
 63139  1  0  0  0
 64140  1  0  0  0
 65141  1  0  0  0
 68 79  1  0  0  0
 71 72  2  0  0  0
 71 73  1  0  0  0
 71142  1  0  0  0
 72 81  1  0  0  0
 72143  1  0  0  0
 73 74  2  0  0  0
 73 78  1  0  0  0
 74 75  1  0  0  0
 74 80  1  0  0  0
 75 79  1  0  0  0
 75 81  2  0  0  0
 76144  1  0  0  0
 76145  1  0  0  0
 76146  1  0  0  0
 76 80  1  0  0  0
 77 80  1  0  0  0
 77147  1  0  0  0
 77148  1  0  0  0
 77149  1  0  0  0
 78 82  1  0  0  0
 78150  1  0  0  0
 78151  1  0  0  0
 79152  1  0  0  0
 79153  1  0  0  0
 80154  1  0  0  0
 82155  1  0  0  0
M  ISO  4   1 100  68 101  79 101  82 100
M  END
> <chiral flag>
0

> <version>
0

> <s_m_source_file>
/data/baiqing/PycharmProjects/Reinvent-master-3.2/result/LINK_invent/BTK/process_docking_weight1_custom_sum_contain_oxygen_bond_distance_aromatic_linkinvent_7_9_3/rearranged_h_0100.sdf

> <i_m_source_file_index>
69

> <r_mmod_Potential_Energy-OPLS-2005>
1235.88732910156

> <r_mmod_Stretch_Energy-OPLS-2005>
649.782836914062

> <r_mmod_Bend_Energy-OPLS-2005>
463.901977539062

> <r_mmod_Torsional_Energy-OPLS-2005>
239.272476196289

> <r_mmod_Improper_Torsional_Energy-OPLS-2005>
6.40370750427246

> <r_mmod_Van_der_Waal_Energy-OPLS-2005>
125.88858795166

> <r_mmod_Electrostatic_Energy-OPLS-2005>
-544.593017578125

> <r_mmod_Solvation_Energy-OPLS-2005>
-239.064254760742

> <b_mmod_Minimization_Converged-OPLS-2005>
0

> <r_mmod_RMS_Derivative-OPLS-2005>
2.16954779624939

$$$$
69
                    3D
 Structure written by MMmdl.
170178  0  0  1  0            999 V2000
  -30.8035  -14.3977   20.5191 C   0  0  0  0  0  0
  -30.3884  -12.2526   19.4332 C   0  0  0  0  0  0
  -29.4848  -12.4804   18.2078 C   0  0  0  0  0  0
  -28.0084  -12.3514   18.6218 C   0  0  0  0  0  0
  -27.6566  -13.2139   19.8636 C   0  0  2  0  0  0
  -28.7012  -13.0570   20.9941 C   0  0  0  0  0  0
  -25.2556  -13.8174   20.5595 C   0  0  0  0  0  0
  -24.1826  -13.0463   20.9145 C   0  0  0  0  0  0
  -24.6380  -11.6925   20.8737 C   0  0  0  0  0  0
  -23.9054  -10.4302   21.0424 C   0  0  0  0  0  0
  -24.3605   -9.4225   21.9207 C   0  0  0  0  0  0
  -23.6277   -8.2256   22.0781 C   0  0  0  0  0  0
  -22.4277   -8.0273   21.3552 C   0  0  0  0  0  0
  -21.9900   -9.0251   20.4677 C   0  0  0  0  0  0
  -22.7219  -10.2139   20.3086 C   0  0  0  0  0  0
  -21.6865   -6.0710   22.5271 C   0  0  0  0  0  0
  -21.4012   -6.5624   23.8197 C   0  0  0  0  0  0
  -21.3674   -5.6785   24.9171 C   0  0  0  0  0  0
  -21.6057   -4.3040   24.7234 C   0  0  0  0  0  0
  -21.8817   -3.8127   23.4356 C   0  0  0  0  0  0
  -21.9195   -4.6930   22.3408 C   0  0  0  0  0  0
  -22.7863  -13.5282   21.1814 C   0  0  0  0  0  0
  -22.1665   -4.2113   21.0984 F   0  0  0  0  0  0
  -21.5659   -3.4525   25.7752 F   0  0  0  0  0  0
  -30.0397  -13.2789   20.4257 N   0  0  0  0  0  0
  -26.3003  -12.9365   20.3334 N   0  0  0  0  0  0
  -25.9313  -11.6525   20.5813 N   0  0  0  0  0  0
  -22.0515  -12.8279   22.0374 N   0  0  0  0  0  0
  -25.4257  -15.1872   20.3891 N   0  0  0  0  0  0
  -31.9535  -14.4514   20.0899 O   0  0  0  0  0  0
  -21.6668   -6.8844   21.4227 O   0  0  0  0  0  0
  -22.3585  -14.5592   20.6656 O   0  0  0  0  0  0
  -24.6140  -31.8716   23.2161 C   0  0  0  0  0  0
  -25.9018  -32.4868   23.8452 C   0  0  1  0  0  0
  -27.2276  -27.4631   20.0701 C   0  0  0  0  0  0
  -25.5864  -33.8665   24.2373 N   0  0  0  0  0  0
  -23.4019  -30.5019   21.5555 C   0  0  2  0  0  0
  -24.8468  -28.9870   20.1049 C   0  0  0  0  0  0
  -22.7422  -29.4709   22.5006 C   0  0  0  0  0  0
  -18.0334  -28.1364   22.8491 C   0  0  0  0  0  0
  -24.1489  -36.7332   23.2642 C   0  0  0  0  0  0
  -25.9309  -30.8499   21.3643 C   0  0  0  0  0  0
  -26.0087  -29.4925   20.6991 C   0  0  0  0  0  0
  -27.2052  -28.7383   20.6799 C   0  0  0  0  0  0
  -26.0477  -26.9855   19.4521 C   0  0  0  0  0  0
  -24.8616  -27.7344   19.4760 C   0  0  0  0  0  0
  -23.6069  -29.8487   20.1649 C   0  0  0  0  0  0
  -25.4099  -36.3148   24.0353 C   0  0  1  0  0  0
  -20.5916  -28.3674   23.1346 C   0  0  2  0  0  0
  -20.6856  -26.9482   22.5296 C   0  0  0  0  0  0
  -19.5861  -26.6667   21.5020 C   0  0  0  0  0  0
  -18.2057  -26.7992   22.1468 C   0  0  0  0  0  0
  -19.1560  -28.8810   23.2954 C   0  0  0  0  0  0
  -18.9456  -30.1379   23.9030 C   0  0  0  0  0  0
  -17.6458  -30.6527   24.0632 C   0  0  0  0  0  0
  -25.9013  -34.9504   23.5158 C   0  0  0  0  0  0
  -16.5368  -29.9039   23.6322 C   0  0  0  0  0  0
  -16.7322  -28.6464   23.0321 C   0  0  0  0  0  0
  -26.4435  -31.6644   25.0780 C   0  0  0  0  0  0
  -25.3712  -31.3745   26.1544 C   0  0  0  0  0  0
  -27.0255  -30.3093   24.6135 C   0  0  0  0  0  0
  -27.6032  -32.4342   25.7516 C   0  0  0  0  0  0
  -27.5583  -37.1814   24.8458 C   0  0  0  0  0  0
  -21.4143  -29.3103   22.3802 N   0  0  0  0  0  0
  -26.4303  -37.3810   23.9406 N   0  0  0  0  0  0
  -24.6681  -31.0853   22.1050 N   0  0  0  0  0  0
  -23.4220  -28.8211   23.2997 O   0  0  0  0  0  0
  -28.3712  -26.6651   20.1967 O   0  0  0  0  0  0
  -26.5580  -34.8941   22.4725 O   0  0  0  0  0  0
  -23.5326  -32.1424   23.7578 O   0  0  0  0  0  0
  -28.3727  -19.6050   23.3121 C   0  0  0  0  0  0
  -28.4544  -19.5172   21.9415 C   0  0  0  0  0  0
  -28.0760  -21.4618   24.9746 C   0  0  0  0  0  0
  -26.7392  -19.3052   25.1887 C   0  0  0  0  0  0
  -26.1456  -24.1501   21.3803 C   0  0  0  0  0  0
  -27.6815  -20.0855   20.7739 C   0  0  0  0  0  0
  -27.1535  -21.5204   20.9147 C   0  0  0  0  0  0
  -28.1773  -22.6675   20.7271 C   0  0  0  0  0  0
  -29.9411  -18.0342   20.5025 C   0  0  0  0  0  0
  -30.8824  -16.8269   20.6377 C   0  0  0  0  0  0
  -28.2361  -25.2093   20.2491 C   0  0  0  0  0  0
  -27.4033  -20.3023   24.2305 C   0  0  0  0  0  0
  -27.7043  -24.0756   21.2094 C   0  0  1  0  0  0
  -29.4143  -18.8606   23.8677 N   0  0  0  0  0  0
  -30.0593  -18.2583   22.9299 N   0  0  0  0  0  0
  -29.4680  -18.5935   21.7591 N   0  0  0  0  0  0
  -30.2074  -15.5378   20.8899 N   0  0  0  0  0  0
  -31.4402  -12.2695   19.1429 H   0  0  0  0  0  0
  -30.2230  -11.2586   19.8493 H   0  0  0  0  0  0
  -29.7177  -11.7568   17.4258 H   0  0  0  0  0  0
  -29.6642  -13.4672   17.7776 H   0  0  0  0  0  0
  -27.8201  -11.2995   18.8363 H   0  0  0  0  0  0
  -27.3577  -12.6097   17.7867 H   0  0  0  0  0  0
  -27.6847  -14.2502   19.5295 H   0  0  0  0  0  0
  -28.6532  -12.0571   21.4289 H   0  0  0  0  0  0
  -28.4934  -13.7485   21.8114 H   0  0  0  0  0  0
  -25.2755   -9.5714   22.4767 H   0  0  0  0  0  0
  -23.9984   -7.4691   22.7519 H   0  0  0  0  0  0
  -21.0825   -8.8773   19.9007 H   0  0  0  0  0  0
  -22.3666  -10.9673   19.6199 H   0  0  0  0  0  0
  -21.1984   -7.6134   23.9669 H   0  0  0  0  0  0
  -21.1520   -6.0541   25.9071 H   0  0  0  0  0  0
  -22.0582   -2.7577   23.2881 H   0  0  0  0  0  0
  -22.4089  -11.9913   22.4736 H   0  0  0  0  0  0
  -21.1168  -13.1370   22.2618 H   0  0  0  0  0  0
  -24.6468  -15.8352   20.4570 H   0  0  0  0  0  0
  -26.2605  -15.6115   20.0061 H   0  0  0  0  0  0
  -26.7134  -32.5590   23.1264 H   0  0  0  0  0  0
  -25.0036  -33.9870   25.0531 H   0  0  0  0  0  0
  -22.6884  -31.3183   21.4253 H   0  0  0  0  0  0
  -23.3764  -35.9651   23.3317 H   0  0  0  0  0  0
  -24.3601  -36.8919   22.2055 H   0  0  0  0  0  0
  -23.7229  -37.6544   23.6625 H   0  0  0  0  0  0
  -26.0427  -31.6265   20.6045 H   0  0  0  0  0  0
  -26.8201  -30.8945   21.9824 H   0  0  0  0  0  0
  -28.0949  -29.1149   21.1640 H   0  0  0  0  0  0
  -25.9982  -26.0314   18.9539 H   0  0  0  0  0  0
  -23.9706  -27.3441   19.0050 H   0  0  0  0  0  0
  -23.7058  -30.6317   19.4119 H   0  0  0  0  0  0
  -22.7339  -29.2644   19.8722 H   0  0  0  0  0  0
  -25.1276  -36.2032   25.0847 H   0  0  0  0  0  0
  -21.0021  -28.3162   24.1448 H   0  0  0  0  0  0
  -20.5820  -26.2220   23.3380 H   0  0  0  0  0  0
  -21.6731  -26.7654   22.1040 H   0  0  0  0  0  0
  -19.7074  -25.6721   21.0690 H   0  0  0  0  0  0
  -19.6752  -27.3806   20.6822 H   0  0  0  0  0  0
  -17.4355  -26.6866   21.3841 H   0  0  0  0  0  0
  -18.0498  -25.9984   22.8701 H   0  0  0  0  0  0
  -19.7931  -30.7148   24.2479 H   0  0  0  0  0  0
  -17.5011  -31.6218   24.5238 H   0  0  0  0  0  0
  -15.5368  -30.2949   23.7521 H   0  0  0  0  0  0
  -15.8761  -28.0793   22.6925 H   0  0  0  0  0  0
  -24.5849  -30.7130   25.7886 H   0  0  0  0  0  0
  -24.8961  -32.2919   26.5038 H   0  0  0  0  0  0
  -25.8073  -30.8874   27.0281 H   0  0  0  0  0  0
  -26.2796  -29.6868   24.1184 H   0  0  0  0  0  0
  -27.4040  -29.7306   25.4573 H   0  0  0  0  0  0
  -27.8621  -30.4457   23.9277 H   0  0  0  0  0  0
  -27.2660  -33.3607   26.2178 H   0  0  0  0  0  0
  -28.3770  -32.6961   25.0285 H   0  0  0  0  0  0
  -28.0777  -31.8425   26.5358 H   0  0  0  0  0  0
  -28.2618  -38.0101   24.7497 H   0  0  0  0  0  0
  -28.1059  -36.2630   24.6272 H   0  0  0  0  0  0
  -27.2305  -37.1453   25.8868 H   0  0  0  0  0  0
  -20.9201  -29.8902   21.7164 H   0  0  0  0  0  0
  -26.0205  -38.2902   24.1383 H   0  0  0  0  0  0
  -28.5503  -22.1446   24.2702 H   0  0  0  0  0  0
  -28.8455  -21.0946   25.6525 H   0  0  0  0  0  0
  -27.3593  -22.0329   25.5658 H   0  0  0  0  0  0
  -26.2480  -18.5089   24.6309 H   0  0  0  0  0  0
  -25.9820  -19.7832   25.8080 H   0  0  0  0  0  0
  -27.4757  -18.8484   25.8489 H   0  0  0  0  0  0
  -25.7827  -23.5113   22.1827 H   0  0  0  0  0  0
  -25.6214  -23.8641   20.4676 H   0  0  0  0  0  0
  -25.7966  -25.1490   21.6486 H   0  0  0  0  0  0
  -26.8323  -19.4276   20.5831 H   0  0  0  0  0  0
  -28.2842  -20.0448   19.8660 H   0  0  0  0  0  0
  -26.6401  -21.6058   21.8585 H   0  0  0  0  0  0
  -26.3799  -21.6577   20.1597 H   0  0  0  0  0  0
  -28.4404  -22.7088   19.6682 H   0  0  0  0  0  0
  -29.1064  -22.4163   21.2436 H   0  0  0  0  0  0
  -29.0834  -17.7737   19.8818 H   0  0  0  0  0  0
  -30.4641  -18.8360   19.9789 H   0  0  0  0  0  0
  -31.6715  -16.9961   21.3743 H   0  0  0  0  0  0
  -31.4019  -16.7701   19.6793 H   0  0  0  0  0  0
  -27.7650  -25.6719   21.1072 H   0  0  0  0  0  0
  -27.6841  -24.9866   19.3415 H   0  0  0  0  0  0
  -26.5765  -20.7123   23.6668 H   0  0  0  0  0  0
  -28.1425  -24.1771   22.2105 H   0  0  0  0  0  0
  -29.2652  -15.5163   21.2490 H   0  0  0  0  0  0
  1 25  1  0  0  0
  1 30  2  0  0  0
  1 87  1  0  0  0
  2  3  1  0  0  0
  2 25  1  0  0  0
  2 88  1  0  0  0
  2 89  1  0  0  0
  3  4  1  0  0  0
  3 90  1  0  0  0
  3 91  1  0  0  0
  4  5  1  0  0  0
  4 92  1  0  0  0
  4 93  1  0  0  0
  5  6  1  0  0  0
  5 26  1  0  0  0
  5 94  1  0  0  0
  6 25  1  0  0  0
  6 95  1  0  0  0
  6 96  1  0  0  0
  7  8  2  0  0  0
  7 26  1  0  0  0
  7 29  1  0  0  0
  8  9  1  0  0  0
  8 22  1  0  0  0
  9 10  1  0  0  0
  9 27  2  0  0  0
 10 11  2  0  0  0
 10 15  1  0  0  0
 11 12  1  0  0  0
 11 97  1  0  0  0
 12 13  2  0  0  0
 12 98  1  0  0  0
 13 14  1  0  0  0
 13 31  1  0  0  0
 14 15  2  0  0  0
 14 99  1  0  0  0
 15100  1  0  0  0
 16 17  2  0  0  0
 16 21  1  0  0  0
 16 31  1  0  0  0
 17 18  1  0  0  0
 17101  1  0  0  0
 18 19  2  0  0  0
 18102  1  0  0  0
 19 20  1  0  0  0
 19 24  1  0  0  0
 20 21  2  0  0  0
 20103  1  0  0  0
 21 23  1  0  0  0
 22 28  1  0  0  0
 22 32  2  0  0  0
 26 27  1  0  0  0
 28104  1  0  0  0
 28105  1  0  0  0
 29106  1  0  0  0
 29107  1  0  0  0
 33 34  1  0  0  0
 33 66  1  0  0  0
 33 70  2  0  0  0
 34 36  1  0  0  0
 34 59  1  0  0  0
 34108  1  0  0  0
 35 44  2  0  0  0
 35 45  1  0  0  0
 35 68  1  0  0  0
 36 56  1  0  0  0
 36109  1  0  0  0
 37 39  1  0  0  0
 37 47  1  0  0  0
 37 66  1  0  0  0
 37110  1  0  0  0
 38 43  2  0  0  0
 38 46  1  0  0  0
 38 47  1  0  0  0
 39 64  1  0  0  0
 39 67  2  0  0  0
 40 52  1  0  0  0
 40 53  2  0  0  0
 40 58  1  0  0  0
 41111  1  0  0  0
 41112  1  0  0  0
 41113  1  0  0  0
 41 48  1  0  0  0
 42 43  1  0  0  0
 42 66  1  0  0  0
 42114  1  0  0  0
 42115  1  0  0  0
 43 44  1  0  0  0
 44116  1  0  0  0
 45 46  2  0  0  0
 45117  1  0  0  0
 46118  1  0  0  0
 47119  1  0  0  0
 47120  1  0  0  0
 48 56  1  0  0  0
 48 65  1  0  0  0
 48121  1  0  0  0
 49 50  1  0  0  0
 49 53  1  0  0  0
 49 64  1  0  0  0
 49122  1  0  0  0
 50 51  1  0  0  0
 50123  1  0  0  0
 50124  1  0  0  0
 51 52  1  0  0  0
 51125  1  0  0  0
 51126  1  0  0  0
 52127  1  0  0  0
 52128  1  0  0  0
 53 54  1  0  0  0
 54 55  2  0  0  0
 54129  1  0  0  0
 55 57  1  0  0  0
 55130  1  0  0  0
 56 69  2  0  0  0
 57 58  2  0  0  0
 57131  1  0  0  0
 58132  1  0  0  0
 59 60  1  0  0  0
 59 61  1  0  0  0
 59 62  1  0  0  0
 60133  1  0  0  0
 60134  1  0  0  0
 60135  1  0  0  0
 61136  1  0  0  0
 61137  1  0  0  0
 61138  1  0  0  0
 62139  1  0  0  0
 62140  1  0  0  0
 62141  1  0  0  0
 63 65  1  0  0  0
 63142  1  0  0  0
 63143  1  0  0  0
 63144  1  0  0  0
 64145  1  0  0  0
 65146  1  0  0  0
 68 81  1  0  0  0
 71 72  2  0  0  0
 71 82  1  0  0  0
 71 84  1  0  0  0
 72 76  1  0  0  0
 72 86  1  0  0  0
 73147  1  0  0  0
 73148  1  0  0  0
 73149  1  0  0  0
 73 82  1  0  0  0
 74 82  1  0  0  0
 74150  1  0  0  0
 74151  1  0  0  0
 74152  1  0  0  0
 75153  1  0  0  0
 75154  1  0  0  0
 75155  1  0  0  0
 75 83  1  0  0  0
 76 77  1  0  0  0
 76156  1  0  0  0
 76157  1  0  0  0
 77 78  1  0  0  0
 77158  1  0  0  0
 77159  1  0  0  0
 78 83  1  0  0  0
 78160  1  0  0  0
 78161  1  0  0  0
 79 80  1  0  0  0
 79 86  1  0  0  0
 79162  1  0  0  0
 79163  1  0  0  0
 80 87  1  0  0  0
 80164  1  0  0  0
 80165  1  0  0  0
 81 83  1  0  0  0
 81166  1  0  0  0
 81167  1  0  0  0
 82168  1  0  0  0
 83169  1  0  0  0
 84 85  2  0  0  0
 85 86  1  0  0  0
 87170  1  0  0  0
M  ISO  4   1 100  68 101  81 101  87 100
M  END
> <chiral flag>
0

> <version>
0

> <s_m_source_file>
/data/baiqing/PycharmProjects/Reinvent-master-3.2/result/LINK_invent/BTK/process_docking_weight1_custom_sum_contain_oxygen_bond_distance_aromatic_linkinvent_7_9_3/rearranged_h_0100.sdf

> <i_m_source_file_index>
70

> <r_mmod_Potential_Energy-OPLS-2005>
211.214752197266

> <r_mmod_Stretch_Energy-OPLS-2005>
43.3501281738281

> <r_mmod_Bend_Energy-OPLS-2005>
338.464538574219

> <r_mmod_Torsional_Energy-OPLS-2005>
223.298568725586

> <r_mmod_Improper_Torsional_Energy-OPLS-2005>
5.79277658462524

> <r_mmod_Van_der_Waal_Energy-OPLS-2005>
180.594589233398

> <r_mmod_Electrostatic_Energy-OPLS-2005>
-397.618438720703

> <r_mmod_Solvation_Energy-OPLS-2005>
-207.594360351562

> <b_mmod_Minimization_Converged-OPLS-2005>
0

> <r_mmod_RMS_Derivative-OPLS-2005>
4.35797500610352

$$$$
70
                    3D
 Structure written by MMmdl.
177185  0  0  1  0            999 V2000
  -30.7906  -14.5889   20.4091 C   0  0  0  0  0  0
  -30.8895  -12.7652   18.8981 C   0  0  0  0  0  0
  -29.4792  -12.0566   17.8437 C   0  0  0  0  0  0
  -27.7243  -11.9699   18.5919 C   0  0  0  0  0  0
  -27.4845  -12.5247   20.5019 C   0  0  2  0  0  0
  -28.9695  -13.2145   21.4503 C   0  0  0  0  0  0
  -25.4225  -14.3942   20.5503 C   0  0  0  0  0  0
  -24.2527  -13.5034   20.9929 C   0  0  0  0  0  0
  -24.4637  -12.0359   20.9375 C   0  0  0  0  0  0
  -23.7789  -10.6726   21.0940 C   0  0  0  0  0  0
  -24.2987   -9.6213   21.9183 C   0  0  0  0  0  0
  -23.6450   -8.3634   22.0574 C   0  0  0  0  0  0
  -22.4488   -8.1006   21.3494 C   0  0  0  0  0  0
  -21.9828   -9.0922   20.4638 C   0  0  0  0  0  0
  -22.6367  -10.3417   20.3312 C   0  0  0  0  0  0
  -21.7232   -6.1002   22.5204 C   0  0  0  0  0  0
  -21.4302   -6.5849   23.8147 C   0  0  0  0  0  0
  -21.3775   -5.6954   24.9092 C   0  0  0  0  0  0
  -21.6033   -4.3193   24.7149 C   0  0  0  0  0  0
  -21.8762   -3.8306   23.4257 C   0  0  0  0  0  0
  -21.9292   -4.7156   22.3338 C   0  0  0  0  0  0
  -22.7769  -13.7631   21.2610 C   0  0  0  0  0  0
  -22.1699   -4.2258   21.0926 F   0  0  0  0  0  0
  -21.5556   -3.4679   25.7668 F   0  0  0  0  0  0
  -30.5176  -13.3400   20.5703 N   0  0  0  0  0  0
  -26.1745  -13.0766   20.7060 N   0  0  0  0  0  0
  -25.5867  -11.8919   20.5053 N   0  0  0  0  0  0
  -22.1547  -12.9843   22.1514 N   0  0  0  0  0  0
  -25.9622  -16.4391   19.0528 N   0  0  0  0  0  0
  -31.9145  -15.0564   20.2953 O   0  0  0  0  0  0
  -21.7291   -6.9206   21.4125 O   0  0  0  0  0  0
  -22.1056  -14.5927   20.6720 O   0  0  0  0  0  0
  -24.6687  -31.8194   23.1730 C   0  0  0  0  0  0
  -25.9370  -32.4540   23.8144 C   0  0  1  0  0  0
  -26.8773  -26.6863   20.3235 C   0  0  0  0  0  0
  -25.6031  -33.8368   24.2043 N   0  0  0  0  0  0
  -23.4729  -30.4519   21.5257 C   0  0  2  0  0  0
  -24.8754  -28.8318   20.0856 C   0  0  0  0  0  0
  -22.7645  -29.4476   22.4747 C   0  0  0  0  0  0
  -18.0333  -28.1421   22.8466 C   0  0  0  0  0  0
  -24.1514  -36.7209   23.2629 C   0  0  0  0  0  0
  -26.0459  -30.5477   21.4350 C   0  0  0  0  0  0
  -26.0518  -29.1236   20.7871 C   0  0  0  0  0  0
  -27.0692  -28.0613   20.8879 C   0  0  0  0  0  0
  -25.7865  -26.6375   19.4497 C   0  0  0  0  0  0
  -24.7946  -27.6322   19.3680 C   0  0  0  0  0  0
  -23.7027  -29.8043   20.1329 C   0  0  0  0  0  0
  -25.4153  -36.2955   24.0282 C   0  0  1  0  0  0
  -20.5957  -28.3782   23.1177 C   0  0  2  0  0  0
  -20.6809  -26.9465   22.5392 C   0  0  0  0  0  0
  -19.5768  -26.6385   21.5222 C   0  0  0  0  0  0
  -18.1960  -26.7954   22.1634 C   0  0  0  0  0  0
  -19.1590  -28.8922   23.2809 C   0  0  0  0  0  0
  -18.9491  -30.1515   23.8840 C   0  0  0  0  0  0
  -17.6478  -30.6592   24.0564 C   0  0  0  0  0  0
  -25.9132  -34.9335   23.4991 C   0  0  0  0  0  0
  -16.5374  -29.9079   23.6339 C   0  0  0  0  0  0
  -16.7319  -28.6512   23.0345 C   0  0  0  0  0  0
  -26.4569  -31.6523   25.0718 C   0  0  0  0  0  0
  -25.3642  -31.3800   26.1334 C   0  0  0  0  0  0
  -27.0457  -30.2863   24.6563 C   0  0  0  0  0  0
  -27.6082  -32.4336   25.7476 C   0  0  0  0  0  0
  -27.5603  -37.1747   24.8441 C   0  0  0  0  0  0
  -21.4328  -29.3066   22.3509 N   0  0  0  0  0  0
  -26.4285  -37.3707   23.9419 N   0  0  0  0  0  0
  -24.7539  -30.9733   22.0947 N   0  0  0  0  0  0
  -23.4200  -28.8024   23.2979 O   0  0  0  0  0  0
  -27.5093  -25.3425   20.5899 O   0  0  0  0  0  0
  -26.5737  -34.8878   22.4592 O   0  0  0  0  0  0
  -23.5767  -32.1270   23.6780 O   0  0  0  0  0  0
  -24.1323  -16.3495   20.3694 C   0  0  0  0  0  0
  -24.1052  -15.1871   18.8397 C   0  0  0  0  0  0
  -27.2558  -15.8424   20.8101 C   0  0  0  0  0  0
  -25.7189  -16.7959   21.2641 C   0  0  0  0  0  0
  -25.7329  -14.3549   18.2665 C   0  0  0  0  0  0
  -27.3779  -14.7072   19.2848 C   0  0  0  0  0  0
  -26.7143  -14.3275   15.8814 C   0  0  0  0  0  0
  -28.6339   -9.8932   19.8428 C   0  0  0  0  0  0
  -31.2250  -10.4286   21.8241 C   0  0  0  0  0  0
  -31.4159   -9.6518   19.4847 C   0  0  0  0  0  0
  -26.0504  -18.5501   21.6607 C   0  0  0  0  0  0
  -25.6213  -13.8155   16.8367 C   0  0  0  0  0  0
  -26.2396  -20.2347   20.8043 C   0  0  0  0  0  0
  -26.7898  -22.0132   21.2139 C   0  0  0  0  0  0
  -26.8090  -23.7558   20.4375 C   0  0  0  0  0  0
  -28.8386  -13.9218   19.2006 C   0  0  2  0  0  0
  -29.4427  -11.2855   20.0824 C   0  0  2  0  0  0
  -29.7701  -14.9987   19.6825 N   0  0  0  0  0  0
  -30.8642  -10.6985   20.3967 N   0  3  0  0  0  0
  -31.2805  -13.5783   18.2736 H   0  0  0  0  0  0
  -31.8097  -12.1851   18.8297 H   0  0  0  0  0  0
  -29.7456  -11.0589   17.4971 H   0  0  0  0  0  0
  -29.4481  -12.5777   16.8837 H   0  0  0  0  0  0
  -27.1599  -11.0807   18.3152 H   0  0  0  0  0  0
  -27.2533  -12.6034   17.9050 H   0  0  0  0  0  0
  -27.4701  -11.7067   21.2477 H   0  0  0  0  0  0
  -29.1245  -12.6597   22.3784 H   0  0  0  0  0  0
  -28.7139  -14.1629   21.9125 H   0  0  0  0  0  0
  -25.2099   -9.7989   22.4723 H   0  0  0  0  0  0
  -24.0690   -7.6125   22.7099 H   0  0  0  0  0  0
  -21.0944   -8.9000   19.8778 H   0  0  0  0  0  0
  -22.2328  -11.0731   19.6463 H   0  0  0  0  0  0
  -21.2440   -7.6378   23.9692 H   0  0  0  0  0  0
  -21.1618   -6.0699   25.8988 H   0  0  0  0  0  0
  -22.0385   -2.7742   23.2751 H   0  0  0  0  0  0
  -22.6595  -12.2798   22.6701 H   0  0  0  0  0  0
  -21.1694  -13.1096   22.3301 H   0  0  0  0  0  0
  -25.7014  -17.2436   19.6073 H   0  0  0  0  0  0
  -26.9588  -16.4205   18.8975 H   0  0  0  0  0  0
  -26.7393  -32.4973   23.0785 H   0  0  0  0  0  0
  -25.0122  -33.9424   25.0160 H   0  0  0  0  0  0
  -22.7937  -31.2951   21.3789 H   0  0  0  0  0  0
  -23.3815  -35.9495   23.3171 H   0  0  0  0  0  0
  -24.3618  -36.8992   22.2071 H   0  0  0  0  0  0
  -23.7212  -37.6334   23.6772 H   0  0  0  0  0  0
  -26.2633  -31.2693   20.6465 H   0  0  0  0  0  0
  -26.9021  -30.5890   22.0943 H   0  0  0  0  0  0
  -27.9215  -28.2293   21.5291 H   0  0  0  0  0  0
  -25.5966  -25.7213   18.9093 H   0  0  0  0  0  0
  -23.9199  -27.4339   18.7625 H   0  0  0  0  0  0
  -23.8949  -30.5906   19.4011 H   0  0  0  0  0  0
  -22.7925  -29.3052   19.7934 H   0  0  0  0  0  0
  -25.1345  -36.1733   25.0766 H   0  0  0  0  0  0
  -21.0054  -28.3401   24.1300 H   0  0  0  0  0  0
  -20.5724  -26.2414   23.3643 H   0  0  0  0  0  0
  -21.6674  -26.7455   22.1183 H   0  0  0  0  0  0
  -19.6918  -25.6278   21.1301 H   0  0  0  0  0  0
  -19.6682  -27.3158   20.6720 H   0  0  0  0  0  0
  -17.4228  -26.6720   21.4035 H   0  0  0  0  0  0
  -18.0340  -26.0109   22.9043 H   0  0  0  0  0  0
  -19.7959  -30.7367   24.2172 H   0  0  0  0  0  0
  -17.5011  -31.6258   24.5203 H   0  0  0  0  0  0
  -15.5366  -30.2942   23.7692 H   0  0  0  0  0  0
  -15.8733  -28.0803   22.7059 H   0  0  0  0  0  0
  -24.5874  -30.7109   25.7606 H   0  0  0  0  0  0
  -24.8749  -32.2990   26.4571 H   0  0  0  0  0  0
  -25.7804  -30.9064   27.0233 H   0  0  0  0  0  0
  -26.3118  -29.6509   24.1590 H   0  0  0  0  0  0
  -27.3932  -29.7275   25.5262 H   0  0  0  0  0  0
  -27.9114  -30.3998   24.0037 H   0  0  0  0  0  0
  -27.2716  -33.3743   26.1842 H   0  0  0  0  0  0
  -28.3961  -32.6715   25.0315 H   0  0  0  0  0  0
  -28.0665  -31.8580   26.5526 H   0  0  0  0  0  0
  -28.2508  -38.0153   24.7633 H   0  0  0  0  0  0
  -28.1217  -36.2692   24.6094 H   0  0  0  0  0  0
  -27.2339  -37.1172   25.8837 H   0  0  0  0  0  0
  -20.9585  -29.8766   21.6638 H   0  0  0  0  0  0
  -26.0131  -38.2755   24.1472 H   0  0  0  0  0  0
  -23.2499  -16.9491   20.5479 H   0  0  0  0  0  0
  -23.2046  -15.0873   18.2550 H   0  0  0  0  0  0
  -28.1654  -16.1426   21.3079 H   0  0  0  0  0  0
  -26.5242  -13.9793   14.8654 H   0  0  0  0  0  0
  -27.7109  -13.9891   16.1575 H   0  0  0  0  0  0
  -26.7305  -15.4180   15.8536 H   0  0  0  0  0  0
  -27.5703   -9.9193   20.0849 H   0  0  0  0  0  0
  -28.9743   -9.0866   20.4947 H   0  0  0  0  0  0
  -28.7107   -9.5143   18.8224 H   0  0  0  0  0  0
  -32.2803  -10.1771   21.9187 H   0  0  0  0  0  0
  -30.6465   -9.6054   22.2453 H   0  0  0  0  0  0
  -31.0622  -11.3090   22.4480 H   0  0  0  0  0  0
  -32.4782   -9.5064   19.6811 H   0  0  0  0  0  0
  -31.3362   -9.9333   18.4374 H   0  0  0  0  0  0
  -30.9431   -8.6775   19.6048 H   0  0  0  0  0  0
  -27.0125  -18.4492   22.1647 H   0  0  0  0  0  0
  -25.3574  -18.7462   22.4803 H   0  0  0  0  0  0
  -24.6715  -14.1845   16.4495 H   0  0  0  0  0  0
  -25.5135  -12.7322   16.8148 H   0  0  0  0  0  0
  -25.2572  -20.3791   20.3562 H   0  0  0  0  0  0
  -26.8785  -19.9902   19.9554 H   0  0  0  0  0  0
  -27.8240  -21.8742   21.5270 H   0  0  0  0  0  0
  -26.2777  -22.1911   22.1610 H   0  0  0  0  0  0
  -25.7433  -23.9833   20.4097 H   0  0  0  0  0  0
  -27.0417  -23.5377   19.3954 H   0  0  0  0  0  0
  -28.9672  -14.1980   18.1480 H   0  0  0  0  0  0
  -29.2416  -11.0620   21.1213 H   0  0  0  0  0  0
  -29.8143  -15.8865   19.2062 H   0  0  0  0  0  0
  -31.4335  -11.5085   20.1872 H   0  0  0  0  0  0
  1 25  1  0  0  0
  1 30  2  0  0  0
  1 88  1  0  0  0
  2  3  1  0  0  0
  2 25  1  0  0  0
  2 90  1  0  0  0
  2 91  1  0  0  0
  3  4  1  0  0  0
  3 92  1  0  0  0
  3 93  1  0  0  0
  4  5  1  0  0  0
  4 94  1  0  0  0
  4 95  1  0  0  0
  5  6  1  0  0  0
  5 26  1  0  0  0
  5 96  1  0  0  0
  6 25  1  0  0  0
  6 97  1  0  0  0
  6 98  1  0  0  0
  7  8  2  0  0  0
  7 26  1  0  0  0
  7 29  1  0  0  0
  8  9  1  0  0  0
  8 22  1  0  0  0
  9 10  1  0  0  0
  9 27  2  0  0  0
 10 11  2  0  0  0
 10 15  1  0  0  0
 11 12  1  0  0  0
 11 99  1  0  0  0
 12 13  2  0  0  0
 12100  1  0  0  0
 13 14  1  0  0  0
 13 31  1  0  0  0
 14 15  2  0  0  0
 14101  1  0  0  0
 15102  1  0  0  0
 16 17  2  0  0  0
 16 21  1  0  0  0
 16 31  1  0  0  0
 17 18  1  0  0  0
 17103  1  0  0  0
 18 19  2  0  0  0
 18104  1  0  0  0
 19 20  1  0  0  0
 19 24  1  0  0  0
 20 21  2  0  0  0
 20105  1  0  0  0
 21 23  1  0  0  0
 22 28  1  0  0  0
 22 32  2  0  0  0
 26 27  1  0  0  0
 28106  1  0  0  0
 28107  1  0  0  0
 29108  1  0  0  0
 29109  1  0  0  0
 33 34  1  0  0  0
 33 66  1  0  0  0
 33 70  2  0  0  0
 34 36  1  0  0  0
 34 59  1  0  0  0
 34110  1  0  0  0
 35 44  2  0  0  0
 35 45  1  0  0  0
 35 68  1  0  0  0
 36 56  1  0  0  0
 36111  1  0  0  0
 37 39  1  0  0  0
 37 47  1  0  0  0
 37 66  1  0  0  0
 37112  1  0  0  0
 38 43  2  0  0  0
 38 46  1  0  0  0
 38 47  1  0  0  0
 39 64  1  0  0  0
 39 67  2  0  0  0
 40 52  1  0  0  0
 40 53  2  0  0  0
 40 58  1  0  0  0
 41113  1  0  0  0
 41114  1  0  0  0
 41115  1  0  0  0
 41 48  1  0  0  0
 42 43  1  0  0  0
 42 66  1  0  0  0
 42116  1  0  0  0
 42117  1  0  0  0
 43 44  1  0  0  0
 44118  1  0  0  0
 45 46  2  0  0  0
 45119  1  0  0  0
 46120  1  0  0  0
 47121  1  0  0  0
 47122  1  0  0  0
 48 56  1  0  0  0
 48 65  1  0  0  0
 48123  1  0  0  0
 49 50  1  0  0  0
 49 53  1  0  0  0
 49 64  1  0  0  0
 49124  1  0  0  0
 50 51  1  0  0  0
 50125  1  0  0  0
 50126  1  0  0  0
 51 52  1  0  0  0
 51127  1  0  0  0
 51128  1  0  0  0
 52129  1  0  0  0
 52130  1  0  0  0
 53 54  1  0  0  0
 54 55  2  0  0  0
 54131  1  0  0  0
 55 57  1  0  0  0
 55132  1  0  0  0
 56 69  2  0  0  0
 57 58  2  0  0  0
 57133  1  0  0  0
 58134  1  0  0  0
 59 60  1  0  0  0
 59 61  1  0  0  0
 59 62  1  0  0  0
 60135  1  0  0  0
 60136  1  0  0  0
 60137  1  0  0  0
 61138  1  0  0  0
 61139  1  0  0  0
 61140  1  0  0  0
 62141  1  0  0  0
 62142  1  0  0  0
 62143  1  0  0  0
 63 65  1  0  0  0
 63144  1  0  0  0
 63145  1  0  0  0
 63146  1  0  0  0
 64147  1  0  0  0
 65148  1  0  0  0
 68 85  1  0  0  0
 71 72  2  0  0  0
 71 74  1  0  0  0
 71149  1  0  0  0
 72 75  1  0  0  0
 72150  1  0  0  0
 73 74  2  0  0  0
 73 76  1  0  0  0
 73151  1  0  0  0
 74 81  1  0  0  0
 75 76  2  0  0  0
 75 82  1  0  0  0
 76 86  1  0  0  0
 77 82  1  0  0  0
 77152  1  0  0  0
 77153  1  0  0  0
 77154  1  0  0  0
 78155  1  0  0  0
 78156  1  0  0  0
 78157  1  0  0  0
 78 87  1  0  0  0
 79158  1  0  0  0
 79159  1  0  0  0
 79160  1  0  0  0
 79 89  1  0  0  0
 80 89  1  0  0  0
 80161  1  0  0  0
 80162  1  0  0  0
 80163  1  0  0  0
 81 83  1  0  0  0
 81164  1  0  0  0
 81165  1  0  0  0
 82166  1  0  0  0
 82167  1  0  0  0
 83 84  1  0  0  0
 83168  1  0  0  0
 83169  1  0  0  0
 84 85  1  0  0  0
 84170  1  0  0  0
 84171  1  0  0  0
 85172  1  0  0  0
 85173  1  0  0  0
 86 87  1  0  0  0
 86 88  1  0  0  0
 86174  1  0  0  0
 87 89  1  0  0  0
 87175  1  0  0  0
 88176  1  0  0  0
 89177  1  0  0  0
M  CHG  1  89   1
M  ISO  4   1 100  68 101  85 101  88 100
M  END
> <chiral flag>
0

> <version>
0

> <s_m_source_file>
/data/baiqing/PycharmProjects/Reinvent-master-3.2/result/LINK_invent/BTK/process_docking_weight1_custom_sum_contain_oxygen_bond_distance_aromatic_linkinvent_7_9_3/rearranged_h_0100.sdf

> <i_m_source_file_index>
71

> <r_mmod_Potential_Energy-OPLS-2005>
16346.720703125

> <r_mmod_Stretch_Energy-OPLS-2005>
9647.615234375

> <r_mmod_Bend_Energy-OPLS-2005>
1110.04113769531

> <r_mmod_Torsional_Energy-OPLS-2005>
583.582641601562

> <r_mmod_Improper_Torsional_Energy-OPLS-2005>
80.4434432983398

> <r_mmod_Van_der_Waal_Energy-OPLS-2005>
4381.31396484375

> <r_mmod_Electrostatic_Energy-OPLS-2005>
-387.347564697266

> <r_mmod_Solvation_Energy-OPLS-2005>
-415.659606933594

> <b_mmod_Minimization_Converged-OPLS-2005>
0

> <r_mmod_RMS_Derivative-OPLS-2005>
6.41827440261841

$$$$
71
                    3D
 Structure written by MMmdl.
167174  0  0  1  0            999 V2000
  -30.6234  -14.6611   20.4952 C   0  0  0  0  0  0
  -30.4397  -12.4073   19.4513 C   0  0  0  0  0  0
  -29.5111  -12.5088   18.2222 C   0  0  0  0  0  0
  -28.0338  -12.3396   18.6353 C   0  0  0  0  0  0
  -27.6510  -13.2182   19.8570 C   0  0  2  0  0  0
  -28.6973  -13.0949   20.9858 C   0  0  0  0  0  0
  -25.2567  -13.8169   20.5694 C   0  0  0  0  0  0
  -24.1830  -13.0440   20.9200 C   0  0  0  0  0  0
  -24.6395  -11.6910   20.8753 C   0  0  0  0  0  0
  -23.9058  -10.4298   21.0402 C   0  0  0  0  0  0
  -24.3607   -9.4216   21.9180 C   0  0  0  0  0  0
  -23.6287   -8.2252   22.0751 C   0  0  0  0  0  0
  -22.4275   -8.0290   21.3544 C   0  0  0  0  0  0
  -21.9911   -9.0257   20.4645 C   0  0  0  0  0  0
  -22.7230  -10.2141   20.3051 C   0  0  0  0  0  0
  -21.6861   -6.0740   22.5276 C   0  0  0  0  0  0
  -21.4013   -6.5633   23.8212 C   0  0  0  0  0  0
  -21.3663   -5.6783   24.9170 C   0  0  0  0  0  0
  -21.6052   -4.3048   24.7217 C   0  0  0  0  0  0
  -21.8812   -3.8146   23.4333 C   0  0  0  0  0  0
  -21.9193   -4.6965   22.3394 C   0  0  0  0  0  0
  -22.7850  -13.5252   21.1834 C   0  0  0  0  0  0
  -22.1663   -4.2151   21.0972 F   0  0  0  0  0  0
  -21.5629   -3.4525   25.7729 F   0  0  0  0  0  0
  -30.0049  -13.4413   20.4108 N   0  0  0  0  0  0
  -26.2984  -12.9349   20.3295 N   0  0  0  0  0  0
  -25.9327  -11.6506   20.5757 N   0  0  0  0  0  0
  -22.0463  -12.8284   22.0394 N   0  0  0  0  0  0
  -25.4270  -15.1898   20.4123 N   0  0  0  0  0  0
  -31.8077  -14.7996   20.1846 O   0  0  0  0  0  0
  -21.6641   -6.8885   21.4245 O   0  0  0  0  0  0
  -22.3562  -14.5556   20.6661 O   0  0  0  0  0  0
  -24.6265  -31.8591   23.1992 C   0  0  0  0  0  0
  -25.9120  -32.4770   23.8327 C   0  0  1  0  0  0
  -27.2322  -27.3188   20.1283 C   0  0  0  0  0  0
  -25.5934  -33.8568   24.2259 N   0  0  0  0  0  0
  -23.4214  -30.4803   21.5408 C   0  0  2  0  0  0
  -24.8712  -28.9297   20.1120 C   0  0  0  0  0  0
  -22.7479  -29.4625   22.4920 C   0  0  0  0  0  0
  -18.0293  -28.1394   22.8485 C   0  0  0  0  0  0
  -24.1497  -36.7284   23.2635 C   0  0  0  0  0  0
  -25.9615  -30.7906   21.3701 C   0  0  0  0  0  0
  -26.0383  -29.4160   20.7162 C   0  0  0  0  0  0
  -27.2247  -28.6235   20.7101 C   0  0  0  0  0  0
  -26.0468  -26.8837   19.4991 C   0  0  0  0  0  0
  -24.8772  -27.6693   19.4922 C   0  0  0  0  0  0
  -23.6380  -29.8091   20.1579 C   0  0  0  0  0  0
  -25.4122  -36.3071   24.0320 C   0  0  1  0  0  0
  -20.5891  -28.3705   23.1275 C   0  0  2  0  0  0
  -20.6787  -26.9431   22.5405 C   0  0  0  0  0  0
  -19.5762  -26.6391   21.5214 C   0  0  0  0  0  0
  -18.1939  -26.7938   22.1621 C   0  0  0  0  0  0
  -19.1545  -28.8865   23.2875 C   0  0  0  0  0  0
  -18.9463  -30.1463   23.8898 C   0  0  0  0  0  0
  -17.6465  -30.6593   24.0564 C   0  0  0  0  0  0
  -25.9056  -34.9446   23.5086 C   0  0  0  0  0  0
  -16.5356  -29.9093   23.6330 C   0  0  0  0  0  0
  -16.7281  -28.6508   23.0354 C   0  0  0  0  0  0
  -26.4508  -31.6576   25.0694 C   0  0  0  0  0  0
  -25.3732  -31.3722   26.1410 C   0  0  0  0  0  0
  -27.0350  -30.2997   24.6143 C   0  0  0  0  0  0
  -27.6062  -32.4312   25.7469 C   0  0  0  0  0  0
  -27.5581  -37.1796   24.8462 C   0  0  0  0  0  0
  -21.4193  -29.3050   22.3660 N   0  0  0  0  0  0
  -26.4299  -37.3767   23.9401 N   0  0  0  0  0  0
  -24.6880  -31.0610   22.0938 N   0  0  0  0  0  0
  -23.4197  -28.8175   23.3017 O   0  0  0  0  0  0
  -28.3513  -26.4746   20.1408 O   0  0  0  0  0  0
  -26.5622  -34.8927   22.4652 O   0  0  0  0  0  0
  -23.5426  -32.1389   23.7322 O   0  0  0  0  0  0
  -29.6277  -20.4146   17.0998 C   0  0  0  0  0  0
  -27.6341  -21.7947   17.5596 C   0  0  0  0  0  0
  -30.8618  -17.8135   18.7100 C   0  0  0  0  0  0
  -31.3993  -20.3645   20.2708 C   0  0  0  0  0  0
  -28.9017  -23.8754   19.8803 C   0  0  0  0  0  0
  -28.7486  -22.3733   20.4717 C   0  0  0  0  0  0
  -30.1196  -17.2105   20.9795 C   0  0  0  0  0  0
  -28.1776  -25.0827   20.6313 C   0  0  0  0  0  0
  -29.0360  -21.4124   18.0855 C   0  0  0  0  0  0
  -29.8647  -18.2726   19.8051 C   0  0  1  0  0  0
  -29.9474  -19.8622   20.2068 C   0  0  2  0  0  0
  -28.9607  -21.0150   19.5977 C   0  0  1  0  0  0
  -29.8146  -15.7422   20.7492 N   0  0  0  0  0  0
  -31.4810  -12.5351   19.1524 H   0  0  0  0  0  0
  -30.3763  -11.4166   19.9048 H   0  0  0  0  0  0
  -29.7809  -11.7569   17.4799 H   0  0  0  0  0  0
  -29.6487  -13.4787   17.7416 H   0  0  0  0  0  0
  -27.8773  -11.2876   18.8781 H   0  0  0  0  0  0
  -27.3788  -12.5570   17.7908 H   0  0  0  0  0  0
  -27.6622  -14.2498   19.5051 H   0  0  0  0  0  0
  -28.7178  -12.0788   21.3834 H   0  0  0  0  0  0
  -28.4465  -13.7406   21.8280 H   0  0  0  0  0  0
  -25.2739   -9.5708   22.4769 H   0  0  0  0  0  0
  -23.9995   -7.4649   22.7474 H   0  0  0  0  0  0
  -21.0838   -8.8770   19.8961 H   0  0  0  0  0  0
  -22.3669  -10.9681   19.6167 H   0  0  0  0  0  0
  -21.2005   -7.6138   23.9722 H   0  0  0  0  0  0
  -21.1499   -6.0503   25.9073 H   0  0  0  0  0  0
  -22.0595   -2.7609   23.2823 H   0  0  0  0  0  0
  -22.4041  -11.9950   22.4828 H   0  0  0  0  0  0
  -21.1076  -13.1345   22.2539 H   0  0  0  0  0  0
  -24.6567  -15.8402   20.5193 H   0  0  0  0  0  0
  -26.2657  -15.6315   20.0582 H   0  0  0  0  0  0
  -26.7187  -32.5455   23.1078 H   0  0  0  0  0  0
  -25.0117  -33.9707   25.0426 H   0  0  0  0  0  0
  -22.7161  -31.2997   21.3922 H   0  0  0  0  0  0
  -23.3758  -35.9617   23.3302 H   0  0  0  0  0  0
  -24.3595  -36.8902   22.2048 H   0  0  0  0  0  0
  -23.7256  -37.6489   23.6663 H   0  0  0  0  0  0
  -26.0937  -31.5527   20.6006 H   0  0  0  0  0  0
  -26.8418  -30.8402   21.9995 H   0  0  0  0  0  0
  -28.1238  -28.9944   21.1829 H   0  0  0  0  0  0
  -26.0204  -25.9193   19.0122 H   0  0  0  0  0  0
  -23.9857  -27.2922   19.0100 H   0  0  0  0  0  0
  -23.7571  -30.5810   19.3966 H   0  0  0  0  0  0
  -22.7601  -29.2337   19.8582 H   0  0  0  0  0  0
  -25.1312  -36.1916   25.0812 H   0  0  0  0  0  0
  -20.9986  -28.3289   24.1395 H   0  0  0  0  0  0
  -20.5707  -26.2318   23.3607 H   0  0  0  0  0  0
  -21.6656  -26.7476   22.1190 H   0  0  0  0  0  0
  -19.6931  -25.6300   21.1251 H   0  0  0  0  0  0
  -19.6701  -27.3193   20.6737 H   0  0  0  0  0  0
  -17.4214  -26.6687   21.4017 H   0  0  0  0  0  0
  -18.0339  -26.0079   22.9016 H   0  0  0  0  0  0
  -19.7942  -30.7276   24.2268 H   0  0  0  0  0  0
  -17.5025  -31.6277   24.5166 H   0  0  0  0  0  0
  -15.5361  -30.2999   23.7655 H   0  0  0  0  0  0
  -15.8679  -28.0830   22.7074 H   0  0  0  0  0  0
  -24.5911  -30.7074   25.7727 H   0  0  0  0  0  0
  -24.8924  -32.2895   26.4816 H   0  0  0  0  0  0
  -25.8045  -30.8904   27.0190 H   0  0  0  0  0  0
  -26.2914  -29.6736   24.1193 H   0  0  0  0  0  0
  -27.4080  -29.7269   25.4642 H   0  0  0  0  0  0
  -27.8778  -30.4283   23.9345 H   0  0  0  0  0  0
  -27.2671  -33.3615   26.2040 H   0  0  0  0  0  0
  -28.3883  -32.6860   25.0305 H   0  0  0  0  0  0
  -28.0722  -31.8437   26.5390 H   0  0  0  0  0  0
  -28.2595  -38.0094   24.7517 H   0  0  0  0  0  0
  -28.1084  -36.2629   24.6293 H   0  0  0  0  0  0
  -27.2302  -37.1446   25.8864 H   0  0  0  0  0  0
  -20.9374  -29.8756   21.6850 H   0  0  0  0  0  0
  -26.0178  -38.2844   24.1391 H   0  0  0  0  0  0
  -29.5342  -20.7728   16.0738 H   0  0  0  0  0  0
  -29.1129  -19.4561   17.1533 H   0  0  0  0  0  0
  -30.6955  -20.3005   17.2728 H   0  0  0  0  0  0
  -27.7000  -22.3106   16.6010 H   0  0  0  0  0  0
  -27.0839  -22.4422   18.2406 H   0  0  0  0  0  0
  -27.0181  -20.9068   17.4155 H   0  0  0  0  0  0
  -30.7291  -16.7577   18.4783 H   0  0  0  0  0  0
  -31.8945  -17.9354   19.0366 H   0  0  0  0  0  0
  -30.7759  -18.2923   17.7503 H   0  0  0  0  0  0
  -32.0240  -19.6879   20.8550 H   0  0  0  0  0  0
  -31.4592  -21.3449   20.7422 H   0  0  0  0  0  0
  -31.8431  -20.4548   19.2806 H   0  0  0  0  0  0
  -28.5397  -23.9336   18.8580 H   0  0  0  0  0  0
  -29.9656  -24.1036   19.8097 H   0  0  0  0  0  0
  -27.7316  -22.3162   20.8620 H   0  0  0  0  0  0
  -29.3666  -22.3117   21.3680 H   0  0  0  0  0  0
  -29.5188  -17.5081   21.8394 H   0  0  0  0  0  0
  -31.1538  -17.2914   21.3185 H   0  0  0  0  0  0
  -28.5317  -25.0839   21.6624 H   0  0  0  0  0  0
  -27.1200  -24.8306   20.7093 H   0  0  0  0  0  0
  -29.6953  -22.2755   18.0006 H   0  0  0  0  0  0
  -28.8523  -18.0979   19.4374 H   0  0  0  0  0  0
  -29.6301  -19.8428   21.2503 H   0  0  0  0  0  0
  -27.9987  -20.5054   19.6847 H   0  0  0  0  0  0
  -28.8497  -15.4894   20.9003 H   0  0  0  0  0  0
  1 25  1  0  0  0
  1 30  2  0  0  0
  1 83  1  0  0  0
  2  3  1  0  0  0
  2 25  1  0  0  0
  2 84  1  0  0  0
  2 85  1  0  0  0
  3  4  1  0  0  0
  3 86  1  0  0  0
  3 87  1  0  0  0
  4  5  1  0  0  0
  4 88  1  0  0  0
  4 89  1  0  0  0
  5  6  1  0  0  0
  5 26  1  0  0  0
  5 90  1  0  0  0
  6 25  1  0  0  0
  6 91  1  0  0  0
  6 92  1  0  0  0
  7  8  2  0  0  0
  7 26  1  0  0  0
  7 29  1  0  0  0
  8  9  1  0  0  0
  8 22  1  0  0  0
  9 10  1  0  0  0
  9 27  2  0  0  0
 10 11  2  0  0  0
 10 15  1  0  0  0
 11 12  1  0  0  0
 11 93  1  0  0  0
 12 13  2  0  0  0
 12 94  1  0  0  0
 13 14  1  0  0  0
 13 31  1  0  0  0
 14 15  2  0  0  0
 14 95  1  0  0  0
 15 96  1  0  0  0
 16 17  2  0  0  0
 16 21  1  0  0  0
 16 31  1  0  0  0
 17 18  1  0  0  0
 17 97  1  0  0  0
 18 19  2  0  0  0
 18 98  1  0  0  0
 19 20  1  0  0  0
 19 24  1  0  0  0
 20 21  2  0  0  0
 20 99  1  0  0  0
 21 23  1  0  0  0
 22 28  1  0  0  0
 22 32  2  0  0  0
 26 27  1  0  0  0
 28100  1  0  0  0
 28101  1  0  0  0
 29102  1  0  0  0
 29103  1  0  0  0
 33 34  1  0  0  0
 33 66  1  0  0  0
 33 70  2  0  0  0
 34 36  1  0  0  0
 34 59  1  0  0  0
 34104  1  0  0  0
 35 44  2  0  0  0
 35 45  1  0  0  0
 35 68  1  0  0  0
 36 56  1  0  0  0
 36105  1  0  0  0
 37 39  1  0  0  0
 37 47  1  0  0  0
 37 66  1  0  0  0
 37106  1  0  0  0
 38 43  2  0  0  0
 38 46  1  0  0  0
 38 47  1  0  0  0
 39 64  1  0  0  0
 39 67  2  0  0  0
 40 52  1  0  0  0
 40 53  2  0  0  0
 40 58  1  0  0  0
 41107  1  0  0  0
 41108  1  0  0  0
 41109  1  0  0  0
 41 48  1  0  0  0
 42 43  1  0  0  0
 42 66  1  0  0  0
 42110  1  0  0  0
 42111  1  0  0  0
 43 44  1  0  0  0
 44112  1  0  0  0
 45 46  2  0  0  0
 45113  1  0  0  0
 46114  1  0  0  0
 47115  1  0  0  0
 47116  1  0  0  0
 48 56  1  0  0  0
 48 65  1  0  0  0
 48117  1  0  0  0
 49 50  1  0  0  0
 49 53  1  0  0  0
 49 64  1  0  0  0
 49118  1  0  0  0
 50 51  1  0  0  0
 50119  1  0  0  0
 50120  1  0  0  0
 51 52  1  0  0  0
 51121  1  0  0  0
 51122  1  0  0  0
 52123  1  0  0  0
 52124  1  0  0  0
 53 54  1  0  0  0
 54 55  2  0  0  0
 54125  1  0  0  0
 55 57  1  0  0  0
 55126  1  0  0  0
 56 69  2  0  0  0
 57 58  2  0  0  0
 57127  1  0  0  0
 58128  1  0  0  0
 59 60  1  0  0  0
 59 61  1  0  0  0
 59 62  1  0  0  0
 60129  1  0  0  0
 60130  1  0  0  0
 60131  1  0  0  0
 61132  1  0  0  0
 61133  1  0  0  0
 61134  1  0  0  0
 62135  1  0  0  0
 62136  1  0  0  0
 62137  1  0  0  0
 63 65  1  0  0  0
 63138  1  0  0  0
 63139  1  0  0  0
 63140  1  0  0  0
 64141  1  0  0  0
 65142  1  0  0  0
 68 78  1  0  0  0
 71143  1  0  0  0
 71144  1  0  0  0
 71145  1  0  0  0
 71 79  1  0  0  0
 72 79  1  0  0  0
 72146  1  0  0  0
 72147  1  0  0  0
 72148  1  0  0  0
 73149  1  0  0  0
 73150  1  0  0  0
 73151  1  0  0  0
 73 80  1  0  0  0
 74152  1  0  0  0
 74153  1  0  0  0
 74154  1  0  0  0
 74 81  1  0  0  0
 75 76  1  0  0  0
 75 78  1  0  0  0
 75155  1  0  0  0
 75156  1  0  0  0
 76157  1  0  0  0
 76158  1  0  0  0
 76 82  1  0  0  0
 77 80  1  0  0  0
 77 83  1  0  0  0
 77159  1  0  0  0
 77160  1  0  0  0
 78161  1  0  0  0
 78162  1  0  0  0
 79 82  1  0  0  0
 79163  1  0  0  0
 80 81  1  0  0  0
 80164  1  0  0  0
 81 82  1  0  0  0
 81165  1  0  0  0
 82166  1  0  0  0
 83167  1  0  0  0
M  ISO  4   1 100  68 101  78 101  83 100
M  END
> <chiral flag>
0

> <version>
0

> <s_m_source_file>
/data/baiqing/PycharmProjects/Reinvent-master-3.2/result/LINK_invent/BTK/process_docking_weight1_custom_sum_contain_oxygen_bond_distance_aromatic_linkinvent_7_9_3/rearranged_h_0100.sdf

> <i_m_source_file_index>
72

> <r_mmod_Potential_Energy-OPLS-2005>
194.149795532227

> <r_mmod_Stretch_Energy-OPLS-2005>
115.792686462402

> <r_mmod_Bend_Energy-OPLS-2005>
195.284927368164

> <r_mmod_Torsional_Energy-OPLS-2005>
276.471984863281

> <r_mmod_Improper_Torsional_Energy-OPLS-2005>
4.32594728469849

> <r_mmod_Van_der_Waal_Energy-OPLS-2005>
134.868469238281

> <r_mmod_Electrostatic_Energy-OPLS-2005>
-395.542907714844

> <r_mmod_Solvation_Energy-OPLS-2005>
-189.911285400391

> <b_mmod_Minimization_Converged-OPLS-2005>
0

> <r_mmod_RMS_Derivative-OPLS-2005>
1.62189412117004

$$$$
72
                    3D
 Structure written by MMmdl.
161168  0  0  1  0            999 V2000
  -30.6715  -14.6685   20.5408 C   0  0  0  0  0  0
  -30.4376  -12.4282   19.4602 C   0  0  0  0  0  0
  -29.5123  -12.5286   18.2281 C   0  0  0  0  0  0
  -28.0346  -12.3642   18.6341 C   0  0  0  0  0  0
  -27.6560  -13.2257   19.8672 C   0  0  2  0  0  0
  -28.7002  -13.0740   20.9909 C   0  0  0  0  0  0
  -25.2577  -13.8195   20.5709 C   0  0  0  0  0  0
  -24.1847  -13.0455   20.9204 C   0  0  0  0  0  0
  -24.6422  -11.6923   20.8750 C   0  0  0  0  0  0
  -23.9095  -10.4301   21.0418 C   0  0  0  0  0  0
  -24.3630   -9.4210   21.9190 C   0  0  0  0  0  0
  -23.6298   -8.2249   22.0754 C   0  0  0  0  0  0
  -22.4275   -8.0294   21.3548 C   0  0  0  0  0  0
  -21.9931   -9.0278   20.4641 C   0  0  0  0  0  0
  -22.7276  -10.2146   20.3056 C   0  0  0  0  0  0
  -21.6846   -6.0742   22.5281 C   0  0  0  0  0  0
  -21.4011   -6.5635   23.8220 C   0  0  0  0  0  0
  -21.3662   -5.6788   24.9180 C   0  0  0  0  0  0
  -21.6043   -4.3050   24.7227 C   0  0  0  0  0  0
  -21.8823   -3.8146   23.4347 C   0  0  0  0  0  0
  -21.9191   -4.6971   22.3407 C   0  0  0  0  0  0
  -22.7863  -13.5228   21.1890 C   0  0  0  0  0  0
  -22.1656   -4.2160   21.0979 F   0  0  0  0  0  0
  -21.5637   -3.4528   25.7741 F   0  0  0  0  0  0
  -30.0090  -13.4604   20.4346 N   0  0  0  0  0  0
  -26.3014  -12.9389   20.3346 N   0  0  0  0  0  0
  -25.9354  -11.6537   20.5769 N   0  0  0  0  0  0
  -22.0496  -12.8194   22.0419 N   0  0  0  0  0  0
  -25.4338  -15.1921   20.4139 N   0  0  0  0  0  0
  -31.8068  -14.7787   20.0659 O   0  0  0  0  0  0
  -21.6627   -6.8893   21.4243 O   0  0  0  0  0  0
  -22.3554  -14.5553   20.6774 O   0  0  0  0  0  0
  -24.6263  -31.8574   23.1989 C   0  0  0  0  0  0
  -25.9099  -32.4768   23.8314 C   0  0  1  0  0  0
  -27.2254  -27.2994   20.1257 C   0  0  0  0  0  0
  -25.5918  -33.8567   24.2251 N   0  0  0  0  0  0
  -23.4212  -30.4776   21.5434 C   0  0  2  0  0  0
  -24.8681  -28.9207   20.1212 C   0  0  0  0  0  0
  -22.7477  -29.4597   22.4936 C   0  0  0  0  0  0
  -18.0289  -28.1351   22.8495 C   0  0  0  0  0  0
  -24.1490  -36.7269   23.2642 C   0  0  0  0  0  0
  -25.9634  -30.7808   21.3712 C   0  0  0  0  0  0
  -26.0393  -29.4045   20.7175 C   0  0  0  0  0  0
  -27.2252  -28.6086   20.7022 C   0  0  0  0  0  0
  -26.0301  -26.8584   19.5252 C   0  0  0  0  0  0
  -24.8648  -27.6535   19.5164 C   0  0  0  0  0  0
  -23.6383  -29.8073   20.1611 C   0  0  0  0  0  0
  -25.4124  -36.3071   24.0325 C   0  0  1  0  0  0
  -20.5892  -28.3670   23.1280 C   0  0  2  0  0  0
  -20.6795  -26.9400   22.5389 C   0  0  0  0  0  0
  -19.5770  -26.6377   21.5195 C   0  0  0  0  0  0
  -18.1941  -26.7899   22.1610 C   0  0  0  0  0  0
  -19.1540  -28.8829   23.2881 C   0  0  0  0  0  0
  -18.9466  -30.1430   23.8909 C   0  0  0  0  0  0
  -17.6470  -30.6574   24.0548 C   0  0  0  0  0  0
  -25.9062  -34.9442   23.5094 C   0  0  0  0  0  0
  -16.5356  -29.9072   23.6323 C   0  0  0  0  0  0
  -16.7275  -28.6475   23.0376 C   0  0  0  0  0  0
  -26.4502  -31.6593   25.0689 C   0  0  0  0  0  0
  -25.3733  -31.3666   26.1406 C   0  0  0  0  0  0
  -27.0378  -30.3039   24.6127 C   0  0  0  0  0  0
  -27.6034  -32.4368   25.7463 C   0  0  0  0  0  0
  -27.5578  -37.1791   24.8482 C   0  0  0  0  0  0
  -21.4196  -29.3024   22.3675 N   0  0  0  0  0  0
  -26.4299  -37.3774   23.9422 N   0  0  0  0  0  0
  -24.6891  -31.0555   22.0945 N   0  0  0  0  0  0
  -23.4197  -28.8143   23.3022 O   0  0  0  0  0  0
  -28.3540  -26.4646   20.0976 O   0  0  0  0  0  0
  -26.5633  -34.8915   22.4664 O   0  0  0  0  0  0
  -23.5433  -32.1397   23.7305 O   0  0  0  0  0  0
  -27.6035  -23.3506   18.8007 C   0  0  0  0  0  0
  -30.2767  -22.8929   21.6603 C   0  0  0  0  0  0
  -29.4970  -15.8600   22.3281 C   0  0  0  0  0  0
  -29.3334  -18.4501   20.5967 C   0  0  0  0  0  0
  -30.3704  -17.2167   20.4726 C   0  0  0  0  0  0
  -29.9122  -19.9411   20.3886 C   0  0  0  0  0  0
  -28.2664  -25.0766   20.6292 C   0  0  0  0  0  0
  -28.7351  -23.8198   19.7298 C   0  0  1  0  0  0
  -29.5731  -22.5547   20.3314 C   0  0  2  0  0  0
  -29.9901  -15.8153   20.9465 N   0  0  0  0  0  0
  -28.9596  -21.1456   20.3477 N   0  3  0  0  0  0
  -31.4789  -12.5456   19.1551 H   0  0  0  0  0  0
  -30.3792  -11.4347   19.9075 H   0  0  0  0  0  0
  -29.7858  -11.7754   17.4883 H   0  0  0  0  0  0
  -29.6558  -13.4957   17.7415 H   0  0  0  0  0  0
  -27.8687  -11.3090   18.8557 H   0  0  0  0  0  0
  -27.3839  -12.6050   17.7933 H   0  0  0  0  0  0
  -27.6782  -14.2661   19.5424 H   0  0  0  0  0  0
  -28.7361  -12.0409   21.3392 H   0  0  0  0  0  0
  -28.4070  -13.6501   21.8613 H   0  0  0  0  0  0
  -25.2773   -9.5661   22.4774 H   0  0  0  0  0  0
  -24.0006   -7.4620   22.7453 H   0  0  0  0  0  0
  -21.0882   -8.8809   19.8924 H   0  0  0  0  0  0
  -22.3766  -10.9691   19.6161 H   0  0  0  0  0  0
  -21.1997   -7.6141   23.9739 H   0  0  0  0  0  0
  -21.1478   -6.0501   25.9085 H   0  0  0  0  0  0
  -22.0601   -2.7616   23.2846 H   0  0  0  0  0  0
  -22.4084  -11.9802   22.4730 H   0  0  0  0  0  0
  -21.1126  -13.1228   22.2662 H   0  0  0  0  0  0
  -24.6802  -15.8616   20.5246 H   0  0  0  0  0  0
  -26.3033  -15.6184   20.1195 H   0  0  0  0  0  0
  -26.7142  -32.5450   23.1033 H   0  0  0  0  0  0
  -25.0101  -33.9721   25.0418 H   0  0  0  0  0  0
  -22.7162  -31.2989   21.3966 H   0  0  0  0  0  0
  -23.3772  -35.9573   23.3304 H   0  0  0  0  0  0
  -24.3578  -36.8925   22.2060 H   0  0  0  0  0  0
  -23.7236  -37.6461   23.6687 H   0  0  0  0  0  0
  -26.0962  -31.5392   20.5990 H   0  0  0  0  0  0
  -26.8429  -30.8341   22.0013 H   0  0  0  0  0  0
  -28.1315  -28.9809   21.1583 H   0  0  0  0  0  0
  -25.9856  -25.8828   19.0640 H   0  0  0  0  0  0
  -23.9656  -27.2757   19.0509 H   0  0  0  0  0  0
  -23.7649  -30.5835   19.4043 H   0  0  0  0  0  0
  -22.7578  -29.2409   19.8558 H   0  0  0  0  0  0
  -25.1303  -36.1901   25.0815 H   0  0  0  0  0  0
  -20.9979  -28.3228   24.1405 H   0  0  0  0  0  0
  -20.5746  -26.2258   23.3574 H   0  0  0  0  0  0
  -21.6658  -26.7453   22.1162 H   0  0  0  0  0  0
  -19.6949  -25.6291   21.1241 H   0  0  0  0  0  0
  -19.6710  -27.3173   20.6712 H   0  0  0  0  0  0
  -17.4214  -26.6642   21.4001 H   0  0  0  0  0  0
  -18.0349  -26.0006   22.8977 H   0  0  0  0  0  0
  -19.7940  -30.7220   24.2318 H   0  0  0  0  0  0
  -17.5029  -31.6282   24.5093 H   0  0  0  0  0  0
  -15.5366  -30.2983   23.7654 H   0  0  0  0  0  0
  -15.8664  -28.0797   22.7119 H   0  0  0  0  0  0
  -24.5911  -30.7032   25.7704 H   0  0  0  0  0  0
  -24.8888  -32.2789   26.4887 H   0  0  0  0  0  0
  -25.8046  -30.8793   27.0156 H   0  0  0  0  0  0
  -26.2923  -29.6750   24.1248 H   0  0  0  0  0  0
  -27.4234  -29.7339   25.4594 H   0  0  0  0  0  0
  -27.8717  -30.4386   23.9233 H   0  0  0  0  0  0
  -27.2637  -33.3720   26.1934 H   0  0  0  0  0  0
  -28.3868  -32.6882   25.0294 H   0  0  0  0  0  0
  -28.0660  -31.8569   26.5473 H   0  0  0  0  0  0
  -28.2582  -38.0101   24.7567 H   0  0  0  0  0  0
  -28.1107  -36.2641   24.6286 H   0  0  0  0  0  0
  -27.2296  -37.1406   25.8885 H   0  0  0  0  0  0
  -20.9377  -29.8725   21.6860 H   0  0  0  0  0  0
  -26.0176  -38.2843   24.1443 H   0  0  0  0  0  0
  -27.1736  -24.1864   18.2511 H   0  0  0  0  0  0
  -26.7978  -22.8740   19.3604 H   0  0  0  0  0  0
  -27.9651  -22.6408   18.0559 H   0  0  0  0  0  0
  -30.8031  -23.8445   21.5823 H   0  0  0  0  0  0
  -31.0342  -22.1571   21.9290 H   0  0  0  0  0  0
  -29.5719  -22.9665   22.4886 H   0  0  0  0  0  0
  -28.4076  -15.8774   22.3368 H   0  0  0  0  0  0
  -29.8465  -16.7446   22.8610 H   0  0  0  0  0  0
  -29.8351  -15.0059   22.9192 H   0  0  0  0  0  0
  -28.8650  -18.4224   21.5802 H   0  0  0  0  0  0
  -28.5198  -18.2811   19.8908 H   0  0  0  0  0  0
  -31.2894  -17.4859   20.9961 H   0  0  0  0  0  0
  -30.6625  -17.1407   19.4229 H   0  0  0  0  0  0
  -30.5025  -19.9594   19.4715 H   0  0  0  0  0  0
  -30.6246  -20.1064   21.1953 H   0  0  0  0  0  0
  -28.8905  -25.1173   21.5176 H   0  0  0  0  0  0
  -27.2662  -24.8787   21.0164 H   0  0  0  0  0  0
  -29.4641  -24.2925   19.0694 H   0  0  0  0  0  0
  -30.3842  -22.4327   19.6106 H   0  0  0  0  0  0
  -28.3152  -21.0842   21.1194 H   0  0  0  0  0  0
  -28.4139  -21.0499   19.5065 H   0  0  0  0  0  0
  1 25  1  0  0  0
  1 30  2  0  0  0
  1 80  1  0  0  0
  2  3  1  0  0  0
  2 25  1  0  0  0
  2 82  1  0  0  0
  2 83  1  0  0  0
  3  4  1  0  0  0
  3 84  1  0  0  0
  3 85  1  0  0  0
  4  5  1  0  0  0
  4 86  1  0  0  0
  4 87  1  0  0  0
  5  6  1  0  0  0
  5 26  1  0  0  0
  5 88  1  0  0  0
  6 25  1  0  0  0
  6 89  1  0  0  0
  6 90  1  0  0  0
  7  8  2  0  0  0
  7 26  1  0  0  0
  7 29  1  0  0  0
  8  9  1  0  0  0
  8 22  1  0  0  0
  9 10  1  0  0  0
  9 27  2  0  0  0
 10 11  2  0  0  0
 10 15  1  0  0  0
 11 12  1  0  0  0
 11 91  1  0  0  0
 12 13  2  0  0  0
 12 92  1  0  0  0
 13 14  1  0  0  0
 13 31  1  0  0  0
 14 15  2  0  0  0
 14 93  1  0  0  0
 15 94  1  0  0  0
 16 17  2  0  0  0
 16 21  1  0  0  0
 16 31  1  0  0  0
 17 18  1  0  0  0
 17 95  1  0  0  0
 18 19  2  0  0  0
 18 96  1  0  0  0
 19 20  1  0  0  0
 19 24  1  0  0  0
 20 21  2  0  0  0
 20 97  1  0  0  0
 21 23  1  0  0  0
 22 28  1  0  0  0
 22 32  2  0  0  0
 26 27  1  0  0  0
 28 98  1  0  0  0
 28 99  1  0  0  0
 29100  1  0  0  0
 29101  1  0  0  0
 33 34  1  0  0  0
 33 66  1  0  0  0
 33 70  2  0  0  0
 34 36  1  0  0  0
 34 59  1  0  0  0
 34102  1  0  0  0
 35 44  2  0  0  0
 35 45  1  0  0  0
 35 68  1  0  0  0
 36 56  1  0  0  0
 36103  1  0  0  0
 37 39  1  0  0  0
 37 47  1  0  0  0
 37 66  1  0  0  0
 37104  1  0  0  0
 38 43  2  0  0  0
 38 46  1  0  0  0
 38 47  1  0  0  0
 39 64  1  0  0  0
 39 67  2  0  0  0
 40 52  1  0  0  0
 40 53  2  0  0  0
 40 58  1  0  0  0
 41105  1  0  0  0
 41106  1  0  0  0
 41107  1  0  0  0
 41 48  1  0  0  0
 42 43  1  0  0  0
 42 66  1  0  0  0
 42108  1  0  0  0
 42109  1  0  0  0
 43 44  1  0  0  0
 44110  1  0  0  0
 45 46  2  0  0  0
 45111  1  0  0  0
 46112  1  0  0  0
 47113  1  0  0  0
 47114  1  0  0  0
 48 56  1  0  0  0
 48 65  1  0  0  0
 48115  1  0  0  0
 49 50  1  0  0  0
 49 53  1  0  0  0
 49 64  1  0  0  0
 49116  1  0  0  0
 50 51  1  0  0  0
 50117  1  0  0  0
 50118  1  0  0  0
 51 52  1  0  0  0
 51119  1  0  0  0
 51120  1  0  0  0
 52121  1  0  0  0
 52122  1  0  0  0
 53 54  1  0  0  0
 54 55  2  0  0  0
 54123  1  0  0  0
 55 57  1  0  0  0
 55124  1  0  0  0
 56 69  2  0  0  0
 57 58  2  0  0  0
 57125  1  0  0  0
 58126  1  0  0  0
 59 60  1  0  0  0
 59 61  1  0  0  0
 59 62  1  0  0  0
 60127  1  0  0  0
 60128  1  0  0  0
 60129  1  0  0  0
 61130  1  0  0  0
 61131  1  0  0  0
 61132  1  0  0  0
 62133  1  0  0  0
 62134  1  0  0  0
 62135  1  0  0  0
 63 65  1  0  0  0
 63136  1  0  0  0
 63137  1  0  0  0
 63138  1  0  0  0
 64139  1  0  0  0
 65140  1  0  0  0
 68 77  1  0  0  0
 71141  1  0  0  0
 71142  1  0  0  0
 71143  1  0  0  0
 71 78  1  0  0  0
 72144  1  0  0  0
 72145  1  0  0  0
 72146  1  0  0  0
 72 79  1  0  0  0
 73 80  1  0  0  0
 73147  1  0  0  0
 73148  1  0  0  0
 73149  1  0  0  0
 74 75  1  0  0  0
 74 76  1  0  0  0
 74150  1  0  0  0
 74151  1  0  0  0
 75 80  1  0  0  0
 75152  1  0  0  0
 75153  1  0  0  0
 76 81  1  0  0  0
 76154  1  0  0  0
 76155  1  0  0  0
 77 78  1  0  0  0
 77156  1  0  0  0
 77157  1  0  0  0
 78 79  1  0  0  0
 78158  1  0  0  0
 79 81  1  0  0  0
 79159  1  0  0  0
 81160  1  0  0  0
 81161  1  0  0  0
M  CHG  1  81   1
M  ISO  4   1 100  68 101  77 101  80 100
M  END
> <chiral flag>
0

> <version>
0

> <s_m_source_file>
/data/baiqing/PycharmProjects/Reinvent-master-3.2/result/LINK_invent/BTK/process_docking_weight1_custom_sum_contain_oxygen_bond_distance_aromatic_linkinvent_7_9_3/rearranged_h_0100.sdf

> <i_m_source_file_index>
73

> <r_mmod_Potential_Energy-OPLS-2005>
177.00862121582

> <r_mmod_Stretch_Energy-OPLS-2005>
115.461853027344

> <r_mmod_Bend_Energy-OPLS-2005>
180.719390869141

> <r_mmod_Torsional_Energy-OPLS-2005>
319.525329589844

> <r_mmod_Improper_Torsional_Energy-OPLS-2005>
8.29576110839844

> <r_mmod_Van_der_Waal_Energy-OPLS-2005>
129.372634887695

> <r_mmod_Electrostatic_Energy-OPLS-2005>
-176.887542724609

> <r_mmod_Solvation_Energy-OPLS-2005>
-451.030670166016

> <b_mmod_Minimization_Converged-OPLS-2005>
0

> <r_mmod_RMS_Derivative-OPLS-2005>
2.71563625335693

$$$$
73
                    3D
 Structure written by MMmdl.
176184  0  0  1  0            999 V2000
  -30.6509  -14.7616   20.4814 C   0  0  0  0  0  0
  -30.4357  -12.4764   19.4975 C   0  0  0  0  0  0
  -29.5165  -12.5260   18.2552 C   0  0  0  0  0  0
  -28.0435  -12.3407   18.6584 C   0  0  0  0  0  0
  -27.6457  -13.2237   19.8719 C   0  0  2  0  0  0
  -28.6960  -13.1839   21.0080 C   0  0  0  0  0  0
  -25.2181  -13.7528   20.4834 C   0  0  0  0  0  0
  -24.1682  -13.0065   20.9122 C   0  0  0  0  0  0
  -24.6444  -11.6622   20.9002 C   0  0  0  0  0  0
  -23.9102  -10.4086   21.0578 C   0  0  0  0  0  0
  -24.3628   -9.3974   21.9319 C   0  0  0  0  0  0
  -23.6244   -8.2060   22.0826 C   0  0  0  0  0  0
  -22.4237   -8.0166   21.3578 C   0  0  0  0  0  0
  -21.9918   -9.0161   20.4695 C   0  0  0  0  0  0
  -22.7291  -10.1999   20.3150 C   0  0  0  0  0  0
  -21.6801   -6.0692   22.5278 C   0  0  0  0  0  0
  -21.3979   -6.5619   23.8206 C   0  0  0  0  0  0
  -21.3683   -5.6774   24.9161 C   0  0  0  0  0  0
  -21.6047   -4.3033   24.7205 C   0  0  0  0  0  0
  -21.8813   -3.8136   23.4325 C   0  0  0  0  0  0
  -21.9161   -4.6934   22.3377 C   0  0  0  0  0  0
  -22.7776  -13.5012   21.1824 C   0  0  0  0  0  0
  -22.1632   -4.2153   21.0937 F   0  0  0  0  0  0
  -21.5666   -3.4505   25.7712 F   0  0  0  0  0  0
  -30.0015  -13.5428   20.4274 N   0  0  0  0  0  0
  -26.2962  -12.9061   20.3331 N   0  0  0  0  0  0
  -25.9475  -11.6270   20.6278 N   0  0  0  0  0  0
  -22.0575  -12.8213   22.0635 N   0  0  0  0  0  0
  -25.3162  -15.0767   20.1436 N   0  0  0  0  0  0
  -31.8196  -14.8469   20.1042 O   0  0  0  0  0  0
  -21.6554   -6.8808   21.4256 O   0  0  0  0  0  0
  -22.3491  -14.5294   20.6614 O   0  0  0  0  0  0
  -24.6262  -31.8598   23.2070 C   0  0  0  0  0  0
  -25.9083  -32.4796   23.8383 C   0  0  1  0  0  0
  -27.2376  -27.3287   20.0925 C   0  0  0  0  0  0
  -25.5928  -33.8595   24.2319 N   0  0  0  0  0  0
  -23.4175  -30.4866   21.5508 C   0  0  2  0  0  0
  -24.8692  -28.9477   20.1102 C   0  0  0  0  0  0
  -22.7453  -29.4616   22.4934 C   0  0  0  0  0  0
  -18.0277  -28.1382   22.8473 C   0  0  0  0  0  0
  -24.1499  -36.7265   23.2626 C   0  0  0  0  0  0
  -25.9637  -30.7978   21.3745 C   0  0  0  0  0  0
  -26.0428  -29.4277   20.7078 C   0  0  0  0  0  0
  -27.2294  -28.6316   20.6827 C   0  0  0  0  0  0
  -26.0325  -26.9055   19.4743 C   0  0  0  0  0  0
  -24.8674  -27.6952   19.4880 C   0  0  0  0  0  0
  -23.6343  -29.8280   20.1626 C   0  0  0  0  0  0
  -25.4124  -36.3059   24.0319 C   0  0  1  0  0  0
  -20.5869  -28.3667   23.1275 C   0  0  2  0  0  0
  -20.6754  -26.9375   22.5419 C   0  0  0  0  0  0
  -19.5754  -26.6373   21.5197 C   0  0  0  0  0  0
  -18.1925  -26.7929   22.1608 C   0  0  0  0  0  0
  -19.1523  -28.8853   23.2889 C   0  0  0  0  0  0
  -18.9450  -30.1440   23.8901 C   0  0  0  0  0  0
  -17.6446  -30.6595   24.0552 C   0  0  0  0  0  0
  -25.9048  -34.9439   23.5113 C   0  0  0  0  0  0
  -16.5335  -29.9080   23.6325 C   0  0  0  0  0  0
  -16.7258  -28.6505   23.0350 C   0  0  0  0  0  0
  -26.4496  -31.6582   25.0725 C   0  0  0  0  0  0
  -25.3747  -31.3717   26.1465 C   0  0  0  0  0  0
  -27.0310  -30.3005   24.6121 C   0  0  0  0  0  0
  -27.6074  -32.4296   25.7493 C   0  0  0  0  0  0
  -27.5585  -37.1771   24.8460 C   0  0  0  0  0  0
  -21.4149  -29.3025   22.3674 N   0  0  0  0  0  0
  -26.4286  -37.3750   23.9407 N   0  0  0  0  0  0
  -24.6886  -31.0620   22.1022 N   0  0  0  0  0  0
  -23.4182  -28.8081   23.2937 O   0  0  0  0  0  0
  -28.3669  -26.4824   20.1191 O   0  0  0  0  0  0
  -26.5570  -34.8864   22.4649 O   0  0  0  0  0  0
  -23.5417  -32.1416   23.7399 O   0  0  0  0  0  0
  -29.6344  -21.2060   20.6525 C   0  0  0  0  0  0
  -27.4257  -22.1811   20.5986 C   0  0  0  0  0  0
  -28.8051  -22.3946   20.4893 C   0  0  0  0  0  0
  -29.0784  -19.9277   21.0835 C   0  0  0  0  0  0
  -27.6951  -20.0269   21.4091 C   0  0  0  0  0  0
  -26.2247  -17.9238   20.0952 C   0  0  0  0  0  0
  -26.3986  -16.6315   22.3792 C   0  0  0  0  0  0
  -31.9491  -19.5554   24.6212 C   0  0  0  0  0  0
  -30.3163  -17.6711   24.4963 C   0  0  0  0  0  0
  -29.2726  -23.9002   20.2790 C   0  0  0  0  0  0
  -26.9533  -19.0738   22.3285 C   0  0  0  0  0  0
  -31.1015  -18.8333   22.3368 C   0  0  0  0  0  0
  -30.1677  -17.3741   20.3551 C   0  0  0  0  0  0
  -28.1275  -25.0188   20.0849 C   0  0  0  0  0  0
  -29.8747  -18.5592   21.4278 C   0  0  2  0  0  0
  -26.1250  -17.9660   21.6490 C   0  0  0  0  0  0
  -30.7535  -18.9950   23.8385 C   0  0  0  0  0  0
  -26.8976  -21.0534   21.0683 N   0  0  0  0  0  0
  -29.9173  -15.9093   20.7574 N   0  0  0  0  0  0
  -31.4683  -12.6107   19.1885 H   0  0  0  0  0  0
  -30.3952  -11.5059   19.9958 H   0  0  0  0  0  0
  -29.8050  -11.7459   17.5522 H   0  0  0  0  0  0
  -29.6451  -13.4797   17.7367 H   0  0  0  0  0  0
  -27.8908  -11.2877   18.9009 H   0  0  0  0  0  0
  -27.3974  -12.5564   17.8070 H   0  0  0  0  0  0
  -27.6308  -14.2493   19.5086 H   0  0  0  0  0  0
  -28.7354  -12.1956   21.4667 H   0  0  0  0  0  0
  -28.4211  -13.8685   21.8063 H   0  0  0  0  0  0
  -25.2815   -9.5360   22.4863 H   0  0  0  0  0  0
  -23.9951   -7.4406   22.7501 H   0  0  0  0  0  0
  -21.0867   -8.8701   19.8997 H   0  0  0  0  0  0
  -22.3840  -10.9583   19.6234 H   0  0  0  0  0  0
  -21.2003   -7.6148   23.9695 H   0  0  0  0  0  0
  -21.1532   -6.0531   25.9053 H   0  0  0  0  0  0
  -22.0616   -2.7629   23.2790 H   0  0  0  0  0  0
  -22.4343  -11.9963   22.5101 H   0  0  0  0  0  0
  -21.1236  -13.1248   22.2999 H   0  0  0  0  0  0
  -24.5110  -15.6863   20.2221 H   0  0  0  0  0  0
  -26.1412  -15.5380   19.7904 H   0  0  0  0  0  0
  -26.7119  -32.5485   23.1094 H   0  0  0  0  0  0
  -25.0145  -33.9785   25.0506 H   0  0  0  0  0  0
  -22.7111  -31.3095   21.4148 H   0  0  0  0  0  0
  -23.3762  -35.9596   23.3292 H   0  0  0  0  0  0
  -24.3581  -36.8886   22.2039 H   0  0  0  0  0  0
  -23.7245  -37.6452   23.6664 H   0  0  0  0  0  0
  -26.0853  -31.5714   20.6159 H   0  0  0  0  0  0
  -26.8434  -30.8496   22.0024 H   0  0  0  0  0  0
  -28.1338  -29.0058   21.1399 H   0  0  0  0  0  0
  -25.9495  -25.9502   18.9806 H   0  0  0  0  0  0
  -23.9625  -27.3302   19.0224 H   0  0  0  0  0  0
  -23.7581  -30.6160   19.4191 H   0  0  0  0  0  0
  -22.7535  -29.2613   19.8523 H   0  0  0  0  0  0
  -25.1295  -36.1905   25.0804 H   0  0  0  0  0  0
  -20.9987  -28.3252   24.1391 H   0  0  0  0  0  0
  -20.5626  -26.2253   23.3604 H   0  0  0  0  0  0
  -21.6620  -26.7410   22.1208 H   0  0  0  0  0  0
  -19.6916  -25.6279   21.1232 H   0  0  0  0  0  0
  -19.6717  -27.3184   20.6718 H   0  0  0  0  0  0
  -17.4177  -26.6643   21.4030 H   0  0  0  0  0  0
  -18.0358  -26.0091   22.9030 H   0  0  0  0  0  0
  -19.7917  -30.7264   24.2277 H   0  0  0  0  0  0
  -17.4995  -31.6276   24.5138 H   0  0  0  0  0  0
  -15.5330  -30.2993   23.7662 H   0  0  0  0  0  0
  -15.8642  -28.0833   22.7070 H   0  0  0  0  0  0
  -24.5913  -30.7075   25.7789 H   0  0  0  0  0  0
  -24.8956  -32.2901   26.4884 H   0  0  0  0  0  0
  -25.8099  -30.8892   27.0228 H   0  0  0  0  0  0
  -26.2877  -29.6780   24.1127 H   0  0  0  0  0  0
  -27.4001  -29.7221   25.4592 H   0  0  0  0  0  0
  -27.8752  -30.4277   23.9335 H   0  0  0  0  0  0
  -27.2690  -33.3585   26.2087 H   0  0  0  0  0  0
  -28.3885  -32.6854   25.0323 H   0  0  0  0  0  0
  -28.0719  -31.8385   26.5387 H   0  0  0  0  0  0
  -28.2556  -38.0106   24.7499 H   0  0  0  0  0  0
  -28.1117  -36.2616   24.6307 H   0  0  0  0  0  0
  -27.2281  -37.1438   25.8854 H   0  0  0  0  0  0
  -20.9305  -29.8781   21.6918 H   0  0  0  0  0  0
  -26.0170  -38.2798   24.1481 H   0  0  0  0  0  0
  -30.7042  -21.3000   20.5272 H   0  0  0  0  0  0
  -26.6951  -22.9528   20.4265 H   0  0  0  0  0  0
  -25.3394  -17.4781   19.6424 H   0  0  0  0  0  0
  -27.1219  -17.4169   19.7351 H   0  0  0  0  0  0
  -26.2303  -18.9140   19.6467 H   0  0  0  0  0  0
  -25.5105  -16.0002   22.4019 H   0  0  0  0  0  0
  -26.6545  -16.7725   23.4295 H   0  0  0  0  0  0
  -27.2132  -16.0748   21.9112 H   0  0  0  0  0  0
  -31.7351  -19.6132   25.6912 H   0  0  0  0  0  0
  -32.2137  -20.5632   24.2943 H   0  0  0  0  0  0
  -32.8212  -18.9153   24.4898 H   0  0  0  0  0  0
  -30.1011  -17.8222   25.5531 H   0  0  0  0  0  0
  -31.1139  -16.9323   24.4231 H   0  0  0  0  0  0
  -29.4246  -17.2352   24.0465 H   0  0  0  0  0  0
  -29.9544  -23.9369   19.4274 H   0  0  0  0  0  0
  -29.8604  -24.1825   21.1532 H   0  0  0  0  0  0
  -26.2598  -19.6787   22.9224 H   0  0  0  0  0  0
  -27.6141  -18.7137   23.1153 H   0  0  0  0  0  0
  -31.6299  -19.7191   21.9819 H   0  0  0  0  0  0
  -31.8310  -18.0261   22.2331 H   0  0  0  0  0  0
  -31.1979  -17.4680   20.0007 H   0  0  0  0  0  0
  -29.5529  -17.5501   19.4715 H   0  0  0  0  0  0
  -27.3842  -24.8717   20.8699 H   0  0  0  0  0  0
  -27.6528  -24.7693   19.1364 H   0  0  0  0  0  0
  -29.2020  -18.0025   22.0571 H   0  0  0  0  0  0
  -25.0830  -18.2232   21.8477 H   0  0  0  0  0  0
  -29.9365  -19.7131   23.9243 H   0  0  0  0  0  0
  -28.9851  -15.7241   21.0975 H   0  0  0  0  0  0
  1 25  1  0  0  0
  1 30  2  0  0  0
  1 89  1  0  0  0
  2  3  1  0  0  0
  2 25  1  0  0  0
  2 90  1  0  0  0
  2 91  1  0  0  0
  3  4  1  0  0  0
  3 92  1  0  0  0
  3 93  1  0  0  0
  4  5  1  0  0  0
  4 94  1  0  0  0
  4 95  1  0  0  0
  5  6  1  0  0  0
  5 26  1  0  0  0
  5 96  1  0  0  0
  6 25  1  0  0  0
  6 97  1  0  0  0
  6 98  1  0  0  0
  7  8  2  0  0  0
  7 26  1  0  0  0
  7 29  1  0  0  0
  8  9  1  0  0  0
  8 22  1  0  0  0
  9 10  1  0  0  0
  9 27  2  0  0  0
 10 11  2  0  0  0
 10 15  1  0  0  0
 11 12  1  0  0  0
 11 99  1  0  0  0
 12 13  2  0  0  0
 12100  1  0  0  0
 13 14  1  0  0  0
 13 31  1  0  0  0
 14 15  2  0  0  0
 14101  1  0  0  0
 15102  1  0  0  0
 16 17  2  0  0  0
 16 21  1  0  0  0
 16 31  1  0  0  0
 17 18  1  0  0  0
 17103  1  0  0  0
 18 19  2  0  0  0
 18104  1  0  0  0
 19 20  1  0  0  0
 19 24  1  0  0  0
 20 21  2  0  0  0
 20105  1  0  0  0
 21 23  1  0  0  0
 22 28  1  0  0  0
 22 32  2  0  0  0
 26 27  1  0  0  0
 28106  1  0  0  0
 28107  1  0  0  0
 29108  1  0  0  0
 29109  1  0  0  0
 33 34  1  0  0  0
 33 66  1  0  0  0
 33 70  2  0  0  0
 34 36  1  0  0  0
 34 59  1  0  0  0
 34110  1  0  0  0
 35 44  2  0  0  0
 35 45  1  0  0  0
 35 68  1  0  0  0
 36 56  1  0  0  0
 36111  1  0  0  0
 37 39  1  0  0  0
 37 47  1  0  0  0
 37 66  1  0  0  0
 37112  1  0  0  0
 38 43  2  0  0  0
 38 46  1  0  0  0
 38 47  1  0  0  0
 39 64  1  0  0  0
 39 67  2  0  0  0
 40 52  1  0  0  0
 40 53  2  0  0  0
 40 58  1  0  0  0
 41113  1  0  0  0
 41114  1  0  0  0
 41115  1  0  0  0
 41 48  1  0  0  0
 42 43  1  0  0  0
 42 66  1  0  0  0
 42116  1  0  0  0
 42117  1  0  0  0
 43 44  1  0  0  0
 44118  1  0  0  0
 45 46  2  0  0  0
 45119  1  0  0  0
 46120  1  0  0  0
 47121  1  0  0  0
 47122  1  0  0  0
 48 56  1  0  0  0
 48 65  1  0  0  0
 48123  1  0  0  0
 49 50  1  0  0  0
 49 53  1  0  0  0
 49 64  1  0  0  0
 49124  1  0  0  0
 50 51  1  0  0  0
 50125  1  0  0  0
 50126  1  0  0  0
 51 52  1  0  0  0
 51127  1  0  0  0
 51128  1  0  0  0
 52129  1  0  0  0
 52130  1  0  0  0
 53 54  1  0  0  0
 54 55  2  0  0  0
 54131  1  0  0  0
 55 57  1  0  0  0
 55132  1  0  0  0
 56 69  2  0  0  0
 57 58  2  0  0  0
 57133  1  0  0  0
 58134  1  0  0  0
 59 60  1  0  0  0
 59 61  1  0  0  0
 59 62  1  0  0  0
 60135  1  0  0  0
 60136  1  0  0  0
 60137  1  0  0  0
 61138  1  0  0  0
 61139  1  0  0  0
 61140  1  0  0  0
 62141  1  0  0  0
 62142  1  0  0  0
 62143  1  0  0  0
 63 65  1  0  0  0
 63144  1  0  0  0
 63145  1  0  0  0
 63146  1  0  0  0
 64147  1  0  0  0
 65148  1  0  0  0
 68 84  1  0  0  0
 71 73  2  0  0  0
 71 74  1  0  0  0
 71149  1  0  0  0
 72 73  1  0  0  0
 72 88  2  0  0  0
 72150  1  0  0  0
 73 80  1  0  0  0
 74 75  2  0  0  0
 74 85  1  0  0  0
 75 81  1  0  0  0
 75 88  1  0  0  0
 76151  1  0  0  0
 76152  1  0  0  0
 76153  1  0  0  0
 76 86  1  0  0  0
 77 86  1  0  0  0
 77154  1  0  0  0
 77155  1  0  0  0
 77156  1  0  0  0
 78157  1  0  0  0
 78158  1  0  0  0
 78159  1  0  0  0
 78 87  1  0  0  0
 79 87  1  0  0  0
 79160  1  0  0  0
 79161  1  0  0  0
 79162  1  0  0  0
 80 84  1  0  0  0
 80163  1  0  0  0
 80164  1  0  0  0
 81 86  1  0  0  0
 81165  1  0  0  0
 81166  1  0  0  0
 82 87  1  0  0  0
 82167  1  0  0  0
 82168  1  0  0  0
 82 85  1  0  0  0
 83 85  1  0  0  0
 83 89  1  0  0  0
 83169  1  0  0  0
 83170  1  0  0  0
 84171  1  0  0  0
 84172  1  0  0  0
 85173  1  0  0  0
 86174  1  0  0  0
 87175  1  0  0  0
 89176  1  0  0  0
M  ISO  4   1 100  68 101  84 101  89 100
M  END
> <chiral flag>
0

> <version>
0

> <s_m_source_file>
/data/baiqing/PycharmProjects/Reinvent-master-3.2/result/LINK_invent/BTK/process_docking_weight1_custom_sum_contain_oxygen_bond_distance_aromatic_linkinvent_7_9_3/rearranged_h_0100.sdf

> <i_m_source_file_index>
74

> <r_mmod_Potential_Energy-OPLS-2005>
133.743881225586

> <r_mmod_Stretch_Energy-OPLS-2005>
128.092437744141

> <r_mmod_Bend_Energy-OPLS-2005>
201.626876831055

> <r_mmod_Torsional_Energy-OPLS-2005>
265.943756103516

> <r_mmod_Improper_Torsional_Energy-OPLS-2005>
7.5126690864563

> <r_mmod_Van_der_Waal_Energy-OPLS-2005>
170.213439941406

> <r_mmod_Electrostatic_Energy-OPLS-2005>
-521.322692871094

> <r_mmod_Solvation_Energy-OPLS-2005>
-201.211608886719

> <b_mmod_Minimization_Converged-OPLS-2005>
0

> <r_mmod_RMS_Derivative-OPLS-2005>
6.79200315475464

$$$$
74
                    3D
 Structure written by MMmdl.
168176  0  0  1  0            999 V2000
  -30.5759  -14.7922   20.4672 C   0  0  0  0  0  0
  -30.4406  -12.4951   19.4585 C   0  0  0  0  0  0
  -29.5075  -12.5101   18.2272 C   0  0  0  0  0  0
  -28.0358  -12.3219   18.6485 C   0  0  0  0  0  0
  -27.6357  -13.2297   19.8414 C   0  0  2  0  0  0
  -28.6837  -13.1779   20.9714 C   0  0  0  0  0  0
  -25.2496  -13.8187   20.5694 C   0  0  0  0  0  0
  -24.1792  -13.0434   20.9218 C   0  0  0  0  0  0
  -24.6385  -11.6913   20.8751 C   0  0  0  0  0  0
  -23.9064  -10.4291   21.0411 C   0  0  0  0  0  0
  -24.3616   -9.4205   21.9187 C   0  0  0  0  0  0
  -23.6293   -8.2240   22.0754 C   0  0  0  0  0  0
  -22.4275   -8.0278   21.3543 C   0  0  0  0  0  0
  -21.9911   -9.0252   20.4646 C   0  0  0  0  0  0
  -22.7238  -10.2133   20.3059 C   0  0  0  0  0  0
  -21.6852   -6.0732   22.5278 C   0  0  0  0  0  0
  -21.4013   -6.5637   23.8209 C   0  0  0  0  0  0
  -21.3658   -5.6791   24.9171 C   0  0  0  0  0  0
  -21.6047   -4.3054   24.7222 C   0  0  0  0  0  0
  -21.8819   -3.8146   23.4344 C   0  0  0  0  0  0
  -21.9193   -4.6962   22.3401 C   0  0  0  0  0  0
  -22.7816  -13.5219   21.1878 C   0  0  0  0  0  0
  -22.1662   -4.2149   21.0977 F   0  0  0  0  0  0
  -21.5630   -3.4540   25.7736 F   0  0  0  0  0  0
  -29.9706  -13.5567   20.3763 N   0  0  0  0  0  0
  -26.2909  -12.9386   20.3248 N   0  0  0  0  0  0
  -25.9310  -11.6534   20.5742 N   0  0  0  0  0  0
  -22.0464  -12.8204   22.0430 N   0  0  0  0  0  0
  -25.4180  -15.1910   20.4102 N   0  0  0  0  0  0
  -31.7824  -14.9021   20.2349 O   0  0  0  0  0  0
  -21.6638   -6.8876   21.4239 O   0  0  0  0  0  0
  -22.3502  -14.5524   20.6724 O   0  0  0  0  0  0
  -24.6334  -31.8515   23.1932 C   0  0  0  0  0  0
  -25.9148  -32.4729   23.8295 C   0  0  1  0  0  0
  -27.2290  -27.2258   20.1535 C   0  0  0  0  0  0
  -25.5934  -33.8531   24.2222 N   0  0  0  0  0  0
  -23.4315  -30.4691   21.5375 C   0  0  2  0  0  0
  -24.8785  -28.8931   20.1263 C   0  0  0  0  0  0
  -22.7502  -29.4578   22.4912 C   0  0  0  0  0  0
  -18.0284  -28.1395   22.8474 C   0  0  0  0  0  0
  -24.1491  -36.7273   23.2645 C   0  0  0  0  0  0
  -25.9772  -30.7529   21.3749 C   0  0  0  0  0  0
  -26.0489  -29.3658   20.7314 C   0  0  0  0  0  0
  -27.2251  -28.5478   20.7235 C   0  0  0  0  0  0
  -26.0330  -26.8144   19.5321 C   0  0  0  0  0  0
  -24.8766  -27.6255   19.5169 C   0  0  0  0  0  0
  -23.6529  -29.7887   20.1598 C   0  0  0  0  0  0
  -25.4118  -36.3052   24.0324 C   0  0  1  0  0  0
  -20.5886  -28.3703   23.1271 C   0  0  2  0  0  0
  -20.6771  -26.9420   22.5415 C   0  0  0  0  0  0
  -19.5753  -26.6385   21.5215 C   0  0  0  0  0  0
  -18.1930  -26.7933   22.1618 C   0  0  0  0  0  0
  -19.1536  -28.8864   23.2865 C   0  0  0  0  0  0
  -18.9461  -30.1459   23.8889 C   0  0  0  0  0  0
  -17.6465  -30.6593   24.0561 C   0  0  0  0  0  0
  -25.9064  -34.9426   23.5080 C   0  0  0  0  0  0
  -16.5354  -29.9087   23.6339 C   0  0  0  0  0  0
  -16.7272  -28.6508   23.0350 C   0  0  0  0  0  0
  -26.4505  -31.6570   25.0703 C   0  0  0  0  0  0
  -25.3717  -31.3726   26.1420 C   0  0  0  0  0  0
  -27.0368  -30.2989   24.6208 C   0  0  0  0  0  0
  -27.6054  -32.4322   25.7475 C   0  0  0  0  0  0
  -27.5568  -37.1788   24.8464 C   0  0  0  0  0  0
  -21.4205  -29.3042   22.3653 N   0  0  0  0  0  0
  -26.4286  -37.3758   23.9405 N   0  0  0  0  0  0
  -24.7001  -31.0444   22.0917 N   0  0  0  0  0  0
  -23.4185  -28.8132   23.3036 O   0  0  0  0  0  0
  -28.3979  -26.4362   20.0465 O   0  0  0  0  0  0
  -26.5644  -34.8905   22.4658 O   0  0  0  0  0  0
  -23.5479  -32.1354   23.7214 O   0  0  0  0  0  0
  -27.1459  -21.5617   18.9474 C   0  0  0  0  0  0
  -29.0226  -21.2246   20.4375 C   0  0  0  0  0  0
  -28.1600  -19.3401   19.1379 C   0  0  0  0  0  0
  -28.0353  -22.1519   19.8796 C   0  0  0  0  0  0
  -27.1961  -20.1980   18.5735 C   0  0  0  0  0  0
  -29.1113  -19.7954   20.0670 C   0  0  0  0  0  0
  -25.6834  -20.6115   16.5268 C   0  0  0  0  0  0
  -25.0685  -18.8776   18.2742 C   0  0  0  0  0  0
  -29.2606  -24.9923   21.7749 C   0  0  0  0  0  0
  -27.6664  -23.6959   20.2352 C   0  0  0  0  0  0
  -30.0707  -17.3065   21.2187 C   0  0  0  0  0  0
  -26.2167  -19.6044   17.5610 C   0  0  0  0  0  0
  -30.2735  -18.7349   20.4233 C   0  0  2  0  0  0
  -28.6575  -24.9679   20.3649 C   0  0  1  0  0  0
  -29.7683  -15.9164   20.6330 N   0  0  0  0  0  0
  -31.3224  -19.4923   21.1224 N   0  3  0  0  0  0
  -31.4746  -12.6538   19.1472 H   0  0  0  0  0  0
  -30.4188  -11.5230   19.9537 H   0  0  0  0  0  0
  -29.7972  -11.7289   17.5232 H   0  0  0  0  0  0
  -29.6170  -13.4567   17.6958 H   0  0  0  0  0  0
  -27.9044  -11.2747   18.9237 H   0  0  0  0  0  0
  -27.3732  -12.4979   17.8004 H   0  0  0  0  0  0
  -27.6215  -14.2466   19.4494 H   0  0  0  0  0  0
  -28.7389  -12.1803   21.4092 H   0  0  0  0  0  0
  -28.4118  -13.8543   21.7836 H   0  0  0  0  0  0
  -25.2759   -9.5680   22.4764 H   0  0  0  0  0  0
  -24.0001   -7.4628   22.7471 H   0  0  0  0  0  0
  -21.0845   -8.8771   19.8947 H   0  0  0  0  0  0
  -22.3697  -10.9673   19.6170 H   0  0  0  0  0  0
  -21.2003   -7.6146   23.9712 H   0  0  0  0  0  0
  -21.1482   -6.0521   25.9073 H   0  0  0  0  0  0
  -22.0600   -2.7610   23.2843 H   0  0  0  0  0  0
  -22.4083  -11.9860   22.4806 H   0  0  0  0  0  0
  -21.1085  -13.1228   22.2646 H   0  0  0  0  0  0
  -24.6452  -15.8391   20.5145 H   0  0  0  0  0  0
  -26.2538  -15.6305   20.0500 H   0  0  0  0  0  0
  -26.7208  -32.5373   23.1025 H   0  0  0  0  0  0
  -25.0075  -33.9657   25.0363 H   0  0  0  0  0  0
  -22.7314  -31.2928   21.3824 H   0  0  0  0  0  0
  -23.3753  -35.9604   23.3310 H   0  0  0  0  0  0
  -24.3577  -36.8906   22.2060 H   0  0  0  0  0  0
  -23.7248  -37.6473   23.6677 H   0  0  0  0  0  0
  -26.1150  -31.5049   20.5964 H   0  0  0  0  0  0
  -26.8555  -30.8117   22.0056 H   0  0  0  0  0  0
  -28.1349  -28.9219   21.1713 H   0  0  0  0  0  0
  -25.9916  -25.8644   19.0239 H   0  0  0  0  0  0
  -23.9834  -27.2625   19.0275 H   0  0  0  0  0  0
  -23.7840  -30.5573   19.3975 H   0  0  0  0  0  0
  -22.7701  -29.2238   19.8553 H   0  0  0  0  0  0
  -25.1302  -36.1893   25.0816 H   0  0  0  0  0  0
  -20.9973  -28.3284   24.1391 H   0  0  0  0  0  0
  -20.5689  -26.2304   23.3614 H   0  0  0  0  0  0
  -21.6635  -26.7452   22.1197 H   0  0  0  0  0  0
  -19.6931  -25.6297   21.1241 H   0  0  0  0  0  0
  -19.6700  -27.3191   20.6746 H   0  0  0  0  0  0
  -17.4200  -26.6675   21.4018 H   0  0  0  0  0  0
  -18.0327  -26.0078   22.9018 H   0  0  0  0  0  0
  -19.7942  -30.7266   24.2259 H   0  0  0  0  0  0
  -17.5024  -31.6272   24.5162 H   0  0  0  0  0  0
  -15.5356  -30.2991   23.7672 H   0  0  0  0  0  0
  -15.8667  -28.0831   22.7076 H   0  0  0  0  0  0
  -24.5902  -30.7066   25.7740 H   0  0  0  0  0  0
  -24.8894  -32.2897   26.4818 H   0  0  0  0  0  0
  -25.8021  -30.8921   27.0215 H   0  0  0  0  0  0
  -26.2956  -29.6712   24.1249 H   0  0  0  0  0  0
  -27.4075  -29.7276   25.4730 H   0  0  0  0  0  0
  -27.8814  -30.4270   23.9433 H   0  0  0  0  0  0
  -27.2668  -33.3641   26.2011 H   0  0  0  0  0  0
  -28.3874  -32.6860   25.0307 H   0  0  0  0  0  0
  -28.0705  -31.8480   26.5424 H   0  0  0  0  0  0
  -28.2586  -38.0084   24.7507 H   0  0  0  0  0  0
  -28.1063  -36.2616   24.6296 H   0  0  0  0  0  0
  -27.2284  -37.1446   25.8866 H   0  0  0  0  0  0
  -20.9401  -29.8746   21.6832 H   0  0  0  0  0  0
  -26.0163  -38.2827   24.1412 H   0  0  0  0  0  0
  -26.3693  -22.1761   18.5183 H   0  0  0  0  0  0
  -29.7198  -21.6326   21.1544 H   0  0  0  0  0  0
  -28.1933  -18.3066   18.8183 H   0  0  0  0  0  0
  -26.4987  -21.1323   16.0233 H   0  0  0  0  0  0
  -25.0286  -21.3575   16.9773 H   0  0  0  0  0  0
  -25.1014  -20.1009   15.7591 H   0  0  0  0  0  0
  -25.4451  -18.0901   18.9280 H   0  0  0  0  0  0
  -24.3922  -18.4091   17.5587 H   0  0  0  0  0  0
  -24.4838  -19.5657   18.8851 H   0  0  0  0  0  0
  -29.6455  -24.0125   22.0586 H   0  0  0  0  0  0
  -28.5177  -25.2871   22.5163 H   0  0  0  0  0  0
  -30.0881  -25.6997   21.8345 H   0  0  0  0  0  0
  -27.0420  -23.6649   21.1288 H   0  0  0  0  0  0
  -26.9763  -23.9976   19.4519 H   0  0  0  0  0  0
  -29.3321  -17.4799   22.0021 H   0  0  0  0  0  0
  -30.9931  -17.1252   21.7734 H   0  0  0  0  0  0
  -26.7732  -18.8553   16.9948 H   0  0  0  0  0  0
  -30.7183  -18.4729   19.4619 H   0  0  0  0  0  0
  -29.4688  -24.7343   19.6754 H   0  0  0  0  0  0
  -28.7846  -15.6966   20.6209 H   0  0  0  0  0  0
  -31.0110  -19.7834   22.0309 H   0  0  0  0  0  0
  -31.5694  -20.3011   20.5817 H   0  0  0  0  0  0
  -32.1461  -18.9282   21.2275 H   0  0  0  0  0  0
  1 25  1  0  0  0
  1 30  2  0  0  0
  1 85  1  0  0  0
  2  3  1  0  0  0
  2 25  1  0  0  0
  2 87  1  0  0  0
  2 88  1  0  0  0
  3  4  1  0  0  0
  3 89  1  0  0  0
  3 90  1  0  0  0
  4  5  1  0  0  0
  4 91  1  0  0  0
  4 92  1  0  0  0
  5  6  1  0  0  0
  5 26  1  0  0  0
  5 93  1  0  0  0
  6 25  1  0  0  0
  6 94  1  0  0  0
  6 95  1  0  0  0
  7  8  2  0  0  0
  7 26  1  0  0  0
  7 29  1  0  0  0
  8  9  1  0  0  0
  8 22  1  0  0  0
  9 10  1  0  0  0
  9 27  2  0  0  0
 10 11  2  0  0  0
 10 15  1  0  0  0
 11 12  1  0  0  0
 11 96  1  0  0  0
 12 13  2  0  0  0
 12 97  1  0  0  0
 13 14  1  0  0  0
 13 31  1  0  0  0
 14 15  2  0  0  0
 14 98  1  0  0  0
 15 99  1  0  0  0
 16 17  2  0  0  0
 16 21  1  0  0  0
 16 31  1  0  0  0
 17 18  1  0  0  0
 17100  1  0  0  0
 18 19  2  0  0  0
 18101  1  0  0  0
 19 20  1  0  0  0
 19 24  1  0  0  0
 20 21  2  0  0  0
 20102  1  0  0  0
 21 23  1  0  0  0
 22 28  1  0  0  0
 22 32  2  0  0  0
 26 27  1  0  0  0
 28103  1  0  0  0
 28104  1  0  0  0
 29105  1  0  0  0
 29106  1  0  0  0
 33 34  1  0  0  0
 33 66  1  0  0  0
 33 70  2  0  0  0
 34 36  1  0  0  0
 34 59  1  0  0  0
 34107  1  0  0  0
 35 44  2  0  0  0
 35 45  1  0  0  0
 35 68  1  0  0  0
 36 56  1  0  0  0
 36108  1  0  0  0
 37 39  1  0  0  0
 37 47  1  0  0  0
 37 66  1  0  0  0
 37109  1  0  0  0
 38 43  2  0  0  0
 38 46  1  0  0  0
 38 47  1  0  0  0
 39 64  1  0  0  0
 39 67  2  0  0  0
 40 52  1  0  0  0
 40 53  2  0  0  0
 40 58  1  0  0  0
 41110  1  0  0  0
 41111  1  0  0  0
 41112  1  0  0  0
 41 48  1  0  0  0
 42 43  1  0  0  0
 42 66  1  0  0  0
 42113  1  0  0  0
 42114  1  0  0  0
 43 44  1  0  0  0
 44115  1  0  0  0
 45 46  2  0  0  0
 45116  1  0  0  0
 46117  1  0  0  0
 47118  1  0  0  0
 47119  1  0  0  0
 48 56  1  0  0  0
 48 65  1  0  0  0
 48120  1  0  0  0
 49 50  1  0  0  0
 49 53  1  0  0  0
 49 64  1  0  0  0
 49121  1  0  0  0
 50 51  1  0  0  0
 50122  1  0  0  0
 50123  1  0  0  0
 51 52  1  0  0  0
 51124  1  0  0  0
 51125  1  0  0  0
 52126  1  0  0  0
 52127  1  0  0  0
 53 54  1  0  0  0
 54 55  2  0  0  0
 54128  1  0  0  0
 55 57  1  0  0  0
 55129  1  0  0  0
 56 69  2  0  0  0
 57 58  2  0  0  0
 57130  1  0  0  0
 58131  1  0  0  0
 59 60  1  0  0  0
 59 61  1  0  0  0
 59 62  1  0  0  0
 60132  1  0  0  0
 60133  1  0  0  0
 60134  1  0  0  0
 61135  1  0  0  0
 61136  1  0  0  0
 61137  1  0  0  0
 62138  1  0  0  0
 62139  1  0  0  0
 62140  1  0  0  0
 63 65  1  0  0  0
 63141  1  0  0  0
 63142  1  0  0  0
 63143  1  0  0  0
 64144  1  0  0  0
 65145  1  0  0  0
 68 84  1  0  0  0
 71 74  2  0  0  0
 71 75  1  0  0  0
 71146  1  0  0  0
 72 74  1  0  0  0
 72 76  2  0  0  0
 72147  1  0  0  0
 73 75  2  0  0  0
 73 76  1  0  0  0
 73148  1  0  0  0
 74 80  1  0  0  0
 75 82  1  0  0  0
 76 83  1  0  0  0
 77149  1  0  0  0
 77150  1  0  0  0
 77151  1  0  0  0
 77 82  1  0  0  0
 78 82  1  0  0  0
 78152  1  0  0  0
 78153  1  0  0  0
 78154  1  0  0  0
 79155  1  0  0  0
 79156  1  0  0  0
 79157  1  0  0  0
 79 84  1  0  0  0
 80 84  1  0  0  0
 80158  1  0  0  0
 80159  1  0  0  0
 81 83  1  0  0  0
 81 85  1  0  0  0
 81160  1  0  0  0
 81161  1  0  0  0
 82162  1  0  0  0
 83 86  1  0  0  0
 83163  1  0  0  0
 84164  1  0  0  0
 85165  1  0  0  0
 86166  1  0  0  0
 86167  1  0  0  0
 86168  1  0  0  0
M  CHG  1  86   1
M  ISO  4   1 100  68 101  84 101  85 100
M  END
> <chiral flag>
0

> <version>
0

> <s_m_source_file>
/data/baiqing/PycharmProjects/Reinvent-master-3.2/result/LINK_invent/BTK/process_docking_weight1_custom_sum_contain_oxygen_bond_distance_aromatic_linkinvent_7_9_3/rearranged_h_0100.sdf

> <i_m_source_file_index>
75

> <r_mmod_Potential_Energy-OPLS-2005>
14.8194208145142

> <r_mmod_Stretch_Energy-OPLS-2005>
159.320755004883

> <r_mmod_Bend_Energy-OPLS-2005>
293.16015625

> <r_mmod_Torsional_Energy-OPLS-2005>
260.002136230469

> <r_mmod_Improper_Torsional_Energy-OPLS-2005>
7.06539630889893

> <r_mmod_Van_der_Waal_Energy-OPLS-2005>
128.010223388672

> <r_mmod_Electrostatic_Energy-OPLS-2005>
-438.842926025391

> <r_mmod_Solvation_Energy-OPLS-2005>
-492.336791992188

> <b_mmod_Minimization_Converged-OPLS-2005>
0

> <r_mmod_RMS_Derivative-OPLS-2005>
0.96657121181488

$$$$
75
                    3D
 Structure written by MMmdl.
161168  0  0  1  0            999 V2000
  -30.5461  -14.9437   20.3726 C   0  0  0  0  0  0
  -30.4450  -12.5925   19.4645 C   0  0  0  0  0  0
  -29.5102  -12.4913   18.2373 C   0  0  0  0  0  0
  -28.0483  -12.2861   18.6762 C   0  0  0  0  0  0
  -27.6271  -13.2281   19.8344 C   0  0  2  0  0  0
  -28.6784  -13.2895   20.9564 C   0  0  0  0  0  0
  -25.2519  -13.8141   20.5767 C   0  0  0  0  0  0
  -24.1786  -13.0421   20.9241 C   0  0  0  0  0  0
  -24.6346  -11.6888   20.8748 C   0  0  0  0  0  0
  -23.9003  -10.4275   21.0394 C   0  0  0  0  0  0
  -24.3565   -9.4207   21.9178 C   0  0  0  0  0  0
  -23.6259   -8.2235   22.0755 C   0  0  0  0  0  0
  -22.4254   -8.0251   21.3542 C   0  0  0  0  0  0
  -21.9867   -9.0214   20.4654 C   0  0  0  0  0  0
  -22.7164  -10.2109   20.3055 C   0  0  0  0  0  0
  -21.6855   -6.0696   22.5265 C   0  0  0  0  0  0
  -21.4011   -6.5606   23.8184 C   0  0  0  0  0  0
  -21.3667   -5.6770   24.9154 C   0  0  0  0  0  0
  -21.6048   -4.3032   24.7210 C   0  0  0  0  0  0
  -21.8832   -3.8116   23.4332 C   0  0  0  0  0  0
  -21.9195   -4.6926   22.3387 C   0  0  0  0  0  0
  -22.7817  -13.5249   21.1843 C   0  0  0  0  0  0
  -22.1681   -4.2108   21.0971 F   0  0  0  0  0  0
  -21.5625   -3.4535   25.7728 F   0  0  0  0  0  0
  -29.9372  -13.6948   20.3213 N   0  0  0  0  0  0
  -26.2902  -12.9322   20.3310 N   0  0  0  0  0  0
  -25.9290  -11.6477   20.5786 N   0  0  0  0  0  0
  -22.0436  -12.8274   22.0397 N   0  0  0  0  0  0
  -25.4291  -15.1857   20.4207 N   0  0  0  0  0  0
  -31.7792  -14.9734   20.2986 O   0  0  0  0  0  0
  -21.6644   -6.8841   21.4224 O   0  0  0  0  0  0
  -22.3542  -14.5549   20.6661 O   0  0  0  0  0  0
  -24.6419  -31.8448   23.1894 C   0  0  0  0  0  0
  -25.9194  -32.4701   23.8284 C   0  0  1  0  0  0
  -27.2122  -27.1461   20.1442 C   0  0  0  0  0  0
  -25.5973  -33.8508   24.2204 N   0  0  0  0  0  0
  -23.4448  -30.4648   21.5339 C   0  0  2  0  0  0
  -24.8948  -28.8961   20.1073 C   0  0  0  0  0  0
  -22.7556  -29.4540   22.4852 C   0  0  0  0  0  0
  -18.0294  -28.1378   22.8465 C   0  0  0  0  0  0
  -24.1494  -36.7252   23.2638 C   0  0  0  0  0  0
  -25.9995  -30.7192   21.3894 C   0  0  0  0  0  0
  -26.0696  -29.3315   20.7321 C   0  0  0  0  0  0
  -27.2282  -28.4706   20.7376 C   0  0  0  0  0  0
  -26.0178  -26.8172   19.4655 C   0  0  0  0  0  0
  -24.8818  -27.6538   19.4574 C   0  0  0  0  0  0
  -23.6715  -29.7952   20.1531 C   0  0  0  0  0  0
  -25.4121  -36.3034   24.0318 C   0  0  1  0  0  0
  -20.5910  -28.3720   23.1228 C   0  0  2  0  0  0
  -20.6793  -26.9412   22.5432 C   0  0  0  0  0  0
  -19.5771  -26.6324   21.5244 C   0  0  0  0  0  0
  -18.1944  -26.7900   22.1634 C   0  0  0  0  0  0
  -19.1551  -28.8875   23.2832 C   0  0  0  0  0  0
  -18.9458  -30.1466   23.8858 C   0  0  0  0  0  0
  -17.6450  -30.6587   24.0528 C   0  0  0  0  0  0
  -25.9069  -34.9409   23.5065 C   0  0  0  0  0  0
  -16.5348  -29.9074   23.6310 C   0  0  0  0  0  0
  -16.7274  -28.6481   23.0339 C   0  0  0  0  0  0
  -26.4534  -31.6567   25.0715 C   0  0  0  0  0  0
  -25.3719  -31.3773   26.1415 C   0  0  0  0  0  0
  -27.0410  -30.2968   24.6297 C   0  0  0  0  0  0
  -27.6068  -32.4339   25.7498 C   0  0  0  0  0  0
  -27.5572  -37.1780   24.8461 C   0  0  0  0  0  0
  -21.4260  -29.3050   22.3607 N   0  0  0  0  0  0
  -26.4275  -37.3747   23.9418 N   0  0  0  0  0  0
  -24.7146  -31.0313   22.0923 N   0  0  0  0  0  0
  -23.4202  -28.8085   23.3002 O   0  0  0  0  0  0
  -28.2615  -26.1620   20.2386 O   0  0  0  0  0  0
  -26.5649  -34.8903   22.4638 O   0  0  0  0  0  0
  -23.5532  -32.1319   23.7130 O   0  0  0  0  0  0
  -28.2741  -16.4615   18.0739 C   0  0  0  0  0  0
  -27.0726  -21.4986   19.8700 C   0  0  0  0  0  0
  -29.0594  -20.4375   22.1253 C   0  0  0  0  0  0
  -28.8437  -23.3046   20.5121 C   0  0  0  0  0  0
  -29.7168  -16.3297   18.5952 C   0  0  0  0  0  0
  -29.8850  -17.5802   20.6968 C   0  0  0  0  0  0
  -29.1453  -18.9745   20.0631 C   0  0  0  0  0  0
  -28.0209  -24.6563   19.9326 C   0  0  0  0  0  0
  -28.5953  -21.7136   19.9882 C   0  0  1  0  0  0
  -29.8012  -16.1293   20.0592 N   0  0  0  0  0  0
  -29.2897  -20.4421   20.6640 N   0  3  1  0  0  0
  -30.4792  -11.6564   20.0237 H   0  0  0  0  0  0
  -31.4673  -12.7834   19.1316 H   0  0  0  0  0  0
  -29.8227  -11.6717   17.5907 H   0  0  0  0  0  0
  -29.5865  -13.3924   17.6280 H   0  0  0  0  0  0
  -27.9566  -11.2487   18.9980 H   0  0  0  0  0  0
  -27.3720  -12.4010   17.8285 H   0  0  0  0  0  0
  -27.5769  -14.2216   19.4004 H   0  0  0  0  0  0
  -28.7752  -12.3332   21.4691 H   0  0  0  0  0  0
  -28.3882  -14.0239   21.7096 H   0  0  0  0  0  0
  -25.2700   -9.5686   22.4770 H   0  0  0  0  0  0
  -23.9945   -7.4631   22.7498 H   0  0  0  0  0  0
  -21.0787   -8.8712   19.8984 H   0  0  0  0  0  0
  -22.3589  -10.9635   19.6169 H   0  0  0  0  0  0
  -21.2023   -7.6126   23.9660 H   0  0  0  0  0  0
  -21.1481   -6.0527   25.9049 H   0  0  0  0  0  0
  -22.0611   -2.7583   23.2849 H   0  0  0  0  0  0
  -22.4043  -11.9946   22.4794 H   0  0  0  0  0  0
  -21.1057  -13.1330   22.2562 H   0  0  0  0  0  0
  -24.6684  -15.8457   20.5336 H   0  0  0  0  0  0
  -26.2934  -15.6154   20.1171 H   0  0  0  0  0  0
  -26.7246  -32.5313   23.0997 H   0  0  0  0  0  0
  -25.0140  -33.9630   25.0374 H   0  0  0  0  0  0
  -22.7449  -31.2886   21.3794 H   0  0  0  0  0  0
  -23.3763  -35.9577   23.3280 H   0  0  0  0  0  0
  -24.3576  -36.8899   22.2054 H   0  0  0  0  0  0
  -23.7234  -37.6439   23.6679 H   0  0  0  0  0  0
  -26.1524  -31.4715   20.6150 H   0  0  0  0  0  0
  -26.8721  -30.7724   22.0296 H   0  0  0  0  0  0
  -28.1217  -28.7932   21.2538 H   0  0  0  0  0  0
  -25.9247  -25.8773   18.9441 H   0  0  0  0  0  0
  -23.9884  -27.3222   18.9470 H   0  0  0  0  0  0
  -23.8085  -30.5680   19.3960 H   0  0  0  0  0  0
  -22.7878  -29.2357   19.8415 H   0  0  0  0  0  0
  -25.1299  -36.1863   25.0804 H   0  0  0  0  0  0
  -20.9971  -28.3350   24.1366 H   0  0  0  0  0  0
  -20.5696  -26.2331   23.3657 H   0  0  0  0  0  0
  -21.6653  -26.7425   22.1221 H   0  0  0  0  0  0
  -19.6931  -25.6194   21.1358 H   0  0  0  0  0  0
  -19.6719  -27.3063   20.6716 H   0  0  0  0  0  0
  -17.4209  -26.6625   21.4044 H   0  0  0  0  0  0
  -18.0344  -26.0061   22.9045 H   0  0  0  0  0  0
  -19.7918  -30.7289   24.2230 H   0  0  0  0  0  0
  -17.4983  -31.6265   24.5126 H   0  0  0  0  0  0
  -15.5333  -30.2951   23.7629 H   0  0  0  0  0  0
  -15.8683  -28.0774   22.7089 H   0  0  0  0  0  0
  -24.5884  -30.7137   25.7732 H   0  0  0  0  0  0
  -24.8922  -32.2962   26.4792 H   0  0  0  0  0  0
  -25.7987  -30.8967   27.0223 H   0  0  0  0  0  0
  -26.3033  -29.6678   24.1291 H   0  0  0  0  0  0
  -27.4015  -29.7281   25.4880 H   0  0  0  0  0  0
  -27.8941  -30.4215   23.9624 H   0  0  0  0  0  0
  -27.2660  -33.3648   26.2048 H   0  0  0  0  0  0
  -28.3888  -32.6892   25.0331 H   0  0  0  0  0  0
  -28.0731  -31.8488   26.5435 H   0  0  0  0  0  0
  -28.2576  -38.0092   24.7518 H   0  0  0  0  0  0
  -28.1082  -36.2617   24.6270 H   0  0  0  0  0  0
  -27.2291  -37.1403   25.8865 H   0  0  0  0  0  0
  -20.9465  -29.8775   21.6798 H   0  0  0  0  0  0
  -26.0145  -38.2810   24.1445 H   0  0  0  0  0  0
  -28.2325  -17.1578   17.2354 H   0  0  0  0  0  0
  -27.5787  -16.8234   18.8323 H   0  0  0  0  0  0
  -27.8968  -15.5103   17.6985 H   0  0  0  0  0  0
  -26.6341  -22.2379   19.1985 H   0  0  0  0  0  0
  -26.5741  -21.5985   20.8349 H   0  0  0  0  0  0
  -26.8159  -20.5260   19.4537 H   0  0  0  0  0  0
  -29.5890  -19.6199   22.6136 H   0  0  0  0  0  0
  -27.9981  -20.3363   22.3553 H   0  0  0  0  0  0
  -29.4245  -21.3608   22.5763 H   0  0  0  0  0  0
  -28.6785  -23.3186   21.5882 H   0  0  0  0  0  0
  -29.9077  -23.5072   20.3993 H   0  0  0  0  0  0
  -30.2104  -15.5336   18.0343 H   0  0  0  0  0  0
  -30.3083  -17.1977   18.3043 H   0  0  0  0  0  0
  -29.5039  -17.4563   21.7104 H   0  0  0  0  0  0
  -30.9471  -17.7924   20.8162 H   0  0  0  0  0  0
  -28.0773  -18.7589   20.0405 H   0  0  0  0  0  0
  -29.4360  -19.0734   19.0179 H   0  0  0  0  0  0
  -26.9845  -24.4582   20.2048 H   0  0  0  0  0  0
  -28.0490  -24.5864   18.8454 H   0  0  0  0  0  0
  -28.9785  -21.6918   18.9660 H   0  0  0  0  0  0
  -30.2772  -20.6292   20.5699 H   0  0  0  0  0  0
  1 25  1  0  0  0
  1 30  2  0  0  0
  1 80  1  0  0  0
  2  3  1  0  0  0
  2 25  1  0  0  0
  2 82  1  0  0  0
  2 83  1  0  0  0
  3  4  1  0  0  0
  3 84  1  0  0  0
  3 85  1  0  0  0
  4  5  1  0  0  0
  4 86  1  0  0  0
  4 87  1  0  0  0
  5  6  1  0  0  0
  5 26  1  0  0  0
  5 88  1  0  0  0
  6 25  1  0  0  0
  6 89  1  0  0  0
  6 90  1  0  0  0
  7  8  2  0  0  0
  7 26  1  0  0  0
  7 29  1  0  0  0
  8  9  1  0  0  0
  8 22  1  0  0  0
  9 10  1  0  0  0
  9 27  2  0  0  0
 10 11  2  0  0  0
 10 15  1  0  0  0
 11 12  1  0  0  0
 11 91  1  0  0  0
 12 13  2  0  0  0
 12 92  1  0  0  0
 13 14  1  0  0  0
 13 31  1  0  0  0
 14 15  2  0  0  0
 14 93  1  0  0  0
 15 94  1  0  0  0
 16 17  2  0  0  0
 16 21  1  0  0  0
 16 31  1  0  0  0
 17 18  1  0  0  0
 17 95  1  0  0  0
 18 19  2  0  0  0
 18 96  1  0  0  0
 19 20  1  0  0  0
 19 24  1  0  0  0
 20 21  2  0  0  0
 20 97  1  0  0  0
 21 23  1  0  0  0
 22 28  1  0  0  0
 22 32  2  0  0  0
 26 27  1  0  0  0
 28 98  1  0  0  0
 28 99  1  0  0  0
 29100  1  0  0  0
 29101  1  0  0  0
 33 34  1  0  0  0
 33 66  1  0  0  0
 33 70  2  0  0  0
 34 36  1  0  0  0
 34 59  1  0  0  0
 34102  1  0  0  0
 35 44  2  0  0  0
 35 45  1  0  0  0
 35 68  1  0  0  0
 36 56  1  0  0  0
 36103  1  0  0  0
 37 39  1  0  0  0
 37 47  1  0  0  0
 37 66  1  0  0  0
 37104  1  0  0  0
 38 43  2  0  0  0
 38 46  1  0  0  0
 38 47  1  0  0  0
 39 64  1  0  0  0
 39 67  2  0  0  0
 40 52  1  0  0  0
 40 53  2  0  0  0
 40 58  1  0  0  0
 41105  1  0  0  0
 41106  1  0  0  0
 41107  1  0  0  0
 41 48  1  0  0  0
 42 43  1  0  0  0
 42 66  1  0  0  0
 42108  1  0  0  0
 42109  1  0  0  0
 43 44  1  0  0  0
 44110  1  0  0  0
 45 46  2  0  0  0
 45111  1  0  0  0
 46112  1  0  0  0
 47113  1  0  0  0
 47114  1  0  0  0
 48 56  1  0  0  0
 48 65  1  0  0  0
 48115  1  0  0  0
 49 50  1  0  0  0
 49 53  1  0  0  0
 49 64  1  0  0  0
 49116  1  0  0  0
 50 51  1  0  0  0
 50117  1  0  0  0
 50118  1  0  0  0
 51 52  1  0  0  0
 51119  1  0  0  0
 51120  1  0  0  0
 52121  1  0  0  0
 52122  1  0  0  0
 53 54  1  0  0  0
 54 55  2  0  0  0
 54123  1  0  0  0
 55 57  1  0  0  0
 55124  1  0  0  0
 56 69  2  0  0  0
 57 58  2  0  0  0
 57125  1  0  0  0
 58126  1  0  0  0
 59 60  1  0  0  0
 59 61  1  0  0  0
 59 62  1  0  0  0
 60127  1  0  0  0
 60128  1  0  0  0
 60129  1  0  0  0
 61130  1  0  0  0
 61131  1  0  0  0
 61132  1  0  0  0
 62133  1  0  0  0
 62134  1  0  0  0
 62135  1  0  0  0
 63 65  1  0  0  0
 63136  1  0  0  0
 63137  1  0  0  0
 63138  1  0  0  0
 64139  1  0  0  0
 65140  1  0  0  0
 68 78  1  0  0  0
 71 75  1  0  0  0
 71141  1  0  0  0
 71142  1  0  0  0
 71143  1  0  0  0
 72144  1  0  0  0
 72145  1  0  0  0
 72146  1  0  0  0
 72 79  1  0  0  0
 73147  1  0  0  0
 73148  1  0  0  0
 73149  1  0  0  0
 73 81  1  0  0  0
 74 78  1  0  0  0
 74 79  1  0  0  0
 74150  1  0  0  0
 74151  1  0  0  0
 75 80  1  0  0  0
 75152  1  0  0  0
 75153  1  0  0  0
 76 77  1  0  0  0
 76 80  1  0  0  0
 76154  1  0  0  0
 76155  1  0  0  0
 77 81  1  0  0  0
 77156  1  0  0  0
 77157  1  0  0  0
 78158  1  0  0  0
 78159  1  0  0  0
 79 81  1  0  0  0
 79160  1  0  0  0
 81161  1  0  0  0
M  CHG  1  81   1
M  ISO  4   1 100  68 101  78 101  80 100
M  END
> <chiral flag>
0

> <version>
0

> <s_m_source_file>
/data/baiqing/PycharmProjects/Reinvent-master-3.2/result/LINK_invent/BTK/process_docking_weight1_custom_sum_contain_oxygen_bond_distance_aromatic_linkinvent_7_9_3/rearranged_h_0100.sdf

> <i_m_source_file_index>
76

> <r_mmod_Potential_Energy-OPLS-2005>
603.09228515625

> <r_mmod_Stretch_Energy-OPLS-2005>
273.698852539062

> <r_mmod_Bend_Energy-OPLS-2005>
265.800964355469

> <r_mmod_Torsional_Energy-OPLS-2005>
332.261444091797

> <r_mmod_Improper_Torsional_Energy-OPLS-2005>
17.2111778259277

> <r_mmod_Van_der_Waal_Energy-OPLS-2005>
117.177925109863

> <r_mmod_Electrostatic_Energy-OPLS-2005>
-162.374984741211

> <r_mmod_Solvation_Energy-OPLS-2005>
-438.512512207031

> <b_mmod_Minimization_Converged-OPLS-2005>
0

> <r_mmod_RMS_Derivative-OPLS-2005>
2.9517650604248

$$$$
76
                    3D
 Structure written by MMmdl.
161168  0  0  1  0            999 V2000
  -30.5499  -14.9233   20.4182 C   0  0  0  0  0  0
  -30.4371  -12.5686   19.4980 C   0  0  0  0  0  0
  -29.5180  -12.5219   18.2554 C   0  0  0  0  0  0
  -28.0516  -12.3108   18.6753 C   0  0  0  0  0  0
  -27.6298  -13.2453   19.8391 C   0  0  2  0  0  0
  -28.6719  -13.2682   20.9779 C   0  0  0  0  0  0
  -25.2463  -13.8217   20.5710 C   0  0  0  0  0  0
  -24.1779  -13.0442   20.9235 C   0  0  0  0  0  0
  -24.6389  -11.6926   20.8759 C   0  0  0  0  0  0
  -23.9073  -10.4294   21.0411 C   0  0  0  0  0  0
  -24.3624   -9.4207   21.9186 C   0  0  0  0  0  0
  -23.6297   -8.2243   22.0753 C   0  0  0  0  0  0
  -22.4278   -8.0281   21.3544 C   0  0  0  0  0  0
  -21.9919   -9.0256   20.4643 C   0  0  0  0  0  0
  -22.7248  -10.2132   20.3054 C   0  0  0  0  0  0
  -21.6853   -6.0736   22.5277 C   0  0  0  0  0  0
  -21.4014   -6.5638   23.8213 C   0  0  0  0  0  0
  -21.3659   -5.6791   24.9174 C   0  0  0  0  0  0
  -21.6046   -4.3054   24.7224 C   0  0  0  0  0  0
  -21.8819   -3.8146   23.4344 C   0  0  0  0  0  0
  -21.9194   -4.6963   22.3400 C   0  0  0  0  0  0
  -22.7800  -13.5209   21.1893 C   0  0  0  0  0  0
  -22.1662   -4.2151   21.0977 F   0  0  0  0  0  0
  -21.5630   -3.4536   25.7735 F   0  0  0  0  0  0
  -29.9524  -13.6668   20.3811 N   0  0  0  0  0  0
  -26.2882  -12.9444   20.3248 N   0  0  0  0  0  0
  -25.9320  -11.6574   20.5749 N   0  0  0  0  0  0
  -22.0451  -12.8183   22.0439 N   0  0  0  0  0  0
  -25.4129  -15.1943   20.4106 N   0  0  0  0  0  0
  -31.7500  -14.9933   20.1360 O   0  0  0  0  0  0
  -21.6641   -6.8879   21.4238 O   0  0  0  0  0  0
  -22.3481  -14.5516   20.6743 O   0  0  0  0  0  0
  -24.6431  -31.8438   23.1874 C   0  0  0  0  0  0
  -25.9207  -32.4692   23.8264 C   0  0  1  0  0  0
  -27.2165  -27.1391   20.1529 C   0  0  0  0  0  0
  -25.5956  -33.8496   24.2187 N   0  0  0  0  0  0
  -23.4466  -30.4643   21.5320 C   0  0  2  0  0  0
  -24.8955  -28.8910   20.1093 C   0  0  0  0  0  0
  -22.7569  -29.4554   22.4843 C   0  0  0  0  0  0
  -18.0307  -28.1398   22.8480 C   0  0  0  0  0  0
  -24.1487  -36.7249   23.2642 C   0  0  0  0  0  0
  -26.0023  -30.7201   21.3838 C   0  0  0  0  0  0
  -26.0732  -29.3309   20.7272 C   0  0  0  0  0  0
  -27.2348  -28.4720   20.7309 C   0  0  0  0  0  0
  -26.0126  -26.8007   19.4957 C   0  0  0  0  0  0
  -24.8783  -27.6393   19.4780 C   0  0  0  0  0  0
  -23.6729  -29.7935   20.1511 C   0  0  0  0  0  0
  -25.4119  -36.3027   24.0317 C   0  0  1  0  0  0
  -20.5925  -28.3720   23.1232 C   0  0  2  0  0  0
  -20.6789  -26.9419   22.5404 C   0  0  0  0  0  0
  -19.5763  -26.6386   21.5208 C   0  0  0  0  0  0
  -18.1942  -26.7940   22.1618 C   0  0  0  0  0  0
  -19.1564  -28.8873   23.2851 C   0  0  0  0  0  0
  -18.9479  -30.1470   23.8880 C   0  0  0  0  0  0
  -17.6478  -30.6592   24.0561 C   0  0  0  0  0  0
  -25.9074  -34.9406   23.5061 C   0  0  0  0  0  0
  -16.5366  -29.9090   23.6340 C   0  0  0  0  0  0
  -16.7289  -28.6509   23.0359 C   0  0  0  0  0  0
  -26.4534  -31.6557   25.0703 C   0  0  0  0  0  0
  -25.3724  -31.3744   26.1399 C   0  0  0  0  0  0
  -27.0403  -30.2961   24.6272 C   0  0  0  0  0  0
  -27.6054  -32.4331   25.7494 C   0  0  0  0  0  0
  -27.5571  -37.1785   24.8467 C   0  0  0  0  0  0
  -21.4258  -29.3051   22.3603 N   0  0  0  0  0  0
  -26.4278  -37.3743   23.9412 N   0  0  0  0  0  0
  -24.7174  -31.0313   22.0895 N   0  0  0  0  0  0
  -23.4216  -28.8100   23.2985 O   0  0  0  0  0  0
  -28.2670  -26.1533   20.2280 O   0  0  0  0  0  0
  -26.5651  -34.8909   22.4635 O   0  0  0  0  0  0
  -23.5555  -32.1297   23.7108 O   0  0  0  0  0  0
  -28.0487  -20.0221   22.9538 C   0  0  0  0  0  0
  -28.2207  -17.5512   22.7890 C   0  0  0  0  0  0
  -30.5589  -20.4769   19.3113 C   0  0  0  0  0  0
  -28.9889  -23.3172   20.3836 C   0  0  0  0  0  0
  -30.0979  -17.6368   20.3379 C   0  0  0  0  0  0
  -28.5626  -21.6857   20.2224 C   0  0  0  0  0  0
  -27.9733  -24.6295   20.0848 C   0  0  0  0  0  0
  -28.8770  -18.8749   22.3383 C   0  0  0  0  0  0
  -29.1341  -18.9707   20.7862 C   0  0  1  0  0  0
  -29.7707  -16.1015   20.5532 N   0  0  0  0  0  0
  -29.5780  -20.4687   20.4205 N   0  3  1  0  0  0
  -31.4727  -12.7183   19.1885 H   0  0  0  0  0  0
  -30.4206  -11.6150   20.0281 H   0  0  0  0  0  0
  -29.8328  -11.7258   17.5795 H   0  0  0  0  0  0
  -29.6089  -13.4540   17.6959 H   0  0  0  0  0  0
  -27.9479  -11.2703   18.9857 H   0  0  0  0  0  0
  -27.3865  -12.4398   17.8208 H   0  0  0  0  0  0
  -27.5957  -14.2475   19.4108 H   0  0  0  0  0  0
  -28.7503  -12.2925   21.4596 H   0  0  0  0  0  0
  -28.3753  -13.9742   21.7556 H   0  0  0  0  0  0
  -25.2767   -9.5682   22.4764 H   0  0  0  0  0  0
  -24.0006   -7.4629   22.7469 H   0  0  0  0  0  0
  -21.0856   -8.8769   19.8943 H   0  0  0  0  0  0
  -22.3709  -10.9669   19.6162 H   0  0  0  0  0  0
  -21.2003   -7.6147   23.9715 H   0  0  0  0  0  0
  -21.1482   -6.0521   25.9078 H   0  0  0  0  0  0
  -22.0598   -2.7610   23.2841 H   0  0  0  0  0  0
  -22.4071  -11.9831   22.4797 H   0  0  0  0  0  0
  -21.1069  -13.1194   22.2661 H   0  0  0  0  0  0
  -24.6374  -15.8403   20.5078 H   0  0  0  0  0  0
  -26.2444  -15.6294   20.0349 H   0  0  0  0  0  0
  -26.7272  -32.5305   23.0993 H   0  0  0  0  0  0
  -25.0103  -33.9611   25.0337 H   0  0  0  0  0  0
  -22.7498  -31.2908   21.3777 H   0  0  0  0  0  0
  -23.3758  -35.9572   23.3286 H   0  0  0  0  0  0
  -24.3579  -36.8897   22.2061 H   0  0  0  0  0  0
  -23.7239  -37.6439   23.6689 H   0  0  0  0  0  0
  -26.1576  -31.4728   20.6095 H   0  0  0  0  0  0
  -26.8741  -30.7715   22.0245 H   0  0  0  0  0  0
  -28.1304  -28.8054   21.2367 H   0  0  0  0  0  0
  -25.9117  -25.8442   19.0063 H   0  0  0  0  0  0
  -23.9794  -27.2963   18.9845 H   0  0  0  0  0  0
  -23.8122  -30.5677   19.3956 H   0  0  0  0  0  0
  -22.7875  -29.2365   19.8390 H   0  0  0  0  0  0
  -25.1312  -36.1842   25.0809 H   0  0  0  0  0  0
  -21.0021  -28.3300   24.1350 H   0  0  0  0  0  0
  -20.5669  -26.2329   23.3622 H   0  0  0  0  0  0
  -21.6656  -26.7418   22.1200 H   0  0  0  0  0  0
  -19.6915  -25.6292   21.1245 H   0  0  0  0  0  0
  -19.6700  -27.3193   20.6733 H   0  0  0  0  0  0
  -17.4212  -26.6691   21.4016 H   0  0  0  0  0  0
  -18.0331  -26.0088   22.9020 H   0  0  0  0  0  0
  -19.7953  -30.7293   24.2238 H   0  0  0  0  0  0
  -17.5031  -31.6267   24.5168 H   0  0  0  0  0  0
  -15.5364  -30.2984   23.7678 H   0  0  0  0  0  0
  -15.8692  -28.0822   22.7081 H   0  0  0  0  0  0
  -24.5924  -30.7059   25.7737 H   0  0  0  0  0  0
  -24.8884  -32.2922   26.4748 H   0  0  0  0  0  0
  -25.8023  -30.8986   27.0222 H   0  0  0  0  0  0
  -26.3012  -29.6683   24.1280 H   0  0  0  0  0  0
  -27.4034  -29.7259   25.4833 H   0  0  0  0  0  0
  -27.8916  -30.4215   23.9579 H   0  0  0  0  0  0
  -27.2639  -33.3667   26.1980 H   0  0  0  0  0  0
  -28.3919  -32.6832   25.0362 H   0  0  0  0  0  0
  -28.0656  -31.8509   26.5489 H   0  0  0  0  0  0
  -28.2577  -38.0091   24.7514 H   0  0  0  0  0  0
  -28.1076  -36.2622   24.6288 H   0  0  0  0  0  0
  -27.2291  -37.1422   25.8871 H   0  0  0  0  0  0
  -20.9454  -29.8792   21.6817 H   0  0  0  0  0  0
  -26.0138  -38.2806   24.1424 H   0  0  0  0  0  0
  -27.8894  -19.8628   24.0212 H   0  0  0  0  0  0
  -27.0620  -20.0988   22.4955 H   0  0  0  0  0  0
  -28.5526  -20.9850   22.8854 H   0  0  0  0  0  0
  -27.8269  -17.6180   23.8038 H   0  0  0  0  0  0
  -28.9376  -16.7341   22.8254 H   0  0  0  0  0  0
  -27.3909  -17.2654   22.1417 H   0  0  0  0  0  0
  -30.9230  -21.4838   19.1103 H   0  0  0  0  0  0
  -30.1093  -20.0979   18.3931 H   0  0  0  0  0  0
  -31.4330  -19.8704   19.5452 H   0  0  0  0  0  0
  -29.8667  -23.4779   19.7597 H   0  0  0  0  0  0
  -29.3529  -23.4375   21.4042 H   0  0  0  0  0  0
  -31.0773  -17.7850   20.7946 H   0  0  0  0  0  0
  -30.2776  -17.7192   19.2656 H   0  0  0  0  0  0
  -28.1518  -21.5669   19.2192 H   0  0  0  0  0  0
  -27.6976  -21.5270   20.8598 H   0  0  0  0  0  0
  -27.0804  -24.4489   20.6846 H   0  0  0  0  0  0
  -27.6518  -24.4965   19.0521 H   0  0  0  0  0  0
  -29.8527  -18.9177   22.8252 H   0  0  0  0  0  0
  -28.1799  -18.8356   20.2749 H   0  0  0  0  0  0
  -28.7985  -15.9126   20.7444 H   0  0  0  0  0  0
  -30.1251  -20.7379   21.2242 H   0  0  0  0  0  0
  1 25  1  0  0  0
  1 30  2  0  0  0
  1 80  1  0  0  0
  2  3  1  0  0  0
  2 25  1  0  0  0
  2 82  1  0  0  0
  2 83  1  0  0  0
  3  4  1  0  0  0
  3 84  1  0  0  0
  3 85  1  0  0  0
  4  5  1  0  0  0
  4 86  1  0  0  0
  4 87  1  0  0  0
  5  6  1  0  0  0
  5 26  1  0  0  0
  5 88  1  0  0  0
  6 25  1  0  0  0
  6 89  1  0  0  0
  6 90  1  0  0  0
  7  8  2  0  0  0
  7 26  1  0  0  0
  7 29  1  0  0  0
  8  9  1  0  0  0
  8 22  1  0  0  0
  9 10  1  0  0  0
  9 27  2  0  0  0
 10 11  2  0  0  0
 10 15  1  0  0  0
 11 12  1  0  0  0
 11 91  1  0  0  0
 12 13  2  0  0  0
 12 92  1  0  0  0
 13 14  1  0  0  0
 13 31  1  0  0  0
 14 15  2  0  0  0
 14 93  1  0  0  0
 15 94  1  0  0  0
 16 17  2  0  0  0
 16 21  1  0  0  0
 16 31  1  0  0  0
 17 18  1  0  0  0
 17 95  1  0  0  0
 18 19  2  0  0  0
 18 96  1  0  0  0
 19 20  1  0  0  0
 19 24  1  0  0  0
 20 21  2  0  0  0
 20 97  1  0  0  0
 21 23  1  0  0  0
 22 28  1  0  0  0
 22 32  2  0  0  0
 26 27  1  0  0  0
 28 98  1  0  0  0
 28 99  1  0  0  0
 29100  1  0  0  0
 29101  1  0  0  0
 33 34  1  0  0  0
 33 66  1  0  0  0
 33 70  2  0  0  0
 34 36  1  0  0  0
 34 59  1  0  0  0
 34102  1  0  0  0
 35 44  2  0  0  0
 35 45  1  0  0  0
 35 68  1  0  0  0
 36 56  1  0  0  0
 36103  1  0  0  0
 37 39  1  0  0  0
 37 47  1  0  0  0
 37 66  1  0  0  0
 37104  1  0  0  0
 38 43  2  0  0  0
 38 46  1  0  0  0
 38 47  1  0  0  0
 39 64  1  0  0  0
 39 67  2  0  0  0
 40 52  1  0  0  0
 40 53  2  0  0  0
 40 58  1  0  0  0
 41105  1  0  0  0
 41106  1  0  0  0
 41107  1  0  0  0
 41 48  1  0  0  0
 42 43  1  0  0  0
 42 66  1  0  0  0
 42108  1  0  0  0
 42109  1  0  0  0
 43 44  1  0  0  0
 44110  1  0  0  0
 45 46  2  0  0  0
 45111  1  0  0  0
 46112  1  0  0  0
 47113  1  0  0  0
 47114  1  0  0  0
 48 56  1  0  0  0
 48 65  1  0  0  0
 48115  1  0  0  0
 49 50  1  0  0  0
 49 53  1  0  0  0
 49 64  1  0  0  0
 49116  1  0  0  0
 50 51  1  0  0  0
 50117  1  0  0  0
 50118  1  0  0  0
 51 52  1  0  0  0
 51119  1  0  0  0
 51120  1  0  0  0
 52121  1  0  0  0
 52122  1  0  0  0
 53 54  1  0  0  0
 54 55  2  0  0  0
 54123  1  0  0  0
 55 57  1  0  0  0
 55124  1  0  0  0
 56 69  2  0  0  0
 57 58  2  0  0  0
 57125  1  0  0  0
 58126  1  0  0  0
 59 60  1  0  0  0
 59 61  1  0  0  0
 59 62  1  0  0  0
 60127  1  0  0  0
 60128  1  0  0  0
 60129  1  0  0  0
 61130  1  0  0  0
 61131  1  0  0  0
 61132  1  0  0  0
 62133  1  0  0  0
 62134  1  0  0  0
 62135  1  0  0  0
 63 65  1  0  0  0
 63136  1  0  0  0
 63137  1  0  0  0
 63138  1  0  0  0
 64139  1  0  0  0
 65140  1  0  0  0
 68 77  1  0  0  0
 71141  1  0  0  0
 71142  1  0  0  0
 71143  1  0  0  0
 71 78  1  0  0  0
 72 78  1  0  0  0
 72144  1  0  0  0
 72145  1  0  0  0
 72146  1  0  0  0
 73147  1  0  0  0
 73148  1  0  0  0
 73149  1  0  0  0
 73 81  1  0  0  0
 74 76  1  0  0  0
 74 77  1  0  0  0
 74150  1  0  0  0
 74151  1  0  0  0
 75 80  1  0  0  0
 75152  1  0  0  0
 75153  1  0  0  0
 75 79  1  0  0  0
 76 81  1  0  0  0
 76154  1  0  0  0
 76155  1  0  0  0
 77156  1  0  0  0
 77157  1  0  0  0
 78 79  1  0  0  0
 78158  1  0  0  0
 79 81  1  0  0  0
 79159  1  0  0  0
 80160  1  0  0  0
 81161  1  0  0  0
M  CHG  1  81   1
M  ISO  4   1 100  68 101  77 101  80 100
M  END
> <chiral flag>
0

> <version>
0

> <s_m_source_file>
/data/baiqing/PycharmProjects/Reinvent-master-3.2/result/LINK_invent/BTK/process_docking_weight1_custom_sum_contain_oxygen_bond_distance_aromatic_linkinvent_7_9_3/rearranged_h_0100.sdf

> <i_m_source_file_index>
77

> <r_mmod_Potential_Energy-OPLS-2005>
373.061462402344

> <r_mmod_Stretch_Energy-OPLS-2005>
278.466613769531

> <r_mmod_Bend_Energy-OPLS-2005>
259.49951171875

> <r_mmod_Torsional_Energy-OPLS-2005>
237.838729858398

> <r_mmod_Improper_Torsional_Energy-OPLS-2005>
4.92273283004761

> <r_mmod_Van_der_Waal_Energy-OPLS-2005>
121.801849365234

> <r_mmod_Electrostatic_Energy-OPLS-2005>
-258.950469970703

> <r_mmod_Solvation_Energy-OPLS-2005>
-453.853546142578

> <b_mmod_Minimization_Converged-OPLS-2005>
0

> <r_mmod_RMS_Derivative-OPLS-2005>
0.934762895107269

$$$$
77
                    3D
 Structure written by MMmdl.
164171  0  0  1  0            999 V2000
  -30.6389  -14.6165   20.4965 C   0  0  0  0  0  0
  -30.4332  -12.3713   19.4669 C   0  0  0  0  0  0
  -29.5219  -12.5103   18.2293 C   0  0  0  0  0  0
  -28.0393  -12.3534   18.6268 C   0  0  0  0  0  0
  -27.6564  -13.2172   19.8602 C   0  0  2  0  0  0
  -28.6927  -13.0739   20.9972 C   0  0  0  0  0  0
  -25.2575  -13.8175   20.5645 C   0  0  0  0  0  0
  -24.1832  -13.0446   20.9156 C   0  0  0  0  0  0
  -24.6402  -11.6915   20.8705 C   0  0  0  0  0  0
  -23.9053  -10.4307   21.0394 C   0  0  0  0  0  0
  -24.3615   -9.4235   21.9185 C   0  0  0  0  0  0
  -23.6308   -8.2253   22.0746 C   0  0  0  0  0  0
  -22.4299   -8.0273   21.3518 C   0  0  0  0  0  0
  -21.9911   -9.0249   20.4624 C   0  0  0  0  0  0
  -22.7219  -10.2138   20.3054 C   0  0  0  0  0  0
  -21.6870   -6.0735   22.5283 C   0  0  0  0  0  0
  -21.4010   -6.5635   23.8211 C   0  0  0  0  0  0
  -21.3658   -5.6779   24.9163 C   0  0  0  0  0  0
  -21.6064   -4.3048   24.7213 C   0  0  0  0  0  0
  -21.8818   -3.8142   23.4334 C   0  0  0  0  0  0
  -21.9193   -4.6959   22.3392 C   0  0  0  0  0  0
  -22.7848  -13.5238   21.1807 C   0  0  0  0  0  0
  -22.1653   -4.2153   21.0971 F   0  0  0  0  0  0
  -21.5642   -3.4516   25.7717 F   0  0  0  0  0  0
  -30.0155  -13.3981   20.4451 N   0  0  0  0  0  0
  -26.2993  -12.9344   20.3256 N   0  0  0  0  0  0
  -25.9325  -11.6502   20.5693 N   0  0  0  0  0  0
  -22.0474  -12.8262   22.0377 N   0  0  0  0  0  0
  -25.4333  -15.1896   20.4073 N   0  0  0  0  0  0
  -31.7939  -14.7637   20.0918 O   0  0  0  0  0  0
  -21.6665   -6.8872   21.4238 O   0  0  0  0  0  0
  -22.3535  -14.5533   20.6624 O   0  0  0  0  0  0
  -24.6262  -31.8611   23.2070 C   0  0  0  0  0  0
  -25.9113  -32.4805   23.8395 C   0  0  1  0  0  0
  -27.2208  -27.3174   20.1018 C   0  0  0  0  0  0
  -25.5923  -33.8606   24.2310 N   0  0  0  0  0  0
  -23.4202  -30.4868   21.5495 C   0  0  2  0  0  0
  -24.8639  -28.9459   20.1108 C   0  0  0  0  0  0
  -22.7477  -29.4638   22.4949 C   0  0  0  0  0  0
  -18.0274  -28.1382   22.8484 C   0  0  0  0  0  0
  -24.1485  -36.7289   23.2648 C   0  0  0  0  0  0
  -25.9637  -30.7888   21.3781 C   0  0  0  0  0  0
  -26.0341  -29.4166   20.7176 C   0  0  0  0  0  0
  -27.2127  -28.6124   20.7080 C   0  0  0  0  0  0
  -26.0276  -26.9115   19.4555 C   0  0  0  0  0  0
  -24.8616  -27.6977   19.4734 C   0  0  0  0  0  0
  -23.6340  -29.8268   20.1631 C   0  0  0  0  0  0
  -25.4113  -36.3104   24.0351 C   0  0  1  0  0  0
  -20.5874  -28.3688   23.1291 C   0  0  2  0  0  0
  -20.6772  -26.9411   22.5411 C   0  0  0  0  0  0
  -19.5749  -26.6373   21.5217 C   0  0  0  0  0  0
  -18.1923  -26.7930   22.1617 C   0  0  0  0  0  0
  -19.1529  -28.8853   23.2883 C   0  0  0  0  0  0
  -18.9451  -30.1454   23.8904 C   0  0  0  0  0  0
  -17.6460  -30.6594   24.0545 C   0  0  0  0  0  0
  -25.9052  -34.9471   23.5129 C   0  0  0  0  0  0
  -16.5349  -29.9092   23.6317 C   0  0  0  0  0  0
  -16.7264  -28.6497   23.0359 C   0  0  0  0  0  0
  -26.4477  -31.6620   25.0766 C   0  0  0  0  0  0
  -25.3708  -31.3742   26.1490 C   0  0  0  0  0  0
  -27.0316  -30.3056   24.6209 C   0  0  0  0  0  0
  -27.6044  -32.4353   25.7520 C   0  0  0  0  0  0
  -27.5582  -37.1809   24.8471 C   0  0  0  0  0  0
  -21.4186  -29.3048   22.3695 N   0  0  0  0  0  0
  -26.4291  -37.3798   23.9424 N   0  0  0  0  0  0
  -24.6895  -31.0620   22.1017 N   0  0  0  0  0  0
  -23.4197  -28.8162   23.3027 O   0  0  0  0  0  0
  -28.3470  -26.4769   20.1691 O   0  0  0  0  0  0
  -26.5603  -34.8930   22.4689 O   0  0  0  0  0  0
  -23.5423  -32.1419   23.7383 O   0  0  0  0  0  0
  -28.5410  -23.9561   22.0734 C   0  0  0  0  0  0
  -30.9463  -21.3467   21.2357 C   0  0  0  0  0  0
  -29.9067  -19.7545   18.6962 C   0  0  0  0  0  0
  -27.7368  -19.4995   19.9133 C   0  0  0  0  0  0
  -29.7766  -18.4052   20.8872 C   0  0  0  0  0  0
  -28.9749  -22.4659   20.0075 C   0  0  0  0  0  0
  -29.9261  -17.0402   20.0703 C   0  0  0  0  0  0
  -28.2383  -25.0443   19.7987 C   0  0  0  0  0  0
  -29.0430  -23.9450   20.6219 C   0  0  1  0  0  0
  -29.4788  -21.1585   20.8045 C   0  0  1  0  0  0
  -29.2558  -19.7149   20.0977 C   0  0  0  0  0  0
  -29.8478  -15.7046   20.7616 N   0  0  0  0  0  0
  -31.4800  -12.4802   19.1771 H   0  0  0  0  0  0
  -30.3453  -11.3717   19.8964 H   0  0  0  0  0  0
  -29.7917  -11.7658   17.4789 H   0  0  0  0  0  0
  -29.6819  -13.4844   17.7633 H   0  0  0  0  0  0
  -27.8652  -11.2977   18.8420 H   0  0  0  0  0  0
  -27.3983  -12.5998   17.7804 H   0  0  0  0  0  0
  -27.6754  -14.2543   19.5247 H   0  0  0  0  0  0
  -28.6887  -12.0566   21.3915 H   0  0  0  0  0  0
  -28.4412  -13.7268   21.8346 H   0  0  0  0  0  0
  -25.2756   -9.5725   22.4733 H   0  0  0  0  0  0
  -24.0034   -7.4658   22.7474 H   0  0  0  0  0  0
  -21.0821   -8.8739   19.8952 H   0  0  0  0  0  0
  -22.3658  -10.9660   19.6146 H   0  0  0  0  0  0
  -21.1995   -7.6138   23.9700 H   0  0  0  0  0  0
  -21.1486   -6.0512   25.9065 H   0  0  0  0  0  0
  -22.0607   -2.7608   23.2833 H   0  0  0  0  0  0
  -22.4041  -11.9954   22.4844 H   0  0  0  0  0  0
  -21.1082  -13.1310   22.2504 H   0  0  0  0  0  0
  -24.6733  -15.8528   20.5204 H   0  0  0  0  0  0
  -26.2906  -15.6229   20.0908 H   0  0  0  0  0  0
  -26.7172  -32.5471   23.1138 H   0  0  0  0  0  0
  -25.0083  -33.9741   25.0460 H   0  0  0  0  0  0
  -22.7158  -31.3093   21.4095 H   0  0  0  0  0  0
  -23.3763  -35.9602   23.3308 H   0  0  0  0  0  0
  -24.3574  -36.8900   22.2059 H   0  0  0  0  0  0
  -23.7200  -37.6489   23.6647 H   0  0  0  0  0  0
  -26.0941  -31.5525   20.6103 H   0  0  0  0  0  0
  -26.8452  -30.8365   22.0064 H   0  0  0  0  0  0
  -28.1094  -28.9694   21.1931 H   0  0  0  0  0  0
  -25.9498  -25.9773   18.9233 H   0  0  0  0  0  0
  -23.9629  -27.3411   18.9865 H   0  0  0  0  0  0
  -23.7551  -30.6057   19.4095 H   0  0  0  0  0  0
  -22.7534  -29.2587   19.8599 H   0  0  0  0  0  0
  -25.1283  -36.1973   25.0843 H   0  0  0  0  0  0
  -20.9948  -28.3250   24.1428 H   0  0  0  0  0  0
  -20.5675  -26.2295   23.3606 H   0  0  0  0  0  0
  -21.6641  -26.7462   22.1202 H   0  0  0  0  0  0
  -19.6913  -25.6275   21.1266 H   0  0  0  0  0  0
  -19.6703  -27.3160   20.6726 H   0  0  0  0  0  0
  -17.4204  -26.6679   21.4009 H   0  0  0  0  0  0
  -18.0322  -26.0066   22.9006 H   0  0  0  0  0  0
  -19.7930  -30.7247   24.2301 H   0  0  0  0  0  0
  -17.5020  -31.6286   24.5127 H   0  0  0  0  0  0
  -15.5343  -30.3008   23.7647 H   0  0  0  0  0  0
  -15.8654  -28.0820   22.7097 H   0  0  0  0  0  0
  -24.5884  -30.7090   25.7818 H   0  0  0  0  0  0
  -24.8882  -32.2891   26.4944 H   0  0  0  0  0  0
  -25.8034  -30.8906   27.0257 H   0  0  0  0  0  0
  -26.2889  -29.6831   24.1210 H   0  0  0  0  0  0
  -27.3992  -29.7301   25.4712 H   0  0  0  0  0  0
  -27.8767  -30.4367   23.9448 H   0  0  0  0  0  0
  -27.2672  -33.3652   26.2112 H   0  0  0  0  0  0
  -28.3838  -32.6926   25.0335 H   0  0  0  0  0  0
  -28.0732  -31.8475   26.5421 H   0  0  0  0  0  0
  -28.2613  -38.0096   24.7526 H   0  0  0  0  0  0
  -28.1058  -36.2629   24.6280 H   0  0  0  0  0  0
  -27.2298  -37.1445   25.8873 H   0  0  0  0  0  0
  -20.9371  -29.8787   21.6911 H   0  0  0  0  0  0
  -26.0179  -38.2881   24.1418 H   0  0  0  0  0  0
  -29.1533  -23.3312   22.7218 H   0  0  0  0  0  0
  -27.5136  -23.5966   22.1372 H   0  0  0  0  0  0
  -28.5634  -24.9667   22.4806 H   0  0  0  0  0  0
  -31.1245  -22.3448   21.6324 H   0  0  0  0  0  0
  -31.6395  -21.2043   20.4077 H   0  0  0  0  0  0
  -31.2204  -20.6471   22.0247 H   0  0  0  0  0  0
  -29.7446  -18.8384   18.1309 H   0  0  0  0  0  0
  -30.9841  -19.9067   18.7482 H   0  0  0  0  0  0
  -29.4878  -20.5501   18.0813 H   0  0  0  0  0  0
  -27.5166  -18.5601   19.4054 H   0  0  0  0  0  0
  -27.2701  -20.2829   19.3191 H   0  0  0  0  0  0
  -27.2211  -19.4636   20.8723 H   0  0  0  0  0  0
  -30.7581  -18.6021   21.3147 H   0  0  0  0  0  0
  -29.1238  -18.2382   21.7452 H   0  0  0  0  0  0
  -29.5192  -22.5104   19.0652 H   0  0  0  0  0  0
  -27.9374  -22.3042   19.7257 H   0  0  0  0  0  0
  -30.8506  -17.0954   19.4936 H   0  0  0  0  0  0
  -29.1402  -16.9938   19.3180 H   0  0  0  0  0  0
  -27.2107  -24.6979   19.8652 H   0  0  0  0  0  0
  -28.5136  -24.9694   18.7453 H   0  0  0  0  0  0
  -30.0883  -24.2555   20.6255 H   0  0  0  0  0  0
  -28.9003  -21.1390   21.7299 H   0  0  0  0  0  0
  -28.9405  -15.4703   21.1330 H   0  0  0  0  0  0
  1 25  1  0  0  0
  1 30  2  0  0  0
  1 82  1  0  0  0
  2  3  1  0  0  0
  2 25  1  0  0  0
  2 83  1  0  0  0
  2 84  1  0  0  0
  3  4  1  0  0  0
  3 85  1  0  0  0
  3 86  1  0  0  0
  4  5  1  0  0  0
  4 87  1  0  0  0
  4 88  1  0  0  0
  5  6  1  0  0  0
  5 26  1  0  0  0
  5 89  1  0  0  0
  6 25  1  0  0  0
  6 90  1  0  0  0
  6 91  1  0  0  0
  7  8  2  0  0  0
  7 26  1  0  0  0
  7 29  1  0  0  0
  8  9  1  0  0  0
  8 22  1  0  0  0
  9 10  1  0  0  0
  9 27  2  0  0  0
 10 11  2  0  0  0
 10 15  1  0  0  0
 11 12  1  0  0  0
 11 92  1  0  0  0
 12 13  2  0  0  0
 12 93  1  0  0  0
 13 14  1  0  0  0
 13 31  1  0  0  0
 14 15  2  0  0  0
 14 94  1  0  0  0
 15 95  1  0  0  0
 16 17  2  0  0  0
 16 21  1  0  0  0
 16 31  1  0  0  0
 17 18  1  0  0  0
 17 96  1  0  0  0
 18 19  2  0  0  0
 18 97  1  0  0  0
 19 20  1  0  0  0
 19 24  1  0  0  0
 20 21  2  0  0  0
 20 98  1  0  0  0
 21 23  1  0  0  0
 22 28  1  0  0  0
 22 32  2  0  0  0
 26 27  1  0  0  0
 28 99  1  0  0  0
 28100  1  0  0  0
 29101  1  0  0  0
 29102  1  0  0  0
 33 34  1  0  0  0
 33 66  1  0  0  0
 33 70  2  0  0  0
 34 36  1  0  0  0
 34 59  1  0  0  0
 34103  1  0  0  0
 35 44  2  0  0  0
 35 45  1  0  0  0
 35 68  1  0  0  0
 36 56  1  0  0  0
 36104  1  0  0  0
 37 39  1  0  0  0
 37 47  1  0  0  0
 37 66  1  0  0  0
 37105  1  0  0  0
 38 43  2  0  0  0
 38 46  1  0  0  0
 38 47  1  0  0  0
 39 64  1  0  0  0
 39 67  2  0  0  0
 40 52  1  0  0  0
 40 53  2  0  0  0
 40 58  1  0  0  0
 41106  1  0  0  0
 41107  1  0  0  0
 41108  1  0  0  0
 41 48  1  0  0  0
 42 43  1  0  0  0
 42 66  1  0  0  0
 42109  1  0  0  0
 42110  1  0  0  0
 43 44  1  0  0  0
 44111  1  0  0  0
 45 46  2  0  0  0
 45112  1  0  0  0
 46113  1  0  0  0
 47114  1  0  0  0
 47115  1  0  0  0
 48 56  1  0  0  0
 48 65  1  0  0  0
 48116  1  0  0  0
 49 50  1  0  0  0
 49 53  1  0  0  0
 49 64  1  0  0  0
 49117  1  0  0  0
 50 51  1  0  0  0
 50118  1  0  0  0
 50119  1  0  0  0
 51 52  1  0  0  0
 51120  1  0  0  0
 51121  1  0  0  0
 52122  1  0  0  0
 52123  1  0  0  0
 53 54  1  0  0  0
 54 55  2  0  0  0
 54124  1  0  0  0
 55 57  1  0  0  0
 55125  1  0  0  0
 56 69  2  0  0  0
 57 58  2  0  0  0
 57126  1  0  0  0
 58127  1  0  0  0
 59 60  1  0  0  0
 59 61  1  0  0  0
 59 62  1  0  0  0
 60128  1  0  0  0
 60129  1  0  0  0
 60130  1  0  0  0
 61131  1  0  0  0
 61132  1  0  0  0
 61133  1  0  0  0
 62134  1  0  0  0
 62135  1  0  0  0
 62136  1  0  0  0
 63 65  1  0  0  0
 63137  1  0  0  0
 63138  1  0  0  0
 63139  1  0  0  0
 64140  1  0  0  0
 65141  1  0  0  0
 68 78  1  0  0  0
 71142  1  0  0  0
 71143  1  0  0  0
 71144  1  0  0  0
 71 79  1  0  0  0
 72145  1  0  0  0
 72146  1  0  0  0
 72147  1  0  0  0
 72 80  1  0  0  0
 73148  1  0  0  0
 73149  1  0  0  0
 73150  1  0  0  0
 73 81  1  0  0  0
 74 81  1  0  0  0
 74151  1  0  0  0
 74152  1  0  0  0
 74153  1  0  0  0
 75 77  1  0  0  0
 75 81  1  0  0  0
 75154  1  0  0  0
 75155  1  0  0  0
 76 79  1  0  0  0
 76 80  1  0  0  0
 76156  1  0  0  0
 76157  1  0  0  0
 77 82  1  0  0  0
 77158  1  0  0  0
 77159  1  0  0  0
 78 79  1  0  0  0
 78160  1  0  0  0
 78161  1  0  0  0
 79162  1  0  0  0
 80 81  1  0  0  0
 80163  1  0  0  0
 82164  1  0  0  0
M  ISO  4   1 100  68 101  78 101  82 100
M  END
> <chiral flag>
0

> <version>
0

> <s_m_source_file>
/data/baiqing/PycharmProjects/Reinvent-master-3.2/result/LINK_invent/BTK/process_docking_weight1_custom_sum_contain_oxygen_bond_distance_aromatic_linkinvent_7_9_3/rearranged_h_0100.sdf

> <i_m_source_file_index>
78

> <r_mmod_Potential_Energy-OPLS-2005>
105.741348266602

> <r_mmod_Stretch_Energy-OPLS-2005>
95.4724273681641

> <r_mmod_Bend_Energy-OPLS-2005>
153.827407836914

> <r_mmod_Torsional_Energy-OPLS-2005>
244.681793212891

> <r_mmod_Improper_Torsional_Energy-OPLS-2005>
7.95656490325928

> <r_mmod_Van_der_Waal_Energy-OPLS-2005>
135.963333129883

> <r_mmod_Electrostatic_Energy-OPLS-2005>
-385.304260253906

> <r_mmod_Solvation_Energy-OPLS-2005>
-192.313980102539

> <b_mmod_Minimization_Converged-OPLS-2005>
0

> <r_mmod_RMS_Derivative-OPLS-2005>
3.18670868873596

$$$$
78
                    3D
 Structure written by MMmdl.
158166  0  0  1  0            999 V2000
  -30.6536  -14.5628   20.5850 C   0  0  0  0  0  0
  -30.4287  -12.3646   19.4590 C   0  0  0  0  0  0
  -29.5120  -12.5133   18.2246 C   0  0  0  0  0  0
  -28.0312  -12.3380   18.6263 C   0  0  0  0  0  0
  -27.6459  -13.2084   19.8518 C   0  0  2  0  0  0
  -28.6777  -13.0569   20.9922 C   0  0  0  0  0  0
  -25.2567  -13.8196   20.5765 C   0  0  0  0  0  0
  -24.1797  -13.0476   20.9250 C   0  0  0  0  0  0
  -24.6319  -11.6928   20.8698 C   0  0  0  0  0  0
  -23.9012  -10.4309   21.0359 C   0  0  0  0  0  0
  -24.3596   -9.4195   21.9087 C   0  0  0  0  0  0
  -23.6293   -8.2231   22.0680 C   0  0  0  0  0  0
  -22.4252   -8.0283   21.3503 C   0  0  0  0  0  0
  -21.9853   -9.0265   20.4614 C   0  0  0  0  0  0
  -22.7176  -10.2141   20.3019 C   0  0  0  0  0  0
  -21.6846   -6.0730   22.5270 C   0  0  0  0  0  0
  -21.4002   -6.5611   23.8206 C   0  0  0  0  0  0
  -21.3676   -5.6761   24.9176 C   0  0  0  0  0  0
  -21.6043   -4.3018   24.7199 C   0  0  0  0  0  0
  -21.8814   -3.8126   23.4328 C   0  0  0  0  0  0
  -21.9183   -4.6954   22.3393 C   0  0  0  0  0  0
  -22.7820  -13.5258   21.1881 C   0  0  0  0  0  0
  -22.1669   -4.2158   21.0978 F   0  0  0  0  0  0
  -21.5626   -3.4494   25.7707 F   0  0  0  0  0  0
  -30.0111  -13.3699   20.4505 N   0  0  0  0  0  0
  -26.2910  -12.9314   20.3208 N   0  0  0  0  0  0
  -25.9214  -11.6478   20.5615 N   0  0  0  0  0  0
  -22.0432  -12.8214   22.0370 N   0  0  0  0  0  0
  -25.4396  -15.1912   20.4325 N   0  0  0  0  0  0
  -31.7984  -14.7524   20.1592 O   0  0  0  0  0  0
  -21.6630   -6.8864   21.4219 O   0  0  0  0  0  0
  -22.3547  -14.5611   20.6737 O   0  0  0  0  0  0
  -24.6151  -31.8742   23.2076 C   0  0  0  0  0  0
  -25.9076  -32.4834   23.8338 C   0  0  1  0  0  0
  -27.2160  -27.4316   20.0992 C   0  0  0  0  0  0
  -25.5961  -33.8639   24.2299 N   0  0  0  0  0  0
  -23.3946  -30.4973   21.5503 C   0  0  2  0  0  0
  -24.8356  -28.9597   20.1110 C   0  0  0  0  0  0
  -22.7361  -29.4733   22.5007 C   0  0  0  0  0  0
  -18.0286  -28.1384   22.8473 C   0  0  0  0  0  0
  -24.1497  -36.7354   23.2617 C   0  0  0  0  0  0
  -25.9185  -30.8433   21.3468 C   0  0  0  0  0  0
  -25.9981  -29.4719   20.7040 C   0  0  0  0  0  0
  -27.1938  -28.7151   20.6933 C   0  0  0  0  0  0
  -26.0411  -26.9373   19.4950 C   0  0  0  0  0  0
  -24.8520  -27.6921   19.5032 C   0  0  0  0  0  0
  -23.5968  -29.8279   20.1643 C   0  0  0  0  0  0
  -25.4108  -36.3124   24.0314 C   0  0  1  0  0  0
  -20.5866  -28.3696   23.1311 C   0  0  2  0  0  0
  -20.6787  -26.9445   22.5411 C   0  0  0  0  0  0
  -19.5772  -26.6414   21.5199 C   0  0  0  0  0  0
  -18.1944  -26.7923   22.1611 C   0  0  0  0  0  0
  -19.1529  -28.8845   23.2902 C   0  0  0  0  0  0
  -18.9468  -30.1437   23.8917 C   0  0  0  0  0  0
  -17.6485  -30.6587   24.0559 C   0  0  0  0  0  0
  -25.9043  -34.9497   23.5087 C   0  0  0  0  0  0
  -16.5364  -29.9097   23.6324 C   0  0  0  0  0  0
  -16.7287  -28.6523   23.0325 C   0  0  0  0  0  0
  -26.4482  -31.6597   25.0655 C   0  0  0  0  0  0
  -25.3766  -31.3740   26.1424 C   0  0  0  0  0  0
  -27.0249  -30.3017   24.5970 C   0  0  0  0  0  0
  -27.6047  -32.4276   25.7470 C   0  0  0  0  0  0
  -27.5572  -37.1833   24.8449 C   0  0  0  0  0  0
  -21.4117  -29.3074   22.3727 N   0  0  0  0  0  0
  -26.4300  -37.3797   23.9388 N   0  0  0  0  0  0
  -24.6620  -31.0822   22.0970 N   0  0  0  0  0  0
  -23.4164  -28.8310   23.3060 O   0  0  0  0  0  0
  -28.3641  -26.6704   20.0990 O   0  0  0  0  0  0
  -26.5586  -34.8969   22.4641 O   0  0  0  0  0  0
  -23.5367  -32.1535   23.7498 O   0  0  0  0  0  0
  -28.9939  -20.4804   20.3297 C   0  0  0  0  0  0
  -28.6916  -22.0133   22.1660 C   0  0  0  0  0  0
  -28.8299  -21.8172   20.7828 C   0  0  0  0  0  0
  -28.9923  -19.3985   21.2561 C   0  0  0  0  0  0
  -28.8077  -19.7320   22.6245 C   0  0  0  0  0  0
  -28.6464  -18.6937   23.7235 C   0  0  0  0  0  0
  -28.7732  -23.0106   19.8094 C   0  0  0  0  0  0
  -29.0348  -17.9289   20.7573 C   0  0  0  0  0  0
  -29.3086  -24.3788   20.3432 C   0  0  0  0  0  0
  -30.2087  -17.0121   21.2446 C   0  0  0  0  0  0
  -28.2495  -25.4151   20.8011 C   0  0  0  0  0  0
  -28.6835  -21.0039   23.0593 N   0  0  0  0  0  0
  -29.8985  -15.5698   21.0840 N   0  0  0  0  0  0
  -31.4793  -12.4767   19.1806 H   0  0  0  0  0  0
  -30.3352  -11.3686   19.8932 H   0  0  0  0  0  0
  -29.7914  -11.7801   17.4660 H   0  0  0  0  0  0
  -29.6570  -13.4960   17.7711 H   0  0  0  0  0  0
  -27.8671  -11.2817   18.8509 H   0  0  0  0  0  0
  -27.3875  -12.5744   17.7792 H   0  0  0  0  0  0
  -27.6676  -14.2392   19.4979 H   0  0  0  0  0  0
  -28.6700  -12.0422   21.3865 H   0  0  0  0  0  0
  -28.4038  -13.7018   21.8317 H   0  0  0  0  0  0
  -25.2766   -9.5672   22.4631 H   0  0  0  0  0  0
  -24.0031   -7.4566   22.7343 H   0  0  0  0  0  0
  -21.0757   -8.8785   19.8955 H   0  0  0  0  0  0
  -22.3629  -10.9672   19.6134 H   0  0  0  0  0  0
  -21.2005   -7.6117   23.9721 H   0  0  0  0  0  0
  -21.1522   -6.0481   25.9081 H   0  0  0  0  0  0
  -22.0597   -2.7591   23.2809 H   0  0  0  0  0  0
  -22.4056  -11.9841   22.4680 H   0  0  0  0  0  0
  -21.0973  -13.1134   22.2457 H   0  0  0  0  0  0
  -24.6831  -15.8593   20.5520 H   0  0  0  0  0  0
  -26.2997  -15.6173   20.1081 H   0  0  0  0  0  0
  -26.7158  -32.5532   23.1123 H   0  0  0  0  0  0
  -25.0071  -33.9778   25.0411 H   0  0  0  0  0  0
  -22.6816  -31.3153   21.4157 H   0  0  0  0  0  0
  -23.3730  -35.9718   23.3287 H   0  0  0  0  0  0
  -24.3589  -36.8965   22.2030 H   0  0  0  0  0  0
  -23.7332  -37.6598   23.6632 H   0  0  0  0  0  0
  -25.9919  -31.6018   20.5642 H   0  0  0  0  0  0
  -26.8214  -30.9207   21.9413 H   0  0  0  0  0  0
  -28.0915  -29.1070   21.1524 H   0  0  0  0  0  0
  -26.0380  -25.9638   19.0244 H   0  0  0  0  0  0
  -23.9618  -27.2893   19.0385 H   0  0  0  0  0  0
  -23.6991  -30.6048   19.4020 H   0  0  0  0  0  0
  -22.7147  -29.2535   19.8718 H   0  0  0  0  0  0
  -25.1294  -36.1938   25.0805 H   0  0  0  0  0  0
  -20.9953  -28.3276   24.1435 H   0  0  0  0  0  0
  -20.5685  -26.2315   23.3601 H   0  0  0  0  0  0
  -21.6658  -26.7507   22.1196 H   0  0  0  0  0  0
  -19.6947  -25.6338   21.1206 H   0  0  0  0  0  0
  -19.6679  -27.3229   20.6723 H   0  0  0  0  0  0
  -17.4210  -26.6673   21.4012 H   0  0  0  0  0  0
  -18.0362  -26.0044   22.8987 H   0  0  0  0  0  0
  -19.7956  -30.7230   24.2294 H   0  0  0  0  0  0
  -17.5063  -31.6262   24.5182 H   0  0  0  0  0  0
  -15.5374  -30.3031   23.7633 H   0  0  0  0  0  0
  -15.8680  -28.0872   22.7020 H   0  0  0  0  0  0
  -24.5930  -30.7061   25.7819 H   0  0  0  0  0  0
  -24.8975  -32.2928   26.4830 H   0  0  0  0  0  0
  -25.8164  -30.8977   27.0198 H   0  0  0  0  0  0
  -26.2760  -29.6841   24.0973 H   0  0  0  0  0  0
  -27.3988  -29.7151   25.4379 H   0  0  0  0  0  0
  -27.8610  -30.4305   23.9080 H   0  0  0  0  0  0
  -27.2638  -33.3536   26.2107 H   0  0  0  0  0  0
  -28.3882  -32.6892   25.0352 H   0  0  0  0  0  0
  -28.0681  -31.8345   26.5376 H   0  0  0  0  0  0
  -28.2599  -38.0106   24.7436 H   0  0  0  0  0  0
  -28.1051  -36.2642   24.6321 H   0  0  0  0  0  0
  -27.2266  -37.1529   25.8842 H   0  0  0  0  0  0
  -20.9316  -29.8771   21.6908 H   0  0  0  0  0  0
  -26.0167  -38.2864   24.1385 H   0  0  0  0  0  0
  -29.0771  -20.2825   19.2686 H   0  0  0  0  0  0
  -28.5692  -23.0103   22.5689 H   0  0  0  0  0  0
  -28.2279  -17.7621   23.3447 H   0  0  0  0  0  0
  -27.9641  -19.0527   24.4970 H   0  0  0  0  0  0
  -29.6007  -18.4729   24.2016 H   0  0  0  0  0  0
  -27.7556  -23.1246   19.4291 H   0  0  0  0  0  0
  -29.3701  -22.7414   18.9368 H   0  0  0  0  0  0
  -29.0428  -17.9278   19.6678 H   0  0  0  0  0  0
  -28.0766  -17.4818   21.0323 H   0  0  0  0  0  0
  -29.8902  -24.8427   19.5487 H   0  0  0  0  0  0
  -30.0358  -24.2190   21.1385 H   0  0  0  0  0  0
  -30.3977  -17.1744   22.3044 H   0  0  0  0  0  0
  -31.1320  -17.2822   20.7280 H   0  0  0  0  0  0
  -28.4137  -25.6359   21.8563 H   0  0  0  0  0  0
  -27.2532  -24.9786   20.7483 H   0  0  0  0  0  0
  -28.9827  -15.2901   21.4028 H   0  0  0  0  0  0
  1 25  1  0  0  0
  1 30  2  0  0  0
  1 83  1  0  0  0
  2  3  1  0  0  0
  2 25  1  0  0  0
  2 84  1  0  0  0
  2 85  1  0  0  0
  3  4  1  0  0  0
  3 86  1  0  0  0
  3 87  1  0  0  0
  4  5  1  0  0  0
  4 88  1  0  0  0
  4 89  1  0  0  0
  5  6  1  0  0  0
  5 26  1  0  0  0
  5 90  1  0  0  0
  6 25  1  0  0  0
  6 91  1  0  0  0
  6 92  1  0  0  0
  7  8  2  0  0  0
  7 26  1  0  0  0
  7 29  1  0  0  0
  8  9  1  0  0  0
  8 22  1  0  0  0
  9 10  1  0  0  0
  9 27  2  0  0  0
 10 11  2  0  0  0
 10 15  1  0  0  0
 11 12  1  0  0  0
 11 93  1  0  0  0
 12 13  2  0  0  0
 12 94  1  0  0  0
 13 14  1  0  0  0
 13 31  1  0  0  0
 14 15  2  0  0  0
 14 95  1  0  0  0
 15 96  1  0  0  0
 16 17  2  0  0  0
 16 21  1  0  0  0
 16 31  1  0  0  0
 17 18  1  0  0  0
 17 97  1  0  0  0
 18 19  2  0  0  0
 18 98  1  0  0  0
 19 20  1  0  0  0
 19 24  1  0  0  0
 20 21  2  0  0  0
 20 99  1  0  0  0
 21 23  1  0  0  0
 22 28  1  0  0  0
 22 32  2  0  0  0
 26 27  1  0  0  0
 28100  1  0  0  0
 28101  1  0  0  0
 29102  1  0  0  0
 29103  1  0  0  0
 33 34  1  0  0  0
 33 66  1  0  0  0
 33 70  2  0  0  0
 34 36  1  0  0  0
 34 59  1  0  0  0
 34104  1  0  0  0
 35 44  2  0  0  0
 35 45  1  0  0  0
 35 68  1  0  0  0
 36 56  1  0  0  0
 36105  1  0  0  0
 37 39  1  0  0  0
 37 47  1  0  0  0
 37 66  1  0  0  0
 37106  1  0  0  0
 38 43  2  0  0  0
 38 46  1  0  0  0
 38 47  1  0  0  0
 39 64  1  0  0  0
 39 67  2  0  0  0
 40 52  1  0  0  0
 40 53  2  0  0  0
 40 58  1  0  0  0
 41107  1  0  0  0
 41108  1  0  0  0
 41109  1  0  0  0
 41 48  1  0  0  0
 42 43  1  0  0  0
 42 66  1  0  0  0
 42110  1  0  0  0
 42111  1  0  0  0
 43 44  1  0  0  0
 44112  1  0  0  0
 45 46  2  0  0  0
 45113  1  0  0  0
 46114  1  0  0  0
 47115  1  0  0  0
 47116  1  0  0  0
 48 56  1  0  0  0
 48 65  1  0  0  0
 48117  1  0  0  0
 49 50  1  0  0  0
 49 53  1  0  0  0
 49 64  1  0  0  0
 49118  1  0  0  0
 50 51  1  0  0  0
 50119  1  0  0  0
 50120  1  0  0  0
 51 52  1  0  0  0
 51121  1  0  0  0
 51122  1  0  0  0
 52123  1  0  0  0
 52124  1  0  0  0
 53 54  1  0  0  0
 54 55  2  0  0  0
 54125  1  0  0  0
 55 57  1  0  0  0
 55126  1  0  0  0
 56 69  2  0  0  0
 57 58  2  0  0  0
 57127  1  0  0  0
 58128  1  0  0  0
 59 60  1  0  0  0
 59 61  1  0  0  0
 59 62  1  0  0  0
 60129  1  0  0  0
 60130  1  0  0  0
 60131  1  0  0  0
 61132  1  0  0  0
 61133  1  0  0  0
 61134  1  0  0  0
 62135  1  0  0  0
 62136  1  0  0  0
 62137  1  0  0  0
 63 65  1  0  0  0
 63138  1  0  0  0
 63139  1  0  0  0
 63140  1  0  0  0
 64141  1  0  0  0
 65142  1  0  0  0
 68 81  1  0  0  0
 71 73  2  0  0  0
 71 74  1  0  0  0
 71143  1  0  0  0
 72 73  1  0  0  0
 72 82  2  0  0  0
 72144  1  0  0  0
 73 77  1  0  0  0
 74 75  2  0  0  0
 74 78  1  0  0  0
 75 76  1  0  0  0
 75 82  1  0  0  0
 76145  1  0  0  0
 76146  1  0  0  0
 76147  1  0  0  0
 77 79  1  0  0  0
 77148  1  0  0  0
 77149  1  0  0  0
 78 80  1  0  0  0
 78150  1  0  0  0
 78151  1  0  0  0
 79 81  1  0  0  0
 79152  1  0  0  0
 79153  1  0  0  0
 80 83  1  0  0  0
 80154  1  0  0  0
 80155  1  0  0  0
 81156  1  0  0  0
 81157  1  0  0  0
 83158  1  0  0  0
M  ISO  4   1 100  68 101  81 101  83 100
M  END
> <chiral flag>
0

> <version>
0

> <s_m_source_file>
/data/baiqing/PycharmProjects/Reinvent-master-3.2/result/LINK_invent/BTK/process_docking_weight1_custom_sum_contain_oxygen_bond_distance_aromatic_linkinvent_7_9_3/rearranged_h_0100.sdf

> <i_m_source_file_index>
79

> <r_mmod_Potential_Energy-OPLS-2005>
-205.823181152344

> <r_mmod_Stretch_Energy-OPLS-2005>
44.2836799621582

> <r_mmod_Bend_Energy-OPLS-2005>
101.676124572754

> <r_mmod_Torsional_Energy-OPLS-2005>
240.0205078125

> <r_mmod_Improper_Torsional_Energy-OPLS-2005>
3.89974331855774

> <r_mmod_Van_der_Waal_Energy-OPLS-2005>
150.351318359375

> <r_mmod_Electrostatic_Energy-OPLS-2005>
-542.375610351562

> <r_mmod_Solvation_Energy-OPLS-2005>
-226.863494873047

> <b_mmod_Minimization_Converged-OPLS-2005>
0

> <r_mmod_RMS_Derivative-OPLS-2005>
6.13783550262451

$$$$
79
                    3D
 Structure written by MMmdl.
172180  0  0  1  0            999 V2000
  -30.6699  -14.6009   20.5432 C   0  0  0  0  0  0
  -30.4320  -12.3821   19.4500 C   0  0  0  0  0  0
  -29.5058  -12.5169   18.2228 C   0  0  0  0  0  0
  -28.0273  -12.3581   18.6346 C   0  0  0  0  0  0
  -27.6555  -13.2215   19.8689 C   0  0  2  0  0  0
  -28.7016  -13.0712   20.9963 C   0  0  0  0  0  0
  -25.2576  -13.8180   20.5707 C   0  0  0  0  0  0
  -24.1847  -13.0436   20.9205 C   0  0  0  0  0  0
  -24.6413  -11.6918   20.8755 C   0  0  0  0  0  0
  -23.9067  -10.4302   21.0411 C   0  0  0  0  0  0
  -24.3619   -9.4209   21.9182 C   0  0  0  0  0  0
  -23.6307   -8.2235   22.0750 C   0  0  0  0  0  0
  -22.4296   -8.0275   21.3542 C   0  0  0  0  0  0
  -21.9932   -9.0246   20.4634 C   0  0  0  0  0  0
  -22.7248  -10.2128   20.3052 C   0  0  0  0  0  0
  -21.6839   -6.0754   22.5280 C   0  0  0  0  0  0
  -21.3996   -6.5649   23.8219 C   0  0  0  0  0  0
  -21.3676   -5.6800   24.9176 C   0  0  0  0  0  0
  -21.6060   -4.3065   24.7228 C   0  0  0  0  0  0
  -21.8824   -3.8154   23.4340 C   0  0  0  0  0  0
  -21.9182   -4.6984   22.3409 C   0  0  0  0  0  0
  -22.7875  -13.5212   21.1870 C   0  0  0  0  0  0
  -22.1655   -4.2180   21.0987 F   0  0  0  0  0  0
  -21.5639   -3.4535   25.7726 F   0  0  0  0  0  0
  -30.0161  -13.4042   20.4285 N   0  0  0  0  0  0
  -26.3015  -12.9374   20.3365 N   0  0  0  0  0  0
  -25.9341  -11.6525   20.5788 N   0  0  0  0  0  0
  -22.0514  -12.8216   22.0424 N   0  0  0  0  0  0
  -25.4272  -15.1906   20.4136 N   0  0  0  0  0  0
  -31.8304  -14.7381   20.1502 O   0  0  0  0  0  0
  -21.6632   -6.8895   21.4248 O   0  0  0  0  0  0
  -22.3553  -14.5502   20.6702 O   0  0  0  0  0  0
  -24.6208  -31.8607   23.2048 C   0  0  0  0  0  0
  -25.9068  -32.4789   23.8370 C   0  0  1  0  0  0
  -27.2383  -27.3568   20.1030 C   0  0  0  0  0  0
  -25.5895  -33.8591   24.2296 N   0  0  0  0  0  0
  -23.4144  -30.4816   21.5464 C   0  0  2  0  0  0
  -24.8632  -28.9387   20.1072 C   0  0  0  0  0  0
  -22.7453  -29.4608   22.4953 C   0  0  0  0  0  0
  -18.0271  -28.1377   22.8488 C   0  0  0  0  0  0
  -24.1482  -36.7302   23.2643 C   0  0  0  0  0  0
  -25.9497  -30.8001   21.3707 C   0  0  0  0  0  0
  -26.0262  -29.4292   20.7153 C   0  0  0  0  0  0
  -27.2097  -28.6421   20.7166 C   0  0  0  0  0  0
  -26.0528  -26.8995   19.4854 C   0  0  0  0  0  0
  -24.8760  -27.6759   19.4899 C   0  0  0  0  0  0
  -23.6284  -29.8150   20.1600 C   0  0  0  0  0  0
  -25.4107  -36.3098   24.0336 C   0  0  1  0  0  0
  -20.5869  -28.3668   23.1304 C   0  0  2  0  0  0
  -20.6759  -26.9393   22.5419 C   0  0  0  0  0  0
  -19.5742  -26.6374   21.5216 C   0  0  0  0  0  0
  -18.1921  -26.7923   22.1626 C   0  0  0  0  0  0
  -19.1526  -28.8842   23.2889 C   0  0  0  0  0  0
  -18.9455  -30.1446   23.8901 C   0  0  0  0  0  0
  -17.6453  -30.6583   24.0564 C   0  0  0  0  0  0
  -25.9042  -34.9462   23.5112 C   0  0  0  0  0  0
  -16.5339  -29.9082   23.6328 C   0  0  0  0  0  0
  -16.7258  -28.6499   23.0349 C   0  0  0  0  0  0
  -26.4475  -31.6598   25.0728 C   0  0  0  0  0  0
  -25.3732  -31.3716   26.1476 C   0  0  0  0  0  0
  -27.0304  -30.3031   24.6144 C   0  0  0  0  0  0
  -27.6042  -32.4335   25.7486 C   0  0  0  0  0  0
  -27.5576  -37.1803   24.8465 C   0  0  0  0  0  0
  -21.4170  -29.3019   22.3703 N   0  0  0  0  0  0
  -26.4286  -37.3788   23.9413 N   0  0  0  0  0  0
  -24.6805  -31.0639   22.0984 N   0  0  0  0  0  0
  -23.4193  -28.8153   23.3031 O   0  0  0  0  0  0
  -28.3660  -26.5391   20.2045 O   0  0  0  0  0  0
  -26.5615  -34.8925   22.4689 O   0  0  0  0  0  0
  -23.5384  -32.1385   23.7400 O   0  0  0  0  0  0
  -32.3002  -21.1357   18.3617 C   0  0  0  0  0  0
  -31.4559  -22.2667   18.5018 C   0  0  0  0  0  0
  -31.9074  -20.2228   19.2894 C   0  0  0  0  0  0
  -30.5376  -22.0289   19.5008 C   0  0  0  0  0  0
  -33.4807  -21.0044   17.4247 C   0  0  0  0  0  0
  -31.6556  -23.5344   17.7261 C   0  0  0  0  0  0
  -32.6251  -18.9661   19.6735 C   0  0  0  0  0  0
  -30.2941  -17.2657   22.8148 C   0  0  0  0  0  0
  -30.1239  -26.2255   18.7213 C   0  0  0  0  0  0
  -29.6198  -23.1083   20.1569 C   0  0  0  0  0  0
  -28.6799  -24.0416   19.2625 C   0  0  0  0  0  0
  -29.7085  -18.2600   20.4890 C   0  0  0  0  0  0
  -29.9755  -19.8030   20.8667 C   0  0  0  0  0  0
  -30.4078  -17.0669   21.2949 C   0  0  2  0  0  0
  -28.7650  -25.6451   19.1258 C   0  0  1  0  0  0
  -30.7262  -20.6577   19.8932 N   0  0  0  0  0  0
  -29.9399  -15.6730   20.9738 N   0  0  0  0  0  0
  -31.4751  -12.4980   19.1490 H   0  0  0  0  0  0
  -30.3525  -11.3866   19.8879 H   0  0  0  0  0  0
  -29.7718  -11.7736   17.4699 H   0  0  0  0  0  0
  -29.6565  -13.4932   17.7586 H   0  0  0  0  0  0
  -27.8574  -11.3042   18.8608 H   0  0  0  0  0  0
  -27.3685  -12.5977   17.7980 H   0  0  0  0  0  0
  -27.6755  -14.2615   19.5384 H   0  0  0  0  0  0
  -28.7101  -12.0481   21.3770 H   0  0  0  0  0  0
  -28.4544  -13.7051   21.8496 H   0  0  0  0  0  0
  -25.2759   -9.5703   22.4751 H   0  0  0  0  0  0
  -24.0038   -7.4636   22.7461 H   0  0  0  0  0  0
  -21.0867   -8.8753   19.8944 H   0  0  0  0  0  0
  -22.3682  -10.9668   19.6174 H   0  0  0  0  0  0
  -21.1954   -7.6152   23.9720 H   0  0  0  0  0  0
  -21.1507   -6.0534   25.9088 H   0  0  0  0  0  0
  -22.0587   -2.7616   23.2826 H   0  0  0  0  0  0
  -22.4093  -11.9851   22.4815 H   0  0  0  0  0  0
  -21.1115  -13.1241   22.2567 H   0  0  0  0  0  0
  -24.6631  -15.8460   20.5350 H   0  0  0  0  0  0
  -26.2751  -15.6301   20.0800 H   0  0  0  0  0  0
  -26.7130  -32.5476   23.1122 H   0  0  0  0  0  0
  -25.0025  -33.9742   25.0426 H   0  0  0  0  0  0
  -22.7063  -31.3007   21.4054 H   0  0  0  0  0  0
  -23.3744  -35.9632   23.3309 H   0  0  0  0  0  0
  -24.3569  -36.8916   22.2054 H   0  0  0  0  0  0
  -23.7228  -37.6506   23.6657 H   0  0  0  0  0  0
  -26.0728  -31.5638   20.6022 H   0  0  0  0  0  0
  -26.8325  -30.8530   21.9950 H   0  0  0  0  0  0
  -28.0996  -29.0082   21.2095 H   0  0  0  0  0  0
  -26.0152  -25.9187   19.0344 H   0  0  0  0  0  0
  -23.9796  -27.2877   19.0255 H   0  0  0  0  0  0
  -23.7444  -30.5931   19.4045 H   0  0  0  0  0  0
  -22.7484  -29.2429   19.8591 H   0  0  0  0  0  0
  -25.1285  -36.1956   25.0827 H   0  0  0  0  0  0
  -20.9956  -28.3234   24.1430 H   0  0  0  0  0  0
  -20.5652  -26.2277   23.3615 H   0  0  0  0  0  0
  -21.6630  -26.7419   22.1222 H   0  0  0  0  0  0
  -19.6899  -25.6289   21.1242 H   0  0  0  0  0  0
  -19.6685  -27.3192   20.6757 H   0  0  0  0  0  0
  -17.4190  -26.6667   21.4027 H   0  0  0  0  0  0
  -18.0316  -26.0059   22.9021 H   0  0  0  0  0  0
  -19.7929  -30.7258   24.2277 H   0  0  0  0  0  0
  -17.5007  -31.6265   24.5159 H   0  0  0  0  0  0
  -15.5344  -30.2987   23.7648 H   0  0  0  0  0  0
  -15.8662  -28.0823   22.7062 H   0  0  0  0  0  0
  -24.5908  -30.7057   25.7821 H   0  0  0  0  0  0
  -24.8922  -32.2869   26.4930 H   0  0  0  0  0  0
  -25.8085  -30.8889   27.0232 H   0  0  0  0  0  0
  -26.2853  -29.6800   24.1183 H   0  0  0  0  0  0
  -27.4033  -29.7270   25.4621 H   0  0  0  0  0  0
  -27.8713  -30.4334   23.9329 H   0  0  0  0  0  0
  -27.2655  -33.3635   26.2061 H   0  0  0  0  0  0
  -28.3843  -32.6894   25.0306 H   0  0  0  0  0  0
  -28.0716  -31.8465   26.5400 H   0  0  0  0  0  0
  -28.2604  -38.0093   24.7513 H   0  0  0  0  0  0
  -28.1062  -36.2625   24.6290 H   0  0  0  0  0  0
  -27.2294  -37.1454   25.8870 H   0  0  0  0  0  0
  -20.9344  -29.8751   21.6926 H   0  0  0  0  0  0
  -26.0175  -38.2863   24.1426 H   0  0  0  0  0  0
  -33.2122  -21.3019   16.4119 H   0  0  0  0  0  0
  -33.8430  -19.9785   17.3725 H   0  0  0  0  0  0
  -34.3020  -21.6384   17.7580 H   0  0  0  0  0  0
  -32.4325  -23.4344   16.9695 H   0  0  0  0  0  0
  -31.9743  -24.3213   18.4047 H   0  0  0  0  0  0
  -30.7383  -23.8121   17.2139 H   0  0  0  0  0  0
  -33.6851  -19.0207   19.4259 H   0  0  0  0  0  0
  -32.2181  -18.0941   19.1625 H   0  0  0  0  0  0
  -32.5936  -18.8233   20.7523 H   0  0  0  0  0  0
  -30.8455  -18.1444   23.1506 H   0  0  0  0  0  0
  -30.7152  -16.4205   23.3585 H   0  0  0  0  0  0
  -29.2577  -17.3793   23.1320 H   0  0  0  0  0  0
  -30.4224  -25.9109   17.7248 H   0  0  0  0  0  0
  -30.8973  -25.9650   19.4419 H   0  0  0  0  0  0
  -30.0784  -27.3154   18.6810 H   0  0  0  0  0  0
  -30.2619  -23.7675   20.7414 H   0  0  0  0  0  0
  -28.9925  -22.6225   20.9031 H   0  0  0  0  0  0
  -27.6578  -23.8315   19.5783 H   0  0  0  0  0  0
  -28.7113  -23.6342   18.2521 H   0  0  0  0  0  0
  -29.8860  -18.1177   19.4224 H   0  0  0  0  0  0
  -28.6340  -18.1086   20.5966 H   0  0  0  0  0  0
  -30.4737  -19.8884   21.8308 H   0  0  0  0  0  0
  -29.0047  -20.2752   21.0085 H   0  0  0  0  0  0
  -31.4720  -17.0698   21.0819 H   0  0  0  0  0  0
  -28.1244  -25.8723   18.2725 H   0  0  0  0  0  0
  -28.9808  -15.4636   21.2074 H   0  0  0  0  0  0
  1 25  1  0  0  0
  1 30  2  0  0  0
  1 87  1  0  0  0
  2  3  1  0  0  0
  2 25  1  0  0  0
  2 88  1  0  0  0
  2 89  1  0  0  0
  3  4  1  0  0  0
  3 90  1  0  0  0
  3 91  1  0  0  0
  4  5  1  0  0  0
  4 92  1  0  0  0
  4 93  1  0  0  0
  5  6  1  0  0  0
  5 26  1  0  0  0
  5 94  1  0  0  0
  6 25  1  0  0  0
  6 95  1  0  0  0
  6 96  1  0  0  0
  7  8  2  0  0  0
  7 26  1  0  0  0
  7 29  1  0  0  0
  8  9  1  0  0  0
  8 22  1  0  0  0
  9 10  1  0  0  0
  9 27  2  0  0  0
 10 11  2  0  0  0
 10 15  1  0  0  0
 11 12  1  0  0  0
 11 97  1  0  0  0
 12 13  2  0  0  0
 12 98  1  0  0  0
 13 14  1  0  0  0
 13 31  1  0  0  0
 14 15  2  0  0  0
 14 99  1  0  0  0
 15100  1  0  0  0
 16 17  2  0  0  0
 16 21  1  0  0  0
 16 31  1  0  0  0
 17 18  1  0  0  0
 17101  1  0  0  0
 18 19  2  0  0  0
 18102  1  0  0  0
 19 20  1  0  0  0
 19 24  1  0  0  0
 20 21  2  0  0  0
 20103  1  0  0  0
 21 23  1  0  0  0
 22 28  1  0  0  0
 22 32  2  0  0  0
 26 27  1  0  0  0
 28104  1  0  0  0
 28105  1  0  0  0
 29106  1  0  0  0
 29107  1  0  0  0
 33 34  1  0  0  0
 33 66  1  0  0  0
 33 70  2  0  0  0
 34 36  1  0  0  0
 34 59  1  0  0  0
 34108  1  0  0  0
 35 44  2  0  0  0
 35 45  1  0  0  0
 35 68  1  0  0  0
 36 56  1  0  0  0
 36109  1  0  0  0
 37 39  1  0  0  0
 37 47  1  0  0  0
 37 66  1  0  0  0
 37110  1  0  0  0
 38 43  2  0  0  0
 38 46  1  0  0  0
 38 47  1  0  0  0
 39 64  1  0  0  0
 39 67  2  0  0  0
 40 52  1  0  0  0
 40 53  2  0  0  0
 40 58  1  0  0  0
 41111  1  0  0  0
 41112  1  0  0  0
 41113  1  0  0  0
 41 48  1  0  0  0
 42 43  1  0  0  0
 42 66  1  0  0  0
 42114  1  0  0  0
 42115  1  0  0  0
 43 44  1  0  0  0
 44116  1  0  0  0
 45 46  2  0  0  0
 45117  1  0  0  0
 46118  1  0  0  0
 47119  1  0  0  0
 47120  1  0  0  0
 48 56  1  0  0  0
 48 65  1  0  0  0
 48121  1  0  0  0
 49 50  1  0  0  0
 49 53  1  0  0  0
 49 64  1  0  0  0
 49122  1  0  0  0
 50 51  1  0  0  0
 50123  1  0  0  0
 50124  1  0  0  0
 51 52  1  0  0  0
 51125  1  0  0  0
 51126  1  0  0  0
 52127  1  0  0  0
 52128  1  0  0  0
 53 54  1  0  0  0
 54 55  2  0  0  0
 54129  1  0  0  0
 55 57  1  0  0  0
 55130  1  0  0  0
 56 69  2  0  0  0
 57 58  2  0  0  0
 57131  1  0  0  0
 58132  1  0  0  0
 59 60  1  0  0  0
 59 61  1  0  0  0
 59 62  1  0  0  0
 60133  1  0  0  0
 60134  1  0  0  0
 60135  1  0  0  0
 61136  1  0  0  0
 61137  1  0  0  0
 61138  1  0  0  0
 62139  1  0  0  0
 62140  1  0  0  0
 62141  1  0  0  0
 63 65  1  0  0  0
 63142  1  0  0  0
 63143  1  0  0  0
 63144  1  0  0  0
 64145  1  0  0  0
 65146  1  0  0  0
 68 85  1  0  0  0
 71 72  1  0  0  0
 71 73  2  0  0  0
 71 75  1  0  0  0
 72 74  2  0  0  0
 72 76  1  0  0  0
 73 77  1  0  0  0
 73 86  1  0  0  0
 74 80  1  0  0  0
 74 86  1  0  0  0
 75147  1  0  0  0
 75148  1  0  0  0
 75149  1  0  0  0
 76150  1  0  0  0
 76151  1  0  0  0
 76152  1  0  0  0
 77153  1  0  0  0
 77154  1  0  0  0
 77155  1  0  0  0
 78156  1  0  0  0
 78157  1  0  0  0
 78158  1  0  0  0
 78 84  1  0  0  0
 79159  1  0  0  0
 79160  1  0  0  0
 79161  1  0  0  0
 79 85  1  0  0  0
 80 81  1  0  0  0
 80162  1  0  0  0
 80163  1  0  0  0
 81 85  1  0  0  0
 81164  1  0  0  0
 81165  1  0  0  0
 82 83  1  0  0  0
 82 84  1  0  0  0
 82166  1  0  0  0
 82167  1  0  0  0
 83 86  1  0  0  0
 83168  1  0  0  0
 83169  1  0  0  0
 84 87  1  0  0  0
 84170  1  0  0  0
 85171  1  0  0  0
 87172  1  0  0  0
M  ISO  4   1 100  68 101  85 101  87 100
M  END
> <chiral flag>
0

> <version>
0

> <s_m_source_file>
/data/baiqing/PycharmProjects/Reinvent-master-3.2/result/LINK_invent/BTK/process_docking_weight1_custom_sum_contain_oxygen_bond_distance_aromatic_linkinvent_7_9_3/rearranged_h_0100.sdf

> <i_m_source_file_index>
80

> <r_mmod_Potential_Energy-OPLS-2005>
69.9785766601562

> <r_mmod_Stretch_Energy-OPLS-2005>
87.7230224609375

> <r_mmod_Bend_Energy-OPLS-2005>
188.500793457031

> <r_mmod_Torsional_Energy-OPLS-2005>
262.253387451172

> <r_mmod_Improper_Torsional_Energy-OPLS-2005>
5.00659322738647

> <r_mmod_Van_der_Waal_Energy-OPLS-2005>
128.24641418457

> <r_mmod_Electrostatic_Energy-OPLS-2005>
-431.251831054688

> <r_mmod_Solvation_Energy-OPLS-2005>
-208.007843017578

> <b_mmod_Minimization_Converged-OPLS-2005>
0

> <r_mmod_RMS_Derivative-OPLS-2005>
2.36989760398865

$$$$
80
                    3D
 Structure written by MMmdl.
174182  0  0  1  0            999 V2000
  -30.5378  -14.9538   20.4094 C   0  0  0  0  0  0
  -30.4393  -12.5850   19.5023 C   0  0  0  0  0  0
  -29.5243  -12.5180   18.2585 C   0  0  0  0  0  0
  -28.0538  -12.3160   18.6746 C   0  0  0  0  0  0
  -27.6278  -13.2498   19.8396 C   0  0  2  0  0  0
  -28.6710  -13.2753   20.9755 C   0  0  0  0  0  0
  -25.2442  -13.8225   20.5720 C   0  0  0  0  0  0
  -24.1777  -13.0453   20.9248 C   0  0  0  0  0  0
  -24.6377  -11.6932   20.8754 C   0  0  0  0  0  0
  -23.9074  -10.4296   21.0413 C   0  0  0  0  0  0
  -24.3616   -9.4208   21.9190 C   0  0  0  0  0  0
  -23.6291   -8.2250   22.0759 C   0  0  0  0  0  0
  -22.4268   -8.0282   21.3565 C   0  0  0  0  0  0
  -21.9910   -9.0249   20.4657 C   0  0  0  0  0  0
  -22.7253  -10.2121   20.3072 C   0  0  0  0  0  0
  -21.6867   -6.0722   22.5282 C   0  0  0  0  0  0
  -21.4021   -6.5627   23.8207 C   0  0  0  0  0  0
  -21.3656   -5.6785   24.9178 C   0  0  0  0  0  0
  -21.6052   -4.3051   24.7246 C   0  0  0  0  0  0
  -21.8816   -3.8143   23.4362 C   0  0  0  0  0  0
  -21.9196   -4.6948   22.3413 C   0  0  0  0  0  0
  -22.7784  -13.5203   21.1919 C   0  0  0  0  0  0
  -22.1662   -4.2140   21.0985 F   0  0  0  0  0  0
  -21.5640   -3.4525   25.7759 F   0  0  0  0  0  0
  -29.9437  -13.6913   20.3708 N   0  0  0  0  0  0
  -26.2866  -12.9451   20.3261 N   0  0  0  0  0  0
  -25.9308  -11.6586   20.5750 N   0  0  0  0  0  0
  -22.0402  -12.8188   22.0434 N   0  0  0  0  0  0
  -25.4059  -15.1951   20.4104 N   0  0  0  0  0  0
  -31.7459  -15.0156   20.1519 O   0  0  0  0  0  0
  -21.6646   -6.8871   21.4251 O   0  0  0  0  0  0
  -22.3464  -14.5499   20.6738 O   0  0  0  0  0  0
  -24.6483  -31.8365   23.1856 C   0  0  0  0  0  0
  -25.9236  -32.4651   23.8262 C   0  0  1  0  0  0
  -27.2077  -27.0781   20.1566 C   0  0  0  0  0  0
  -25.5979  -33.8476   24.2176 N   0  0  0  0  0  0
  -23.4550  -30.4570   21.5296 C   0  0  2  0  0  0
  -24.9042  -28.8780   20.1080 C   0  0  0  0  0  0
  -22.7586  -29.4500   22.4792 C   0  0  0  0  0  0
  -18.0306  -28.1408   22.8454 C   0  0  0  0  0  0
  -24.1490  -36.7226   23.2645 C   0  0  0  0  0  0
  -26.0177  -30.6891   21.3978 C   0  0  0  0  0  0
  -26.0820  -29.2965   20.7371 C   0  0  0  0  0  0
  -27.2284  -28.4102   20.7534 C   0  0  0  0  0  0
  -26.0110  -26.7870   19.4619 C   0  0  0  0  0  0
  -24.8839  -27.6370   19.4574 C   0  0  0  0  0  0
  -23.6856  -29.7872   20.1501 C   0  0  0  0  0  0
  -25.4132  -36.3008   24.0306 C   0  0  1  0  0  0
  -20.5920  -28.3723   23.1206 C   0  0  2  0  0  0
  -20.6791  -26.9406   22.5407 C   0  0  0  0  0  0
  -19.5779  -26.6382   21.5204 C   0  0  0  0  0  0
  -18.1949  -26.7940   22.1605 C   0  0  0  0  0  0
  -19.1567  -28.8883   23.2821 C   0  0  0  0  0  0
  -18.9482  -30.1475   23.8854 C   0  0  0  0  0  0
  -17.6477  -30.6597   24.0550 C   0  0  0  0  0  0
  -25.9083  -34.9375   23.5057 C   0  0  0  0  0  0
  -16.5368  -29.9081   23.6343 C   0  0  0  0  0  0
  -16.7291  -28.6506   23.0349 C   0  0  0  0  0  0
  -26.4543  -31.6556   25.0733 C   0  0  0  0  0  0
  -25.3716  -31.3758   26.1418 C   0  0  0  0  0  0
  -27.0430  -30.2942   24.6366 C   0  0  0  0  0  0
  -27.6068  -32.4329   25.7513 C   0  0  0  0  0  0
  -27.5566  -37.1766   24.8463 C   0  0  0  0  0  0
  -21.4269  -29.3040   22.3544 N   0  0  0  0  0  0
  -26.4278  -37.3728   23.9404 N   0  0  0  0  0  0
  -24.7274  -31.0160   22.0913 N   0  0  0  0  0  0
  -23.4195  -28.8023   23.2956 O   0  0  0  0  0  0
  -28.2362  -26.0577   20.2877 O   0  0  0  0  0  0
  -26.5666  -34.8864   22.4631 O   0  0  0  0  0  0
  -23.5594  -32.1285   23.7021 O   0  0  0  0  0  0
  -28.4678  -23.1754   21.9858 C   0  0  0  0  0  0
  -28.7888  -21.7969   20.0445 C   0  0  0  0  0  0
  -28.5268  -23.1612   20.5888 C   0  0  0  0  0  0
  -28.5237  -22.0028   22.7865 C   0  0  0  0  0  0
  -28.9126  -20.5194   20.8116 C   0  0  0  0  0  0
  -28.6538  -20.6746   22.2203 C   0  0  0  0  0  0
  -26.9037  -18.9021   22.8538 C   0  0  0  0  0  0
  -28.7899  -19.2655   24.5022 C   0  0  0  0  0  0
  -25.5096  -21.7370   28.3158 C   0  0  0  0  0  0
  -28.3987  -22.3002   24.2818 C   0  0  0  0  0  0
  -29.0458  -18.9792   20.1586 C   0  0  0  0  0  0
  -28.1392  -24.5638   19.7807 C   0  0  0  0  0  0
  -26.9544  -22.2474   24.8114 C   0  0  0  0  0  0
  -30.1109  -17.6972   20.5373 C   0  0  0  0  0  0
  -26.8861  -22.3487   26.3476 C   0  0  0  0  0  0
  -28.3638  -19.3733   23.0284 C   0  0  0  0  0  0
  -29.7588  -16.1438   20.5286 N   0  0  0  0  0  0
  -25.5396  -22.0344   26.8709 N   0  3  0  0  0  0
  -31.4746  -12.7363   19.1950 H   0  0  0  0  0  0
  -30.4287  -11.6364   20.0411 H   0  0  0  0  0  0
  -29.8385  -11.7097   17.5962 H   0  0  0  0  0  0
  -29.6196  -13.4400   17.6818 H   0  0  0  0  0  0
  -27.9397  -11.2741   18.9809 H   0  0  0  0  0  0
  -27.3954  -12.4477   17.8154 H   0  0  0  0  0  0
  -27.5890  -14.2541   19.4177 H   0  0  0  0  0  0
  -28.7545  -12.2965   21.4484 H   0  0  0  0  0  0
  -28.3687  -13.9740   21.7571 H   0  0  0  0  0  0
  -25.2748   -9.5694   22.4773 H   0  0  0  0  0  0
  -24.0022   -7.4631   22.7462 H   0  0  0  0  0  0
  -21.0853   -8.8779   19.8919 H   0  0  0  0  0  0
  -22.3734  -10.9664   19.6188 H   0  0  0  0  0  0
  -21.2013   -7.6137   23.9717 H   0  0  0  0  0  0
  -21.1480   -6.0520   25.9081 H   0  0  0  0  0  0
  -22.0594   -2.7603   23.2883 H   0  0  0  0  0  0
  -22.4011  -11.9872   22.4888 H   0  0  0  0  0  0
  -21.0989  -13.1180   22.2575 H   0  0  0  0  0  0
  -24.6333  -15.8409   20.5347 H   0  0  0  0  0  0
  -26.2343  -15.6338   20.0329 H   0  0  0  0  0  0
  -26.7291  -32.5206   23.0968 H   0  0  0  0  0  0
  -25.0129  -33.9607   25.0335 H   0  0  0  0  0  0
  -22.7630  -31.2860   21.3699 H   0  0  0  0  0  0
  -23.3750  -35.9554   23.3301 H   0  0  0  0  0  0
  -24.3590  -36.8877   22.2064 H   0  0  0  0  0  0
  -23.7231  -37.6410   23.6699 H   0  0  0  0  0  0
  -26.1867  -31.4359   20.6212 H   0  0  0  0  0  0
  -26.8862  -30.7393   22.0443 H   0  0  0  0  0  0
  -28.1177  -28.7154   21.2874 H   0  0  0  0  0  0
  -25.8841  -25.8576   18.9359 H   0  0  0  0  0  0
  -23.9859  -27.3131   18.9481 H   0  0  0  0  0  0
  -23.8318  -30.5604   19.3963 H   0  0  0  0  0  0
  -22.8006  -29.2340   19.8306 H   0  0  0  0  0  0
  -25.1309  -36.1839   25.0792 H   0  0  0  0  0  0
  -21.0028  -28.3326   24.1322 H   0  0  0  0  0  0
  -20.5670  -26.2315   23.3617 H   0  0  0  0  0  0
  -21.6639  -26.7402   22.1190 H   0  0  0  0  0  0
  -19.6924  -25.6280   21.1248 H   0  0  0  0  0  0
  -19.6737  -27.3165   20.6704 H   0  0  0  0  0  0
  -17.4204  -26.6663   21.4013 H   0  0  0  0  0  0
  -18.0352  -26.0112   22.9032 H   0  0  0  0  0  0
  -19.7961  -30.7304   24.2189 H   0  0  0  0  0  0
  -17.5039  -31.6273   24.5152 H   0  0  0  0  0  0
  -15.5364  -30.2974   23.7726 H   0  0  0  0  0  0
  -15.8685  -28.0838   22.7083 H   0  0  0  0  0  0
  -24.5917  -30.7073   25.7749 H   0  0  0  0  0  0
  -24.8865  -32.2935   26.4758 H   0  0  0  0  0  0
  -25.8002  -30.9011   27.0255 H   0  0  0  0  0  0
  -26.3074  -29.6642   24.1349 H   0  0  0  0  0  0
  -27.3990  -29.7276   25.4979 H   0  0  0  0  0  0
  -27.8994  -30.4176   23.9739 H   0  0  0  0  0  0
  -27.2674  -33.3673   26.2006 H   0  0  0  0  0  0
  -28.3924  -32.6828   25.0370 H   0  0  0  0  0  0
  -28.0673  -31.8502   26.5501 H   0  0  0  0  0  0
  -28.2555  -38.0084   24.7529 H   0  0  0  0  0  0
  -28.1083  -36.2613   24.6273 H   0  0  0  0  0  0
  -27.2281  -37.1386   25.8861 H   0  0  0  0  0  0
  -20.9462  -29.8779   21.6742 H   0  0  0  0  0  0
  -26.0131  -38.2774   24.1460 H   0  0  0  0  0  0
  -28.3004  -24.1336   22.4621 H   0  0  0  0  0  0
  -28.8334  -21.7158   18.9681 H   0  0  0  0  0  0
  -26.1819  -19.5984   23.2742 H   0  0  0  0  0  0
  -26.7458  -17.9382   23.3399 H   0  0  0  0  0  0
  -26.6312  -18.7762   21.8067 H   0  0  0  0  0  0
  -29.7950  -19.6522   24.6689 H   0  0  0  0  0  0
  -28.8153  -18.2189   24.8092 H   0  0  0  0  0  0
  -28.0861  -19.7497   25.1754 H   0  0  0  0  0  0
  -24.4862  -21.5538   28.6450 H   0  0  0  0  0  0
  -25.9124  -22.5624   28.9016 H   0  0  0  0  0  0
  -26.0946  -20.8439   28.5356 H   0  0  0  0  0  0
  -28.7971  -23.2988   24.4734 H   0  0  0  0  0  0
  -29.0749  -21.6855   24.8623 H   0  0  0  0  0  0
  -29.1676  -19.1469   19.0896 H   0  0  0  0  0  0
  -28.0472  -18.5557   20.2118 H   0  0  0  0  0  0
  -27.1206  -24.3561   19.4675 H   0  0  0  0  0  0
  -28.7136  -24.5335   18.8556 H   0  0  0  0  0  0
  -26.4960  -21.3126   24.5063 H   0  0  0  0  0  0
  -26.3632  -23.0375   24.3451 H   0  0  0  0  0  0
  -30.5857  -17.8913   21.4981 H   0  0  0  0  0  0
  -30.9488  -17.8011   19.8477 H   0  0  0  0  0  0
  -27.1841  -23.3453   26.6772 H   0  0  0  0  0  0
  -27.5979  -21.6507   26.7871 H   0  0  0  0  0  0
  -28.9664  -18.5884   22.6030 H   0  0  0  0  0  0
  -28.7826  -15.9506   20.6941 H   0  0  0  0  0  0
  -24.9160  -22.8029   26.6834 H   0  0  0  0  0  0
  -25.1775  -21.2260   26.3928 H   0  0  0  0  0  0
  1 25  1  0  0  0
  1 30  2  0  0  0
  1 87  1  0  0  0
  2  3  1  0  0  0
  2 25  1  0  0  0
  2 89  1  0  0  0
  2 90  1  0  0  0
  3  4  1  0  0  0
  3 91  1  0  0  0
  3 92  1  0  0  0
  4  5  1  0  0  0
  4 93  1  0  0  0
  4 94  1  0  0  0
  5  6  1  0  0  0
  5 26  1  0  0  0
  5 95  1  0  0  0
  6 25  1  0  0  0
  6 96  1  0  0  0
  6 97  1  0  0  0
  7  8  2  0  0  0
  7 26  1  0  0  0
  7 29  1  0  0  0
  8  9  1  0  0  0
  8 22  1  0  0  0
  9 10  1  0  0  0
  9 27  2  0  0  0
 10 11  2  0  0  0
 10 15  1  0  0  0
 11 12  1  0  0  0
 11 98  1  0  0  0
 12 13  2  0  0  0
 12 99  1  0  0  0
 13 14  1  0  0  0
 13 31  1  0  0  0
 14 15  2  0  0  0
 14100  1  0  0  0
 15101  1  0  0  0
 16 17  2  0  0  0
 16 21  1  0  0  0
 16 31  1  0  0  0
 17 18  1  0  0  0
 17102  1  0  0  0
 18 19  2  0  0  0
 18103  1  0  0  0
 19 20  1  0  0  0
 19 24  1  0  0  0
 20 21  2  0  0  0
 20104  1  0  0  0
 21 23  1  0  0  0
 22 28  1  0  0  0
 22 32  2  0  0  0
 26 27  1  0  0  0
 28105  1  0  0  0
 28106  1  0  0  0
 29107  1  0  0  0
 29108  1  0  0  0
 33 34  1  0  0  0
 33 66  1  0  0  0
 33 70  2  0  0  0
 34 36  1  0  0  0
 34 59  1  0  0  0
 34109  1  0  0  0
 35 44  2  0  0  0
 35 45  1  0  0  0
 35 68  1  0  0  0
 36 56  1  0  0  0
 36110  1  0  0  0
 37 39  1  0  0  0
 37 47  1  0  0  0
 37 66  1  0  0  0
 37111  1  0  0  0
 38 43  2  0  0  0
 38 46  1  0  0  0
 38 47  1  0  0  0
 39 64  1  0  0  0
 39 67  2  0  0  0
 40 52  1  0  0  0
 40 53  2  0  0  0
 40 58  1  0  0  0
 41112  1  0  0  0
 41113  1  0  0  0
 41114  1  0  0  0
 41 48  1  0  0  0
 42 43  1  0  0  0
 42 66  1  0  0  0
 42115  1  0  0  0
 42116  1  0  0  0
 43 44  1  0  0  0
 44117  1  0  0  0
 45 46  2  0  0  0
 45118  1  0  0  0
 46119  1  0  0  0
 47120  1  0  0  0
 47121  1  0  0  0
 48 56  1  0  0  0
 48 65  1  0  0  0
 48122  1  0  0  0
 49 50  1  0  0  0
 49 53  1  0  0  0
 49 64  1  0  0  0
 49123  1  0  0  0
 50 51  1  0  0  0
 50124  1  0  0  0
 50125  1  0  0  0
 51 52  1  0  0  0
 51126  1  0  0  0
 51127  1  0  0  0
 52128  1  0  0  0
 52129  1  0  0  0
 53 54  1  0  0  0
 54 55  2  0  0  0
 54130  1  0  0  0
 55 57  1  0  0  0
 55131  1  0  0  0
 56 69  2  0  0  0
 57 58  2  0  0  0
 57132  1  0  0  0
 58133  1  0  0  0
 59 60  1  0  0  0
 59 61  1  0  0  0
 59 62  1  0  0  0
 60134  1  0  0  0
 60135  1  0  0  0
 60136  1  0  0  0
 61137  1  0  0  0
 61138  1  0  0  0
 61139  1  0  0  0
 62140  1  0  0  0
 62141  1  0  0  0
 62142  1  0  0  0
 63 65  1  0  0  0
 63143  1  0  0  0
 63144  1  0  0  0
 63145  1  0  0  0
 64146  1  0  0  0
 65147  1  0  0  0
 68 82  1  0  0  0
 71 73  2  0  0  0
 71 74  1  0  0  0
 71148  1  0  0  0
 72 73  1  0  0  0
 72 75  2  0  0  0
 72149  1  0  0  0
 73 82  1  0  0  0
 74 76  2  0  0  0
 74 80  1  0  0  0
 75 76  1  0  0  0
 75 81  1  0  0  0
 76 86  1  0  0  0
 77150  1  0  0  0
 77151  1  0  0  0
 77152  1  0  0  0
 77 86  1  0  0  0
 78 86  1  0  0  0
 78153  1  0  0  0
 78154  1  0  0  0
 78155  1  0  0  0
 79 88  1  0  0  0
 79156  1  0  0  0
 79157  1  0  0  0
 79158  1  0  0  0
 80 83  1  0  0  0
 80159  1  0  0  0
 80160  1  0  0  0
 81 84  1  0  0  0
 81161  1  0  0  0
 81162  1  0  0  0
 82163  1  0  0  0
 82164  1  0  0  0
 83 85  1  0  0  0
 83165  1  0  0  0
 83166  1  0  0  0
 84 87  1  0  0  0
 84167  1  0  0  0
 84168  1  0  0  0
 85 88  1  0  0  0
 85169  1  0  0  0
 85170  1  0  0  0
 86171  1  0  0  0
 87172  1  0  0  0
 88173  1  0  0  0
 88174  1  0  0  0
M  CHG  1  88   1
M  ISO  4   1 100  68 101  82 101  87 100
M  END
> <chiral flag>
0

> <version>
0

> <s_m_source_file>
/data/baiqing/PycharmProjects/Reinvent-master-3.2/result/LINK_invent/BTK/process_docking_weight1_custom_sum_contain_oxygen_bond_distance_aromatic_linkinvent_7_9_3/rearranged_h_0100.sdf

> <i_m_source_file_index>
81

> <r_mmod_Potential_Energy-OPLS-2005>
447.550903320312

> <r_mmod_Stretch_Energy-OPLS-2005>
308.530639648438

> <r_mmod_Bend_Energy-OPLS-2005>
295.180450439453

> <r_mmod_Torsional_Energy-OPLS-2005>
244.487716674805

> <r_mmod_Improper_Torsional_Energy-OPLS-2005>
7.20760059356689

> <r_mmod_Van_der_Waal_Energy-OPLS-2005>
145.192276000977

> <r_mmod_Electrostatic_Energy-OPLS-2005>
-300.587066650391

> <r_mmod_Solvation_Energy-OPLS-2005>
-476.912414550781

> <b_mmod_Minimization_Converged-OPLS-2005>
0

> <r_mmod_RMS_Derivative-OPLS-2005>
3.57315802574158

$$$$
81
                    3D
 Structure written by MMmdl.
173181  0  0  1  0            999 V2000
  -30.6046  -14.9345   20.4112 C   0  0  0  0  0  0
  -30.4242  -12.5760   19.5356 C   0  0  0  0  0  0
  -29.5557  -12.5327   18.2528 C   0  0  0  0  0  0
  -28.0483  -12.7748   18.5204 C   0  0  0  0  0  0
  -27.7219  -12.7789   20.0162 C   0  0  2  0  0  0
  -28.6769  -13.4195   21.0275 C   0  0  0  0  0  0
  -25.3100  -13.7516   20.5352 C   0  0  0  0  0  0
  -24.1910  -13.0407   20.9026 C   0  0  0  0  0  0
  -24.5813  -11.6697   20.8866 C   0  0  0  0  0  0
  -23.8466  -10.4243   21.0622 C   0  0  0  0  0  0
  -24.3180   -9.4186   21.9364 C   0  0  0  0  0  0
  -23.6006   -8.2151   22.0822 C   0  0  0  0  0  0
  -22.4051   -8.0164   21.3548 C   0  0  0  0  0  0
  -21.9611   -9.0115   20.4658 C   0  0  0  0  0  0
  -22.6770  -10.2067   20.3144 C   0  0  0  0  0  0
  -21.6771   -6.0654   22.5269 C   0  0  0  0  0  0
  -21.3982   -6.5585   23.8199 C   0  0  0  0  0  0
  -21.3611   -5.6753   24.9175 C   0  0  0  0  0  0
  -21.6011   -4.3022   24.7257 C   0  0  0  0  0  0
  -21.8833   -3.8107   23.4394 C   0  0  0  0  0  0
  -21.9145   -4.6898   22.3418 C   0  0  0  0  0  0
  -22.8059  -13.5606   21.1687 C   0  0  0  0  0  0
  -22.1638   -4.2082   21.1013 F   0  0  0  0  0  0
  -21.5649   -3.4519   25.7790 F   0  0  0  0  0  0
  -29.9682  -13.7077   20.3915 N   0  0  0  0  0  0
  -26.3101  -12.7890   20.3714 N   0  0  0  0  0  0
  -25.8481  -11.5533   20.5962 N   0  0  0  0  0  0
  -22.0528  -12.8762   22.0248 N   0  0  0  0  0  0
  -25.5494  -15.1028   20.3132 N   0  0  0  0  0  0
  -31.7788  -14.9910   20.0356 O   0  0  0  0  0  0
  -21.6506   -6.8733   21.4195 O   0  0  0  0  0  0
  -22.3916  -14.5927   20.6489 O   0  0  0  0  0  0
  -24.6404  -31.8480   23.1963 C   0  0  0  0  0  0
  -25.9208  -32.4711   23.8322 C   0  0  1  0  0  0
  -27.2062  -27.1724   20.1393 C   0  0  0  0  0  0
  -25.5969  -33.8525   24.2235 N   0  0  0  0  0  0
  -23.4403  -30.4753   21.5411 C   0  0  2  0  0  0
  -24.8904  -28.9210   20.1091 C   0  0  0  0  0  0
  -22.7544  -29.4574   22.4882 C   0  0  0  0  0  0
  -18.0304  -28.1390   22.8483 C   0  0  0  0  0  0
  -24.1488  -36.7257   23.2643 C   0  0  0  0  0  0
  -25.9986  -30.7327   21.3944 C   0  0  0  0  0  0
  -26.0691  -29.3528   20.7299 C   0  0  0  0  0  0
  -27.2300  -28.4932   20.7363 C   0  0  0  0  0  0
  -26.0033  -26.8584   19.4558 C   0  0  0  0  0  0
  -24.8681  -27.6859   19.4564 C   0  0  0  0  0  0
  -23.6647  -29.8166   20.1567 C   0  0  0  0  0  0
  -25.4121  -36.3053   24.0323 C   0  0  1  0  0  0
  -20.5909  -28.3722   23.1227 C   0  0  2  0  0  0
  -20.6794  -26.9428   22.5396 C   0  0  0  0  0  0
  -19.5776  -26.6380   21.5204 C   0  0  0  0  0  0
  -18.1954  -26.7925   22.1624 C   0  0  0  0  0  0
  -19.1561  -28.8874   23.2843 C   0  0  0  0  0  0
  -18.9487  -30.1463   23.8876 C   0  0  0  0  0  0
  -17.6486  -30.6589   24.0557 C   0  0  0  0  0  0
  -25.9070  -34.9419   23.5079 C   0  0  0  0  0  0
  -16.5370  -29.9081   23.6339 C   0  0  0  0  0  0
  -16.7287  -28.6495   23.0366 C   0  0  0  0  0  0
  -26.4531  -31.6567   25.0744 C   0  0  0  0  0  0
  -25.3713  -31.3759   26.1438 C   0  0  0  0  0  0
  -27.0390  -30.2960   24.6311 C   0  0  0  0  0  0
  -27.6066  -32.4335   25.7526 C   0  0  0  0  0  0
  -27.5574  -37.1789   24.8471 C   0  0  0  0  0  0
  -21.4244  -29.3047   22.3616 N   0  0  0  0  0  0
  -26.4293  -37.3757   23.9402 N   0  0  0  0  0  0
  -24.7126  -31.0369   22.0988 N   0  0  0  0  0  0
  -23.4200  -28.8100   23.3008 O   0  0  0  0  0  0
  -28.2293  -26.1605   20.2364 O   0  0  0  0  0  0
  -26.5654  -34.8919   22.4653 O   0  0  0  0  0  0
  -23.5534  -32.1353   23.7198 O   0  0  0  0  0  0
  -29.8159  -22.9335   20.6148 C   0  0  0  0  0  0
  -30.2620  -21.5709   20.8275 C   0  0  0  0  0  0
  -28.4658  -23.2448   20.2638 C   0  0  0  0  0  0
  -29.4048  -20.4289   20.6900 C   0  0  0  0  0  0
  -27.6865  -22.0303   20.1188 C   0  0  0  0  0  0
  -25.3168  -21.7195   20.9583 C   0  0  0  0  0  0
  -25.8919  -21.1420   18.5446 C   0  0  0  0  0  0
  -25.7241  -16.7587   23.5539 C   0  0  0  0  0  0
  -27.1735  -18.2514   24.9660 C   0  0  0  0  0  0
  -27.7868  -24.7097   19.9733 C   0  0  0  0  0  0
  -29.0954  -18.5172   22.4968 C   0  0  0  0  0  0
  -27.6224  -18.0484   22.4305 C   0  0  0  0  0  0
  -29.9679  -17.5844   20.1659 C   0  0  0  0  0  0
  -29.7804  -18.9006   21.1569 C   0  0  1  0  0  0
  -26.1993  -22.0552   19.7456 C   0  0  0  0  0  0
  -27.1329  -17.3461   23.7237 C   0  0  0  0  0  0
  -28.1322  -20.7358   20.3315 N   0  0  0  0  0  0
  -29.8566  -16.1005   20.6490 N   0  0  0  0  0  0
  -31.4831  -12.6491   19.2775 H   0  0  0  0  0  0
  -30.3333  -11.6446   20.0919 H   0  0  0  0  0  0
  -29.6994  -11.5721   17.7557 H   0  0  0  0  0  0
  -29.9196  -13.2855   17.5515 H   0  0  0  0  0  0
  -27.4448  -12.0293   17.9997 H   0  0  0  0  0  0
  -27.7595  -13.7390   18.1012 H   0  0  0  0  0  0
  -28.0266  -11.7444   20.1962 H   0  0  0  0  0  0
  -28.8308  -12.7559   21.8785 H   0  0  0  0  0  0
  -28.2209  -14.3184   21.4431 H   0  0  0  0  0  0
  -25.2326   -9.5726   22.4920 H   0  0  0  0  0  0
  -23.9772   -7.4546   22.7519 H   0  0  0  0  0  0
  -21.0594   -8.8483   19.8918 H   0  0  0  0  0  0
  -22.3246  -10.9589   19.6224 H   0  0  0  0  0  0
  -21.2017   -7.6104   23.9700 H   0  0  0  0  0  0
  -21.1388   -6.0493   25.9038 H   0  0  0  0  0  0
  -22.0667   -2.7586   23.2910 H   0  0  0  0  0  0
  -22.3902  -12.0339   22.4681 H   0  0  0  0  0  0
  -21.1283  -13.2134   22.2559 H   0  0  0  0  0  0
  -24.8189  -15.8044   20.3382 H   0  0  0  0  0  0
  -26.4154  -15.4459   19.9234 H   0  0  0  0  0  0
  -26.7255  -32.5327   23.1040 H   0  0  0  0  0  0
  -25.0081  -33.9636   25.0364 H   0  0  0  0  0  0
  -22.7417  -31.3027   21.3944 H   0  0  0  0  0  0
  -23.3759  -35.9580   23.3315 H   0  0  0  0  0  0
  -24.3575  -36.8870   22.2053 H   0  0  0  0  0  0
  -23.7238  -37.6458   23.6665 H   0  0  0  0  0  0
  -26.1571  -31.4916   20.6265 H   0  0  0  0  0  0
  -26.8682  -30.7715   22.0388 H   0  0  0  0  0  0
  -28.1210  -28.8127   21.2583 H   0  0  0  0  0  0
  -25.8762  -25.9293   18.9223 H   0  0  0  0  0  0
  -23.9731  -27.3548   18.9450 H   0  0  0  0  0  0
  -23.7969  -30.5962   19.4055 H   0  0  0  0  0  0
  -22.7782  -29.2591   19.8461 H   0  0  0  0  0  0
  -25.1308  -36.1888   25.0814 H   0  0  0  0  0  0
  -21.0016  -28.3312   24.1344 H   0  0  0  0  0  0
  -20.5686  -26.2333   23.3618 H   0  0  0  0  0  0
  -21.6656  -26.7429   22.1196 H   0  0  0  0  0  0
  -19.6925  -25.6284   21.1249 H   0  0  0  0  0  0
  -19.6694  -27.3184   20.6729 H   0  0  0  0  0  0
  -17.4210  -26.6669   21.4033 H   0  0  0  0  0  0
  -18.0352  -26.0064   22.9023 H   0  0  0  0  0  0
  -19.7961  -30.7285   24.2237 H   0  0  0  0  0  0
  -17.5038  -31.6274   24.5158 H   0  0  0  0  0  0
  -15.5372  -30.2981   23.7673 H   0  0  0  0  0  0
  -15.8690  -28.0806   22.7099 H   0  0  0  0  0  0
  -24.5901  -30.7086   25.7766 H   0  0  0  0  0  0
  -24.8890  -32.2939   26.4805 H   0  0  0  0  0  0
  -25.7997  -30.8978   27.0252 H   0  0  0  0  0  0
  -26.2997  -29.6691   24.1293 H   0  0  0  0  0  0
  -27.3971  -29.7255   25.4891 H   0  0  0  0  0  0
  -27.8934  -30.4203   23.9652 H   0  0  0  0  0  0
  -27.2653  -33.3656   26.2049 H   0  0  0  0  0  0
  -28.3905  -32.6851   25.0369 H   0  0  0  0  0  0
  -28.0692  -31.8486   26.5485 H   0  0  0  0  0  0
  -28.2602  -38.0076   24.7509 H   0  0  0  0  0  0
  -28.1059  -36.2605   24.6316 H   0  0  0  0  0  0
  -27.2286  -37.1464   25.8875 H   0  0  0  0  0  0
  -20.9462  -29.8756   21.6803 H   0  0  0  0  0  0
  -26.0164  -38.2826   24.1405 H   0  0  0  0  0  0
  -30.5235  -23.7413   20.7420 H   0  0  0  0  0  0
  -31.2875  -21.4161   21.1398 H   0  0  0  0  0  0
  -25.4989  -22.4230   21.7703 H   0  0  0  0  0  0
  -25.5220  -20.7177   21.3330 H   0  0  0  0  0  0
  -24.2584  -21.7636   20.7058 H   0  0  0  0  0  0
  -26.4928  -21.4229   17.6793 H   0  0  0  0  0  0
  -24.8404  -21.2007   18.2646 H   0  0  0  0  0  0
  -26.1062  -20.0964   18.7632 H   0  0  0  0  0  0
  -25.4386  -16.1507   24.4154 H   0  0  0  0  0  0
  -25.6726  -16.1069   22.6860 H   0  0  0  0  0  0
  -24.9749  -17.5424   23.4307 H   0  0  0  0  0  0
  -26.7554  -17.7481   25.8410 H   0  0  0  0  0  0
  -26.5999  -19.1651   24.8083 H   0  0  0  0  0  0
  -28.1930  -18.5368   25.2248 H   0  0  0  0  0  0
  -26.8470  -24.6334   20.5185 H   0  0  0  0  0  0
  -27.5641  -24.6591   18.9084 H   0  0  0  0  0  0
  -29.6866  -17.7182   22.9484 H   0  0  0  0  0  0
  -29.1783  -19.3618   23.1831 H   0  0  0  0  0  0
  -27.5090  -17.3567   21.5954 H   0  0  0  0  0  0
  -26.9745  -18.8945   22.1992 H   0  0  0  0  0  0
  -30.9056  -17.6920   19.6153 H   0  0  0  0  0  0
  -29.1996  -17.6807   19.3987 H   0  0  0  0  0  0
  -30.8083  -19.0650   21.4809 H   0  0  0  0  0  0
  -25.9124  -23.0502   19.4127 H   0  0  0  0  0  0
  -27.7978  -16.5022   23.9178 H   0  0  0  0  0  0
  -28.9330  -15.8862   21.0000 H   0  0  0  0  0  0
  1 25  1  0  0  0
  1 30  2  0  0  0
  1 88  1  0  0  0
  2  3  1  0  0  0
  2 25  1  0  0  0
  2 89  1  0  0  0
  2 90  1  0  0  0
  3  4  1  0  0  0
  3 91  1  0  0  0
  3 92  1  0  0  0
  4  5  1  0  0  0
  4 93  1  0  0  0
  4 94  1  0  0  0
  5  6  1  0  0  0
  5 26  1  0  0  0
  5 95  1  0  0  0
  6 25  1  0  0  0
  6 96  1  0  0  0
  6 97  1  0  0  0
  7  8  2  0  0  0
  7 26  1  0  0  0
  7 29  1  0  0  0
  8  9  1  0  0  0
  8 22  1  0  0  0
  9 10  1  0  0  0
  9 27  2  0  0  0
 10 11  2  0  0  0
 10 15  1  0  0  0
 11 12  1  0  0  0
 11 98  1  0  0  0
 12 13  2  0  0  0
 12 99  1  0  0  0
 13 14  1  0  0  0
 13 31  1  0  0  0
 14 15  2  0  0  0
 14100  1  0  0  0
 15101  1  0  0  0
 16 17  2  0  0  0
 16 21  1  0  0  0
 16 31  1  0  0  0
 17 18  1  0  0  0
 17102  1  0  0  0
 18 19  2  0  0  0
 18103  1  0  0  0
 19 20  1  0  0  0
 19 24  1  0  0  0
 20 21  2  0  0  0
 20104  1  0  0  0
 21 23  1  0  0  0
 22 28  1  0  0  0
 22 32  2  0  0  0
 26 27  1  0  0  0
 28105  1  0  0  0
 28106  1  0  0  0
 29107  1  0  0  0
 29108  1  0  0  0
 33 34  1  0  0  0
 33 66  1  0  0  0
 33 70  2  0  0  0
 34 36  1  0  0  0
 34 59  1  0  0  0
 34109  1  0  0  0
 35 44  2  0  0  0
 35 45  1  0  0  0
 35 68  1  0  0  0
 36 56  1  0  0  0
 36110  1  0  0  0
 37 39  1  0  0  0
 37 47  1  0  0  0
 37 66  1  0  0  0
 37111  1  0  0  0
 38 43  2  0  0  0
 38 46  1  0  0  0
 38 47  1  0  0  0
 39 64  1  0  0  0
 39 67  2  0  0  0
 40 52  1  0  0  0
 40 53  2  0  0  0
 40 58  1  0  0  0
 41112  1  0  0  0
 41113  1  0  0  0
 41114  1  0  0  0
 41 48  1  0  0  0
 42 43  1  0  0  0
 42 66  1  0  0  0
 42115  1  0  0  0
 42116  1  0  0  0
 43 44  1  0  0  0
 44117  1  0  0  0
 45 46  2  0  0  0
 45118  1  0  0  0
 46119  1  0  0  0
 47120  1  0  0  0
 47121  1  0  0  0
 48 56  1  0  0  0
 48 65  1  0  0  0
 48122  1  0  0  0
 49 50  1  0  0  0
 49 53  1  0  0  0
 49 64  1  0  0  0
 49123  1  0  0  0
 50 51  1  0  0  0
 50124  1  0  0  0
 50125  1  0  0  0
 51 52  1  0  0  0
 51126  1  0  0  0
 51127  1  0  0  0
 52128  1  0  0  0
 52129  1  0  0  0
 53 54  1  0  0  0
 54 55  2  0  0  0
 54130  1  0  0  0
 55 57  1  0  0  0
 55131  1  0  0  0
 56 69  2  0  0  0
 57 58  2  0  0  0
 57132  1  0  0  0
 58133  1  0  0  0
 59 60  1  0  0  0
 59 61  1  0  0  0
 59 62  1  0  0  0
 60134  1  0  0  0
 60135  1  0  0  0
 60136  1  0  0  0
 61137  1  0  0  0
 61138  1  0  0  0
 61139  1  0  0  0
 62140  1  0  0  0
 62141  1  0  0  0
 62142  1  0  0  0
 63 65  1  0  0  0
 63143  1  0  0  0
 63144  1  0  0  0
 63145  1  0  0  0
 64146  1  0  0  0
 65147  1  0  0  0
 68 80  1  0  0  0
 71 72  2  0  0  0
 71 73  1  0  0  0
 71148  1  0  0  0
 72 74  1  0  0  0
 72149  1  0  0  0
 73 75  2  0  0  0
 73 80  1  0  0  0
 74 84  1  0  0  0
 74 87  2  0  0  0
 75 85  1  0  0  0
 75 87  1  0  0  0
 76150  1  0  0  0
 76151  1  0  0  0
 76152  1  0  0  0
 76 85  1  0  0  0
 77 85  1  0  0  0
 77153  1  0  0  0
 77154  1  0  0  0
 77155  1  0  0  0
 78156  1  0  0  0
 78157  1  0  0  0
 78158  1  0  0  0
 78 86  1  0  0  0
 79 86  1  0  0  0
 79159  1  0  0  0
 79160  1  0  0  0
 79161  1  0  0  0
 80162  1  0  0  0
 80163  1  0  0  0
 81 82  1  0  0  0
 81164  1  0  0  0
 81165  1  0  0  0
 81 84  1  0  0  0
 82 86  1  0  0  0
 82166  1  0  0  0
 82167  1  0  0  0
 83 84  1  0  0  0
 83 88  1  0  0  0
 83168  1  0  0  0
 83169  1  0  0  0
 84170  1  0  0  0
 85171  1  0  0  0
 86172  1  0  0  0
 88173  1  0  0  0
M  ISO  4   1 100  68 101  80 101  88 100
M  END
> <chiral flag>
0

> <version>
0

> <s_m_source_file>
/data/baiqing/PycharmProjects/Reinvent-master-3.2/result/LINK_invent/BTK/process_docking_weight1_custom_sum_contain_oxygen_bond_distance_aromatic_linkinvent_7_9_3/rearranged_h_0100.sdf

> <i_m_source_file_index>
82

> <r_mmod_Potential_Energy-OPLS-2005>
414.350402832031

> <r_mmod_Stretch_Energy-OPLS-2005>
193.798980712891

> <r_mmod_Bend_Energy-OPLS-2005>
310.681762695312

> <r_mmod_Torsional_Energy-OPLS-2005>
237.026962280273

> <r_mmod_Improper_Torsional_Energy-OPLS-2005>
6.63119411468506

> <r_mmod_Van_der_Waal_Energy-OPLS-2005>
145.791015625

> <r_mmod_Electrostatic_Energy-OPLS-2005>
-516.357604980469

> <r_mmod_Solvation_Energy-OPLS-2005>
-201.432495117188

> <b_mmod_Minimization_Converged-OPLS-2005>
0

> <r_mmod_RMS_Derivative-OPLS-2005>
4.72056579589844

$$$$
82
                    3D
 Structure written by MMmdl.
183191  0  0  1  0            999 V2000
  -30.6421  -14.5358   20.5278 C   0  0  0  0  0  0
  -30.4285  -12.3203   19.4534 C   0  0  0  0  0  0
  -29.5180  -12.5122   18.2229 C   0  0  0  0  0  0
  -28.0317  -12.3772   18.6169 C   0  0  0  0  0  0
  -27.6628  -13.2119   19.8725 C   0  0  2  0  0  0
  -28.6981  -13.0133   21.0047 C   0  0  0  0  0  0
  -25.2647  -13.8172   20.5674 C   0  0  0  0  0  0
  -24.1902  -13.0444   20.9213 C   0  0  0  0  0  0
  -24.6446  -11.6908   20.8713 C   0  0  0  0  0  0
  -23.9111  -10.4294   21.0363 C   0  0  0  0  0  0
  -24.3663   -9.4220   21.9158 C   0  0  0  0  0  0
  -23.6328   -8.2266   22.0741 C   0  0  0  0  0  0
  -22.4309   -8.0310   21.3526 C   0  0  0  0  0  0
  -21.9934   -9.0293   20.4646 C   0  0  0  0  0  0
  -22.7274  -10.2166   20.3047 C   0  0  0  0  0  0
  -21.6865   -6.0757   22.5289 C   0  0  0  0  0  0
  -21.4018   -6.5662   23.8229 C   0  0  0  0  0  0
  -21.3646   -5.6810   24.9188 C   0  0  0  0  0  0
  -21.6042   -4.3074   24.7222 C   0  0  0  0  0  0
  -21.8822   -3.8172   23.4343 C   0  0  0  0  0  0
  -21.9200   -4.6981   22.3406 C   0  0  0  0  0  0
  -22.7941  -13.5247   21.1875 C   0  0  0  0  0  0
  -22.1678   -4.2186   21.0971 F   0  0  0  0  0  0
  -21.5608   -3.4543   25.7715 F   0  0  0  0  0  0
  -30.0266  -13.3226   20.4573 N   0  0  0  0  0  0
  -26.3048  -12.9327   20.3284 N   0  0  0  0  0  0
  -25.9366  -11.6491   20.5705 N   0  0  0  0  0  0
  -22.0586  -12.8216   22.0418 N   0  0  0  0  0  0
  -25.4397  -15.1871   20.4097 N   0  0  0  0  0  0
  -31.7808  -14.7301   20.0932 O   0  0  0  0  0  0
  -21.6665   -6.8896   21.4247 O   0  0  0  0  0  0
  -22.3608  -14.5566   20.6744 O   0  0  0  0  0  0
  -24.6195  -31.8628   23.2069 C   0  0  0  0  0  0
  -25.9075  -32.4768   23.8376 C   0  0  1  0  0  0
  -27.2311  -27.3835   20.1067 C   0  0  0  0  0  0
  -25.5937  -33.8573   24.2288 N   0  0  0  0  0  0
  -23.4070  -30.4853   21.5514 C   0  0  2  0  0  0
  -24.8486  -28.9388   20.1213 C   0  0  0  0  0  0
  -22.7435  -29.4612   22.4997 C   0  0  0  0  0  0
  -18.0289  -28.1411   22.8469 C   0  0  0  0  0  0
  -24.1513  -36.7308   23.2626 C   0  0  0  0  0  0
  -25.9394  -30.8153   21.3617 C   0  0  0  0  0  0
  -26.0149  -29.4463   20.7070 C   0  0  0  0  0  0
  -27.2081  -28.6824   20.6844 C   0  0  0  0  0  0
  -26.0386  -26.8890   19.5369 C   0  0  0  0  0  0
  -24.8575  -27.6593   19.5393 C   0  0  0  0  0  0
  -23.6154  -29.8134   20.1694 C   0  0  0  0  0  0
  -25.4121  -36.3055   24.0311 C   0  0  1  0  0  0
  -20.5917  -28.3547   23.1263 C   0  0  2  0  0  0
  -20.6782  -26.9346   22.5226 C   0  0  0  0  0  0
  -19.5704  -26.6399   21.5072 C   0  0  0  0  0  0
  -18.1882  -26.8017   22.1470 C   0  0  0  0  0  0
  -19.1595  -28.8760   23.2955 C   0  0  0  0  0  0
  -18.9579  -30.1346   23.9018 C   0  0  0  0  0  0
  -17.6618  -30.6574   24.0659 C   0  0  0  0  0  0
  -25.9052  -34.9433   23.5077 C   0  0  0  0  0  0
  -16.5462  -29.9165   23.6393 C   0  0  0  0  0  0
  -16.7297  -28.6589   23.0338 C   0  0  0  0  0  0
  -26.4471  -31.6560   25.0727 C   0  0  0  0  0  0
  -25.3724  -31.3745   26.1476 C   0  0  0  0  0  0
  -27.0290  -30.2978   24.6150 C   0  0  0  0  0  0
  -27.6035  -32.4278   25.7512 C   0  0  0  0  0  0
  -27.5579  -37.1800   24.8445 C   0  0  0  0  0  0
  -21.4180  -29.2925   22.3684 N   0  0  0  0  0  0
  -26.4296  -37.3752   23.9373 N   0  0  0  0  0  0
  -24.6751  -31.0688   22.0996 N   0  0  0  0  0  0
  -23.4176  -28.8222   23.3107 O   0  0  0  0  0  0
  -28.4145  -26.6539   20.1064 O   0  0  0  0  0  0
  -26.5613  -34.8878   22.4645 O   0  0  0  0  0  0
  -23.5388  -32.1433   23.7441 O   0  0  0  0  0  0
  -27.5091  -24.6404   23.6125 C   0  0  0  0  0  0
  -26.7395  -23.4741   23.5533 C   0  0  0  0  0  0
  -28.0639  -25.1372   22.4296 C   0  0  0  0  0  0
  -26.6509  -22.7268   22.3567 C   0  0  0  0  0  0
  -28.0047  -24.4021   21.2247 C   0  0  0  0  0  0
  -27.5330  -23.0277   21.2617 C   0  0  0  0  0  0
  -20.4711  -21.0400   22.8193 C   0  0  0  0  0  0
  -21.4695  -23.0750   23.9432 C   0  0  0  0  0  0
  -26.9662  -21.5319   19.2251 C   0  0  0  0  0  0
  -29.3140  -22.2730   19.5318 C   0  0  0  0  0  0
  -25.4827  -21.7345   22.2264 C   0  0  0  0  0  0
  -28.4364  -25.1980   19.9700 C   0  0  0  0  0  0
  -24.2462  -22.0637   23.0935 C   0  0  0  0  0  0
  -22.9299  -21.5071   22.5201 C   0  0  0  0  0  0
  -29.9438  -16.9612   20.3562 C   0  0  0  0  0  0
  -29.0572  -18.0446   21.0757 C   0  0  0  0  0  0
  -28.4073  -20.5342   21.1160 C   0  0  0  0  0  0
  -21.7262  -21.6294   23.4794 C   0  0  0  0  0  0
  -28.0311  -21.8615   20.2954 C   0  0  0  0  0  0
  -29.8333  -15.5697   20.8738 N   0  0  0  0  0  0
  -28.9819  -19.3670   20.3542 N   0  3  0  0  0  0
  -31.4762  -12.4141   19.1666 H   0  0  0  0  0  0
  -30.3127  -11.3127   19.8549 H   0  0  0  0  0  0
  -29.7739  -11.7822   17.4552 H   0  0  0  0  0  0
  -29.7018  -13.4944   17.7836 H   0  0  0  0  0  0
  -27.8391  -11.3203   18.8053 H   0  0  0  0  0  0
  -27.3950  -12.6562   17.7777 H   0  0  0  0  0  0
  -27.7019  -14.2588   19.5770 H   0  0  0  0  0  0
  -28.6682  -11.9899   21.3782 H   0  0  0  0  0  0
  -28.4599  -13.6344   21.8685 H   0  0  0  0  0  0
  -25.2816   -9.5715   22.4723 H   0  0  0  0  0  0
  -24.0051   -7.4675   22.7476 H   0  0  0  0  0  0
  -21.0857   -8.8834   19.8977 H   0  0  0  0  0  0
  -22.3732  -10.9717   19.6177 H   0  0  0  0  0  0
  -21.2023   -7.6183   23.9725 H   0  0  0  0  0  0
  -21.1445   -6.0544   25.9083 H   0  0  0  0  0  0
  -22.0599   -2.7638   23.2841 H   0  0  0  0  0  0
  -22.4215  -11.9857   22.4775 H   0  0  0  0  0  0
  -21.1214  -13.1239   22.2633 H   0  0  0  0  0  0
  -24.6710  -15.8389   20.5284 H   0  0  0  0  0  0
  -26.2510  -15.6038   19.9726 H   0  0  0  0  0  0
  -26.7143  -32.5421   23.1137 H   0  0  0  0  0  0
  -25.0086  -33.9772   25.0423 H   0  0  0  0  0  0
  -22.6980  -31.3012   21.4116 H   0  0  0  0  0  0
  -23.3735  -35.9688   23.3288 H   0  0  0  0  0  0
  -24.3609  -36.8939   22.2043 H   0  0  0  0  0  0
  -23.7322  -37.6533   23.6655 H   0  0  0  0  0  0
  -26.0537  -31.5839   20.5962 H   0  0  0  0  0  0
  -26.8265  -30.8666   21.9835 H   0  0  0  0  0  0
  -28.1074  -29.0861   21.1267 H   0  0  0  0  0  0
  -25.9963  -25.9048   19.0981 H   0  0  0  0  0  0
  -23.9550  -27.2479   19.1103 H   0  0  0  0  0  0
  -23.7178  -30.5904   19.4107 H   0  0  0  0  0  0
  -22.7382  -29.2337   19.8760 H   0  0  0  0  0  0
  -25.1305  -36.1906   25.0808 H   0  0  0  0  0  0
  -21.0088  -28.2985   24.1358 H   0  0  0  0  0  0
  -20.5799  -26.2107   23.3326 H   0  0  0  0  0  0
  -21.6617  -26.7550   22.0840 H   0  0  0  0  0  0
  -19.6859  -25.6335   21.1037 H   0  0  0  0  0  0
  -19.6639  -27.3171   20.6564 H   0  0  0  0  0  0
  -17.4182  -26.6932   21.3821 H   0  0  0  0  0  0
  -18.0146  -26.0076   22.8741 H   0  0  0  0  0  0
  -19.8101  -30.7061   24.2454 H   0  0  0  0  0  0
  -17.5290  -31.6265   24.5303 H   0  0  0  0  0  0
  -15.5488  -30.3166   23.7659 H   0  0  0  0  0  0
  -15.8659  -28.1071   22.6920 H   0  0  0  0  0  0
  -24.5890  -30.7072   25.7861 H   0  0  0  0  0  0
  -24.8925  -32.2947   26.4825 H   0  0  0  0  0  0
  -25.8078  -30.9005   27.0280 H   0  0  0  0  0  0
  -26.2882  -29.6776   24.1094 H   0  0  0  0  0  0
  -27.3919  -29.7155   25.4627 H   0  0  0  0  0  0
  -27.8760  -30.4250   23.9406 H   0  0  0  0  0  0
  -27.2624  -33.3560   26.2103 H   0  0  0  0  0  0
  -28.3861  -32.6860   25.0366 H   0  0  0  0  0  0
  -28.0664  -31.8372   26.5437 H   0  0  0  0  0  0
  -28.2567  -38.0122   24.7458 H   0  0  0  0  0  0
  -28.1107  -36.2639   24.6295 H   0  0  0  0  0  0
  -27.2286  -37.1451   25.8850 H   0  0  0  0  0  0
  -20.9334  -29.8559   21.6834 H   0  0  0  0  0  0
  -26.0165  -38.2829   24.1357 H   0  0  0  0  0  0
  -27.5639  -25.2078   24.5299 H   0  0  0  0  0  0
  -26.1687  -23.2016   24.4299 H   0  0  0  0  0  0
  -28.5257  -26.1157   22.4473 H   0  0  0  0  0  0
  -19.6127  -21.0888   23.4888 H   0  0  0  0  0  0
  -20.6103  -19.9896   22.5541 H   0  0  0  0  0  0
  -20.2129  -21.5827   21.9084 H   0  0  0  0  0  0
  -20.5855  -23.1324   24.5826 H   0  0  0  0  0  0
  -21.3221  -23.7491   23.0968 H   0  0  0  0  0  0
  -22.3036  -23.4573   24.5314 H   0  0  0  0  0  0
  -26.5696  -22.4340   18.7603 H   0  0  0  0  0  0
  -26.1256  -20.9611   19.6047 H   0  0  0  0  0  0
  -27.3836  -20.9204   18.4263 H   0  0  0  0  0  0
  -29.1125  -22.9850   18.7334 H   0  0  0  0  0  0
  -29.7947  -21.4335   19.0317 H   0  0  0  0  0  0
  -30.0539  -22.6999   20.2059 H   0  0  0  0  0  0
  -25.7713  -20.7023   22.4110 H   0  0  0  0  0  0
  -25.1349  -21.8135   21.2015 H   0  0  0  0  0  0
  -27.8862  -24.8688   19.0898 H   0  0  0  0  0  0
  -29.4827  -24.9608   19.7797 H   0  0  0  0  0  0
  -24.1265  -23.1462   23.1537 H   0  0  0  0  0  0
  -24.4037  -21.7102   24.1124 H   0  0  0  0  0  0
  -23.0682  -20.4571   22.2548 H   0  0  0  0  0  0
  -22.7059  -22.0288   21.5870 H   0  0  0  0  0  0
  -30.9880  -17.2722   20.3918 H   0  0  0  0  0  0
  -29.6748  -16.9175   19.2998 H   0  0  0  0  0  0
  -29.4622  -18.2075   22.0753 H   0  0  0  0  0  0
  -28.0425  -17.6656   21.2162 H   0  0  0  0  0  0
  -27.5422  -20.1276   21.6196 H   0  0  0  0  0  0
  -29.1098  -20.7911   21.9095 H   0  0  0  0  0  0
  -21.9392  -21.0290   24.3669 H   0  0  0  0  0  0
  -28.9452  -15.3005   21.2710 H   0  0  0  0  0  0
  -28.4205  -19.2250   19.5319 H   0  0  0  0  0  0
  -29.9071  -19.6218   20.0502 H   0  0  0  0  0  0
  1 25  1  0  0  0
  1 30  2  0  0  0
  1 90  1  0  0  0
  2  3  1  0  0  0
  2 25  1  0  0  0
  2 92  1  0  0  0
  2 93  1  0  0  0
  3  4  1  0  0  0
  3 94  1  0  0  0
  3 95  1  0  0  0
  4  5  1  0  0  0
  4 96  1  0  0  0
  4 97  1  0  0  0
  5  6  1  0  0  0
  5 26  1  0  0  0
  5 98  1  0  0  0
  6 25  1  0  0  0
  6 99  1  0  0  0
  6100  1  0  0  0
  7  8  2  0  0  0
  7 26  1  0  0  0
  7 29  1  0  0  0
  8  9  1  0  0  0
  8 22  1  0  0  0
  9 10  1  0  0  0
  9 27  2  0  0  0
 10 11  2  0  0  0
 10 15  1  0  0  0
 11 12  1  0  0  0
 11101  1  0  0  0
 12 13  2  0  0  0
 12102  1  0  0  0
 13 14  1  0  0  0
 13 31  1  0  0  0
 14 15  2  0  0  0
 14103  1  0  0  0
 15104  1  0  0  0
 16 17  2  0  0  0
 16 21  1  0  0  0
 16 31  1  0  0  0
 17 18  1  0  0  0
 17105  1  0  0  0
 18 19  2  0  0  0
 18106  1  0  0  0
 19 20  1  0  0  0
 19 24  1  0  0  0
 20 21  2  0  0  0
 20107  1  0  0  0
 21 23  1  0  0  0
 22 28  1  0  0  0
 22 32  2  0  0  0
 26 27  1  0  0  0
 28108  1  0  0  0
 28109  1  0  0  0
 29110  1  0  0  0
 29111  1  0  0  0
 33 34  1  0  0  0
 33 66  1  0  0  0
 33 70  2  0  0  0
 34 36  1  0  0  0
 34 59  1  0  0  0
 34112  1  0  0  0
 35 44  2  0  0  0
 35 45  1  0  0  0
 35 68  1  0  0  0
 36 56  1  0  0  0
 36113  1  0  0  0
 37 39  1  0  0  0
 37 47  1  0  0  0
 37 66  1  0  0  0
 37114  1  0  0  0
 38 43  2  0  0  0
 38 46  1  0  0  0
 38 47  1  0  0  0
 39 64  1  0  0  0
 39 67  2  0  0  0
 40 52  1  0  0  0
 40 53  2  0  0  0
 40 58  1  0  0  0
 41115  1  0  0  0
 41116  1  0  0  0
 41117  1  0  0  0
 41 48  1  0  0  0
 42 43  1  0  0  0
 42 66  1  0  0  0
 42118  1  0  0  0
 42119  1  0  0  0
 43 44  1  0  0  0
 44120  1  0  0  0
 45 46  2  0  0  0
 45121  1  0  0  0
 46122  1  0  0  0
 47123  1  0  0  0
 47124  1  0  0  0
 48 56  1  0  0  0
 48 65  1  0  0  0
 48125  1  0  0  0
 49 50  1  0  0  0
 49 53  1  0  0  0
 49 64  1  0  0  0
 49126  1  0  0  0
 50 51  1  0  0  0
 50127  1  0  0  0
 50128  1  0  0  0
 51 52  1  0  0  0
 51129  1  0  0  0
 51130  1  0  0  0
 52131  1  0  0  0
 52132  1  0  0  0
 53 54  1  0  0  0
 54 55  2  0  0  0
 54133  1  0  0  0
 55 57  1  0  0  0
 55134  1  0  0  0
 56 69  2  0  0  0
 57 58  2  0  0  0
 57135  1  0  0  0
 58136  1  0  0  0
 59 60  1  0  0  0
 59 61  1  0  0  0
 59 62  1  0  0  0
 60137  1  0  0  0
 60138  1  0  0  0
 60139  1  0  0  0
 61140  1  0  0  0
 61141  1  0  0  0
 61142  1  0  0  0
 62143  1  0  0  0
 62144  1  0  0  0
 62145  1  0  0  0
 63 65  1  0  0  0
 63146  1  0  0  0
 63147  1  0  0  0
 63148  1  0  0  0
 64149  1  0  0  0
 65150  1  0  0  0
 68 82  1  0  0  0
 71 72  2  0  0  0
 71 73  1  0  0  0
 71151  1  0  0  0
 72 74  1  0  0  0
 72152  1  0  0  0
 73 75  2  0  0  0
 73153  1  0  0  0
 74 76  2  0  0  0
 74 81  1  0  0  0
 75 76  1  0  0  0
 75 82  1  0  0  0
 76 89  1  0  0  0
 77154  1  0  0  0
 77155  1  0  0  0
 77156  1  0  0  0
 77 88  1  0  0  0
 78 88  1  0  0  0
 78157  1  0  0  0
 78158  1  0  0  0
 78159  1  0  0  0
 79160  1  0  0  0
 79161  1  0  0  0
 79162  1  0  0  0
 79 89  1  0  0  0
 80 89  1  0  0  0
 80163  1  0  0  0
 80164  1  0  0  0
 80165  1  0  0  0
 81 83  1  0  0  0
 81166  1  0  0  0
 81167  1  0  0  0
 82168  1  0  0  0
 82169  1  0  0  0
 83 84  1  0  0  0
 83170  1  0  0  0
 83171  1  0  0  0
 84 88  1  0  0  0
 84172  1  0  0  0
 84173  1  0  0  0
 85 86  1  0  0  0
 85 90  1  0  0  0
 85174  1  0  0  0
 85175  1  0  0  0
 86 91  1  0  0  0
 86176  1  0  0  0
 86177  1  0  0  0
 87 89  1  0  0  0
 87 91  1  0  0  0
 87178  1  0  0  0
 87179  1  0  0  0
 88180  1  0  0  0
 90181  1  0  0  0
 91182  1  0  0  0
 91183  1  0  0  0
M  CHG  1  91   1
M  ISO  4   1 100  68 101  82 101  90 100
M  END
> <chiral flag>
0

> <version>
0

> <s_m_source_file>
/data/baiqing/PycharmProjects/Reinvent-master-3.2/result/LINK_invent/BTK/process_docking_weight1_custom_sum_contain_oxygen_bond_distance_aromatic_linkinvent_7_9_3/rearranged_h_0100.sdf

> <i_m_source_file_index>
83

> <r_mmod_Potential_Energy-OPLS-2005>
-81.0825881958008

> <r_mmod_Stretch_Energy-OPLS-2005>
75.1816635131836

> <r_mmod_Bend_Energy-OPLS-2005>
137.775726318359

> <r_mmod_Torsional_Energy-OPLS-2005>
321.59326171875

> <r_mmod_Improper_Torsional_Energy-OPLS-2005>
8.59606552124023

> <r_mmod_Van_der_Waal_Energy-OPLS-2005>
158.024169921875

> <r_mmod_Electrostatic_Energy-OPLS-2005>
-327.294036865234

> <r_mmod_Solvation_Energy-OPLS-2005>
-477.240570068359

> <b_mmod_Minimization_Converged-OPLS-2005>
0

> <r_mmod_RMS_Derivative-OPLS-2005>
5.37307167053223

$$$$
83
                    3D
 Structure written by MMmdl.
175183  0  0  1  0            999 V2000
  -30.6709  -14.4774   20.5590 C   0  0  0  0  0  0
  -30.4174  -12.3063   19.3882 C   0  0  0  0  0  0
  -29.4723  -12.5084   18.1837 C   0  0  0  0  0  0
  -27.9939  -12.3882   18.6089 C   0  0  0  0  0  0
  -27.6603  -13.2096   19.8814 C   0  0  2  0  0  0
  -28.7094  -12.9520   20.9818 C   0  0  0  0  0  0
  -25.2568  -13.8149   20.5671 C   0  0  0  0  0  0
  -24.1847  -13.0446   20.9236 C   0  0  0  0  0  0
  -24.6418  -11.6900   20.8755 C   0  0  0  0  0  0
  -23.9053  -10.4284   21.0408 C   0  0  0  0  0  0
  -24.3580   -9.4181   21.9188 C   0  0  0  0  0  0
  -23.6260   -8.2212   22.0735 C   0  0  0  0  0  0
  -22.4253   -8.0254   21.3521 C   0  0  0  0  0  0
  -21.9873   -9.0246   20.4629 C   0  0  0  0  0  0
  -22.7211  -10.2128   20.3064 C   0  0  0  0  0  0
  -21.6844   -6.0739   22.5288 C   0  0  0  0  0  0
  -21.4006   -6.5637   23.8209 C   0  0  0  0  0  0
  -21.3642   -5.6787   24.9172 C   0  0  0  0  0  0
  -21.6031   -4.3048   24.7226 C   0  0  0  0  0  0
  -21.8814   -3.8162   23.4330 C   0  0  0  0  0  0
  -21.9162   -4.6978   22.3391 C   0  0  0  0  0  0
  -22.7859  -13.5201   21.1886 C   0  0  0  0  0  0
  -22.1659   -4.2171   21.0970 F   0  0  0  0  0  0
  -21.5615   -3.4517   25.7725 F   0  0  0  0  0  0
  -30.0244  -13.2861   20.4138 N   0  0  0  0  0  0
  -26.3035  -12.9346   20.3447 N   0  0  0  0  0  0
  -25.9351  -11.6488   20.5789 N   0  0  0  0  0  0
  -22.0544  -12.8190   22.0458 N   0  0  0  0  0  0
  -25.4286  -15.1873   20.3945 N   0  0  0  0  0  0
  -31.8100  -14.6785   20.1233 O   0  0  0  0  0  0
  -21.6618   -6.8872   21.4229 O   0  0  0  0  0  0
  -22.3508  -14.5524   20.6716 O   0  0  0  0  0  0
  -24.6191  -31.8619   23.2038 C   0  0  0  0  0  0
  -25.9053  -32.4788   23.8361 C   0  0  1  0  0  0
  -27.2341  -27.3603   20.1272 C   0  0  0  0  0  0
  -25.5933  -33.8601   24.2350 N   0  0  0  0  0  0
  -23.4110  -30.4825   21.5439 C   0  0  2  0  0  0
  -24.8578  -28.9386   20.1057 C   0  0  0  0  0  0
  -22.7419  -29.4644   22.4966 C   0  0  0  0  0  0
  -18.0270  -28.1390   22.8427 C   0  0  0  0  0  0
  -24.1482  -36.7307   23.2640 C   0  0  0  0  0  0
  -25.9447  -30.8028   21.3677 C   0  0  0  0  0  0
  -26.0145  -29.4292   20.7246 C   0  0  0  0  0  0
  -27.1948  -28.6416   20.7395 C   0  0  0  0  0  0
  -26.0613  -26.9154   19.4759 C   0  0  0  0  0  0
  -24.8813  -27.6859   19.4742 C   0  0  0  0  0  0
  -23.6186  -29.8063   20.1599 C   0  0  0  0  0  0
  -25.4107  -36.3135   24.0382 C   0  0  1  0  0  0
  -20.5838  -28.3687   23.1274 C   0  0  2  0  0  0
  -20.6725  -26.9393   22.5433 C   0  0  0  0  0  0
  -19.5782  -26.6363   21.5173 C   0  0  0  0  0  0
  -18.1918  -26.7992   22.1445 C   0  0  0  0  0  0
  -19.1496  -28.8833   23.2866 C   0  0  0  0  0  0
  -18.9431  -30.1419   23.8911 C   0  0  0  0  0  0
  -17.6440  -30.6537   24.0585 C   0  0  0  0  0  0
  -25.9049  -34.9482   23.5180 C   0  0  0  0  0  0
  -16.5355  -29.9060   23.6306 C   0  0  0  0  0  0
  -16.7258  -28.6498   23.0310 C   0  0  0  0  0  0
  -26.4457  -31.6544   25.0709 C   0  0  0  0  0  0
  -25.3712  -31.3634   26.1458 C   0  0  0  0  0  0
  -27.0293  -30.2990   24.6106 C   0  0  0  0  0  0
  -27.6075  -32.4245   25.7415 C   0  0  0  0  0  0
  -27.5590  -37.1805   24.8475 C   0  0  0  0  0  0
  -21.4141  -29.3052   22.3686 N   0  0  0  0  0  0
  -26.4305  -37.3823   23.9420 N   0  0  0  0  0  0
  -24.6772  -31.0656   22.0977 N   0  0  0  0  0  0
  -23.4167  -28.8237   23.3047 O   0  0  0  0  0  0
  -28.4040  -26.6036   20.1931 O   0  0  0  0  0  0
  -26.5558  -34.8918   22.4715 O   0  0  0  0  0  0
  -23.5363  -32.1436   23.7378 O   0  0  0  0  0  0
  -28.8447  -21.5746   20.7861 C   0  0  0  0  0  0
  -27.9993  -22.6140   20.2845 C   0  0  0  0  0  0
  -26.9940  -22.2099   19.3608 C   0  0  0  0  0  0
  -26.9659  -20.8608   18.8923 C   0  0  0  0  0  0
  -28.6883  -20.2336   20.3556 C   0  0  0  0  0  0
  -25.9207  -23.2185   18.9681 C   0  0  0  0  0  0
  -28.9775  -24.2173   22.0620 C   0  0  0  0  0  0
  -29.3000  -17.4150   19.0586 C   0  0  0  0  0  0
  -26.1061  -21.1754   16.4945 C   0  0  0  0  0  0
  -24.5638  -20.1312   18.2725 C   0  0  0  0  0  0
  -26.4507  -18.8900   17.3226 C   0  0  0  0  0  0
  -30.3342  -16.8598   21.3838 C   0  0  0  0  0  0
  -28.4825  -25.2048   19.7661 C   0  0  0  0  0  0
  -28.0809  -24.0970   20.8176 C   0  0  1  0  0  0
  -29.9949  -17.9693   20.3193 C   0  0  2  0  0  0
  -26.0232  -20.3118   17.7782 C   0  0  0  0  0  0
  -27.7829  -19.9269   19.4239 N   0  0  0  0  0  0
  -29.3755  -19.1575   20.9663 N   0  0  0  0  0  0
  -29.9290  -15.4700   21.0845 N   0  0  0  0  0  0
  -31.4586  -12.4205   19.0808 H   0  0  0  0  0  0
  -30.3295  -11.2886   19.7728 H   0  0  0  0  0  0
  -29.6875  -11.7743   17.4038 H   0  0  0  0  0  0
  -29.6511  -13.4905   17.7363 H   0  0  0  0  0  0
  -27.7740  -11.3322   18.7730 H   0  0  0  0  0  0
  -27.3497  -12.7034   17.7891 H   0  0  0  0  0  0
  -27.7150  -14.2638   19.6067 H   0  0  0  0  0  0
  -28.6872  -11.8978   21.2677 H   0  0  0  0  0  0
  -28.4915  -13.5036   21.8999 H   0  0  0  0  0  0
  -25.2704   -9.5645   22.4787 H   0  0  0  0  0  0
  -23.9947   -7.4548   22.7411 H   0  0  0  0  0  0
  -21.0817   -8.8748   19.8902 H   0  0  0  0  0  0
  -22.3652  -10.9656   19.6177 H   0  0  0  0  0  0
  -21.2055   -7.6153   23.9726 H   0  0  0  0  0  0
  -21.1451   -6.0529   25.9060 H   0  0  0  0  0  0
  -22.0622   -2.7627   23.2826 H   0  0  0  0  0  0
  -22.4177  -11.9819   22.4762 H   0  0  0  0  0  0
  -21.1164  -13.1166   22.2722 H   0  0  0  0  0  0
  -24.6567  -15.8438   20.4539 H   0  0  0  0  0  0
  -26.2667  -15.5998   20.0076 H   0  0  0  0  0  0
  -26.7158  -32.5478   23.1123 H   0  0  0  0  0  0
  -25.0194  -33.9820   25.0563 H   0  0  0  0  0  0
  -22.7062  -31.3021   21.3900 H   0  0  0  0  0  0
  -23.3793  -35.9596   23.3297 H   0  0  0  0  0  0
  -24.3576  -36.8917   22.2052 H   0  0  0  0  0  0
  -23.7171  -37.6490   23.6624 H   0  0  0  0  0  0
  -26.0712  -31.5534   20.5843 H   0  0  0  0  0  0
  -26.8323  -30.8630   21.9876 H   0  0  0  0  0  0
  -28.0735  -29.0031   21.2537 H   0  0  0  0  0  0
  -26.0375  -25.9786   18.9507 H   0  0  0  0  0  0
  -24.0012  -27.3098   18.9692 H   0  0  0  0  0  0
  -23.7143  -30.5675   19.3891 H   0  0  0  0  0  0
  -22.7429  -29.2149   19.8820 H   0  0  0  0  0  0
  -25.1258  -36.2020   25.0888 H   0  0  0  0  0  0
  -20.9907  -28.3249   24.1378 H   0  0  0  0  0  0
  -20.5491  -26.2311   23.3628 H   0  0  0  0  0  0
  -21.6644  -26.7353   22.1369 H   0  0  0  0  0  0
  -19.6951  -25.6276   21.1216 H   0  0  0  0  0  0
  -19.6765  -27.3114   20.6662 H   0  0  0  0  0  0
  -17.4278  -26.6831   21.3737 H   0  0  0  0  0  0
  -18.0154  -26.0065   22.8704 H   0  0  0  0  0  0
  -19.7906  -30.7213   24.2269 H   0  0  0  0  0  0
  -17.4994  -31.6172   24.5291 H   0  0  0  0  0  0
  -15.5374  -30.2992   23.7593 H   0  0  0  0  0  0
  -15.8649  -28.0844   22.7006 H   0  0  0  0  0  0
  -24.6109  -30.6689   25.7878 H   0  0  0  0  0  0
  -24.8621  -32.2728   26.4653 H   0  0  0  0  0  0
  -25.8153  -30.9112   27.0336 H   0  0  0  0  0  0
  -26.2852  -29.6704   24.1220 H   0  0  0  0  0  0
  -27.4116  -29.7266   25.4547 H   0  0  0  0  0  0
  -27.8646  -30.4316   23.9245 H   0  0  0  0  0  0
  -27.2808  -33.3642   26.1840 H   0  0  0  0  0  0
  -28.3906  -32.6599   25.0220 H   0  0  0  0  0  0
  -28.0657  -31.8420   26.5397 H   0  0  0  0  0  0
  -28.2620  -38.0088   24.7560 H   0  0  0  0  0  0
  -28.1076  -36.2632   24.6259 H   0  0  0  0  0  0
  -27.2307  -37.1409   25.8878 H   0  0  0  0  0  0
  -20.9287  -29.8740   21.6892 H   0  0  0  0  0  0
  -26.0207  -38.2926   24.1392 H   0  0  0  0  0  0
  -29.5778  -21.7831   21.5515 H   0  0  0  0  0  0
  -25.5495  -23.7375   19.8514 H   0  0  0  0  0  0
  -25.0333  -22.7813   18.5352 H   0  0  0  0  0  0
  -26.2891  -23.9377   18.2405 H   0  0  0  0  0  0
  -30.0279  -24.0420   21.8205 H   0  0  0  0  0  0
  -28.6947  -23.4974   22.8271 H   0  0  0  0  0  0
  -28.8946  -25.2106   22.5052 H   0  0  0  0  0  0
  -29.8870  -16.6137   18.6136 H   0  0  0  0  0  0
  -29.2293  -18.1611   18.2687 H   0  0  0  0  0  0
  -28.3051  -17.0295   19.2778 H   0  0  0  0  0  0
  -25.6197  -22.1400   16.5915 H   0  0  0  0  0  0
  -25.6209  -20.6810   15.6529 H   0  0  0  0  0  0
  -27.1432  -21.3578   16.2007 H   0  0  0  0  0  0
  -24.0868  -21.0121   18.6877 H   0  0  0  0  0  0
  -24.5102  -19.3696   19.0492 H   0  0  0  0  0  0
  -23.9249  -19.8037   17.4539 H   0  0  0  0  0  0
  -27.4700  -18.8792   16.9411 H   0  0  0  0  0  0
  -25.8025  -18.5033   16.5367 H   0  0  0  0  0  0
  -26.3958  -18.1772   18.1447 H   0  0  0  0  0  0
  -29.8481  -17.0945   22.3311 H   0  0  0  0  0  0
  -31.4009  -16.8800   21.6084 H   0  0  0  0  0  0
  -27.9869  -25.0817   18.8096 H   0  0  0  0  0  0
  -29.5287  -25.0318   19.5184 H   0  0  0  0  0  0
  -27.0861  -24.3513   21.1766 H   0  0  0  0  0  0
  -30.9594  -18.3412   19.9687 H   0  0  0  0  0  0
  -29.8781  -19.4371   21.8010 H   0  0  0  0  0  0
  -28.9882  -15.2153   21.3422 H   0  0  0  0  0  0
  1 25  1  0  0  0
  1 30  2  0  0  0
  1 89  1  0  0  0
  2  3  1  0  0  0
  2 25  1  0  0  0
  2 90  1  0  0  0
  2 91  1  0  0  0
  3  4  1  0  0  0
  3 92  1  0  0  0
  3 93  1  0  0  0
  4  5  1  0  0  0
  4 94  1  0  0  0
  4 95  1  0  0  0
  5  6  1  0  0  0
  5 26  1  0  0  0
  5 96  1  0  0  0
  6 25  1  0  0  0
  6 97  1  0  0  0
  6 98  1  0  0  0
  7  8  2  0  0  0
  7 26  1  0  0  0
  7 29  1  0  0  0
  8  9  1  0  0  0
  8 22  1  0  0  0
  9 10  1  0  0  0
  9 27  2  0  0  0
 10 11  2  0  0  0
 10 15  1  0  0  0
 11 12  1  0  0  0
 11 99  1  0  0  0
 12 13  2  0  0  0
 12100  1  0  0  0
 13 14  1  0  0  0
 13 31  1  0  0  0
 14 15  2  0  0  0
 14101  1  0  0  0
 15102  1  0  0  0
 16 17  2  0  0  0
 16 21  1  0  0  0
 16 31  1  0  0  0
 17 18  1  0  0  0
 17103  1  0  0  0
 18 19  2  0  0  0
 18104  1  0  0  0
 19 20  1  0  0  0
 19 24  1  0  0  0
 20 21  2  0  0  0
 20105  1  0  0  0
 21 23  1  0  0  0
 22 28  1  0  0  0
 22 32  2  0  0  0
 26 27  1  0  0  0
 28106  1  0  0  0
 28107  1  0  0  0
 29108  1  0  0  0
 29109  1  0  0  0
 33 34  1  0  0  0
 33 66  1  0  0  0
 33 70  2  0  0  0
 34 36  1  0  0  0
 34 59  1  0  0  0
 34110  1  0  0  0
 35 44  2  0  0  0
 35 45  1  0  0  0
 35 68  1  0  0  0
 36 56  1  0  0  0
 36111  1  0  0  0
 37 39  1  0  0  0
 37 47  1  0  0  0
 37 66  1  0  0  0
 37112  1  0  0  0
 38 43  2  0  0  0
 38 46  1  0  0  0
 38 47  1  0  0  0
 39 64  1  0  0  0
 39 67  2  0  0  0
 40 52  1  0  0  0
 40 53  2  0  0  0
 40 58  1  0  0  0
 41113  1  0  0  0
 41114  1  0  0  0
 41115  1  0  0  0
 41 48  1  0  0  0
 42 43  1  0  0  0
 42 66  1  0  0  0
 42116  1  0  0  0
 42117  1  0  0  0
 43 44  1  0  0  0
 44118  1  0  0  0
 45 46  2  0  0  0
 45119  1  0  0  0
 46120  1  0  0  0
 47121  1  0  0  0
 47122  1  0  0  0
 48 56  1  0  0  0
 48 65  1  0  0  0
 48123  1  0  0  0
 49 50  1  0  0  0
 49 53  1  0  0  0
 49 64  1  0  0  0
 49124  1  0  0  0
 50 51  1  0  0  0
 50125  1  0  0  0
 50126  1  0  0  0
 51 52  1  0  0  0
 51127  1  0  0  0
 51128  1  0  0  0
 52129  1  0  0  0
 52130  1  0  0  0
 53 54  1  0  0  0
 54 55  2  0  0  0
 54131  1  0  0  0
 55 57  1  0  0  0
 55132  1  0  0  0
 56 69  2  0  0  0
 57 58  2  0  0  0
 57133  1  0  0  0
 58134  1  0  0  0
 59 60  1  0  0  0
 59 61  1  0  0  0
 59 62  1  0  0  0
 60135  1  0  0  0
 60136  1  0  0  0
 60137  1  0  0  0
 61138  1  0  0  0
 61139  1  0  0  0
 61140  1  0  0  0
 62141  1  0  0  0
 62142  1  0  0  0
 62143  1  0  0  0
 63 65  1  0  0  0
 63144  1  0  0  0
 63145  1  0  0  0
 63146  1  0  0  0
 64147  1  0  0  0
 65148  1  0  0  0
 68 83  1  0  0  0
 71 72  2  0  0  0
 71 75  1  0  0  0
 71149  1  0  0  0
 72 73  1  0  0  0
 72 84  1  0  0  0
 73 74  2  0  0  0
 73 76  1  0  0  0
 74 86  1  0  0  0
 74 87  1  0  0  0
 75 87  2  0  0  0
 75 88  1  0  0  0
 76150  1  0  0  0
 76151  1  0  0  0
 76152  1  0  0  0
 77153  1  0  0  0
 77154  1  0  0  0
 77155  1  0  0  0
 77 84  1  0  0  0
 78156  1  0  0  0
 78157  1  0  0  0
 78158  1  0  0  0
 78 85  1  0  0  0
 79159  1  0  0  0
 79160  1  0  0  0
 79161  1  0  0  0
 79 86  1  0  0  0
 80 86  1  0  0  0
 80162  1  0  0  0
 80163  1  0  0  0
 80164  1  0  0  0
 81 86  1  0  0  0
 81165  1  0  0  0
 81166  1  0  0  0
 81167  1  0  0  0
 82 85  1  0  0  0
 82 89  1  0  0  0
 82168  1  0  0  0
 82169  1  0  0  0
 83 84  1  0  0  0
 83170  1  0  0  0
 83171  1  0  0  0
 84172  1  0  0  0
 85 88  1  0  0  0
 85173  1  0  0  0
 88174  1  0  0  0
 89175  1  0  0  0
M  ISO  4   1 100  68 101  83 101  89 100
M  END
> <chiral flag>
0

> <version>
0

> <s_m_source_file>
/data/baiqing/PycharmProjects/Reinvent-master-3.2/result/LINK_invent/BTK/process_docking_weight1_custom_sum_contain_oxygen_bond_distance_aromatic_linkinvent_7_9_3/rearranged_h_0100.sdf

> <i_m_source_file_index>
84

> <r_mmod_Potential_Energy-OPLS-2005>
-281.501953125

> <r_mmod_Stretch_Energy-OPLS-2005>
64.7978744506836

> <r_mmod_Bend_Energy-OPLS-2005>
170.259658813477

> <r_mmod_Torsional_Energy-OPLS-2005>
214.340240478516

> <r_mmod_Improper_Torsional_Energy-OPLS-2005>
6.77352046966553

> <r_mmod_Van_der_Waal_Energy-OPLS-2005>
176.868225097656

> <r_mmod_Electrostatic_Energy-OPLS-2005>
-716.999328613281

> <r_mmod_Solvation_Energy-OPLS-2005>
-219.296859741211

> <b_mmod_Minimization_Converged-OPLS-2005>
0

> <r_mmod_RMS_Derivative-OPLS-2005>
7.11145353317261

$$$$
84
                    3D
 Structure written by MMmdl.
149156  0  0  1  0            999 V2000
  -30.3344  -15.5862   20.3317 C   0  0  0  0  0  0
  -30.4339  -13.0511   19.5089 C   0  0  0  0  0  0
  -29.5442  -12.6358   18.3034 C   0  0  0  0  0  0
  -28.1203  -12.2760   18.7589 C   0  0  0  0  0  0
  -27.5992  -13.2788   19.8116 C   0  0  2  0  0  0
  -28.6315  -13.5964   20.9226 C   0  0  0  0  0  0
  -25.2323  -13.8179   20.5766 C   0  0  0  0  0  0
  -24.1691  -13.0373   20.9263 C   0  0  0  0  0  0
  -24.6380  -11.6884   20.8766 C   0  0  0  0  0  0
  -23.9074  -10.4260   21.0396 C   0  0  0  0  0  0
  -24.3615   -9.4186   21.9184 C   0  0  0  0  0  0
  -23.6275   -8.2232   22.0769 C   0  0  0  0  0  0
  -22.4258   -8.0269   21.3550 C   0  0  0  0  0  0
  -21.9889   -9.0246   20.4655 C   0  0  0  0  0  0
  -22.7235  -10.2111   20.3053 C   0  0  0  0  0  0
  -21.6847   -6.0717   22.5276 C   0  0  0  0  0  0
  -21.4016   -6.5627   23.8211 C   0  0  0  0  0  0
  -21.3663   -5.6783   24.9174 C   0  0  0  0  0  0
  -21.6042   -4.3046   24.7230 C   0  0  0  0  0  0
  -21.8819   -3.8128   23.4349 C   0  0  0  0  0  0
  -21.9191   -4.6949   22.3405 C   0  0  0  0  0  0
  -22.7716  -13.5152   21.1885 C   0  0  0  0  0  0
  -22.1661   -4.2133   21.0982 F   0  0  0  0  0  0
  -21.5629   -3.4533   25.7741 F   0  0  0  0  0  0
  -29.8007  -14.2260   20.2573 N   0  0  0  0  0  0
  -26.2787  -12.9476   20.3254 N   0  0  0  0  0  0
  -25.9324  -11.6584   20.5728 N   0  0  0  0  0  0
  -22.0361  -12.8173   22.0450 N   0  0  0  0  0  0
  -25.3808  -15.1907   20.4199 N   0  0  0  0  0  0
  -31.5732  -15.5159   20.2168 O   0  0  0  0  0  0
  -21.6624   -6.8863   21.4242 O   0  0  0  0  0  0
  -22.3418  -14.5467   20.6730 O   0  0  0  0  0  0
  -24.6804  -31.8041   23.1535 C   0  0  0  0  0  0
  -25.9401  -32.4486   23.8073 C   0  0  1  0  0  0
  -27.2359  -26.7521   20.2154 C   0  0  0  0  0  0
  -25.5990  -33.8307   24.1967 N   0  0  0  0  0  0
  -23.5048  -30.4075   21.5057 C   0  0  2  0  0  0
  -24.9629  -28.7539   20.1208 C   0  0  0  0  0  0
  -22.7754  -29.4341   22.4711 C   0  0  0  0  0  0
  -18.0338  -28.1414   22.8453 C   0  0  0  0  0  0
  -24.1497  -36.7170   23.2648 C   0  0  0  0  0  0
  -26.0824  -30.5557   21.4081 C   0  0  0  0  0  0
  -26.1510  -29.1244   20.7617 C   0  0  0  0  0  0
  -27.2745  -28.1507   20.7750 C   0  0  0  0  0  0
  -26.0120  -26.5756   19.5235 C   0  0  0  0  0  0
  -24.9288  -27.5037   19.4788 C   0  0  0  0  0  0
  -23.7569  -29.7042   20.1409 C   0  0  0  0  0  0
  -25.4138  -36.2906   24.0286 C   0  0  1  0  0  0
  -20.5973  -28.3776   23.1139 C   0  0  2  0  0  0
  -20.6807  -26.9439   22.5390 C   0  0  0  0  0  0
  -19.5777  -26.6370   21.5209 C   0  0  0  0  0  0
  -18.1964  -26.7937   22.1627 C   0  0  0  0  0  0
  -19.1603  -28.8918   23.2781 C   0  0  0  0  0  0
  -18.9511  -30.1499   23.8831 C   0  0  0  0  0  0
  -17.6503  -30.6601   24.0548 C   0  0  0  0  0  0
  -25.9117  -34.9292   23.4960 C   0  0  0  0  0  0
  -16.5393  -29.9087   23.6344 C   0  0  0  0  0  0
  -16.7319  -28.6508   23.0366 C   0  0  0  0  0  0
  -26.4592  -31.6498   25.0676 C   0  0  0  0  0  0
  -25.3679  -31.3807   26.1311 C   0  0  0  0  0  0
  -27.0509  -30.2841   24.6530 C   0  0  0  0  0  0
  -27.6045  -32.4342   25.7503 C   0  0  0  0  0  0
  -27.5568  -37.1728   24.8458 C   0  0  0  0  0  0
  -21.4406  -29.3040   22.3469 N   0  0  0  0  0  0
  -26.4265  -37.3667   23.9421 N   0  0  0  0  0  0
  -24.7787  -30.9542   22.0758 N   0  0  0  0  0  0
  -23.4212  -28.7933   23.3039 O   0  0  0  0  0  0
  -28.2282  -25.5728   20.2712 O   0  0  0  0  0  0
  -26.5756  -34.8870   22.4579 O   0  0  0  0  0  0
  -23.5832  -32.1084   23.6521 O   0  0  0  0  0  0
  -27.9656  -20.1658   21.6453 C   0  0  0  0  0  0
  -28.1372  -16.8254   20.2007 C   0  0  0  0  0  0
  -29.0543  -22.2132   20.2611 C   0  0  0  0  0  0
  -29.8535  -18.6992   20.3181 C   0  0  0  0  0  0
  -28.0375  -23.8426   20.2654 C   0  0  0  0  0  0
  -28.8097  -20.3129   20.3719 C   0  0  1  0  0  0
  -29.5794  -16.9565   20.3378 N   0  0  0  0  0  0
  -31.4192  -13.3204   19.1253 H   0  0  0  0  0  0
  -30.6118  -12.2050   20.1746 H   0  0  0  0  0  0
  -29.9925  -11.7978   17.7682 H   0  0  0  0  0  0
  -29.4975  -13.4619   17.5924 H   0  0  0  0  0  0
  -28.1496  -11.2768   19.1947 H   0  0  0  0  0  0
  -27.4460  -12.2211   17.9033 H   0  0  0  0  0  0
  -27.4535  -14.1832   19.2298 H   0  0  0  0  0  0
  -28.9004  -12.7028   21.4870 H   0  0  0  0  0  0
  -28.2097  -14.2878   21.6515 H   0  0  0  0  0  0
  -25.2761   -9.5670   22.4759 H   0  0  0  0  0  0
  -23.9973   -7.4636   22.7509 H   0  0  0  0  0  0
  -21.0813   -8.8777   19.8974 H   0  0  0  0  0  0
  -22.3696  -10.9656   19.6166 H   0  0  0  0  0  0
  -21.2007   -7.6133   23.9704 H   0  0  0  0  0  0
  -21.1487   -6.0515   25.9078 H   0  0  0  0  0  0
  -22.0588   -2.7592   23.2853 H   0  0  0  0  0  0
  -22.3956  -11.9844   22.4868 H   0  0  0  0  0  0
  -21.0999  -13.1253   22.2665 H   0  0  0  0  0  0
  -24.6047  -15.8311   20.5458 H   0  0  0  0  0  0
  -26.2299  -15.6504   20.1226 H   0  0  0  0  0  0
  -26.7487  -32.4982   23.0790 H   0  0  0  0  0  0
  -25.0028  -33.9341   25.0047 H   0  0  0  0  0  0
  -22.8287  -31.2437   21.3164 H   0  0  0  0  0  0
  -23.3775  -35.9482   23.3233 H   0  0  0  0  0  0
  -24.3582  -36.8908   22.2080 H   0  0  0  0  0  0
  -23.7238  -37.6323   23.6769 H   0  0  0  0  0  0
  -26.2754  -31.2828   20.6177 H   0  0  0  0  0  0
  -26.9374  -30.6258   22.0685 H   0  0  0  0  0  0
  -28.1717  -28.4413   21.3029 H   0  0  0  0  0  0
  -25.8577  -25.6268   19.0296 H   0  0  0  0  0  0
  -24.0312  -27.2100   18.9524 H   0  0  0  0  0  0
  -23.9311  -30.4628   19.3769 H   0  0  0  0  0  0
  -22.8633  -29.1675   19.8168 H   0  0  0  0  0  0
  -25.1341  -36.1660   25.0774 H   0  0  0  0  0  0
  -21.0059  -28.3399   24.1264 H   0  0  0  0  0  0
  -20.5673  -26.2403   23.3650 H   0  0  0  0  0  0
  -21.6669  -26.7383   22.1207 H   0  0  0  0  0  0
  -19.6932  -25.6263   21.1287 H   0  0  0  0  0  0
  -19.6704  -27.3143   20.6707 H   0  0  0  0  0  0
  -17.4220  -26.6651   21.4050 H   0  0  0  0  0  0
  -18.0377  -26.0107   22.9055 H   0  0  0  0  0  0
  -19.7989  -30.7328   24.2176 H   0  0  0  0  0  0
  -17.5058  -31.6278   24.5156 H   0  0  0  0  0  0
  -15.5391  -30.2971   23.7705 H   0  0  0  0  0  0
  -15.8719  -28.0805   22.7121 H   0  0  0  0  0  0
  -24.5799  -30.7249   25.7592 H   0  0  0  0  0  0
  -24.8960  -32.3044   26.4671 H   0  0  0  0  0  0
  -25.7860  -30.8962   27.0143 H   0  0  0  0  0  0
  -26.3205  -29.6467   24.1538 H   0  0  0  0  0  0
  -27.3975  -29.7275   25.5250 H   0  0  0  0  0  0
  -27.9176  -30.3979   24.0016 H   0  0  0  0  0  0
  -27.2565  -33.3666   26.1965 H   0  0  0  0  0  0
  -28.3926  -32.6873   25.0397 H   0  0  0  0  0  0
  -28.0643  -31.8556   26.5527 H   0  0  0  0  0  0
  -28.2523  -38.0083   24.7552 H   0  0  0  0  0  0
  -28.1123  -36.2608   24.6214 H   0  0  0  0  0  0
  -27.2292  -37.1282   25.8860 H   0  0  0  0  0  0
  -20.9697  -29.8716   21.6556 H   0  0  0  0  0  0
  -26.0086  -38.2709   24.1461 H   0  0  0  0  0  0
  -27.1579  -20.8978   21.6716 H   0  0  0  0  0  0
  -28.5770  -20.3154   22.5347 H   0  0  0  0  0  0
  -27.5092  -19.1818   21.7300 H   0  0  0  0  0  0
  -27.6359  -17.7756   20.0332 H   0  0  0  0  0  0
  -27.7063  -16.3868   21.0994 H   0  0  0  0  0  0
  -27.8984  -16.2281   19.3246 H   0  0  0  0  0  0
  -29.7785  -22.3989   21.0542 H   0  0  0  0  0  0
  -29.6507  -22.3176   19.3538 H   0  0  0  0  0  0
  -30.5631  -18.8213   21.1383 H   0  0  0  0  0  0
  -30.4760  -18.8211   19.4318 H   0  0  0  0  0  0
  -27.4118  -23.7136   21.1492 H   0  0  0  0  0  0
  -27.3383  -23.6986   19.4426 H   0  0  0  0  0  0
  -28.1249  -20.1457   19.5397 H   0  0  0  0  0  0
  1 25  1  0  0  0
  1 30  2  0  0  0
  1 77  1  0  0  0
  2  3  1  0  0  0
  2 25  1  0  0  0
  2 78  1  0  0  0
  2 79  1  0  0  0
  3  4  1  0  0  0
  3 80  1  0  0  0
  3 81  1  0  0  0
  4  5  1  0  0  0
  4 82  1  0  0  0
  4 83  1  0  0  0
  5  6  1  0  0  0
  5 26  1  0  0  0
  5 84  1  0  0  0
  6 25  1  0  0  0
  6 85  1  0  0  0
  6 86  1  0  0  0
  7  8  2  0  0  0
  7 26  1  0  0  0
  7 29  1  0  0  0
  8  9  1  0  0  0
  8 22  1  0  0  0
  9 10  1  0  0  0
  9 27  2  0  0  0
 10 11  2  0  0  0
 10 15  1  0  0  0
 11 12  1  0  0  0
 11 87  1  0  0  0
 12 13  2  0  0  0
 12 88  1  0  0  0
 13 14  1  0  0  0
 13 31  1  0  0  0
 14 15  2  0  0  0
 14 89  1  0  0  0
 15 90  1  0  0  0
 16 17  2  0  0  0
 16 21  1  0  0  0
 16 31  1  0  0  0
 17 18  1  0  0  0
 17 91  1  0  0  0
 18 19  2  0  0  0
 18 92  1  0  0  0
 19 20  1  0  0  0
 19 24  1  0  0  0
 20 21  2  0  0  0
 20 93  1  0  0  0
 21 23  1  0  0  0
 22 28  1  0  0  0
 22 32  2  0  0  0
 26 27  1  0  0  0
 28 94  1  0  0  0
 28 95  1  0  0  0
 29 96  1  0  0  0
 29 97  1  0  0  0
 33 34  1  0  0  0
 33 66  1  0  0  0
 33 70  2  0  0  0
 34 36  1  0  0  0
 34 59  1  0  0  0
 34 98  1  0  0  0
 35 44  2  0  0  0
 35 45  1  0  0  0
 35 68  1  0  0  0
 36 56  1  0  0  0
 36 99  1  0  0  0
 37 39  1  0  0  0
 37 47  1  0  0  0
 37 66  1  0  0  0
 37100  1  0  0  0
 38 43  2  0  0  0
 38 46  1  0  0  0
 38 47  1  0  0  0
 39 64  1  0  0  0
 39 67  2  0  0  0
 40 52  1  0  0  0
 40 53  2  0  0  0
 40 58  1  0  0  0
 41101  1  0  0  0
 41102  1  0  0  0
 41103  1  0  0  0
 41 48  1  0  0  0
 42 43  1  0  0  0
 42 66  1  0  0  0
 42104  1  0  0  0
 42105  1  0  0  0
 43 44  1  0  0  0
 44106  1  0  0  0
 45 46  2  0  0  0
 45107  1  0  0  0
 46108  1  0  0  0
 47109  1  0  0  0
 47110  1  0  0  0
 48 56  1  0  0  0
 48 65  1  0  0  0
 48111  1  0  0  0
 49 50  1  0  0  0
 49 53  1  0  0  0
 49 64  1  0  0  0
 49112  1  0  0  0
 50 51  1  0  0  0
 50113  1  0  0  0
 50114  1  0  0  0
 51 52  1  0  0  0
 51115  1  0  0  0
 51116  1  0  0  0
 52117  1  0  0  0
 52118  1  0  0  0
 53 54  1  0  0  0
 54 55  2  0  0  0
 54119  1  0  0  0
 55 57  1  0  0  0
 55120  1  0  0  0
 56 69  2  0  0  0
 57 58  2  0  0  0
 57121  1  0  0  0
 58122  1  0  0  0
 59 60  1  0  0  0
 59 61  1  0  0  0
 59 62  1  0  0  0
 60123  1  0  0  0
 60124  1  0  0  0
 60125  1  0  0  0
 61126  1  0  0  0
 61127  1  0  0  0
 61128  1  0  0  0
 62129  1  0  0  0
 62130  1  0  0  0
 62131  1  0  0  0
 63 65  1  0  0  0
 63132  1  0  0  0
 63133  1  0  0  0
 63134  1  0  0  0
 64135  1  0  0  0
 65136  1  0  0  0
 68 75  1  0  0  0
 71137  1  0  0  0
 71138  1  0  0  0
 71139  1  0  0  0
 71 76  1  0  0  0
 72 77  1  0  0  0
 72140  1  0  0  0
 72141  1  0  0  0
 72142  1  0  0  0
 73 75  1  0  0  0
 73 76  1  0  0  0
 73143  1  0  0  0
 73144  1  0  0  0
 74 76  1  0  0  0
 74 77  1  0  0  0
 74145  1  0  0  0
 74146  1  0  0  0
 75147  1  0  0  0
 75148  1  0  0  0
 76149  1  0  0  0
M  ISO  4   1 100  68 101  75 101  77 100
M  END
> <chiral flag>
0

> <version>
0

> <s_m_source_file>
/data/baiqing/PycharmProjects/Reinvent-master-3.2/result/LINK_invent/BTK/process_docking_weight1_custom_sum_contain_oxygen_bond_distance_aromatic_linkinvent_7_9_3/rearranged_h_0100.sdf

> <i_m_source_file_index>
85

> <r_mmod_Potential_Energy-OPLS-2005>
2413.1728515625

> <r_mmod_Stretch_Energy-OPLS-2005>
1095.77734375

> <r_mmod_Bend_Energy-OPLS-2005>
603.095642089844

> <r_mmod_Torsional_Energy-OPLS-2005>
275.756134033203

> <r_mmod_Improper_Torsional_Energy-OPLS-2005>
4.02537202835083

> <r_mmod_Van_der_Waal_Energy-OPLS-2005>
112.402557373047

> <r_mmod_Electrostatic_Energy-OPLS-2005>
-281.310852050781

> <r_mmod_Solvation_Energy-OPLS-2005>
-205.058609008789

> <b_mmod_Minimization_Converged-OPLS-2005>
0

> <r_mmod_RMS_Derivative-OPLS-2005>
1.7221440076828

$$$$
85
                    3D
 Structure written by MMmdl.
173180  0  0  1  0            999 V2000
  -30.7120  -14.4332   20.5372 C   0  0  0  0  0  0
  -30.4202  -12.2590   19.4355 C   0  0  0  0  0  0
  -29.5124  -12.4974   18.2121 C   0  0  0  0  0  0
  -28.0250  -12.3819   18.6061 C   0  0  0  0  0  0
  -27.6712  -13.2029   19.8772 C   0  0  2  0  0  0
  -28.7097  -12.9810   21.0038 C   0  0  0  0  0  0
  -25.2655  -13.8163   20.5639 C   0  0  0  0  0  0
  -24.1923  -13.0490   20.9194 C   0  0  0  0  0  0
  -24.6448  -11.6931   20.8734 C   0  0  0  0  0  0
  -23.9110  -10.4344   21.0392 C   0  0  0  0  0  0
  -24.3655   -9.4244   21.9152 C   0  0  0  0  0  0
  -23.6338   -8.2281   22.0754 C   0  0  0  0  0  0
  -22.4310   -8.0306   21.3562 C   0  0  0  0  0  0
  -21.9922   -9.0280   20.4661 C   0  0  0  0  0  0
  -22.7270  -10.2184   20.3048 C   0  0  0  0  0  0
  -21.6894   -6.0768   22.5294 C   0  0  0  0  0  0
  -21.4014   -6.5651   23.8236 C   0  0  0  0  0  0
  -21.3680   -5.6791   24.9183 C   0  0  0  0  0  0
  -21.6037   -4.3063   24.7227 C   0  0  0  0  0  0
  -21.8816   -3.8185   23.4356 C   0  0  0  0  0  0
  -21.9199   -4.6984   22.3418 C   0  0  0  0  0  0
  -22.7930  -13.5257   21.1866 C   0  0  0  0  0  0
  -22.1675   -4.2185   21.1004 F   0  0  0  0  0  0
  -21.5633   -3.4533   25.7744 F   0  0  0  0  0  0
  -30.0503  -13.2523   20.4535 N   0  0  0  0  0  0
  -26.3084  -12.9329   20.3335 N   0  0  0  0  0  0
  -25.9355  -11.6504   20.5715 N   0  0  0  0  0  0
  -22.0605  -12.8265   22.0435 N   0  0  0  0  0  0
  -25.4391  -15.1891   20.3976 N   0  0  0  0  0  0
  -31.8339  -14.6259   20.0639 O   0  0  0  0  0  0
  -21.6663   -6.8914   21.4265 O   0  0  0  0  0  0
  -22.3622  -14.5561   20.6689 O   0  0  0  0  0  0
  -24.6140  -31.8702   23.2113 C   0  0  0  0  0  0
  -25.9072  -32.4804   23.8362 C   0  0  1  0  0  0
  -27.1936  -27.4446   20.0871 C   0  0  0  0  0  0
  -25.5944  -33.8605   24.2297 N   0  0  0  0  0  0
  -23.3936  -30.5004   21.5534 C   0  0  2  0  0  0
  -24.8223  -28.9661   20.1108 C   0  0  0  0  0  0
  -22.7398  -29.4675   22.5001 C   0  0  0  0  0  0
  -18.0274  -28.1386   22.8495 C   0  0  0  0  0  0
  -24.1501  -36.7323   23.2632 C   0  0  0  0  0  0
  -25.9208  -30.8312   21.3660 C   0  0  0  0  0  0
  -25.9808  -29.4687   20.7152 C   0  0  0  0  0  0
  -27.1665  -28.7095   20.7075 C   0  0  0  0  0  0
  -26.0134  -26.9354   19.5007 C   0  0  0  0  0  0
  -24.8319  -27.6981   19.5046 C   0  0  0  0  0  0
  -23.5920  -29.8402   20.1622 C   0  0  0  0  0  0
  -25.4126  -36.3107   24.0311 C   0  0  1  0  0  0
  -20.5861  -28.3657   23.1352 C   0  0  2  0  0  0
  -20.6759  -26.9396   22.5434 C   0  0  0  0  0  0
  -19.5745  -26.6395   21.5218 C   0  0  0  0  0  0
  -18.1919  -26.7938   22.1620 C   0  0  0  0  0  0
  -19.1524  -28.8839   23.2924 C   0  0  0  0  0  0
  -18.9445  -30.1443   23.8935 C   0  0  0  0  0  0
  -17.6448  -30.6592   24.0569 C   0  0  0  0  0  0
  -25.9058  -34.9473   23.5105 C   0  0  0  0  0  0
  -16.5339  -29.9095   23.6325 C   0  0  0  0  0  0
  -16.7262  -28.6517   23.0341 C   0  0  0  0  0  0
  -26.4467  -31.6594   25.0715 C   0  0  0  0  0  0
  -25.3705  -31.3771   26.1461 C   0  0  0  0  0  0
  -27.0246  -30.3002   24.6136 C   0  0  0  0  0  0
  -27.6079  -32.4284   25.7466 C   0  0  0  0  0  0
  -27.5596  -37.1814   24.8454 C   0  0  0  0  0  0
  -21.4143  -29.3030   22.3767 N   0  0  0  0  0  0
  -26.4308  -37.3791   23.9400 N   0  0  0  0  0  0
  -24.6606  -31.0831   22.1008 N   0  0  0  0  0  0
  -23.4205  -28.8205   23.3018 O   0  0  0  0  0  0
  -28.3830  -26.7679   20.0928 O   0  0  0  0  0  0
  -26.5614  -34.8933   22.4665 O   0  0  0  0  0  0
  -23.5344  -32.1456   23.7544 O   0  0  0  0  0  0
  -30.8657  -20.4828   18.6811 C   0  0  0  0  0  0
  -31.9647  -23.5884   18.7499 C   0  0  0  0  0  0
  -29.8136  -23.5448   17.4370 C   0  0  0  0  0  0
  -30.6049  -26.3429   18.4087 C   0  0  0  0  0  0
  -30.6470  -25.4380   20.7743 C   0  0  0  0  0  0
  -29.8977  -22.6335   19.8410 C   0  0  0  0  0  0
  -30.0447  -16.7843   20.2974 C   0  0  0  0  0  0
  -28.9950  -17.7750   20.8418 C   0  0  0  0  0  0
  -29.1334  -20.2744   20.4637 C   0  0  0  0  0  0
  -28.5217  -25.5308   19.3967 C   0  0  0  0  0  0
  -29.6398  -21.1805   19.3185 C   0  0  2  0  0  0
  -30.4124  -23.7544   18.8516 C   0  0  0  0  0  0
  -30.0542  -25.2283   19.3545 C   0  0  0  0  0  0
  -29.9550  -15.4639   20.9258 N   0  0  0  0  0  0
  -28.8502  -18.9232   19.9241 N   0  3  0  0  0  0
  -31.4706  -12.3255   19.1485 H   0  0  0  0  0  0
  -30.2792  -11.2511   19.8300 H   0  0  0  0  0  0
  -29.7542  -11.7868   17.4199 H   0  0  0  0  0  0
  -29.7115  -13.4878   17.8016 H   0  0  0  0  0  0
  -27.8104  -11.3243   18.7674 H   0  0  0  0  0  0
  -27.3967  -12.6943   17.7714 H   0  0  0  0  0  0
  -27.7160  -14.2522   19.5895 H   0  0  0  0  0  0
  -28.6699  -11.9548   21.3668 H   0  0  0  0  0  0
  -28.4770  -13.6065   21.8671 H   0  0  0  0  0  0
  -25.2803   -9.5720   22.4709 H   0  0  0  0  0  0
  -24.0091   -7.4649   22.7414 H   0  0  0  0  0  0
  -21.0893   -8.8789   19.8920 H   0  0  0  0  0  0
  -22.3717  -10.9716   19.6163 H   0  0  0  0  0  0
  -21.1986   -7.6138   23.9744 H   0  0  0  0  0  0
  -21.1515   -6.0520   25.9092 H   0  0  0  0  0  0
  -22.0571   -2.7638   23.2841 H   0  0  0  0  0  0
  -22.4223  -11.9918   22.4802 H   0  0  0  0  0  0
  -21.1179  -13.1271   22.2586 H   0  0  0  0  0  0
  -24.6600  -15.8341   20.4550 H   0  0  0  0  0  0
  -26.2637  -15.6112   19.9912 H   0  0  0  0  0  0
  -26.7146  -32.5480   23.1106 H   0  0  0  0  0  0
  -25.0057  -33.9731   25.0418 H   0  0  0  0  0  0
  -22.6819  -31.3189   21.4255 H   0  0  0  0  0  0
  -23.3747  -35.9671   23.3286 H   0  0  0  0  0  0
  -24.3594  -36.8953   22.2050 H   0  0  0  0  0  0
  -23.7260  -37.6526   23.6651 H   0  0  0  0  0  0
  -26.0457  -31.5931   20.5954 H   0  0  0  0  0  0
  -26.8051  -30.8674   21.9902 H   0  0  0  0  0  0
  -28.0630  -29.0882   21.1795 H   0  0  0  0  0  0
  -25.9840  -25.9583   19.0431 H   0  0  0  0  0  0
  -23.9361  -27.3086   19.0390 H   0  0  0  0  0  0
  -23.7011  -30.6164   19.4034 H   0  0  0  0  0  0
  -22.7099  -29.2679   19.8705 H   0  0  0  0  0  0
  -25.1312  -36.1943   25.0794 H   0  0  0  0  0  0
  -20.9938  -28.3194   24.1475 H   0  0  0  0  0  0
  -20.5665  -26.2254   23.3603 H   0  0  0  0  0  0
  -21.6634  -26.7446   22.1231 H   0  0  0  0  0  0
  -19.6903  -25.6304   21.1242 H   0  0  0  0  0  0
  -19.6705  -27.3221   20.6760 H   0  0  0  0  0  0
  -17.4197  -26.6710   21.4005 H   0  0  0  0  0  0
  -18.0304  -26.0064   22.9005 H   0  0  0  0  0  0
  -19.7913  -30.7254   24.2331 H   0  0  0  0  0  0
  -17.4996  -31.6272   24.5166 H   0  0  0  0  0  0
  -15.5339  -30.3006   23.7632 H   0  0  0  0  0  0
  -15.8663  -28.0851   22.7030 H   0  0  0  0  0  0
  -24.5933  -30.7020   25.7852 H   0  0  0  0  0  0
  -24.8803  -32.2937   26.4763 H   0  0  0  0  0  0
  -25.8036  -30.9092   27.0307 H   0  0  0  0  0  0
  -26.2773  -29.6816   24.1146 H   0  0  0  0  0  0
  -27.3907  -29.7216   25.4627 H   0  0  0  0  0  0
  -27.8677  -30.4267   23.9340 H   0  0  0  0  0  0
  -27.2760  -33.3631   26.1999 H   0  0  0  0  0  0
  -28.3914  -32.6743   25.0286 H   0  0  0  0  0  0
  -28.0691  -31.8395   26.5403 H   0  0  0  0  0  0
  -28.2625  -38.0104   24.7490 H   0  0  0  0  0  0
  -28.1078  -36.2631   24.6281 H   0  0  0  0  0  0
  -27.2313  -37.1482   25.8859 H   0  0  0  0  0  0
  -20.9294  -29.8763   21.7004 H   0  0  0  0  0  0
  -26.0193  -38.2865   24.1393 H   0  0  0  0  0  0
  -31.6055  -20.2301   19.4396 H   0  0  0  0  0  0
  -31.3613  -21.0642   17.9141 H   0  0  0  0  0  0
  -30.5864  -19.5640   18.1675 H   0  0  0  0  0  0
  -32.2704  -22.9111   17.9597 H   0  0  0  0  0  0
  -32.4130  -23.2197   19.6753 H   0  0  0  0  0  0
  -32.4982  -24.5036   18.5209 H   0  0  0  0  0  0
  -29.9580  -22.5337   17.0586 H   0  0  0  0  0  0
  -30.2922  -24.1937   16.7063 H   0  0  0  0  0  0
  -28.7436  -23.7371   17.4021 H   0  0  0  0  0  0
  -30.3648  -27.3355   18.7882 H   0  0  0  0  0  0
  -30.1587  -26.2983   17.4146 H   0  0  0  0  0  0
  -31.6818  -26.3555   18.2783 H   0  0  0  0  0  0
  -30.4141  -26.4146   21.1940 H   0  0  0  0  0  0
  -31.7328  -25.3733   20.7731 H   0  0  0  0  0  0
  -30.2603  -24.7084   21.4838 H   0  0  0  0  0  0
  -30.5994  -22.5525   20.6733 H   0  0  0  0  0  0
  -28.9745  -22.9558   20.3250 H   0  0  0  0  0  0
  -31.0479  -17.1994   20.4139 H   0  0  0  0  0  0
  -29.9095  -16.6485   19.2214 H   0  0  0  0  0  0
  -29.3015  -18.1050   21.8341 H   0  0  0  0  0  0
  -28.0196  -17.2934   20.9534 H   0  0  0  0  0  0
  -28.2513  -20.6917   20.9555 H   0  0  0  0  0  0
  -29.9133  -20.2195   21.2271 H   0  0  0  0  0  0
  -27.9293  -24.7565   19.8800 H   0  0  0  0  0  0
  -28.1360  -25.6480   18.3809 H   0  0  0  0  0  0
  -28.8405  -21.2101   18.5751 H   0  0  0  0  0  0
  -29.0835  -15.2187   21.3715 H   0  0  0  0  0  0
  -27.9505  -18.9008   19.4640 H   0  0  0  0  0  0
  -29.5443  -18.7896   19.2022 H   0  0  0  0  0  0
  1 25  1  0  0  0
  1 30  2  0  0  0
  1 84  1  0  0  0
  2  3  1  0  0  0
  2 25  1  0  0  0
  2 86  1  0  0  0
  2 87  1  0  0  0
  3  4  1  0  0  0
  3 88  1  0  0  0
  3 89  1  0  0  0
  4  5  1  0  0  0
  4 90  1  0  0  0
  4 91  1  0  0  0
  5  6  1  0  0  0
  5 26  1  0  0  0
  5 92  1  0  0  0
  6 25  1  0  0  0
  6 93  1  0  0  0
  6 94  1  0  0  0
  7  8  2  0  0  0
  7 26  1  0  0  0
  7 29  1  0  0  0
  8  9  1  0  0  0
  8 22  1  0  0  0
  9 10  1  0  0  0
  9 27  2  0  0  0
 10 11  2  0  0  0
 10 15  1  0  0  0
 11 12  1  0  0  0
 11 95  1  0  0  0
 12 13  2  0  0  0
 12 96  1  0  0  0
 13 14  1  0  0  0
 13 31  1  0  0  0
 14 15  2  0  0  0
 14 97  1  0  0  0
 15 98  1  0  0  0
 16 17  2  0  0  0
 16 21  1  0  0  0
 16 31  1  0  0  0
 17 18  1  0  0  0
 17 99  1  0  0  0
 18 19  2  0  0  0
 18100  1  0  0  0
 19 20  1  0  0  0
 19 24  1  0  0  0
 20 21  2  0  0  0
 20101  1  0  0  0
 21 23  1  0  0  0
 22 28  1  0  0  0
 22 32  2  0  0  0
 26 27  1  0  0  0
 28102  1  0  0  0
 28103  1  0  0  0
 29104  1  0  0  0
 29105  1  0  0  0
 33 34  1  0  0  0
 33 66  1  0  0  0
 33 70  2  0  0  0
 34 36  1  0  0  0
 34 59  1  0  0  0
 34106  1  0  0  0
 35 44  2  0  0  0
 35 45  1  0  0  0
 35 68  1  0  0  0
 36 56  1  0  0  0
 36107  1  0  0  0
 37 39  1  0  0  0
 37 47  1  0  0  0
 37 66  1  0  0  0
 37108  1  0  0  0
 38 43  2  0  0  0
 38 46  1  0  0  0
 38 47  1  0  0  0
 39 64  1  0  0  0
 39 67  2  0  0  0
 40 52  1  0  0  0
 40 53  2  0  0  0
 40 58  1  0  0  0
 41109  1  0  0  0
 41110  1  0  0  0
 41111  1  0  0  0
 41 48  1  0  0  0
 42 43  1  0  0  0
 42 66  1  0  0  0
 42112  1  0  0  0
 42113  1  0  0  0
 43 44  1  0  0  0
 44114  1  0  0  0
 45 46  2  0  0  0
 45115  1  0  0  0
 46116  1  0  0  0
 47117  1  0  0  0
 47118  1  0  0  0
 48 56  1  0  0  0
 48 65  1  0  0  0
 48119  1  0  0  0
 49 50  1  0  0  0
 49 53  1  0  0  0
 49 64  1  0  0  0
 49120  1  0  0  0
 50 51  1  0  0  0
 50121  1  0  0  0
 50122  1  0  0  0
 51 52  1  0  0  0
 51123  1  0  0  0
 51124  1  0  0  0
 52125  1  0  0  0
 52126  1  0  0  0
 53 54  1  0  0  0
 54 55  2  0  0  0
 54127  1  0  0  0
 55 57  1  0  0  0
 55128  1  0  0  0
 56 69  2  0  0  0
 57 58  2  0  0  0
 57129  1  0  0  0
 58130  1  0  0  0
 59 60  1  0  0  0
 59 61  1  0  0  0
 59 62  1  0  0  0
 60131  1  0  0  0
 60132  1  0  0  0
 60133  1  0  0  0
 61134  1  0  0  0
 61135  1  0  0  0
 61136  1  0  0  0
 62137  1  0  0  0
 62138  1  0  0  0
 62139  1  0  0  0
 63 65  1  0  0  0
 63140  1  0  0  0
 63141  1  0  0  0
 63142  1  0  0  0
 64143  1  0  0  0
 65144  1  0  0  0
 68 80  1  0  0  0
 71145  1  0  0  0
 71146  1  0  0  0
 71147  1  0  0  0
 71 81  1  0  0  0
 72148  1  0  0  0
 72149  1  0  0  0
 72150  1  0  0  0
 72 82  1  0  0  0
 73 82  1  0  0  0
 73151  1  0  0  0
 73152  1  0  0  0
 73153  1  0  0  0
 74154  1  0  0  0
 74155  1  0  0  0
 74156  1  0  0  0
 74 83  1  0  0  0
 75 83  1  0  0  0
 75157  1  0  0  0
 75158  1  0  0  0
 75159  1  0  0  0
 76 81  1  0  0  0
 76 82  1  0  0  0
 76160  1  0  0  0
 76161  1  0  0  0
 77 78  1  0  0  0
 77 84  1  0  0  0
 77162  1  0  0  0
 77163  1  0  0  0
 78 85  1  0  0  0
 78164  1  0  0  0
 78165  1  0  0  0
 79 81  1  0  0  0
 79 85  1  0  0  0
 79166  1  0  0  0
 79167  1  0  0  0
 80 83  1  0  0  0
 80168  1  0  0  0
 80169  1  0  0  0
 81170  1  0  0  0
 82 83  1  0  0  0
 84171  1  0  0  0
 85172  1  0  0  0
 85173  1  0  0  0
M  CHG  1  85   1
M  ISO  4   1 100  68 101  80 101  84 100
M  END
> <chiral flag>
0

> <version>
0

> <s_m_source_file>
/data/baiqing/PycharmProjects/Reinvent-master-3.2/result/LINK_invent/BTK/process_docking_weight1_custom_sum_contain_oxygen_bond_distance_aromatic_linkinvent_7_9_3/rearranged_h_0100.sdf

> <i_m_source_file_index>
86

> <r_mmod_Potential_Energy-OPLS-2005>
-148.896881103516

> <r_mmod_Stretch_Energy-OPLS-2005>
45.2549324035645

> <r_mmod_Bend_Energy-OPLS-2005>
129.363357543945

> <r_mmod_Torsional_Energy-OPLS-2005>
273.954498291016

> <r_mmod_Improper_Torsional_Energy-OPLS-2005>
8.60621070861816

> <r_mmod_Van_der_Waal_Energy-OPLS-2005>
173.783126831055

> <r_mmod_Electrostatic_Energy-OPLS-2005>
-320.677093505859

> <r_mmod_Solvation_Energy-OPLS-2005>
-472.240264892578

> <b_mmod_Minimization_Converged-OPLS-2005>
0

> <r_mmod_RMS_Derivative-OPLS-2005>
6.87371969223022

$$$$
86
                    3D
 Structure written by MMmdl.
173181  0  0  1  0            999 V2000
  -30.6306  -14.6730   20.4848 C   0  0  0  0  0  0
  -30.4524  -12.4062   19.4726 C   0  0  0  0  0  0
  -29.5233  -12.5059   18.2421 C   0  0  0  0  0  0
  -28.0430  -12.3520   18.6435 C   0  0  0  0  0  0
  -27.6624  -13.2237   19.8701 C   0  0  2  0  0  0
  -28.7091  -13.0940   21.0036 C   0  0  0  0  0  0
  -25.2620  -13.8201   20.5695 C   0  0  0  0  0  0
  -24.1888  -13.0453   20.9211 C   0  0  0  0  0  0
  -24.6466  -11.6924   20.8744 C   0  0  0  0  0  0
  -23.9123  -10.4300   21.0386 C   0  0  0  0  0  0
  -24.3658   -9.4221   21.9171 C   0  0  0  0  0  0
  -23.6327   -8.2262   22.0740 C   0  0  0  0  0  0
  -22.4303   -8.0307   21.3547 C   0  0  0  0  0  0
  -21.9963   -9.0267   20.4644 C   0  0  0  0  0  0
  -22.7284  -10.2152   20.3048 C   0  0  0  0  0  0
  -21.6866   -6.0771   22.5285 C   0  0  0  0  0  0
  -21.4007   -6.5653   23.8221 C   0  0  0  0  0  0
  -21.3655   -5.6806   24.9175 C   0  0  0  0  0  0
  -21.6046   -4.3066   24.7235 C   0  0  0  0  0  0
  -21.8816   -3.8170   23.4345 C   0  0  0  0  0  0
  -21.9199   -4.6996   22.3404 C   0  0  0  0  0  0
  -22.7905  -13.5242   21.1844 C   0  0  0  0  0  0
  -22.1664   -4.2187   21.0981 F   0  0  0  0  0  0
  -21.5634   -3.4539   25.7738 F   0  0  0  0  0  0
  -30.0311  -13.4357   20.4501 N   0  0  0  0  0  0
  -26.3066  -12.9385   20.3380 N   0  0  0  0  0  0
  -25.9411  -11.6530   20.5797 N   0  0  0  0  0  0
  -22.0532  -12.8230   22.0385 N   0  0  0  0  0  0
  -25.4311  -15.1921   20.4052 N   0  0  0  0  0  0
  -31.7415  -14.8610   19.9850 O   0  0  0  0  0  0
  -21.6645   -6.8914   21.4251 O   0  0  0  0  0  0
  -22.3586  -14.5529   20.6669 O   0  0  0  0  0  0
  -24.6265  -31.8598   23.2013 C   0  0  0  0  0  0
  -25.9134  -32.4777   23.8327 C   0  0  1  0  0  0
  -27.2021  -27.2932   20.1201 C   0  0  0  0  0  0
  -25.5958  -33.8569   24.2268 N   0  0  0  0  0  0
  -23.4132  -30.4846   21.5490 C   0  0  2  0  0  0
  -24.8546  -28.9362   20.1142 C   0  0  0  0  0  0
  -22.7451  -29.4658   22.4993 C   0  0  0  0  0  0
  -18.0274  -28.1437   22.8469 C   0  0  0  0  0  0
  -24.1494  -36.7272   23.2630 C   0  0  0  0  0  0
  -25.9584  -30.7770   21.3771 C   0  0  0  0  0  0
  -26.0250  -29.4026   20.7204 C   0  0  0  0  0  0
  -27.2012  -28.5923   20.7201 C   0  0  0  0  0  0
  -26.0171  -26.8979   19.4608 C   0  0  0  0  0  0
  -24.8523  -27.6875   19.4773 C   0  0  0  0  0  0
  -23.6174  -29.8103   20.1686 C   0  0  0  0  0  0
  -25.4129  -36.3077   24.0326 C   0  0  1  0  0  0
  -20.5861  -28.3725   23.1295 C   0  0  2  0  0  0
  -20.6782  -26.9457   22.5423 C   0  0  0  0  0  0
  -19.5762  -26.6399   21.5232 C   0  0  0  0  0  0
  -18.1923  -26.7981   22.1616 C   0  0  0  0  0  0
  -19.1524  -28.8902   23.2859 C   0  0  0  0  0  0
  -18.9466  -30.1504   23.8862 C   0  0  0  0  0  0
  -17.6474  -30.6633   24.0559 C   0  0  0  0  0  0
  -25.9081  -34.9446   23.5104 C   0  0  0  0  0  0
  -16.5354  -29.9118   23.6373 C   0  0  0  0  0  0
  -16.7261  -28.6554   23.0360 C   0  0  0  0  0  0
  -26.4491  -31.6613   25.0731 C   0  0  0  0  0  0
  -25.3701  -31.3775   26.1443 C   0  0  0  0  0  0
  -27.0380  -30.3049   24.6247 C   0  0  0  0  0  0
  -27.6049  -32.4373   25.7491 C   0  0  0  0  0  0
  -27.5597  -37.1758   24.8455 C   0  0  0  0  0  0
  -21.4177  -29.3065   22.3709 N   0  0  0  0  0  0
  -26.4295  -37.3784   23.9437 N   0  0  0  0  0  0
  -24.6853  -31.0580   22.0967 N   0  0  0  0  0  0
  -23.4190  -28.8202   23.3058 O   0  0  0  0  0  0
  -28.2970  -26.4074   20.1671 O   0  0  0  0  0  0
  -26.5635  -34.8899   22.4668 O   0  0  0  0  0  0
  -23.5434  -32.1448   23.7357 O   0  0  0  0  0  0
  -31.2049  -18.6950   18.2144 C   0  0  0  0  0  0
  -32.6110  -18.9693   20.1548 C   0  0  0  0  0  0
  -31.3425  -18.6697   19.6192 C   0  0  0  0  0  0
  -32.2907  -19.1251   17.4219 C   0  0  0  0  0  0
  -33.4974  -19.4721   18.0637 C   0  0  0  0  0  0
  -32.1311  -19.2354   15.9126 C   0  0  0  0  0  0
  -34.6086  -21.5904   17.2207 C   0  0  0  0  0  0
  -27.4623  -21.9638   19.3080 C   0  0  0  0  0  0
  -34.6805  -20.0595   17.3045 C   0  0  0  0  0  0
  -29.0396  -23.7967   20.2157 C   0  0  0  0  0  0
  -29.4340  -17.0123   20.3104 C   0  0  0  0  0  0
  -29.6536  -21.0929   20.3771 C   0  0  0  0  0  0
  -28.0091  -24.9876   20.5301 C   0  0  0  0  0  0
  -30.1292  -18.4502   20.5371 C   0  0  2  0  0  0
  -28.5416  -22.2662   20.3693 C   0  0  2  0  0  0
  -33.6563  -19.3766   19.4013 N   0  0  0  0  0  0
  -29.8804  -15.7149   20.9578 N   0  0  0  0  0  0
  -29.1626  -19.6392   20.3838 N   0  3  0  0  0  0
  -31.4918  -12.5359   19.1651 H   0  0  0  0  0  0
  -30.4007  -11.4144   19.9212 H   0  0  0  0  0  0
  -29.7921  -11.7434   17.5085 H   0  0  0  0  0  0
  -29.6700  -13.4703   17.7526 H   0  0  0  0  0  0
  -27.8658  -11.2991   18.8604 H   0  0  0  0  0  0
  -27.3998  -12.5952   17.7964 H   0  0  0  0  0  0
  -27.6760  -14.2578   19.5259 H   0  0  0  0  0  0
  -28.7244  -12.0785   21.4024 H   0  0  0  0  0  0
  -28.4458  -13.7385   21.8441 H   0  0  0  0  0  0
  -25.2787   -9.5699   22.4768 H   0  0  0  0  0  0
  -24.0043   -7.4646   22.7439 H   0  0  0  0  0  0
  -21.0921   -8.8783   19.8928 H   0  0  0  0  0  0
  -22.3731  -10.9701   19.6178 H   0  0  0  0  0  0
  -21.1959   -7.6156   23.9747 H   0  0  0  0  0  0
  -21.1489   -6.0520   25.9093 H   0  0  0  0  0  0
  -22.0599   -2.7640   23.2828 H   0  0  0  0  0  0
  -22.4138  -11.9895   22.4784 H   0  0  0  0  0  0
  -21.1133  -13.1240   22.2512 H   0  0  0  0  0  0
  -24.6574  -15.8430   20.4823 H   0  0  0  0  0  0
  -26.2772  -15.6214   20.0539 H   0  0  0  0  0  0
  -26.7178  -32.5399   23.1032 H   0  0  0  0  0  0
  -25.0105  -33.9716   25.0408 H   0  0  0  0  0  0
  -22.7071  -31.3042   21.4095 H   0  0  0  0  0  0
  -23.3792  -35.9560   23.3264 H   0  0  0  0  0  0
  -24.3580  -36.8954   22.2055 H   0  0  0  0  0  0
  -23.7226  -37.6437   23.6692 H   0  0  0  0  0  0
  -26.1033  -31.5342   20.6045 H   0  0  0  0  0  0
  -26.8320  -30.8136   22.0164 H   0  0  0  0  0  0
  -28.0904  -28.9450   21.2239 H   0  0  0  0  0  0
  -25.9592  -25.9596   18.9287 H   0  0  0  0  0  0
  -23.9539  -27.3339   18.9918 H   0  0  0  0  0  0
  -23.7010  -30.5736   19.3957 H   0  0  0  0  0  0
  -22.7386  -29.2188   19.8974 H   0  0  0  0  0  0
  -25.1312  -36.1874   25.0823 H   0  0  0  0  0  0
  -20.9916  -28.3292   24.1427 H   0  0  0  0  0  0
  -20.5756  -26.2322   23.3613 H   0  0  0  0  0  0
  -21.6636  -26.7527   22.1156 H   0  0  0  0  0  0
  -19.6930  -25.6293   21.1290 H   0  0  0  0  0  0
  -19.6735  -27.3167   20.6737 H   0  0  0  0  0  0
  -17.4212  -26.6731   21.4002 H   0  0  0  0  0  0
  -18.0293  -26.0144   22.9045 H   0  0  0  0  0  0
  -19.7939  -30.7336   24.2189 H   0  0  0  0  0  0
  -17.5031  -31.6302   24.5174 H   0  0  0  0  0  0
  -15.5359  -30.3012   23.7760 H   0  0  0  0  0  0
  -15.8655  -28.0872   22.7110 H   0  0  0  0  0  0
  -24.5868  -30.7163   25.7725 H   0  0  0  0  0  0
  -24.8888  -32.2946   26.4831 H   0  0  0  0  0  0
  -25.7952  -30.8936   27.0246 H   0  0  0  0  0  0
  -26.2984  -29.6780   24.1253 H   0  0  0  0  0  0
  -27.4072  -29.7341   25.4778 H   0  0  0  0  0  0
  -27.8838  -30.4392   23.9508 H   0  0  0  0  0  0
  -27.2689  -33.3717   26.1995 H   0  0  0  0  0  0
  -28.3848  -32.6897   25.0294 H   0  0  0  0  0  0
  -28.0731  -31.8577   26.5455 H   0  0  0  0  0  0
  -28.2542  -38.0121   24.7591 H   0  0  0  0  0  0
  -28.1168  -36.2657   24.6158 H   0  0  0  0  0  0
  -27.2315  -37.1233   25.8850 H   0  0  0  0  0  0
  -20.9389  -29.8737   21.6853 H   0  0  0  0  0  0
  -26.0167  -38.2857   24.1461 H   0  0  0  0  0  0
  -30.2568  -18.4687   17.7477 H   0  0  0  0  0  0
  -32.7829  -18.9496   21.2205 H   0  0  0  0  0  0
  -32.6845  -18.4356   15.4175 H   0  0  0  0  0  0
  -32.5073  -20.1872   15.5397 H   0  0  0  0  0  0
  -31.0847  -19.1738   15.6131 H   0  0  0  0  0  0
  -35.4937  -21.9957   16.7309 H   0  0  0  0  0  0
  -34.5449  -22.0313   18.2160 H   0  0  0  0  0  0
  -33.7370  -21.9188   16.6535 H   0  0  0  0  0  0
  -26.6752  -22.7166   19.2863 H   0  0  0  0  0  0
  -26.9517  -21.0249   19.5141 H   0  0  0  0  0  0
  -27.8868  -21.9027   18.3044 H   0  0  0  0  0  0
  -34.7407  -19.6333   16.3022 H   0  0  0  0  0  0
  -35.6091  -19.7743   17.8022 H   0  0  0  0  0  0
  -29.9059  -23.9443   20.8630 H   0  0  0  0  0  0
  -29.4047  -23.9244   19.1963 H   0  0  0  0  0  0
  -29.2964  -16.8281   19.2455 H   0  0  0  0  0  0
  -28.4174  -17.1123   20.6901 H   0  0  0  0  0  0
  -30.2976  -21.2345   21.2476 H   0  0  0  0  0  0
  -30.3000  -21.2289   19.5077 H   0  0  0  0  0  0
  -27.8430  -24.9864   21.6082 H   0  0  0  0  0  0
  -27.0552  -24.6749   20.1220 H   0  0  0  0  0  0
  -30.4790  -18.4826   21.5712 H   0  0  0  0  0  0
  -28.0456  -22.2087   21.3399 H   0  0  0  0  0  0
  -29.1797  -15.3672   21.5965 H   0  0  0  0  0  0
  -28.6467  -19.5038   19.5311 H   0  0  0  0  0  0
  -28.4973  -19.5607   21.1391 H   0  0  0  0  0  0
  1 25  1  0  0  0
  1 30  2  0  0  0
  1 87  1  0  0  0
  2  3  1  0  0  0
  2 25  1  0  0  0
  2 89  1  0  0  0
  2 90  1  0  0  0
  3  4  1  0  0  0
  3 91  1  0  0  0
  3 92  1  0  0  0
  4  5  1  0  0  0
  4 93  1  0  0  0
  4 94  1  0  0  0
  5  6  1  0  0  0
  5 26  1  0  0  0
  5 95  1  0  0  0
  6 25  1  0  0  0
  6 96  1  0  0  0
  6 97  1  0  0  0
  7  8  2  0  0  0
  7 26  1  0  0  0
  7 29  1  0  0  0
  8  9  1  0  0  0
  8 22  1  0  0  0
  9 10  1  0  0  0
  9 27  2  0  0  0
 10 11  2  0  0  0
 10 15  1  0  0  0
 11 12  1  0  0  0
 11 98  1  0  0  0
 12 13  2  0  0  0
 12 99  1  0  0  0
 13 14  1  0  0  0
 13 31  1  0  0  0
 14 15  2  0  0  0
 14100  1  0  0  0
 15101  1  0  0  0
 16 17  2  0  0  0
 16 21  1  0  0  0
 16 31  1  0  0  0
 17 18  1  0  0  0
 17102  1  0  0  0
 18 19  2  0  0  0
 18103  1  0  0  0
 19 20  1  0  0  0
 19 24  1  0  0  0
 20 21  2  0  0  0
 20104  1  0  0  0
 21 23  1  0  0  0
 22 28  1  0  0  0
 22 32  2  0  0  0
 26 27  1  0  0  0
 28105  1  0  0  0
 28106  1  0  0  0
 29107  1  0  0  0
 29108  1  0  0  0
 33 34  1  0  0  0
 33 66  1  0  0  0
 33 70  2  0  0  0
 34 36  1  0  0  0
 34 59  1  0  0  0
 34109  1  0  0  0
 35 44  2  0  0  0
 35 45  1  0  0  0
 35 68  1  0  0  0
 36 56  1  0  0  0
 36110  1  0  0  0
 37 39  1  0  0  0
 37 47  1  0  0  0
 37 66  1  0  0  0
 37111  1  0  0  0
 38 43  2  0  0  0
 38 46  1  0  0  0
 38 47  1  0  0  0
 39 64  1  0  0  0
 39 67  2  0  0  0
 40 52  1  0  0  0
 40 53  2  0  0  0
 40 58  1  0  0  0
 41112  1  0  0  0
 41113  1  0  0  0
 41114  1  0  0  0
 41 48  1  0  0  0
 42 43  1  0  0  0
 42 66  1  0  0  0
 42115  1  0  0  0
 42116  1  0  0  0
 43 44  1  0  0  0
 44117  1  0  0  0
 45 46  2  0  0  0
 45118  1  0  0  0
 46119  1  0  0  0
 47120  1  0  0  0
 47121  1  0  0  0
 48 56  1  0  0  0
 48 65  1  0  0  0
 48122  1  0  0  0
 49 50  1  0  0  0
 49 53  1  0  0  0
 49 64  1  0  0  0
 49123  1  0  0  0
 50 51  1  0  0  0
 50124  1  0  0  0
 50125  1  0  0  0
 51 52  1  0  0  0
 51126  1  0  0  0
 51127  1  0  0  0
 52128  1  0  0  0
 52129  1  0  0  0
 53 54  1  0  0  0
 54 55  2  0  0  0
 54130  1  0  0  0
 55 57  1  0  0  0
 55131  1  0  0  0
 56 69  2  0  0  0
 57 58  2  0  0  0
 57132  1  0  0  0
 58133  1  0  0  0
 59 60  1  0  0  0
 59 61  1  0  0  0
 59 62  1  0  0  0
 60134  1  0  0  0
 60135  1  0  0  0
 60136  1  0  0  0
 61137  1  0  0  0
 61138  1  0  0  0
 61139  1  0  0  0
 62140  1  0  0  0
 62141  1  0  0  0
 62142  1  0  0  0
 63 65  1  0  0  0
 63143  1  0  0  0
 63144  1  0  0  0
 63145  1  0  0  0
 64146  1  0  0  0
 65147  1  0  0  0
 68 83  1  0  0  0
 71 73  2  0  0  0
 71 74  1  0  0  0
 71148  1  0  0  0
 72 73  1  0  0  0
 72 86  2  0  0  0
 72149  1  0  0  0
 73 84  1  0  0  0
 74 75  2  0  0  0
 74 76  1  0  0  0
 75 79  1  0  0  0
 75 86  1  0  0  0
 76150  1  0  0  0
 76151  1  0  0  0
 76152  1  0  0  0
 77 79  1  0  0  0
 77153  1  0  0  0
 77154  1  0  0  0
 77155  1  0  0  0
 78156  1  0  0  0
 78157  1  0  0  0
 78158  1  0  0  0
 78 85  1  0  0  0
 79159  1  0  0  0
 79160  1  0  0  0
 80 83  1  0  0  0
 80 85  1  0  0  0
 80161  1  0  0  0
 80162  1  0  0  0
 81 87  1  0  0  0
 81163  1  0  0  0
 81164  1  0  0  0
 81 84  1  0  0  0
 82 85  1  0  0  0
 82 88  1  0  0  0
 82165  1  0  0  0
 82166  1  0  0  0
 83167  1  0  0  0
 83168  1  0  0  0
 84 88  1  0  0  0
 84169  1  0  0  0
 85170  1  0  0  0
 87171  1  0  0  0
 88172  1  0  0  0
 88173  1  0  0  0
M  CHG  1  88   1
M  ISO  4   1 100  68 101  83 101  87 100
M  END
> <chiral flag>
0

> <version>
0

> <s_m_source_file>
/data/baiqing/PycharmProjects/Reinvent-master-3.2/result/LINK_invent/BTK/process_docking_weight1_custom_sum_contain_oxygen_bond_distance_aromatic_linkinvent_7_9_3/rearranged_h_0100.sdf

> <i_m_source_file_index>
87

> <r_mmod_Potential_Energy-OPLS-2005>
-233.169906616211

> <r_mmod_Stretch_Energy-OPLS-2005>
106.546607971191

> <r_mmod_Bend_Energy-OPLS-2005>
167.024185180664

> <r_mmod_Torsional_Energy-OPLS-2005>
268.627258300781

> <r_mmod_Improper_Torsional_Energy-OPLS-2005>
7.03028869628906

> <r_mmod_Van_der_Waal_Energy-OPLS-2005>
139.315521240234

> <r_mmod_Electrostatic_Energy-OPLS-2005>
-484.332000732422

> <r_mmod_Solvation_Energy-OPLS-2005>
-500.481262207031

> <b_mmod_Minimization_Converged-OPLS-2005>
0

> <r_mmod_RMS_Derivative-OPLS-2005>
4.61983823776245

$$$$
87
                    3D
 Structure written by MMmdl.
175183  0  0  1  0            999 V2000
  -30.6150  -14.7369   20.5035 C   0  0  0  0  0  0
  -30.4334  -12.4571   19.4773 C   0  0  0  0  0  0
  -29.5113  -12.5228   18.2391 C   0  0  0  0  0  0
  -28.0359  -12.3469   18.6482 C   0  0  0  0  0  0
  -27.6458  -13.2324   19.8610 C   0  0  2  0  0  0
  -28.6872  -13.1347   20.9958 C   0  0  0  0  0  0
  -25.2522  -13.8198   20.5718 C   0  0  0  0  0  0
  -24.1802  -13.0442   20.9192 C   0  0  0  0  0  0
  -24.6396  -11.6921   20.8734 C   0  0  0  0  0  0
  -23.9071  -10.4298   21.0401 C   0  0  0  0  0  0
  -24.3620   -9.4212   21.9180 C   0  0  0  0  0  0
  -23.6292   -8.2247   22.0752 C   0  0  0  0  0  0
  -22.4274   -8.0284   21.3546 C   0  0  0  0  0  0
  -21.9911   -9.0256   20.4643 C   0  0  0  0  0  0
  -22.7242  -10.2137   20.3052 C   0  0  0  0  0  0
  -21.6852   -6.0738   22.5277 C   0  0  0  0  0  0
  -21.4015   -6.5642   23.8211 C   0  0  0  0  0  0
  -21.3658   -5.6794   24.9170 C   0  0  0  0  0  0
  -21.6045   -4.3054   24.7220 C   0  0  0  0  0  0
  -21.8819   -3.8151   23.4339 C   0  0  0  0  0  0
  -21.9195   -4.6967   22.3397 C   0  0  0  0  0  0
  -22.7828  -13.5231   21.1858 C   0  0  0  0  0  0
  -22.1663   -4.2155   21.0973 F   0  0  0  0  0  0
  -21.5629   -3.4539   25.7729 F   0  0  0  0  0  0
  -29.9916  -13.5061   20.4294 N   0  0  0  0  0  0
  -26.2956  -12.9410   20.3322 N   0  0  0  0  0  0
  -25.9332  -11.6548   20.5760 N   0  0  0  0  0  0
  -22.0475  -12.8215   22.0411 N   0  0  0  0  0  0
  -25.4226  -15.1920   20.4177 N   0  0  0  0  0  0
  -31.7558  -14.8639   20.0456 O   0  0  0  0  0  0
  -21.6641   -6.8882   21.4238 O   0  0  0  0  0  0
  -22.3510  -14.5539   20.6712 O   0  0  0  0  0  0
  -24.6309  -31.8525   23.1954 C   0  0  0  0  0  0
  -25.9135  -32.4734   23.8307 C   0  0  1  0  0  0
  -27.2258  -27.2561   20.1306 C   0  0  0  0  0  0
  -25.5933  -33.8536   24.2227 N   0  0  0  0  0  0
  -23.4281  -30.4727   21.5374 C   0  0  2  0  0  0
  -24.8750  -28.9127   20.1078 C   0  0  0  0  0  0
  -22.7497  -29.4587   22.4904 C   0  0  0  0  0  0
  -18.0282  -28.1386   22.8472 C   0  0  0  0  0  0
  -24.1486  -36.7272   23.2644 C   0  0  0  0  0  0
  -25.9713  -30.7647   21.3726 C   0  0  0  0  0  0
  -26.0429  -29.3848   20.7171 C   0  0  0  0  0  0
  -27.2169  -28.5684   20.7152 C   0  0  0  0  0  0
  -26.0321  -26.8412   19.5026 C   0  0  0  0  0  0
  -24.8746  -27.6499   19.4915 C   0  0  0  0  0  0
  -23.6450  -29.8002   20.1543 C   0  0  0  0  0  0
  -25.4112  -36.3050   24.0324 C   0  0  1  0  0  0
  -20.5883  -28.3686   23.1264 C   0  0  2  0  0  0
  -20.6772  -26.9406   22.5403 C   0  0  0  0  0  0
  -19.5748  -26.6372   21.5210 C   0  0  0  0  0  0
  -18.1924  -26.7927   22.1616 C   0  0  0  0  0  0
  -19.1539  -28.8854   23.2864 C   0  0  0  0  0  0
  -18.9472  -30.1457   23.8883 C   0  0  0  0  0  0
  -17.6474  -30.6589   24.0554 C   0  0  0  0  0  0
  -25.9057  -34.9426   23.5081 C   0  0  0  0  0  0
  -16.5358  -29.9079   23.6342 C   0  0  0  0  0  0
  -16.7269  -28.6504   23.0350 C   0  0  0  0  0  0
  -26.4504  -31.6570   25.0706 C   0  0  0  0  0  0
  -25.3716  -31.3725   26.1425 C   0  0  0  0  0  0
  -27.0363  -30.2990   24.6199 C   0  0  0  0  0  0
  -27.6048  -32.4324   25.7483 C   0  0  0  0  0  0
  -27.5571  -37.1785   24.8465 C   0  0  0  0  0  0
  -21.4204  -29.3038   22.3658 N   0  0  0  0  0  0
  -26.4276  -37.3759   23.9420 N   0  0  0  0  0  0
  -24.6961  -31.0491   22.0918 N   0  0  0  0  0  0
  -23.4202  -28.8139   23.3007 O   0  0  0  0  0  0
  -28.3575  -26.4125   20.2093 O   0  0  0  0  0  0
  -26.5636  -34.8913   22.4650 O   0  0  0  0  0  0
  -23.5460  -32.1339   23.7251 O   0  0  0  0  0  0
  -27.4756  -21.3912   18.8603 C   0  0  0  0  0  0
  -27.8897  -19.2231   18.6657 C   0  0  0  0  0  0
  -27.1143  -20.2194   18.1541 C   0  0  0  0  0  0
  -28.4432  -21.1179   19.7883 C   0  0  0  0  0  0
  -27.1406  -21.9330   15.5570 C   0  0  0  0  0  0
  -24.6093  -18.3559   18.2827 C   0  0  0  0  0  0
  -29.4367  -21.7918   22.0293 C   0  0  0  0  0  0
  -29.6785  -16.0999   22.3107 C   0  0  0  0  0  0
  -26.6498  -20.4807   15.6704 C   0  0  0  0  0  0
  -25.3911  -18.7194   17.0094 C   0  0  0  0  0  0
  -28.2897  -23.7265   20.7510 C   0  0  0  0  0  0
  -29.4737  -18.6443   20.5472 C   0  0  0  0  0  0
  -29.5678  -17.0880   20.0074 C   0  0  0  0  0  0
  -28.4384  -24.9815   19.7400 C   0  0  0  0  0  0
  -26.0733  -20.1079   17.0529 C   0  0  0  0  0  0
  -29.0790  -22.2863   20.6166 C   0  0  2  0  0  0
  -28.6740  -19.6716   19.7275 N   0  0  0  0  0  0
  -29.8793  -15.8633   20.8814 N   0  0  0  0  0  0
  -31.4745  -12.5804   19.1752 H   0  0  0  0  0  0
  -30.3794  -11.4730   19.9452 H   0  0  0  0  0  0
  -29.7923  -11.7560   17.5157 H   0  0  0  0  0  0
  -29.6404  -13.4821   17.7348 H   0  0  0  0  0  0
  -27.8872  -11.2960   18.8975 H   0  0  0  0  0  0
  -27.3793  -12.5547   17.8020 H   0  0  0  0  0  0
  -27.6495  -14.2620   19.5022 H   0  0  0  0  0  0
  -28.7226  -12.1236   21.4037 H   0  0  0  0  0  0
  -28.4032  -13.7813   21.8244 H   0  0  0  0  0  0
  -25.2763   -9.5693   22.4760 H   0  0  0  0  0  0
  -24.0002   -7.4642   22.7477 H   0  0  0  0  0  0
  -21.0844   -8.8773   19.8950 H   0  0  0  0  0  0
  -22.3694  -10.9676   19.6165 H   0  0  0  0  0  0
  -21.2005   -7.6150   23.9715 H   0  0  0  0  0  0
  -21.1481   -6.0522   25.9074 H   0  0  0  0  0  0
  -22.0600   -2.7613   23.2834 H   0  0  0  0  0  0
  -22.4085  -11.9867   22.4787 H   0  0  0  0  0  0
  -21.1096  -13.1246   22.2627 H   0  0  0  0  0  0
  -24.6569  -15.8466   20.5316 H   0  0  0  0  0  0
  -26.2842  -15.6349   20.1268 H   0  0  0  0  0  0
  -26.7185  -32.5371   23.1030 H   0  0  0  0  0  0
  -25.0094  -33.9667   25.0381 H   0  0  0  0  0  0
  -22.7258  -31.2948   21.3877 H   0  0  0  0  0  0
  -23.3756  -35.9600   23.3291 H   0  0  0  0  0  0
  -24.3580  -36.8916   22.2066 H   0  0  0  0  0  0
  -23.7230  -37.6463   23.6678 H   0  0  0  0  0  0
  -26.1084  -31.5240   20.6017 H   0  0  0  0  0  0
  -26.8501  -30.8142   22.0048 H   0  0  0  0  0  0
  -28.1135  -28.9265   21.2009 H   0  0  0  0  0  0
  -25.9622  -25.8711   19.0360 H   0  0  0  0  0  0
  -23.9773  -27.2816   19.0149 H   0  0  0  0  0  0
  -23.7641  -30.5732   19.3944 H   0  0  0  0  0  0
  -22.7640  -29.2305   19.8532 H   0  0  0  0  0  0
  -25.1286  -36.1892   25.0814 H   0  0  0  0  0  0
  -20.9976  -28.3258   24.1381 H   0  0  0  0  0  0
  -20.5676  -26.2296   23.3604 H   0  0  0  0  0  0
  -21.6635  -26.7419   22.1196 H   0  0  0  0  0  0
  -19.6920  -25.6285   21.1236 H   0  0  0  0  0  0
  -19.6698  -27.3188   20.6747 H   0  0  0  0  0  0
  -17.4198  -26.6669   21.4017 H   0  0  0  0  0  0
  -18.0321  -26.0068   22.9010 H   0  0  0  0  0  0
  -19.7955  -30.7268   24.2249 H   0  0  0  0  0  0
  -17.5028  -31.6273   24.5148 H   0  0  0  0  0  0
  -15.5362  -30.2974   23.7691 H   0  0  0  0  0  0
  -15.8662  -28.0824   22.7068 H   0  0  0  0  0  0
  -24.5900  -30.7055   25.7751 H   0  0  0  0  0  0
  -24.8895  -32.2900   26.4821 H   0  0  0  0  0  0
  -25.8027  -30.8925   27.0221 H   0  0  0  0  0  0
  -26.2951  -29.6726   24.1228 H   0  0  0  0  0  0
  -27.4054  -29.7266   25.4717 H   0  0  0  0  0  0
  -27.8806  -30.4272   23.9429 H   0  0  0  0  0  0
  -27.2652  -33.3643   26.2013 H   0  0  0  0  0  0
  -28.3881  -32.6856   25.0328 H   0  0  0  0  0  0
  -28.0680  -31.8481   26.5441 H   0  0  0  0  0  0
  -28.2563  -38.0106   24.7535 H   0  0  0  0  0  0
  -28.1088  -36.2637   24.6249 H   0  0  0  0  0  0
  -27.2301  -37.1386   25.8870 H   0  0  0  0  0  0
  -20.9394  -29.8758   21.6860 H   0  0  0  0  0  0
  -26.0152  -38.2825   24.1443 H   0  0  0  0  0  0
  -27.0660  -22.3748   18.6789 H   0  0  0  0  0  0
  -27.8899  -18.1938   18.3498 H   0  0  0  0  0  0
  -27.4438  -22.1612   14.5349 H   0  0  0  0  0  0
  -28.0001  -22.1195   16.2005 H   0  0  0  0  0  0
  -26.3557  -22.6382   15.8326 H   0  0  0  0  0  0
  -24.1407  -17.3762   18.1828 H   0  0  0  0  0  0
  -23.8181  -19.0799   18.4787 H   0  0  0  0  0  0
  -25.2542  -18.3199   19.1608 H   0  0  0  0  0  0
  -30.1314  -20.9547   21.9950 H   0  0  0  0  0  0
  -28.5482  -21.4687   22.5718 H   0  0  0  0  0  0
  -29.9249  -22.5696   22.6168 H   0  0  0  0  0  0
  -28.6466  -16.3941   22.5039 H   0  0  0  0  0  0
  -30.3381  -16.8932   22.6628 H   0  0  0  0  0  0
  -29.8869  -15.2163   22.9162 H   0  0  0  0  0  0
  -27.4626  -19.8012   15.4109 H   0  0  0  0  0  0
  -25.8788  -20.3300   14.9137 H   0  0  0  0  0  0
  -24.6943  -18.6899   16.1707 H   0  0  0  0  0  0
  -26.1293  -17.9436   16.8037 H   0  0  0  0  0  0
  -27.2319  -23.5359   20.9323 H   0  0  0  0  0  0
  -28.6317  -24.1571   21.6913 H   0  0  0  0  0  0
  -30.4840  -19.0324   20.6769 H   0  0  0  0  0  0
  -29.0240  -18.6475   21.5395 H   0  0  0  0  0  0
  -30.2188  -17.0671   19.1327 H   0  0  0  0  0  0
  -28.5847  -16.8004   19.6444 H   0  0  0  0  0  0
  -27.8131  -24.8198   18.8634 H   0  0  0  0  0  0
  -29.4512  -24.9104   19.3426 H   0  0  0  0  0  0
  -25.2959  -20.8367   17.2887 H   0  0  0  0  0  0
  -30.0313  -22.5218   20.1392 H   0  0  0  0  0  0
  1 25  1  0  0  0
  1 30  2  0  0  0
  1 88  1  0  0  0
  2  3  1  0  0  0
  2 25  1  0  0  0
  2 89  1  0  0  0
  2 90  1  0  0  0
  3  4  1  0  0  0
  3 91  1  0  0  0
  3 92  1  0  0  0
  4  5  1  0  0  0
  4 93  1  0  0  0
  4 94  1  0  0  0
  5  6  1  0  0  0
  5 26  1  0  0  0
  5 95  1  0  0  0
  6 25  1  0  0  0
  6 96  1  0  0  0
  6 97  1  0  0  0
  7  8  2  0  0  0
  7 26  1  0  0  0
  7 29  1  0  0  0
  8  9  1  0  0  0
  8 22  1  0  0  0
  9 10  1  0  0  0
  9 27  2  0  0  0
 10 11  2  0  0  0
 10 15  1  0  0  0
 11 12  1  0  0  0
 11 98  1  0  0  0
 12 13  2  0  0  0
 12 99  1  0  0  0
 13 14  1  0  0  0
 13 31  1  0  0  0
 14 15  2  0  0  0
 14100  1  0  0  0
 15101  1  0  0  0
 16 17  2  0  0  0
 16 21  1  0  0  0
 16 31  1  0  0  0
 17 18  1  0  0  0
 17102  1  0  0  0
 18 19  2  0  0  0
 18103  1  0  0  0
 19 20  1  0  0  0
 19 24  1  0  0  0
 20 21  2  0  0  0
 20104  1  0  0  0
 21 23  1  0  0  0
 22 28  1  0  0  0
 22 32  2  0  0  0
 26 27  1  0  0  0
 28105  1  0  0  0
 28106  1  0  0  0
 29107  1  0  0  0
 29108  1  0  0  0
 33 34  1  0  0  0
 33 66  1  0  0  0
 33 70  2  0  0  0
 34 36  1  0  0  0
 34 59  1  0  0  0
 34109  1  0  0  0
 35 44  2  0  0  0
 35 45  1  0  0  0
 35 68  1  0  0  0
 36 56  1  0  0  0
 36110  1  0  0  0
 37 39  1  0  0  0
 37 47  1  0  0  0
 37 66  1  0  0  0
 37111  1  0  0  0
 38 43  2  0  0  0
 38 46  1  0  0  0
 38 47  1  0  0  0
 39 64  1  0  0  0
 39 67  2  0  0  0
 40 52  1  0  0  0
 40 53  2  0  0  0
 40 58  1  0  0  0
 41112  1  0  0  0
 41113  1  0  0  0
 41114  1  0  0  0
 41 48  1  0  0  0
 42 43  1  0  0  0
 42 66  1  0  0  0
 42115  1  0  0  0
 42116  1  0  0  0
 43 44  1  0  0  0
 44117  1  0  0  0
 45 46  2  0  0  0
 45118  1  0  0  0
 46119  1  0  0  0
 47120  1  0  0  0
 47121  1  0  0  0
 48 56  1  0  0  0
 48 65  1  0  0  0
 48122  1  0  0  0
 49 50  1  0  0  0
 49 53  1  0  0  0
 49 64  1  0  0  0
 49123  1  0  0  0
 50 51  1  0  0  0
 50124  1  0  0  0
 50125  1  0  0  0
 51 52  1  0  0  0
 51126  1  0  0  0
 51127  1  0  0  0
 52128  1  0  0  0
 52129  1  0  0  0
 53 54  1  0  0  0
 54 55  2  0  0  0
 54130  1  0  0  0
 55 57  1  0  0  0
 55131  1  0  0  0
 56 69  2  0  0  0
 57 58  2  0  0  0
 57132  1  0  0  0
 58133  1  0  0  0
 59 60  1  0  0  0
 59 61  1  0  0  0
 59 62  1  0  0  0
 60134  1  0  0  0
 60135  1  0  0  0
 60136  1  0  0  0
 61137  1  0  0  0
 61138  1  0  0  0
 61139  1  0  0  0
 62140  1  0  0  0
 62141  1  0  0  0
 62142  1  0  0  0
 63 65  1  0  0  0
 63143  1  0  0  0
 63144  1  0  0  0
 63145  1  0  0  0
 64146  1  0  0  0
 65147  1  0  0  0
 68 84  1  0  0  0
 71 73  1  0  0  0
 71 74  2  0  0  0
 71148  1  0  0  0
 72 73  2  0  0  0
 72 87  1  0  0  0
 72149  1  0  0  0
 73 85  1  0  0  0
 74 86  1  0  0  0
 74 87  1  0  0  0
 75 79  1  0  0  0
 75150  1  0  0  0
 75151  1  0  0  0
 75152  1  0  0  0
 76 80  1  0  0  0
 76153  1  0  0  0
 76154  1  0  0  0
 76155  1  0  0  0
 77156  1  0  0  0
 77157  1  0  0  0
 77158  1  0  0  0
 77 86  1  0  0  0
 78 88  1  0  0  0
 78159  1  0  0  0
 78160  1  0  0  0
 78161  1  0  0  0
 79162  1  0  0  0
 79163  1  0  0  0
 79 85  1  0  0  0
 80 85  1  0  0  0
 80164  1  0  0  0
 80165  1  0  0  0
 81 84  1  0  0  0
 81 86  1  0  0  0
 81166  1  0  0  0
 81167  1  0  0  0
 82 83  1  0  0  0
 82 87  1  0  0  0
 82168  1  0  0  0
 82169  1  0  0  0
 83 88  1  0  0  0
 83170  1  0  0  0
 83171  1  0  0  0
 84172  1  0  0  0
 84173  1  0  0  0
 85174  1  0  0  0
 86175  1  0  0  0
M  ISO  4   1 100  68 101  84 101  88 100
M  END
> <chiral flag>
0

> <version>
0

> <s_m_source_file>
/data/baiqing/PycharmProjects/Reinvent-master-3.2/result/LINK_invent/BTK/process_docking_weight1_custom_sum_contain_oxygen_bond_distance_aromatic_linkinvent_7_9_3/rearranged_h_0100.sdf

> <i_m_source_file_index>
88

> <r_mmod_Potential_Energy-OPLS-2005>
388.665283203125

> <r_mmod_Stretch_Energy-OPLS-2005>
151.323699951172

> <r_mmod_Bend_Energy-OPLS-2005>
237.869659423828

> <r_mmod_Torsional_Energy-OPLS-2005>
321.327880859375

> <r_mmod_Improper_Torsional_Energy-OPLS-2005>
5.74501514434814

> <r_mmod_Van_der_Waal_Energy-OPLS-2005>
110.777770996094

> <r_mmod_Electrostatic_Energy-OPLS-2005>
-331.44189453125

> <r_mmod_Solvation_Energy-OPLS-2005>
-186.144409179688

> <b_mmod_Minimization_Converged-OPLS-2005>
0

> <r_mmod_RMS_Derivative-OPLS-2005>
1.33204436302185

$$$$
88
                    3D
 Structure written by MMmdl.
161168  0  0  1  0            999 V2000
  -30.5951  -14.8955   20.4213 C   0  0  0  0  0  0
  -30.4358  -12.5519   19.4909 C   0  0  0  0  0  0
  -29.5243  -12.5312   18.2460 C   0  0  0  0  0  0
  -28.0520  -12.3313   18.6581 C   0  0  0  0  0  0
  -27.6356  -13.2520   19.8366 C   0  0  2  0  0  0
  -28.6840  -13.2568   20.9704 C   0  0  0  0  0  0
  -25.2474  -13.8221   20.5714 C   0  0  0  0  0  0
  -24.1819  -13.0440   20.9272 C   0  0  0  0  0  0
  -24.6410  -11.6930   20.8744 C   0  0  0  0  0  0
  -23.9092  -10.4288   21.0378 C   0  0  0  0  0  0
  -24.3634   -9.4212   21.9154 C   0  0  0  0  0  0
  -23.6318   -8.2244   22.0740 C   0  0  0  0  0  0
  -22.4290   -8.0274   21.3545 C   0  0  0  0  0  0
  -21.9931   -9.0241   20.4639 C   0  0  0  0  0  0
  -22.7256  -10.2119   20.3039 C   0  0  0  0  0  0
  -21.6856   -6.0734   22.5286 C   0  0  0  0  0  0
  -21.4011   -6.5644   23.8219 C   0  0  0  0  0  0
  -21.3653   -5.6784   24.9188 C   0  0  0  0  0  0
  -21.6052   -4.3051   24.7230 C   0  0  0  0  0  0
  -21.8812   -3.8145   23.4351 C   0  0  0  0  0  0
  -21.9195   -4.6967   22.3405 C   0  0  0  0  0  0
  -22.7809  -13.5224   21.1870 C   0  0  0  0  0  0
  -22.1663   -4.2165   21.0978 F   0  0  0  0  0  0
  -21.5625   -3.4524   25.7740 F   0  0  0  0  0  0
  -29.9627  -13.6560   20.3702 N   0  0  0  0  0  0
  -26.2932  -12.9466   20.3248 N   0  0  0  0  0  0
  -25.9351  -11.6594   20.5730 N   0  0  0  0  0  0
  -22.0426  -12.8238   22.0428 N   0  0  0  0  0  0
  -25.4063  -15.1950   20.4039 N   0  0  0  0  0  0
  -31.8059  -14.9126   20.1799 O   0  0  0  0  0  0
  -21.6649   -6.8875   21.4245 O   0  0  0  0  0  0
  -22.3481  -14.5480   20.6636 O   0  0  0  0  0  0
  -24.6386  -31.8465   23.1897 C   0  0  0  0  0  0
  -25.9174  -32.4721   23.8296 C   0  0  1  0  0  0
  -27.1983  -27.1390   20.1738 C   0  0  0  0  0  0
  -25.5922  -33.8520   24.2200 N   0  0  0  0  0  0
  -23.4425  -30.4707   21.5304 C   0  0  2  0  0  0
  -24.8940  -28.9001   20.1084 C   0  0  0  0  0  0
  -22.7557  -29.4595   22.4828 C   0  0  0  0  0  0
  -18.0319  -28.1405   22.8498 C   0  0  0  0  0  0
  -24.1475  -36.7270   23.2645 C   0  0  0  0  0  0
  -25.9979  -30.7181   21.3947 C   0  0  0  0  0  0
  -26.0660  -29.3276   20.7477 C   0  0  0  0  0  0
  -27.2191  -28.4566   20.7790 C   0  0  0  0  0  0
  -26.0323  -26.8464   19.4343 C   0  0  0  0  0  0
  -24.8895  -27.6705   19.4370 C   0  0  0  0  0  0
  -23.6710  -29.8019   20.1484 C   0  0  0  0  0  0
  -25.4112  -36.3041   24.0327 C   0  0  1  0  0  0
  -20.5939  -28.3744   23.1243 C   0  0  2  0  0  0
  -20.6799  -26.9451   22.5399 C   0  0  0  0  0  0
  -19.5758  -26.6388   21.5216 C   0  0  0  0  0  0
  -18.1947  -26.7946   22.1640 C   0  0  0  0  0  0
  -19.1573  -28.8890   23.2859 C   0  0  0  0  0  0
  -18.9490  -30.1491   23.8882 C   0  0  0  0  0  0
  -17.6483  -30.6611   24.0585 C   0  0  0  0  0  0
  -25.9049  -34.9424   23.5084 C   0  0  0  0  0  0
  -16.5380  -29.9110   23.6355 C   0  0  0  0  0  0
  -16.7296  -28.6524   23.0380 C   0  0  0  0  0  0
  -26.4501  -31.6592   25.0733 C   0  0  0  0  0  0
  -25.3681  -31.3800   26.1431 C   0  0  0  0  0  0
  -27.0370  -30.2981   24.6313 C   0  0  0  0  0  0
  -27.6015  -32.4370   25.7533 C   0  0  0  0  0  0
  -27.5593  -37.1802   24.8472 C   0  0  0  0  0  0
  -21.4258  -29.3086   22.3604 N   0  0  0  0  0  0
  -26.4276  -37.3762   23.9429 N   0  0  0  0  0  0
  -24.7123  -31.0349   22.0930 N   0  0  0  0  0  0
  -23.4220  -28.8117   23.2949 O   0  0  0  0  0  0
  -28.2354  -26.1364   20.2065 O   0  0  0  0  0  0
  -26.5657  -34.8908   22.4657 O   0  0  0  0  0  0
  -23.5511  -32.1333   23.7134 O   0  0  0  0  0  0
  -26.2160  -23.1697   21.9707 C   0  0  0  0  0  0
  -31.1444  -17.7772   19.0506 C   0  0  0  0  0  0
  -28.7985  -24.9363   22.1627 C   0  0  0  0  0  0
  -26.5830  -24.3761   21.0854 C   0  0  0  0  0  0
  -29.3343  -19.0011   20.5835 C   0  0  0  0  0  0
  -29.2570  -20.5892   19.9533 C   0  0  0  0  0  0
  -28.7894  -23.3363   20.0943 C   0  0  0  0  0  0
  -30.3232  -17.6253   20.3595 C   0  0  1  0  0  0
  -28.0889  -24.6937   20.8167 C   0  0  1  0  0  0
  -29.8696  -16.1146   20.5221 N   0  0  0  0  0  0
  -28.7897  -21.8805   20.7366 N   0  3  0  0  0  0
  -31.4749  -12.6847   19.1825 H   0  0  0  0  0  0
  -30.4018  -11.5957   20.0155 H   0  0  0  0  0  0
  -29.8341  -11.7438   17.5596 H   0  0  0  0  0  0
  -29.6330  -13.4726   17.7037 H   0  0  0  0  0  0
  -27.9320  -11.2879   18.9515 H   0  0  0  0  0  0
  -27.3935  -12.4889   17.8041 H   0  0  0  0  0  0
  -27.6030  -14.2636   19.4262 H   0  0  0  0  0  0
  -28.7598  -12.2711   21.4384 H   0  0  0  0  0  0
  -28.3986  -13.9532   21.7592 H   0  0  0  0  0  0
  -25.2771   -9.5704   22.4742 H   0  0  0  0  0  0
  -24.0023   -7.4638   22.7469 H   0  0  0  0  0  0
  -21.0849   -8.8757   19.8959 H   0  0  0  0  0  0
  -22.3698  -10.9646   19.6143 H   0  0  0  0  0  0
  -21.2001   -7.6143   23.9754 H   0  0  0  0  0  0
  -21.1473   -6.0498   25.9095 H   0  0  0  0  0  0
  -22.0595   -2.7614   23.2852 H   0  0  0  0  0  0
  -22.4024  -11.9973   22.4952 H   0  0  0  0  0  0
  -21.0987  -13.1229   22.2460 H   0  0  0  0  0  0
  -24.6239  -15.8357   20.4880 H   0  0  0  0  0  0
  -26.2349  -15.6341   20.0225 H   0  0  0  0  0  0
  -26.7255  -32.5299   23.1050 H   0  0  0  0  0  0
  -25.0051  -33.9634   25.0342 H   0  0  0  0  0  0
  -22.7418  -31.2930   21.3776 H   0  0  0  0  0  0
  -23.3732  -35.9611   23.3285 H   0  0  0  0  0  0
  -24.3558  -36.8891   22.2058 H   0  0  0  0  0  0
  -23.7225  -37.6461   23.6694 H   0  0  0  0  0  0
  -26.1531  -31.4635   20.6121 H   0  0  0  0  0  0
  -26.8688  -30.7719   22.0351 H   0  0  0  0  0  0
  -28.1067  -28.7712   21.3110 H   0  0  0  0  0  0
  -25.9844  -25.9333   18.8592 H   0  0  0  0  0  0
  -24.0098  -27.3536   18.8944 H   0  0  0  0  0  0
  -23.8098  -30.5750   19.3909 H   0  0  0  0  0  0
  -22.7861  -29.2448   19.8335 H   0  0  0  0  0  0
  -25.1301  -36.1879   25.0826 H   0  0  0  0  0  0
  -21.0059  -28.3305   24.1340 H   0  0  0  0  0  0
  -20.5679  -26.2351   23.3604 H   0  0  0  0  0  0
  -21.6674  -26.7437   22.1211 H   0  0  0  0  0  0
  -19.6899  -25.6265   21.1283 H   0  0  0  0  0  0
  -19.6697  -27.3177   20.6716 H   0  0  0  0  0  0
  -17.4229  -26.6727   21.4028 H   0  0  0  0  0  0
  -18.0360  -26.0057   22.9008 H   0  0  0  0  0  0
  -19.7958  -30.7352   24.2216 H   0  0  0  0  0  0
  -17.5034  -31.6282   24.5197 H   0  0  0  0  0  0
  -15.5384  -30.3036   23.7657 H   0  0  0  0  0  0
  -15.8692  -28.0845   22.7120 H   0  0  0  0  0  0
  -24.5851  -30.7155   25.7784 H   0  0  0  0  0  0
  -24.8889  -32.2994   26.4812 H   0  0  0  0  0  0
  -25.7952  -30.9018   27.0249 H   0  0  0  0  0  0
  -26.3009  -29.6704   24.1287 H   0  0  0  0  0  0
  -27.3945  -29.7287   25.4904 H   0  0  0  0  0  0
  -27.8927  -30.4225   23.9663 H   0  0  0  0  0  0
  -27.2599  -33.3696   26.2045 H   0  0  0  0  0  0
  -28.3883  -32.6881   25.0408 H   0  0  0  0  0  0
  -28.0629  -31.8528   26.5501 H   0  0  0  0  0  0
  -28.2600  -38.0112   24.7544 H   0  0  0  0  0  0
  -28.1079  -36.2645   24.6262 H   0  0  0  0  0  0
  -27.2314  -37.1419   25.8867 H   0  0  0  0  0  0
  -20.9413  -29.8751   21.6781 H   0  0  0  0  0  0
  -26.0121  -38.2815   24.1431 H   0  0  0  0  0  0
  -25.1606  -23.2351   22.2438 H   0  0  0  0  0  0
  -26.7828  -23.1379   22.9006 H   0  0  0  0  0  0
  -26.3335  -22.2222   21.4507 H   0  0  0  0  0  0
  -31.5089  -18.7967   18.9138 H   0  0  0  0  0  0
  -30.5620  -17.5145   18.1642 H   0  0  0  0  0  0
  -32.0363  -17.1504   19.0504 H   0  0  0  0  0  0
  -28.8531  -24.0442   22.7873 H   0  0  0  0  0  0
  -28.2802  -25.7021   22.7398 H   0  0  0  0  0  0
  -29.8198  -25.2851   22.0082 H   0  0  0  0  0  0
  -26.1220  -25.2304   21.5816 H   0  0  0  0  0  0
  -26.0663  -24.2432   20.1377 H   0  0  0  0  0  0
  -30.2481  -19.4386   20.9896 H   0  0  0  0  0  0
  -29.0020  -18.7199   19.5860 H   0  0  0  0  0  0
  -28.5674  -20.5766   19.1044 H   0  0  0  0  0  0
  -30.2131  -20.8318   19.4880 H   0  0  0  0  0  0
  -29.8351  -23.5766   19.8975 H   0  0  0  0  0  0
  -28.3357  -23.2369   19.1078 H   0  0  0  0  0  0
  -31.0736  -17.6808   21.1552 H   0  0  0  0  0  0
  -28.8861  -15.9850   20.7161 H   0  0  0  0  0  0
  -29.3206  -21.9276   21.5931 H   0  0  0  0  0  0
  -27.8370  -21.6982   21.0113 H   0  0  0  0  0  0
  1 25  1  0  0  0
  1 30  2  0  0  0
  1 80  1  0  0  0
  2  3  1  0  0  0
  2 25  1  0  0  0
  2 82  1  0  0  0
  2 83  1  0  0  0
  3  4  1  0  0  0
  3 84  1  0  0  0
  3 85  1  0  0  0
  4  5  1  0  0  0
  4 86  1  0  0  0
  4 87  1  0  0  0
  5  6  1  0  0  0
  5 26  1  0  0  0
  5 88  1  0  0  0
  6 25  1  0  0  0
  6 89  1  0  0  0
  6 90  1  0  0  0
  7  8  2  0  0  0
  7 26  1  0  0  0
  7 29  1  0  0  0
  8  9  1  0  0  0
  8 22  1  0  0  0
  9 10  1  0  0  0
  9 27  2  0  0  0
 10 11  2  0  0  0
 10 15  1  0  0  0
 11 12  1  0  0  0
 11 91  1  0  0  0
 12 13  2  0  0  0
 12 92  1  0  0  0
 13 14  1  0  0  0
 13 31  1  0  0  0
 14 15  2  0  0  0
 14 93  1  0  0  0
 15 94  1  0  0  0
 16 17  2  0  0  0
 16 21  1  0  0  0
 16 31  1  0  0  0
 17 18  1  0  0  0
 17 95  1  0  0  0
 18 19  2  0  0  0
 18 96  1  0  0  0
 19 20  1  0  0  0
 19 24  1  0  0  0
 20 21  2  0  0  0
 20 97  1  0  0  0
 21 23  1  0  0  0
 22 28  1  0  0  0
 22 32  2  0  0  0
 26 27  1  0  0  0
 28 98  1  0  0  0
 28 99  1  0  0  0
 29100  1  0  0  0
 29101  1  0  0  0
 33 34  1  0  0  0
 33 66  1  0  0  0
 33 70  2  0  0  0
 34 36  1  0  0  0
 34 59  1  0  0  0
 34102  1  0  0  0
 35 44  2  0  0  0
 35 45  1  0  0  0
 35 68  1  0  0  0
 36 56  1  0  0  0
 36103  1  0  0  0
 37 39  1  0  0  0
 37 47  1  0  0  0
 37 66  1  0  0  0
 37104  1  0  0  0
 38 43  2  0  0  0
 38 46  1  0  0  0
 38 47  1  0  0  0
 39 64  1  0  0  0
 39 67  2  0  0  0
 40 52  1  0  0  0
 40 53  2  0  0  0
 40 58  1  0  0  0
 41105  1  0  0  0
 41106  1  0  0  0
 41107  1  0  0  0
 41 48  1  0  0  0
 42 43  1  0  0  0
 42 66  1  0  0  0
 42108  1  0  0  0
 42109  1  0  0  0
 43 44  1  0  0  0
 44110  1  0  0  0
 45 46  2  0  0  0
 45111  1  0  0  0
 46112  1  0  0  0
 47113  1  0  0  0
 47114  1  0  0  0
 48 56  1  0  0  0
 48 65  1  0  0  0
 48115  1  0  0  0
 49 50  1  0  0  0
 49 53  1  0  0  0
 49 64  1  0  0  0
 49116  1  0  0  0
 50 51  1  0  0  0
 50117  1  0  0  0
 50118  1  0  0  0
 51 52  1  0  0  0
 51119  1  0  0  0
 51120  1  0  0  0
 52121  1  0  0  0
 52122  1  0  0  0
 53 54  1  0  0  0
 54 55  2  0  0  0
 54123  1  0  0  0
 55 57  1  0  0  0
 55124  1  0  0  0
 56 69  2  0  0  0
 57 58  2  0  0  0
 57125  1  0  0  0
 58126  1  0  0  0
 59 60  1  0  0  0
 59 61  1  0  0  0
 59 62  1  0  0  0
 60127  1  0  0  0
 60128  1  0  0  0
 60129  1  0  0  0
 61130  1  0  0  0
 61131  1  0  0  0
 61132  1  0  0  0
 62133  1  0  0  0
 62134  1  0  0  0
 62135  1  0  0  0
 63 65  1  0  0  0
 63136  1  0  0  0
 63137  1  0  0  0
 63138  1  0  0  0
 64139  1  0  0  0
 65140  1  0  0  0
 68 79  1  0  0  0
 71 74  1  0  0  0
 71141  1  0  0  0
 71142  1  0  0  0
 71143  1  0  0  0
 72144  1  0  0  0
 72145  1  0  0  0
 72146  1  0  0  0
 72 78  1  0  0  0
 73147  1  0  0  0
 73148  1  0  0  0
 73149  1  0  0  0
 73 79  1  0  0  0
 74 79  1  0  0  0
 74150  1  0  0  0
 74151  1  0  0  0
 75 76  1  0  0  0
 75 78  1  0  0  0
 75152  1  0  0  0
 75153  1  0  0  0
 76 81  1  0  0  0
 76154  1  0  0  0
 76155  1  0  0  0
 77 79  1  0  0  0
 77 81  1  0  0  0
 77156  1  0  0  0
 77157  1  0  0  0
 78 80  1  0  0  0
 78158  1  0  0  0
 80159  1  0  0  0
 81160  1  0  0  0
 81161  1  0  0  0
M  CHG  1  81   1
M  ISO  4   1 100  68 101  79 101  80 100
M  END
> <chiral flag>
0

> <version>
0

> <s_m_source_file>
/data/baiqing/PycharmProjects/Reinvent-master-3.2/result/LINK_invent/BTK/process_docking_weight1_custom_sum_contain_oxygen_bond_distance_aromatic_linkinvent_7_9_3/rearranged_h_0100.sdf

> <i_m_source_file_index>
89

> <r_mmod_Potential_Energy-OPLS-2005>
644.467102050781

> <r_mmod_Stretch_Energy-OPLS-2005>
282.610565185547

> <r_mmod_Bend_Energy-OPLS-2005>
487.100524902344

> <r_mmod_Torsional_Energy-OPLS-2005>
263.138885498047

> <r_mmod_Improper_Torsional_Energy-OPLS-2005>
4.84609222412109

> <r_mmod_Van_der_Waal_Energy-OPLS-2005>
134.645446777344

> <r_mmod_Electrostatic_Energy-OPLS-2005>
-254.136505126953

> <r_mmod_Solvation_Energy-OPLS-2005>
-447.467651367188

> <b_mmod_Minimization_Converged-OPLS-2005>
0

> <r_mmod_RMS_Derivative-OPLS-2005>
4.99468946456909

$$$$
89
                    3D
 Structure written by MMmdl.
158166  0  0  1  0            999 V2000
  -30.6882  -14.5969   20.5624 C   0  0  0  0  0  0
  -30.4395  -12.3918   19.4385 C   0  0  0  0  0  0
  -29.5075  -12.5119   18.2159 C   0  0  0  0  0  0
  -28.0287  -12.3571   18.6282 C   0  0  0  0  0  0
  -27.6579  -13.2193   19.8652 C   0  0  2  0  0  0
  -28.7042  -13.0611   20.9887 C   0  0  0  0  0  0
  -25.2579  -13.8177   20.5664 C   0  0  0  0  0  0
  -24.1832  -13.0481   20.9184 C   0  0  0  0  0  0
  -24.6392  -11.6949   20.8753 C   0  0  0  0  0  0
  -23.9067  -10.4333   21.0433 C   0  0  0  0  0  0
  -24.3617   -9.4225   21.9197 C   0  0  0  0  0  0
  -23.6293   -8.2264   22.0772 C   0  0  0  0  0  0
  -22.4285   -8.0301   21.3541 C   0  0  0  0  0  0
  -21.9903   -9.0300   20.4667 C   0  0  0  0  0  0
  -22.7239  -10.2172   20.3079 C   0  0  0  0  0  0
  -21.6858   -6.0753   22.5290 C   0  0  0  0  0  0
  -21.4005   -6.5641   23.8224 C   0  0  0  0  0  0
  -21.3657   -5.6782   24.9178 C   0  0  0  0  0  0
  -21.6046   -4.3055   24.7218 C   0  0  0  0  0  0
  -21.8809   -3.8153   23.4338 C   0  0  0  0  0  0
  -21.9190   -4.6979   22.3396 C   0  0  0  0  0  0
  -22.7826  -13.5304   21.1787 C   0  0  0  0  0  0
  -22.1648   -4.2165   21.0968 F   0  0  0  0  0  0
  -21.5634   -3.4520   25.7722 F   0  0  0  0  0  0
  -30.0195  -13.4064   20.4272 N   0  0  0  0  0  0
  -26.3028  -12.9364   20.3326 N   0  0  0  0  0  0
  -25.9331  -11.6533   20.5776 N   0  0  0  0  0  0
  -22.0366  -12.8431   22.0353 N   0  0  0  0  0  0
  -25.4294  -15.1904   20.4046 N   0  0  0  0  0  0
  -31.8285  -14.7435   20.1190 O   0  0  0  0  0  0
  -21.6636   -6.8908   21.4259 O   0  0  0  0  0  0
  -22.3578  -14.5610   20.6580 O   0  0  0  0  0  0
  -24.6253  -31.8620   23.2039 C   0  0  0  0  0  0
  -25.9068  -32.4814   23.8390 C   0  0  1  0  0  0
  -27.2265  -27.3291   20.1049 C   0  0  0  0  0  0
  -25.5865  -33.8612   24.2293 N   0  0  0  0  0  0
  -23.4208  -30.4860   21.5461 C   0  0  2  0  0  0
  -24.8650  -28.9468   20.1117 C   0  0  0  0  0  0
  -22.7459  -29.4659   22.4943 C   0  0  0  0  0  0
  -18.0283  -28.1410   22.8505 C   0  0  0  0  0  0
  -24.1461  -36.7315   23.2639 C   0  0  0  0  0  0
  -25.9606  -30.7940   21.3744 C   0  0  0  0  0  0
  -26.0354  -29.4211   20.7183 C   0  0  0  0  0  0
  -27.2161  -28.6231   20.7115 C   0  0  0  0  0  0
  -26.0336  -26.9191   19.4588 C   0  0  0  0  0  0
  -24.8652  -27.6962   19.4792 C   0  0  0  0  0  0
  -23.6342  -29.8240   20.1616 C   0  0  0  0  0  0
  -25.4091  -36.3115   24.0335 C   0  0  1  0  0  0
  -20.5890  -28.3719   23.1284 C   0  0  2  0  0  0
  -20.6780  -26.9440   22.5414 C   0  0  0  0  0  0
  -19.5750  -26.6401   21.5226 C   0  0  0  0  0  0
  -18.1943  -26.7967   22.1640 C   0  0  0  0  0  0
  -19.1543  -28.8876   23.2903 C   0  0  0  0  0  0
  -18.9474  -30.1470   23.8930 C   0  0  0  0  0  0
  -17.6484  -30.6623   24.0585 C   0  0  0  0  0  0
  -25.9023  -34.9483   23.5124 C   0  0  0  0  0  0
  -16.5368  -29.9135   23.6327 C   0  0  0  0  0  0
  -16.7284  -28.6537   23.0368 C   0  0  0  0  0  0
  -26.4413  -31.6655   25.0780 C   0  0  0  0  0  0
  -25.3620  -31.3866   26.1507 C   0  0  0  0  0  0
  -27.0243  -30.3083   24.6250 C   0  0  0  0  0  0
  -27.5988  -32.4384   25.7544 C   0  0  0  0  0  0
  -27.5588  -37.1806   24.8453 C   0  0  0  0  0  0
  -21.4176  -29.3083   22.3678 N   0  0  0  0  0  0
  -26.4281  -37.3810   23.9419 N   0  0  0  0  0  0
  -24.6884  -31.0630   22.0982 N   0  0  0  0  0  0
  -23.4187  -28.8187   23.3015 O   0  0  0  0  0  0
  -28.3419  -26.4725   20.1675 O   0  0  0  0  0  0
  -26.5631  -34.8943   22.4707 O   0  0  0  0  0  0
  -23.5397  -32.1420   23.7345 O   0  0  0  0  0  0
  -28.9997  -19.0223   21.7670 C   0  0  0  0  0  0
  -30.0130  -18.3577   21.0254 C   0  0  0  0  0  0
  -30.1697  -20.4683   19.7043 C   0  0  0  0  0  0
  -30.5941  -19.1151   19.9648 C   0  0  0  0  0  0
  -29.1329  -21.0662   20.4845 C   0  0  0  0  0  0
  -30.8418  -21.3184   18.6313 C   0  0  0  0  0  0
  -30.5776  -16.9763   21.5234 C   0  0  0  0  0  0
  -28.4288  -22.4365   20.1609 C   0  0  0  0  0  0
  -29.0649  -23.8745   20.4289 C   0  0  0  0  0  0
  -28.1288  -25.0360   19.8729 C   0  0  0  0  0  0
  -28.6112  -20.2966   21.4769 N   0  3  0  0  0  0
  -31.6004  -18.5258   19.1948 N   0  0  0  0  0  0
  -30.0067  -15.6526   21.0973 N   0  0  0  0  0  0
  -31.4786  -12.5151   19.1321 H   0  0  0  0  0  0
  -30.3801  -11.3930   19.8706 H   0  0  0  0  0  0
  -29.7742  -11.7611   17.4699 H   0  0  0  0  0  0
  -29.6489  -13.4821   17.7397 H   0  0  0  0  0  0
  -27.8557  -11.3036   18.8483 H   0  0  0  0  0  0
  -27.3823  -12.5997   17.7844 H   0  0  0  0  0  0
  -27.6831  -14.2605   19.5431 H   0  0  0  0  0  0
  -28.7172  -12.0294   21.3475 H   0  0  0  0  0  0
  -28.4448  -13.6737   21.8543 H   0  0  0  0  0  0
  -25.2760   -9.5726   22.4773 H   0  0  0  0  0  0
  -23.9996   -7.4675   22.7512 H   0  0  0  0  0  0
  -21.0817   -8.8863   19.8999 H   0  0  0  0  0  0
  -22.3715  -10.9727   19.6200 H   0  0  0  0  0  0
  -21.1984   -7.6139   23.9752 H   0  0  0  0  0  0
  -21.1480   -6.0481   25.9086 H   0  0  0  0  0  0
  -22.0594   -2.7624   23.2811 H   0  0  0  0  0  0
  -22.3885  -12.0154   22.4920 H   0  0  0  0  0  0
  -21.0975  -13.1575   22.2403 H   0  0  0  0  0  0
  -24.6604  -15.8424   20.5124 H   0  0  0  0  0  0
  -26.2740  -15.6281   20.0579 H   0  0  0  0  0  0
  -26.7164  -32.5485   23.1174 H   0  0  0  0  0  0
  -24.9941  -33.9760   25.0394 H   0  0  0  0  0  0
  -22.7183  -31.3088   21.4042 H   0  0  0  0  0  0
  -23.3736  -35.9629   23.3271 H   0  0  0  0  0  0
  -24.3584  -36.8966   22.2064 H   0  0  0  0  0  0
  -23.7178  -37.6494   23.6674 H   0  0  0  0  0  0
  -26.0863  -31.5523   20.6004 H   0  0  0  0  0  0
  -26.8445  -30.8493   22.0000 H   0  0  0  0  0  0
  -28.1114  -28.9830   21.2023 H   0  0  0  0  0  0
  -25.9640  -25.9793   18.9314 H   0  0  0  0  0  0
  -23.9722  -27.3239   18.9968 H   0  0  0  0  0  0
  -23.7557  -30.6016   19.4045 H   0  0  0  0  0  0
  -22.7537  -29.2518   19.8616 H   0  0  0  0  0  0
  -25.1260  -36.1995   25.0834 H   0  0  0  0  0  0
  -21.0005  -28.3287   24.1388 H   0  0  0  0  0  0
  -20.5687  -26.2328   23.3608 H   0  0  0  0  0  0
  -21.6648  -26.7482   22.1194 H   0  0  0  0  0  0
  -19.6896  -25.6298   21.1283 H   0  0  0  0  0  0
  -19.6690  -27.3182   20.6730 H   0  0  0  0  0  0
  -17.4197  -26.6715   21.4047 H   0  0  0  0  0  0
  -18.0349  -26.0125   22.9047 H   0  0  0  0  0  0
  -19.7950  -30.7277   24.2332 H   0  0  0  0  0  0
  -17.5041  -31.6303   24.5181 H   0  0  0  0  0  0
  -15.5371  -30.3059   23.7625 H   0  0  0  0  0  0
  -15.8683  -28.0862   22.7084 H   0  0  0  0  0  0
  -24.5739  -30.7268   25.7852 H   0  0  0  0  0  0
  -24.8838  -32.3056   26.4909 H   0  0  0  0  0  0
  -25.7882  -30.9055   27.0318 H   0  0  0  0  0  0
  -26.2851  -29.6917   24.1118 H   0  0  0  0  0  0
  -27.3765  -29.7285   25.4795 H   0  0  0  0  0  0
  -27.8777  -30.4405   23.9605 H   0  0  0  0  0  0
  -27.2614  -33.3693   26.2140 H   0  0  0  0  0  0
  -28.3768  -32.6962   25.0336 H   0  0  0  0  0  0
  -28.0676  -31.8500   26.5448 H   0  0  0  0  0  0
  -28.2573  -38.0138   24.7547 H   0  0  0  0  0  0
  -28.1118  -36.2671   24.6199 H   0  0  0  0  0  0
  -27.2333  -37.1366   25.8865 H   0  0  0  0  0  0
  -20.9348  -29.8832   21.6917 H   0  0  0  0  0  0
  -26.0167  -38.2880   24.1454 H   0  0  0  0  0  0
  -28.5054  -18.5731   22.6172 H   0  0  0  0  0  0
  -31.2951  -22.1907   19.1009 H   0  0  0  0  0  0
  -30.1198  -21.6679   17.8927 H   0  0  0  0  0  0
  -31.6491  -20.8057   18.1105 H   0  0  0  0  0  0
  -30.4539  -17.0000   22.6063 H   0  0  0  0  0  0
  -31.6615  -16.9749   21.3941 H   0  0  0  0  0  0
  -27.4951  -22.4263   20.7256 H   0  0  0  0  0  0
  -28.1039  -22.3863   19.1189 H   0  0  0  0  0  0
  -30.0535  -23.9606   19.9766 H   0  0  0  0  0  0
  -29.2205  -24.0084   21.5011 H   0  0  0  0  0  0
  -27.1363  -24.7519   20.2242 H   0  0  0  0  0  0
  -28.1028  -24.9403   18.7846 H   0  0  0  0  0  0
  -27.8549  -20.6931   22.0382 H   0  0  0  0  0  0
  -31.7609  -17.5365   19.3355 H   0  0  0  0  0  0
  -31.5973  -18.7532   18.2078 H   0  0  0  0  0  0
  -29.0708  -15.4461   21.4081 H   0  0  0  0  0  0
  1 25  1  0  0  0
  1 30  2  0  0  0
  1 83  1  0  0  0
  2  3  1  0  0  0
  2 25  1  0  0  0
  2 84  1  0  0  0
  2 85  1  0  0  0
  3  4  1  0  0  0
  3 86  1  0  0  0
  3 87  1  0  0  0
  4  5  1  0  0  0
  4 88  1  0  0  0
  4 89  1  0  0  0
  5  6  1  0  0  0
  5 26  1  0  0  0
  5 90  1  0  0  0
  6 25  1  0  0  0
  6 91  1  0  0  0
  6 92  1  0  0  0
  7  8  2  0  0  0
  7 26  1  0  0  0
  7 29  1  0  0  0
  8  9  1  0  0  0
  8 22  1  0  0  0
  9 10  1  0  0  0
  9 27  2  0  0  0
 10 11  2  0  0  0
 10 15  1  0  0  0
 11 12  1  0  0  0
 11 93  1  0  0  0
 12 13  2  0  0  0
 12 94  1  0  0  0
 13 14  1  0  0  0
 13 31  1  0  0  0
 14 15  2  0  0  0
 14 95  1  0  0  0
 15 96  1  0  0  0
 16 17  2  0  0  0
 16 21  1  0  0  0
 16 31  1  0  0  0
 17 18  1  0  0  0
 17 97  1  0  0  0
 18 19  2  0  0  0
 18 98  1  0  0  0
 19 20  1  0  0  0
 19 24  1  0  0  0
 20 21  2  0  0  0
 20 99  1  0  0  0
 21 23  1  0  0  0
 22 28  1  0  0  0
 22 32  2  0  0  0
 26 27  1  0  0  0
 28100  1  0  0  0
 28101  1  0  0  0
 29102  1  0  0  0
 29103  1  0  0  0
 33 34  1  0  0  0
 33 66  1  0  0  0
 33 70  2  0  0  0
 34 36  1  0  0  0
 34 59  1  0  0  0
 34104  1  0  0  0
 35 44  2  0  0  0
 35 45  1  0  0  0
 35 68  1  0  0  0
 36 56  1  0  0  0
 36105  1  0  0  0
 37 39  1  0  0  0
 37 47  1  0  0  0
 37 66  1  0  0  0
 37106  1  0  0  0
 38 43  2  0  0  0
 38 46  1  0  0  0
 38 47  1  0  0  0
 39 64  1  0  0  0
 39 67  2  0  0  0
 40 52  1  0  0  0
 40 53  2  0  0  0
 40 58  1  0  0  0
 41107  1  0  0  0
 41108  1  0  0  0
 41109  1  0  0  0
 41 48  1  0  0  0
 42 43  1  0  0  0
 42 66  1  0  0  0
 42110  1  0  0  0
 42111  1  0  0  0
 43 44  1  0  0  0
 44112  1  0  0  0
 45 46  2  0  0  0
 45113  1  0  0  0
 46114  1  0  0  0
 47115  1  0  0  0
 47116  1  0  0  0
 48 56  1  0  0  0
 48 65  1  0  0  0
 48117  1  0  0  0
 49 50  1  0  0  0
 49 53  1  0  0  0
 49 64  1  0  0  0
 49118  1  0  0  0
 50 51  1  0  0  0
 50119  1  0  0  0
 50120  1  0  0  0
 51 52  1  0  0  0
 51121  1  0  0  0
 51122  1  0  0  0
 52123  1  0  0  0
 52124  1  0  0  0
 53 54  1  0  0  0
 54 55  2  0  0  0
 54125  1  0  0  0
 55 57  1  0  0  0
 55126  1  0  0  0
 56 69  2  0  0  0
 57 58  2  0  0  0
 57127  1  0  0  0
 58128  1  0  0  0
 59 60  1  0  0  0
 59 61  1  0  0  0
 59 62  1  0  0  0
 60129  1  0  0  0
 60130  1  0  0  0
 60131  1  0  0  0
 61132  1  0  0  0
 61133  1  0  0  0
 61134  1  0  0  0
 62135  1  0  0  0
 62136  1  0  0  0
 62137  1  0  0  0
 63 65  1  0  0  0
 63138  1  0  0  0
 63139  1  0  0  0
 63140  1  0  0  0
 64141  1  0  0  0
 65142  1  0  0  0
 68 80  1  0  0  0
 71 72  2  0  0  0
 71 81  1  0  0  0
 71143  1  0  0  0
 72 74  1  0  0  0
 72 77  1  0  0  0
 73 74  2  0  0  0
 73 75  1  0  0  0
 73 76  1  0  0  0
 74 82  1  0  0  0
 75 78  1  0  0  0
 75 81  2  0  0  0
 76144  1  0  0  0
 76145  1  0  0  0
 76146  1  0  0  0
 77 83  1  0  0  0
 77147  1  0  0  0
 77148  1  0  0  0
 78 79  1  0  0  0
 78149  1  0  0  0
 78150  1  0  0  0
 79 80  1  0  0  0
 79151  1  0  0  0
 79152  1  0  0  0
 80153  1  0  0  0
 80154  1  0  0  0
 81155  1  0  0  0
 82156  1  0  0  0
 82157  1  0  0  0
 83158  1  0  0  0
M  CHG  1  81   1
M  ISO  4   1 100  68 101  80 101  83 100
M  END
> <chiral flag>
0

> <version>
0

> <s_m_source_file>
/data/baiqing/PycharmProjects/Reinvent-master-3.2/result/LINK_invent/BTK/process_docking_weight1_custom_sum_contain_oxygen_bond_distance_aromatic_linkinvent_7_9_3/rearranged_h_0100.sdf

> <i_m_source_file_index>
90

> <r_mmod_Potential_Energy-OPLS-2005>
-57.2851791381836

> <r_mmod_Stretch_Energy-OPLS-2005>
80.2478256225586

> <r_mmod_Bend_Energy-OPLS-2005>
151.216934204102

> <r_mmod_Torsional_Energy-OPLS-2005>
208.617477416992

> <r_mmod_Improper_Torsional_Energy-OPLS-2005>
9.31745910644531

> <r_mmod_Van_der_Waal_Energy-OPLS-2005>
155.050033569336

> <r_mmod_Electrostatic_Energy-OPLS-2005>
-270.519226074219

> <r_mmod_Solvation_Energy-OPLS-2005>
-432.360260009766

> <b_mmod_Minimization_Converged-OPLS-2005>
0

> <r_mmod_RMS_Derivative-OPLS-2005>
5.45402669906616

$$$$
90
                    3D
 Structure written by MMmdl.
162171  0  0  1  0            999 V2000
  -30.6891  -14.6555   20.5157 C   0  0  0  0  0  0
  -30.4161  -12.4221   19.4377 C   0  0  0  0  0  0
  -29.4871  -12.4962   18.2085 C   0  0  0  0  0  0
  -28.0165  -12.3131   18.6303 C   0  0  0  0  0  0
  -27.6394  -13.1967   19.8465 C   0  0  2  0  0  0
  -28.6967  -13.0756   20.9740 C   0  0  0  0  0  0
  -25.2469  -13.8098   20.5635 C   0  0  0  0  0  0
  -24.1760  -13.0382   20.9225 C   0  0  0  0  0  0
  -24.6328  -11.6854   20.8797 C   0  0  0  0  0  0
  -23.8998  -10.4250   21.0467 C   0  0  0  0  0  0
  -24.3586   -9.4156   21.9222 C   0  0  0  0  0  0
  -23.6267   -8.2194   22.0758 C   0  0  0  0  0  0
  -22.4244   -8.0248   21.3559 C   0  0  0  0  0  0
  -21.9858   -9.0232   20.4685 C   0  0  0  0  0  0
  -22.7176  -10.2109   20.3102 C   0  0  0  0  0  0
  -21.6846   -6.0713   22.5297 C   0  0  0  0  0  0
  -21.4007   -6.5625   23.8231 C   0  0  0  0  0  0
  -21.3673   -5.6786   24.9196 C   0  0  0  0  0  0
  -21.6050   -4.3052   24.7257 C   0  0  0  0  0  0
  -21.8818   -3.8132   23.4382 C   0  0  0  0  0  0
  -21.9180   -4.6941   22.3429 C   0  0  0  0  0  0
  -22.7793  -13.5205   21.1898 C   0  0  0  0  0  0
  -22.1636   -4.2108   21.1008 F   0  0  0  0  0  0
  -21.5629   -3.4546   25.7781 F   0  0  0  0  0  0
  -29.9808  -13.4770   20.3883 N   0  0  0  0  0  0
  -26.2893  -12.9260   20.3268 N   0  0  0  0  0  0
  -25.9245  -11.6440   20.5798 N   0  0  0  0  0  0
  -22.0453  -12.8234   22.0492 N   0  0  0  0  0  0
  -25.4063  -15.1811   20.3955 N   0  0  0  0  0  0
  -31.8791  -14.6443   20.1833 O   0  0  0  0  0  0
  -21.6607   -6.8851   21.4256 O   0  0  0  0  0  0
  -22.3479  -14.5505   20.6727 O   0  0  0  0  0  0
  -24.6222  -31.8632   23.2043 C   0  0  0  0  0  0
  -25.9093  -32.4791   23.8365 C   0  0  1  0  0  0
  -27.2357  -27.3697   20.1203 C   0  0  0  0  0  0
  -25.5930  -33.8586   24.2314 N   0  0  0  0  0  0
  -23.4127  -30.4859   21.5454 C   0  0  2  0  0  0
  -24.8635  -28.9402   20.1156 C   0  0  0  0  0  0
  -22.7436  -29.4650   22.4952 C   0  0  0  0  0  0
  -18.0274  -28.1386   22.8482 C   0  0  0  0  0  0
  -24.1481  -36.7275   23.2633 C   0  0  0  0  0  0
  -25.9465  -30.8140   21.3644 C   0  0  0  0  0  0
  -26.0276  -29.4406   20.7137 C   0  0  0  0  0  0
  -27.2201  -28.6663   20.7042 C   0  0  0  0  0  0
  -26.0542  -26.9006   19.5096 C   0  0  0  0  0  0
  -24.8747  -27.6730   19.5059 C   0  0  0  0  0  0
  -23.6268  -29.8145   20.1616 C   0  0  0  0  0  0
  -25.4104  -36.3081   24.0333 C   0  0  1  0  0  0
  -20.5869  -28.3687   23.1292 C   0  0  2  0  0  0
  -20.6755  -26.9412   22.5409 C   0  0  0  0  0  0
  -19.5740  -26.6386   21.5197 C   0  0  0  0  0  0
  -18.1921  -26.7933   22.1615 C   0  0  0  0  0  0
  -19.1523  -28.8849   23.2891 C   0  0  0  0  0  0
  -18.9455  -30.1450   23.8918 C   0  0  0  0  0  0
  -17.6458  -30.6593   24.0563 C   0  0  0  0  0  0
  -25.9031  -34.9449   23.5112 C   0  0  0  0  0  0
  -16.5347  -29.9097   23.6324 C   0  0  0  0  0  0
  -16.7266  -28.6508   23.0354 C   0  0  0  0  0  0
  -26.4503  -31.6580   25.0701 C   0  0  0  0  0  0
  -25.3754  -31.3719   26.1439 C   0  0  0  0  0  0
  -27.0335  -30.3009   24.6100 C   0  0  0  0  0  0
  -27.6074  -32.4295   25.7488 C   0  0  0  0  0  0
  -27.5577  -37.1785   24.8472 C   0  0  0  0  0  0
  -21.4156  -29.3055   22.3696 N   0  0  0  0  0  0
  -26.4290  -37.3767   23.9408 N   0  0  0  0  0  0
  -24.6789  -31.0690   22.0971 N   0  0  0  0  0  0
  -23.4178  -28.8202   23.3026 O   0  0  0  0  0  0
  -28.3657  -26.5574   20.1309 O   0  0  0  0  0  0
  -26.5589  -34.8908   22.4671 O   0  0  0  0  0  0
  -23.5394  -32.1425   23.7387 O   0  0  0  0  0  0
  -28.7511  -21.3415   20.5962 C   0  0  0  0  0  0
  -26.8991  -22.5842   21.5265 C   0  0  0  0  0  0
  -28.3066  -20.1738   21.3132 C   0  0  0  0  0  0
  -28.0484  -22.5906   20.7222 C   0  0  0  0  0  0
  -27.1686  -20.3645   22.1478 C   0  0  0  0  0  0
  -28.1522  -17.5722   20.8434 C   0  0  0  0  0  0
  -30.3365  -18.5439   20.5571 C   0  0  0  0  0  0
  -28.7470  -16.2116   21.3047 C   0  0  0  0  0  0
  -30.9720  -17.1252   20.8354 C   0  0  0  0  0  0
  -29.0148  -18.7644   21.3132 C   0  0  0  0  0  0
  -26.5934  -19.2993   23.0717 C   0  0  0  0  0  0
  -28.4174  -23.9272   19.9943 C   0  0  0  0  0  0
  -28.2358  -25.2709   20.8195 C   0  0  0  0  0  0
  -26.4837  -21.5190   22.2248 N   0  0  0  0  0  0
  -30.0956  -15.8998   20.7714 N   0  0  0  0  0  0
  -31.4520  -12.5346   19.1150 H   0  0  0  0  0  0
  -30.3633  -11.4351   19.9000 H   0  0  0  0  0  0
  -29.7615  -11.7333   17.4780 H   0  0  0  0  0  0
  -29.6100  -13.4595   17.7100 H   0  0  0  0  0  0
  -27.8733  -11.2614   18.8820 H   0  0  0  0  0  0
  -27.3527  -12.5169   17.7885 H   0  0  0  0  0  0
  -27.6425  -14.2082   19.4448 H   0  0  0  0  0  0
  -28.7476  -12.0434   21.3233 H   0  0  0  0  0  0
  -28.4519  -13.6445   21.8699 H   0  0  0  0  0  0
  -25.2737   -9.5599   22.4793 H   0  0  0  0  0  0
  -23.9979   -7.4564   22.7455 H   0  0  0  0  0  0
  -21.0781   -8.8776   19.8992 H   0  0  0  0  0  0
  -22.3641  -10.9654   19.6205 H   0  0  0  0  0  0
  -21.1992   -7.6132   23.9733 H   0  0  0  0  0  0
  -21.1497   -6.0508   25.9104 H   0  0  0  0  0  0
  -22.0576   -2.7585   23.2899 H   0  0  0  0  0  0
  -22.4053  -11.9917   22.4945 H   0  0  0  0  0  0
  -21.1058  -13.1270   22.2669 H   0  0  0  0  0  0
  -24.6233  -15.8173   20.4956 H   0  0  0  0  0  0
  -26.2355  -15.6254   20.0249 H   0  0  0  0  0  0
  -26.7163  -32.5500   23.1132 H   0  0  0  0  0  0
  -25.0144  -33.9738   25.0502 H   0  0  0  0  0  0
  -22.7045  -31.3031   21.3992 H   0  0  0  0  0  0
  -23.3740  -35.9607   23.3309 H   0  0  0  0  0  0
  -24.3581  -36.8871   22.2041 H   0  0  0  0  0  0
  -23.7223  -37.6471   23.6653 H   0  0  0  0  0  0
  -26.0592  -31.5773   20.5939 H   0  0  0  0  0  0
  -26.8330  -30.8732   21.9843 H   0  0  0  0  0  0
  -28.1187  -29.0448   21.1727 H   0  0  0  0  0  0
  -26.0468  -25.9271   19.0397 H   0  0  0  0  0  0
  -23.9822  -27.2839   19.0370 H   0  0  0  0  0  0
  -23.7411  -30.5879   19.4009 H   0  0  0  0  0  0
  -22.7497  -29.2382   19.8627 H   0  0  0  0  0  0
  -25.1271  -36.1932   25.0822 H   0  0  0  0  0  0
  -20.9969  -28.3277   24.1407 H   0  0  0  0  0  0
  -20.5630  -26.2299   23.3609 H   0  0  0  0  0  0
  -21.6632  -26.7443   22.1214 H   0  0  0  0  0  0
  -19.6907  -25.6293   21.1231 H   0  0  0  0  0  0
  -19.6679  -27.3201   20.6728 H   0  0  0  0  0  0
  -17.4181  -26.6669   21.4027 H   0  0  0  0  0  0
  -18.0344  -26.0072   22.9013 H   0  0  0  0  0  0
  -19.7939  -30.7243   24.2305 H   0  0  0  0  0  0
  -17.5027  -31.6279   24.5158 H   0  0  0  0  0  0
  -15.5355  -30.3017   23.7629 H   0  0  0  0  0  0
  -15.8658  -28.0834   22.7072 H   0  0  0  0  0  0
  -24.5928  -30.7063   25.7786 H   0  0  0  0  0  0
  -24.8943  -32.2883   26.4869 H   0  0  0  0  0  0
  -25.8079  -30.8907   27.0215 H   0  0  0  0  0  0
  -26.2897  -29.6756   24.1137 H   0  0  0  0  0  0
  -27.4085  -29.7260   25.4574 H   0  0  0  0  0  0
  -27.8743  -30.4298   23.9273 H   0  0  0  0  0  0
  -27.2701  -33.3590   26.2090 H   0  0  0  0  0  0
  -28.3899  -32.6857   25.0333 H   0  0  0  0  0  0
  -28.0728  -31.8387   26.5387 H   0  0  0  0  0  0
  -28.2592  -38.0085   24.7507 H   0  0  0  0  0  0
  -28.1073  -36.2606   24.6316 H   0  0  0  0  0  0
  -27.2294  -37.1454   25.8878 H   0  0  0  0  0  0
  -20.9331  -29.8779   21.6912 H   0  0  0  0  0  0
  -26.0169  -38.2831   24.1439 H   0  0  0  0  0  0
  -29.6240  -21.2807   19.9621 H   0  0  0  0  0  0
  -26.2693  -23.4528   21.6326 H   0  0  0  0  0  0
  -27.1363  -17.6306   21.2208 H   0  0  0  0  0  0
  -28.0363  -17.5921   19.7584 H   0  0  0  0  0  0
  -30.1779  -18.6692   19.4846 H   0  0  0  0  0  0
  -31.0565  -19.3100   20.8464 H   0  0  0  0  0  0
  -28.0024  -15.4900   21.0255 H   0  0  0  0  0  0
  -28.7957  -16.1827   22.3936 H   0  0  0  0  0  0
  -31.4049  -17.1393   21.8373 H   0  0  0  0  0  0
  -31.8215  -17.0387   20.1568 H   0  0  0  0  0  0
  -29.2637  -18.6032   22.3632 H   0  0  0  0  0  0
  -25.7945  -18.7529   22.5700 H   0  0  0  0  0  0
  -27.3375  -18.5896   23.4262 H   0  0  0  0  0  0
  -26.1607  -19.7559   23.9622 H   0  0  0  0  0  0
  -27.7923  -23.9871   19.1029 H   0  0  0  0  0  0
  -29.4439  -23.8610   19.6338 H   0  0  0  0  0  0
  -28.9789  -25.2726   21.6186 H   0  0  0  0  0  0
  -27.2818  -25.2685   21.3419 H   0  0  0  0  0  0
  1 25  1  0  0  0
  1 30  2  0  0  0
  1 85  1  0  0  0
  2  3  1  0  0  0
  2 25  1  0  0  0
  2 86  1  0  0  0
  2 87  1  0  0  0
  3  4  1  0  0  0
  3 88  1  0  0  0
  3 89  1  0  0  0
  4  5  1  0  0  0
  4 90  1  0  0  0
  4 91  1  0  0  0
  5  6  1  0  0  0
  5 26  1  0  0  0
  5 92  1  0  0  0
  6 25  1  0  0  0
  6 93  1  0  0  0
  6 94  1  0  0  0
  7  8  2  0  0  0
  7 26  1  0  0  0
  7 29  1  0  0  0
  8  9  1  0  0  0
  8 22  1  0  0  0
  9 10  1  0  0  0
  9 27  2  0  0  0
 10 11  2  0  0  0
 10 15  1  0  0  0
 11 12  1  0  0  0
 11 95  1  0  0  0
 12 13  2  0  0  0
 12 96  1  0  0  0
 13 14  1  0  0  0
 13 31  1  0  0  0
 14 15  2  0  0  0
 14 97  1  0  0  0
 15 98  1  0  0  0
 16 17  2  0  0  0
 16 21  1  0  0  0
 16 31  1  0  0  0
 17 18  1  0  0  0
 17 99  1  0  0  0
 18 19  2  0  0  0
 18100  1  0  0  0
 19 20  1  0  0  0
 19 24  1  0  0  0
 20 21  2  0  0  0
 20101  1  0  0  0
 21 23  1  0  0  0
 22 28  1  0  0  0
 22 32  2  0  0  0
 26 27  1  0  0  0
 28102  1  0  0  0
 28103  1  0  0  0
 29104  1  0  0  0
 29105  1  0  0  0
 33 34  1  0  0  0
 33 66  1  0  0  0
 33 70  2  0  0  0
 34 36  1  0  0  0
 34 59  1  0  0  0
 34106  1  0  0  0
 35 44  2  0  0  0
 35 45  1  0  0  0
 35 68  1  0  0  0
 36 56  1  0  0  0
 36107  1  0  0  0
 37 39  1  0  0  0
 37 47  1  0  0  0
 37 66  1  0  0  0
 37108  1  0  0  0
 38 43  2  0  0  0
 38 46  1  0  0  0
 38 47  1  0  0  0
 39 64  1  0  0  0
 39 67  2  0  0  0
 40 52  1  0  0  0
 40 53  2  0  0  0
 40 58  1  0  0  0
 41109  1  0  0  0
 41110  1  0  0  0
 41111  1  0  0  0
 41 48  1  0  0  0
 42 43  1  0  0  0
 42 66  1  0  0  0
 42112  1  0  0  0
 42113  1  0  0  0
 43 44  1  0  0  0
 44114  1  0  0  0
 45 46  2  0  0  0
 45115  1  0  0  0
 46116  1  0  0  0
 47117  1  0  0  0
 47118  1  0  0  0
 48 56  1  0  0  0
 48 65  1  0  0  0
 48119  1  0  0  0
 49 50  1  0  0  0
 49 53  1  0  0  0
 49 64  1  0  0  0
 49120  1  0  0  0
 50 51  1  0  0  0
 50121  1  0  0  0
 50122  1  0  0  0
 51 52  1  0  0  0
 51123  1  0  0  0
 51124  1  0  0  0
 52125  1  0  0  0
 52126  1  0  0  0
 53 54  1  0  0  0
 54 55  2  0  0  0
 54127  1  0  0  0
 55 57  1  0  0  0
 55128  1  0  0  0
 56 69  2  0  0  0
 57 58  2  0  0  0
 57129  1  0  0  0
 58130  1  0  0  0
 59 60  1  0  0  0
 59 61  1  0  0  0
 59 62  1  0  0  0
 60131  1  0  0  0
 60132  1  0  0  0
 60133  1  0  0  0
 61134  1  0  0  0
 61135  1  0  0  0
 61136  1  0  0  0
 62137  1  0  0  0
 62138  1  0  0  0
 62139  1  0  0  0
 63 65  1  0  0  0
 63140  1  0  0  0
 63141  1  0  0  0
 63142  1  0  0  0
 64143  1  0  0  0
 65144  1  0  0  0
 68 83  1  0  0  0
 71 73  2  0  0  0
 71 74  1  0  0  0
 71145  1  0  0  0
 72 74  2  0  0  0
 72 84  1  0  0  0
 72146  1  0  0  0
 73 75  1  0  0  0
 73 80  1  0  0  0
 74 82  1  0  0  0
 75 81  1  0  0  0
 75 84  2  0  0  0
 76 78  1  0  0  0
 76 80  1  0  0  0
 76147  1  0  0  0
 76148  1  0  0  0
 77 79  1  0  0  0
 77 80  1  0  0  0
 77149  1  0  0  0
 77150  1  0  0  0
 78 85  1  0  0  0
 78151  1  0  0  0
 78152  1  0  0  0
 79 85  1  0  0  0
 79153  1  0  0  0
 79154  1  0  0  0
 80155  1  0  0  0
 81156  1  0  0  0
 81157  1  0  0  0
 81158  1  0  0  0
 82 83  1  0  0  0
 82159  1  0  0  0
 82160  1  0  0  0
 83161  1  0  0  0
 83162  1  0  0  0
M  ISO  4   1 100  68 101  83 101  85 100
M  END
> <chiral flag>
0

> <version>
0

> <s_m_source_file>
/data/baiqing/PycharmProjects/Reinvent-master-3.2/result/LINK_invent/BTK/process_docking_weight1_custom_sum_contain_oxygen_bond_distance_aromatic_linkinvent_7_9_3/rearranged_h_0100.sdf

> <i_m_source_file_index>
91

> <r_mmod_Potential_Energy-OPLS-2005>
140.108245849609

> <r_mmod_Stretch_Energy-OPLS-2005>
81.9278411865234

> <r_mmod_Bend_Energy-OPLS-2005>
177.274627685547

> <r_mmod_Torsional_Energy-OPLS-2005>
311.866882324219

> <r_mmod_Improper_Torsional_Energy-OPLS-2005>
5.93967723846436

> <r_mmod_Van_der_Waal_Energy-OPLS-2005>
171.64778137207

> <r_mmod_Electrostatic_Energy-OPLS-2005>
-439.407836914062

> <r_mmod_Solvation_Energy-OPLS-2005>
-213.144836425781

> <b_mmod_Minimization_Converged-OPLS-2005>
0

> <r_mmod_RMS_Derivative-OPLS-2005>
2.23384141921997

$$$$
91
                    3D
 Structure written by MMmdl.
168176  0  0  1  0            999 V2000
  -30.6002  -14.7399   20.3642 C   0  0  0  0  0  0
  -30.4390  -12.4276   19.4591 C   0  0  0  0  0  0
  -29.5035  -12.4085   18.2301 C   0  0  0  0  0  0
  -28.0277  -12.2822   18.6537 C   0  0  0  0  0  0
  -27.6368  -13.2098   19.8362 C   0  0  2  0  0  0
  -28.6907  -13.1827   20.9609 C   0  0  0  0  0  0
  -25.2586  -13.8050   20.5813 C   0  0  0  0  0  0
  -24.1809  -13.0362   20.9217 C   0  0  0  0  0  0
  -24.6360  -11.6838   20.8736 C   0  0  0  0  0  0
  -23.9032  -10.4249   21.0410 C   0  0  0  0  0  0
  -24.3595   -9.4179   21.9186 C   0  0  0  0  0  0
  -23.6276   -8.2218   22.0743 C   0  0  0  0  0  0
  -22.4263   -8.0249   21.3535 C   0  0  0  0  0  0
  -21.9891   -9.0218   20.4641 C   0  0  0  0  0  0
  -22.7211  -10.2099   20.3056 C   0  0  0  0  0  0
  -21.6848   -6.0716   22.5283 C   0  0  0  0  0  0
  -21.4007   -6.5623   23.8211 C   0  0  0  0  0  0
  -21.3673   -5.6781   24.9175 C   0  0  0  0  0  0
  -21.6057   -4.3041   24.7228 C   0  0  0  0  0  0
  -21.8824   -3.8130   23.4347 C   0  0  0  0  0  0
  -21.9197   -4.6948   22.3403 C   0  0  0  0  0  0
  -22.7854  -13.5217   21.1880 C   0  0  0  0  0  0
  -22.1669   -4.2139   21.0976 F   0  0  0  0  0  0
  -21.5651   -3.4522   25.7744 F   0  0  0  0  0  0
  -29.9789  -13.5152   20.3452 N   0  0  0  0  0  0
  -26.2948  -12.9237   20.3302 N   0  0  0  0  0  0
  -25.9284  -11.6410   20.5755 N   0  0  0  0  0  0
  -22.0471  -12.8210   22.0421 N   0  0  0  0  0  0
  -25.4432  -15.1717   20.4466 N   0  0  0  0  0  0
  -31.8302  -14.8069   20.2618 O   0  0  0  0  0  0
  -21.6623   -6.8851   21.4244 O   0  0  0  0  0  0
  -22.3576  -14.5549   20.6746 O   0  0  0  0  0  0
  -24.6249  -31.8570   23.1983 C   0  0  0  0  0  0
  -25.9089  -32.4759   23.8310 C   0  0  1  0  0  0
  -27.2418  -27.3103   20.1166 C   0  0  0  0  0  0
  -25.5895  -33.8557   24.2238 N   0  0  0  0  0  0
  -23.4191  -30.4774   21.5400 C   0  0  2  0  0  0
  -24.8694  -28.9234   20.1082 C   0  0  0  0  0  0
  -22.7464  -29.4623   22.4931 C   0  0  0  0  0  0
  -18.0287  -28.1385   22.8509 C   0  0  0  0  0  0
  -24.1488  -36.7292   23.2642 C   0  0  0  0  0  0
  -25.9583  -30.7857   21.3687 C   0  0  0  0  0  0
  -26.0334  -29.4092   20.7144 C   0  0  0  0  0  0
  -27.2163  -28.6120   20.7107 C   0  0  0  0  0  0
  -26.0519  -26.8681   19.4974 C   0  0  0  0  0  0
  -24.8819  -27.6595   19.4909 C   0  0  0  0  0  0
  -23.6330  -29.8013   20.1580 C   0  0  0  0  0  0
  -25.4117  -36.3078   24.0329 C   0  0  1  0  0  0
  -20.5886  -28.3698   23.1301 C   0  0  2  0  0  0
  -20.6782  -26.9420   22.5434 C   0  0  0  0  0  0
  -19.5748  -26.6384   21.5246 C   0  0  0  0  0  0
  -18.1928  -26.7930   22.1648 C   0  0  0  0  0  0
  -19.1540  -28.8860   23.2902 C   0  0  0  0  0  0
  -18.9461  -30.1462   23.8920 C   0  0  0  0  0  0
  -17.6459  -30.6595   24.0576 C   0  0  0  0  0  0
  -25.9057  -34.9447   23.5103 C   0  0  0  0  0  0
  -16.5350  -29.9098   23.6321 C   0  0  0  0  0  0
  -16.7275  -28.6512   23.0349 C   0  0  0  0  0  0
  -26.4461  -31.6569   25.0685 C   0  0  0  0  0  0
  -25.3669  -31.3745   26.1397 C   0  0  0  0  0  0
  -27.0300  -30.2976   24.6164 C   0  0  0  0  0  0
  -27.6003  -32.4311   25.7465 C   0  0  0  0  0  0
  -27.5583  -37.1803   24.8466 C   0  0  0  0  0  0
  -21.4179  -29.3041   22.3672 N   0  0  0  0  0  0
  -26.4296  -37.3776   23.9408 N   0  0  0  0  0  0
  -24.6860  -31.0577   22.0927 N   0  0  0  0  0  0
  -23.4189  -28.8179   23.3027 O   0  0  0  0  0  0
  -28.3930  -26.5061   20.1973 O   0  0  0  0  0  0
  -26.5654  -34.8931   22.4687 O   0  0  0  0  0  0
  -23.5415  -32.1364   23.7325 O   0  0  0  0  0  0
  -27.8257  -18.3689   19.7512 C   0  0  0  0  0  0
  -29.6219  -19.8873   20.3519 C   0  0  0  0  0  0
  -27.5579  -20.7936   19.4597 C   0  0  0  0  0  0
  -29.1421  -18.5225   20.2502 C   0  0  0  0  0  0
  -27.0437  -19.4864   19.3536 C   0  0  0  0  0  0
  -28.8462  -21.0507   19.9562 C   0  0  0  0  0  0
  -24.8764  -18.1181   19.2487 C   0  0  0  0  0  0
  -25.6814  -19.4060   17.2276 C   0  0  0  0  0  0
  -30.7795  -22.6905   20.4562 C   0  0  0  0  0  0
  -29.6430  -16.0396   18.5976 C   0  0  0  0  0  0
  -30.0023  -17.2454   20.6901 C   0  0  0  0  0  0
  -28.4454  -23.7891   20.3499 C   0  0  0  0  0  0
  -28.5636  -25.1798   19.5489 C   0  0  0  0  0  0
  -25.6419  -19.3487   18.7628 C   0  0  0  0  0  0
  -29.3664  -22.5500   19.8667 C   0  0  2  0  0  0
  -29.8323  -15.8648   20.0518 N   0  0  0  0  0  0
  -31.4741  -12.5672   19.1409 H   0  0  0  0  0  0
  -30.4091  -11.4720   19.9857 H   0  0  0  0  0  0
  -29.7686  -11.5711   17.5823 H   0  0  0  0  0  0
  -29.6367  -13.2998   17.6229 H   0  0  0  0  0  0
  -27.8740  -11.2419   18.9422 H   0  0  0  0  0  0
  -27.3707  -12.4539   17.7997 H   0  0  0  0  0  0
  -27.6110  -14.2186   19.4303 H   0  0  0  0  0  0
  -28.7324  -12.2019   21.4377 H   0  0  0  0  0  0
  -28.4417  -13.9082   21.7377 H   0  0  0  0  0  0
  -25.2744   -9.5656   22.4754 H   0  0  0  0  0  0
  -23.9994   -7.4609   22.7448 H   0  0  0  0  0  0
  -21.0830   -8.8731   19.8939 H   0  0  0  0  0  0
  -22.3674  -10.9635   19.6164 H   0  0  0  0  0  0
  -21.1971   -7.6126   23.9713 H   0  0  0  0  0  0
  -21.1510   -6.0503   25.9085 H   0  0  0  0  0  0
  -22.0590   -2.7590   23.2845 H   0  0  0  0  0  0
  -22.4036  -11.9856   22.4820 H   0  0  0  0  0  0
  -21.1100  -13.1265   22.2624 H   0  0  0  0  0  0
  -24.6891  -15.8376   20.5691 H   0  0  0  0  0  0
  -26.3261  -15.6023   20.2105 H   0  0  0  0  0  0
  -26.7162  -32.5427   23.1062 H   0  0  0  0  0  0
  -24.9967  -33.9680   25.0332 H   0  0  0  0  0  0
  -22.7126  -31.2981   21.3940 H   0  0  0  0  0  0
  -23.3749  -35.9624   23.3303 H   0  0  0  0  0  0
  -24.3593  -36.8912   22.2058 H   0  0  0  0  0  0
  -23.7230  -37.6491   23.6668 H   0  0  0  0  0  0
  -26.0902  -31.5481   20.5998 H   0  0  0  0  0  0
  -26.8377  -30.8370   21.9992 H   0  0  0  0  0  0
  -28.1088  -28.9837   21.1938 H   0  0  0  0  0  0
  -25.9954  -25.8918   19.0413 H   0  0  0  0  0  0
  -23.9869  -27.2788   19.0172 H   0  0  0  0  0  0
  -23.7415  -30.5708   19.3927 H   0  0  0  0  0  0
  -22.7535  -29.2241   19.8668 H   0  0  0  0  0  0
  -25.1302  -36.1934   25.0823 H   0  0  0  0  0  0
  -21.0000  -28.3292   24.1411 H   0  0  0  0  0  0
  -20.5713  -26.2313   23.3642 H   0  0  0  0  0  0
  -21.6645  -26.7471   22.1203 H   0  0  0  0  0  0
  -19.6913  -25.6301   21.1266 H   0  0  0  0  0  0
  -19.6666  -27.3206   20.6783 H   0  0  0  0  0  0
  -17.4201  -26.6696   21.4042 H   0  0  0  0  0  0
  -18.0309  -26.0066   22.9036 H   0  0  0  0  0  0
  -19.7936  -30.7276   24.2291 H   0  0  0  0  0  0
  -17.5015  -31.6273   24.5167 H   0  0  0  0  0  0
  -15.5353  -30.3008   23.7629 H   0  0  0  0  0  0
  -15.8676  -28.0842   22.7044 H   0  0  0  0  0  0
  -24.5836  -30.7104   25.7721 H   0  0  0  0  0  0
  -24.8869  -32.2937   26.4762 H   0  0  0  0  0  0
  -25.7947  -30.8945   27.0202 H   0  0  0  0  0  0
  -26.2887  -29.6727   24.1165 H   0  0  0  0  0  0
  -27.3950  -29.7228   25.4686 H   0  0  0  0  0  0
  -27.8776  -30.4232   23.9421 H   0  0  0  0  0  0
  -27.2581  -33.3602   26.2032 H   0  0  0  0  0  0
  -28.3812  -32.6875   25.0297 H   0  0  0  0  0  0
  -28.0663  -31.8439   26.5386 H   0  0  0  0  0  0
  -28.2603  -38.0097   24.7519 H   0  0  0  0  0  0
  -28.1076  -36.2633   24.6283 H   0  0  0  0  0  0
  -27.2319  -37.1448   25.8873 H   0  0  0  0  0  0
  -20.9362  -29.8709   21.6838 H   0  0  0  0  0  0
  -26.0178  -38.2859   24.1377 H   0  0  0  0  0  0
  -27.4185  -17.3741   19.6597 H   0  0  0  0  0  0
  -30.6273  -20.0323   20.7186 H   0  0  0  0  0  0
  -26.9523  -21.6171   19.1054 H   0  0  0  0  0  0
  -24.8986  -18.0454   20.3363 H   0  0  0  0  0  0
  -25.3015  -17.2106   18.8221 H   0  0  0  0  0  0
  -23.8316  -18.1644   18.9416 H   0  0  0  0  0  0
  -26.1078  -20.3463   16.8772 H   0  0  0  0  0  0
  -24.6808  -19.3204   16.8018 H   0  0  0  0  0  0
  -26.2865  -18.5982   16.8168 H   0  0  0  0  0  0
  -31.4859  -22.0204   19.9632 H   0  0  0  0  0  0
  -30.7869  -22.4708   21.5246 H   0  0  0  0  0  0
  -31.1653  -23.7008   20.3282 H   0  0  0  0  0  0
  -28.5993  -15.9085   18.3157 H   0  0  0  0  0  0
  -30.2334  -15.3462   17.9969 H   0  0  0  0  0  0
  -29.9567  -17.0251   18.2531 H   0  0  0  0  0  0
  -29.8511  -17.1178   21.7628 H   0  0  0  0  0  0
  -31.0544  -17.5139   20.5799 H   0  0  0  0  0  0
  -27.3961  -23.4987   20.3241 H   0  0  0  0  0  0
  -28.6505  -23.9671   21.4065 H   0  0  0  0  0  0
  -27.9839  -25.1236   18.6288 H   0  0  0  0  0  0
  -29.5918  -25.2220   19.1896 H   0  0  0  0  0  0
  -25.0718  -20.2116   19.1113 H   0  0  0  0  0  0
  -29.4736  -22.6967   18.7896 H   0  0  0  0  0  0
  1 25  1  0  0  0
  1 30  2  0  0  0
  1 86  1  0  0  0
  2  3  1  0  0  0
  2 25  1  0  0  0
  2 87  1  0  0  0
  2 88  1  0  0  0
  3  4  1  0  0  0
  3 89  1  0  0  0
  3 90  1  0  0  0
  4  5  1  0  0  0
  4 91  1  0  0  0
  4 92  1  0  0  0
  5  6  1  0  0  0
  5 26  1  0  0  0
  5 93  1  0  0  0
  6 25  1  0  0  0
  6 94  1  0  0  0
  6 95  1  0  0  0
  7  8  2  0  0  0
  7 26  1  0  0  0
  7 29  1  0  0  0
  8  9  1  0  0  0
  8 22  1  0  0  0
  9 10  1  0  0  0
  9 27  2  0  0  0
 10 11  2  0  0  0
 10 15  1  0  0  0
 11 12  1  0  0  0
 11 96  1  0  0  0
 12 13  2  0  0  0
 12 97  1  0  0  0
 13 14  1  0  0  0
 13 31  1  0  0  0
 14 15  2  0  0  0
 14 98  1  0  0  0
 15 99  1  0  0  0
 16 17  2  0  0  0
 16 21  1  0  0  0
 16 31  1  0  0  0
 17 18  1  0  0  0
 17100  1  0  0  0
 18 19  2  0  0  0
 18101  1  0  0  0
 19 20  1  0  0  0
 19 24  1  0  0  0
 20 21  2  0  0  0
 20102  1  0  0  0
 21 23  1  0  0  0
 22 28  1  0  0  0
 22 32  2  0  0  0
 26 27  1  0  0  0
 28103  1  0  0  0
 28104  1  0  0  0
 29105  1  0  0  0
 29106  1  0  0  0
 33 34  1  0  0  0
 33 66  1  0  0  0
 33 70  2  0  0  0
 34 36  1  0  0  0
 34 59  1  0  0  0
 34107  1  0  0  0
 35 44  2  0  0  0
 35 45  1  0  0  0
 35 68  1  0  0  0
 36 56  1  0  0  0
 36108  1  0  0  0
 37 39  1  0  0  0
 37 47  1  0  0  0
 37 66  1  0  0  0
 37109  1  0  0  0
 38 43  2  0  0  0
 38 46  1  0  0  0
 38 47  1  0  0  0
 39 64  1  0  0  0
 39 67  2  0  0  0
 40 52  1  0  0  0
 40 53  2  0  0  0
 40 58  1  0  0  0
 41110  1  0  0  0
 41111  1  0  0  0
 41112  1  0  0  0
 41 48  1  0  0  0
 42 43  1  0  0  0
 42 66  1  0  0  0
 42113  1  0  0  0
 42114  1  0  0  0
 43 44  1  0  0  0
 44115  1  0  0  0
 45 46  2  0  0  0
 45116  1  0  0  0
 46117  1  0  0  0
 47118  1  0  0  0
 47119  1  0  0  0
 48 56  1  0  0  0
 48 65  1  0  0  0
 48120  1  0  0  0
 49 50  1  0  0  0
 49 53  1  0  0  0
 49 64  1  0  0  0
 49121  1  0  0  0
 50 51  1  0  0  0
 50122  1  0  0  0
 50123  1  0  0  0
 51 52  1  0  0  0
 51124  1  0  0  0
 51125  1  0  0  0
 52126  1  0  0  0
 52127  1  0  0  0
 53 54  1  0  0  0
 54 55  2  0  0  0
 54128  1  0  0  0
 55 57  1  0  0  0
 55129  1  0  0  0
 56 69  2  0  0  0
 57 58  2  0  0  0
 57130  1  0  0  0
 58131  1  0  0  0
 59 60  1  0  0  0
 59 61  1  0  0  0
 59 62  1  0  0  0
 60132  1  0  0  0
 60133  1  0  0  0
 60134  1  0  0  0
 61135  1  0  0  0
 61136  1  0  0  0
 61137  1  0  0  0
 62138  1  0  0  0
 62139  1  0  0  0
 62140  1  0  0  0
 63 65  1  0  0  0
 63141  1  0  0  0
 63142  1  0  0  0
 63143  1  0  0  0
 64144  1  0  0  0
 65145  1  0  0  0
 68 83  1  0  0  0
 71 74  2  0  0  0
 71 75  1  0  0  0
 71146  1  0  0  0
 72 74  1  0  0  0
 72 76  2  0  0  0
 72147  1  0  0  0
 73 75  2  0  0  0
 73 76  1  0  0  0
 73148  1  0  0  0
 74 81  1  0  0  0
 75 84  1  0  0  0
 76 85  1  0  0  0
 77149  1  0  0  0
 77150  1  0  0  0
 77151  1  0  0  0
 77 84  1  0  0  0
 78 84  1  0  0  0
 78152  1  0  0  0
 78153  1  0  0  0
 78154  1  0  0  0
 79155  1  0  0  0
 79156  1  0  0  0
 79157  1  0  0  0
 79 85  1  0  0  0
 80 86  1  0  0  0
 80158  1  0  0  0
 80159  1  0  0  0
 80160  1  0  0  0
 81 86  1  0  0  0
 81161  1  0  0  0
 81162  1  0  0  0
 82 83  1  0  0  0
 82 85  1  0  0  0
 82163  1  0  0  0
 82164  1  0  0  0
 83165  1  0  0  0
 83166  1  0  0  0
 84167  1  0  0  0
 85168  1  0  0  0
M  ISO  4   1 100  68 101  83 101  86 100
M  END
> <chiral flag>
0

> <version>
0

> <s_m_source_file>
/data/baiqing/PycharmProjects/Reinvent-master-3.2/result/LINK_invent/BTK/process_docking_weight1_custom_sum_contain_oxygen_bond_distance_aromatic_linkinvent_7_9_3/rearranged_h_0100.sdf

> <i_m_source_file_index>
92

> <r_mmod_Potential_Energy-OPLS-2005>
300.174285888672

> <r_mmod_Stretch_Energy-OPLS-2005>
112.270477294922

> <r_mmod_Bend_Energy-OPLS-2005>
179.84440612793

> <r_mmod_Torsional_Energy-OPLS-2005>
293.906127929688

> <r_mmod_Improper_Torsional_Energy-OPLS-2005>
17.4028816223145

> <r_mmod_Van_der_Waal_Energy-OPLS-2005>
140.437042236328

> <r_mmod_Electrostatic_Energy-OPLS-2005>
-343.337646484375

> <r_mmod_Solvation_Energy-OPLS-2005>
-182.133972167969

> <b_mmod_Minimization_Converged-OPLS-2005>
0

> <r_mmod_RMS_Derivative-OPLS-2005>
2.21410226821899

$$$$
92
                    3D
 Structure written by MMmdl.
161168  0  0  1  0            999 V2000
  -30.6282  -14.6557   20.4646 C   0  0  0  0  0  0
  -30.4288  -12.3949   19.4636 C   0  0  0  0  0  0
  -29.5064  -12.4948   18.2292 C   0  0  0  0  0  0
  -28.0284  -12.3391   18.6395 C   0  0  0  0  0  0
  -27.6455  -13.2251   19.8559 C   0  0  2  0  0  0
  -28.6893  -13.1148   20.9897 C   0  0  0  0  0  0
  -25.2501  -13.8174   20.5697 C   0  0  0  0  0  0
  -24.1797  -13.0428   20.9221 C   0  0  0  0  0  0
  -24.6386  -11.6907   20.8753 C   0  0  0  0  0  0
  -23.9057  -10.4289   21.0413 C   0  0  0  0  0  0
  -24.3613   -9.4205   21.9194 C   0  0  0  0  0  0
  -23.6286   -8.2237   22.0758 C   0  0  0  0  0  0
  -22.4264   -8.0275   21.3549 C   0  0  0  0  0  0
  -21.9902   -9.0245   20.4649 C   0  0  0  0  0  0
  -22.7230  -10.2128   20.3058 C   0  0  0  0  0  0
  -21.6853   -6.0733   22.5283 C   0  0  0  0  0  0
  -21.4016   -6.5641   23.8216 C   0  0  0  0  0  0
  -21.3659   -5.6789   24.9177 C   0  0  0  0  0  0
  -21.6035   -4.3051   24.7221 C   0  0  0  0  0  0
  -21.8819   -3.8146   23.4344 C   0  0  0  0  0  0
  -21.9194   -4.6963   22.3401 C   0  0  0  0  0  0
  -22.7813  -13.5213   21.1868 C   0  0  0  0  0  0
  -22.1662   -4.2150   21.0978 F   0  0  0  0  0  0
  -21.5617   -3.4539   25.7737 F   0  0  0  0  0  0
  -30.0018  -13.4385   20.4174 N   0  0  0  0  0  0
  -26.2943  -12.9385   20.3299 N   0  0  0  0  0  0
  -25.9315  -11.6535   20.5756 N   0  0  0  0  0  0
  -22.0446  -12.8220   22.0423 N   0  0  0  0  0  0
  -25.4158  -15.1891   20.4079 N   0  0  0  0  0  0
  -31.8042  -14.7799   20.1150 O   0  0  0  0  0  0
  -21.6630   -6.8873   21.4243 O   0  0  0  0  0  0
  -22.3506  -14.5521   20.6712 O   0  0  0  0  0  0
  -24.6259  -31.8585   23.1995 C   0  0  0  0  0  0
  -25.9109  -32.4777   23.8335 C   0  0  1  0  0  0
  -27.2286  -27.3196   20.1173 C   0  0  0  0  0  0
  -25.5921  -33.8575   24.2263 N   0  0  0  0  0  0
  -23.4191  -30.4809   21.5415 C   0  0  2  0  0  0
  -24.8636  -28.9287   20.1095 C   0  0  0  0  0  0
  -22.7479  -29.4620   22.4926 C   0  0  0  0  0  0
  -18.0290  -28.1390   22.8493 C   0  0  0  0  0  0
  -24.1486  -36.7301   23.2638 C   0  0  0  0  0  0
  -25.9568  -30.7902   21.3667 C   0  0  0  0  0  0
  -26.0290  -29.4155   20.7129 C   0  0  0  0  0  0
  -27.2108  -28.6212   20.7064 C   0  0  0  0  0  0
  -26.0355  -26.8723   19.5068 C   0  0  0  0  0  0
  -24.8681  -27.6632   19.5000 C   0  0  0  0  0  0
  -23.6326  -29.8104   20.1575 C   0  0  0  0  0  0
  -25.4113  -36.3089   24.0325 C   0  0  1  0  0  0
  -20.5890  -28.3695   23.1290 C   0  0  2  0  0  0
  -20.6779  -26.9417   22.5419 C   0  0  0  0  0  0
  -19.5753  -26.6388   21.5222 C   0  0  0  0  0  0
  -18.1933  -26.7935   22.1627 C   0  0  0  0  0  0
  -19.1541  -28.8858   23.2890 C   0  0  0  0  0  0
  -18.9460  -30.1460   23.8908 C   0  0  0  0  0  0
  -17.6458  -30.6590   24.0572 C   0  0  0  0  0  0
  -25.9049  -34.9456   23.5100 C   0  0  0  0  0  0
  -16.5352  -29.9092   23.6325 C   0  0  0  0  0  0
  -16.7276  -28.6507   23.0350 C   0  0  0  0  0  0
  -26.4493  -31.6588   25.0705 C   0  0  0  0  0  0
  -25.3725  -31.3732   26.1433 C   0  0  0  0  0  0
  -27.0332  -30.3013   24.6146 C   0  0  0  0  0  0
  -27.6051  -32.4320   25.7480 C   0  0  0  0  0  0
  -27.5579  -37.1808   24.8465 C   0  0  0  0  0  0
  -21.4185  -29.3043   22.3678 N   0  0  0  0  0  0
  -26.4294  -37.3784   23.9403 N   0  0  0  0  0  0
  -24.6865  -31.0608   22.0932 N   0  0  0  0  0  0
  -23.4203  -28.8165   23.3013 O   0  0  0  0  0  0
  -28.3850  -26.5306   20.1796 O   0  0  0  0  0  0
  -26.5621  -34.8929   22.4667 O   0  0  0  0  0  0
  -23.5422  -32.1375   23.7328 O   0  0  0  0  0  0
  -29.0430  -24.2028   21.9469 C   0  0  0  0  0  0
  -27.7550  -18.0011   20.3746 C   0  0  0  0  0  0
  -29.2572  -18.4024   22.3401 C   0  0  0  0  0  0
  -28.7494  -21.1216   20.7277 C   0  0  0  0  0  0
  -29.0221  -22.5211   20.0026 C   0  0  0  0  0  0
  -29.5391  -19.8200   20.2213 C   0  0  0  0  0  0
  -30.1666  -17.1902   20.3072 C   0  0  0  0  0  0
  -28.4998  -25.1600   19.6320 C   0  0  0  0  0  0
  -28.4025  -23.8811   20.5878 C   0  0  2  0  0  0
  -29.1891  -18.3610   20.8024 C   0  0  0  0  0  0
  -29.8417  -15.7599   20.6733 N   0  0  0  0  0  0
  -31.4737  -12.5050   19.1647 H   0  0  0  0  0  0
  -30.3517  -11.4081   19.9231 H   0  0  0  0  0  0
  -29.7734  -11.7288   17.5006 H   0  0  0  0  0  0
  -29.6530  -13.4572   17.7354 H   0  0  0  0  0  0
  -27.8682  -11.2892   18.8864 H   0  0  0  0  0  0
  -27.3752  -12.5549   17.7920 H   0  0  0  0  0  0
  -27.6515  -14.2550   19.4964 H   0  0  0  0  0  0
  -28.7012  -12.1078   21.4099 H   0  0  0  0  0  0
  -28.4393  -13.7845   21.8135 H   0  0  0  0  0  0
  -25.2760   -9.5674   22.4773 H   0  0  0  0  0  0
  -23.9995   -7.4626   22.7482 H   0  0  0  0  0  0
  -21.0829   -8.8751   19.8962 H   0  0  0  0  0  0
  -22.3680  -10.9660   19.6160 H   0  0  0  0  0  0
  -21.2012   -7.6151   23.9718 H   0  0  0  0  0  0
  -21.1487   -6.0522   25.9080 H   0  0  0  0  0  0
  -22.0602   -2.7613   23.2836 H   0  0  0  0  0  0
  -22.4062  -11.9888   22.4827 H   0  0  0  0  0  0
  -21.1073  -13.1284   22.2618 H   0  0  0  0  0  0
  -24.6447  -15.8372   20.5225 H   0  0  0  0  0  0
  -26.2523  -15.6320   20.0537 H   0  0  0  0  0  0
  -26.7173  -32.5450   23.1082 H   0  0  0  0  0  0
  -25.0081  -33.9713   25.0416 H   0  0  0  0  0  0
  -22.7129  -31.3016   21.3969 H   0  0  0  0  0  0
  -23.3748  -35.9638   23.3309 H   0  0  0  0  0  0
  -24.3579  -36.8914   22.2053 H   0  0  0  0  0  0
  -23.7243  -37.6506   23.6653 H   0  0  0  0  0  0
  -26.0827  -31.5501   20.5945 H   0  0  0  0  0  0
  -26.8411  -30.8443   21.9905 H   0  0  0  0  0  0
  -28.1094  -28.9931   21.1786 H   0  0  0  0  0  0
  -25.9698  -25.8962   19.0515 H   0  0  0  0  0  0
  -23.9699  -27.2811   19.0339 H   0  0  0  0  0  0
  -23.7552  -30.5853   19.3998 H   0  0  0  0  0  0
  -22.7524  -29.2404   19.8550 H   0  0  0  0  0  0
  -25.1296  -36.1948   25.0819 H   0  0  0  0  0  0
  -20.9986  -28.3275   24.1408 H   0  0  0  0  0  0
  -20.5686  -26.2307   23.3622 H   0  0  0  0  0  0
  -21.6650  -26.7451   22.1209 H   0  0  0  0  0  0
  -19.6916  -25.6299   21.1249 H   0  0  0  0  0  0
  -19.6693  -27.3207   20.6757 H   0  0  0  0  0  0
  -17.4210  -26.6701   21.4019 H   0  0  0  0  0  0
  -18.0320  -26.0074   22.9015 H   0  0  0  0  0  0
  -19.7933  -30.7279   24.2281 H   0  0  0  0  0  0
  -17.5007  -31.6268   24.5182 H   0  0  0  0  0  0
  -15.5350  -30.2995   23.7636 H   0  0  0  0  0  0
  -15.8677  -28.0826   22.7051 H   0  0  0  0  0  0
  -24.5890  -30.7092   25.7755 H   0  0  0  0  0  0
  -24.8931  -32.2906   26.4853 H   0  0  0  0  0  0
  -25.8044  -30.8904   27.0206 H   0  0  0  0  0  0
  -26.2894  -29.6768   24.1174 H   0  0  0  0  0  0
  -27.4043  -29.7263   25.4639 H   0  0  0  0  0  0
  -27.8759  -30.4304   23.9350 H   0  0  0  0  0  0
  -27.2653  -33.3607   26.2072 H   0  0  0  0  0  0
  -28.3857  -32.6897   25.0310 H   0  0  0  0  0  0
  -28.0725  -31.8439   26.5385 H   0  0  0  0  0  0
  -28.2607  -38.0094   24.7504 H   0  0  0  0  0  0
  -28.1063  -36.2627   24.6303 H   0  0  0  0  0  0
  -27.2298  -37.1478   25.8869 H   0  0  0  0  0  0
  -20.9358  -29.8772   21.6894 H   0  0  0  0  0  0
  -26.0179  -38.2863   24.1395 H   0  0  0  0  0  0
  -28.8986  -23.3925   22.6618 H   0  0  0  0  0  0
  -28.6032  -25.0990   22.3873 H   0  0  0  0  0  0
  -30.1144  -24.3755   21.8484 H   0  0  0  0  0  0
  -27.4333  -17.0578   20.8120 H   0  0  0  0  0  0
  -27.6767  -17.9109   19.2907 H   0  0  0  0  0  0
  -27.0320  -18.7514   20.6935 H   0  0  0  0  0  0
  -29.0499  -17.4260   22.7781 H   0  0  0  0  0  0
  -28.5355  -19.1027   22.7619 H   0  0  0  0  0  0
  -30.2473  -18.7052   22.6827 H   0  0  0  0  0  0
  -27.6790  -20.9284   20.6642 H   0  0  0  0  0  0
  -28.9572  -21.2398   21.7915 H   0  0  0  0  0  0
  -28.6811  -22.4210   18.9714 H   0  0  0  0  0  0
  -30.1025  -22.6537   19.9316 H   0  0  0  0  0  0
  -30.6007  -20.0024   20.3947 H   0  0  0  0  0  0
  -29.4390  -19.7754   19.1359 H   0  0  0  0  0  0
  -30.2218  -17.2249   19.2178 H   0  0  0  0  0  0
  -31.1789  -17.4081   20.6494 H   0  0  0  0  0  0
  -27.8604  -25.0164   18.7624 H   0  0  0  0  0  0
  -29.5035  -25.1410   19.2066 H   0  0  0  0  0  0
  -27.3405  -23.7083   20.7652 H   0  0  0  0  0  0
  -28.8874  -15.5746   20.9410 H   0  0  0  0  0  0
  1 25  1  0  0  0
  1 30  2  0  0  0
  1 81  1  0  0  0
  2  3  1  0  0  0
  2 25  1  0  0  0
  2 82  1  0  0  0
  2 83  1  0  0  0
  3  4  1  0  0  0
  3 84  1  0  0  0
  3 85  1  0  0  0
  4  5  1  0  0  0
  4 86  1  0  0  0
  4 87  1  0  0  0
  5  6  1  0  0  0
  5 26  1  0  0  0
  5 88  1  0  0  0
  6 25  1  0  0  0
  6 89  1  0  0  0
  6 90  1  0  0  0
  7  8  2  0  0  0
  7 26  1  0  0  0
  7 29  1  0  0  0
  8  9  1  0  0  0
  8 22  1  0  0  0
  9 10  1  0  0  0
  9 27  2  0  0  0
 10 11  2  0  0  0
 10 15  1  0  0  0
 11 12  1  0  0  0
 11 91  1  0  0  0
 12 13  2  0  0  0
 12 92  1  0  0  0
 13 14  1  0  0  0
 13 31  1  0  0  0
 14 15  2  0  0  0
 14 93  1  0  0  0
 15 94  1  0  0  0
 16 17  2  0  0  0
 16 21  1  0  0  0
 16 31  1  0  0  0
 17 18  1  0  0  0
 17 95  1  0  0  0
 18 19  2  0  0  0
 18 96  1  0  0  0
 19 20  1  0  0  0
 19 24  1  0  0  0
 20 21  2  0  0  0
 20 97  1  0  0  0
 21 23  1  0  0  0
 22 28  1  0  0  0
 22 32  2  0  0  0
 26 27  1  0  0  0
 28 98  1  0  0  0
 28 99  1  0  0  0
 29100  1  0  0  0
 29101  1  0  0  0
 33 34  1  0  0  0
 33 66  1  0  0  0
 33 70  2  0  0  0
 34 36  1  0  0  0
 34 59  1  0  0  0
 34102  1  0  0  0
 35 44  2  0  0  0
 35 45  1  0  0  0
 35 68  1  0  0  0
 36 56  1  0  0  0
 36103  1  0  0  0
 37 39  1  0  0  0
 37 47  1  0  0  0
 37 66  1  0  0  0
 37104  1  0  0  0
 38 43  2  0  0  0
 38 46  1  0  0  0
 38 47  1  0  0  0
 39 64  1  0  0  0
 39 67  2  0  0  0
 40 52  1  0  0  0
 40 53  2  0  0  0
 40 58  1  0  0  0
 41105  1  0  0  0
 41106  1  0  0  0
 41107  1  0  0  0
 41 48  1  0  0  0
 42 43  1  0  0  0
 42 66  1  0  0  0
 42108  1  0  0  0
 42109  1  0  0  0
 43 44  1  0  0  0
 44110  1  0  0  0
 45 46  2  0  0  0
 45111  1  0  0  0
 46112  1  0  0  0
 47113  1  0  0  0
 47114  1  0  0  0
 48 56  1  0  0  0
 48 65  1  0  0  0
 48115  1  0  0  0
 49 50  1  0  0  0
 49 53  1  0  0  0
 49 64  1  0  0  0
 49116  1  0  0  0
 50 51  1  0  0  0
 50117  1  0  0  0
 50118  1  0  0  0
 51 52  1  0  0  0
 51119  1  0  0  0
 51120  1  0  0  0
 52121  1  0  0  0
 52122  1  0  0  0
 53 54  1  0  0  0
 54 55  2  0  0  0
 54123  1  0  0  0
 55 57  1  0  0  0
 55124  1  0  0  0
 56 69  2  0  0  0
 57 58  2  0  0  0
 57125  1  0  0  0
 58126  1  0  0  0
 59 60  1  0  0  0
 59 61  1  0  0  0
 59 62  1  0  0  0
 60127  1  0  0  0
 60128  1  0  0  0
 60129  1  0  0  0
 61130  1  0  0  0
 61131  1  0  0  0
 61132  1  0  0  0
 62133  1  0  0  0
 62134  1  0  0  0
 62135  1  0  0  0
 63 65  1  0  0  0
 63136  1  0  0  0
 63137  1  0  0  0
 63138  1  0  0  0
 64139  1  0  0  0
 65140  1  0  0  0
 68 78  1  0  0  0
 71141  1  0  0  0
 71142  1  0  0  0
 71143  1  0  0  0
 71 79  1  0  0  0
 72144  1  0  0  0
 72145  1  0  0  0
 72146  1  0  0  0
 72 80  1  0  0  0
 73 80  1  0  0  0
 73147  1  0  0  0
 73148  1  0  0  0
 73149  1  0  0  0
 74 75  1  0  0  0
 74 76  1  0  0  0
 74150  1  0  0  0
 74151  1  0  0  0
 75 79  1  0  0  0
 75152  1  0  0  0
 75153  1  0  0  0
 76 80  1  0  0  0
 76154  1  0  0  0
 76155  1  0  0  0
 77 80  1  0  0  0
 77 81  1  0  0  0
 77156  1  0  0  0
 77157  1  0  0  0
 78 79  1  0  0  0
 78158  1  0  0  0
 78159  1  0  0  0
 79160  1  0  0  0
 81161  1  0  0  0
M  ISO  4   1 100  68 101  78 101  81 100
M  END
> <chiral flag>
0

> <version>
0

> <s_m_source_file>
/data/baiqing/PycharmProjects/Reinvent-master-3.2/result/LINK_invent/BTK/process_docking_weight1_custom_sum_contain_oxygen_bond_distance_aromatic_linkinvent_7_9_3/rearranged_h_0100.sdf

> <i_m_source_file_index>
93

> <r_mmod_Potential_Energy-OPLS-2005>
36.8352127075195

> <r_mmod_Stretch_Energy-OPLS-2005>
89.2398376464844

> <r_mmod_Bend_Energy-OPLS-2005>
152.035842895508

> <r_mmod_Torsional_Energy-OPLS-2005>
222.767456054688

> <r_mmod_Improper_Torsional_Energy-OPLS-2005>
6.02313756942749

> <r_mmod_Van_der_Waal_Energy-OPLS-2005>
116.612724304199

> <r_mmod_Electrostatic_Energy-OPLS-2005>
-412.289489746094

> <r_mmod_Solvation_Energy-OPLS-2005>
-188.154220581055

> <b_mmod_Minimization_Converged-OPLS-2005>
0

> <r_mmod_RMS_Derivative-OPLS-2005>
1.80022573471069

$$$$
93
                    3D
 Structure written by MMmdl.
161169  0  0  1  0            999 V2000
  -30.3249  -15.5511   20.3405 C   0  0  0  0  0  0
  -30.4251  -13.0121   19.5594 C   0  0  0  0  0  0
  -29.5498  -12.6463   18.3271 C   0  0  0  0  0  0
  -28.1134  -12.3122   18.7571 C   0  0  0  0  0  0
  -27.6000  -13.3053   19.8275 C   0  0  2  0  0  0
  -28.6158  -13.5916   20.9579 C   0  0  0  0  0  0
  -25.2357  -13.8298   20.5896 C   0  0  0  0  0  0
  -24.1720  -13.0443   20.9312 C   0  0  0  0  0  0
  -24.6406  -11.6952   20.8743 C   0  0  0  0  0  0
  -23.9110  -10.4300   21.0384 C   0  0  0  0  0  0
  -24.3642   -9.4223   21.9179 C   0  0  0  0  0  0
  -23.6318   -8.2256   22.0742 C   0  0  0  0  0  0
  -22.4302   -8.0285   21.3530 C   0  0  0  0  0  0
  -21.9944   -9.0259   20.4636 C   0  0  0  0  0  0
  -22.7273  -10.2139   20.3047 C   0  0  0  0  0  0
  -21.6855   -6.0747   22.5281 C   0  0  0  0  0  0
  -21.4023   -6.5648   23.8218 C   0  0  0  0  0  0
  -21.3664   -5.6799   24.9177 C   0  0  0  0  0  0
  -21.6050   -4.3062   24.7222 C   0  0  0  0  0  0
  -21.8818   -3.8155   23.4335 C   0  0  0  0  0  0
  -21.9205   -4.6978   22.3397 C   0  0  0  0  0  0
  -22.7736  -13.5172   21.1939 C   0  0  0  0  0  0
  -22.1669   -4.2164   21.0968 F   0  0  0  0  0  0
  -21.5637   -3.4538   25.7727 F   0  0  0  0  0  0
  -29.8096  -14.1885   20.3222 N   0  0  0  0  0  0
  -26.2788  -12.9624   20.3294 N   0  0  0  0  0  0
  -25.9352  -11.6684   20.5695 N   0  0  0  0  0  0
  -22.0395  -12.8133   22.0478 N   0  0  0  0  0  0
  -25.4044  -15.2052   20.4489 N   0  0  0  0  0  0
  -31.5418  -15.5144   20.0859 O   0  0  0  0  0  0
  -21.6649   -6.8892   21.4243 O   0  0  0  0  0  0
  -22.3419  -14.5483   20.6791 O   0  0  0  0  0  0
  -24.6806  -31.8041   23.1538 C   0  0  0  0  0  0
  -25.9397  -32.4489   23.8082 C   0  0  1  0  0  0
  -27.2316  -26.7390   20.2231 C   0  0  0  0  0  0
  -25.5986  -33.8304   24.1963 N   0  0  0  0  0  0
  -23.5052  -30.4057   21.5057 C   0  0  2  0  0  0
  -24.9647  -28.7480   20.1271 C   0  0  0  0  0  0
  -22.7759  -29.4313   22.4714 C   0  0  0  0  0  0
  -18.0336  -28.1419   22.8480 C   0  0  0  0  0  0
  -24.1493  -36.7164   23.2646 C   0  0  0  0  0  0
  -26.0852  -30.5515   21.4101 C   0  0  0  0  0  0
  -26.1529  -29.1173   20.7673 C   0  0  0  0  0  0
  -27.2777  -28.1411   20.7767 C   0  0  0  0  0  0
  -26.0069  -26.5660   19.5329 C   0  0  0  0  0  0
  -24.9277  -27.4980   19.4858 C   0  0  0  0  0  0
  -23.7595  -29.6997   20.1418 C   0  0  0  0  0  0
  -25.4138  -36.2905   24.0287 C   0  0  1  0  0  0
  -20.5970  -28.3767   23.1158 C   0  0  2  0  0  0
  -20.6794  -26.9426   22.5406 C   0  0  0  0  0  0
  -19.5772  -26.6371   21.5221 C   0  0  0  0  0  0
  -18.1959  -26.7953   22.1628 C   0  0  0  0  0  0
  -19.1605  -28.8925   23.2810 C   0  0  0  0  0  0
  -18.9508  -30.1514   23.8847 C   0  0  0  0  0  0
  -17.6491  -30.6597   24.0563 C   0  0  0  0  0  0
  -25.9109  -34.9288   23.4959 C   0  0  0  0  0  0
  -16.5384  -29.9076   23.6350 C   0  0  0  0  0  0
  -16.7318  -28.6500   23.0375 C   0  0  0  0  0  0
  -26.4582  -31.6497   25.0682 C   0  0  0  0  0  0
  -25.3647  -31.3806   26.1295 C   0  0  0  0  0  0
  -27.0489  -30.2837   24.6535 C   0  0  0  0  0  0
  -27.6062  -32.4327   25.7499 C   0  0  0  0  0  0
  -27.5564  -37.1742   24.8464 C   0  0  0  0  0  0
  -21.4400  -29.3031   22.3492 N   0  0  0  0  0  0
  -26.4271  -37.3662   23.9406 N   0  0  0  0  0  0
  -24.7802  -30.9538   22.0771 N   0  0  0  0  0  0
  -23.4224  -28.7915   23.3036 O   0  0  0  0  0  0
  -28.2225  -25.5556   20.2451 O   0  0  0  0  0  0
  -26.5745  -34.8867   22.4569 O   0  0  0  0  0  0
  -23.5836  -32.1082   23.6526 O   0  0  0  0  0  0
  -25.0825  -19.9316   21.0306 C   0  0  0  0  0  0
  -25.0359  -19.4926   22.3608 C   0  0  0  0  0  0
  -26.3343  -20.1958   20.4358 C   0  0  0  0  0  0
  -26.2428  -19.3231   23.0522 C   0  0  0  0  0  0
  -27.5118  -20.0257   21.2107 C   0  0  0  0  0  0
  -26.3559  -20.6392   18.9850 C   0  0  0  0  0  0
  -26.2613  -18.8640   24.4954 C   0  0  0  0  0  0
  -29.9097  -20.5179   21.8499 C   0  0  0  0  0  0
  -28.9134  -22.1494   20.0778 C   0  0  0  0  0  0
  -29.6194  -18.6115   20.0567 C   0  0  0  0  0  0
  -28.0478  -23.8292   20.4415 C   0  0  0  0  0  0
  -28.9335  -20.3084   20.6659 C   0  0  1  0  0  0
  -27.4405  -19.5720   22.4883 N   0  0  0  0  0  0
  -29.5589  -16.8897   20.4541 N   0  0  0  0  0  0
  -31.4319  -13.2484   19.2140 H   0  0  0  0  0  0
  -30.5451  -12.1448   20.2104 H   0  0  0  0  0  0
  -29.9848  -11.8042   17.7876 H   0  0  0  0  0  0
  -29.5339  -13.4866   17.6315 H   0  0  0  0  0  0
  -28.1172  -11.3016   19.1664 H   0  0  0  0  0  0
  -27.4484  -12.2932   17.8932 H   0  0  0  0  0  0
  -27.4784  -14.2431   19.2846 H   0  0  0  0  0  0
  -28.8488  -12.6918   21.5277 H   0  0  0  0  0  0
  -28.1971  -14.3019   21.6712 H   0  0  0  0  0  0
  -25.2776   -9.5709   22.4769 H   0  0  0  0  0  0
  -24.0034   -7.4651   22.7461 H   0  0  0  0  0  0
  -21.0875   -8.8781   19.8930 H   0  0  0  0  0  0
  -22.3728  -10.9687   19.6161 H   0  0  0  0  0  0
  -21.2009   -7.6150   23.9722 H   0  0  0  0  0  0
  -21.1487   -6.0520   25.9076 H   0  0  0  0  0  0
  -22.0590   -2.7619   23.2828 H   0  0  0  0  0  0
  -22.4040  -11.9791   22.4827 H   0  0  0  0  0  0
  -21.1002  -13.1118   22.2682 H   0  0  0  0  0  0
  -24.6589  -15.8690   20.6269 H   0  0  0  0  0  0
  -26.2680  -15.6473   20.1627 H   0  0  0  0  0  0
  -26.7480  -32.4989   23.0806 H   0  0  0  0  0  0
  -25.0095  -33.9346   25.0092 H   0  0  0  0  0  0
  -22.8276  -31.2401   21.3120 H   0  0  0  0  0  0
  -23.3768  -35.9476   23.3255 H   0  0  0  0  0  0
  -24.3567  -36.8869   22.2068 H   0  0  0  0  0  0
  -23.7240  -37.6332   23.6741 H   0  0  0  0  0  0
  -26.2825  -31.2723   20.6152 H   0  0  0  0  0  0
  -26.9392  -30.6239   22.0717 H   0  0  0  0  0  0
  -28.1834  -28.4363   21.2890 H   0  0  0  0  0  0
  -25.8516  -25.6194   19.0361 H   0  0  0  0  0  0
  -24.0280  -27.2078   18.9578 H   0  0  0  0  0  0
  -23.9381  -30.4538   19.3735 H   0  0  0  0  0  0
  -22.8671  -29.1595   19.8191 H   0  0  0  0  0  0
  -25.1341  -36.1685   25.0782 H   0  0  0  0  0  0
  -21.0091  -28.3398   24.1269 H   0  0  0  0  0  0
  -20.5625  -26.2406   23.3668 H   0  0  0  0  0  0
  -21.6659  -26.7333   22.1260 H   0  0  0  0  0  0
  -19.6906  -25.6268   21.1289 H   0  0  0  0  0  0
  -19.6722  -27.3152   20.6727 H   0  0  0  0  0  0
  -17.4235  -26.6751   21.4017 H   0  0  0  0  0  0
  -18.0337  -26.0076   22.8997 H   0  0  0  0  0  0
  -19.7974  -30.7372   24.2190 H   0  0  0  0  0  0
  -17.5015  -31.6261   24.5189 H   0  0  0  0  0  0
  -15.5378  -30.2959   23.7662 H   0  0  0  0  0  0
  -15.8733  -28.0778   22.7116 H   0  0  0  0  0  0
  -24.5953  -30.7001   25.7633 H   0  0  0  0  0  0
  -24.8693  -32.3006   26.4406 H   0  0  0  0  0  0
  -25.7858  -30.9252   27.0266 H   0  0  0  0  0  0
  -26.3190  -29.6489   24.1510 H   0  0  0  0  0  0
  -27.3905  -29.7252   25.5256 H   0  0  0  0  0  0
  -27.9180  -30.3960   24.0049 H   0  0  0  0  0  0
  -27.2669  -33.3768   26.1766 H   0  0  0  0  0  0
  -28.4052  -32.6618   25.0437 H   0  0  0  0  0  0
  -28.0487  -31.8617   26.5665 H   0  0  0  0  0  0
  -28.2544  -38.0071   24.7517 H   0  0  0  0  0  0
  -28.1100  -36.2596   24.6288 H   0  0  0  0  0  0
  -27.2277  -37.1372   25.8865 H   0  0  0  0  0  0
  -20.9699  -29.8714   21.6589 H   0  0  0  0  0  0
  -26.0101  -38.2712   24.1418 H   0  0  0  0  0  0
  -24.1631  -20.0672   20.4786 H   0  0  0  0  0  0
  -24.0854  -19.2888   22.8382 H   0  0  0  0  0  0
  -25.4201  -20.3874   18.4867 H   0  0  0  0  0  0
  -27.1616  -20.1603   18.4313 H   0  0  0  0  0  0
  -26.4704  -21.7187   18.9090 H   0  0  0  0  0  0
  -25.2838  -18.4858   24.7966 H   0  0  0  0  0  0
  -26.5192  -19.6943   25.1540 H   0  0  0  0  0  0
  -26.9881  -18.0671   24.6445 H   0  0  0  0  0  0
  -29.5752  -21.3204   22.5083 H   0  0  0  0  0  0
  -30.9012  -20.7833   21.4841 H   0  0  0  0  0  0
  -30.0358  -19.6159   22.4517 H   0  0  0  0  0  0
  -28.7529  -22.0462   19.0047 H   0  0  0  0  0  0
  -29.9671  -22.4238   20.1180 H   0  0  0  0  0  0
  -30.6774  -18.7848   19.8647 H   0  0  0  0  0  0
  -29.1953  -18.5682   19.0546 H   0  0  0  0  0  0
  -27.9369  -23.7813   21.5248 H   0  0  0  0  0  0
  -27.0315  -23.6664   20.0862 H   0  0  0  0  0  0
  -28.6223  -16.6681   20.7608 H   0  0  0  0  0  0
  1 25  1  0  0  0
  1 30  2  0  0  0
  1 84  1  0  0  0
  2  3  1  0  0  0
  2 25  1  0  0  0
  2 85  1  0  0  0
  2 86  1  0  0  0
  3  4  1  0  0  0
  3 87  1  0  0  0
  3 88  1  0  0  0
  4  5  1  0  0  0
  4 89  1  0  0  0
  4 90  1  0  0  0
  5  6  1  0  0  0
  5 26  1  0  0  0
  5 91  1  0  0  0
  6 25  1  0  0  0
  6 92  1  0  0  0
  6 93  1  0  0  0
  7  8  2  0  0  0
  7 26  1  0  0  0
  7 29  1  0  0  0
  8  9  1  0  0  0
  8 22  1  0  0  0
  9 10  1  0  0  0
  9 27  2  0  0  0
 10 11  2  0  0  0
 10 15  1  0  0  0
 11 12  1  0  0  0
 11 94  1  0  0  0
 12 13  2  0  0  0
 12 95  1  0  0  0
 13 14  1  0  0  0
 13 31  1  0  0  0
 14 15  2  0  0  0
 14 96  1  0  0  0
 15 97  1  0  0  0
 16 17  2  0  0  0
 16 21  1  0  0  0
 16 31  1  0  0  0
 17 18  1  0  0  0
 17 98  1  0  0  0
 18 19  2  0  0  0
 18 99  1  0  0  0
 19 20  1  0  0  0
 19 24  1  0  0  0
 20 21  2  0  0  0
 20100  1  0  0  0
 21 23  1  0  0  0
 22 28  1  0  0  0
 22 32  2  0  0  0
 26 27  1  0  0  0
 28101  1  0  0  0
 28102  1  0  0  0
 29103  1  0  0  0
 29104  1  0  0  0
 33 34  1  0  0  0
 33 66  1  0  0  0
 33 70  2  0  0  0
 34 36  1  0  0  0
 34 59  1  0  0  0
 34105  1  0  0  0
 35 44  2  0  0  0
 35 45  1  0  0  0
 35 68  1  0  0  0
 36 56  1  0  0  0
 36106  1  0  0  0
 37 39  1  0  0  0
 37 47  1  0  0  0
 37 66  1  0  0  0
 37107  1  0  0  0
 38 43  2  0  0  0
 38 46  1  0  0  0
 38 47  1  0  0  0
 39 64  1  0  0  0
 39 67  2  0  0  0
 40 52  1  0  0  0
 40 53  2  0  0  0
 40 58  1  0  0  0
 41108  1  0  0  0
 41109  1  0  0  0
 41110  1  0  0  0
 41 48  1  0  0  0
 42 43  1  0  0  0
 42 66  1  0  0  0
 42111  1  0  0  0
 42112  1  0  0  0
 43 44  1  0  0  0
 44113  1  0  0  0
 45 46  2  0  0  0
 45114  1  0  0  0
 46115  1  0  0  0
 47116  1  0  0  0
 47117  1  0  0  0
 48 56  1  0  0  0
 48 65  1  0  0  0
 48118  1  0  0  0
 49 50  1  0  0  0
 49 53  1  0  0  0
 49 64  1  0  0  0
 49119  1  0  0  0
 50 51  1  0  0  0
 50120  1  0  0  0
 50121  1  0  0  0
 51 52  1  0  0  0
 51122  1  0  0  0
 51123  1  0  0  0
 52124  1  0  0  0
 52125  1  0  0  0
 53 54  1  0  0  0
 54 55  2  0  0  0
 54126  1  0  0  0
 55 57  1  0  0  0
 55127  1  0  0  0
 56 69  2  0  0  0
 57 58  2  0  0  0
 57128  1  0  0  0
 58129  1  0  0  0
 59 60  1  0  0  0
 59 61  1  0  0  0
 59 62  1  0  0  0
 60130  1  0  0  0
 60131  1  0  0  0
 60132  1  0  0  0
 61133  1  0  0  0
 61134  1  0  0  0
 61135  1  0  0  0
 62136  1  0  0  0
 62137  1  0  0  0
 62138  1  0  0  0
 63 65  1  0  0  0
 63139  1  0  0  0
 63140  1  0  0  0
 63141  1  0  0  0
 64142  1  0  0  0
 65143  1  0  0  0
 68 81  1  0  0  0
 71 72  2  0  0  0
 71 73  1  0  0  0
 71144  1  0  0  0
 72 74  1  0  0  0
 72145  1  0  0  0
 73 75  2  0  0  0
 73 76  1  0  0  0
 74 77  1  0  0  0
 74 83  2  0  0  0
 75 82  1  0  0  0
 75 83  1  0  0  0
 76146  1  0  0  0
 76147  1  0  0  0
 76148  1  0  0  0
 77149  1  0  0  0
 77150  1  0  0  0
 77151  1  0  0  0
 78152  1  0  0  0
 78153  1  0  0  0
 78154  1  0  0  0
 78 82  1  0  0  0
 79 81  1  0  0  0
 79 82  1  0  0  0
 79155  1  0  0  0
 79156  1  0  0  0
 80 82  1  0  0  0
 80 84  1  0  0  0
 80157  1  0  0  0
 80158  1  0  0  0
 81159  1  0  0  0
 81160  1  0  0  0
 84161  1  0  0  0
M  ISO  4   1 100  68 101  81 101  84 100
M  END
> <chiral flag>
0

> <version>
0

> <s_m_source_file>
/data/baiqing/PycharmProjects/Reinvent-master-3.2/result/LINK_invent/BTK/process_docking_weight1_custom_sum_contain_oxygen_bond_distance_aromatic_linkinvent_7_9_3/rearranged_h_0100.sdf

> <i_m_source_file_index>
94

> <r_mmod_Potential_Energy-OPLS-2005>
2142.35034179688

> <r_mmod_Stretch_Energy-OPLS-2005>
1112.8447265625

> <r_mmod_Bend_Energy-OPLS-2005>
646.113403320312

> <r_mmod_Torsional_Energy-OPLS-2005>
234.195251464844

> <r_mmod_Improper_Torsional_Energy-OPLS-2005>
3.57449984550476

> <r_mmod_Van_der_Waal_Energy-OPLS-2005>
133.15625

> <r_mmod_Electrostatic_Energy-OPLS-2005>
-557.75537109375

> <r_mmod_Solvation_Energy-OPLS-2005>
-222.234725952148

> <b_mmod_Minimization_Converged-OPLS-2005>
0

> <r_mmod_RMS_Derivative-OPLS-2005>
3.3280200958252

$$$$
94
                    3D
 Structure written by MMmdl.
168176  0  0  1  0            999 V2000
  -30.5432  -14.9763   20.4075 C   0  0  0  0  0  0
  -30.4477  -12.6155   19.4876 C   0  0  0  0  0  0
  -29.5208  -12.5347   18.2523 C   0  0  0  0  0  0
  -28.0568  -12.3186   18.6792 C   0  0  0  0  0  0
  -27.6326  -13.2513   19.8431 C   0  0  2  0  0  0
  -28.6813  -13.2849   20.9749 C   0  0  0  0  0  0
  -25.2481  -13.8207   20.5746 C   0  0  0  0  0  0
  -24.1793  -13.0444   20.9249 C   0  0  0  0  0  0
  -24.6398  -11.6926   20.8753 C   0  0  0  0  0  0
  -23.9070  -10.4291   21.0396 C   0  0  0  0  0  0
  -24.3609   -9.4210   21.9183 C   0  0  0  0  0  0
  -23.6290   -8.2247   22.0752 C   0  0  0  0  0  0
  -22.4275   -8.0270   21.3538 C   0  0  0  0  0  0
  -21.9914   -9.0242   20.4640 C   0  0  0  0  0  0
  -22.7238  -10.2130   20.3053 C   0  0  0  0  0  0
  -21.6851   -6.0721   22.5263 C   0  0  0  0  0  0
  -21.4007   -6.5625   23.8196 C   0  0  0  0  0  0
  -21.3663   -5.6784   24.9161 C   0  0  0  0  0  0
  -21.6050   -4.3046   24.7217 C   0  0  0  0  0  0
  -21.8825   -3.8135   23.4338 C   0  0  0  0  0  0
  -21.9198   -4.6948   22.3392 C   0  0  0  0  0  0
  -22.7800  -13.5214   21.1884 C   0  0  0  0  0  0
  -22.1668   -4.2134   21.0970 F   0  0  0  0  0  0
  -21.5642   -3.4533   25.7735 F   0  0  0  0  0  0
  -29.9491  -13.7132   20.3689 N   0  0  0  0  0  0
  -26.2912  -12.9454   20.3295 N   0  0  0  0  0  0
  -25.9340  -11.6573   20.5761 N   0  0  0  0  0  0
  -22.0424  -12.8208   22.0410 N   0  0  0  0  0  0
  -25.4170  -15.1940   20.4165 N   0  0  0  0  0  0
  -31.7466  -15.0315   20.1372 O   0  0  0  0  0  0
  -21.6645   -6.8862   21.4226 O   0  0  0  0  0  0
  -22.3502  -14.5523   20.6717 O   0  0  0  0  0  0
  -24.6479  -31.8415   23.1855 C   0  0  0  0  0  0
  -25.9236  -32.4684   23.8256 C   0  0  1  0  0  0
  -27.2131  -27.1060   20.1554 C   0  0  0  0  0  0
  -25.5970  -33.8487   24.2178 N   0  0  0  0  0  0
  -23.4520  -30.4618   21.5306 C   0  0  2  0  0  0
  -24.9023  -28.8862   20.1049 C   0  0  0  0  0  0
  -22.7591  -29.4543   22.4836 C   0  0  0  0  0  0
  -18.0302  -28.1431   22.8470 C   0  0  0  0  0  0
  -24.1466  -36.7238   23.2648 C   0  0  0  0  0  0
  -26.0110  -30.7062   21.3887 C   0  0  0  0  0  0
  -26.0803  -29.3149   20.7308 C   0  0  0  0  0  0
  -27.2346  -28.4399   20.7411 C   0  0  0  0  0  0
  -26.0140  -26.7938   19.4763 C   0  0  0  0  0  0
  -24.8850  -27.6413   19.4605 C   0  0  0  0  0  0
  -23.6803  -29.7915   20.1495 C   0  0  0  0  0  0
  -25.4105  -36.3026   24.0324 C   0  0  1  0  0  0
  -20.5923  -28.3750   23.1232 C   0  0  2  0  0  0
  -20.6781  -26.9446   22.5422 C   0  0  0  0  0  0
  -19.5759  -26.6403   21.5218 C   0  0  0  0  0  0
  -18.1927  -26.7972   22.1599 C   0  0  0  0  0  0
  -19.1567  -28.8903   23.2839 C   0  0  0  0  0  0
  -18.9490  -30.1492   23.8877 C   0  0  0  0  0  0
  -17.6491  -30.6613   24.0577 C   0  0  0  0  0  0
  -25.9068  -34.9407   23.5059 C   0  0  0  0  0  0
  -16.5377  -29.9119   23.6354 C   0  0  0  0  0  0
  -16.7289  -28.6546   23.0357 C   0  0  0  0  0  0
  -26.4538  -31.6567   25.0714 C   0  0  0  0  0  0
  -25.3694  -31.3771   26.1387 C   0  0  0  0  0  0
  -27.0437  -30.2972   24.6315 C   0  0  0  0  0  0
  -27.6044  -32.4350   25.7516 C   0  0  0  0  0  0
  -27.5558  -37.1782   24.8469 C   0  0  0  0  0  0
  -21.4279  -29.3063   22.3597 N   0  0  0  0  0  0
  -26.4260  -37.3755   23.9422 N   0  0  0  0  0  0
  -24.7236  -31.0252   22.0900 N   0  0  0  0  0  0
  -23.4221  -28.8072   23.2979 O   0  0  0  0  0  0
  -28.2421  -26.0880   20.2560 O   0  0  0  0  0  0
  -26.5655  -34.8914   22.4636 O   0  0  0  0  0  0
  -23.5593  -32.1304   23.7065 O   0  0  0  0  0  0
  -29.9882  -23.4856   21.2286 C   0  0  0  0  0  0
  -28.6212  -21.8048   20.2142 C   0  0  0  0  0  0
  -28.8317  -23.2569   20.4806 C   0  0  0  0  0  0
  -30.7313  -22.4391   21.8355 C   0  0  0  0  0  0
  -29.3562  -20.6504   20.8211 C   0  0  0  0  0  0
  -30.2472  -21.0743   21.8805 C   0  0  0  0  0  0
  -33.2661  -21.9887   21.9984 C   0  0  0  0  0  0
  -30.9669  -20.9941   24.4180 C   0  0  0  0  0  0
  -31.3993  -18.9984   23.0132 C   0  0  0  0  0  0
  -29.0946  -19.6714   23.7126 C   0  0  0  0  0  0
  -32.0907  -22.9021   22.3730 C   0  0  0  0  0  0
  -29.0550  -19.0356   20.4726 C   0  0  0  0  0  0
  -27.9408  -24.5694   19.9906 C   0  0  0  0  0  0
  -30.1170  -17.7117   20.2721 C   0  0  0  0  0  0
  -30.4539  -20.2016   23.1850 C   0  0  0  0  0  0
  -29.7739  -16.1749   20.5268 N   0  0  0  0  0  0
  -31.4735  -12.7906   19.1590 H   0  0  0  0  0  0
  -30.4686  -11.6675   20.0256 H   0  0  0  0  0  0
  -29.8410  -11.7270   17.5925 H   0  0  0  0  0  0
  -29.6025  -13.4546   17.6705 H   0  0  0  0  0  0
  -27.9601  -11.2786   18.9920 H   0  0  0  0  0  0
  -27.3884  -12.4458   17.8271 H   0  0  0  0  0  0
  -27.5938  -14.2538   19.4163 H   0  0  0  0  0  0
  -28.7838  -12.3049   21.4431 H   0  0  0  0  0  0
  -28.3817  -13.9766   21.7634 H   0  0  0  0  0  0
  -25.2737   -9.5697   22.4782 H   0  0  0  0  0  0
  -23.9988   -7.4639   22.7486 H   0  0  0  0  0  0
  -21.0846   -8.8751   19.8945 H   0  0  0  0  0  0
  -22.3671  -10.9669   19.6176 H   0  0  0  0  0  0
  -21.1978   -7.6131   23.9690 H   0  0  0  0  0  0
  -21.1492   -6.0514   25.9064 H   0  0  0  0  0  0
  -22.0603   -2.7597   23.2843 H   0  0  0  0  0  0
  -22.4015  -11.9868   22.4811 H   0  0  0  0  0  0
  -21.1030  -13.1239   22.2577 H   0  0  0  0  0  0
  -24.6504  -15.8482   20.5284 H   0  0  0  0  0  0
  -26.2547  -15.6258   20.0489 H   0  0  0  0  0  0
  -26.7310  -32.5287   23.0990 H   0  0  0  0  0  0
  -25.0116  -33.9591   25.0331 H   0  0  0  0  0  0
  -22.7565  -31.2894   21.3735 H   0  0  0  0  0  0
  -23.3754  -35.9541   23.3297 H   0  0  0  0  0  0
  -24.3546  -36.8892   22.2064 H   0  0  0  0  0  0
  -23.7189  -37.6417   23.6696 H   0  0  0  0  0  0
  -26.1679  -31.4575   20.6138 H   0  0  0  0  0  0
  -26.8830  -30.7610   22.0291 H   0  0  0  0  0  0
  -28.1265  -28.7567   21.2630 H   0  0  0  0  0  0
  -25.9083  -25.8449   18.9729 H   0  0  0  0  0  0
  -23.9893  -27.3120   18.9516 H   0  0  0  0  0  0
  -23.8177  -30.5662   19.3942 H   0  0  0  0  0  0
  -22.7950  -29.2354   19.8352 H   0  0  0  0  0  0
  -25.1288  -36.1853   25.0818 H   0  0  0  0  0  0
  -21.0008  -28.3352   24.1354 H   0  0  0  0  0  0
  -20.5669  -26.2364   23.3651 H   0  0  0  0  0  0
  -21.6646  -26.7438   22.1223 H   0  0  0  0  0  0
  -19.6917  -25.6307   21.1268 H   0  0  0  0  0  0
  -19.6719  -27.3201   20.6740 H   0  0  0  0  0  0
  -17.4219  -26.6776   21.3971 H   0  0  0  0  0  0
  -18.0261  -26.0105   22.8972 H   0  0  0  0  0  0
  -19.7968  -30.7306   24.2240 H   0  0  0  0  0  0
  -17.5054  -31.6289   24.5193 H   0  0  0  0  0  0
  -15.5384  -30.3021   23.7704 H   0  0  0  0  0  0
  -15.8679  -28.0875   22.7079 H   0  0  0  0  0  0
  -24.5956  -30.7009   25.7737 H   0  0  0  0  0  0
  -24.8771  -32.2944   26.4623 H   0  0  0  0  0  0
  -25.7957  -30.9126   27.0286 H   0  0  0  0  0  0
  -26.3094  -29.6669   24.1282 H   0  0  0  0  0  0
  -27.4035  -29.7286   25.4903 H   0  0  0  0  0  0
  -27.8986  -30.4244   23.9667 H   0  0  0  0  0  0
  -27.2641  -33.3713   26.1955 H   0  0  0  0  0  0
  -28.3927  -32.6810   25.0387 H   0  0  0  0  0  0
  -28.0620  -31.8559   26.5551 H   0  0  0  0  0  0
  -28.2576  -38.0075   24.7502 H   0  0  0  0  0  0
  -28.1050  -36.2607   24.6298 H   0  0  0  0  0  0
  -27.2286  -37.1441   25.8876 H   0  0  0  0  0  0
  -20.9501  -29.8822   21.6811 H   0  0  0  0  0  0
  -26.0128  -38.2821   24.1436 H   0  0  0  0  0  0
  -30.3114  -24.5123   21.3421 H   0  0  0  0  0  0
  -27.8181  -21.5600   19.5333 H   0  0  0  0  0  0
  -34.2132  -22.4478   22.2802 H   0  0  0  0  0  0
  -33.2926  -21.8048   20.9233 H   0  0  0  0  0  0
  -33.2235  -21.0296   22.5023 H   0  0  0  0  0  0
  -32.0333  -21.1990   24.3785 H   0  0  0  0  0  0
  -30.8413  -20.4262   25.3418 H   0  0  0  0  0  0
  -30.4240  -21.9295   24.5593 H   0  0  0  0  0  0
  -32.1762  -19.1652   22.2685 H   0  0  0  0  0  0
  -30.8453  -18.0994   22.7599 H   0  0  0  0  0  0
  -31.8977  -18.7446   23.9497 H   0  0  0  0  0  0
  -28.4131  -20.4848   23.9664 H   0  0  0  0  0  0
  -29.2255  -19.0622   24.6085 H   0  0  0  0  0  0
  -28.5712  -19.0178   23.0326 H   0  0  0  0  0  0
  -32.0574  -23.1354   23.4344 H   0  0  0  0  0  0
  -32.3261  -23.8627   21.9123 H   0  0  0  0  0  0
  -28.5886  -19.1105   19.4904 H   0  0  0  0  0  0
  -28.2097  -18.7046   21.0670 H   0  0  0  0  0  0
  -26.9516  -24.3789   20.4063 H   0  0  0  0  0  0
  -27.8263  -24.4626   18.9118 H   0  0  0  0  0  0
  -31.0837  -17.9118   20.7184 H   0  0  0  0  0  0
  -30.3874  -17.7383   19.2149 H   0  0  0  0  0  0
  -28.8049  -16.0022   20.7492 H   0  0  0  0  0  0
  1 25  1  0  0  0
  1 30  2  0  0  0
  1 86  1  0  0  0
  2  3  1  0  0  0
  2 25  1  0  0  0
  2 87  1  0  0  0
  2 88  1  0  0  0
  3  4  1  0  0  0
  3 89  1  0  0  0
  3 90  1  0  0  0
  4  5  1  0  0  0
  4 91  1  0  0  0
  4 92  1  0  0  0
  5  6  1  0  0  0
  5 26  1  0  0  0
  5 93  1  0  0  0
  6 25  1  0  0  0
  6 94  1  0  0  0
  6 95  1  0  0  0
  7  8  2  0  0  0
  7 26  1  0  0  0
  7 29  1  0  0  0
  8  9  1  0  0  0
  8 22  1  0  0  0
  9 10  1  0  0  0
  9 27  2  0  0  0
 10 11  2  0  0  0
 10 15  1  0  0  0
 11 12  1  0  0  0
 11 96  1  0  0  0
 12 13  2  0  0  0
 12 97  1  0  0  0
 13 14  1  0  0  0
 13 31  1  0  0  0
 14 15  2  0  0  0
 14 98  1  0  0  0
 15 99  1  0  0  0
 16 17  2  0  0  0
 16 21  1  0  0  0
 16 31  1  0  0  0
 17 18  1  0  0  0
 17100  1  0  0  0
 18 19  2  0  0  0
 18101  1  0  0  0
 19 20  1  0  0  0
 19 24  1  0  0  0
 20 21  2  0  0  0
 20102  1  0  0  0
 21 23  1  0  0  0
 22 28  1  0  0  0
 22 32  2  0  0  0
 26 27  1  0  0  0
 28103  1  0  0  0
 28104  1  0  0  0
 29105  1  0  0  0
 29106  1  0  0  0
 33 34  1  0  0  0
 33 66  1  0  0  0
 33 70  2  0  0  0
 34 36  1  0  0  0
 34 59  1  0  0  0
 34107  1  0  0  0
 35 44  2  0  0  0
 35 45  1  0  0  0
 35 68  1  0  0  0
 36 56  1  0  0  0
 36108  1  0  0  0
 37 39  1  0  0  0
 37 47  1  0  0  0
 37 66  1  0  0  0
 37109  1  0  0  0
 38 43  2  0  0  0
 38 46  1  0  0  0
 38 47  1  0  0  0
 39 64  1  0  0  0
 39 67  2  0  0  0
 40 52  1  0  0  0
 40 53  2  0  0  0
 40 58  1  0  0  0
 41110  1  0  0  0
 41111  1  0  0  0
 41112  1  0  0  0
 41 48  1  0  0  0
 42 43  1  0  0  0
 42 66  1  0  0  0
 42113  1  0  0  0
 42114  1  0  0  0
 43 44  1  0  0  0
 44115  1  0  0  0
 45 46  2  0  0  0
 45116  1  0  0  0
 46117  1  0  0  0
 47118  1  0  0  0
 47119  1  0  0  0
 48 56  1  0  0  0
 48 65  1  0  0  0
 48120  1  0  0  0
 49 50  1  0  0  0
 49 53  1  0  0  0
 49 64  1  0  0  0
 49121  1  0  0  0
 50 51  1  0  0  0
 50122  1  0  0  0
 50123  1  0  0  0
 51 52  1  0  0  0
 51124  1  0  0  0
 51125  1  0  0  0
 52126  1  0  0  0
 52127  1  0  0  0
 53 54  1  0  0  0
 54 55  2  0  0  0
 54128  1  0  0  0
 55 57  1  0  0  0
 55129  1  0  0  0
 56 69  2  0  0  0
 57 58  2  0  0  0
 57130  1  0  0  0
 58131  1  0  0  0
 59 60  1  0  0  0
 59 61  1  0  0  0
 59 62  1  0  0  0
 60132  1  0  0  0
 60133  1  0  0  0
 60134  1  0  0  0
 61135  1  0  0  0
 61136  1  0  0  0
 61137  1  0  0  0
 62138  1  0  0  0
 62139  1  0  0  0
 62140  1  0  0  0
 63 65  1  0  0  0
 63141  1  0  0  0
 63142  1  0  0  0
 63143  1  0  0  0
 64144  1  0  0  0
 65145  1  0  0  0
 68 83  1  0  0  0
 71 73  2  0  0  0
 71 74  1  0  0  0
 71146  1  0  0  0
 72 73  1  0  0  0
 72 75  2  0  0  0
 72147  1  0  0  0
 73 83  1  0  0  0
 74 76  2  0  0  0
 74 81  1  0  0  0
 75 76  1  0  0  0
 75 82  1  0  0  0
 76 85  1  0  0  0
 77 81  1  0  0  0
 77148  1  0  0  0
 77149  1  0  0  0
 77150  1  0  0  0
 78151  1  0  0  0
 78152  1  0  0  0
 78153  1  0  0  0
 78 85  1  0  0  0
 79 85  1  0  0  0
 79154  1  0  0  0
 79155  1  0  0  0
 79156  1  0  0  0
 80 85  1  0  0  0
 80157  1  0  0  0
 80158  1  0  0  0
 80159  1  0  0  0
 81160  1  0  0  0
 81161  1  0  0  0
 82 84  1  0  0  0
 82162  1  0  0  0
 82163  1  0  0  0
 83164  1  0  0  0
 83165  1  0  0  0
 84 86  1  0  0  0
 84166  1  0  0  0
 84167  1  0  0  0
 86168  1  0  0  0
M  ISO  4   1 100  68 101  83 101  86 100
M  END
> <chiral flag>
0

> <version>
0

> <s_m_source_file>
/data/baiqing/PycharmProjects/Reinvent-master-3.2/result/LINK_invent/BTK/process_docking_weight1_custom_sum_contain_oxygen_bond_distance_aromatic_linkinvent_7_9_3/rearranged_h_0100.sdf

> <i_m_source_file_index>
95

> <r_mmod_Potential_Energy-OPLS-2005>
687.845092773438

> <r_mmod_Stretch_Energy-OPLS-2005>
308.434844970703

> <r_mmod_Bend_Energy-OPLS-2005>
290.320983886719

> <r_mmod_Torsional_Energy-OPLS-2005>
312.954376220703

> <r_mmod_Improper_Torsional_Energy-OPLS-2005>
7.2673134803772

> <r_mmod_Van_der_Waal_Energy-OPLS-2005>
159.085250854492

> <r_mmod_Electrostatic_Energy-OPLS-2005>
-405.865753173828

> <r_mmod_Solvation_Energy-OPLS-2005>
-203.557891845703

> <b_mmod_Minimization_Converged-OPLS-2005>
0

> <r_mmod_RMS_Derivative-OPLS-2005>
2.36671996116638

$$$$
95
                    3D
 Structure written by MMmdl.
186194  0  0  1  0            999 V2000
  -30.6304  -14.7380   20.4468 C   0  0  0  0  0  0
  -30.4242  -12.4456   19.4729 C   0  0  0  0  0  0
  -29.5094  -12.5106   18.2316 C   0  0  0  0  0  0
  -28.0380  -12.3275   18.6511 C   0  0  0  0  0  0
  -27.6425  -13.2265   19.8522 C   0  0  2  0  0  0
  -28.6884  -13.1814   20.9855 C   0  0  0  0  0  0
  -25.2518  -13.8198   20.5690 C   0  0  0  0  0  0
  -24.1807  -13.0475   20.9224 C   0  0  0  0  0  0
  -24.6388  -11.6947   20.8729 C   0  0  0  0  0  0
  -23.9045  -10.4332   21.0360 C   0  0  0  0  0  0
  -24.3608   -9.4249   21.9149 C   0  0  0  0  0  0
  -23.6322   -8.2261   22.0721 C   0  0  0  0  0  0
  -22.4288   -8.0282   21.3541 C   0  0  0  0  0  0
  -21.9899   -9.0245   20.4630 C   0  0  0  0  0  0
  -22.7202  -10.2146   20.3035 C   0  0  0  0  0  0
  -21.6888   -6.0718   22.5263 C   0  0  0  0  0  0
  -21.4018   -6.5610   23.8193 C   0  0  0  0  0  0
  -21.3686   -5.6773   24.9162 C   0  0  0  0  0  0
  -21.6046   -4.3032   24.7238 C   0  0  0  0  0  0
  -21.8818   -3.8129   23.4354 C   0  0  0  0  0  0
  -21.9211   -4.6939   22.3400 C   0  0  0  0  0  0
  -22.7820  -13.5224   21.1944 C   0  0  0  0  0  0
  -22.1656   -4.2118   21.0977 F   0  0  0  0  0  0
  -21.5679   -3.4523   25.7769 F   0  0  0  0  0  0
  -29.9872  -13.5209   20.3946 N   0  0  0  0  0  0
  -26.2946  -12.9391   20.3325 N   0  0  0  0  0  0
  -25.9332  -11.6544   20.5772 N   0  0  0  0  0  0
  -22.0447  -12.8218   22.0470 N   0  0  0  0  0  0
  -25.4233  -15.1945   20.4031 N   0  0  0  0  0  0
  -31.8253  -14.8106   20.1479 O   0  0  0  0  0  0
  -21.6672   -6.8874   21.4223 O   0  0  0  0  0  0
  -22.3507  -14.5561   20.6810 O   0  0  0  0  0  0
  -24.6349  -31.8601   23.2025 C   0  0  0  0  0  0
  -25.9206  -32.4799   23.8349 C   0  0  1  0  0  0
  -27.2174  -27.2696   20.0899 C   0  0  0  0  0  0
  -25.6014  -33.8611   24.2280 N   0  0  0  0  0  0
  -23.4246  -30.4860   21.5457 C   0  0  2  0  0  0
  -24.8667  -28.9258   20.1115 C   0  0  0  0  0  0
  -22.7483  -29.4676   22.4953 C   0  0  0  0  0  0
  -18.0279  -28.1344   22.8472 C   0  0  0  0  0  0
  -24.1487  -36.7302   23.2640 C   0  0  0  0  0  0
  -25.9742  -30.7670   21.3792 C   0  0  0  0  0  0
  -26.0423  -29.3916   20.7126 C   0  0  0  0  0  0
  -27.2192  -28.5754   20.6925 C   0  0  0  0  0  0
  -26.0128  -26.8706   19.4673 C   0  0  0  0  0  0
  -24.8533  -27.6721   19.4814 C   0  0  0  0  0  0
  -23.6435  -29.8235   20.1588 C   0  0  0  0  0  0
  -25.4155  -36.3151   24.0320 C   0  0  1  0  0  0
  -20.5880  -28.3719   23.1248 C   0  0  2  0  0  0
  -20.6800  -26.9450   22.5374 C   0  0  0  0  0  0
  -19.5791  -26.6353   21.5185 C   0  0  0  0  0  0
  -18.1944  -26.7892   22.1566 C   0  0  0  0  0  0
  -19.1524  -28.8849   23.2848 C   0  0  0  0  0  0
  -18.9474  -30.1421   23.8908 C   0  0  0  0  0  0
  -17.6484  -30.6569   24.0552 C   0  0  0  0  0  0
  -25.9116  -34.9498   23.5111 C   0  0  0  0  0  0
  -16.5370  -29.9084   23.6293 C   0  0  0  0  0  0
  -16.7271  -28.6451   23.0414 C   0  0  0  0  0  0
  -26.4563  -31.6631   25.0736 C   0  0  0  0  0  0
  -25.3783  -31.3767   26.1450 C   0  0  0  0  0  0
  -27.0396  -30.3034   24.6261 C   0  0  0  0  0  0
  -27.6119  -32.4364   25.7503 C   0  0  0  0  0  0
  -27.5593  -37.1847   24.8479 C   0  0  0  0  0  0
  -21.4206  -29.3090   22.3671 N   0  0  0  0  0  0
  -26.4321  -37.3867   23.9413 N   0  0  0  0  0  0
  -24.6974  -31.0563   22.0989 N   0  0  0  0  0  0
  -23.4170  -28.8223   23.3059 O   0  0  0  0  0  0
  -28.3252  -26.3869   20.1237 O   0  0  0  0  0  0
  -26.5633  -34.8974   22.4647 O   0  0  0  0  0  0
  -23.5499  -32.1429   23.7311 O   0  0  0  0  0  0
  -31.5512  -21.9436   20.5532 C   0  0  0  0  0  0
  -32.4305  -21.5390   21.5666 C   0  0  0  0  0  0
  -30.2938  -21.3222   20.3942 C   0  0  0  0  0  0
  -32.0063  -20.6095   22.5377 C   0  0  0  0  0  0
  -30.1345  -20.0266   21.0566 C   0  0  0  0  0  0
  -30.7787  -19.9218   22.3205 C   0  0  0  0  0  0
  -33.1610  -21.7401   24.4772 C   0  0  0  0  0  0
  -34.2121  -19.7322   23.4061 C   0  0  0  0  0  0
  -27.6278  -19.2966   24.3624 C   0  0  0  0  0  0
  -27.6114  -22.8683   24.9520 C   0  0  0  0  0  0
  -29.8040  -23.3491   25.8919 C   0  0  0  0  0  0
  -29.1900  -22.2575   19.7509 C   0  0  0  0  0  0
  -29.4835  -18.6796   20.5118 C   0  0  0  0  0  0
  -30.0128  -19.2129   23.4473 C   0  0  0  0  0  0
  -29.2655  -23.8406   20.1524 C   0  0  0  0  0  0
  -30.4321  -17.3393   20.5928 C   0  0  0  0  0  0
  -29.3112  -21.0460   25.1562 C   0  0  0  0  0  0
  -28.1493  -24.9390   19.7529 C   0  0  0  0  0  0
  -32.8928  -20.4128   23.7697 C   0  0  0  0  0  0
  -28.8660  -20.1282   23.9813 C   0  0  2  0  0  0
  -29.8945  -15.9043   20.6204 N   0  0  0  0  0  0
  -29.0469  -22.4980   24.9415 N   0  3  0  0  0  0
  -31.4703  -12.5512   19.1767 H   0  0  0  0  0  0
  -30.3435  -11.4690   19.9552 H   0  0  0  0  0  0
  -29.7930  -11.7360   17.5153 H   0  0  0  0  0  0
  -29.6397  -13.4730   17.7295 H   0  0  0  0  0  0
  -27.8985  -11.2791   18.9197 H   0  0  0  0  0  0
  -27.3747  -12.5237   17.8082 H   0  0  0  0  0  0
  -27.6402  -14.2474   19.4721 H   0  0  0  0  0  0
  -28.7270  -12.1902   21.4416 H   0  0  0  0  0  0
  -28.4303  -13.8771   21.7828 H   0  0  0  0  0  0
  -25.2730   -9.5805   22.4762 H   0  0  0  0  0  0
  -24.0069   -7.4655   22.7418 H   0  0  0  0  0  0
  -21.0852   -8.8753   19.8915 H   0  0  0  0  0  0
  -22.3601  -10.9712   19.6192 H   0  0  0  0  0  0
  -21.1923   -7.6115   23.9718 H   0  0  0  0  0  0
  -21.1530   -6.0469   25.9075 H   0  0  0  0  0  0
  -22.0570   -2.7593   23.2871 H   0  0  0  0  0  0
  -22.4041  -11.9863   22.4889 H   0  0  0  0  0  0
  -21.1032  -13.1237   22.2660 H   0  0  0  0  0  0
  -24.6531  -15.8478   20.4869 H   0  0  0  0  0  0
  -26.2637  -15.6292   20.0489 H   0  0  0  0  0  0
  -26.7234  -32.5428   23.1042 H   0  0  0  0  0  0
  -25.0343  -33.9799   25.0543 H   0  0  0  0  0  0
  -22.7215  -31.3126   21.4016 H   0  0  0  0  0  0
  -23.3818  -35.9563   23.3309 H   0  0  0  0  0  0
  -24.3538  -36.8947   22.2050 H   0  0  0  0  0  0
  -23.7124  -37.6450   23.6665 H   0  0  0  0  0  0
  -26.1288  -31.5346   20.6188 H   0  0  0  0  0  0
  -26.8451  -30.7987   22.0223 H   0  0  0  0  0  0
  -28.1214  -28.9336   21.1686 H   0  0  0  0  0  0
  -25.9315  -25.9197   18.9591 H   0  0  0  0  0  0
  -23.9507  -27.3185   18.9966 H   0  0  0  0  0  0
  -23.7854  -30.6054   19.4093 H   0  0  0  0  0  0
  -22.7491  -29.2815   19.8434 H   0  0  0  0  0  0
  -25.1326  -36.2006   25.0804 H   0  0  0  0  0  0
  -20.9947  -28.3282   24.1379 H   0  0  0  0  0  0
  -20.5713  -26.2368   23.3593 H   0  0  0  0  0  0
  -21.6697  -26.7508   22.1199 H   0  0  0  0  0  0
  -19.7034  -25.6258   21.1256 H   0  0  0  0  0  0
  -19.6714  -27.3130   20.6688 H   0  0  0  0  0  0
  -17.4252  -26.6652   21.3910 H   0  0  0  0  0  0
  -18.0337  -25.9958   22.8886 H   0  0  0  0  0  0
  -19.7981  -30.7173   24.2302 H   0  0  0  0  0  0
  -17.5095  -31.6266   24.5151 H   0  0  0  0  0  0
  -15.5408  -30.3072   23.7589 H   0  0  0  0  0  0
  -15.8631  -28.0757   22.7284 H   0  0  0  0  0  0
  -24.6022  -30.7023   25.7838 H   0  0  0  0  0  0
  -24.8891  -32.2903   26.4831 H   0  0  0  0  0  0
  -25.8134  -30.9016   27.0251 H   0  0  0  0  0  0
  -26.2924  -29.6784   24.1347 H   0  0  0  0  0  0
  -27.4105  -29.7354   25.4813 H   0  0  0  0  0  0
  -27.8824  -30.4345   23.9468 H   0  0  0  0  0  0
  -27.2768  -33.3671   26.2095 H   0  0  0  0  0  0
  -28.3922  -32.6926   25.0308 H   0  0  0  0  0  0
  -28.0825  -31.8470   26.5388 H   0  0  0  0  0  0
  -28.2641  -38.0128   24.7606 H   0  0  0  0  0  0
  -28.1048  -36.2677   24.6232 H   0  0  0  0  0  0
  -27.2282  -37.1412   25.8869 H   0  0  0  0  0  0
  -20.9431  -29.8779   21.6831 H   0  0  0  0  0  0
  -26.0208  -38.2947   24.1411 H   0  0  0  0  0  0
  -31.8251  -22.8049   19.9618 H   0  0  0  0  0  0
  -33.3668  -22.0655   21.6855 H   0  0  0  0  0  0
  -32.2266  -22.2665   24.6099 H   0  0  0  0  0  0
  -33.8288  -22.3945   23.9161 H   0  0  0  0  0  0
  -33.6065  -21.5761   25.4598 H   0  0  0  0  0  0
  -34.0390  -18.7508   22.9673 H   0  0  0  0  0  0
  -34.8275  -19.5948   24.2946 H   0  0  0  0  0  0
  -34.7805  -20.3284   22.6921 H   0  0  0  0  0  0
  -27.3038  -18.6689   23.5332 H   0  0  0  0  0  0
  -26.7844  -19.9330   24.6354 H   0  0  0  0  0  0
  -27.8329  -18.6395   25.2056 H   0  0  0  0  0  0
  -27.0488  -22.3588   24.1697 H   0  0  0  0  0  0
  -27.4899  -23.9392   24.7849 H   0  0  0  0  0  0
  -27.1502  -22.6321   25.9119 H   0  0  0  0  0  0
  -29.7024  -24.4039   25.6418 H   0  0  0  0  0  0
  -30.8683  -23.1407   25.8877 H   0  0  0  0  0  0
  -29.4637  -23.2054   26.9171 H   0  0  0  0  0  0
  -28.2190  -21.8591   20.0384 H   0  0  0  0  0  0
  -29.2627  -22.1520   18.6676 H   0  0  0  0  0  0
  -29.1800  -18.8556   19.4806 H   0  0  0  0  0  0
  -28.5582  -18.5153   21.0596 H   0  0  0  0  0  0
  -30.6300  -18.8585   24.2634 H   0  0  0  0  0  0
  -29.5879  -18.2880   23.0622 H   0  0  0  0  0  0
  -30.2100  -24.2212   19.7683 H   0  0  0  0  0  0
  -29.3565  -23.8769   21.2401 H   0  0  0  0  0  0
  -31.0510  -17.4059   21.4879 H   0  0  0  0  0  0
  -31.1562  -17.3962   19.7763 H   0  0  0  0  0  0
  -30.3827  -20.9148   25.3036 H   0  0  0  0  0  0
  -28.8604  -20.7282   26.0982 H   0  0  0  0  0  0
  -27.2112  -24.5779   20.1741 H   0  0  0  0  0  0
  -28.0279  -24.9061   18.6696 H   0  0  0  0  0  0
  -32.4165  -19.7780   24.5077 H   0  0  0  0  0  0
  -28.5364  -20.7502   23.1488 H   0  0  0  0  0  0
  -28.9113  -15.7853   20.8161 H   0  0  0  0  0  0
  -29.3917  -22.7236   24.0197 H   0  0  0  0  0  0
  1 25  1  0  0  0
  1 30  2  0  0  0
  1 91  1  0  0  0
  2  3  1  0  0  0
  2 25  1  0  0  0
  2 93  1  0  0  0
  2 94  1  0  0  0
  3  4  1  0  0  0
  3 95  1  0  0  0
  3 96  1  0  0  0
  4  5  1  0  0  0
  4 97  1  0  0  0
  4 98  1  0  0  0
  5  6  1  0  0  0
  5 26  1  0  0  0
  5 99  1  0  0  0
  6 25  1  0  0  0
  6100  1  0  0  0
  6101  1  0  0  0
  7  8  2  0  0  0
  7 26  1  0  0  0
  7 29  1  0  0  0
  8  9  1  0  0  0
  8 22  1  0  0  0
  9 10  1  0  0  0
  9 27  2  0  0  0
 10 11  2  0  0  0
 10 15  1  0  0  0
 11 12  1  0  0  0
 11102  1  0  0  0
 12 13  2  0  0  0
 12103  1  0  0  0
 13 14  1  0  0  0
 13 31  1  0  0  0
 14 15  2  0  0  0
 14104  1  0  0  0
 15105  1  0  0  0
 16 17  2  0  0  0
 16 21  1  0  0  0
 16 31  1  0  0  0
 17 18  1  0  0  0
 17106  1  0  0  0
 18 19  2  0  0  0
 18107  1  0  0  0
 19 20  1  0  0  0
 19 24  1  0  0  0
 20 21  2  0  0  0
 20108  1  0  0  0
 21 23  1  0  0  0
 22 28  1  0  0  0
 22 32  2  0  0  0
 26 27  1  0  0  0
 28109  1  0  0  0
 28110  1  0  0  0
 29111  1  0  0  0
 29112  1  0  0  0
 33 34  1  0  0  0
 33 66  1  0  0  0
 33 70  2  0  0  0
 34 36  1  0  0  0
 34 59  1  0  0  0
 34113  1  0  0  0
 35 44  2  0  0  0
 35 45  1  0  0  0
 35 68  1  0  0  0
 36 56  1  0  0  0
 36114  1  0  0  0
 37 39  1  0  0  0
 37 47  1  0  0  0
 37 66  1  0  0  0
 37115  1  0  0  0
 38 43  2  0  0  0
 38 46  1  0  0  0
 38 47  1  0  0  0
 39 64  1  0  0  0
 39 67  2  0  0  0
 40 52  1  0  0  0
 40 53  2  0  0  0
 40 58  1  0  0  0
 41116  1  0  0  0
 41117  1  0  0  0
 41118  1  0  0  0
 41 48  1  0  0  0
 42 43  1  0  0  0
 42 66  1  0  0  0
 42119  1  0  0  0
 42120  1  0  0  0
 43 44  1  0  0  0
 44121  1  0  0  0
 45 46  2  0  0  0
 45122  1  0  0  0
 46123  1  0  0  0
 47124  1  0  0  0
 47125  1  0  0  0
 48 56  1  0  0  0
 48 65  1  0  0  0
 48126  1  0  0  0
 49 50  1  0  0  0
 49 53  1  0  0  0
 49 64  1  0  0  0
 49127  1  0  0  0
 50 51  1  0  0  0
 50128  1  0  0  0
 50129  1  0  0  0
 51 52  1  0  0  0
 51130  1  0  0  0
 51131  1  0  0  0
 52132  1  0  0  0
 52133  1  0  0  0
 53 54  1  0  0  0
 54 55  2  0  0  0
 54134  1  0  0  0
 55 57  1  0  0  0
 55135  1  0  0  0
 56 69  2  0  0  0
 57 58  2  0  0  0
 57136  1  0  0  0
 58137  1  0  0  0
 59 60  1  0  0  0
 59 61  1  0  0  0
 59 62  1  0  0  0
 60138  1  0  0  0
 60139  1  0  0  0
 60140  1  0  0  0
 61141  1  0  0  0
 61142  1  0  0  0
 61143  1  0  0  0
 62144  1  0  0  0
 62145  1  0  0  0
 62146  1  0  0  0
 63 65  1  0  0  0
 63147  1  0  0  0
 63148  1  0  0  0
 63149  1  0  0  0
 64150  1  0  0  0
 65151  1  0  0  0
 68 88  1  0  0  0
 71 72  2  0  0  0
 71 73  1  0  0  0
 71152  1  0  0  0
 72 74  1  0  0  0
 72153  1  0  0  0
 73 75  2  0  0  0
 73 82  1  0  0  0
 74 76  2  0  0  0
 74 89  1  0  0  0
 75 76  1  0  0  0
 75 83  1  0  0  0
 76 84  1  0  0  0
 77154  1  0  0  0
 77155  1  0  0  0
 77156  1  0  0  0
 77 89  1  0  0  0
 78 89  1  0  0  0
 78157  1  0  0  0
 78158  1  0  0  0
 78159  1  0  0  0
 79160  1  0  0  0
 79161  1  0  0  0
 79162  1  0  0  0
 79 90  1  0  0  0
 80163  1  0  0  0
 80164  1  0  0  0
 80165  1  0  0  0
 80 92  1  0  0  0
 81 92  1  0  0  0
 81166  1  0  0  0
 81167  1  0  0  0
 81168  1  0  0  0
 82 85  1  0  0  0
 82169  1  0  0  0
 82170  1  0  0  0
 83 86  1  0  0  0
 83171  1  0  0  0
 83172  1  0  0  0
 84 90  1  0  0  0
 84173  1  0  0  0
 84174  1  0  0  0
 85 88  1  0  0  0
 85175  1  0  0  0
 85176  1  0  0  0
 86 91  1  0  0  0
 86177  1  0  0  0
 86178  1  0  0  0
 87 90  1  0  0  0
 87 92  1  0  0  0
 87179  1  0  0  0
 87180  1  0  0  0
 88181  1  0  0  0
 88182  1  0  0  0
 89183  1  0  0  0
 90184  1  0  0  0
 91185  1  0  0  0
 92186  1  0  0  0
M  CHG  1  92   1
M  ISO  4   1 100  68 101  88 101  91 100
M  END
> <chiral flag>
0

> <version>
0

> <s_m_source_file>
/data/baiqing/PycharmProjects/Reinvent-master-3.2/result/LINK_invent/BTK/process_docking_weight1_custom_sum_contain_oxygen_bond_distance_aromatic_linkinvent_7_9_3/rearranged_h_0100.sdf

> <i_m_source_file_index>
96

> <r_mmod_Potential_Energy-OPLS-2005>
191.040145874023

> <r_mmod_Stretch_Energy-OPLS-2005>
140.431335449219

> <r_mmod_Bend_Energy-OPLS-2005>
191.475540161133

> <r_mmod_Torsional_Energy-OPLS-2005>
372.994750976562

> <r_mmod_Improper_Torsional_Energy-OPLS-2005>
7.83062505722046

> <r_mmod_Van_der_Waal_Energy-OPLS-2005>
147.169815063477

> <r_mmod_Electrostatic_Energy-OPLS-2005>
-322.626434326172

> <r_mmod_Solvation_Energy-OPLS-2005>
-427.903503417969

> <b_mmod_Minimization_Converged-OPLS-2005>
0

> <r_mmod_RMS_Derivative-OPLS-2005>
6.86945772171021

$$$$
96
                    3D
 Structure written by MMmdl.
154162  0  0  1  0            999 V2000
  -30.4643  -15.0293   20.4115 C   0  0  0  0  0  0
  -30.4574  -12.6387   19.5026 C   0  0  0  0  0  0
  -29.5296  -12.5387   18.2646 C   0  0  0  0  0  0
  -28.0635  -12.3117   18.6846 C   0  0  0  0  0  0
  -27.6315  -13.2469   19.8426 C   0  0  2  0  0  0
  -28.6753  -13.2747   20.9794 C   0  0  0  0  0  0
  -25.2481  -13.8202   20.5726 C   0  0  0  0  0  0
  -24.1791  -13.0426   20.9234 C   0  0  0  0  0  0
  -24.6395  -11.6914   20.8740 C   0  0  0  0  0  0
  -23.9077  -10.4287   21.0403 C   0  0  0  0  0  0
  -24.3627   -9.4209   21.9191 C   0  0  0  0  0  0
  -23.6305   -8.2242   22.0757 C   0  0  0  0  0  0
  -22.4288   -8.0280   21.3541 C   0  0  0  0  0  0
  -21.9925   -9.0258   20.4646 C   0  0  0  0  0  0
  -22.7240  -10.2139   20.3061 C   0  0  0  0  0  0
  -21.6854   -6.0739   22.5275 C   0  0  0  0  0  0
  -21.4007   -6.5634   23.8210 C   0  0  0  0  0  0
  -21.3668   -5.6787   24.9173 C   0  0  0  0  0  0
  -21.6049   -4.3053   24.7222 C   0  0  0  0  0  0
  -21.8824   -3.8149   23.4338 C   0  0  0  0  0  0
  -21.9192   -4.6971   22.3398 C   0  0  0  0  0  0
  -22.7815  -13.5211   21.1885 C   0  0  0  0  0  0
  -22.1673   -4.2156   21.0975 F   0  0  0  0  0  0
  -21.5625   -3.4534   25.7730 F   0  0  0  0  0  0
  -29.9439  -13.7278   20.3870 N   0  0  0  0  0  0
  -26.2903  -12.9427   20.3256 N   0  0  0  0  0  0
  -25.9329  -11.6554   20.5743 N   0  0  0  0  0  0
  -22.0464  -12.8211   22.0443 N   0  0  0  0  0  0
  -25.4139  -15.1931   20.4145 N   0  0  0  0  0  0
  -31.6583  -15.1574   20.1090 O   0  0  0  0  0  0
  -21.6647   -6.8882   21.4236 O   0  0  0  0  0  0
  -22.3507  -14.5517   20.6718 O   0  0  0  0  0  0
  -24.6478  -31.8372   23.1796 C   0  0  0  0  0  0
  -25.9226  -32.4649   23.8220 C   0  0  1  0  0  0
  -27.2339  -27.0801   20.1517 C   0  0  0  0  0  0
  -25.5958  -33.8460   24.2146 N   0  0  0  0  0  0
  -23.4545  -30.4504   21.5258 C   0  0  2  0  0  0
  -24.9062  -28.8613   20.1076 C   0  0  0  0  0  0
  -22.7584  -29.4503   22.4828 C   0  0  0  0  0  0
  -18.0313  -28.1390   22.8484 C   0  0  0  0  0  0
  -24.1495  -36.7228   23.2640 C   0  0  0  0  0  0
  -26.0114  -30.6922   21.3836 C   0  0  0  0  0  0
  -26.0825  -29.2962   20.7281 C   0  0  0  0  0  0
  -27.2385  -28.4216   20.7324 C   0  0  0  0  0  0
  -26.0236  -26.7515   19.5031 C   0  0  0  0  0  0
  -24.8922  -27.6041   19.4797 C   0  0  0  0  0  0
  -23.6828  -29.7690   20.1492 C   0  0  0  0  0  0
  -25.4129  -36.3001   24.0314 C   0  0  1  0  0  0
  -20.5922  -28.3721   23.1222 C   0  0  2  0  0  0
  -20.6797  -26.9418   22.5407 C   0  0  0  0  0  0
  -19.5770  -26.6380   21.5212 C   0  0  0  0  0  0
  -18.1951  -26.7932   22.1623 C   0  0  0  0  0  0
  -19.1568  -28.8877   23.2848 C   0  0  0  0  0  0
  -18.9480  -30.1472   23.8868 C   0  0  0  0  0  0
  -17.6478  -30.6589   24.0554 C   0  0  0  0  0  0
  -25.9080  -34.9379   23.5038 C   0  0  0  0  0  0
  -16.5365  -29.9083   23.6338 C   0  0  0  0  0  0
  -16.7296  -28.6498   23.0364 C   0  0  0  0  0  0
  -26.4538  -31.6532   25.0682 C   0  0  0  0  0  0
  -25.3711  -31.3711   26.1369 C   0  0  0  0  0  0
  -27.0415  -30.2932   24.6272 C   0  0  0  0  0  0
  -27.6071  -32.4303   25.7463 C   0  0  0  0  0  0
  -27.5571  -37.1762   24.8466 C   0  0  0  0  0  0
  -21.4267  -29.3034   22.3583 N   0  0  0  0  0  0
  -26.4279  -37.3729   23.9414 N   0  0  0  0  0  0
  -24.7249  -31.0168   22.0851 N   0  0  0  0  0  0
  -23.4210  -28.8078   23.3022 O   0  0  0  0  0  0
  -28.3200  -26.1155   20.2726 O   0  0  0  0  0  0
  -26.5673  -34.8890   22.4618 O   0  0  0  0  0  0
  -23.5589  -32.1280   23.6987 O   0  0  0  0  0  0
  -28.2725  -18.1992   21.4115 C   0  0  0  0  0  0
  -29.8693  -18.8749   20.0611 C   0  0  0  0  0  0
  -29.3703  -17.6753   20.6587 C   0  0  0  0  0  0
  -28.1300  -19.5723   21.2677 C   0  0  0  0  0  0
  -27.0782  -20.4395   21.8794 C   0  0  0  0  0  0
  -28.1145  -24.5349   18.2710 C   0  0  0  0  0  0
  -28.4571  -23.0729   20.4680 C   0  0  0  0  0  0
  -29.2409  -21.6348   19.9195 C   0  0  0  0  0  0
  -28.5447  -24.6327   19.7415 C   0  0  2  0  0  0
  -29.1066  -20.0976   20.4147 N   0  0  0  0  0  0
  -29.5616  -16.1232   20.6303 N   0  0  0  0  0  0
  -31.4825  -12.8325   19.1818 H   0  0  0  0  0  0
  -30.4911  -11.6904   20.0404 H   0  0  0  0  0  0
  -29.8575  -11.7281   17.6134 H   0  0  0  0  0  0
  -29.6052  -13.4551   17.6764 H   0  0  0  0  0  0
  -27.9701  -11.2722   19.0023 H   0  0  0  0  0  0
  -27.3980  -12.4296   17.8280 H   0  0  0  0  0  0
  -27.5900  -14.2471   19.4109 H   0  0  0  0  0  0
  -28.7831  -12.2912   21.4389 H   0  0  0  0  0  0
  -28.3608  -13.9515   21.7757 H   0  0  0  0  0  0
  -25.2773   -9.5694   22.4765 H   0  0  0  0  0  0
  -24.0022   -7.4636   22.7471 H   0  0  0  0  0  0
  -21.0865   -8.8762   19.8955 H   0  0  0  0  0  0
  -22.3691  -10.9677   19.6173 H   0  0  0  0  0  0
  -21.1992   -7.6145   23.9711 H   0  0  0  0  0  0
  -21.1492   -6.0521   25.9072 H   0  0  0  0  0  0
  -22.0601   -2.7612   23.2831 H   0  0  0  0  0  0
  -22.4101  -11.9906   22.4874 H   0  0  0  0  0  0
  -21.1067  -13.1222   22.2605 H   0  0  0  0  0  0
  -24.6369  -15.8373   20.5191 H   0  0  0  0  0  0
  -26.2421  -15.6349   20.0364 H   0  0  0  0  0  0
  -26.7284  -32.5242   23.0940 H   0  0  0  0  0  0
  -25.0122  -33.9576   25.0308 H   0  0  0  0  0  0
  -22.7600  -31.2769   21.3640 H   0  0  0  0  0  0
  -23.3772  -35.9542   23.3284 H   0  0  0  0  0  0
  -24.3570  -36.8888   22.2055 H   0  0  0  0  0  0
  -23.7245  -37.6413   23.6699 H   0  0  0  0  0  0
  -26.1669  -31.4399   20.6051 H   0  0  0  0  0  0
  -26.8827  -30.7490   22.0246 H   0  0  0  0  0  0
  -28.1327  -28.7508   21.2434 H   0  0  0  0  0  0
  -25.9072  -25.7820   19.0496 H   0  0  0  0  0  0
  -23.9902  -27.2609   18.9919 H   0  0  0  0  0  0
  -23.8154  -30.5378   19.3872 H   0  0  0  0  0  0
  -22.7969  -29.2088   19.8452 H   0  0  0  0  0  0
  -25.1315  -36.1816   25.0808 H   0  0  0  0  0  0
  -21.0021  -28.3324   24.1338 H   0  0  0  0  0  0
  -20.5685  -26.2326   23.3630 H   0  0  0  0  0  0
  -21.6663  -26.7425   22.1192 H   0  0  0  0  0  0
  -19.6934  -25.6286   21.1253 H   0  0  0  0  0  0
  -19.6712  -27.3180   20.6732 H   0  0  0  0  0  0
  -17.4222  -26.6678   21.4027 H   0  0  0  0  0  0
  -18.0346  -26.0075   22.9015 H   0  0  0  0  0  0
  -19.7955  -30.7298   24.2225 H   0  0  0  0  0  0
  -17.5028  -31.6264   24.5156 H   0  0  0  0  0  0
  -15.5365  -30.2971   23.7675 H   0  0  0  0  0  0
  -15.8699  -28.0803   22.7103 H   0  0  0  0  0  0
  -24.5928  -30.7023   25.7677 H   0  0  0  0  0  0
  -24.8855  -32.2879   26.4711 H   0  0  0  0  0  0
  -25.7990  -30.8941   27.0195 H   0  0  0  0  0  0
  -26.3034  -29.6643   24.1287 H   0  0  0  0  0  0
  -27.4030  -29.7242   25.4844 H   0  0  0  0  0  0
  -27.8936  -30.4162   23.9586 H   0  0  0  0  0  0
  -27.2680  -33.3641   26.1954 H   0  0  0  0  0  0
  -28.3926  -32.6802   25.0316 H   0  0  0  0  0  0
  -28.0696  -31.8482   26.5446 H   0  0  0  0  0  0
  -28.2569  -38.0074   24.7527 H   0  0  0  0  0  0
  -28.1086  -36.2606   24.6283 H   0  0  0  0  0  0
  -27.2277  -37.1387   25.8862 H   0  0  0  0  0  0
  -20.9485  -29.8718   21.6735 H   0  0  0  0  0  0
  -26.0139  -38.2789   24.1442 H   0  0  0  0  0  0
  -27.5951  -17.6032   22.0085 H   0  0  0  0  0  0
  -30.6909  -18.9832   19.3648 H   0  0  0  0  0  0
  -27.5189  -21.2477   22.4618 H   0  0  0  0  0  0
  -26.4399  -19.8669   22.5531 H   0  0  0  0  0  0
  -26.4349  -20.8713   21.1124 H   0  0  0  0  0  0
  -28.7143  -23.7938   17.7431 H   0  0  0  0  0  0
  -28.2449  -25.4832   17.7493 H   0  0  0  0  0  0
  -27.0776  -24.2178   18.1740 H   0  0  0  0  0  0
  -28.7678  -23.2047   21.5041 H   0  0  0  0  0  0
  -27.3937  -22.8487   20.5268 H   0  0  0  0  0  0
  -30.3082  -21.8526   19.9747 H   0  0  0  0  0  0
  -29.0412  -21.5921   18.8496 H   0  0  0  0  0  0
  -29.6295  -24.7119   19.6643 H   0  0  0  0  0  0
  -28.7028  -15.6830   20.9249 H   0  0  0  0  0  0
  1 25  1  0  0  0
  1 30  2  0  0  0
  1 81  1  0  0  0
  2  3  1  0  0  0
  2 25  1  0  0  0
  2 82  1  0  0  0
  2 83  1  0  0  0
  3  4  1  0  0  0
  3 84  1  0  0  0
  3 85  1  0  0  0
  4  5  1  0  0  0
  4 86  1  0  0  0
  4 87  1  0  0  0
  5  6  1  0  0  0
  5 26  1  0  0  0
  5 88  1  0  0  0
  6 25  1  0  0  0
  6 89  1  0  0  0
  6 90  1  0  0  0
  7  8  2  0  0  0
  7 26  1  0  0  0
  7 29  1  0  0  0
  8  9  1  0  0  0
  8 22  1  0  0  0
  9 10  1  0  0  0
  9 27  2  0  0  0
 10 11  2  0  0  0
 10 15  1  0  0  0
 11 12  1  0  0  0
 11 91  1  0  0  0
 12 13  2  0  0  0
 12 92  1  0  0  0
 13 14  1  0  0  0
 13 31  1  0  0  0
 14 15  2  0  0  0
 14 93  1  0  0  0
 15 94  1  0  0  0
 16 17  2  0  0  0
 16 21  1  0  0  0
 16 31  1  0  0  0
 17 18  1  0  0  0
 17 95  1  0  0  0
 18 19  2  0  0  0
 18 96  1  0  0  0
 19 20  1  0  0  0
 19 24  1  0  0  0
 20 21  2  0  0  0
 20 97  1  0  0  0
 21 23  1  0  0  0
 22 28  1  0  0  0
 22 32  2  0  0  0
 26 27  1  0  0  0
 28 98  1  0  0  0
 28 99  1  0  0  0
 29100  1  0  0  0
 29101  1  0  0  0
 33 34  1  0  0  0
 33 66  1  0  0  0
 33 70  2  0  0  0
 34 36  1  0  0  0
 34 59  1  0  0  0
 34102  1  0  0  0
 35 44  2  0  0  0
 35 45  1  0  0  0
 35 68  1  0  0  0
 36 56  1  0  0  0
 36103  1  0  0  0
 37 39  1  0  0  0
 37 47  1  0  0  0
 37 66  1  0  0  0
 37104  1  0  0  0
 38 43  2  0  0  0
 38 46  1  0  0  0
 38 47  1  0  0  0
 39 64  1  0  0  0
 39 67  2  0  0  0
 40 52  1  0  0  0
 40 53  2  0  0  0
 40 58  1  0  0  0
 41105  1  0  0  0
 41106  1  0  0  0
 41107  1  0  0  0
 41 48  1  0  0  0
 42 43  1  0  0  0
 42 66  1  0  0  0
 42108  1  0  0  0
 42109  1  0  0  0
 43 44  1  0  0  0
 44110  1  0  0  0
 45 46  2  0  0  0
 45111  1  0  0  0
 46112  1  0  0  0
 47113  1  0  0  0
 47114  1  0  0  0
 48 56  1  0  0  0
 48 65  1  0  0  0
 48115  1  0  0  0
 49 50  1  0  0  0
 49 53  1  0  0  0
 49 64  1  0  0  0
 49116  1  0  0  0
 50 51  1  0  0  0
 50117  1  0  0  0
 50118  1  0  0  0
 51 52  1  0  0  0
 51119  1  0  0  0
 51120  1  0  0  0
 52121  1  0  0  0
 52122  1  0  0  0
 53 54  1  0  0  0
 54 55  2  0  0  0
 54123  1  0  0  0
 55 57  1  0  0  0
 55124  1  0  0  0
 56 69  2  0  0  0
 57 58  2  0  0  0
 57125  1  0  0  0
 58126  1  0  0  0
 59 60  1  0  0  0
 59 61  1  0  0  0
 59 62  1  0  0  0
 60127  1  0  0  0
 60128  1  0  0  0
 60129  1  0  0  0
 61130  1  0  0  0
 61131  1  0  0  0
 61132  1  0  0  0
 62133  1  0  0  0
 62134  1  0  0  0
 62135  1  0  0  0
 63 65  1  0  0  0
 63136  1  0  0  0
 63137  1  0  0  0
 63138  1  0  0  0
 64139  1  0  0  0
 65140  1  0  0  0
 68 79  1  0  0  0
 71 73  1  0  0  0
 71 74  2  0  0  0
 71141  1  0  0  0
 72 73  2  0  0  0
 72 80  1  0  0  0
 72142  1  0  0  0
 73 81  1  0  0  0
 74 75  1  0  0  0
 74 80  1  0  0  0
 75143  1  0  0  0
 75144  1  0  0  0
 75145  1  0  0  0
 76146  1  0  0  0
 76147  1  0  0  0
 76148  1  0  0  0
 76 79  1  0  0  0
 77 78  1  0  0  0
 77 79  1  0  0  0
 77149  1  0  0  0
 77150  1  0  0  0
 78 80  1  0  0  0
 78151  1  0  0  0
 78152  1  0  0  0
 79153  1  0  0  0
 81154  1  0  0  0
M  ISO  4   1 100  68 101  79 101  81 100
M  END
> <chiral flag>
0

> <version>
0

> <s_m_source_file>
/data/baiqing/PycharmProjects/Reinvent-master-3.2/result/LINK_invent/BTK/process_docking_weight1_custom_sum_contain_oxygen_bond_distance_aromatic_linkinvent_7_9_3/rearranged_h_0100.sdf

> <i_m_source_file_index>
97

> <r_mmod_Potential_Energy-OPLS-2005>
738.762756347656

> <r_mmod_Stretch_Energy-OPLS-2005>
334.663482666016

> <r_mmod_Bend_Energy-OPLS-2005>
407.620239257812

> <r_mmod_Torsional_Energy-OPLS-2005>
225.930130004883

> <r_mmod_Improper_Torsional_Energy-OPLS-2005>
4.53550434112549

> <r_mmod_Van_der_Waal_Energy-OPLS-2005>
104.578056335449

> <r_mmod_Electrostatic_Energy-OPLS-2005>
-373.302947998047

> <r_mmod_Solvation_Energy-OPLS-2005>
-212.950424194336

> <b_mmod_Minimization_Converged-OPLS-2005>
0

> <r_mmod_RMS_Derivative-OPLS-2005>
1.67820119857788

$$$$
97
                    3D
 Structure written by MMmdl.
178186  0  0  1  0            999 V2000
  -30.6548  -14.5666   20.5227 C   0  0  0  0  0  0
  -30.4394  -12.3469   19.4397 C   0  0  0  0  0  0
  -29.5176  -12.5160   18.2133 C   0  0  0  0  0  0
  -28.0369  -12.3648   18.6210 C   0  0  0  0  0  0
  -27.6641  -13.2141   19.8690 C   0  0  2  0  0  0
  -28.7079  -13.0245   20.9929 C   0  0  0  0  0  0
  -25.2619  -13.8176   20.5735 C   0  0  0  0  0  0
  -24.1846  -13.0444   20.9235 C   0  0  0  0  0  0
  -24.6378  -11.6914   20.8675 C   0  0  0  0  0  0
  -23.9012  -10.4291   21.0327 C   0  0  0  0  0  0
  -24.3568   -9.4215   21.9131 C   0  0  0  0  0  0
  -23.6255   -8.2246   22.0711 C   0  0  0  0  0  0
  -22.4231   -8.0271   21.3516 C   0  0  0  0  0  0
  -21.9843   -9.0219   20.4618 C   0  0  0  0  0  0
  -22.7160  -10.2117   20.3014 C   0  0  0  0  0  0
  -21.6834   -6.0710   22.5259 C   0  0  0  0  0  0
  -21.3989   -6.5613   23.8197 C   0  0  0  0  0  0
  -21.3676   -5.6776   24.9175 C   0  0  0  0  0  0
  -21.6067   -4.3035   24.7207 C   0  0  0  0  0  0
  -21.8817   -3.8130   23.4330 C   0  0  0  0  0  0
  -21.9192   -4.6946   22.3388 C   0  0  0  0  0  0
  -22.7879  -13.5231   21.1890 C   0  0  0  0  0  0
  -22.1670   -4.2152   21.0962 F   0  0  0  0  0  0
  -21.5655   -3.4505   25.7717 F   0  0  0  0  0  0
  -30.0308  -13.3515   20.4398 N   0  0  0  0  0  0
  -26.3041  -12.9344   20.3314 N   0  0  0  0  0  0
  -25.9301  -11.6493   20.5616 N   0  0  0  0  0  0
  -22.0479  -12.8239   22.0442 N   0  0  0  0  0  0
  -25.4340  -15.1878   20.4151 N   0  0  0  0  0  0
  -31.8070  -14.7131   20.1034 O   0  0  0  0  0  0
  -21.6628   -6.8836   21.4213 O   0  0  0  0  0  0
  -22.3543  -14.5506   20.6706 O   0  0  0  0  0  0
  -24.6145  -31.8691   23.2109 C   0  0  0  0  0  0
  -25.9049  -32.4822   23.8400 C   0  0  1  0  0  0
  -27.2247  -27.4386   20.1027 C   0  0  0  0  0  0
  -25.5907  -33.8621   24.2323 N   0  0  0  0  0  0
  -23.4018  -30.4914   21.5530 C   0  0  2  0  0  0
  -24.8474  -28.9627   20.1098 C   0  0  0  0  0  0
  -22.7427  -29.4635   22.5011 C   0  0  0  0  0  0
  -18.0277  -28.1397   22.8489 C   0  0  0  0  0  0
  -24.1495  -36.7325   23.2631 C   0  0  0  0  0  0
  -25.9293  -30.8349   21.3649 C   0  0  0  0  0  0
  -26.0065  -29.4703   20.7124 C   0  0  0  0  0  0
  -27.2019  -28.7163   20.7046 C   0  0  0  0  0  0
  -26.0550  -26.9474   19.4860 C   0  0  0  0  0  0
  -24.8674  -27.7014   19.4903 C   0  0  0  0  0  0
  -23.6087  -29.8280   20.1648 C   0  0  0  0  0  0
  -25.4115  -36.3112   24.0329 C   0  0  1  0  0  0
  -20.5863  -28.3660   23.1349 C   0  0  2  0  0  0
  -20.6776  -26.9404   22.5428 C   0  0  0  0  0  0
  -19.5753  -26.6395   21.5229 C   0  0  0  0  0  0
  -18.1925  -26.7949   22.1621 C   0  0  0  0  0  0
  -19.1524  -28.8850   23.2913 C   0  0  0  0  0  0
  -18.9438  -30.1465   23.8916 C   0  0  0  0  0  0
  -17.6433  -30.6589   24.0573 C   0  0  0  0  0  0
  -25.9037  -34.9474   23.5127 C   0  0  0  0  0  0
  -16.5330  -29.9089   23.6322 C   0  0  0  0  0  0
  -16.7265  -28.6516   23.0326 C   0  0  0  0  0  0
  -26.4465  -31.6595   25.0723 C   0  0  0  0  0  0
  -25.3713  -31.3722   26.1462 C   0  0  0  0  0  0
  -27.0270  -30.3021   24.6104 C   0  0  0  0  0  0
  -27.6059  -32.4299   25.7467 C   0  0  0  0  0  0
  -27.5597  -37.1808   24.8452 C   0  0  0  0  0  0
  -21.4147  -29.3024   22.3765 N   0  0  0  0  0  0
  -26.4302  -37.3792   23.9408 N   0  0  0  0  0  0
  -24.6665  -31.0793   22.1015 N   0  0  0  0  0  0
  -23.4208  -28.8176   23.3040 O   0  0  0  0  0  0
  -28.3685  -26.6745   20.1084 O   0  0  0  0  0  0
  -26.5594  -34.8928   22.4682 O   0  0  0  0  0  0
  -23.5336  -32.1443   23.7507 O   0  0  0  0  0  0
  -31.1566  -21.0654   22.2709 C   0  0  0  0  0  0
  -31.5517  -19.8380   22.8646 C   0  0  0  0  0  0
  -30.2383  -20.7320   21.3128 C   0  0  0  0  0  0
  -27.8852  -18.5235   17.2818 C   0  0  0  0  0  0
  -32.5156  -18.2067   24.5568 C   0  0  0  0  0  0
  -32.5302  -20.6726   25.0452 C   0  0  0  0  0  0
  -30.6127  -24.7741   20.1817 C   0  0  0  0  0  0
  -29.5369  -21.6868   20.3657 C   0  0  0  0  0  0
  -29.9023  -15.8601   21.0044 C   0  0  0  0  0  0
  -29.2220  -17.8070   17.5696 C   0  0  0  0  0  0
  -28.9861  -22.9858   21.0322 C   0  0  0  0  0  0
  -29.1484  -16.7442   18.6923 C   0  0  0  0  0  0
  -29.2493  -18.4151   20.6075 C   0  0  0  0  0  0
  -28.2441  -25.4271   20.8145 C   0  0  0  0  0  0
  -32.6028  -19.6107   23.9338 C   0  0  0  0  0  0
  -29.1440  -24.3108   20.2268 C   0  0  1  0  0  0
  -29.8897  -17.0994   20.0139 C   0  0  1  0  0  0
  -30.9315  -18.8124   22.2991 N   0  0  0  0  0  0
  -30.1283  -19.3318   21.3451 N   0  0  0  0  0  0
  -31.4837  -12.4558   19.1454 H   0  0  0  0  0  0
  -30.3447  -11.3385   19.8463 H   0  0  0  0  0  0
  -29.7753  -11.7878   17.4397 H   0  0  0  0  0  0
  -29.6857  -13.4936   17.7585 H   0  0  0  0  0  0
  -27.8699  -11.3109   18.8377 H   0  0  0  0  0  0
  -27.3897  -12.6179   17.7803 H   0  0  0  0  0  0
  -27.6940  -14.2576   19.5595 H   0  0  0  0  0  0
  -28.6991  -11.9884   21.3359 H   0  0  0  0  0  0
  -28.4687  -13.6209   21.8733 H   0  0  0  0  0  0
  -25.2678   -9.5738   22.4727 H   0  0  0  0  0  0
  -24.0006   -7.4608   22.7376 H   0  0  0  0  0  0
  -21.0806   -8.8679   19.8884 H   0  0  0  0  0  0
  -22.3549  -10.9656   19.6146 H   0  0  0  0  0  0
  -21.1940   -7.6105   23.9704 H   0  0  0  0  0  0
  -21.1533   -6.0490   25.9082 H   0  0  0  0  0  0
  -22.0581   -2.7588   23.2803 H   0  0  0  0  0  0
  -22.4033  -11.9968   22.4999 H   0  0  0  0  0  0
  -21.1045  -13.1242   22.2470 H   0  0  0  0  0  0
  -24.6627  -15.8395   20.5067 H   0  0  0  0  0  0
  -26.2855  -15.6265   20.0867 H   0  0  0  0  0  0
  -26.7120  -32.5529   23.1167 H   0  0  0  0  0  0
  -25.0076  -33.9788   25.0481 H   0  0  0  0  0  0
  -22.6882  -31.3074   21.4183 H   0  0  0  0  0  0
  -23.3751  -35.9661   23.3278 H   0  0  0  0  0  0
  -24.3599  -36.8959   22.2049 H   0  0  0  0  0  0
  -23.7250  -37.6527   23.6656 H   0  0  0  0  0  0
  -26.0437  -31.5996   20.5957 H   0  0  0  0  0  0
  -26.8176  -30.8863   21.9834 H   0  0  0  0  0  0
  -28.0965  -29.1010   21.1747 H   0  0  0  0  0  0
  -26.0630  -25.9802   19.0025 H   0  0  0  0  0  0
  -23.9816  -27.3104   19.0088 H   0  0  0  0  0  0
  -23.7136  -30.6064   19.4081 H   0  0  0  0  0  0
  -22.7319  -29.2474   19.8698 H   0  0  0  0  0  0
  -25.1289  -36.1974   25.0817 H   0  0  0  0  0  0
  -20.9944  -28.3214   24.1477 H   0  0  0  0  0  0
  -20.5719  -26.2252   23.3605 H   0  0  0  0  0  0
  -21.6642  -26.7483   22.1194 H   0  0  0  0  0  0
  -19.6906  -25.6310   21.1256 H   0  0  0  0  0  0
  -19.6711  -27.3214   20.6773 H   0  0  0  0  0  0
  -17.4209  -26.6726   21.4006 H   0  0  0  0  0  0
  -18.0291  -26.0095   22.9013 H   0  0  0  0  0  0
  -19.7905  -30.7295   24.2288 H   0  0  0  0  0  0
  -17.4973  -31.6275   24.5173 H   0  0  0  0  0  0
  -15.5326  -30.2984   23.7648 H   0  0  0  0  0  0
  -15.8670  -28.0857   22.6997 H   0  0  0  0  0  0
  -24.5918  -30.7025   25.7805 H   0  0  0  0  0  0
  -24.8856  -32.2874   26.4852 H   0  0  0  0  0  0
  -25.8047  -30.8943   27.0257 H   0  0  0  0  0  0
  -26.2806  -29.6812   24.1127 H   0  0  0  0  0  0
  -27.3984  -29.7235   25.4576 H   0  0  0  0  0  0
  -27.8677  -30.4319   23.9284 H   0  0  0  0  0  0
  -27.2705  -33.3592   26.2090 H   0  0  0  0  0  0
  -28.3838  -32.6874   25.0261 H   0  0  0  0  0  0
  -28.0769  -31.8393   26.5341 H   0  0  0  0  0  0
  -28.2594  -38.0125   24.7521 H   0  0  0  0  0  0
  -28.1116  -36.2658   24.6236 H   0  0  0  0  0  0
  -27.2328  -37.1411   25.8858 H   0  0  0  0  0  0
  -20.9316  -29.8747   21.6985 H   0  0  0  0  0  0
  -26.0194  -38.2870   24.1405 H   0  0  0  0  0  0
  -31.5135  -22.0600   22.5079 H   0  0  0  0  0  0
  -27.9983  -19.2618   16.4872 H   0  0  0  0  0  0
  -27.4892  -19.0521   18.1469 H   0  0  0  0  0  0
  -27.1156  -17.8242   16.9582 H   0  0  0  0  0  0
  -32.6778  -17.4381   23.8001 H   0  0  0  0  0  0
  -31.5381  -18.0337   25.0106 H   0  0  0  0  0  0
  -33.2767  -18.0673   25.3241 H   0  0  0  0  0  0
  -32.6609  -21.6752   24.6467 H   0  0  0  0  0  0
  -33.3127  -20.5161   25.7904 H   0  0  0  0  0  0
  -31.5723  -20.6427   25.5646 H   0  0  0  0  0  0
  -31.2828  -23.9896   19.8304 H   0  0  0  0  0  0
  -30.9593  -25.0832   21.1688 H   0  0  0  0  0  0
  -30.7364  -25.6271   19.5127 H   0  0  0  0  0  0
  -28.7234  -21.2020   19.8286 H   0  0  0  0  0  0
  -30.2535  -21.9637   19.5922 H   0  0  0  0  0  0
  -28.8713  -15.6519   21.2775 H   0  0  0  0  0  0
  -30.3886  -16.1616   21.9313 H   0  0  0  0  0  0
  -29.9997  -18.5380   17.7917 H   0  0  0  0  0  0
  -29.5473  -17.3218   16.6487 H   0  0  0  0  0  0
  -29.4470  -23.1385   22.0074 H   0  0  0  0  0  0
  -27.9312  -22.8183   21.2534 H   0  0  0  0  0  0
  -29.5594  -15.8200   18.2862 H   0  0  0  0  0  0
  -28.1037  -16.5261   18.9105 H   0  0  0  0  0  0
  -28.3947  -18.1687   21.2383 H   0  0  0  0  0  0
  -28.8321  -19.0166   19.8096 H   0  0  0  0  0  0
  -28.5064  -25.6060   21.8575 H   0  0  0  0  0  0
  -27.2129  -25.0662   20.8329 H   0  0  0  0  0  0
  -33.5811  -19.7062   23.4606 H   0  0  0  0  0  0
  -28.8100  -24.1303   19.2049 H   0  0  0  0  0  0
  -30.9242  -17.3224   19.7532 H   0  0  0  0  0  0
  1 25  1  0  0  0
  1 30  2  0  0  0
  1 79  1  0  0  0
  2  3  1  0  0  0
  2 25  1  0  0  0
  2 90  1  0  0  0
  2 91  1  0  0  0
  3  4  1  0  0  0
  3 92  1  0  0  0
  3 93  1  0  0  0
  4  5  1  0  0  0
  4 94  1  0  0  0
  4 95  1  0  0  0
  5  6  1  0  0  0
  5 26  1  0  0  0
  5 96  1  0  0  0
  6 25  1  0  0  0
  6 97  1  0  0  0
  6 98  1  0  0  0
  7  8  2  0  0  0
  7 26  1  0  0  0
  7 29  1  0  0  0
  8  9  1  0  0  0
  8 22  1  0  0  0
  9 10  1  0  0  0
  9 27  2  0  0  0
 10 11  2  0  0  0
 10 15  1  0  0  0
 11 12  1  0  0  0
 11 99  1  0  0  0
 12 13  2  0  0  0
 12100  1  0  0  0
 13 14  1  0  0  0
 13 31  1  0  0  0
 14 15  2  0  0  0
 14101  1  0  0  0
 15102  1  0  0  0
 16 17  2  0  0  0
 16 21  1  0  0  0
 16 31  1  0  0  0
 17 18  1  0  0  0
 17103  1  0  0  0
 18 19  2  0  0  0
 18104  1  0  0  0
 19 20  1  0  0  0
 19 24  1  0  0  0
 20 21  2  0  0  0
 20105  1  0  0  0
 21 23  1  0  0  0
 22 28  1  0  0  0
 22 32  2  0  0  0
 26 27  1  0  0  0
 28106  1  0  0  0
 28107  1  0  0  0
 29108  1  0  0  0
 29109  1  0  0  0
 33 34  1  0  0  0
 33 66  1  0  0  0
 33 70  2  0  0  0
 34 36  1  0  0  0
 34 59  1  0  0  0
 34110  1  0  0  0
 35 44  2  0  0  0
 35 45  1  0  0  0
 35 68  1  0  0  0
 36 56  1  0  0  0
 36111  1  0  0  0
 37 39  1  0  0  0
 37 47  1  0  0  0
 37 66  1  0  0  0
 37112  1  0  0  0
 38 43  2  0  0  0
 38 46  1  0  0  0
 38 47  1  0  0  0
 39 64  1  0  0  0
 39 67  2  0  0  0
 40 52  1  0  0  0
 40 53  2  0  0  0
 40 58  1  0  0  0
 41113  1  0  0  0
 41114  1  0  0  0
 41115  1  0  0  0
 41 48  1  0  0  0
 42 43  1  0  0  0
 42 66  1  0  0  0
 42116  1  0  0  0
 42117  1  0  0  0
 43 44  1  0  0  0
 44118  1  0  0  0
 45 46  2  0  0  0
 45119  1  0  0  0
 46120  1  0  0  0
 47121  1  0  0  0
 47122  1  0  0  0
 48 56  1  0  0  0
 48 65  1  0  0  0
 48123  1  0  0  0
 49 50  1  0  0  0
 49 53  1  0  0  0
 49 64  1  0  0  0
 49124  1  0  0  0
 50 51  1  0  0  0
 50125  1  0  0  0
 50126  1  0  0  0
 51 52  1  0  0  0
 51127  1  0  0  0
 51128  1  0  0  0
 52129  1  0  0  0
 52130  1  0  0  0
 53 54  1  0  0  0
 54 55  2  0  0  0
 54131  1  0  0  0
 55 57  1  0  0  0
 55132  1  0  0  0
 56 69  2  0  0  0
 57 58  2  0  0  0
 57133  1  0  0  0
 58134  1  0  0  0
 59 60  1  0  0  0
 59 61  1  0  0  0
 59 62  1  0  0  0
 60135  1  0  0  0
 60136  1  0  0  0
 60137  1  0  0  0
 61138  1  0  0  0
 61139  1  0  0  0
 61140  1  0  0  0
 62141  1  0  0  0
 62142  1  0  0  0
 62143  1  0  0  0
 63 65  1  0  0  0
 63144  1  0  0  0
 63145  1  0  0  0
 63146  1  0  0  0
 64147  1  0  0  0
 65148  1  0  0  0
 68 84  1  0  0  0
 71 72  1  0  0  0
 71 73  2  0  0  0
 71149  1  0  0  0
 72 85  1  0  0  0
 72 88  2  0  0  0
 73 78  1  0  0  0
 73 89  1  0  0  0
 74 80  1  0  0  0
 74150  1  0  0  0
 74151  1  0  0  0
 74152  1  0  0  0
 75153  1  0  0  0
 75154  1  0  0  0
 75155  1  0  0  0
 75 85  1  0  0  0
 76 85  1  0  0  0
 76156  1  0  0  0
 76157  1  0  0  0
 76158  1  0  0  0
 77159  1  0  0  0
 77160  1  0  0  0
 77161  1  0  0  0
 77 86  1  0  0  0
 78 81  1  0  0  0
 78162  1  0  0  0
 78163  1  0  0  0
 79164  1  0  0  0
 79165  1  0  0  0
 79 87  1  0  0  0
 80 82  1  0  0  0
 80166  1  0  0  0
 80167  1  0  0  0
 81 86  1  0  0  0
 81168  1  0  0  0
 81169  1  0  0  0
 82 87  1  0  0  0
 82170  1  0  0  0
 82171  1  0  0  0
 83 87  1  0  0  0
 83 89  1  0  0  0
 83172  1  0  0  0
 83173  1  0  0  0
 84 86  1  0  0  0
 84174  1  0  0  0
 84175  1  0  0  0
 85176  1  0  0  0
 86177  1  0  0  0
 87178  1  0  0  0
 88 89  1  0  0  0
M  ISO  4   1 100  68 101  79 100  84 101
M  END
> <chiral flag>
0

> <version>
0

> <s_m_source_file>
/data/baiqing/PycharmProjects/Reinvent-master-3.2/result/LINK_invent/BTK/process_docking_weight1_custom_sum_contain_oxygen_bond_distance_aromatic_linkinvent_7_9_3/rearranged_h_0100.sdf

> <i_m_source_file_index>
98

> <r_mmod_Potential_Energy-OPLS-2005>
7.62922668457031

> <r_mmod_Stretch_Energy-OPLS-2005>
49.4579963684082

> <r_mmod_Bend_Energy-OPLS-2005>
115.394493103027

> <r_mmod_Torsional_Energy-OPLS-2005>
241.052780151367

> <r_mmod_Improper_Torsional_Energy-OPLS-2005>
3.64745712280273

> <r_mmod_Van_der_Waal_Energy-OPLS-2005>
121.131996154785

> <r_mmod_Electrostatic_Energy-OPLS-2005>
-354.812530517578

> <r_mmod_Solvation_Energy-OPLS-2005>
-189.296371459961

> <b_mmod_Minimization_Converged-OPLS-2005>
0

> <r_mmod_RMS_Derivative-OPLS-2005>
3.97889065742493

$$$$
98
                    3D
 Structure written by MMmdl.
167174  0  0  1  0            999 V2000
  -30.6942  -14.5024   20.5454 C   0  0  0  0  0  0
  -30.4218  -12.3138   19.4357 C   0  0  0  0  0  0
  -29.4965  -12.4916   18.2127 C   0  0  0  0  0  0
  -28.0190  -12.3520   18.6272 C   0  0  0  0  0  0
  -27.6618  -13.2066   19.8727 C   0  0  2  0  0  0
  -28.7042  -13.0182   21.0002 C   0  0  0  0  0  0
  -25.2604  -13.8155   20.5670 C   0  0  0  0  0  0
  -24.1845  -13.0436   20.9179 C   0  0  0  0  0  0
  -24.6390  -11.6911   20.8722 C   0  0  0  0  0  0
  -23.9051  -10.4298   21.0420 C   0  0  0  0  0  0
  -24.3619   -9.4216   21.9188 C   0  0  0  0  0  0
  -23.6298   -8.2250   22.0756 C   0  0  0  0  0  0
  -22.4273   -8.0288   21.3551 C   0  0  0  0  0  0
  -21.9920   -9.0250   20.4646 C   0  0  0  0  0  0
  -22.7229  -10.2139   20.3064 C   0  0  0  0  0  0
  -21.6842   -6.0737   22.5276 C   0  0  0  0  0  0
  -21.4011   -6.5634   23.8206 C   0  0  0  0  0  0
  -21.3673   -5.6789   24.9177 C   0  0  0  0  0  0
  -21.6054   -4.3054   24.7224 C   0  0  0  0  0  0
  -21.8824   -3.8144   23.4340 C   0  0  0  0  0  0
  -21.9203   -4.6964   22.3403 C   0  0  0  0  0  0
  -22.7884  -13.5233   21.1876 C   0  0  0  0  0  0
  -22.1665   -4.2157   21.0978 F   0  0  0  0  0  0
  -21.5653   -3.4534   25.7731 F   0  0  0  0  0  0
  -30.0309  -13.3162   20.4412 N   0  0  0  0  0  0
  -26.3030  -12.9323   20.3351 N   0  0  0  0  0  0
  -25.9324  -11.6491   20.5768 N   0  0  0  0  0  0
  -22.0538  -12.8177   22.0415 N   0  0  0  0  0  0
  -25.4360  -15.1864   20.4099 N   0  0  0  0  0  0
  -31.8303  -14.6693   20.0963 O   0  0  0  0  0  0
  -21.6641   -6.8879   21.4234 O   0  0  0  0  0  0
  -22.3565  -14.5548   20.6757 O   0  0  0  0  0  0
  -24.6111  -31.8686   23.2104 C   0  0  0  0  0  0
  -25.9018  -32.4814   23.8393 C   0  0  1  0  0  0
  -27.2447  -27.4485   20.0918 C   0  0  0  0  0  0
  -25.5897  -33.8614   24.2317 N   0  0  0  0  0  0
  -23.4005  -30.4903   21.5480 C   0  0  2  0  0  0
  -24.8502  -28.9577   20.1097 C   0  0  0  0  0  0
  -22.7397  -29.4661   22.4976 C   0  0  0  0  0  0
  -18.0282  -28.1372   22.8506 C   0  0  0  0  0  0
  -24.1488  -36.7317   23.2637 C   0  0  0  0  0  0
  -25.9280  -30.8321   21.3680 C   0  0  0  0  0  0
  -26.0036  -29.4673   20.7168 C   0  0  0  0  0  0
  -27.1956  -28.7123   20.7206 C   0  0  0  0  0  0
  -26.0769  -26.9532   19.4708 C   0  0  0  0  0  0
  -24.8805  -27.6975   19.4876 C   0  0  0  0  0  0
  -23.6095  -29.8210   20.1618 C   0  0  0  0  0  0
  -25.4109  -36.3105   24.0333 C   0  0  1  0  0  0
  -20.5868  -28.3679   23.1315 C   0  0  2  0  0  0
  -20.6766  -26.9410   22.5432 C   0  0  0  0  0  0
  -19.5756  -26.6391   21.5219 C   0  0  0  0  0  0
  -18.1925  -26.7928   22.1611 C   0  0  0  0  0  0
  -19.1529  -28.8845   23.2902 C   0  0  0  0  0  0
  -18.9452  -30.1447   23.8917 C   0  0  0  0  0  0
  -17.6453  -30.6584   24.0576 C   0  0  0  0  0  0
  -25.9048  -34.9474   23.5130 C   0  0  0  0  0  0
  -16.5350  -29.9093   23.6321 C   0  0  0  0  0  0
  -16.7273  -28.6501   23.0353 C   0  0  0  0  0  0
  -26.4464  -31.6592   25.0719 C   0  0  0  0  0  0
  -25.3727  -31.3692   26.1463 C   0  0  0  0  0  0
  -27.0294  -30.3027   24.6102 C   0  0  0  0  0  0
  -27.6030  -32.4322   25.7475 C   0  0  0  0  0  0
  -27.5583  -37.1807   24.8456 C   0  0  0  0  0  0
  -21.4127  -29.3033   22.3707 N   0  0  0  0  0  0
  -26.4291  -37.3789   23.9399 N   0  0  0  0  0  0
  -24.6638  -31.0795   22.0995 N   0  0  0  0  0  0
  -23.4170  -28.8223   23.3036 O   0  0  0  0  0  0
  -28.4139  -26.7225   20.1660 O   0  0  0  0  0  0
  -26.5608  -34.8919   22.4686 O   0  0  0  0  0  0
  -23.5306  -32.1440   23.7505 O   0  0  0  0  0  0
  -27.3540  -19.9895   19.3676 C   0  0  0  0  0  0
  -26.5752  -21.7439   20.9322 C   0  0  0  0  0  0
  -31.0712  -19.9425   21.3451 C   0  0  0  0  0  0
  -28.8357  -23.5792   20.0000 C   0  0  0  0  0  0
  -28.5018  -24.5586   18.8462 C   0  0  0  0  0  0
  -28.6834  -22.1020   19.5240 C   0  0  0  0  0  0
  -30.3176  -16.9704   20.7014 C   0  0  0  0  0  0
  -29.4817  -18.0233   21.4936 C   0  0  0  0  0  0
  -28.6484  -20.4011   21.5204 C   0  0  0  0  0  0
  -28.8985  -26.0455   19.0082 C   0  0  0  0  0  0
  -27.8450  -21.0737   20.3555 C   0  0  0  0  0  0
  -29.9646  -15.5560   20.9709 N   0  0  0  0  0  0
  -29.7031  -19.4437   21.0570 N   0  3  1  0  0  0
  -31.4686  -12.3988   19.1361 H   0  0  0  0  0  0
  -30.3148  -11.3118   19.8529 H   0  0  0  0  0  0
  -29.7362  -11.7518   17.4462 H   0  0  0  0  0  0
  -29.6648  -13.4708   17.7622 H   0  0  0  0  0  0
  -27.8353  -11.2975   18.8389 H   0  0  0  0  0  0
  -27.3664  -12.6100   17.7924 H   0  0  0  0  0  0
  -27.7002  -14.2484   19.5535 H   0  0  0  0  0  0
  -28.6867  -11.9921   21.3723 H   0  0  0  0  0  0
  -28.4674  -13.6475   21.8590 H   0  0  0  0  0  0
  -25.2780   -9.5685   22.4744 H   0  0  0  0  0  0
  -24.0029   -7.4632   22.7457 H   0  0  0  0  0  0
  -21.0866   -8.8758   19.8941 H   0  0  0  0  0  0
  -22.3693  -10.9680   19.6171 H   0  0  0  0  0  0
  -21.1979   -7.6137   23.9700 H   0  0  0  0  0  0
  -21.1495   -6.0527   25.9079 H   0  0  0  0  0  0
  -22.0594   -2.7614   23.2827 H   0  0  0  0  0  0
  -22.4167  -11.9793   22.4709 H   0  0  0  0  0  0
  -21.1178  -13.1204   22.2718 H   0  0  0  0  0  0
  -24.6692  -15.8397   20.5189 H   0  0  0  0  0  0
  -26.2782  -15.6233   20.0555 H   0  0  0  0  0  0
  -26.7091  -32.5536   23.1156 H   0  0  0  0  0  0
  -25.0038  -33.9781   25.0455 H   0  0  0  0  0  0
  -22.6879  -31.3065   21.4078 H   0  0  0  0  0  0
  -23.3744  -35.9660   23.3312 H   0  0  0  0  0  0
  -24.3582  -36.8922   22.2051 H   0  0  0  0  0  0
  -23.7261  -37.6531   23.6651 H   0  0  0  0  0  0
  -26.0464  -31.5981   20.6011 H   0  0  0  0  0  0
  -26.8128  -30.8798   21.9907 H   0  0  0  0  0  0
  -28.0818  -29.0960   21.2063 H   0  0  0  0  0  0
  -26.0631  -25.9865   18.9959 H   0  0  0  0  0  0
  -23.9926  -27.2961   19.0186 H   0  0  0  0  0  0
  -23.7141  -30.5966   19.4014 H   0  0  0  0  0  0
  -22.7348  -29.2370   19.8685 H   0  0  0  0  0  0
  -25.1290  -36.1967   25.0826 H   0  0  0  0  0  0
  -20.9962  -28.3258   24.1434 H   0  0  0  0  0  0
  -20.5670  -26.2289   23.3622 H   0  0  0  0  0  0
  -21.6635  -26.7445   22.1232 H   0  0  0  0  0  0
  -19.6919  -25.6305   21.1242 H   0  0  0  0  0  0
  -19.6697  -27.3207   20.6751 H   0  0  0  0  0  0
  -17.4205  -26.6720   21.3986 H   0  0  0  0  0  0
  -18.0294  -26.0042   22.8976 H   0  0  0  0  0  0
  -19.7927  -30.7264   24.2277 H   0  0  0  0  0  0
  -17.5012  -31.6253   24.5199 H   0  0  0  0  0  0
  -15.5354  -30.3008   23.7620 H   0  0  0  0  0  0
  -15.8671  -28.0835   22.7047 H   0  0  0  0  0  0
  -24.5945  -30.6977   25.7816 H   0  0  0  0  0  0
  -24.8863  -32.2837   26.4861 H   0  0  0  0  0  0
  -25.8098  -30.8925   27.0245 H   0  0  0  0  0  0
  -26.2836  -29.6789   24.1154 H   0  0  0  0  0  0
  -27.4052  -29.7261   25.4567 H   0  0  0  0  0  0
  -27.8683  -30.4338   23.9257 H   0  0  0  0  0  0
  -27.2639  -33.3607   26.2073 H   0  0  0  0  0  0
  -28.3820  -32.6901   25.0291 H   0  0  0  0  0  0
  -28.0719  -31.8437   26.5368 H   0  0  0  0  0  0
  -28.2600  -38.0104   24.7502 H   0  0  0  0  0  0
  -28.1086  -36.2632   24.6292 H   0  0  0  0  0  0
  -27.2307  -37.1479   25.8864 H   0  0  0  0  0  0
  -20.9293  -29.8735   21.6905 H   0  0  0  0  0  0
  -26.0186  -38.2870   24.1397 H   0  0  0  0  0  0
  -26.7250  -20.4270   18.5902 H   0  0  0  0  0  0
  -26.7522  -19.2273   19.8648 H   0  0  0  0  0  0
  -28.1722  -19.4875   18.8515 H   0  0  0  0  0  0
  -26.0435  -22.3164   20.1704 H   0  0  0  0  0  0
  -26.7934  -22.4196   21.7588 H   0  0  0  0  0  0
  -25.8745  -21.0033   21.3209 H   0  0  0  0  0  0
  -31.8355  -19.3540   20.8398 H   0  0  0  0  0  0
  -31.2835  -19.9247   22.4151 H   0  0  0  0  0  0
  -31.1936  -20.9712   21.0040 H   0  0  0  0  0  0
  -28.2040  -23.8150   20.8548 H   0  0  0  0  0  0
  -29.8589  -23.7401   20.3422 H   0  0  0  0  0  0
  -27.4465  -24.4637   18.6011 H   0  0  0  0  0  0
  -29.0254  -24.2148   17.9524 H   0  0  0  0  0  0
  -29.6743  -21.6969   19.3191 H   0  0  0  0  0  0
  -28.2255  -22.1441   18.5348 H   0  0  0  0  0  0
  -31.3812  -17.1171   20.9020 H   0  0  0  0  0  0
  -30.1833  -17.1399   19.6313 H   0  0  0  0  0  0
  -29.6932  -17.9461   22.5622 H   0  0  0  0  0  0
  -28.4239  -17.7833   21.3733 H   0  0  0  0  0  0
  -27.9507  -19.8756   22.1746 H   0  0  0  0  0  0
  -29.0813  -21.1768   22.1562 H   0  0  0  0  0  0
  -28.6177  -26.6000   18.1107 H   0  0  0  0  0  0
  -29.9870  -26.1045   19.0536 H   0  0  0  0  0  0
  -29.0287  -15.3580   21.2934 H   0  0  0  0  0  0
  -29.6018  -19.4411   20.0530 H   0  0  0  0  0  0
  1 25  1  0  0  0
  1 30  2  0  0  0
  1 82  1  0  0  0
  2  3  1  0  0  0
  2 25  1  0  0  0
  2 84  1  0  0  0
  2 85  1  0  0  0
  3  4  1  0  0  0
  3 86  1  0  0  0
  3 87  1  0  0  0
  4  5  1  0  0  0
  4 88  1  0  0  0
  4 89  1  0  0  0
  5  6  1  0  0  0
  5 26  1  0  0  0
  5 90  1  0  0  0
  6 25  1  0  0  0
  6 91  1  0  0  0
  6 92  1  0  0  0
  7  8  2  0  0  0
  7 26  1  0  0  0
  7 29  1  0  0  0
  8  9  1  0  0  0
  8 22  1  0  0  0
  9 10  1  0  0  0
  9 27  2  0  0  0
 10 11  2  0  0  0
 10 15  1  0  0  0
 11 12  1  0  0  0
 11 93  1  0  0  0
 12 13  2  0  0  0
 12 94  1  0  0  0
 13 14  1  0  0  0
 13 31  1  0  0  0
 14 15  2  0  0  0
 14 95  1  0  0  0
 15 96  1  0  0  0
 16 17  2  0  0  0
 16 21  1  0  0  0
 16 31  1  0  0  0
 17 18  1  0  0  0
 17 97  1  0  0  0
 18 19  2  0  0  0
 18 98  1  0  0  0
 19 20  1  0  0  0
 19 24  1  0  0  0
 20 21  2  0  0  0
 20 99  1  0  0  0
 21 23  1  0  0  0
 22 28  1  0  0  0
 22 32  2  0  0  0
 26 27  1  0  0  0
 28100  1  0  0  0
 28101  1  0  0  0
 29102  1  0  0  0
 29103  1  0  0  0
 33 34  1  0  0  0
 33 66  1  0  0  0
 33 70  2  0  0  0
 34 36  1  0  0  0
 34 59  1  0  0  0
 34104  1  0  0  0
 35 44  2  0  0  0
 35 45  1  0  0  0
 35 68  1  0  0  0
 36 56  1  0  0  0
 36105  1  0  0  0
 37 39  1  0  0  0
 37 47  1  0  0  0
 37 66  1  0  0  0
 37106  1  0  0  0
 38 43  2  0  0  0
 38 46  1  0  0  0
 38 47  1  0  0  0
 39 64  1  0  0  0
 39 67  2  0  0  0
 40 52  1  0  0  0
 40 53  2  0  0  0
 40 58  1  0  0  0
 41107  1  0  0  0
 41108  1  0  0  0
 41109  1  0  0  0
 41 48  1  0  0  0
 42 43  1  0  0  0
 42 66  1  0  0  0
 42110  1  0  0  0
 42111  1  0  0  0
 43 44  1  0  0  0
 44112  1  0  0  0
 45 46  2  0  0  0
 45113  1  0  0  0
 46114  1  0  0  0
 47115  1  0  0  0
 47116  1  0  0  0
 48 56  1  0  0  0
 48 65  1  0  0  0
 48117  1  0  0  0
 49 50  1  0  0  0
 49 53  1  0  0  0
 49 64  1  0  0  0
 49118  1  0  0  0
 50 51  1  0  0  0
 50119  1  0  0  0
 50120  1  0  0  0
 51 52  1  0  0  0
 51121  1  0  0  0
 51122  1  0  0  0
 52123  1  0  0  0
 52124  1  0  0  0
 53 54  1  0  0  0
 54 55  2  0  0  0
 54125  1  0  0  0
 55 57  1  0  0  0
 55126  1  0  0  0
 56 69  2  0  0  0
 57 58  2  0  0  0
 57127  1  0  0  0
 58128  1  0  0  0
 59 60  1  0  0  0
 59 61  1  0  0  0
 59 62  1  0  0  0
 60129  1  0  0  0
 60130  1  0  0  0
 60131  1  0  0  0
 61132  1  0  0  0
 61133  1  0  0  0
 61134  1  0  0  0
 62135  1  0  0  0
 62136  1  0  0  0
 62137  1  0  0  0
 63 65  1  0  0  0
 63138  1  0  0  0
 63139  1  0  0  0
 63140  1  0  0  0
 64141  1  0  0  0
 65142  1  0  0  0
 68 80  1  0  0  0
 71143  1  0  0  0
 71144  1  0  0  0
 71145  1  0  0  0
 71 81  1  0  0  0
 72 81  1  0  0  0
 72146  1  0  0  0
 72147  1  0  0  0
 72148  1  0  0  0
 73149  1  0  0  0
 73150  1  0  0  0
 73151  1  0  0  0
 73 83  1  0  0  0
 74 75  1  0  0  0
 74 76  1  0  0  0
 74152  1  0  0  0
 74153  1  0  0  0
 75 80  1  0  0  0
 75154  1  0  0  0
 75155  1  0  0  0
 76 81  1  0  0  0
 76156  1  0  0  0
 76157  1  0  0  0
 77 78  1  0  0  0
 77 82  1  0  0  0
 77158  1  0  0  0
 77159  1  0  0  0
 78 83  1  0  0  0
 78160  1  0  0  0
 78161  1  0  0  0
 79 81  1  0  0  0
 79 83  1  0  0  0
 79162  1  0  0  0
 79163  1  0  0  0
 80164  1  0  0  0
 80165  1  0  0  0
 82166  1  0  0  0
 83167  1  0  0  0
M  CHG  1  83   1
M  ISO  4   1 100  68 101  80 101  82 100
M  END
> <chiral flag>
0

> <version>
0

> <s_m_source_file>
/data/baiqing/PycharmProjects/Reinvent-master-3.2/result/LINK_invent/BTK/process_docking_weight1_custom_sum_contain_oxygen_bond_distance_aromatic_linkinvent_7_9_3/rearranged_h_0100.sdf

> <i_m_source_file_index>
99

> <r_mmod_Potential_Energy-OPLS-2005>
-125.514221191406

> <r_mmod_Stretch_Energy-OPLS-2005>
41.6589889526367

> <r_mmod_Bend_Energy-OPLS-2005>
120.6728515625

> <r_mmod_Torsional_Energy-OPLS-2005>
261.926605224609

> <r_mmod_Improper_Torsional_Energy-OPLS-2005>
5.42131090164185

> <r_mmod_Van_der_Waal_Energy-OPLS-2005>
136.77165222168

> <r_mmod_Electrostatic_Energy-OPLS-2005>
-267.408721923828

> <r_mmod_Solvation_Energy-OPLS-2005>
-440.748687744141

> <b_mmod_Minimization_Converged-OPLS-2005>
0

> <r_mmod_RMS_Derivative-OPLS-2005>
2.87919449806213

$$$$
99
                    3D
 Structure written by MMmdl.
172180  0  0  1  0            999 V2000
  -30.6871  -14.5643   20.6220 C   0  0  0  0  0  0
  -30.4478  -12.4006   19.3893 C   0  0  0  0  0  0
  -29.4853  -12.5534   18.1959 C   0  0  0  0  0  0
  -28.0023  -12.4159   18.5997 C   0  0  0  0  0  0
  -27.6429  -13.2495   19.8562 C   0  0  2  0  0  0
  -28.7040  -13.0563   20.9772 C   0  0  0  0  0  0
  -25.2030  -13.8178   20.5179 C   0  0  0  0  0  0
  -24.1516  -13.0326   20.9205 C   0  0  0  0  0  0
  -24.6347  -11.6975   20.8838 C   0  0  0  0  0  0
  -23.9052  -10.4294   21.0442 C   0  0  0  0  0  0
  -24.3632   -9.4210   21.9178 C   0  0  0  0  0  0
  -23.6309   -8.2243   22.0739 C   0  0  0  0  0  0
  -22.4296   -8.0276   21.3552 C   0  0  0  0  0  0
  -21.9933   -9.0218   20.4655 C   0  0  0  0  0  0
  -22.7236  -10.2117   20.3050 C   0  0  0  0  0  0
  -21.6861   -6.0726   22.5252 C   0  0  0  0  0  0
  -21.3997   -6.5630   23.8177 C   0  0  0  0  0  0
  -21.3618   -5.6797   24.9154 C   0  0  0  0  0  0
  -21.6050   -4.3058   24.7229 C   0  0  0  0  0  0
  -21.8838   -3.8130   23.4353 C   0  0  0  0  0  0
  -21.9219   -4.6951   22.3401 C   0  0  0  0  0  0
  -22.7536  -13.5107   21.1926 C   0  0  0  0  0  0
  -22.1699   -4.2125   21.0986 F   0  0  0  0  0  0
  -21.5609   -3.4539   25.7742 F   0  0  0  0  0  0
  -30.0366  -13.3782   20.4167 N   0  0  0  0  0  0
  -26.2817  -12.9560   20.3308 N   0  0  0  0  0  0
  -25.9337  -11.6696   20.5983 N   0  0  0  0  0  0
  -22.0266  -12.8109   22.0696 N   0  0  0  0  0  0
  -25.2570  -15.1738   20.2862 N   0  0  0  0  0  0
  -31.8518  -14.7555   20.2680 O   0  0  0  0  0  0
  -21.6673   -6.8858   21.4218 O   0  0  0  0  0  0
  -22.3162  -14.5298   20.6684 O   0  0  0  0  0  0
  -24.6255  -31.8666   23.2075 C   0  0  0  0  0  0
  -25.9097  -32.4766   23.8342 C   0  0  1  0  0  0
  -27.0944  -27.3082   20.0628 C   0  0  0  0  0  0
  -25.6065  -33.8518   24.2390 N   0  0  0  0  0  0
  -23.3920  -30.5344   21.5240 C   0  0  2  0  0  0
  -24.8207  -29.0013   20.0647 C   0  0  0  0  0  0
  -22.7282  -29.4825   22.4543 C   0  0  0  0  0  0
  -18.0281  -28.1633   22.8984 C   0  0  0  0  0  0
  -24.1473  -36.7303   23.2610 C   0  0  0  0  0  0
  -25.9710  -30.7855   21.3814 C   0  0  0  0  0  0
  -26.0109  -29.4337   20.6765 C   0  0  0  0  0  0
  -27.1628  -28.5932   20.6657 C   0  0  0  0  0  0
  -25.9218  -26.9744   19.3567 C   0  0  0  0  0  0
  -24.7658  -27.7612   19.4288 C   0  0  0  0  0  0
  -23.5962  -29.8816   20.1442 C   0  0  0  0  0  0
  -25.4104  -36.3098   24.0292 C   0  0  1  0  0  0
  -20.5779  -28.4091   23.1393 C   0  0  2  0  0  0
  -20.6704  -26.9631   22.5733 C   0  0  0  0  0  0
  -19.5467  -26.6111   21.5715 C   0  0  0  0  0  0
  -18.1954  -26.7857   22.2773 C   0  0  0  0  0  0
  -19.1475  -28.9083   23.3037 C   0  0  0  0  0  0
  -18.9618  -30.1701   23.8914 C   0  0  0  0  0  0
  -17.6660  -30.6765   24.0979 C   0  0  0  0  0  0
  -25.9064  -34.9448   23.5135 C   0  0  0  0  0  0
  -16.5483  -29.9487   23.6631 C   0  0  0  0  0  0
  -16.7285  -28.6970   23.0550 C   0  0  0  0  0  0
  -26.4524  -31.6615   25.0767 C   0  0  0  0  0  0
  -25.3799  -31.3644   26.1550 C   0  0  0  0  0  0
  -27.0340  -30.3019   24.6306 C   0  0  0  0  0  0
  -27.6097  -32.4342   25.7604 C   0  0  0  0  0  0
  -27.5593  -37.1846   24.8470 C   0  0  0  0  0  0
  -21.3990  -29.3303   22.3592 N   0  0  0  0  0  0
  -26.4312  -37.3802   23.9397 N   0  0  0  0  0  0
  -24.6774  -31.0761   22.0877 N   0  0  0  0  0  0
  -23.4269  -28.8123   23.2255 O   0  0  0  0  0  0
  -28.0552  -26.3214   20.2138 O   0  0  0  0  0  0
  -26.5604  -34.8863   22.4641 O   0  0  0  0  0  0
  -23.5485  -32.1360   23.7659 O   0  0  0  0  0  0
  -26.0226  -21.4887   20.2632 C   0  0  0  0  0  0
  -27.1924  -22.3505   20.4326 C   0  0  0  0  0  0
  -26.2605  -20.3664   21.0259 C   0  0  0  0  0  0
  -27.8735  -21.6907   21.4215 C   0  0  0  0  0  0
  -24.7325  -21.7323   19.4882 C   0  0  0  0  0  0
  -28.6570  -22.1740   22.5885 C   0  0  0  0  0  0
  -23.9907  -19.7442   22.1353 C   0  0  0  0  0  0
  -27.1949  -23.8573   18.3271 C   0  0  0  0  0  0
  -27.4599  -17.0544   21.1040 C   0  0  0  0  0  0
  -25.3703  -19.3133   21.6567 C   0  0  0  0  0  0
  -28.5434  -19.2509   21.7947 C   0  0  0  0  0  0
  -29.9844  -16.9654   21.5218 C   0  0  0  0  0  0
  -27.5031  -25.0230   20.6783 C   0  0  0  0  0  0
  -27.6507  -23.7100   19.7976 C   0  0  1  0  0  0
  -28.7480  -17.8566   21.0429 C   0  0  1  0  0  0
  -27.6185  -20.3269   21.2869 N   0  0  0  0  0  0
  -29.8736  -15.5385   21.1062 N   0  0  0  0  0  0
  -31.4684  -12.5612   19.0299 H   0  0  0  0  0  0
  -30.4298  -11.3885   19.7901 H   0  0  0  0  0  0
  -29.7289  -11.8248   17.4259 H   0  0  0  0  0  0
  -29.6331  -13.5356   17.7452 H   0  0  0  0  0  0
  -27.7813  -11.3617   18.7618 H   0  0  0  0  0  0
  -27.3667  -12.7232   17.7670 H   0  0  0  0  0  0
  -27.6617  -14.2985   19.5397 H   0  0  0  0  0  0
  -28.6886  -12.0335   21.3630 H   0  0  0  0  0  0
  -28.4726  -13.6796   21.8460 H   0  0  0  0  0  0
  -25.2784   -9.5733   22.4746 H   0  0  0  0  0  0
  -23.9990   -7.4746   22.7559 H   0  0  0  0  0  0
  -21.0799   -8.8718   19.9096 H   0  0  0  0  0  0
  -22.3643  -10.9621   19.6142 H   0  0  0  0  0  0
  -21.1960   -7.6130   23.9657 H   0  0  0  0  0  0
  -21.1395   -6.0532   25.9050 H   0  0  0  0  0  0
  -22.0652   -2.7586   23.2863 H   0  0  0  0  0  0
  -22.3824  -11.9780   22.5062 H   0  0  0  0  0  0
  -21.0831  -13.0962   22.2884 H   0  0  0  0  0  0
  -24.3237  -15.5525   20.1472 H   0  0  0  0  0  0
  -25.9580  -15.6197   19.7074 H   0  0  0  0  0  0
  -26.7165  -32.5430   23.1085 H   0  0  0  0  0  0
  -25.0328  -33.9692   25.0643 H   0  0  0  0  0  0
  -22.6926  -31.3619   21.3903 H   0  0  0  0  0  0
  -23.3767  -35.9620   23.3273 H   0  0  0  0  0  0
  -24.3543  -36.8921   22.2049 H   0  0  0  0  0  0
  -23.7265  -37.6486   23.6636 H   0  0  0  0  0  0
  -26.1605  -31.5703   20.6338 H   0  0  0  0  0  0
  -26.8413  -30.8008   22.0280 H   0  0  0  0  0  0
  -28.0717  -28.8635   21.1661 H   0  0  0  0  0  0
  -25.8384  -26.0539   18.8084 H   0  0  0  0  0  0
  -23.8334  -27.4648   18.9648 H   0  0  0  0  0  0
  -23.6934  -30.6452   19.3682 H   0  0  0  0  0  0
  -22.7139  -29.3075   19.8668 H   0  0  0  0  0  0
  -25.1319  -36.1902   25.0796 H   0  0  0  0  0  0
  -20.9839  -28.4381   24.1770 H   0  0  0  0  0  0
  -20.5617  -26.2739   23.3854 H   0  0  0  0  0  0
  -21.6594  -26.7406   22.1876 H   0  0  0  0  0  0
  -19.6287  -25.5771   21.2258 H   0  0  0  0  0  0
  -19.6258  -27.2565   20.7062 H   0  0  0  0  0  0
  -17.3672  -26.5794   21.6076 H   0  0  0  0  0  0
  -18.0766  -26.0468   23.0696 H   0  0  0  0  0  0
  -19.7973  -30.7815   24.2147 H   0  0  0  0  0  0
  -17.5458  -31.6344   24.5888 H   0  0  0  0  0  0
  -15.5572  -30.3823   23.8078 H   0  0  0  0  0  0
  -15.8616  -28.1565   22.7021 H   0  0  0  0  0  0
  -24.6028  -30.6927   25.7946 H   0  0  0  0  0  0
  -24.8909  -32.2720   26.5091 H   0  0  0  0  0  0
  -25.8245  -30.8847   27.0265 H   0  0  0  0  0  0
  -26.2893  -29.6850   24.1285 H   0  0  0  0  0  0
  -27.3940  -29.7297   25.4866 H   0  0  0  0  0  0
  -27.8851  -30.4315   23.9604 H   0  0  0  0  0  0
  -27.2701  -33.3613   26.2233 H   0  0  0  0  0  0
  -28.3943  -32.6911   25.0483 H   0  0  0  0  0  0
  -28.0710  -31.8368   26.5511 H   0  0  0  0  0  0
  -28.2661  -38.0122   24.7546 H   0  0  0  0  0  0
  -28.1082  -36.2677   24.6271 H   0  0  0  0  0  0
  -27.2315  -37.1474   25.8879 H   0  0  0  0  0  0
  -20.8868  -29.9900   21.7953 H   0  0  0  0  0  0
  -26.0185  -38.2850   24.1353 H   0  0  0  0  0  0
  -24.5432  -20.9460   18.7399 H   0  0  0  0  0  0
  -24.7057  -22.6620   18.9624 H   0  0  0  0  0  0
  -23.8450  -21.8055   20.1374 H   0  0  0  0  0  0
  -29.6900  -22.3748   22.3457 H   0  0  0  0  0  0
  -28.6123  -21.4299   23.3989 H   0  0  0  0  0  0
  -28.2077  -23.0774   22.9977 H   0  0  0  0  0  0
  -23.6123  -19.0064   22.8358 H   0  0  0  0  0  0
  -23.2541  -19.8398   21.3352 H   0  0  0  0  0  0
  -24.0998  -20.6520   22.7127 H   0  0  0  0  0  0
  -27.5944  -23.0150   17.7604 H   0  0  0  0  0  0
  -27.5592  -24.7693   17.8501 H   0  0  0  0  0  0
  -26.1208  -23.8422   18.1693 H   0  0  0  0  0  0
  -27.0345  -17.0254   22.1054 H   0  0  0  0  0  0
  -27.5794  -16.0552   20.7455 H   0  0  0  0  0  0
  -26.7557  -17.4614   20.4043 H   0  0  0  0  0  0
  -25.8929  -18.9767   22.5563 H   0  0  0  0  0  0
  -25.1909  -18.4564   21.0108 H   0  0  0  0  0  0
  -29.5302  -19.7085   21.8360 H   0  0  0  0  0  0
  -28.2610  -19.0370   22.8318 H   0  0  0  0  0  0
  -30.0550  -16.9590   22.6133 H   0  0  0  0  0  0
  -30.9110  -17.4152   21.1634 H   0  0  0  0  0  0
  -27.9734  -24.8469   21.6556 H   0  0  0  0  0  0
  -26.4396  -25.0722   20.9645 H   0  0  0  0  0  0
  -28.7425  -23.6015   19.7076 H   0  0  0  0  0  0
  -28.9472  -18.0425   19.9904 H   0  0  0  0  0  0
  -28.9234  -15.2002   21.1397 H   0  0  0  0  0  0
  1 25  1  0  0  0
  1 30  2  0  0  0
  1 87  1  0  0  0
  2  3  1  0  0  0
  2 25  1  0  0  0
  2 88  1  0  0  0
  2 89  1  0  0  0
  3  4  1  0  0  0
  3 90  1  0  0  0
  3 91  1  0  0  0
  4  5  1  0  0  0
  4 92  1  0  0  0
  4 93  1  0  0  0
  5  6  1  0  0  0
  5 26  1  0  0  0
  5 94  1  0  0  0
  6 25  1  0  0  0
  6 95  1  0  0  0
  6 96  1  0  0  0
  7  8  2  0  0  0
  7 26  1  0  0  0
  7 29  1  0  0  0
  8  9  1  0  0  0
  8 22  1  0  0  0
  9 10  1  0  0  0
  9 27  2  0  0  0
 10 11  2  0  0  0
 10 15  1  0  0  0
 11 12  1  0  0  0
 11 97  1  0  0  0
 12 13  2  0  0  0
 12 98  1  0  0  0
 13 14  1  0  0  0
 13 31  1  0  0  0
 14 15  2  0  0  0
 14 99  1  0  0  0
 15100  1  0  0  0
 16 17  2  0  0  0
 16 21  1  0  0  0
 16 31  1  0  0  0
 17 18  1  0  0  0
 17101  1  0  0  0
 18 19  2  0  0  0
 18102  1  0  0  0
 19 20  1  0  0  0
 19 24  1  0  0  0
 20 21  2  0  0  0
 20103  1  0  0  0
 21 23  1  0  0  0
 22 28  1  0  0  0
 22 32  2  0  0  0
 26 27  1  0  0  0
 28104  1  0  0  0
 28105  1  0  0  0
 29106  1  0  0  0
 29107  1  0  0  0
 33 34  1  0  0  0
 33 66  1  0  0  0
 33 70  2  0  0  0
 34 36  1  0  0  0
 34 59  1  0  0  0
 34108  1  0  0  0
 35 44  2  0  0  0
 35 45  1  0  0  0
 35 68  1  0  0  0
 36 56  1  0  0  0
 36109  1  0  0  0
 37 39  1  0  0  0
 37 47  1  0  0  0
 37 66  1  0  0  0
 37110  1  0  0  0
 38 43  2  0  0  0
 38 46  1  0  0  0
 38 47  1  0  0  0
 39 64  1  0  0  0
 39 67  2  0  0  0
 40 52  1  0  0  0
 40 53  2  0  0  0
 40 58  1  0  0  0
 41111  1  0  0  0
 41112  1  0  0  0
 41113  1  0  0  0
 41 48  1  0  0  0
 42 43  1  0  0  0
 42 66  1  0  0  0
 42114  1  0  0  0
 42115  1  0  0  0
 43 44  1  0  0  0
 44116  1  0  0  0
 45 46  2  0  0  0
 45117  1  0  0  0
 46118  1  0  0  0
 47119  1  0  0  0
 47120  1  0  0  0
 48 56  1  0  0  0
 48 65  1  0  0  0
 48121  1  0  0  0
 49 50  1  0  0  0
 49 53  1  0  0  0
 49 64  1  0  0  0
 49122  1  0  0  0
 50 51  1  0  0  0
 50123  1  0  0  0
 50124  1  0  0  0
 51 52  1  0  0  0
 51125  1  0  0  0
 51126  1  0  0  0
 52127  1  0  0  0
 52128  1  0  0  0
 53 54  1  0  0  0
 54 55  2  0  0  0
 54129  1  0  0  0
 55 57  1  0  0  0
 55130  1  0  0  0
 56 69  2  0  0  0
 57 58  2  0  0  0
 57131  1  0  0  0
 58132  1  0  0  0
 59 60  1  0  0  0
 59 61  1  0  0  0
 59 62  1  0  0  0
 60133  1  0  0  0
 60134  1  0  0  0
 60135  1  0  0  0
 61136  1  0  0  0
 61137  1  0  0  0
 61138  1  0  0  0
 62139  1  0  0  0
 62140  1  0  0  0
 62141  1  0  0  0
 63 65  1  0  0  0
 63142  1  0  0  0
 63143  1  0  0  0
 63144  1  0  0  0
 64145  1  0  0  0
 65146  1  0  0  0
 68 83  1  0  0  0
 71 72  1  0  0  0
 71 73  2  0  0  0
 71 75  1  0  0  0
 72 74  2  0  0  0
 72 84  1  0  0  0
 73 80  1  0  0  0
 73 86  1  0  0  0
 74 76  1  0  0  0
 74 86  1  0  0  0
 75147  1  0  0  0
 75148  1  0  0  0
 75149  1  0  0  0
 76150  1  0  0  0
 76151  1  0  0  0
 76152  1  0  0  0
 77 80  1  0  0  0
 77153  1  0  0  0
 77154  1  0  0  0
 77155  1  0  0  0
 78156  1  0  0  0
 78157  1  0  0  0
 78158  1  0  0  0
 78 84  1  0  0  0
 79159  1  0  0  0
 79160  1  0  0  0
 79161  1  0  0  0
 79 85  1  0  0  0
 80162  1  0  0  0
 80163  1  0  0  0
 81 85  1  0  0  0
 81 86  1  0  0  0
 81164  1  0  0  0
 81165  1  0  0  0
 82 85  1  0  0  0
 82 87  1  0  0  0
 82166  1  0  0  0
 82167  1  0  0  0
 83 84  1  0  0  0
 83168  1  0  0  0
 83169  1  0  0  0
 84170  1  0  0  0
 85171  1  0  0  0
 87172  1  0  0  0
M  ISO  4   1 100  68 101  83 101  87 100
M  END
> <chiral flag>
0

> <version>
0

> <s_m_source_file>
/data/baiqing/PycharmProjects/Reinvent-master-3.2/result/LINK_invent/BTK/process_docking_weight1_custom_sum_contain_oxygen_bond_distance_aromatic_linkinvent_7_9_3/rearranged_h_0100.sdf

> <i_m_source_file_index>
100

> <r_mmod_Potential_Energy-OPLS-2005>
277.020050048828

> <r_mmod_Stretch_Energy-OPLS-2005>
86.6112289428711

> <r_mmod_Bend_Energy-OPLS-2005>
194.543685913086

> <r_mmod_Torsional_Energy-OPLS-2005>
381.083129882812

> <r_mmod_Improper_Torsional_Energy-OPLS-2005>
14.2158088684082

> <r_mmod_Van_der_Waal_Energy-OPLS-2005>
146.776840209961

> <r_mmod_Electrostatic_Energy-OPLS-2005>
-437.128448486328

> <r_mmod_Solvation_Energy-OPLS-2005>
-197.584335327148

> <b_mmod_Minimization_Converged-OPLS-2005>
0

> <r_mmod_RMS_Derivative-OPLS-2005>
27.2922477722168

$$$$
