1
                    3D
 Structure written by MMmdl.
156164  0  0  1  0            999 V2000
  -30.5691  -14.7183   20.5131 C   0  0  0  0  0  0
  -30.4519  -12.4417   19.4581 C   0  0  0  0  0  0
  -29.5173  -12.5205   18.2280 C   0  0  0  0  0  0
  -28.0419  -12.3298   18.6382 C   0  0  0  0  0  0
  -27.6500  -13.2107   19.8519 C   0  0  2  0  0  0
  -28.6948  -13.0915   20.9844 C   0  0  0  0  0  0
  -25.2571  -13.8142   20.5659 C   0  0  0  0  0  0
  -24.1834  -13.0420   20.9172 C   0  0  0  0  0  0
  -24.6395  -11.6889   20.8722 C   0  0  0  0  0  0
  -23.9057  -10.4286   21.0406 C   0  0  0  0  0  0
  -24.3613   -9.4203   21.9185 C   0  0  0  0  0  0
  -23.6291   -8.2237   22.0755 C   0  0  0  0  0  0
  -22.4273   -8.0274   21.3542 C   0  0  0  0  0  0
  -21.9906   -9.0248   20.4645 C   0  0  0  0  0  0
  -22.7230  -10.2129   20.3055 C   0  0  0  0  0  0
  -21.6852   -6.0729   22.5276 C   0  0  0  0  0  0
  -21.4018   -6.5635   23.8210 C   0  0  0  0  0  0
  -21.3660   -5.6791   24.9174 C   0  0  0  0  0  0
  -21.6045   -4.3053   24.7226 C   0  0  0  0  0  0
  -21.8825   -3.8137   23.4348 C   0  0  0  0  0  0
  -21.9196   -4.6955   22.3402 C   0  0  0  0  0  0
  -22.7860  -13.5217   21.1850 C   0  0  0  0  0  0
  -22.1664   -4.2140   21.0982 F   0  0  0  0  0  0
  -21.5629   -3.4539   25.7739 F   0  0  0  0  0  0
  -30.0046  -13.4633   20.4295 N   0  0  0  0  0  0
  -26.2979  -12.9303   20.3248 N   0  0  0  0  0  0
  -25.9322  -11.6469   20.5718 N   0  0  0  0  0  0
  -22.0505  -12.8206   22.0404 N   0  0  0  0  0  0
  -25.4287  -15.1871   20.4091 N   0  0  0  0  0  0
  -31.7252  -14.8951   20.1096 O   0  0  0  0  0  0
  -21.6636   -6.8871   21.4237 O   0  0  0  0  0  0
  -22.3542  -14.5524   20.6702 O   0  0  0  0  0  0
  -24.6280  -31.8560   23.1980 C   0  0  0  0  0  0
  -25.9119  -32.4756   23.8323 C   0  0  1  0  0  0
  -27.2334  -27.2911   20.1312 C   0  0  0  0  0  0
  -25.5926  -33.8558   24.2254 N   0  0  0  0  0  0
  -23.4252  -30.4760   21.5398 C   0  0  2  0  0  0
  -24.8758  -28.9212   20.1135 C   0  0  0  0  0  0
  -22.7488  -29.4600   22.4916 C   0  0  0  0  0  0
  -18.0289  -28.1381   22.8482 C   0  0  0  0  0  0
  -24.1495  -36.7291   23.2636 C   0  0  0  0  0  0
  -25.9675  -30.7784   21.3729 C   0  0  0  0  0  0
  -26.0441  -29.4013   20.7190 C   0  0  0  0  0  0
  -27.2276  -28.5998   20.7125 C   0  0  0  0  0  0
  -26.0452  -26.8689   19.4972 C   0  0  0  0  0  0
  -24.8795  -27.6620   19.4911 C   0  0  0  0  0  0
  -23.6437  -29.8040   20.1577 C   0  0  0  0  0  0
  -25.4118  -36.3068   24.0321 C   0  0  1  0  0  0
  -20.5889  -28.3692   23.1272 C   0  0  2  0  0  0
  -20.6779  -26.9411   22.5406 C   0  0  0  0  0  0
  -19.5758  -26.6380   21.5206 C   0  0  0  0  0  0
  -18.1934  -26.7925   22.1617 C   0  0  0  0  0  0
  -19.1541  -28.8854   23.2873 C   0  0  0  0  0  0
  -18.9462  -30.1453   23.8891 C   0  0  0  0  0  0
  -17.6460  -30.6582   24.0559 C   0  0  0  0  0  0
  -25.9053  -34.9438   23.5090 C   0  0  0  0  0  0
  -16.5353  -29.9078   23.6327 C   0  0  0  0  0  0
  -16.7274  -28.6495   23.0351 C   0  0  0  0  0  0
  -26.4500  -31.6573   25.0702 C   0  0  0  0  0  0
  -25.3734  -31.3719   26.1428 C   0  0  0  0  0  0
  -27.0342  -30.2989   24.6172 C   0  0  0  0  0  0
  -27.6044  -32.4317   25.7488 C   0  0  0  0  0  0
  -27.5583  -37.1797   24.8458 C   0  0  0  0  0  0
  -21.4196  -29.3042   22.3662 N   0  0  0  0  0  0
  -26.4293  -37.3766   23.9403 N   0  0  0  0  0  0
  -24.6922  -31.0546   22.0937 N   0  0  0  0  0  0
  -23.4198  -28.8145   23.3011 O   0  0  0  0  0  0
  -28.3525  -26.4372   20.1385 O   0  0  0  0  0  0
  -26.5625  -34.8909   22.4657 O   0  0  0  0  0  0
  -23.5435  -32.1364   23.7294 O   0  0  0  0  0  0
  -29.4293  -18.4197   19.8941 C   0  0  0  0  0  0
  -29.9691  -17.4901   20.7821 C   0  0  0  0  0  0
  -30.5187  -24.2855   19.8689 C   0  0  0  0  0  0
  -28.5596  -23.7601   18.3920 C   0  0  0  0  0  0
  -29.6803  -15.9537   21.0249 C   0  0  0  0  0  0
  -28.9641  -22.3483   20.5038 C   0  0  0  0  0  0
  -29.5854  -21.0832   19.7110 C   0  0  0  0  0  0
  -28.1905  -25.0106   20.5635 C   0  0  0  0  0  0
  -29.0449  -23.8389   19.8506 C   0  0  0  0  0  0
  -30.6281  -18.2802   21.7383 N   0  0  0  0  0  0
  -30.5324  -19.5616   21.4622 N   0  0  0  0  0  0
  -29.7665  -19.7153   20.3521 N   0  0  0  0  0  0
  -31.4893  -12.5911   19.1550 H   0  0  0  0  0  0
  -30.4122  -11.4482   19.9076 H   0  0  0  0  0  0
  -29.7997  -11.7699   17.4884 H   0  0  0  0  0  0
  -29.6377  -13.4890   17.7402 H   0  0  0  0  0  0
  -27.8996  -11.2773   18.8851 H   0  0  0  0  0  0
  -27.3835  -12.5363   17.7937 H   0  0  0  0  0  0
  -27.6521  -14.2338   19.4811 H   0  0  0  0  0  0
  -28.7251  -12.0717   21.3719 H   0  0  0  0  0  0
  -28.4202  -13.7189   21.8322 H   0  0  0  0  0  0
  -25.2768   -9.5676   22.4745 H   0  0  0  0  0  0
  -24.0001   -7.4632   22.7479 H   0  0  0  0  0  0
  -21.0836   -8.8769   19.8954 H   0  0  0  0  0  0
  -22.3699  -10.9663   19.6159 H   0  0  0  0  0  0
  -21.2015   -7.6149   23.9706 H   0  0  0  0  0  0
  -21.1476   -6.0523   25.9074 H   0  0  0  0  0  0
  -22.0604   -2.7598   23.2850 H   0  0  0  0  0  0
  -22.4127  -11.9867   22.4788 H   0  0  0  0  0  0
  -21.1127  -13.1231   22.2627 H   0  0  0  0  0  0
  -24.6612  -15.8403   20.5234 H   0  0  0  0  0  0
  -26.2791  -15.6292   20.0854 H   0  0  0  0  0  0
  -26.7185  -32.5420   23.1067 H   0  0  0  0  0  0
  -25.0082  -33.9705   25.0405 H   0  0  0  0  0  0
  -22.7189  -31.2956   21.3901 H   0  0  0  0  0  0
  -23.3753  -35.9627   23.3279 H   0  0  0  0  0  0
  -24.3591  -36.8937   22.2055 H   0  0  0  0  0  0
  -23.7251  -37.6486   23.6678 H   0  0  0  0  0  0
  -26.1011  -31.5388   20.6021 H   0  0  0  0  0  0
  -26.8462  -30.8300   22.0041 H   0  0  0  0  0  0
  -28.1270  -28.9679   21.1857 H   0  0  0  0  0  0
  -26.0115  -25.9087   19.0015 H   0  0  0  0  0  0
  -23.9875  -27.2909   19.0055 H   0  0  0  0  0  0
  -23.7646  -30.5759   19.3964 H   0  0  0  0  0  0
  -22.7641  -29.2314   19.8577 H   0  0  0  0  0  0
  -25.1302  -36.1912   25.0814 H   0  0  0  0  0  0
  -20.9981  -28.3267   24.1392 H   0  0  0  0  0  0
  -20.5674  -26.2299   23.3607 H   0  0  0  0  0  0
  -21.6647  -26.7431   22.1203 H   0  0  0  0  0  0
  -19.6919  -25.6288   21.1241 H   0  0  0  0  0  0
  -19.6697  -27.3184   20.6730 H   0  0  0  0  0  0
  -17.4203  -26.6665   21.4019 H   0  0  0  0  0  0
  -18.0336  -26.0069   22.9015 H   0  0  0  0  0  0
  -19.7936  -30.7272   24.2257 H   0  0  0  0  0  0
  -17.5012  -31.6263   24.5160 H   0  0  0  0  0  0
  -15.5352  -30.2979   23.7651 H   0  0  0  0  0  0
  -15.8675  -28.0813   22.7071 H   0  0  0  0  0  0
  -24.5907  -30.7072   25.7756 H   0  0  0  0  0  0
  -24.8933  -32.2891   26.4848 H   0  0  0  0  0  0
  -25.8064  -30.8897   27.0201 H   0  0  0  0  0  0
  -26.2915  -29.6734   24.1205 H   0  0  0  0  0  0
  -27.4033  -29.7254   25.4685 H   0  0  0  0  0  0
  -27.8788  -30.4254   23.9397 H   0  0  0  0  0  0
  -27.2633  -33.3610   26.2060 H   0  0  0  0  0  0
  -28.3866  -32.6888   25.0335 H   0  0  0  0  0  0
  -28.0697  -31.8445   26.5416 H   0  0  0  0  0  0
  -28.2578  -38.0115   24.7517 H   0  0  0  0  0  0
  -28.1103  -36.2643   24.6268 H   0  0  0  0  0  0
  -27.2301  -37.1422   25.8860 H   0  0  0  0  0  0
  -20.9373  -29.8772   21.6876 H   0  0  0  0  0  0
  -26.0168  -38.2835   24.1413 H   0  0  0  0  0  0
  -28.8138  -18.2747   19.0142 H   0  0  0  0  0  0
  -31.1650  -23.5933   19.3301 H   0  0  0  0  0  0
  -30.8958  -24.3590   20.8896 H   0  0  0  0  0  0
  -30.6438  -25.2656   19.4067 H   0  0  0  0  0  0
  -29.2031  -23.1251   17.7828 H   0  0  0  0  0  0
  -28.5480  -24.7457   17.9249 H   0  0  0  0  0  0
  -27.5463  -23.3606   18.3354 H   0  0  0  0  0  0
  -28.6760  -15.7829   20.6475 H   0  0  0  0  0  0
  -29.5858  -15.8009   22.0997 H   0  0  0  0  0  0
  -29.4231  -22.3896   21.4923 H   0  0  0  0  0  0
  -27.9147  -22.1222   20.6949 H   0  0  0  0  0  0
  -30.5745  -21.3661   19.3526 H   0  0  0  0  0  0
  -28.9963  -20.9284   18.8070 H   0  0  0  0  0  0
  -28.4457  -24.9987   21.6238 H   0  0  0  0  0  0
  -27.1406  -24.7206   20.5426 H   0  0  0  0  0  0
  1 25  1  0  0  0
  1 30  2  0  0  0
  1 75  1  0  0  0
  2  3  1  0  0  0
  2 25  1  0  0  0
  2 83  1  0  0  0
  2 84  1  0  0  0
  3  4  1  0  0  0
  3 85  1  0  0  0
  3 86  1  0  0  0
  4  5  1  0  0  0
  4 87  1  0  0  0
  4 88  1  0  0  0
  5  6  1  0  0  0
  5 26  1  0  0  0
  5 89  1  0  0  0
  6 25  1  0  0  0
  6 90  1  0  0  0
  6 91  1  0  0  0
  7  8  2  0  0  0
  7 26  1  0  0  0
  7 29  1  0  0  0
  8  9  1  0  0  0
  8 22  1  0  0  0
  9 10  1  0  0  0
  9 27  2  0  0  0
 10 11  2  0  0  0
 10 15  1  0  0  0
 11 12  1  0  0  0
 11 92  1  0  0  0
 12 13  2  0  0  0
 12 93  1  0  0  0
 13 14  1  0  0  0
 13 31  1  0  0  0
 14 15  2  0  0  0
 14 94  1  0  0  0
 15 95  1  0  0  0
 16 17  2  0  0  0
 16 21  1  0  0  0
 16 31  1  0  0  0
 17 18  1  0  0  0
 17 96  1  0  0  0
 18 19  2  0  0  0
 18 97  1  0  0  0
 19 20  1  0  0  0
 19 24  1  0  0  0
 20 21  2  0  0  0
 20 98  1  0  0  0
 21 23  1  0  0  0
 22 28  1  0  0  0
 22 32  2  0  0  0
 26 27  1  0  0  0
 28 99  1  0  0  0
 28100  1  0  0  0
 29101  1  0  0  0
 29102  1  0  0  0
 33 34  1  0  0  0
 33 66  1  0  0  0
 33 70  2  0  0  0
 34 36  1  0  0  0
 34 59  1  0  0  0
 34103  1  0  0  0
 35 44  2  0  0  0
 35 45  1  0  0  0
 35 68  1  0  0  0
 36 56  1  0  0  0
 36104  1  0  0  0
 37 39  1  0  0  0
 37 47  1  0  0  0
 37 66  1  0  0  0
 37105  1  0  0  0
 38 43  2  0  0  0
 38 46  1  0  0  0
 38 47  1  0  0  0
 39 64  1  0  0  0
 39 67  2  0  0  0
 40 52  1  0  0  0
 40 53  2  0  0  0
 40 58  1  0  0  0
 41106  1  0  0  0
 41107  1  0  0  0
 41108  1  0  0  0
 41 48  1  0  0  0
 42 43  1  0  0  0
 42 66  1  0  0  0
 42109  1  0  0  0
 42110  1  0  0  0
 43 44  1  0  0  0
 44111  1  0  0  0
 45 46  2  0  0  0
 45112  1  0  0  0
 46113  1  0  0  0
 47114  1  0  0  0
 47115  1  0  0  0
 48 56  1  0  0  0
 48 65  1  0  0  0
 48116  1  0  0  0
 49 50  1  0  0  0
 49 53  1  0  0  0
 49 64  1  0  0  0
 49117  1  0  0  0
 50 51  1  0  0  0
 50118  1  0  0  0
 50119  1  0  0  0
 51 52  1  0  0  0
 51120  1  0  0  0
 51121  1  0  0  0
 52122  1  0  0  0
 52123  1  0  0  0
 53 54  1  0  0  0
 54 55  2  0  0  0
 54124  1  0  0  0
 55 57  1  0  0  0
 55125  1  0  0  0
 56 69  2  0  0  0
 57 58  2  0  0  0
 57126  1  0  0  0
 58127  1  0  0  0
 59 60  1  0  0  0
 59 61  1  0  0  0
 59 62  1  0  0  0
 60128  1  0  0  0
 60129  1  0  0  0
 60130  1  0  0  0
 61131  1  0  0  0
 61132  1  0  0  0
 61133  1  0  0  0
 62134  1  0  0  0
 62135  1  0  0  0
 62136  1  0  0  0
 63 65  1  0  0  0
 63137  1  0  0  0
 63138  1  0  0  0
 63139  1  0  0  0
 64140  1  0  0  0
 65141  1  0  0  0
 68 78  1  0  0  0
 71 72  2  0  0  0
 71 82  1  0  0  0
 71142  1  0  0  0
 72 75  1  0  0  0
 72 80  1  0  0  0
 73143  1  0  0  0
 73144  1  0  0  0
 73145  1  0  0  0
 73 79  1  0  0  0
 74 79  1  0  0  0
 74146  1  0  0  0
 74147  1  0  0  0
 74148  1  0  0  0
 75149  1  0  0  0
 75150  1  0  0  0
 76 77  1  0  0  0
 76 79  1  0  0  0
 76151  1  0  0  0
 76152  1  0  0  0
 77 82  1  0  0  0
 77153  1  0  0  0
 77154  1  0  0  0
 78 79  1  0  0  0
 78155  1  0  0  0
 78156  1  0  0  0
 80 81  2  0  0  0
 81 82  1  0  0  0
M  ISO  4   1 100  68 101  75 100  78 101
M  END
> <chiral flag>
0

> <version>
0

> <s_m_source_file>
/data/baiqing/PycharmProjects/Reinvent-master-3.2/result/LINK_invent/BTK/process_docking_weight1_custom_sum_contain_oxygen_bond_distance_aromatic_linkinvent_7_9_3/rearranged_h_0072.sdf

> <i_m_source_file_index>
1

> <r_mmod_Potential_Energy-OPLS-2005>
184.263824462891

> <r_mmod_Stretch_Energy-OPLS-2005>
111.406021118164

> <r_mmod_Bend_Energy-OPLS-2005>
171.983535766602

> <r_mmod_Torsional_Energy-OPLS-2005>
213.792037963867

> <r_mmod_Improper_Torsional_Energy-OPLS-2005>
5.27756404876709

> <r_mmod_Van_der_Waal_Energy-OPLS-2005>
112.553565979004

> <r_mmod_Electrostatic_Energy-OPLS-2005>
-280.337036132812

> <r_mmod_Solvation_Energy-OPLS-2005>
-218.31623840332

> <b_mmod_Minimization_Converged-OPLS-2005>
0

> <r_mmod_RMS_Derivative-OPLS-2005>
1.09960961341858

$$$$
2
                    3D
 Structure written by MMmdl.
160168  0  0  1  0            999 V2000
  -30.7088  -14.4875   20.4812 C   0  0  0  0  0  0
  -30.4083  -12.3000   19.4209 C   0  0  0  0  0  0
  -29.4846  -12.4840   18.2008 C   0  0  0  0  0  0
  -28.0074  -12.3502   18.6191 C   0  0  0  0  0  0
  -27.6504  -13.2124   19.8601 C   0  0  2  0  0  0
  -28.6984  -13.0564   20.9834 C   0  0  0  0  0  0
  -25.2572  -13.8075   20.5786 C   0  0  0  0  0  0
  -24.1813  -13.0369   20.9195 C   0  0  0  0  0  0
  -24.6390  -11.6848   20.8737 C   0  0  0  0  0  0
  -23.9062  -10.4247   21.0409 C   0  0  0  0  0  0
  -24.3613   -9.4177   21.9193 C   0  0  0  0  0  0
  -23.6284   -8.2219   22.0765 C   0  0  0  0  0  0
  -22.4265   -8.0267   21.3551 C   0  0  0  0  0  0
  -21.9902   -9.0239   20.4650 C   0  0  0  0  0  0
  -22.7238  -10.2112   20.3053 C   0  0  0  0  0  0
  -21.6841   -6.0729   22.5290 C   0  0  0  0  0  0
  -21.3998   -6.5631   23.8218 C   0  0  0  0  0  0
  -21.3659   -5.6793   24.9186 C   0  0  0  0  0  0
  -21.6046   -4.3057   24.7237 C   0  0  0  0  0  0
  -21.8816   -3.8150   23.4353 C   0  0  0  0  0  0
  -21.9185   -4.6962   22.3408 C   0  0  0  0  0  0
  -22.7845  -13.5199   21.1855 C   0  0  0  0  0  0
  -22.1659   -4.2149   21.0987 F   0  0  0  0  0  0
  -21.5637   -3.4541   25.7750 F   0  0  0  0  0  0
  -30.0205  -13.3210   20.4041 N   0  0  0  0  0  0
  -26.2992  -12.9294   20.3359 N   0  0  0  0  0  0
  -25.9322  -11.6445   20.5759 N   0  0  0  0  0  0
  -22.0456  -12.8197   22.0392 N   0  0  0  0  0  0
  -25.4298  -15.1767   20.4429 N   0  0  0  0  0  0
  -31.9138  -14.5567   20.2431 O   0  0  0  0  0  0
  -21.6626   -6.8870   21.4253 O   0  0  0  0  0  0
  -22.3560  -14.5540   20.6744 O   0  0  0  0  0  0
  -24.6117  -31.8675   23.2113 C   0  0  0  0  0  0
  -25.9010  -32.4821   23.8394 C   0  0  1  0  0  0
  -27.2284  -27.4488   20.1058 C   0  0  0  0  0  0
  -25.5871  -33.8617   24.2317 N   0  0  0  0  0  0
  -23.3990  -30.4923   21.5488 C   0  0  2  0  0  0
  -24.8464  -28.9617   20.1105 C   0  0  0  0  0  0
  -22.7396  -29.4650   22.4965 C   0  0  0  0  0  0
  -18.0275  -28.1361   22.8490 C   0  0  0  0  0  0
  -24.1489  -36.7317   23.2641 C   0  0  0  0  0  0
  -25.9264  -30.8398   21.3625 C   0  0  0  0  0  0
  -26.0047  -29.4786   20.7051 C   0  0  0  0  0  0
  -27.2030  -28.7301   20.6953 C   0  0  0  0  0  0
  -26.0572  -26.9428   19.5023 C   0  0  0  0  0  0
  -24.8672  -27.6941   19.5034 C   0  0  0  0  0  0
  -23.6061  -29.8247   20.1622 C   0  0  0  0  0  0
  -25.4105  -36.3108   24.0339 C   0  0  1  0  0  0
  -20.5862  -28.3639   23.1322 C   0  0  2  0  0  0
  -20.6766  -26.9375   22.5420 C   0  0  0  0  0  0
  -19.5754  -26.6370   21.5205 C   0  0  0  0  0  0
  -18.1923  -26.7910   22.1608 C   0  0  0  0  0  0
  -19.1526  -28.8814   23.2913 C   0  0  0  0  0  0
  -18.9458  -30.1419   23.8922 C   0  0  0  0  0  0
  -17.6455  -30.6570   24.0560 C   0  0  0  0  0  0
  -25.9030  -34.9467   23.5136 C   0  0  0  0  0  0
  -16.5350  -29.9071   23.6327 C   0  0  0  0  0  0
  -16.7261  -28.6489   23.0345 C   0  0  0  0  0  0
  -26.4457  -31.6605   25.0721 C   0  0  0  0  0  0
  -25.3738  -31.3695   26.1472 C   0  0  0  0  0  0
  -27.0292  -30.3060   24.6070 C   0  0  0  0  0  0
  -27.6010  -32.4347   25.7486 C   0  0  0  0  0  0
  -27.5581  -37.1814   24.8453 C   0  0  0  0  0  0
  -21.4121  -29.3014   22.3718 N   0  0  0  0  0  0
  -26.4290  -37.3793   23.9407 N   0  0  0  0  0  0
  -24.6633  -31.0803   22.0996 N   0  0  0  0  0  0
  -23.4181  -28.8186   23.2995 O   0  0  0  0  0  0
  -28.3795  -26.7002   20.1304 O   0  0  0  0  0  0
  -26.5596  -34.8919   22.4691 O   0  0  0  0  0  0
  -23.5320  -32.1390   23.7536 O   0  0  0  0  0  0
  -29.7649  -19.3913   20.2800 C   0  0  0  0  0  0
  -28.7679  -20.3359   20.0065 C   0  0  0  0  0  0
  -29.3898  -18.0375   20.3008 C   0  0  0  0  0  0
  -27.2197  -18.6519   19.9329 C   0  0  0  0  0  0
  -25.7801  -18.2707   19.6718 C   0  0  0  0  0  0
  -31.0444  -17.0363   18.7680 C   0  0  0  0  0  0
  -29.1011  -21.7734   19.6193 C   0  0  0  0  0  0
  -28.4930  -22.8777   20.5098 C   0  0  0  0  0  0
  -28.6621  -24.2815   19.8785 C   0  0  0  0  0  0
  -28.2548  -25.4396   20.8032 C   0  0  0  0  0  0
  -30.4646  -16.9570   20.2038 C   0  0  2  0  0  0
  -27.4905  -19.9504   19.8553 N   0  0  0  0  0  0
  -28.0998  -17.6695   20.1326 N   0  0  0  0  0  0
  -29.9647  -15.6072   20.5226 N   0  0  0  0  0  0
  -31.4535  -12.3820   19.1168 H   0  0  0  0  0  0
  -30.2957  -11.3021   19.8462 H   0  0  0  0  0  0
  -29.7212  -11.7494   17.4305 H   0  0  0  0  0  0
  -29.6504  -13.4635   17.7496 H   0  0  0  0  0  0
  -27.8198  -11.2968   18.8308 H   0  0  0  0  0  0
  -27.3550  -12.6114   17.7854 H   0  0  0  0  0  0
  -27.6692  -14.2503   19.5272 H   0  0  0  0  0  0
  -28.6745  -12.0487   21.4004 H   0  0  0  0  0  0
  -28.4854  -13.7360   21.8113 H   0  0  0  0  0  0
  -25.2760   -9.5653   22.4776 H   0  0  0  0  0  0
  -23.9986   -7.4610   22.7491 H   0  0  0  0  0  0
  -21.0831   -8.8767   19.8960 H   0  0  0  0  0  0
  -22.3712  -10.9658   19.6162 H   0  0  0  0  0  0
  -21.1974   -7.6132   23.9725 H   0  0  0  0  0  0
  -21.1484   -6.0521   25.9093 H   0  0  0  0  0  0
  -22.0589   -2.7610   23.2860 H   0  0  0  0  0  0
  -22.4043  -11.9834   22.4760 H   0  0  0  0  0  0
  -21.1086  -13.1255   22.2597 H   0  0  0  0  0  0
  -24.6652  -15.8215   20.6036 H   0  0  0  0  0  0
  -26.3077  -15.6358   20.2290 H   0  0  0  0  0  0
  -26.7070  -32.5529   23.1154 H   0  0  0  0  0  0
  -25.0000  -33.9781   25.0455 H   0  0  0  0  0  0
  -22.6856  -31.3069   21.4082 H   0  0  0  0  0  0
  -23.3741  -35.9658   23.3300 H   0  0  0  0  0  0
  -24.3586  -36.8939   22.2057 H   0  0  0  0  0  0
  -23.7252  -37.6527   23.6659 H   0  0  0  0  0  0
  -26.0425  -31.6101   20.5990 H   0  0  0  0  0  0
  -26.8132  -30.8854   21.9834 H   0  0  0  0  0  0
  -28.0979  -29.1202   21.1595 H   0  0  0  0  0  0
  -26.0631  -25.9648   19.0418 H   0  0  0  0  0  0
  -23.9755  -27.2904   19.0436 H   0  0  0  0  0  0
  -23.7094  -30.5988   19.4002 H   0  0  0  0  0  0
  -22.7315  -29.2433   19.8674 H   0  0  0  0  0  0
  -25.1291  -36.1972   25.0832 H   0  0  0  0  0  0
  -20.9965  -28.3204   24.1438 H   0  0  0  0  0  0
  -20.5680  -26.2231   23.3599 H   0  0  0  0  0  0
  -21.6633  -26.7417   22.1198 H   0  0  0  0  0  0
  -19.6925  -25.6295   21.1202 H   0  0  0  0  0  0
  -19.6711  -27.3199   20.6751 H   0  0  0  0  0  0
  -17.4200  -26.6666   21.4005 H   0  0  0  0  0  0
  -18.0323  -26.0038   22.8987 H   0  0  0  0  0  0
  -19.7937  -30.7226   24.2295 H   0  0  0  0  0  0
  -17.5016  -31.6260   24.5145 H   0  0  0  0  0  0
  -15.5354  -30.2983   23.7647 H   0  0  0  0  0  0
  -15.8655  -28.0819   22.7049 H   0  0  0  0  0  0
  -24.5885  -30.7072   25.7811 H   0  0  0  0  0  0
  -24.8953  -32.2846   26.4976 H   0  0  0  0  0  0
  -25.8098  -30.8821   27.0200 H   0  0  0  0  0  0
  -26.2823  -29.6835   24.1122 H   0  0  0  0  0  0
  -27.4083  -29.7288   25.4513 H   0  0  0  0  0  0
  -27.8651  -30.4397   23.9193 H   0  0  0  0  0  0
  -27.2582  -33.3625   26.2080 H   0  0  0  0  0  0
  -28.3813  -32.6954   25.0324 H   0  0  0  0  0  0
  -28.0675  -31.8465   26.5407 H   0  0  0  0  0  0
  -28.2577  -38.0136   24.7514 H   0  0  0  0  0  0
  -28.1110  -36.2663   24.6262 H   0  0  0  0  0  0
  -27.2297  -37.1425   25.8858 H   0  0  0  0  0  0
  -20.9251  -29.8750   21.6968 H   0  0  0  0  0  0
  -26.0183  -38.2873   24.1404 H   0  0  0  0  0  0
  -30.8071  -19.6791   20.3307 H   0  0  0  0  0  0
  -25.2511  -19.0725   19.1542 H   0  0  0  0  0  0
  -25.2620  -18.0765   20.6104 H   0  0  0  0  0  0
  -25.7231  -17.3899   19.0344 H   0  0  0  0  0  0
  -31.4286  -18.0356   18.5621 H   0  0  0  0  0  0
  -30.2795  -16.8249   18.0206 H   0  0  0  0  0  0
  -31.8779  -16.3593   18.5931 H   0  0  0  0  0  0
  -28.7582  -21.9140   18.5936 H   0  0  0  0  0  0
  -30.1848  -21.8914   19.5840 H   0  0  0  0  0  0
  -28.9486  -22.8392   21.4993 H   0  0  0  0  0  0
  -27.4282  -22.6876   20.6544 H   0  0  0  0  0  0
  -28.0739  -24.3320   18.9609 H   0  0  0  0  0  0
  -29.7003  -24.4272   19.5793 H   0  0  0  0  0  0
  -28.9133  -25.4593   21.6718 H   0  0  0  0  0  0
  -27.2503  -25.2668   21.1968 H   0  0  0  0  0  0
  -31.2487  -17.2017   20.9232 H   0  0  0  0  0  0
  -28.9643  -15.5465   20.6356 H   0  0  0  0  0  0
  1 25  1  0  0  0
  1 30  2  0  0  0
  1 84  1  0  0  0
  2  3  1  0  0  0
  2 25  1  0  0  0
  2 85  1  0  0  0
  2 86  1  0  0  0
  3  4  1  0  0  0
  3 87  1  0  0  0
  3 88  1  0  0  0
  4  5  1  0  0  0
  4 89  1  0  0  0
  4 90  1  0  0  0
  5  6  1  0  0  0
  5 26  1  0  0  0
  5 91  1  0  0  0
  6 25  1  0  0  0
  6 92  1  0  0  0
  6 93  1  0  0  0
  7  8  2  0  0  0
  7 26  1  0  0  0
  7 29  1  0  0  0
  8  9  1  0  0  0
  8 22  1  0  0  0
  9 10  1  0  0  0
  9 27  2  0  0  0
 10 11  2  0  0  0
 10 15  1  0  0  0
 11 12  1  0  0  0
 11 94  1  0  0  0
 12 13  2  0  0  0
 12 95  1  0  0  0
 13 14  1  0  0  0
 13 31  1  0  0  0
 14 15  2  0  0  0
 14 96  1  0  0  0
 15 97  1  0  0  0
 16 17  2  0  0  0
 16 21  1  0  0  0
 16 31  1  0  0  0
 17 18  1  0  0  0
 17 98  1  0  0  0
 18 19  2  0  0  0
 18 99  1  0  0  0
 19 20  1  0  0  0
 19 24  1  0  0  0
 20 21  2  0  0  0
 20100  1  0  0  0
 21 23  1  0  0  0
 22 28  1  0  0  0
 22 32  2  0  0  0
 26 27  1  0  0  0
 28101  1  0  0  0
 28102  1  0  0  0
 29103  1  0  0  0
 29104  1  0  0  0
 33 34  1  0  0  0
 33 66  1  0  0  0
 33 70  2  0  0  0
 34 36  1  0  0  0
 34 59  1  0  0  0
 34105  1  0  0  0
 35 44  2  0  0  0
 35 45  1  0  0  0
 35 68  1  0  0  0
 36 56  1  0  0  0
 36106  1  0  0  0
 37 39  1  0  0  0
 37 47  1  0  0  0
 37 66  1  0  0  0
 37107  1  0  0  0
 38 43  2  0  0  0
 38 46  1  0  0  0
 38 47  1  0  0  0
 39 64  1  0  0  0
 39 67  2  0  0  0
 40 52  1  0  0  0
 40 53  2  0  0  0
 40 58  1  0  0  0
 41108  1  0  0  0
 41109  1  0  0  0
 41110  1  0  0  0
 41 48  1  0  0  0
 42 43  1  0  0  0
 42 66  1  0  0  0
 42111  1  0  0  0
 42112  1  0  0  0
 43 44  1  0  0  0
 44113  1  0  0  0
 45 46  2  0  0  0
 45114  1  0  0  0
 46115  1  0  0  0
 47116  1  0  0  0
 47117  1  0  0  0
 48 56  1  0  0  0
 48 65  1  0  0  0
 48118  1  0  0  0
 49 50  1  0  0  0
 49 53  1  0  0  0
 49 64  1  0  0  0
 49119  1  0  0  0
 50 51  1  0  0  0
 50120  1  0  0  0
 50121  1  0  0  0
 51 52  1  0  0  0
 51122  1  0  0  0
 51123  1  0  0  0
 52124  1  0  0  0
 52125  1  0  0  0
 53 54  1  0  0  0
 54 55  2  0  0  0
 54126  1  0  0  0
 55 57  1  0  0  0
 55127  1  0  0  0
 56 69  2  0  0  0
 57 58  2  0  0  0
 57128  1  0  0  0
 58129  1  0  0  0
 59 60  1  0  0  0
 59 61  1  0  0  0
 59 62  1  0  0  0
 60130  1  0  0  0
 60131  1  0  0  0
 60132  1  0  0  0
 61133  1  0  0  0
 61134  1  0  0  0
 61135  1  0  0  0
 62136  1  0  0  0
 62137  1  0  0  0
 62138  1  0  0  0
 63 65  1  0  0  0
 63139  1  0  0  0
 63140  1  0  0  0
 63141  1  0  0  0
 64142  1  0  0  0
 65143  1  0  0  0
 68 80  1  0  0  0
 71 72  2  0  0  0
 71 73  1  0  0  0
 71144  1  0  0  0
 72 77  1  0  0  0
 72 82  1  0  0  0
 73 81  1  0  0  0
 73 83  2  0  0  0
 74 75  1  0  0  0
 74 82  2  0  0  0
 74 83  1  0  0  0
 75145  1  0  0  0
 75146  1  0  0  0
 75147  1  0  0  0
 76148  1  0  0  0
 76149  1  0  0  0
 76150  1  0  0  0
 76 81  1  0  0  0
 77 78  1  0  0  0
 77151  1  0  0  0
 77152  1  0  0  0
 78 79  1  0  0  0
 78153  1  0  0  0
 78154  1  0  0  0
 79 80  1  0  0  0
 79155  1  0  0  0
 79156  1  0  0  0
 80157  1  0  0  0
 80158  1  0  0  0
 81 84  1  0  0  0
 81159  1  0  0  0
 84160  1  0  0  0
M  ISO  4   1 100  68 101  80 101  84 100
M  END
> <chiral flag>
0

> <version>
0

> <s_m_source_file>
/data/baiqing/PycharmProjects/Reinvent-master-3.2/result/LINK_invent/BTK/process_docking_weight1_custom_sum_contain_oxygen_bond_distance_aromatic_linkinvent_7_9_3/rearranged_h_0072.sdf

> <i_m_source_file_index>
2

> <r_mmod_Potential_Energy-OPLS-2005>
-640.047241210938

> <r_mmod_Stretch_Energy-OPLS-2005>
32.1812973022461

> <r_mmod_Bend_Energy-OPLS-2005>
93.0807266235352

> <r_mmod_Torsional_Energy-OPLS-2005>
220.808013916016

> <r_mmod_Improper_Torsional_Energy-OPLS-2005>
10.9576463699341

> <r_mmod_Van_der_Waal_Energy-OPLS-2005>
161.3046875

> <r_mmod_Electrostatic_Energy-OPLS-2005>
-975.301147460938

> <r_mmod_Solvation_Energy-OPLS-2005>
-206.617874145508

> <b_mmod_Minimization_Converged-OPLS-2005>
0

> <r_mmod_RMS_Derivative-OPLS-2005>
1.91634559631348

$$$$
3
                    3D
 Structure written by MMmdl.
168176  0  0  1  0            999 V2000
  -30.5918  -14.9796   20.3252 C   0  0  0  0  0  0
  -30.4304  -12.5985   19.4922 C   0  0  0  0  0  0
  -29.5107  -12.4892   18.2565 C   0  0  0  0  0  0
  -28.0520  -12.2419   18.6877 C   0  0  0  0  0  0
  -27.6057  -13.1997   19.8162 C   0  0  2  0  0  0
  -28.6616  -13.3606   20.9336 C   0  0  0  0  0  0
  -25.2425  -13.8027   20.5777 C   0  0  0  0  0  0
  -24.1721  -13.0325   20.9290 C   0  0  0  0  0  0
  -24.6300  -11.6803   20.8828 C   0  0  0  0  0  0
  -23.8976  -10.4224   21.0456 C   0  0  0  0  0  0
  -24.3555   -9.4148   21.9221 C   0  0  0  0  0  0
  -23.6253   -8.2179   22.0759 C   0  0  0  0  0  0
  -22.4244   -8.0230   21.3535 C   0  0  0  0  0  0
  -21.9861   -9.0193   20.4640 C   0  0  0  0  0  0
  -22.7169  -10.2085   20.3076 C   0  0  0  0  0  0
  -21.6833   -6.0703   22.5277 C   0  0  0  0  0  0
  -21.3998   -6.5616   23.8208 C   0  0  0  0  0  0
  -21.3653   -5.6778   24.9175 C   0  0  0  0  0  0
  -21.6047   -4.3041   24.7237 C   0  0  0  0  0  0
  -21.8824   -3.8127   23.4363 C   0  0  0  0  0  0
  -21.9188   -4.6934   22.3408 C   0  0  0  0  0  0
  -22.7762  -13.5156   21.1915 C   0  0  0  0  0  0
  -22.1666   -4.2118   21.0988 F   0  0  0  0  0  0
  -21.5631   -3.4534   25.7753 F   0  0  0  0  0  0
  -29.9404  -13.7415   20.3141 N   0  0  0  0  0  0
  -26.2779  -12.9146   20.3283 N   0  0  0  0  0  0
  -25.9213  -11.6340   20.5841 N   0  0  0  0  0  0
  -22.0395  -12.8164   22.0467 N   0  0  0  0  0  0
  -25.4080  -15.1751   20.4192 N   0  0  0  0  0  0
  -31.8240  -14.9030   20.3164 O   0  0  0  0  0  0
  -21.6612   -6.8839   21.4237 O   0  0  0  0  0  0
  -22.3480  -14.5472   20.6751 O   0  0  0  0  0  0
  -24.6400  -31.8454   23.1893 C   0  0  0  0  0  0
  -25.9182  -32.4699   23.8277 C   0  0  1  0  0  0
  -27.2266  -27.1528   20.1474 C   0  0  0  0  0  0
  -25.5940  -33.8506   24.2197 N   0  0  0  0  0  0
  -23.4448  -30.4627   21.5332 C   0  0  2  0  0  0
  -24.8956  -28.8922   20.1100 C   0  0  0  0  0  0
  -22.7545  -29.4550   22.4862 C   0  0  0  0  0  0
  -18.0302  -28.1407   22.8469 C   0  0  0  0  0  0
  -24.1497  -36.7255   23.2642 C   0  0  0  0  0  0
  -25.9976  -30.7237   21.3870 C   0  0  0  0  0  0
  -26.0691  -29.3356   20.7302 C   0  0  0  0  0  0
  -27.2303  -28.4789   20.7374 C   0  0  0  0  0  0
  -26.0271  -26.8108   19.4824 C   0  0  0  0  0  0
  -24.8858  -27.6420   19.4727 C   0  0  0  0  0  0
  -23.6705  -29.7901   20.1530 C   0  0  0  0  0  0
  -25.4128  -36.3033   24.0317 C   0  0  1  0  0  0
  -20.5910  -28.3730   23.1239 C   0  0  2  0  0  0
  -20.6799  -26.9434   22.5414 C   0  0  0  0  0  0
  -19.5781  -26.6388   21.5217 C   0  0  0  0  0  0
  -18.1951  -26.7945   22.1614 C   0  0  0  0  0  0
  -19.1557  -28.8884   23.2847 C   0  0  0  0  0  0
  -18.9477  -30.1480   23.8880 C   0  0  0  0  0  0
  -17.6477  -30.6605   24.0561 C   0  0  0  0  0  0
  -25.9081  -34.9408   23.5068 C   0  0  0  0  0  0
  -16.5367  -29.9102   23.6338 C   0  0  0  0  0  0
  -16.7286  -28.6519   23.0353 C   0  0  0  0  0  0
  -26.4522  -31.6563   25.0709 C   0  0  0  0  0  0
  -25.3712  -31.3739   26.1401 C   0  0  0  0  0  0
  -27.0391  -30.2963   24.6287 C   0  0  0  0  0  0
  -27.6063  -32.4320   25.7488 C   0  0  0  0  0  0
  -27.5579  -37.1777   24.8460 C   0  0  0  0  0  0
  -21.4245  -29.3045   22.3595 N   0  0  0  0  0  0
  -26.4292  -37.3742   23.9406 N   0  0  0  0  0  0
  -24.7136  -31.0316   22.0924 N   0  0  0  0  0  0
  -23.4180  -28.8097   23.3018 O   0  0  0  0  0  0
  -28.3113  -26.2102   20.2491 O   0  0  0  0  0  0
  -26.5667  -34.8895   22.4651 O   0  0  0  0  0  0
  -23.5525  -32.1335   23.7120 O   0  0  0  0  0  0
  -29.3284  -20.6895   20.5296 C   0  0  0  0  0  0
  -27.6667  -18.9962   20.7528 C   0  0  0  0  0  0
  -29.0334  -19.2366   20.6158 C   0  0  0  0  0  0
  -28.3171  -21.7844   20.5885 C   0  0  0  0  0  0
  -26.9747  -21.2770   20.7354 C   0  0  0  0  0  0
  -25.5336  -23.5113   20.6870 C   0  0  0  0  0  0
  -25.4434  -21.9698   22.6234 C   0  0  0  0  0  0
  -24.4335  -21.3756   20.3902 C   0  0  0  0  0  0
  -30.8643  -16.8882   18.6726 C   0  0  0  0  0  0
  -28.5846  -16.3617   19.2523 C   0  0  0  0  0  0
  -30.0191  -17.9181   20.7888 C   0  0  0  0  0  0
  -28.6687  -23.3899   20.7917 C   0  0  0  0  0  0
  -28.3032  -24.7157   19.8206 C   0  0  0  0  0  0
  -25.6527  -22.0379   21.0966 C   0  0  0  0  0  0
  -29.9715  -16.4943   19.8806 C   0  0  0  0  0  0
  -26.7256  -19.9462   20.7973 N   0  0  0  0  0  0
  -31.4619  -12.7393   19.1658 H   0  0  0  0  0  0
  -30.4234  -11.6741   20.0712 H   0  0  0  0  0  0
  -29.8482  -11.6829   17.6040 H   0  0  0  0  0  0
  -29.5715  -13.4075   17.6702 H   0  0  0  0  0  0
  -27.9753  -11.2093   19.0303 H   0  0  0  0  0  0
  -27.3829  -12.3299   17.8311 H   0  0  0  0  0  0
  -27.4803  -14.1298   19.2949 H   0  0  0  0  0  0
  -28.7668  -12.4373   21.5049 H   0  0  0  0  0  0
  -28.3483  -14.1303   21.6402 H   0  0  0  0  0  0
  -25.2698   -9.5628   22.4797 H   0  0  0  0  0  0
  -23.9967   -7.4553   22.7455 H   0  0  0  0  0  0
  -21.0803   -8.8689   19.8926 H   0  0  0  0  0  0
  -22.3628  -10.9627   19.6187 H   0  0  0  0  0  0
  -21.1991   -7.6124   23.9696 H   0  0  0  0  0  0
  -21.1474   -6.0517   25.9072 H   0  0  0  0  0  0
  -22.0621   -2.7592   23.2870 H   0  0  0  0  0  0
  -22.4017  -11.9833   22.4868 H   0  0  0  0  0  0
  -21.1012  -13.1187   22.2661 H   0  0  0  0  0  0
  -24.6413  -15.8284   20.5371 H   0  0  0  0  0  0
  -26.2521  -15.6109   20.0754 H   0  0  0  0  0  0
  -26.7233  -32.5315   23.0993 H   0  0  0  0  0  0
  -25.0041  -33.9632   25.0311 H   0  0  0  0  0  0
  -22.7485  -31.2891   21.3770 H   0  0  0  0  0  0
  -23.3771  -35.9573   23.3285 H   0  0  0  0  0  0
  -24.3585  -36.8914   22.2060 H   0  0  0  0  0  0
  -23.7236  -37.6437   23.6699 H   0  0  0  0  0  0
  -26.1510  -31.4797   20.6155 H   0  0  0  0  0  0
  -26.8683  -30.7752   22.0287 H   0  0  0  0  0  0
  -28.1229  -28.8113   21.2493 H   0  0  0  0  0  0
  -25.9246  -25.8665   18.9762 H   0  0  0  0  0  0
  -23.9904  -27.2992   18.9733 H   0  0  0  0  0  0
  -23.8010  -30.5631   19.3953 H   0  0  0  0  0  0
  -22.7878  -29.2265   19.8464 H   0  0  0  0  0  0
  -25.1313  -36.1867   25.0808 H   0  0  0  0  0  0
  -21.0000  -28.3336   24.1361 H   0  0  0  0  0  0
  -20.5713  -26.2338   23.3630 H   0  0  0  0  0  0
  -21.6665  -26.7462   22.1203 H   0  0  0  0  0  0
  -19.6960  -25.6293   21.1269 H   0  0  0  0  0  0
  -19.6740  -27.3175   20.6731 H   0  0  0  0  0  0
  -17.4225  -26.6684   21.4011 H   0  0  0  0  0  0
  -18.0353  -26.0104   22.9027 H   0  0  0  0  0  0
  -19.7957  -30.7294   24.2244 H   0  0  0  0  0  0
  -17.5037  -31.6282   24.5168 H   0  0  0  0  0  0
  -15.5369  -30.2997   23.7690 H   0  0  0  0  0  0
  -15.8683  -28.0838   22.7082 H   0  0  0  0  0  0
  -24.5911  -30.7067   25.7709 H   0  0  0  0  0  0
  -24.8873  -32.2914   26.4766 H   0  0  0  0  0  0
  -25.7997  -30.8950   27.0217 H   0  0  0  0  0  0
  -26.3005  -29.6673   24.1298 H   0  0  0  0  0  0
  -27.4009  -29.7267   25.4861 H   0  0  0  0  0  0
  -27.8912  -30.4201   23.9598 H   0  0  0  0  0  0
  -27.2674  -33.3643   26.2015 H   0  0  0  0  0  0
  -28.3894  -32.6844   25.0324 H   0  0  0  0  0  0
  -28.0707  -31.8475   26.5440 H   0  0  0  0  0  0
  -28.2571  -38.0096   24.7520 H   0  0  0  0  0  0
  -28.1100  -36.2624   24.6273 H   0  0  0  0  0  0
  -27.2294  -37.1391   25.8860 H   0  0  0  0  0  0
  -20.9454  -29.8723   21.6747 H   0  0  0  0  0  0
  -26.0164  -38.2810   24.1428 H   0  0  0  0  0  0
  -30.3692  -20.9777   20.5020 H   0  0  0  0  0  0
  -27.2958  -17.9969   20.9116 H   0  0  0  0  0  0
  -26.2284  -24.1607   21.2083 H   0  0  0  0  0  0
  -24.5526  -23.9115   20.9464 H   0  0  0  0  0  0
  -25.6149  -23.6151   19.6077 H   0  0  0  0  0  0
  -26.2677  -22.4461   23.1544 H   0  0  0  0  0  0
  -25.3842  -20.9388   22.9733 H   0  0  0  0  0  0
  -24.5208  -22.4663   22.9273 H   0  0  0  0  0  0
  -24.5886  -21.3221   19.3117 H   0  0  0  0  0  0
  -23.5093  -21.9282   20.5599 H   0  0  0  0  0  0
  -24.2406  -20.3626   20.7446 H   0  0  0  0  0  0
  -30.4973  -17.7839   18.1707 H   0  0  0  0  0  0
  -30.9117  -16.0980   17.9212 H   0  0  0  0  0  0
  -31.8906  -17.0982   18.9782 H   0  0  0  0  0  0
  -28.2622  -17.2852   18.7740 H   0  0  0  0  0  0
  -27.8497  -16.1053   20.0082 H   0  0  0  0  0  0
  -28.5920  -15.6234   18.4514 H   0  0  0  0  0  0
  -29.8675  -17.6048   21.8222 H   0  0  0  0  0  0
  -31.0421  -18.2957   20.7902 H   0  0  0  0  0  0
  -29.7480  -23.4280   20.9429 H   0  0  0  0  0  0
  -28.2814  -23.6200   21.7837 H   0  0  0  0  0  0
  -27.4354  -24.4994   19.2182 H   0  0  0  0  0  0
  -29.0773  -24.6907   19.0540 H   0  0  0  0  0  0
  1 25  1  0  0  0
  1 30  2  0  0  0
  1 85  1  0  0  0
  2  3  1  0  0  0
  2 25  1  0  0  0
  2 87  1  0  0  0
  2 88  1  0  0  0
  3  4  1  0  0  0
  3 89  1  0  0  0
  3 90  1  0  0  0
  4  5  1  0  0  0
  4 91  1  0  0  0
  4 92  1  0  0  0
  5  6  1  0  0  0
  5 26  1  0  0  0
  5 93  1  0  0  0
  6 25  1  0  0  0
  6 94  1  0  0  0
  6 95  1  0  0  0
  7  8  2  0  0  0
  7 26  1  0  0  0
  7 29  1  0  0  0
  8  9  1  0  0  0
  8 22  1  0  0  0
  9 10  1  0  0  0
  9 27  2  0  0  0
 10 11  2  0  0  0
 10 15  1  0  0  0
 11 12  1  0  0  0
 11 96  1  0  0  0
 12 13  2  0  0  0
 12 97  1  0  0  0
 13 14  1  0  0  0
 13 31  1  0  0  0
 14 15  2  0  0  0
 14 98  1  0  0  0
 15 99  1  0  0  0
 16 17  2  0  0  0
 16 21  1  0  0  0
 16 31  1  0  0  0
 17 18  1  0  0  0
 17100  1  0  0  0
 18 19  2  0  0  0
 18101  1  0  0  0
 19 20  1  0  0  0
 19 24  1  0  0  0
 20 21  2  0  0  0
 20102  1  0  0  0
 21 23  1  0  0  0
 22 28  1  0  0  0
 22 32  2  0  0  0
 26 27  1  0  0  0
 28103  1  0  0  0
 28104  1  0  0  0
 29105  1  0  0  0
 29106  1  0  0  0
 33 34  1  0  0  0
 33 66  1  0  0  0
 33 70  2  0  0  0
 34 36  1  0  0  0
 34 59  1  0  0  0
 34107  1  0  0  0
 35 44  2  0  0  0
 35 45  1  0  0  0
 35 68  1  0  0  0
 36 56  1  0  0  0
 36108  1  0  0  0
 37 39  1  0  0  0
 37 47  1  0  0  0
 37 66  1  0  0  0
 37109  1  0  0  0
 38 43  2  0  0  0
 38 46  1  0  0  0
 38 47  1  0  0  0
 39 64  1  0  0  0
 39 67  2  0  0  0
 40 52  1  0  0  0
 40 53  2  0  0  0
 40 58  1  0  0  0
 41110  1  0  0  0
 41111  1  0  0  0
 41112  1  0  0  0
 41 48  1  0  0  0
 42 43  1  0  0  0
 42 66  1  0  0  0
 42113  1  0  0  0
 42114  1  0  0  0
 43 44  1  0  0  0
 44115  1  0  0  0
 45 46  2  0  0  0
 45116  1  0  0  0
 46117  1  0  0  0
 47118  1  0  0  0
 47119  1  0  0  0
 48 56  1  0  0  0
 48 65  1  0  0  0
 48120  1  0  0  0
 49 50  1  0  0  0
 49 53  1  0  0  0
 49 64  1  0  0  0
 49121  1  0  0  0
 50 51  1  0  0  0
 50122  1  0  0  0
 50123  1  0  0  0
 51 52  1  0  0  0
 51124  1  0  0  0
 51125  1  0  0  0
 52126  1  0  0  0
 52127  1  0  0  0
 53 54  1  0  0  0
 54 55  2  0  0  0
 54128  1  0  0  0
 55 57  1  0  0  0
 55129  1  0  0  0
 56 69  2  0  0  0
 57 58  2  0  0  0
 57130  1  0  0  0
 58131  1  0  0  0
 59 60  1  0  0  0
 59 61  1  0  0  0
 59 62  1  0  0  0
 60132  1  0  0  0
 60133  1  0  0  0
 60134  1  0  0  0
 61135  1  0  0  0
 61136  1  0  0  0
 61137  1  0  0  0
 62138  1  0  0  0
 62139  1  0  0  0
 62140  1  0  0  0
 63 65  1  0  0  0
 63141  1  0  0  0
 63142  1  0  0  0
 63143  1  0  0  0
 64144  1  0  0  0
 65145  1  0  0  0
 68 83  1  0  0  0
 71 73  2  0  0  0
 71 74  1  0  0  0
 71146  1  0  0  0
 72 73  1  0  0  0
 72 86  2  0  0  0
 72147  1  0  0  0
 73 81  1  0  0  0
 74 75  2  0  0  0
 74 82  1  0  0  0
 75 84  1  0  0  0
 75 86  1  0  0  0
 76148  1  0  0  0
 76149  1  0  0  0
 76150  1  0  0  0
 76 84  1  0  0  0
 77 84  1  0  0  0
 77151  1  0  0  0
 77152  1  0  0  0
 77153  1  0  0  0
 78 84  1  0  0  0
 78154  1  0  0  0
 78155  1  0  0  0
 78156  1  0  0  0
 79157  1  0  0  0
 79158  1  0  0  0
 79159  1  0  0  0
 79 85  1  0  0  0
 80 85  1  0  0  0
 80160  1  0  0  0
 80161  1  0  0  0
 80162  1  0  0  0
 81 85  1  0  0  0
 81163  1  0  0  0
 81164  1  0  0  0
 82 83  1  0  0  0
 82165  1  0  0  0
 82166  1  0  0  0
 83167  1  0  0  0
 83168  1  0  0  0
M  ISO  4   1 100  68 101  83 101  85 100
M  END
> <chiral flag>
0

> <version>
0

> <s_m_source_file>
/data/baiqing/PycharmProjects/Reinvent-master-3.2/result/LINK_invent/BTK/process_docking_weight1_custom_sum_contain_oxygen_bond_distance_aromatic_linkinvent_7_9_3/rearranged_h_0072.sdf

> <i_m_source_file_index>
3

> <r_mmod_Potential_Energy-OPLS-2005>
527.008178710938

> <r_mmod_Stretch_Energy-OPLS-2005>
281.833343505859

> <r_mmod_Bend_Energy-OPLS-2005>
335.723236083984

> <r_mmod_Torsional_Energy-OPLS-2005>
222.426635742188

> <r_mmod_Improper_Torsional_Energy-OPLS-2005>
16.331916809082

> <r_mmod_Van_der_Waal_Energy-OPLS-2005>
166.757949829102

> <r_mmod_Electrostatic_Energy-OPLS-2005>
-515.820190429688

> <r_mmod_Solvation_Energy-OPLS-2005>
-187.499053955078

> <b_mmod_Minimization_Converged-OPLS-2005>
0

> <r_mmod_RMS_Derivative-OPLS-2005>
1.70464301109314

$$$$
4
                    3D
 Structure written by MMmdl.
169177  0  0  1  0            999 V2000
  -30.7071  -14.5867   20.5331 C   0  0  0  0  0  0
  -30.4430  -12.3660   19.4545 C   0  0  0  0  0  0
  -29.5151  -12.5205   18.2315 C   0  0  0  0  0  0
  -28.0411  -12.3482   18.6502 C   0  0  0  0  0  0
  -27.6668  -13.2113   19.8793 C   0  0  2  0  0  0
  -28.7176  -13.0908   21.0046 C   0  0  0  0  0  0
  -25.2670  -13.8154   20.5683 C   0  0  0  0  0  0
  -24.1882  -13.0420   20.9190 C   0  0  0  0  0  0
  -24.6458  -11.6912   20.8796 C   0  0  0  0  0  0
  -23.9121  -10.4285   21.0450 C   0  0  0  0  0  0
  -24.3661   -9.4188   21.9192 C   0  0  0  0  0  0
  -23.6318   -8.2234   22.0735 C   0  0  0  0  0  0
  -22.4300   -8.0276   21.3543 C   0  0  0  0  0  0
  -21.9975   -9.0256   20.4648 C   0  0  0  0  0  0
  -22.7321  -10.2125   20.3081 C   0  0  0  0  0  0
  -21.6840   -6.0737   22.5273 C   0  0  0  0  0  0
  -21.3985   -6.5636   23.8206 C   0  0  0  0  0  0
  -21.3681   -5.6789   24.9162 C   0  0  0  0  0  0
  -21.6059   -4.3063   24.7216 C   0  0  0  0  0  0
  -21.8829   -3.8152   23.4342 C   0  0  0  0  0  0
  -21.9207   -4.6968   22.3397 C   0  0  0  0  0  0
  -22.7915  -13.5249   21.1852 C   0  0  0  0  0  0
  -22.1681   -4.2164   21.0986 F   0  0  0  0  0  0
  -21.5673   -3.4555   25.7741 F   0  0  0  0  0  0
  -30.0439  -13.3916   20.4369 N   0  0  0  0  0  0
  -26.3101  -12.9304   20.3416 N   0  0  0  0  0  0
  -25.9399  -11.6474   20.5864 N   0  0  0  0  0  0
  -22.0535  -12.8132   22.0370 N   0  0  0  0  0  0
  -25.4406  -15.1839   20.4014 N   0  0  0  0  0  0
  -31.8514  -14.7430   20.1033 O   0  0  0  0  0  0
  -21.6638   -6.8879   21.4240 O   0  0  0  0  0  0
  -22.3590  -14.5538   20.6735 O   0  0  0  0  0  0
  -24.6212  -31.8635   23.2041 C   0  0  0  0  0  0
  -25.9058  -32.4819   23.8348 C   0  0  1  0  0  0
  -27.2544  -27.3888   20.0992 C   0  0  0  0  0  0
  -25.5898  -33.8609   24.2290 N   0  0  0  0  0  0
  -23.4144  -30.4786   21.5488 C   0  0  2  0  0  0
  -24.8636  -28.9369   20.1219 C   0  0  0  0  0  0
  -22.7489  -29.4571   22.5017 C   0  0  0  0  0  0
  -18.0353  -28.1417   22.8528 C   0  0  0  0  0  0
  -24.1479  -36.7323   23.2638 C   0  0  0  0  0  0
  -25.9466  -30.8101   21.3677 C   0  0  0  0  0  0
  -26.0217  -29.4348   20.7294 C   0  0  0  0  0  0
  -27.2123  -28.6662   20.7216 C   0  0  0  0  0  0
  -26.0887  -26.9479   19.4366 C   0  0  0  0  0  0
  -24.8911  -27.6892   19.4775 C   0  0  0  0  0  0
  -23.6235  -29.8001   20.1668 C   0  0  0  0  0  0
  -25.4104  -36.3118   24.0330 C   0  0  1  0  0  0
  -20.5892  -28.3657   23.1305 C   0  0  2  0  0  0
  -20.6746  -26.9398   22.5334 C   0  0  0  0  0  0
  -19.5724  -26.6467   21.5142 C   0  0  0  0  0  0
  -18.1968  -26.7969   22.1645 C   0  0  0  0  0  0
  -19.1573  -28.8881   23.2938 C   0  0  0  0  0  0
  -18.9491  -30.1472   23.8953 C   0  0  0  0  0  0
  -17.6495  -30.6608   24.0591 C   0  0  0  0  0  0
  -25.9037  -34.9492   23.5116 C   0  0  0  0  0  0
  -16.5385  -29.9082   23.6341 C   0  0  0  0  0  0
  -16.7329  -28.6499   23.0370 C   0  0  0  0  0  0
  -26.4455  -31.6638   25.0720 C   0  0  0  0  0  0
  -25.3668  -31.3804   26.1440 C   0  0  0  0  0  0
  -27.0291  -30.3047   24.6177 C   0  0  0  0  0  0
  -27.6023  -32.4346   25.7526 C   0  0  0  0  0  0
  -27.5578  -37.1814   24.8459 C   0  0  0  0  0  0
  -21.4206  -29.3036   22.3763 N   0  0  0  0  0  0
  -26.4292  -37.3800   23.9404 N   0  0  0  0  0  0
  -24.6788  -31.0668   22.0985 N   0  0  0  0  0  0
  -23.4230  -28.8079   23.3043 O   0  0  0  0  0  0
  -28.4277  -26.6387   20.1506 O   0  0  0  0  0  0
  -26.5591  -34.8944   22.4684 O   0  0  0  0  0  0
  -23.5365  -32.1446   23.7375 O   0  0  0  0  0  0
  -30.4185  -20.4337   19.5042 C   0  0  0  0  0  0
  -29.5959  -19.5638   20.1713 C   0  0  0  0  0  0
  -29.1642  -21.7288   20.8319 C   0  0  0  0  0  0
  -26.3183  -20.1095   21.2105 C   0  0  0  0  0  0
  -28.1686  -17.4846   19.5781 C   0  0  0  0  0  0
  -28.4408  -22.8537   23.0486 C   0  0  0  0  0  0
  -26.5234  -23.6811   20.5574 C   0  0  0  0  0  0
  -27.7065  -19.9202   21.8530 C   0  0  0  0  0  0
  -30.2831  -17.1135   21.0654 C   0  0  0  0  0  0
  -28.4805  -25.2045   19.8483 C   0  0  0  0  0  0
  -29.5625  -18.0177   19.9821 C   0  0  1  0  0  0
  -28.8348  -23.0709   21.5744 C   0  0  2  0  0  0
  -27.9082  -24.2143   20.9401 C   0  0  1  0  0  0
  -28.7983  -20.4024   20.9754 N   0  0  0  0  0  0
  -30.1079  -21.7071   19.8909 N   0  3  0  0  0  0
  -29.9767  -15.6425   20.9821 N   0  0  0  0  0  0
  -31.4861  -12.4672   19.1482 H   0  0  0  0  0  0
  -30.3468  -11.3740   19.8988 H   0  0  0  0  0  0
  -29.7817  -11.7976   17.4590 H   0  0  0  0  0  0
  -29.6658  -13.5142   17.7981 H   0  0  0  0  0  0
  -27.8915  -11.2941   18.8822 H   0  0  0  0  0  0
  -27.3837  -12.5933   17.8170 H   0  0  0  0  0  0
  -27.6796  -14.2439   19.5481 H   0  0  0  0  0  0
  -28.7124  -12.0968   21.4499 H   0  0  0  0  0  0
  -28.4708  -13.7819   21.8100 H   0  0  0  0  0  0
  -25.2784   -9.5622   22.4799 H   0  0  0  0  0  0
  -24.0029   -7.4608   22.7417 H   0  0  0  0  0  0
  -21.0955   -8.8806   19.8905 H   0  0  0  0  0  0
  -22.3830  -10.9684   19.6221 H   0  0  0  0  0  0
  -21.1908   -7.6140   23.9684 H   0  0  0  0  0  0
  -21.1520   -6.0537   25.9072 H   0  0  0  0  0  0
  -22.0584   -2.7623   23.2836 H   0  0  0  0  0  0
  -22.4160  -11.9802   22.4764 H   0  0  0  0  0  0
  -21.1130  -13.1098   22.2527 H   0  0  0  0  0  0
  -24.6757  -15.8421   20.4804 H   0  0  0  0  0  0
  -26.2845  -15.5995   20.0267 H   0  0  0  0  0  0
  -26.7157  -32.5481   23.1139 H   0  0  0  0  0  0
  -25.0051  -33.9761   25.0437 H   0  0  0  0  0  0
  -22.7064  -31.2969   21.4031 H   0  0  0  0  0  0
  -23.3744  -35.9651   23.3317 H   0  0  0  0  0  0
  -24.3573  -36.8921   22.2047 H   0  0  0  0  0  0
  -23.7220  -37.6534   23.6640 H   0  0  0  0  0  0
  -26.0488  -31.5571   20.5776 H   0  0  0  0  0  0
  -26.8427  -30.8777   21.9750 H   0  0  0  0  0  0
  -28.1013  -29.0487   21.2049 H   0  0  0  0  0  0
  -26.0912  -26.0376   18.8590 H   0  0  0  0  0  0
  -24.0104  -27.3017   18.9826 H   0  0  0  0  0  0
  -23.7229  -30.5671   19.3948 H   0  0  0  0  0  0
  -22.7556  -29.1988   19.8865 H   0  0  0  0  0  0
  -25.1288  -36.2007   25.0817 H   0  0  0  0  0  0
  -20.9908  -28.3292   24.1456 H   0  0  0  0  0  0
  -20.5603  -26.2208   23.3462 H   0  0  0  0  0  0
  -21.6609  -26.7351   22.1136 H   0  0  0  0  0  0
  -19.6844  -25.6417   21.1037 H   0  0  0  0  0  0
  -19.6537  -27.3309   20.6710 H   0  0  0  0  0  0
  -17.4119  -26.6643   21.4145 H   0  0  0  0  0  0
  -18.0592  -26.0103   22.9074 H   0  0  0  0  0  0
  -19.7968  -30.7306   24.2294 H   0  0  0  0  0  0
  -17.5042  -31.6296   24.5195 H   0  0  0  0  0  0
  -15.5372  -30.2920   23.7694 H   0  0  0  0  0  0
  -15.8747  -28.0761   22.7071 H   0  0  0  0  0  0
  -24.5799  -30.7203   25.7772 H   0  0  0  0  0  0
  -24.8888  -32.2998   26.4841 H   0  0  0  0  0  0
  -25.7926  -30.8976   27.0248 H   0  0  0  0  0  0
  -26.2893  -29.6821   24.1101 H   0  0  0  0  0  0
  -27.3920  -29.7259   25.4698 H   0  0  0  0  0  0
  -27.8798  -30.4375   23.9467 H   0  0  0  0  0  0
  -27.2632  -33.3629   26.2149 H   0  0  0  0  0  0
  -28.3831  -32.6912   25.0355 H   0  0  0  0  0  0
  -28.0700  -31.8420   26.5416 H   0  0  0  0  0  0
  -28.2605  -38.0102   24.7514 H   0  0  0  0  0  0
  -28.1055  -36.2631   24.6286 H   0  0  0  0  0  0
  -27.2286  -37.1495   25.8856 H   0  0  0  0  0  0
  -20.9436  -29.8925   21.7083 H   0  0  0  0  0  0
  -26.0190  -38.2887   24.1372 H   0  0  0  0  0  0
  -31.2035  -20.2484   18.7842 H   0  0  0  0  0  0
  -26.1671  -19.5007   20.3195 H   0  0  0  0  0  0
  -26.1920  -21.1328   20.8916 H   0  0  0  0  0  0
  -25.5111  -19.8616   21.9022 H   0  0  0  0  0  0
  -27.4200  -17.6794   20.3352 H   0  0  0  0  0  0
  -28.1650  -16.4092   19.4247 H   0  0  0  0  0  0
  -27.8101  -17.9085   18.6409 H   0  0  0  0  0  0
  -27.4112  -22.5173   23.1387 H   0  0  0  0  0  0
  -28.5123  -23.7773   23.6199 H   0  0  0  0  0  0
  -29.0947  -22.1420   23.5522 H   0  0  0  0  0  0
  -25.8732  -24.4686   20.1988 H   0  0  0  0  0  0
  -26.6012  -22.9453   19.7591 H   0  0  0  0  0  0
  -26.0180  -23.2416   21.4186 H   0  0  0  0  0  0
  -27.8724  -18.8654   22.0675 H   0  0  0  0  0  0
  -27.7691  -20.3821   22.8335 H   0  0  0  0  0  0
  -31.3613  -17.2899   21.0143 H   0  0  0  0  0  0
  -29.9853  -17.4395   22.0658 H   0  0  0  0  0  0
  -28.0287  -25.0189   18.8753 H   0  0  0  0  0  0
  -29.5332  -24.9702   19.6797 H   0  0  0  0  0  0
  -30.1798  -17.8657   19.0899 H   0  0  0  0  0  0
  -29.8192  -23.5349   21.6500 H   0  0  0  0  0  0
  -27.7085  -24.9084   21.7592 H   0  0  0  0  0  0
  -30.5814  -22.5334   19.5525 H   0  0  0  0  0  0
  -29.0203  -15.4073   21.1930 H   0  0  0  0  0  0
  1 25  1  0  0  0
  1 30  2  0  0  0
  1 86  1  0  0  0
  2  3  1  0  0  0
  2 25  1  0  0  0
  2 87  1  0  0  0
  2 88  1  0  0  0
  3  4  1  0  0  0
  3 89  1  0  0  0
  3 90  1  0  0  0
  4  5  1  0  0  0
  4 91  1  0  0  0
  4 92  1  0  0  0
  5  6  1  0  0  0
  5 26  1  0  0  0
  5 93  1  0  0  0
  6 25  1  0  0  0
  6 94  1  0  0  0
  6 95  1  0  0  0
  7  8  2  0  0  0
  7 26  1  0  0  0
  7 29  1  0  0  0
  8  9  1  0  0  0
  8 22  1  0  0  0
  9 10  1  0  0  0
  9 27  2  0  0  0
 10 11  2  0  0  0
 10 15  1  0  0  0
 11 12  1  0  0  0
 11 96  1  0  0  0
 12 13  2  0  0  0
 12 97  1  0  0  0
 13 14  1  0  0  0
 13 31  1  0  0  0
 14 15  2  0  0  0
 14 98  1  0  0  0
 15 99  1  0  0  0
 16 17  2  0  0  0
 16 21  1  0  0  0
 16 31  1  0  0  0
 17 18  1  0  0  0
 17100  1  0  0  0
 18 19  2  0  0  0
 18101  1  0  0  0
 19 20  1  0  0  0
 19 24  1  0  0  0
 20 21  2  0  0  0
 20102  1  0  0  0
 21 23  1  0  0  0
 22 28  1  0  0  0
 22 32  2  0  0  0
 26 27  1  0  0  0
 28103  1  0  0  0
 28104  1  0  0  0
 29105  1  0  0  0
 29106  1  0  0  0
 33 34  1  0  0  0
 33 66  1  0  0  0
 33 70  2  0  0  0
 34 36  1  0  0  0
 34 59  1  0  0  0
 34107  1  0  0  0
 35 44  2  0  0  0
 35 45  1  0  0  0
 35 68  1  0  0  0
 36 56  1  0  0  0
 36108  1  0  0  0
 37 39  1  0  0  0
 37 47  1  0  0  0
 37 66  1  0  0  0
 37109  1  0  0  0
 38 43  2  0  0  0
 38 46  1  0  0  0
 38 47  1  0  0  0
 39 64  1  0  0  0
 39 67  2  0  0  0
 40 52  1  0  0  0
 40 53  2  0  0  0
 40 58  1  0  0  0
 41110  1  0  0  0
 41111  1  0  0  0
 41112  1  0  0  0
 41 48  1  0  0  0
 42 43  1  0  0  0
 42 66  1  0  0  0
 42113  1  0  0  0
 42114  1  0  0  0
 43 44  1  0  0  0
 44115  1  0  0  0
 45 46  2  0  0  0
 45116  1  0  0  0
 46117  1  0  0  0
 47118  1  0  0  0
 47119  1  0  0  0
 48 56  1  0  0  0
 48 65  1  0  0  0
 48120  1  0  0  0
 49 50  1  0  0  0
 49 53  1  0  0  0
 49 64  1  0  0  0
 49121  1  0  0  0
 50 51  1  0  0  0
 50122  1  0  0  0
 50123  1  0  0  0
 51 52  1  0  0  0
 51124  1  0  0  0
 51125  1  0  0  0
 52126  1  0  0  0
 52127  1  0  0  0
 53 54  1  0  0  0
 54 55  2  0  0  0
 54128  1  0  0  0
 55 57  1  0  0  0
 55129  1  0  0  0
 56 69  2  0  0  0
 57 58  2  0  0  0
 57130  1  0  0  0
 58131  1  0  0  0
 59 60  1  0  0  0
 59 61  1  0  0  0
 59 62  1  0  0  0
 60132  1  0  0  0
 60133  1  0  0  0
 60134  1  0  0  0
 61135  1  0  0  0
 61136  1  0  0  0
 61137  1  0  0  0
 62138  1  0  0  0
 62139  1  0  0  0
 62140  1  0  0  0
 63 65  1  0  0  0
 63141  1  0  0  0
 63142  1  0  0  0
 63143  1  0  0  0
 64144  1  0  0  0
 65145  1  0  0  0
 68 80  1  0  0  0
 71 72  2  0  0  0
 71 85  1  0  0  0
 71146  1  0  0  0
 72 81  1  0  0  0
 72 84  1  0  0  0
 73 82  1  0  0  0
 73 84  1  0  0  0
 73 85  2  0  0  0
 74 78  1  0  0  0
 74147  1  0  0  0
 74148  1  0  0  0
 74149  1  0  0  0
 75150  1  0  0  0
 75151  1  0  0  0
 75152  1  0  0  0
 75 81  1  0  0  0
 76153  1  0  0  0
 76154  1  0  0  0
 76155  1  0  0  0
 76 82  1  0  0  0
 77156  1  0  0  0
 77157  1  0  0  0
 77158  1  0  0  0
 77 83  1  0  0  0
 78 84  1  0  0  0
 78159  1  0  0  0
 78160  1  0  0  0
 79 81  1  0  0  0
 79 86  1  0  0  0
 79161  1  0  0  0
 79162  1  0  0  0
 80 83  1  0  0  0
 80163  1  0  0  0
 80164  1  0  0  0
 81165  1  0  0  0
 82 83  1  0  0  0
 82166  1  0  0  0
 83167  1  0  0  0
 85168  1  0  0  0
 86169  1  0  0  0
M  CHG  1  85   1
M  ISO  4   1 100  68 101  80 101  86 100
M  END
> <chiral flag>
0

> <version>
0

> <s_m_source_file>
/data/baiqing/PycharmProjects/Reinvent-master-3.2/result/LINK_invent/BTK/process_docking_weight1_custom_sum_contain_oxygen_bond_distance_aromatic_linkinvent_7_9_3/rearranged_h_0072.sdf

> <i_m_source_file_index>
4

> <r_mmod_Potential_Energy-OPLS-2005>
16.950870513916

> <r_mmod_Stretch_Energy-OPLS-2005>
79.1671447753906

> <r_mmod_Bend_Energy-OPLS-2005>
179.478439331055

> <r_mmod_Torsional_Energy-OPLS-2005>
256.670776367188

> <r_mmod_Improper_Torsional_Energy-OPLS-2005>
4.20939111709595

> <r_mmod_Van_der_Waal_Energy-OPLS-2005>
124.079360961914

> <r_mmod_Electrostatic_Energy-OPLS-2005>
-238.042434692383

> <r_mmod_Solvation_Energy-OPLS-2005>
-418.391235351562

> <b_mmod_Minimization_Converged-OPLS-2005>
0

> <r_mmod_RMS_Derivative-OPLS-2005>
9.55648231506348

$$$$
5
                    3D
 Structure written by MMmdl.
163171  0  0  1  0            999 V2000
  -30.7191  -14.4620   20.5540 C   0  0  0  0  0  0
  -30.4131  -12.2924   19.4322 C   0  0  0  0  0  0
  -29.4956  -12.4961   18.2091 C   0  0  0  0  0  0
  -28.0165  -12.3647   18.6198 C   0  0  0  0  0  0
  -27.6606  -13.2108   19.8727 C   0  0  2  0  0  0
  -28.7001  -13.0107   21.0002 C   0  0  0  0  0  0
  -25.2584  -13.8168   20.5670 C   0  0  0  0  0  0
  -24.1847  -13.0441   20.9189 C   0  0  0  0  0  0
  -24.6404  -11.6912   20.8734 C   0  0  0  0  0  0
  -23.9067  -10.4296   21.0397 C   0  0  0  0  0  0
  -24.3616   -9.4215   21.9180 C   0  0  0  0  0  0
  -23.6296   -8.2250   22.0748 C   0  0  0  0  0  0
  -22.4280   -8.0284   21.3538 C   0  0  0  0  0  0
  -21.9915   -9.0259   20.4640 C   0  0  0  0  0  0
  -22.7238  -10.2142   20.3051 C   0  0  0  0  0  0
  -21.6862   -6.0742   22.5287 C   0  0  0  0  0  0
  -21.4015   -6.5639   23.8220 C   0  0  0  0  0  0
  -21.3656   -5.6790   24.9176 C   0  0  0  0  0  0
  -21.6041   -4.3052   24.7231 C   0  0  0  0  0  0
  -21.8819   -3.8149   23.4349 C   0  0  0  0  0  0
  -21.9193   -4.6966   22.3404 C   0  0  0  0  0  0
  -22.7871  -13.5239   21.1852 C   0  0  0  0  0  0
  -22.1668   -4.2153   21.0984 F   0  0  0  0  0  0
  -21.5623   -3.4532   25.7739 F   0  0  0  0  0  0
  -30.0332  -13.2917   20.4450 N   0  0  0  0  0  0
  -26.3020  -12.9353   20.3350 N   0  0  0  0  0  0
  -25.9329  -11.6506   20.5760 N   0  0  0  0  0  0
  -22.0497  -12.8236   22.0396 N   0  0  0  0  0  0
  -25.4297  -15.1879   20.4071 N   0  0  0  0  0  0
  -31.8519  -14.6149   20.0924 O   0  0  0  0  0  0
  -21.6641   -6.8884   21.4247 O   0  0  0  0  0  0
  -22.3566  -14.5548   20.6698 O   0  0  0  0  0  0
  -24.6143  -31.8660   23.2097 C   0  0  0  0  0  0
  -25.9047  -32.4812   23.8383 C   0  0  1  0  0  0
  -27.2276  -27.4320   20.0960 C   0  0  0  0  0  0
  -25.5914  -33.8607   24.2313 N   0  0  0  0  0  0
  -23.4022  -30.4931   21.5479 C   0  0  2  0  0  0
  -24.8494  -28.9659   20.1061 C   0  0  0  0  0  0
  -22.7412  -29.4657   22.4948 C   0  0  0  0  0  0
  -18.0271  -28.1380   22.8478 C   0  0  0  0  0  0
  -24.1501  -36.7304   23.2641 C   0  0  0  0  0  0
  -25.9317  -30.8354   21.3620 C   0  0  0  0  0  0
  -26.0106  -29.4719   20.7059 C   0  0  0  0  0  0
  -27.2054  -28.7130   20.6967 C   0  0  0  0  0  0
  -26.0533  -26.9537   19.4727 C   0  0  0  0  0  0
  -24.8673  -27.7073   19.4839 C   0  0  0  0  0  0
  -23.6095  -29.8291   20.1604 C   0  0  0  0  0  0
  -25.4114  -36.3098   24.0340 C   0  0  1  0  0  0
  -20.5865  -28.3663   23.1303 C   0  0  2  0  0  0
  -20.6763  -26.9396   22.5410 C   0  0  0  0  0  0
  -19.5752  -26.6379   21.5208 C   0  0  0  0  0  0
  -18.1921  -26.7929   22.1607 C   0  0  0  0  0  0
  -19.1523  -28.8836   23.2893 C   0  0  0  0  0  0
  -18.9460  -30.1445   23.8898 C   0  0  0  0  0  0
  -17.6461  -30.6581   24.0565 C   0  0  0  0  0  0
  -25.9034  -34.9463   23.5114 C   0  0  0  0  0  0
  -16.5349  -29.9081   23.6328 C   0  0  0  0  0  0
  -16.7264  -28.6505   23.0342 C   0  0  0  0  0  0
  -26.4475  -31.6597   25.0707 C   0  0  0  0  0  0
  -25.3743  -31.3718   26.1457 C   0  0  0  0  0  0
  -27.0310  -30.3039   24.6091 C   0  0  0  0  0  0
  -27.6048  -32.4312   25.7472 C   0  0  0  0  0  0
  -27.5576  -37.1808   24.8461 C   0  0  0  0  0  0
  -21.4132  -29.3037   22.3723 N   0  0  0  0  0  0
  -26.4293  -37.3785   23.9413 N   0  0  0  0  0  0
  -24.6674  -31.0794   22.0977 N   0  0  0  0  0  0
  -23.4200  -28.8183   23.2968 O   0  0  0  0  0  0
  -28.3651  -26.6490   20.1194 O   0  0  0  0  0  0
  -26.5594  -34.8912   22.4674 O   0  0  0  0  0  0
  -23.5341  -32.1374   23.7507 O   0  0  0  0  0  0
  -31.1394  -21.9182   20.3539 C   0  0  0  0  0  0
  -31.8975  -20.7528   20.1968 C   0  0  0  0  0  0
  -29.8314  -21.7656   20.8335 C   0  0  0  0  0  0
  -30.1325  -19.4668   20.9198 C   0  0  0  0  0  0
  -33.3271  -20.7860   19.7013 C   0  0  0  0  0  0
  -28.1569  -17.8637   20.9112 C   0  0  0  0  0  0
  -29.6970  -17.9828   22.9178 C   0  0  0  0  0  0
  -28.9095  -22.9524   21.1207 C   0  0  0  0  0  0
  -29.2252  -24.2969   20.4059 C   0  0  0  0  0  0
  -30.4824  -16.9119   20.7730 C   0  0  0  0  0  0
  -28.1757  -25.3720   20.7631 C   0  0  0  0  0  0
  -29.6159  -18.0681   21.3811 C   0  0  0  0  0  0
  -31.3935  -19.5455   20.4989 N   0  0  0  0  0  0
  -29.3489  -20.5347   21.1230 N   0  0  0  0  0  0
  -30.0304  -15.5217   21.0164 N   0  0  0  0  0  0
  -31.4616  -12.3649   19.1373 H   0  0  0  0  0  0
  -30.2899  -11.2866   19.8355 H   0  0  0  0  0  0
  -29.7340  -11.7646   17.4355 H   0  0  0  0  0  0
  -29.6708  -13.4780   17.7670 H   0  0  0  0  0  0
  -27.8260  -11.3102   18.8213 H   0  0  0  0  0  0
  -27.3664  -12.6335   17.7861 H   0  0  0  0  0  0
  -27.7019  -14.2562   19.5677 H   0  0  0  0  0  0
  -28.6675  -11.9859   21.3724 H   0  0  0  0  0  0
  -28.4688  -13.6423   21.8591 H   0  0  0  0  0  0
  -25.2765   -9.5693   22.4747 H   0  0  0  0  0  0
  -24.0008   -7.4640   22.7465 H   0  0  0  0  0  0
  -21.0850   -8.8772   19.8947 H   0  0  0  0  0  0
  -22.3696  -10.9674   19.6155 H   0  0  0  0  0  0
  -21.2009   -7.6152   23.9727 H   0  0  0  0  0  0
  -21.1475   -6.0517   25.9080 H   0  0  0  0  0  0
  -22.0598   -2.7614   23.2848 H   0  0  0  0  0  0
  -22.4114  -11.9905   22.4798 H   0  0  0  0  0  0
  -21.1098  -13.1244   22.2556 H   0  0  0  0  0  0
  -24.6593  -15.8383   20.5128 H   0  0  0  0  0  0
  -26.2739  -15.6251   20.0617 H   0  0  0  0  0  0
  -26.7109  -32.5515   23.1135 H   0  0  0  0  0  0
  -25.0112  -33.9778   25.0495 H   0  0  0  0  0  0
  -22.6902  -31.3090   21.4091 H   0  0  0  0  0  0
  -23.3753  -35.9646   23.3306 H   0  0  0  0  0  0
  -24.3592  -36.8905   22.2052 H   0  0  0  0  0  0
  -23.7250  -37.6510   23.6640 H   0  0  0  0  0  0
  -26.0485  -31.6074   20.6001 H   0  0  0  0  0  0
  -26.8176  -30.8802   21.9836 H   0  0  0  0  0  0
  -28.0975  -29.0951   21.1713 H   0  0  0  0  0  0
  -26.0474  -25.9922   18.9782 H   0  0  0  0  0  0
  -23.9773  -27.3166   19.0090 H   0  0  0  0  0  0
  -23.7091  -30.6024   19.3980 H   0  0  0  0  0  0
  -22.7349  -29.2441   19.8680 H   0  0  0  0  0  0
  -25.1295  -36.1956   25.0832 H   0  0  0  0  0  0
  -20.9958  -28.3212   24.1422 H   0  0  0  0  0  0
  -20.5681  -26.2251   23.3591 H   0  0  0  0  0  0
  -21.6637  -26.7436   22.1203 H   0  0  0  0  0  0
  -19.6924  -25.6296   21.1228 H   0  0  0  0  0  0
  -19.6716  -27.3201   20.6759 H   0  0  0  0  0  0
  -17.4204  -26.6674   21.4007 H   0  0  0  0  0  0
  -18.0313  -26.0075   22.9007 H   0  0  0  0  0  0
  -19.7945  -30.7258   24.2263 H   0  0  0  0  0  0
  -17.5022  -31.6272   24.5162 H   0  0  0  0  0  0
  -15.5353  -30.2994   23.7668 H   0  0  0  0  0  0
  -15.8654  -28.0845   22.7046 H   0  0  0  0  0  0
  -24.5941  -30.7032   25.7803 H   0  0  0  0  0  0
  -24.8925  -32.2890   26.4849 H   0  0  0  0  0  0
  -25.8107  -30.8935   27.0238 H   0  0  0  0  0  0
  -26.2863  -29.6800   24.1132 H   0  0  0  0  0  0
  -27.4065  -29.7268   25.4550 H   0  0  0  0  0  0
  -27.8697  -30.4345   23.9246 H   0  0  0  0  0  0
  -27.2667  -33.3611   26.2052 H   0  0  0  0  0  0
  -28.3866  -32.6866   25.0309 H   0  0  0  0  0  0
  -28.0699  -31.8428   26.5392 H   0  0  0  0  0  0
  -28.2597  -38.0100   24.7500 H   0  0  0  0  0  0
  -28.1069  -36.2631   24.6299 H   0  0  0  0  0  0
  -27.2293  -37.1455   25.8863 H   0  0  0  0  0  0
  -20.9267  -29.8762   21.6966 H   0  0  0  0  0  0
  -26.0178  -38.2866   24.1409 H   0  0  0  0  0  0
  -31.5608  -22.8884   20.1300 H   0  0  0  0  0  0
  -33.5590  -21.7407   19.2286 H   0  0  0  0  0  0
  -33.4971  -19.9959   18.9685 H   0  0  0  0  0  0
  -34.0204  -20.6384   20.5297 H   0  0  0  0  0  0
  -27.5016  -18.6397   21.3076 H   0  0  0  0  0  0
  -27.7468  -16.9107   21.2422 H   0  0  0  0  0  0
  -28.0888  -17.9015   19.8241 H   0  0  0  0  0  0
  -29.0881  -18.7572   23.3851 H   0  0  0  0  0  0
  -30.7227  -18.1277   23.2590 H   0  0  0  0  0  0
  -29.3538  -17.0187   23.2917 H   0  0  0  0  0  0
  -28.9174  -23.1137   22.1990 H   0  0  0  0  0  0
  -27.8915  -22.6515   20.8674 H   0  0  0  0  0  0
  -29.2370  -24.1430   19.3263 H   0  0  0  0  0  0
  -30.2147  -24.6527   20.6905 H   0  0  0  0  0  0
  -31.5060  -17.0018   21.1417 H   0  0  0  0  0  0
  -30.5416  -17.0561   19.6922 H   0  0  0  0  0  0
  -28.1920  -25.5375   21.8418 H   0  0  0  0  0  0
  -27.1953  -24.9464   20.5481 H   0  0  0  0  0  0
  -29.1014  -15.3668   21.3749 H   0  0  0  0  0  0
  1 25  1  0  0  0
  1 30  2  0  0  0
  1 85  1  0  0  0
  2  3  1  0  0  0
  2 25  1  0  0  0
  2 86  1  0  0  0
  2 87  1  0  0  0
  3  4  1  0  0  0
  3 88  1  0  0  0
  3 89  1  0  0  0
  4  5  1  0  0  0
  4 90  1  0  0  0
  4 91  1  0  0  0
  5  6  1  0  0  0
  5 26  1  0  0  0
  5 92  1  0  0  0
  6 25  1  0  0  0
  6 93  1  0  0  0
  6 94  1  0  0  0
  7  8  2  0  0  0
  7 26  1  0  0  0
  7 29  1  0  0  0
  8  9  1  0  0  0
  8 22  1  0  0  0
  9 10  1  0  0  0
  9 27  2  0  0  0
 10 11  2  0  0  0
 10 15  1  0  0  0
 11 12  1  0  0  0
 11 95  1  0  0  0
 12 13  2  0  0  0
 12 96  1  0  0  0
 13 14  1  0  0  0
 13 31  1  0  0  0
 14 15  2  0  0  0
 14 97  1  0  0  0
 15 98  1  0  0  0
 16 17  2  0  0  0
 16 21  1  0  0  0
 16 31  1  0  0  0
 17 18  1  0  0  0
 17 99  1  0  0  0
 18 19  2  0  0  0
 18100  1  0  0  0
 19 20  1  0  0  0
 19 24  1  0  0  0
 20 21  2  0  0  0
 20101  1  0  0  0
 21 23  1  0  0  0
 22 28  1  0  0  0
 22 32  2  0  0  0
 26 27  1  0  0  0
 28102  1  0  0  0
 28103  1  0  0  0
 29104  1  0  0  0
 29105  1  0  0  0
 33 34  1  0  0  0
 33 66  1  0  0  0
 33 70  2  0  0  0
 34 36  1  0  0  0
 34 59  1  0  0  0
 34106  1  0  0  0
 35 44  2  0  0  0
 35 45  1  0  0  0
 35 68  1  0  0  0
 36 56  1  0  0  0
 36107  1  0  0  0
 37 39  1  0  0  0
 37 47  1  0  0  0
 37 66  1  0  0  0
 37108  1  0  0  0
 38 43  2  0  0  0
 38 46  1  0  0  0
 38 47  1  0  0  0
 39 64  1  0  0  0
 39 67  2  0  0  0
 40 52  1  0  0  0
 40 53  2  0  0  0
 40 58  1  0  0  0
 41109  1  0  0  0
 41110  1  0  0  0
 41111  1  0  0  0
 41 48  1  0  0  0
 42 43  1  0  0  0
 42 66  1  0  0  0
 42112  1  0  0  0
 42113  1  0  0  0
 43 44  1  0  0  0
 44114  1  0  0  0
 45 46  2  0  0  0
 45115  1  0  0  0
 46116  1  0  0  0
 47117  1  0  0  0
 47118  1  0  0  0
 48 56  1  0  0  0
 48 65  1  0  0  0
 48119  1  0  0  0
 49 50  1  0  0  0
 49 53  1  0  0  0
 49 64  1  0  0  0
 49120  1  0  0  0
 50 51  1  0  0  0
 50121  1  0  0  0
 50122  1  0  0  0
 51 52  1  0  0  0
 51123  1  0  0  0
 51124  1  0  0  0
 52125  1  0  0  0
 52126  1  0  0  0
 53 54  1  0  0  0
 54 55  2  0  0  0
 54127  1  0  0  0
 55 57  1  0  0  0
 55128  1  0  0  0
 56 69  2  0  0  0
 57 58  2  0  0  0
 57129  1  0  0  0
 58130  1  0  0  0
 59 60  1  0  0  0
 59 61  1  0  0  0
 59 62  1  0  0  0
 60131  1  0  0  0
 60132  1  0  0  0
 60133  1  0  0  0
 61134  1  0  0  0
 61135  1  0  0  0
 61136  1  0  0  0
 62137  1  0  0  0
 62138  1  0  0  0
 62139  1  0  0  0
 63 65  1  0  0  0
 63140  1  0  0  0
 63141  1  0  0  0
 63142  1  0  0  0
 64143  1  0  0  0
 65144  1  0  0  0
 68 81  1  0  0  0
 71 72  2  0  0  0
 71 73  1  0  0  0
 71145  1  0  0  0
 72 75  1  0  0  0
 72 83  1  0  0  0
 73 78  1  0  0  0
 73 84  2  0  0  0
 74 82  1  0  0  0
 74 83  2  0  0  0
 74 84  1  0  0  0
 75146  1  0  0  0
 75147  1  0  0  0
 75148  1  0  0  0
 76149  1  0  0  0
 76150  1  0  0  0
 76151  1  0  0  0
 76 82  1  0  0  0
 77 82  1  0  0  0
 77152  1  0  0  0
 77153  1  0  0  0
 77154  1  0  0  0
 78 79  1  0  0  0
 78155  1  0  0  0
 78156  1  0  0  0
 79 81  1  0  0  0
 79157  1  0  0  0
 79158  1  0  0  0
 80 82  1  0  0  0
 80 85  1  0  0  0
 80159  1  0  0  0
 80160  1  0  0  0
 81161  1  0  0  0
 81162  1  0  0  0
 85163  1  0  0  0
M  ISO  4   1 100  68 101  81 101  85 100
M  END
> <chiral flag>
0

> <version>
0

> <s_m_source_file>
/data/baiqing/PycharmProjects/Reinvent-master-3.2/result/LINK_invent/BTK/process_docking_weight1_custom_sum_contain_oxygen_bond_distance_aromatic_linkinvent_7_9_3/rearranged_h_0072.sdf

> <i_m_source_file_index>
5

> <r_mmod_Potential_Energy-OPLS-2005>
-520.560546875

> <r_mmod_Stretch_Energy-OPLS-2005>
41.1072731018066

> <r_mmod_Bend_Energy-OPLS-2005>
103.614906311035

> <r_mmod_Torsional_Energy-OPLS-2005>
216.538879394531

> <r_mmod_Improper_Torsional_Energy-OPLS-2005>
5.54414796829224

> <r_mmod_Van_der_Waal_Energy-OPLS-2005>
167.244857788086

> <r_mmod_Electrostatic_Energy-OPLS-2005>
-847.040466308594

> <r_mmod_Solvation_Energy-OPLS-2005>
-222.017486572266

> <b_mmod_Minimization_Converged-OPLS-2005>
0

> <r_mmod_RMS_Derivative-OPLS-2005>
2.40639114379883

$$$$
6
                    3D
 Structure written by MMmdl.
187195  0  0  1  0            999 V2000
  -30.6775  -14.5510   20.5845 C   0  0  0  0  0  0
  -30.4401  -12.3563   19.4562 C   0  0  0  0  0  0
  -29.5310  -12.4907   18.2175 C   0  0  0  0  0  0
  -28.0403  -12.3484   18.5962 C   0  0  0  0  0  0
  -27.6548  -13.2057   19.8359 C   0  0  2  0  0  0
  -28.6760  -12.9907   20.9585 C   0  0  0  0  0  0
  -25.2583  -13.8186   20.5545 C   0  0  0  0  0  0
  -24.1871  -13.0431   20.9064 C   0  0  0  0  0  0
  -24.6409  -11.6886   20.8648 C   0  0  0  0  0  0
  -23.9051  -10.4279   21.0395 C   0  0  0  0  0  0
  -24.3625   -9.4214   21.9201 C   0  0  0  0  0  0
  -23.6264   -8.2253   22.0803 C   0  0  0  0  0  0
  -22.4252   -8.0276   21.3577 C   0  0  0  0  0  0
  -21.9875   -9.0244   20.4712 C   0  0  0  0  0  0
  -22.7223  -10.2103   20.3073 C   0  0  0  0  0  0
  -21.6836   -6.0724   22.5300 C   0  0  0  0  0  0
  -21.4009   -6.5628   23.8226 C   0  0  0  0  0  0
  -21.3657   -5.6769   24.9173 C   0  0  0  0  0  0
  -21.6023   -4.3014   24.7220 C   0  0  0  0  0  0
  -21.8829   -3.8119   23.4317 C   0  0  0  0  0  0
  -21.9195   -4.6967   22.3385 C   0  0  0  0  0  0
  -22.7920  -13.5276   21.1663 C   0  0  0  0  0  0
  -22.1677   -4.2176   21.0958 F   0  0  0  0  0  0
  -21.5628   -3.4514   25.7713 F   0  0  0  0  0  0
  -29.9929  -13.3700   20.4266 N   0  0  0  0  0  0
  -26.2965  -12.9330   20.3005 N   0  0  0  0  0  0
  -25.9315  -11.6490   20.5542 N   0  0  0  0  0  0
  -22.0523  -12.8387   22.0271 N   0  0  0  0  0  0
  -25.4212  -15.1969   20.4144 N   0  0  0  0  0  0
  -31.8710  -14.5975   20.2810 O   0  0  0  0  0  0
  -21.6565   -6.8890   21.4269 O   0  0  0  0  0  0
  -22.3606  -14.5556   20.6451 O   0  0  0  0  0  0
  -24.6196  -31.8680   23.2111 C   0  0  0  0  0  0
  -25.9085  -32.4811   23.8412 C   0  0  1  0  0  0
  -27.2236  -27.4115   20.1103 C   0  0  0  0  0  0
  -25.5941  -33.8601   24.2340 N   0  0  0  0  0  0
  -23.4076  -30.4961   21.5510 C   0  0  2  0  0  0
  -24.8527  -28.9621   20.1135 C   0  0  0  0  0  0
  -22.7447  -29.4673   22.4976 C   0  0  0  0  0  0
  -18.0293  -28.1368   22.8494 C   0  0  0  0  0  0
  -24.1494  -36.7314   23.2638 C   0  0  0  0  0  0
  -25.9389  -30.8269   21.3681 C   0  0  0  0  0  0
  -26.0150  -29.4588   20.7201 C   0  0  0  0  0  0
  -27.2072  -28.6934   20.7206 C   0  0  0  0  0  0
  -26.0438  -26.9416   19.4995 C   0  0  0  0  0  0
  -24.8622  -27.7016   19.4998 C   0  0  0  0  0  0
  -23.6191  -29.8352   20.1633 C   0  0  0  0  0  0
  -25.4110  -36.3097   24.0335 C   0  0  1  0  0  0
  -20.5890  -28.3683   23.1298 C   0  0  2  0  0  0
  -20.6766  -26.9410   22.5413 C   0  0  0  0  0  0
  -19.5747  -26.6393   21.5202 C   0  0  0  0  0  0
  -18.1922  -26.7924   22.1607 C   0  0  0  0  0  0
  -19.1536  -28.8838   23.2889 C   0  0  0  0  0  0
  -18.9458  -30.1439   23.8922 C   0  0  0  0  0  0
  -17.6450  -30.6576   24.0571 C   0  0  0  0  0  0
  -25.9044  -34.9477   23.5128 C   0  0  0  0  0  0
  -16.5349  -29.9083   23.6311 C   0  0  0  0  0  0
  -16.7271  -28.6487   23.0353 C   0  0  0  0  0  0
  -26.4507  -31.6571   25.0729 C   0  0  0  0  0  0
  -25.3762  -31.3724   26.1483 C   0  0  0  0  0  0
  -27.0317  -30.2993   24.6100 C   0  0  0  0  0  0
  -27.6099  -32.4295   25.7475 C   0  0  0  0  0  0
  -27.5588  -37.1801   24.8457 C   0  0  0  0  0  0
  -21.4167  -29.3051   22.3704 N   0  0  0  0  0  0
  -26.4285  -37.3792   23.9421 N   0  0  0  0  0  0
  -24.6738  -31.0804   22.1003 N   0  0  0  0  0  0
  -23.4194  -28.8203   23.3007 O   0  0  0  0  0  0
  -28.2878  -26.5360   20.0278 O   0  0  0  0  0  0
  -26.5595  -34.8925   22.4673 O   0  0  0  0  0  0
  -23.5382  -32.1433   23.7499 O   0  0  0  0  0  0
  -28.1705  -20.5779   20.1114 C   0  0  0  0  0  0
  -29.2729  -20.4704   20.9632 C   0  0  0  0  0  0
  -27.8300  -19.4582   19.3394 C   0  0  0  0  0  0
  -29.5712  -18.2747   20.3021 C   0  0  0  0  0  0
  -31.8899  -18.2000   18.3649 C   0  0  0  0  0  0
  -25.4705  -21.6691   17.8611 C   0  0  0  0  0  0
  -27.7396  -21.3498   16.8840 C   0  0  0  0  0  0
  -25.7940  -20.0315   16.0290 C   0  0  0  0  0  0
  -31.3719  -25.5303   21.9249 C   0  0  0  0  0  0
  -29.0830  -25.0661   22.7852 C   0  0  0  0  0  0
  -29.1318  -15.8812   21.9495 C   0  0  0  0  0  0
  -29.7431  -21.7035   21.7480 C   0  0  0  0  0  0
  -26.6540  -19.4409   18.3486 C   0  0  0  0  0  0
  -31.0491  -16.9693   18.7482 C   0  0  0  0  0  0
  -30.5144  -22.7258   20.8678 C   0  0  0  0  0  0
  -29.8003  -24.0792   20.5197 C   0  0  0  0  0  0
  -29.4552  -26.6553   20.8321 C   0  0  0  0  0  0
  -30.4948  -17.0254   20.2135 C   0  0  2  0  0  0
  -26.4484  -20.6100   17.3055 C   0  0  0  0  0  0
  -29.9073  -25.3049   21.5007 C   0  0  0  0  0  0
  -29.9846  -19.3209   21.0365 N   0  0  0  0  0  0
  -28.5197  -18.3036   19.4839 N   0  0  0  0  0  0
  -29.9663  -15.7147   20.7455 N   0  0  0  0  0  0
  -31.4871  -12.4752   19.1728 H   0  0  0  0  0  0
  -30.3641  -11.3574   19.8872 H   0  0  0  0  0  0
  -29.8013  -11.7344   17.4798 H   0  0  0  0  0  0
  -29.7043  -13.4533   17.7405 H   0  0  0  0  0  0
  -27.8557  -11.2905   18.7958 H   0  0  0  0  0  0
  -27.4187  -12.6063   17.7415 H   0  0  0  0  0  0
  -27.6857  -14.2561   19.5316 H   0  0  0  0  0  0
  -28.6929  -11.9386   21.2534 H   0  0  0  0  0  0
  -28.3632  -13.5206   21.8509 H   0  0  0  0  0  0
  -25.2858   -9.5654   22.4660 H   0  0  0  0  0  0
  -24.0009   -7.4687   22.7566 H   0  0  0  0  0  0
  -21.0757   -8.8721   19.9097 H   0  0  0  0  0  0
  -22.3713  -10.9566   19.6097 H   0  0  0  0  0  0
  -21.1986   -7.6141   23.9742 H   0  0  0  0  0  0
  -21.1495   -6.0471   25.9088 H   0  0  0  0  0  0
  -22.0620   -2.7593   23.2747 H   0  0  0  0  0  0
  -22.4020  -12.0098   22.4780 H   0  0  0  0  0  0
  -21.1212  -13.1636   22.2401 H   0  0  0  0  0  0
  -24.6298  -15.8248   20.5270 H   0  0  0  0  0  0
  -26.2477  -15.6689   20.0737 H   0  0  0  0  0  0
  -26.7164  -32.5545   23.1184 H   0  0  0  0  0  0
  -25.0092  -33.9764   25.0487 H   0  0  0  0  0  0
  -22.6963  -31.3134   21.4145 H   0  0  0  0  0  0
  -23.3756  -35.9644   23.3263 H   0  0  0  0  0  0
  -24.3603  -36.8959   22.2059 H   0  0  0  0  0  0
  -23.7232  -37.6505   23.6661 H   0  0  0  0  0  0
  -26.0540  -31.5906   20.6008 H   0  0  0  0  0  0
  -26.8267  -30.8831   21.9825 H   0  0  0  0  0  0
  -28.0920  -29.0960   21.1892 H   0  0  0  0  0  0
  -26.0371  -25.9667   19.0308 H   0  0  0  0  0  0
  -23.9680  -27.3138   19.0283 H   0  0  0  0  0  0
  -23.7337  -30.6141   19.4078 H   0  0  0  0  0  0
  -22.7408  -29.2611   19.8616 H   0  0  0  0  0  0
  -25.1270  -36.1961   25.0828 H   0  0  0  0  0  0
  -20.9976  -28.3234   24.1421 H   0  0  0  0  0  0
  -20.5649  -26.2283   23.3599 H   0  0  0  0  0  0
  -21.6636  -26.7431   22.1219 H   0  0  0  0  0  0
  -19.6903  -25.6312   21.1211 H   0  0  0  0  0  0
  -19.6679  -27.3219   20.6741 H   0  0  0  0  0  0
  -17.4201  -26.6706   21.4002 H   0  0  0  0  0  0
  -18.0305  -26.0054   22.8988 H   0  0  0  0  0  0
  -19.7935  -30.7244   24.2302 H   0  0  0  0  0  0
  -17.5013  -31.6262   24.5176 H   0  0  0  0  0  0
  -15.5340  -30.2989   23.7629 H   0  0  0  0  0  0
  -15.8677  -28.0813   22.7055 H   0  0  0  0  0  0
  -24.5941  -30.7045   25.7841 H   0  0  0  0  0  0
  -24.8956  -32.2911   26.4869 H   0  0  0  0  0  0
  -25.8125  -30.8949   27.0262 H   0  0  0  0  0  0
  -26.2838  -29.6755   24.1175 H   0  0  0  0  0  0
  -27.4100  -29.7229   25.4554 H   0  0  0  0  0  0
  -27.8688  -30.4292   23.9228 H   0  0  0  0  0  0
  -27.2733  -33.3632   26.1991 H   0  0  0  0  0  0
  -28.3925  -32.6775   25.0292 H   0  0  0  0  0  0
  -28.0719  -31.8434   26.5425 H   0  0  0  0  0  0
  -28.2587  -38.0114   24.7518 H   0  0  0  0  0  0
  -28.1091  -36.2647   24.6237 H   0  0  0  0  0  0
  -27.2323  -37.1416   25.8863 H   0  0  0  0  0  0
  -20.9321  -29.8795   21.6967 H   0  0  0  0  0  0
  -26.0172  -38.2867   24.1418 H   0  0  0  0  0  0
  -27.6376  -21.5106   20.0355 H   0  0  0  0  0  0
  -31.2658  -19.0796   18.2070 H   0  0  0  0  0  0
  -32.4404  -18.0118   17.4414 H   0  0  0  0  0  0
  -32.6190  -18.4387   19.1384 H   0  0  0  0  0  0
  -25.3318  -22.4873   17.1525 H   0  0  0  0  0  0
  -25.8338  -22.1094   18.7863 H   0  0  0  0  0  0
  -24.4836  -21.2449   18.0624 H   0  0  0  0  0  0
  -27.5098  -22.1356   16.1583 H   0  0  0  0  0  0
  -28.4663  -20.6850   16.4163 H   0  0  0  0  0  0
  -28.2296  -21.8375   17.7236 H   0  0  0  0  0  0
  -25.5954  -20.8101   15.2927 H   0  0  0  0  0  0
  -24.8387  -19.5520   16.2530 H   0  0  0  0  0  0
  -26.4215  -19.2815   15.5416 H   0  0  0  0  0  0
  -31.7248  -24.7561   22.6069 H   0  0  0  0  0  0
  -31.4787  -26.4816   22.4476 H   0  0  0  0  0  0
  -32.0396  -25.5529   21.0614 H   0  0  0  0  0  0
  -29.5055  -24.2582   23.3847 H   0  0  0  0  0  0
  -28.0418  -24.8203   22.5786 H   0  0  0  0  0  0
  -29.0840  -25.9514   23.4236 H   0  0  0  0  0  0
  -29.3614  -15.1566   22.7331 H   0  0  0  0  0  0
  -28.0782  -15.7945   21.6881 H   0  0  0  0  0  0
  -29.2684  -16.8452   22.4418 H   0  0  0  0  0  0
  -30.3655  -21.3748   22.5855 H   0  0  0  0  0  0
  -28.8735  -22.1811   22.2030 H   0  0  0  0  0  0
  -25.7364  -19.2720   18.9133 H   0  0  0  0  0  0
  -26.7956  -18.5237   17.7727 H   0  0  0  0  0  0
  -31.6862  -16.1155   18.5479 H   0  0  0  0  0  0
  -30.2200  -16.8532   18.0470 H   0  0  0  0  0  0
  -30.7412  -22.2189   19.9268 H   0  0  0  0  0  0
  -31.4993  -22.9153   21.2951 H   0  0  0  0  0  0
  -28.7539  -23.8719   20.2978 H   0  0  0  0  0  0
  -30.2124  -24.4037   19.5635 H   0  0  0  0  0  0
  -30.2317  -27.0002   20.1477 H   0  0  0  0  0  0
  -29.3613  -27.4245   21.5924 H   0  0  0  0  0  0
  -31.3495  -17.2268   20.8671 H   0  0  0  0  0  0
  1 25  1  0  0  0
  1 30  2  0  0  0
  1 93  1  0  0  0
  2  3  1  0  0  0
  2 25  1  0  0  0
  2 94  1  0  0  0
  2 95  1  0  0  0
  3  4  1  0  0  0
  3 96  1  0  0  0
  3 97  1  0  0  0
  4  5  1  0  0  0
  4 98  1  0  0  0
  4 99  1  0  0  0
  5  6  1  0  0  0
  5 26  1  0  0  0
  5100  1  0  0  0
  6 25  1  0  0  0
  6101  1  0  0  0
  6102  1  0  0  0
  7  8  2  0  0  0
  7 26  1  0  0  0
  7 29  1  0  0  0
  8  9  1  0  0  0
  8 22  1  0  0  0
  9 10  1  0  0  0
  9 27  2  0  0  0
 10 11  2  0  0  0
 10 15  1  0  0  0
 11 12  1  0  0  0
 11103  1  0  0  0
 12 13  2  0  0  0
 12104  1  0  0  0
 13 14  1  0  0  0
 13 31  1  0  0  0
 14 15  2  0  0  0
 14105  1  0  0  0
 15106  1  0  0  0
 16 17  2  0  0  0
 16 21  1  0  0  0
 16 31  1  0  0  0
 17 18  1  0  0  0
 17107  1  0  0  0
 18 19  2  0  0  0
 18108  1  0  0  0
 19 20  1  0  0  0
 19 24  1  0  0  0
 20 21  2  0  0  0
 20109  1  0  0  0
 21 23  1  0  0  0
 22 28  1  0  0  0
 22 32  2  0  0  0
 26 27  1  0  0  0
 28110  1  0  0  0
 28111  1  0  0  0
 29112  1  0  0  0
 29113  1  0  0  0
 33 34  1  0  0  0
 33 66  1  0  0  0
 33 70  2  0  0  0
 34 36  1  0  0  0
 34 59  1  0  0  0
 34114  1  0  0  0
 35 44  2  0  0  0
 35 45  1  0  0  0
 35 68  1  0  0  0
 36 56  1  0  0  0
 36115  1  0  0  0
 37 39  1  0  0  0
 37 47  1  0  0  0
 37 66  1  0  0  0
 37116  1  0  0  0
 38 43  2  0  0  0
 38 46  1  0  0  0
 38 47  1  0  0  0
 39 64  1  0  0  0
 39 67  2  0  0  0
 40 52  1  0  0  0
 40 53  2  0  0  0
 40 58  1  0  0  0
 41117  1  0  0  0
 41118  1  0  0  0
 41119  1  0  0  0
 41 48  1  0  0  0
 42 43  1  0  0  0
 42 66  1  0  0  0
 42120  1  0  0  0
 42121  1  0  0  0
 43 44  1  0  0  0
 44122  1  0  0  0
 45 46  2  0  0  0
 45123  1  0  0  0
 46124  1  0  0  0
 47125  1  0  0  0
 47126  1  0  0  0
 48 56  1  0  0  0
 48 65  1  0  0  0
 48127  1  0  0  0
 49 50  1  0  0  0
 49 53  1  0  0  0
 49 64  1  0  0  0
 49128  1  0  0  0
 50 51  1  0  0  0
 50129  1  0  0  0
 50130  1  0  0  0
 51 52  1  0  0  0
 51131  1  0  0  0
 51132  1  0  0  0
 52133  1  0  0  0
 52134  1  0  0  0
 53 54  1  0  0  0
 54 55  2  0  0  0
 54135  1  0  0  0
 55 57  1  0  0  0
 55136  1  0  0  0
 56 69  2  0  0  0
 57 58  2  0  0  0
 57137  1  0  0  0
 58138  1  0  0  0
 59 60  1  0  0  0
 59 61  1  0  0  0
 59 62  1  0  0  0
 60139  1  0  0  0
 60140  1  0  0  0
 60141  1  0  0  0
 61142  1  0  0  0
 61143  1  0  0  0
 61144  1  0  0  0
 62145  1  0  0  0
 62146  1  0  0  0
 62147  1  0  0  0
 63 65  1  0  0  0
 63148  1  0  0  0
 63149  1  0  0  0
 63150  1  0  0  0
 64151  1  0  0  0
 65152  1  0  0  0
 68 87  1  0  0  0
 71 72  2  0  0  0
 71 73  1  0  0  0
 71153  1  0  0  0
 72 82  1  0  0  0
 72 91  1  0  0  0
 73 83  1  0  0  0
 73 92  2  0  0  0
 74 88  1  0  0  0
 74 91  2  0  0  0
 74 92  1  0  0  0
 75 84  1  0  0  0
 75154  1  0  0  0
 75155  1  0  0  0
 75156  1  0  0  0
 76157  1  0  0  0
 76158  1  0  0  0
 76159  1  0  0  0
 76 89  1  0  0  0
 77 89  1  0  0  0
 77160  1  0  0  0
 77161  1  0  0  0
 77162  1  0  0  0
 78 89  1  0  0  0
 78163  1  0  0  0
 78164  1  0  0  0
 78165  1  0  0  0
 79166  1  0  0  0
 79167  1  0  0  0
 79168  1  0  0  0
 79 90  1  0  0  0
 80 90  1  0  0  0
 80169  1  0  0  0
 80170  1  0  0  0
 80171  1  0  0  0
 81 93  1  0  0  0
 81172  1  0  0  0
 81173  1  0  0  0
 81174  1  0  0  0
 82 85  1  0  0  0
 82175  1  0  0  0
 82176  1  0  0  0
 83 89  1  0  0  0
 83177  1  0  0  0
 83178  1  0  0  0
 84179  1  0  0  0
 84180  1  0  0  0
 84 88  1  0  0  0
 85 86  1  0  0  0
 85181  1  0  0  0
 85182  1  0  0  0
 86 90  1  0  0  0
 86183  1  0  0  0
 86184  1  0  0  0
 87 90  1  0  0  0
 87185  1  0  0  0
 87186  1  0  0  0
 88 93  1  0  0  0
 88187  1  0  0  0
M  ISO  4   1 100  68 101  87 101  93 100
M  END
> <chiral flag>
0

> <version>
0

> <s_m_source_file>
/data/baiqing/PycharmProjects/Reinvent-master-3.2/result/LINK_invent/BTK/process_docking_weight1_custom_sum_contain_oxygen_bond_distance_aromatic_linkinvent_7_9_3/rearranged_h_0072.sdf

> <i_m_source_file_index>
6

> <r_mmod_Potential_Energy-OPLS-2005>
-165.118225097656

> <r_mmod_Stretch_Energy-OPLS-2005>
61.7016830444336

> <r_mmod_Bend_Energy-OPLS-2005>
177.937805175781

> <r_mmod_Torsional_Energy-OPLS-2005>
270.340515136719

> <r_mmod_Improper_Torsional_Energy-OPLS-2005>
12.3939609527588

> <r_mmod_Van_der_Waal_Energy-OPLS-2005>
168.027755737305

> <r_mmod_Electrostatic_Energy-OPLS-2005>
-700.742553710938

> <r_mmod_Solvation_Energy-OPLS-2005>
-186.024963378906

> <b_mmod_Minimization_Converged-OPLS-2005>
0

> <r_mmod_RMS_Derivative-OPLS-2005>
8.27619361877441

$$$$
7
                    3D
 Structure written by MMmdl.
161169  0  0  1  0            999 V2000
  -30.6619  -14.5731   20.5544 C   0  0  0  0  0  0
  -30.4273  -12.3659   19.4299 C   0  0  0  0  0  0
  -29.4932  -12.5072   18.2090 C   0  0  0  0  0  0
  -28.0180  -12.3449   18.6294 C   0  0  0  0  0  0
  -27.6494  -13.2094   19.8634 C   0  0  2  0  0  0
  -28.6970  -13.0480   20.9871 C   0  0  0  0  0  0
  -25.2510  -13.8164   20.5673 C   0  0  0  0  0  0
  -24.1797  -13.0430   20.9191 C   0  0  0  0  0  0
  -24.6371  -11.6898   20.8760 C   0  0  0  0  0  0
  -23.9044  -10.4282   21.0416 C   0  0  0  0  0  0
  -24.3606   -9.4184   21.9184 C   0  0  0  0  0  0
  -23.6283   -8.2217   22.0753 C   0  0  0  0  0  0
  -22.4259   -8.0269   21.3538 C   0  0  0  0  0  0
  -21.9890   -9.0244   20.4637 C   0  0  0  0  0  0
  -22.7224  -10.2118   20.3054 C   0  0  0  0  0  0
  -21.6840   -6.0721   22.5271 C   0  0  0  0  0  0
  -21.4029   -6.5638   23.8203 C   0  0  0  0  0  0
  -21.3678   -5.6793   24.9170 C   0  0  0  0  0  0
  -21.6037   -4.3049   24.7221 C   0  0  0  0  0  0
  -21.8812   -3.8135   23.4343 C   0  0  0  0  0  0
  -21.9182   -4.6948   22.3397 C   0  0  0  0  0  0
  -22.7811  -13.5195   21.1888 C   0  0  0  0  0  0
  -22.1639   -4.2126   21.0976 F   0  0  0  0  0  0
  -21.5623   -3.4542   25.7741 F   0  0  0  0  0  0
  -30.0163  -13.3771   20.4188 N   0  0  0  0  0  0
  -26.2946  -12.9335   20.3326 N   0  0  0  0  0  0
  -25.9297  -11.6494   20.5791 N   0  0  0  0  0  0
  -22.0496  -12.8167   22.0463 N   0  0  0  0  0  0
  -25.4172  -15.1915   20.4054 N   0  0  0  0  0  0
  -31.8338  -14.7200   20.2022 O   0  0  0  0  0  0
  -21.6630   -6.8864   21.4238 O   0  0  0  0  0  0
  -22.3473  -14.5513   20.6766 O   0  0  0  0  0  0
  -24.6202  -31.8622   23.2057 C   0  0  0  0  0  0
  -25.9068  -32.4788   23.8357 C   0  0  1  0  0  0
  -27.2440  -27.3769   20.0914 C   0  0  0  0  0  0
  -25.5916  -33.8587   24.2316 N   0  0  0  0  0  0
  -23.4100  -30.4860   21.5482 C   0  0  2  0  0  0
  -24.8555  -28.9414   20.1172 C   0  0  0  0  0  0
  -22.7424  -29.4643   22.4977 C   0  0  0  0  0  0
  -18.0279  -28.1354   22.8504 C   0  0  0  0  0  0
  -24.1498  -36.7288   23.2633 C   0  0  0  0  0  0
  -25.9456  -30.8082   21.3671 C   0  0  0  0  0  0
  -26.0203  -29.4385   20.7129 C   0  0  0  0  0  0
  -27.2105  -28.6646   20.6967 C   0  0  0  0  0  0
  -26.0456  -26.9036   19.5048 C   0  0  0  0  0  0
  -24.8655  -27.6721   19.5169 C   0  0  0  0  0  0
  -23.6209  -29.8165   20.1642 C   0  0  0  0  0  0
  -25.4118  -36.3094   24.0346 C   0  0  1  0  0  0
  -20.5879  -28.3649   23.1308 C   0  0  2  0  0  0
  -20.6765  -26.9382   22.5414 C   0  0  0  0  0  0
  -19.5741  -26.6379   21.5210 C   0  0  0  0  0  0
  -18.1921  -26.7901   22.1631 C   0  0  0  0  0  0
  -19.1532  -28.8820   23.2903 C   0  0  0  0  0  0
  -18.9458  -30.1430   23.8904 C   0  0  0  0  0  0
  -17.6459  -30.6561   24.0562 C   0  0  0  0  0  0
  -25.9055  -34.9455   23.5139 C   0  0  0  0  0  0
  -16.5354  -29.9061   23.6320 C   0  0  0  0  0  0
  -16.7269  -28.6479   23.0344 C   0  0  0  0  0  0
  -26.4485  -31.6564   25.0692 C   0  0  0  0  0  0
  -25.3755  -31.3651   26.1443 C   0  0  0  0  0  0
  -27.0291  -30.2988   24.6087 C   0  0  0  0  0  0
  -27.6079  -32.4242   25.7454 C   0  0  0  0  0  0
  -27.5592  -37.1803   24.8475 C   0  0  0  0  0  0
  -21.4146  -29.3028   22.3710 N   0  0  0  0  0  0
  -26.4305  -37.3787   23.9416 N   0  0  0  0  0  0
  -24.6773  -31.0673   22.0988 N   0  0  0  0  0  0
  -23.4175  -28.8172   23.3029 O   0  0  0  0  0  0
  -28.4307  -26.6431   20.1144 O   0  0  0  0  0  0
  -26.5627  -34.8905   22.4710 O   0  0  0  0  0  0
  -23.5383  -32.1404   23.7426 O   0  0  0  0  0  0
  -31.9606  -18.8839   19.0137 C   0  0  0  0  0  0
  -30.6686  -17.9870   20.3848 C   0  0  0  0  0  0
  -33.0808  -19.1039   18.0569 C   0  0  0  0  0  0
  -30.8542  -17.0524   22.7418 C   0  0  0  0  0  0
  -28.9416  -22.6964   19.9755 C   0  0  0  0  0  0
  -29.4005  -21.6046   21.0071 C   0  0  0  0  0  0
  -28.7861  -24.1505   20.5584 C   0  0  0  0  0  0
  -29.1225  -20.0856   20.6800 C   0  0  0  0  0  0
  -28.5627  -25.3119   19.5284 C   0  0  0  0  0  0
  -30.0839  -17.0094   21.4104 C   0  0  2  0  0  0
  -31.7500  -17.7035   19.6578 N   0  0  0  0  0  0
  -31.0895  -19.8501   19.2777 N   0  0  0  0  0  0
  -30.2624  -19.2808   20.1892 N   0  0  0  0  0  0
  -29.8678  -15.5963   20.9646 N   0  0  0  0  0  0
  -31.4705  -12.4807   19.1300 H   0  0  0  0  0  0
  -30.3412  -11.3666   19.8581 H   0  0  0  0  0  0
  -29.7458  -11.7650   17.4513 H   0  0  0  0  0  0
  -29.6371  -13.4828   17.7412 H   0  0  0  0  0  0
  -27.8544  -11.2906   18.8588 H   0  0  0  0  0  0
  -27.3538  -12.5773   17.7957 H   0  0  0  0  0  0
  -27.6693  -14.2466   19.5305 H   0  0  0  0  0  0
  -28.6999  -12.0259   21.3683 H   0  0  0  0  0  0
  -28.4453  -13.6746   21.8436 H   0  0  0  0  0  0
  -25.2762   -9.5640   22.4743 H   0  0  0  0  0  0
  -23.9977   -7.4605   22.7479 H   0  0  0  0  0  0
  -21.0809   -8.8767   19.8960 H   0  0  0  0  0  0
  -22.3693  -10.9653   19.6152 H   0  0  0  0  0  0
  -21.2052   -7.6148   23.9701 H   0  0  0  0  0  0
  -21.1510   -6.0533   25.9073 H   0  0  0  0  0  0
  -22.0582   -2.7593   23.2857 H   0  0  0  0  0  0
  -22.4150  -11.9802   22.4776 H   0  0  0  0  0  0
  -21.1138  -13.1169   22.2786 H   0  0  0  0  0  0
  -24.6376  -15.8341   20.4988 H   0  0  0  0  0  0
  -26.2527  -15.6364   20.0492 H   0  0  0  0  0  0
  -26.7110  -32.5464   23.1076 H   0  0  0  0  0  0
  -25.0080  -33.9731   25.0477 H   0  0  0  0  0  0
  -22.7036  -31.3060   21.4054 H   0  0  0  0  0  0
  -23.3767  -35.9616   23.3304 H   0  0  0  0  0  0
  -24.3592  -36.8893   22.2044 H   0  0  0  0  0  0
  -23.7245  -37.6495   23.6635 H   0  0  0  0  0  0
  -26.0701  -31.5699   20.5959 H   0  0  0  0  0  0
  -26.8289  -30.8562   21.9911 H   0  0  0  0  0  0
  -28.1062  -29.0504   21.1625 H   0  0  0  0  0  0
  -25.9710  -25.9346   19.0392 H   0  0  0  0  0  0
  -23.9688  -27.2688   19.0665 H   0  0  0  0  0  0
  -23.7418  -30.5931   19.4087 H   0  0  0  0  0  0
  -22.7391  -29.2484   19.8597 H   0  0  0  0  0  0
  -25.1301  -36.1960   25.0845 H   0  0  0  0  0  0
  -20.9995  -28.3205   24.1417 H   0  0  0  0  0  0
  -20.5649  -26.2255   23.3602 H   0  0  0  0  0  0
  -21.6628  -26.7395   22.1210 H   0  0  0  0  0  0
  -19.6891  -25.6303   21.1195 H   0  0  0  0  0  0
  -19.6650  -27.3221   20.6770 H   0  0  0  0  0  0
  -17.4183  -26.6667   21.4033 H   0  0  0  0  0  0
  -18.0307  -26.0027   22.9018 H   0  0  0  0  0  0
  -19.7937  -30.7248   24.2257 H   0  0  0  0  0  0
  -17.5010  -31.6232   24.5169 H   0  0  0  0  0  0
  -15.5350  -30.2957   23.7627 H   0  0  0  0  0  0
  -15.8679  -28.0793   22.7047 H   0  0  0  0  0  0
  -24.5937  -30.6980   25.7786 H   0  0  0  0  0  0
  -24.8918  -32.2790   26.4897 H   0  0  0  0  0  0
  -25.8108  -30.8834   27.0209 H   0  0  0  0  0  0
  -26.2819  -29.6785   24.1117 H   0  0  0  0  0  0
  -27.4024  -29.7215   25.4564 H   0  0  0  0  0  0
  -27.8681  -30.4249   23.9243 H   0  0  0  0  0  0
  -27.2720  -33.3524   26.2085 H   0  0  0  0  0  0
  -28.3853  -32.6842   25.0262 H   0  0  0  0  0  0
  -28.0768  -31.8319   26.5325 H   0  0  0  0  0  0
  -28.2630  -38.0078   24.7534 H   0  0  0  0  0  0
  -28.1074  -36.2622   24.6306 H   0  0  0  0  0  0
  -27.2305  -37.1465   25.8873 H   0  0  0  0  0  0
  -20.9292  -29.8780   21.6966 H   0  0  0  0  0  0
  -26.0197  -38.2874   24.1398 H   0  0  0  0  0  0
  -33.8602  -18.3531   18.1881 H   0  0  0  0  0  0
  -33.5284  -20.0859   18.2097 H   0  0  0  0  0  0
  -32.7141  -19.0474   17.0318 H   0  0  0  0  0  0
  -30.3949  -16.4055   23.4890 H   0  0  0  0  0  0
  -31.8933  -16.7429   22.6192 H   0  0  0  0  0  0
  -30.8545  -18.0627   23.1511 H   0  0  0  0  0  0
  -27.9911  -22.3982   19.5323 H   0  0  0  0  0  0
  -29.6557  -22.7039   19.1502 H   0  0  0  0  0  0
  -28.8818  -21.8095   21.9446 H   0  0  0  0  0  0
  -30.4552  -21.7491   21.2430 H   0  0  0  0  0  0
  -29.6766  -24.3856   21.1432 H   0  0  0  0  0  0
  -27.9594  -24.1551   21.2688 H   0  0  0  0  0  0
  -28.3103  -19.9966   19.9571 H   0  0  0  0  0  0
  -28.7529  -19.6091   21.5866 H   0  0  0  0  0  0
  -27.7733  -25.0489   18.8319 H   0  0  0  0  0  0
  -29.4506  -25.3567   18.8959 H   0  0  0  0  0  0
  -29.0793  -17.3684   21.6284 H   0  0  0  0  0  0
  -28.9176  -15.2944   21.1076 H   0  0  0  0  0  0
  1 25  1  0  0  0
  1 30  2  0  0  0
  1 84  1  0  0  0
  2  3  1  0  0  0
  2 25  1  0  0  0
  2 85  1  0  0  0
  2 86  1  0  0  0
  3  4  1  0  0  0
  3 87  1  0  0  0
  3 88  1  0  0  0
  4  5  1  0  0  0
  4 89  1  0  0  0
  4 90  1  0  0  0
  5  6  1  0  0  0
  5 26  1  0  0  0
  5 91  1  0  0  0
  6 25  1  0  0  0
  6 92  1  0  0  0
  6 93  1  0  0  0
  7  8  2  0  0  0
  7 26  1  0  0  0
  7 29  1  0  0  0
  8  9  1  0  0  0
  8 22  1  0  0  0
  9 10  1  0  0  0
  9 27  2  0  0  0
 10 11  2  0  0  0
 10 15  1  0  0  0
 11 12  1  0  0  0
 11 94  1  0  0  0
 12 13  2  0  0  0
 12 95  1  0  0  0
 13 14  1  0  0  0
 13 31  1  0  0  0
 14 15  2  0  0  0
 14 96  1  0  0  0
 15 97  1  0  0  0
 16 17  2  0  0  0
 16 21  1  0  0  0
 16 31  1  0  0  0
 17 18  1  0  0  0
 17 98  1  0  0  0
 18 19  2  0  0  0
 18 99  1  0  0  0
 19 20  1  0  0  0
 19 24  1  0  0  0
 20 21  2  0  0  0
 20100  1  0  0  0
 21 23  1  0  0  0
 22 28  1  0  0  0
 22 32  2  0  0  0
 26 27  1  0  0  0
 28101  1  0  0  0
 28102  1  0  0  0
 29103  1  0  0  0
 29104  1  0  0  0
 33 34  1  0  0  0
 33 66  1  0  0  0
 33 70  2  0  0  0
 34 36  1  0  0  0
 34 59  1  0  0  0
 34105  1  0  0  0
 35 44  2  0  0  0
 35 45  1  0  0  0
 35 68  1  0  0  0
 36 56  1  0  0  0
 36106  1  0  0  0
 37 39  1  0  0  0
 37 47  1  0  0  0
 37 66  1  0  0  0
 37107  1  0  0  0
 38 43  2  0  0  0
 38 46  1  0  0  0
 38 47  1  0  0  0
 39 64  1  0  0  0
 39 67  2  0  0  0
 40 52  1  0  0  0
 40 53  2  0  0  0
 40 58  1  0  0  0
 41108  1  0  0  0
 41109  1  0  0  0
 41110  1  0  0  0
 41 48  1  0  0  0
 42 43  1  0  0  0
 42 66  1  0  0  0
 42111  1  0  0  0
 42112  1  0  0  0
 43 44  1  0  0  0
 44113  1  0  0  0
 45 46  2  0  0  0
 45114  1  0  0  0
 46115  1  0  0  0
 47116  1  0  0  0
 47117  1  0  0  0
 48 56  1  0  0  0
 48 65  1  0  0  0
 48118  1  0  0  0
 49 50  1  0  0  0
 49 53  1  0  0  0
 49 64  1  0  0  0
 49119  1  0  0  0
 50 51  1  0  0  0
 50120  1  0  0  0
 50121  1  0  0  0
 51 52  1  0  0  0
 51122  1  0  0  0
 51123  1  0  0  0
 52124  1  0  0  0
 52125  1  0  0  0
 53 54  1  0  0  0
 54 55  2  0  0  0
 54126  1  0  0  0
 55 57  1  0  0  0
 55127  1  0  0  0
 56 69  2  0  0  0
 57 58  2  0  0  0
 57128  1  0  0  0
 58129  1  0  0  0
 59 60  1  0  0  0
 59 61  1  0  0  0
 59 62  1  0  0  0
 60130  1  0  0  0
 60131  1  0  0  0
 60132  1  0  0  0
 61133  1  0  0  0
 61134  1  0  0  0
 61135  1  0  0  0
 62136  1  0  0  0
 62137  1  0  0  0
 62138  1  0  0  0
 63 65  1  0  0  0
 63139  1  0  0  0
 63140  1  0  0  0
 63141  1  0  0  0
 64142  1  0  0  0
 65143  1  0  0  0
 68 79  1  0  0  0
 71 73  1  0  0  0
 71 81  1  0  0  0
 71 82  2  0  0  0
 72 80  1  0  0  0
 72 81  2  0  0  0
 72 83  1  0  0  0
 73144  1  0  0  0
 73145  1  0  0  0
 73146  1  0  0  0
 74147  1  0  0  0
 74148  1  0  0  0
 74149  1  0  0  0
 74 80  1  0  0  0
 75 76  1  0  0  0
 75 77  1  0  0  0
 75150  1  0  0  0
 75151  1  0  0  0
 76 78  1  0  0  0
 76152  1  0  0  0
 76153  1  0  0  0
 77 79  1  0  0  0
 77154  1  0  0  0
 77155  1  0  0  0
 78 83  1  0  0  0
 78156  1  0  0  0
 78157  1  0  0  0
 79158  1  0  0  0
 79159  1  0  0  0
 80 84  1  0  0  0
 80160  1  0  0  0
 82 83  1  0  0  0
 84161  1  0  0  0
M  ISO  4   1 100  68 101  79 101  84 100
M  END
> <chiral flag>
0

> <version>
0

> <s_m_source_file>
/data/baiqing/PycharmProjects/Reinvent-master-3.2/result/LINK_invent/BTK/process_docking_weight1_custom_sum_contain_oxygen_bond_distance_aromatic_linkinvent_7_9_3/rearranged_h_0072.sdf

> <i_m_source_file_index>
7

> <r_mmod_Potential_Energy-OPLS-2005>
-104.340194702148

> <r_mmod_Stretch_Energy-OPLS-2005>
56.3852195739746

> <r_mmod_Bend_Energy-OPLS-2005>
153.014572143555

> <r_mmod_Torsional_Energy-OPLS-2005>
202.582427978516

> <r_mmod_Improper_Torsional_Energy-OPLS-2005>
3.9294741153717

> <r_mmod_Van_der_Waal_Energy-OPLS-2005>
119.163200378418

> <r_mmod_Electrostatic_Energy-OPLS-2005>
-425.286590576172

> <r_mmod_Solvation_Energy-OPLS-2005>
-242.173278808594

> <b_mmod_Minimization_Converged-OPLS-2005>
0

> <r_mmod_RMS_Derivative-OPLS-2005>
2.81745195388794

$$$$
8
                    3D
 Structure written by MMmdl.
161169  0  0  1  0            999 V2000
  -30.6796  -14.6216   20.4453 C   0  0  0  0  0  0
  -30.4176  -12.3719   19.4646 C   0  0  0  0  0  0
  -29.5035  -12.4875   18.2271 C   0  0  0  0  0  0
  -28.0271  -12.3365   18.6399 C   0  0  0  0  0  0
  -27.6472  -13.2286   19.8529 C   0  0  2  0  0  0
  -28.6923  -13.1400   20.9884 C   0  0  0  0  0  0
  -25.2532  -13.8207   20.5687 C   0  0  0  0  0  0
  -24.1813  -13.0448   20.9186 C   0  0  0  0  0  0
  -24.6401  -11.6923   20.8737 C   0  0  0  0  0  0
  -23.9072  -10.4296   21.0397 C   0  0  0  0  0  0
  -24.3621   -9.4211   21.9182 C   0  0  0  0  0  0
  -23.6290   -8.2248   22.0759 C   0  0  0  0  0  0
  -22.4274   -8.0288   21.3547 C   0  0  0  0  0  0
  -21.9908   -9.0259   20.4646 C   0  0  0  0  0  0
  -22.7240  -10.2136   20.3049 C   0  0  0  0  0  0
  -21.6857   -6.0734   22.5277 C   0  0  0  0  0  0
  -21.4021   -6.5637   23.8211 C   0  0  0  0  0  0
  -21.3657   -5.6787   24.9169 C   0  0  0  0  0  0
  -21.6043   -4.3049   24.7225 C   0  0  0  0  0  0
  -21.8823   -3.8140   23.4347 C   0  0  0  0  0  0
  -21.9194   -4.6957   22.3400 C   0  0  0  0  0  0
  -22.7833  -13.5230   21.1849 C   0  0  0  0  0  0
  -22.1661   -4.2139   21.0978 F   0  0  0  0  0  0
  -21.5623   -3.4535   25.7737 F   0  0  0  0  0  0
  -30.0086  -13.4307   20.4095 N   0  0  0  0  0  0
  -26.2966  -12.9412   20.3293 N   0  0  0  0  0  0
  -25.9334  -11.6555   20.5757 N   0  0  0  0  0  0
  -22.0480  -12.8219   22.0405 N   0  0  0  0  0  0
  -25.4205  -15.1936   20.4125 N   0  0  0  0  0  0
  -31.8738  -14.6771   20.1446 O   0  0  0  0  0  0
  -21.6646   -6.8881   21.4239 O   0  0  0  0  0  0
  -22.3506  -14.5532   20.6698 O   0  0  0  0  0  0
  -24.6241  -31.8618   23.2060 C   0  0  0  0  0  0
  -25.9106  -32.4790   23.8366 C   0  0  1  0  0  0
  -27.2156  -27.3378   20.1226 C   0  0  0  0  0  0
  -25.5911  -33.8587   24.2287 N   0  0  0  0  0  0
  -23.4173  -30.4862   21.5480 C   0  0  2  0  0  0
  -24.8644  -28.9480   20.1082 C   0  0  0  0  0  0
  -22.7463  -29.4634   22.4944 C   0  0  0  0  0  0
  -18.0281  -28.1360   22.8483 C   0  0  0  0  0  0
  -24.1489  -36.7307   23.2638 C   0  0  0  0  0  0
  -25.9556  -30.7990   21.3750 C   0  0  0  0  0  0
  -26.0319  -29.4291   20.7160 C   0  0  0  0  0  0
  -27.2159  -28.6360   20.7138 C   0  0  0  0  0  0
  -26.0373  -26.9152   19.4714 C   0  0  0  0  0  0
  -24.8685  -27.6963   19.4739 C   0  0  0  0  0  0
  -23.6307  -29.8245   20.1617 C   0  0  0  0  0  0
  -25.4116  -36.3094   24.0326 C   0  0  1  0  0  0
  -20.5881  -28.3672   23.1272 C   0  0  2  0  0  0
  -20.6777  -26.9397   22.5403 C   0  0  0  0  0  0
  -19.5755  -26.6367   21.5199 C   0  0  0  0  0  0
  -18.1936  -26.7907   22.1610 C   0  0  0  0  0  0
  -19.1532  -28.8830   23.2879 C   0  0  0  0  0  0
  -18.9462  -30.1430   23.8900 C   0  0  0  0  0  0
  -17.6469  -30.6579   24.0548 C   0  0  0  0  0  0
  -25.9044  -34.9457   23.5111 C   0  0  0  0  0  0
  -16.5359  -29.9073   23.6322 C   0  0  0  0  0  0
  -16.7271  -28.6482   23.0356 C   0  0  0  0  0  0
  -26.4495  -31.6593   25.0729 C   0  0  0  0  0  0
  -25.3734  -31.3717   26.1459 C   0  0  0  0  0  0
  -27.0341  -30.3018   24.6180 C   0  0  0  0  0  0
  -27.6061  -32.4324   25.7498 C   0  0  0  0  0  0
  -27.5587  -37.1809   24.8459 C   0  0  0  0  0  0
  -21.4177  -29.3047   22.3681 N   0  0  0  0  0  0
  -26.4301  -37.3784   23.9405 N   0  0  0  0  0  0
  -24.6840  -31.0640   22.1008 N   0  0  0  0  0  0
  -23.4195  -28.8172   23.3017 O   0  0  0  0  0  0
  -28.3037  -26.4622   20.1727 O   0  0  0  0  0  0
  -26.5613  -34.8914   22.4680 O   0  0  0  0  0  0
  -23.5412  -32.1413   23.7401 O   0  0  0  0  0  0
  -30.1318  -20.8905   20.2142 C   0  0  0  0  0  0
  -30.6602  -19.5879   20.0369 C   0  0  0  0  0  0
  -28.7868  -21.0576   20.6096 C   0  0  0  0  0  0
  -29.8624  -18.4398   20.2537 C   0  0  0  0  0  0
  -28.0612  -19.8402   20.8298 C   0  0  0  0  0  0
  -26.5461  -19.5490   22.8402 C   0  0  0  0  0  0
  -30.0883  -16.8905   18.2942 C   0  0  0  0  0  0
  -28.1508  -22.4785   20.8444 C   0  0  0  0  0  0
  -26.6228  -19.8190   21.3324 C   0  0  0  0  0  0
  -28.7973  -23.8257   20.3000 C   0  0  0  0  0  0
  -28.0125  -25.1321   20.7522 C   0  0  0  0  0  0
  -30.3821  -17.0377   19.8009 C   0  0  2  0  0  0
  -28.5774  -18.5867   20.6465 N   0  0  0  0  0  0
  -29.9469  -15.7763   20.4914 N   0  0  0  0  0  0
  -31.4639  -12.4540   19.1655 H   0  0  0  0  0  0
  -30.3187  -11.3908   19.9312 H   0  0  0  0  0  0
  -29.7651  -11.7257   17.4918 H   0  0  0  0  0  0
  -29.6564  -13.4516   17.7394 H   0  0  0  0  0  0
  -27.8647  -11.2870   18.8893 H   0  0  0  0  0  0
  -27.3741  -12.5512   17.7931 H   0  0  0  0  0  0
  -27.6502  -14.2544   19.4843 H   0  0  0  0  0  0
  -28.6918  -12.1480   21.4422 H   0  0  0  0  0  0
  -28.4551  -13.8438   21.7876 H   0  0  0  0  0  0
  -25.2766   -9.5687   22.4760 H   0  0  0  0  0  0
  -23.9991   -7.4646   22.7491 H   0  0  0  0  0  0
  -21.0832   -8.8784   19.8958 H   0  0  0  0  0  0
  -22.3699  -10.9677   19.6157 H   0  0  0  0  0  0
  -21.2028   -7.6147   23.9710 H   0  0  0  0  0  0
  -21.1470   -6.0520   25.9074 H   0  0  0  0  0  0
  -22.0607   -2.7604   23.2851 H   0  0  0  0  0  0
  -22.4089  -11.9873   22.4785 H   0  0  0  0  0  0
  -21.1106  -13.1258   22.2626 H   0  0  0  0  0  0
  -24.6531  -15.8461   20.5324 H   0  0  0  0  0  0
  -26.2753  -15.6428   20.1084 H   0  0  0  0  0  0
  -26.7185  -32.5484   23.1123 H   0  0  0  0  0  0
  -25.0055  -33.9730   25.0427 H   0  0  0  0  0  0
  -22.7102  -31.3069   21.4089 H   0  0  0  0  0  0
  -23.3747  -35.9643   23.3295 H   0  0  0  0  0  0
  -24.3577  -36.8928   22.2053 H   0  0  0  0  0  0
  -23.7243  -37.6505   23.6665 H   0  0  0  0  0  0
  -26.0838  -31.5672   20.6108 H   0  0  0  0  0  0
  -26.8349  -30.8467   22.0043 H   0  0  0  0  0  0
  -28.1112  -28.9976   21.2002 H   0  0  0  0  0  0
  -26.0080  -25.9553   18.9736 H   0  0  0  0  0  0
  -23.9771  -27.3261   18.9866 H   0  0  0  0  0  0
  -23.7480  -30.6023   19.4068 H   0  0  0  0  0  0
  -22.7520  -29.2509   19.8610 H   0  0  0  0  0  0
  -25.1298  -36.1953   25.0817 H   0  0  0  0  0  0
  -20.9975  -28.3249   24.1391 H   0  0  0  0  0  0
  -20.5648  -26.2294   23.3601 H   0  0  0  0  0  0
  -21.6651  -26.7424   22.1217 H   0  0  0  0  0  0
  -19.6912  -25.6273   21.1226 H   0  0  0  0  0  0
  -19.6679  -27.3171   20.6720 H   0  0  0  0  0  0
  -17.4206  -26.6646   21.4011 H   0  0  0  0  0  0
  -18.0350  -26.0033   22.8986 H   0  0  0  0  0  0
  -19.7945  -30.7235   24.2274 H   0  0  0  0  0  0
  -17.5031  -31.6255   24.5152 H   0  0  0  0  0  0
  -15.5362  -30.2978   23.7642 H   0  0  0  0  0  0
  -15.8670  -28.0793   22.7081 H   0  0  0  0  0  0
  -24.5911  -30.7065   25.7777 H   0  0  0  0  0  0
  -24.8931  -32.2884   26.4898 H   0  0  0  0  0  0
  -25.8072  -30.8880   27.0224 H   0  0  0  0  0  0
  -26.2914  -29.6756   24.1225 H   0  0  0  0  0  0
  -27.4057  -29.7286   25.4684 H   0  0  0  0  0  0
  -27.8772  -30.4289   23.9386 H   0  0  0  0  0  0
  -27.2679  -33.3629   26.2071 H   0  0  0  0  0  0
  -28.3884  -32.6870   25.0333 H   0  0  0  0  0  0
  -28.0719  -31.8447   26.5418 H   0  0  0  0  0  0
  -28.2603  -38.0108   24.7528 H   0  0  0  0  0  0
  -28.1085  -36.2645   24.6273 H   0  0  0  0  0  0
  -27.2302  -37.1446   25.8857 H   0  0  0  0  0  0
  -20.9349  -29.8777   21.6903 H   0  0  0  0  0  0
  -26.0178  -38.2858   24.1410 H   0  0  0  0  0  0
  -30.7577  -21.7515   20.0303 H   0  0  0  0  0  0
  -31.6756  -19.4775   19.6799 H   0  0  0  0  0  0
  -25.5109  -19.5280   23.1793 H   0  0  0  0  0  0
  -27.0711  -20.3228   23.4003 H   0  0  0  0  0  0
  -26.9989  -18.5882   23.0879 H   0  0  0  0  0  0
  -30.5345  -17.7107   17.7310 H   0  0  0  0  0  0
  -29.0157  -16.9074   18.1002 H   0  0  0  0  0  0
  -30.4878  -15.9646   17.8807 H   0  0  0  0  0  0
  -28.0133  -22.5789   21.9216 H   0  0  0  0  0  0
  -27.1477  -22.4557   20.4216 H   0  0  0  0  0  0
  -26.0791  -19.0356   20.8023 H   0  0  0  0  0  0
  -26.0920  -20.7369   21.0952 H   0  0  0  0  0  0
  -28.8269  -23.7861   19.2111 H   0  0  0  0  0  0
  -29.8320  -23.9044   20.6342 H   0  0  0  0  0  0
  -28.1642  -25.2416   21.8260 H   0  0  0  0  0  0
  -26.9542  -24.8911   20.6638 H   0  0  0  0  0  0
  -31.4657  -17.1064   19.9142 H   0  0  0  0  0  0
  -28.9752  -15.7265   20.7548 H   0  0  0  0  0  0
  1 25  1  0  0  0
  1 30  2  0  0  0
  1 84  1  0  0  0
  2  3  1  0  0  0
  2 25  1  0  0  0
  2 85  1  0  0  0
  2 86  1  0  0  0
  3  4  1  0  0  0
  3 87  1  0  0  0
  3 88  1  0  0  0
  4  5  1  0  0  0
  4 89  1  0  0  0
  4 90  1  0  0  0
  5  6  1  0  0  0
  5 26  1  0  0  0
  5 91  1  0  0  0
  6 25  1  0  0  0
  6 92  1  0  0  0
  6 93  1  0  0  0
  7  8  2  0  0  0
  7 26  1  0  0  0
  7 29  1  0  0  0
  8  9  1  0  0  0
  8 22  1  0  0  0
  9 10  1  0  0  0
  9 27  2  0  0  0
 10 11  2  0  0  0
 10 15  1  0  0  0
 11 12  1  0  0  0
 11 94  1  0  0  0
 12 13  2  0  0  0
 12 95  1  0  0  0
 13 14  1  0  0  0
 13 31  1  0  0  0
 14 15  2  0  0  0
 14 96  1  0  0  0
 15 97  1  0  0  0
 16 17  2  0  0  0
 16 21  1  0  0  0
 16 31  1  0  0  0
 17 18  1  0  0  0
 17 98  1  0  0  0
 18 19  2  0  0  0
 18 99  1  0  0  0
 19 20  1  0  0  0
 19 24  1  0  0  0
 20 21  2  0  0  0
 20100  1  0  0  0
 21 23  1  0  0  0
 22 28  1  0  0  0
 22 32  2  0  0  0
 26 27  1  0  0  0
 28101  1  0  0  0
 28102  1  0  0  0
 29103  1  0  0  0
 29104  1  0  0  0
 33 34  1  0  0  0
 33 66  1  0  0  0
 33 70  2  0  0  0
 34 36  1  0  0  0
 34 59  1  0  0  0
 34105  1  0  0  0
 35 44  2  0  0  0
 35 45  1  0  0  0
 35 68  1  0  0  0
 36 56  1  0  0  0
 36106  1  0  0  0
 37 39  1  0  0  0
 37 47  1  0  0  0
 37 66  1  0  0  0
 37107  1  0  0  0
 38 43  2  0  0  0
 38 46  1  0  0  0
 38 47  1  0  0  0
 39 64  1  0  0  0
 39 67  2  0  0  0
 40 52  1  0  0  0
 40 53  2  0  0  0
 40 58  1  0  0  0
 41108  1  0  0  0
 41109  1  0  0  0
 41110  1  0  0  0
 41 48  1  0  0  0
 42 43  1  0  0  0
 42 66  1  0  0  0
 42111  1  0  0  0
 42112  1  0  0  0
 43 44  1  0  0  0
 44113  1  0  0  0
 45 46  2  0  0  0
 45114  1  0  0  0
 46115  1  0  0  0
 47116  1  0  0  0
 47117  1  0  0  0
 48 56  1  0  0  0
 48 65  1  0  0  0
 48118  1  0  0  0
 49 50  1  0  0  0
 49 53  1  0  0  0
 49 64  1  0  0  0
 49119  1  0  0  0
 50 51  1  0  0  0
 50120  1  0  0  0
 50121  1  0  0  0
 51 52  1  0  0  0
 51122  1  0  0  0
 51123  1  0  0  0
 52124  1  0  0  0
 52125  1  0  0  0
 53 54  1  0  0  0
 54 55  2  0  0  0
 54126  1  0  0  0
 55 57  1  0  0  0
 55127  1  0  0  0
 56 69  2  0  0  0
 57 58  2  0  0  0
 57128  1  0  0  0
 58129  1  0  0  0
 59 60  1  0  0  0
 59 61  1  0  0  0
 59 62  1  0  0  0
 60130  1  0  0  0
 60131  1  0  0  0
 60132  1  0  0  0
 61133  1  0  0  0
 61134  1  0  0  0
 61135  1  0  0  0
 62136  1  0  0  0
 62137  1  0  0  0
 62138  1  0  0  0
 63 65  1  0  0  0
 63139  1  0  0  0
 63140  1  0  0  0
 63141  1  0  0  0
 64142  1  0  0  0
 65143  1  0  0  0
 68 81  1  0  0  0
 71 72  2  0  0  0
 71 73  1  0  0  0
 71144  1  0  0  0
 72 74  1  0  0  0
 72145  1  0  0  0
 73 75  2  0  0  0
 73 78  1  0  0  0
 74 82  1  0  0  0
 74 83  2  0  0  0
 75 79  1  0  0  0
 75 83  1  0  0  0
 76 79  1  0  0  0
 76146  1  0  0  0
 76147  1  0  0  0
 76148  1  0  0  0
 77149  1  0  0  0
 77150  1  0  0  0
 77151  1  0  0  0
 77 82  1  0  0  0
 78 80  1  0  0  0
 78152  1  0  0  0
 78153  1  0  0  0
 79154  1  0  0  0
 79155  1  0  0  0
 80 81  1  0  0  0
 80156  1  0  0  0
 80157  1  0  0  0
 81158  1  0  0  0
 81159  1  0  0  0
 82 84  1  0  0  0
 82160  1  0  0  0
 84161  1  0  0  0
M  ISO  4   1 100  68 101  81 101  84 100
M  END
> <chiral flag>
0

> <version>
0

> <s_m_source_file>
/data/baiqing/PycharmProjects/Reinvent-master-3.2/result/LINK_invent/BTK/process_docking_weight1_custom_sum_contain_oxygen_bond_distance_aromatic_linkinvent_7_9_3/rearranged_h_0072.sdf

> <i_m_source_file_index>
8

> <r_mmod_Potential_Energy-OPLS-2005>
-222.822891235352

> <r_mmod_Stretch_Energy-OPLS-2005>
71.1304321289062

> <r_mmod_Bend_Energy-OPLS-2005>
136.768707275391

> <r_mmod_Torsional_Energy-OPLS-2005>
216.634552001953

> <r_mmod_Improper_Torsional_Energy-OPLS-2005>
10.3748168945312

> <r_mmod_Van_der_Waal_Energy-OPLS-2005>
145.892211914062

> <r_mmod_Electrostatic_Energy-OPLS-2005>
-649.223388671875

> <r_mmod_Solvation_Energy-OPLS-2005>
-204.669815063477

> <b_mmod_Minimization_Converged-OPLS-2005>
0

> <r_mmod_RMS_Derivative-OPLS-2005>
1.51821255683899

$$$$
9
                    3D
 Structure written by MMmdl.
157165  0  0  1  0            999 V2000
  -30.7081  -14.6260   20.4500 C   0  0  0  0  0  0
  -30.4130  -12.3837   19.4552 C   0  0  0  0  0  0
  -29.4975  -12.4843   18.2192 C   0  0  0  0  0  0
  -28.0250  -12.3327   18.6402 C   0  0  0  0  0  0
  -27.6443  -13.2327   19.8470 C   0  0  2  0  0  0
  -28.6935  -13.1674   20.9792 C   0  0  0  0  0  0
  -25.2545  -13.8206   20.5710 C   0  0  0  0  0  0
  -24.1822  -13.0445   20.9186 C   0  0  0  0  0  0
  -24.6411  -11.6927   20.8727 C   0  0  0  0  0  0
  -23.9069  -10.4313   21.0404 C   0  0  0  0  0  0
  -24.3620   -9.4225   21.9180 C   0  0  0  0  0  0
  -23.6291   -8.2262   22.0764 C   0  0  0  0  0  0
  -22.4269   -8.0291   21.3555 C   0  0  0  0  0  0
  -21.9909   -9.0261   20.4653 C   0  0  0  0  0  0
  -22.7243  -10.2140   20.3057 C   0  0  0  0  0  0
  -21.6853   -6.0734   22.5277 C   0  0  0  0  0  0
  -21.4026   -6.5643   23.8202 C   0  0  0  0  0  0
  -21.3658   -5.6796   24.9169 C   0  0  0  0  0  0
  -21.6034   -4.3061   24.7223 C   0  0  0  0  0  0
  -21.8825   -3.8148   23.4345 C   0  0  0  0  0  0
  -21.9203   -4.6963   22.3399 C   0  0  0  0  0  0
  -22.7854  -13.5235   21.1847 C   0  0  0  0  0  0
  -22.1674   -4.2148   21.0976 F   0  0  0  0  0  0
  -21.5623   -3.4539   25.7734 F   0  0  0  0  0  0
  -30.0012  -13.4571   20.3823 N   0  0  0  0  0  0
  -26.2973  -12.9421   20.3297 N   0  0  0  0  0  0
  -25.9341  -11.6560   20.5738 N   0  0  0  0  0  0
  -22.0490  -12.8211   22.0393 N   0  0  0  0  0  0
  -25.4232  -15.1924   20.4197 N   0  0  0  0  0  0
  -31.9189  -14.6276   20.2340 O   0  0  0  0  0  0
  -21.6648   -6.8876   21.4237 O   0  0  0  0  0  0
  -22.3532  -14.5545   20.6709 O   0  0  0  0  0  0
  -24.6228  -31.8630   23.2070 C   0  0  0  0  0  0
  -25.9076  -32.4801   23.8388 C   0  0  1  0  0  0
  -27.2258  -27.3233   20.1012 C   0  0  0  0  0  0
  -25.5897  -33.8605   24.2306 N   0  0  0  0  0  0
  -23.4159  -30.4848   21.5516 C   0  0  2  0  0  0
  -24.8635  -28.9453   20.1158 C   0  0  0  0  0  0
  -22.7445  -29.4619   22.4989 C   0  0  0  0  0  0
  -18.0262  -28.1335   22.8519 C   0  0  0  0  0  0
  -24.1488  -36.7305   23.2636 C   0  0  0  0  0  0
  -25.9602  -30.7900   21.3813 C   0  0  0  0  0  0
  -26.0328  -29.4198   20.7198 C   0  0  0  0  0  0
  -27.2117  -28.6181   20.7086 C   0  0  0  0  0  0
  -26.0194  -26.8937   19.4974 C   0  0  0  0  0  0
  -24.8590  -27.6869   19.5000 C   0  0  0  0  0  0
  -23.6304  -29.8224   20.1670 C   0  0  0  0  0  0
  -25.4113  -36.3112   24.0337 C   0  0  1  0  0  0
  -20.5867  -28.3649   23.1317 C   0  0  2  0  0  0
  -20.6765  -26.9381   22.5431 C   0  0  0  0  0  0
  -19.5737  -26.6361   21.5236 C   0  0  0  0  0  0
  -18.1911  -26.7886   22.1640 C   0  0  0  0  0  0
  -19.1517  -28.8807   23.2913 C   0  0  0  0  0  0
  -18.9440  -30.1413   23.8915 C   0  0  0  0  0  0
  -17.6438  -30.6561   24.0553 C   0  0  0  0  0  0
  -25.9041  -34.9468   23.5127 C   0  0  0  0  0  0
  -16.5330  -29.9061   23.6325 C   0  0  0  0  0  0
  -16.7252  -28.6458   23.0378 C   0  0  0  0  0  0
  -26.4471  -31.6590   25.0734 C   0  0  0  0  0  0
  -25.3704  -31.3723   26.1460 C   0  0  0  0  0  0
  -27.0307  -30.3004   24.6192 C   0  0  0  0  0  0
  -27.6043  -32.4317   25.7471 C   0  0  0  0  0  0
  -27.5591  -37.1808   24.8457 C   0  0  0  0  0  0
  -21.4163  -29.3018   22.3723 N   0  0  0  0  0  0
  -26.4301  -37.3804   23.9400 N   0  0  0  0  0  0
  -24.6850  -31.0620   22.1029 N   0  0  0  0  0  0
  -23.4188  -28.8140   23.3037 O   0  0  0  0  0  0
  -28.3741  -26.5141   20.1495 O   0  0  0  0  0  0
  -26.5641  -34.8923   22.4714 O   0  0  0  0  0  0
  -23.5392  -32.1434   23.7387 O   0  0  0  0  0  0
  -30.3787  -20.8040   20.4658 C   0  0  0  0  0  0
  -29.1206  -21.1124   19.9097 C   0  0  0  0  0  0
  -28.3156  -19.9596   19.6891 C   0  0  0  0  0  0
  -29.9978  -18.5070   20.3565 C   0  0  0  0  0  0
  -26.9177  -20.0500   19.1100 C   0  0  0  0  0  0
  -31.1609  -17.1306   18.6271 C   0  0  0  0  0  0
  -28.7512  -22.5523   19.3765 C   0  0  0  0  0  0
  -28.7517  -23.8613   20.2791 C   0  0  0  0  0  0
  -28.4712  -25.2050   19.4646 C   0  0  0  0  0  0
  -30.7022  -17.1287   20.1062 C   0  0  2  0  0  0
  -30.7985  -19.5287   20.6760 N   0  0  0  0  0  0
  -28.7584  -18.6888   19.9039 N   0  0  0  0  0  0
  -30.0364  -15.8204   20.4530 N   0  0  0  0  0  0
  -31.4599  -12.4570   19.1541 H   0  0  0  0  0  0
  -30.3070  -11.4100   19.9363 H   0  0  0  0  0  0
  -29.7578  -11.7145   17.4916 H   0  0  0  0  0  0
  -29.6459  -13.4417   17.7165 H   0  0  0  0  0  0
  -27.8709  -11.2858   18.9022 H   0  0  0  0  0  0
  -27.3664  -12.5333   17.7948 H   0  0  0  0  0  0
  -27.6415  -14.2538   19.4648 H   0  0  0  0  0  0
  -28.7040  -12.1859   21.4558 H   0  0  0  0  0  0
  -28.4608  -13.8897   21.7628 H   0  0  0  0  0  0
  -25.2768   -9.5699   22.4749 H   0  0  0  0  0  0
  -23.9999   -7.4663   22.7493 H   0  0  0  0  0  0
  -21.0841   -8.8778   19.8957 H   0  0  0  0  0  0
  -22.3701  -10.9675   19.6168 H   0  0  0  0  0  0
  -21.2026   -7.6149   23.9701 H   0  0  0  0  0  0
  -21.1467   -6.0528   25.9062 H   0  0  0  0  0  0
  -22.0602   -2.7609   23.2839 H   0  0  0  0  0  0
  -22.4133  -11.9885   22.4775 H   0  0  0  0  0  0
  -21.1109  -13.1235   22.2599 H   0  0  0  0  0  0
  -24.6574  -15.8437   20.5519 H   0  0  0  0  0  0
  -26.2758  -15.6429   20.1135 H   0  0  0  0  0  0
  -26.7123  -32.5472   23.1120 H   0  0  0  0  0  0
  -25.0002  -33.9771   25.0418 H   0  0  0  0  0  0
  -22.7089  -31.3043   21.4120 H   0  0  0  0  0  0
  -23.3781  -35.9610   23.3291 H   0  0  0  0  0  0
  -24.3574  -36.8944   22.2053 H   0  0  0  0  0  0
  -23.7219  -37.6489   23.6668 H   0  0  0  0  0  0
  -26.0950  -31.5558   20.6165 H   0  0  0  0  0  0
  -26.8400  -30.8373   22.0117 H   0  0  0  0  0  0
  -28.1096  -28.9782   21.1909 H   0  0  0  0  0  0
  -25.9068  -25.9292   19.0329 H   0  0  0  0  0  0
  -23.9573  -27.3137   19.0335 H   0  0  0  0  0  0
  -23.7403  -30.6004   19.4105 H   0  0  0  0  0  0
  -22.7523  -29.2461   19.8706 H   0  0  0  0  0  0
  -25.1299  -36.1991   25.0840 H   0  0  0  0  0  0
  -20.9949  -28.3207   24.1439 H   0  0  0  0  0  0
  -20.5689  -26.2234   23.3614 H   0  0  0  0  0  0
  -21.6621  -26.7423   22.1203 H   0  0  0  0  0  0
  -19.6900  -25.6290   21.1233 H   0  0  0  0  0  0
  -19.6659  -27.3187   20.6785 H   0  0  0  0  0  0
  -17.4190  -26.6646   21.4037 H   0  0  0  0  0  0
  -18.0291  -26.0005   22.9001 H   0  0  0  0  0  0
  -19.7910  -30.7234   24.2288 H   0  0  0  0  0  0
  -17.4989  -31.6258   24.5131 H   0  0  0  0  0  0
  -15.5326  -30.2970   23.7640 H   0  0  0  0  0  0
  -15.8641  -28.0782   22.7112 H   0  0  0  0  0  0
  -24.5819  -30.7160   25.7760 H   0  0  0  0  0  0
  -24.8956  -32.2894   26.4959 H   0  0  0  0  0  0
  -25.8001  -30.8801   27.0192 H   0  0  0  0  0  0
  -26.2880  -29.6745   24.1214 H   0  0  0  0  0  0
  -27.3998  -29.7262   25.4705 H   0  0  0  0  0  0
  -27.8766  -30.4286   23.9428 H   0  0  0  0  0  0
  -27.2678  -33.3621   26.2050 H   0  0  0  0  0  0
  -28.3820  -32.6867   25.0263 H   0  0  0  0  0  0
  -28.0737  -31.8437   26.5370 H   0  0  0  0  0  0
  -28.2611  -38.0105   24.7548 H   0  0  0  0  0  0
  -28.1094  -36.2650   24.6249 H   0  0  0  0  0  0
  -27.2304  -37.1409   25.8856 H   0  0  0  0  0  0
  -20.9306  -29.8755   21.6969 H   0  0  0  0  0  0
  -26.0202  -38.2887   24.1412 H   0  0  0  0  0  0
  -31.1013  -21.5831   20.6574 H   0  0  0  0  0  0
  -26.3445  -20.8389   19.5975 H   0  0  0  0  0  0
  -26.3733  -19.1151   19.2484 H   0  0  0  0  0  0
  -26.9631  -20.2550   18.0403 H   0  0  0  0  0  0
  -31.7862  -18.0012   18.4285 H   0  0  0  0  0  0
  -30.3050  -17.1881   17.9566 H   0  0  0  0  0  0
  -31.7449  -16.2560   18.3487 H   0  0  0  0  0  0
  -27.7741  -22.5049   18.8977 H   0  0  0  0  0  0
  -29.4333  -22.7358   18.5452 H   0  0  0  0  0  0
  -29.7152  -23.9562   20.7793 H   0  0  0  0  0  0
  -28.0089  -23.7512   21.0686 H   0  0  0  0  0  0
  -27.6494  -25.0104   18.7853 H   0  0  0  0  0  0
  -29.3115  -25.3241   18.7791 H   0  0  0  0  0  0
  -31.6039  -17.1574   20.7218 H   0  0  0  0  0  0
  -29.0344  -15.8360   20.5537 H   0  0  0  0  0  0
  1 25  1  0  0  0
  1 30  2  0  0  0
  1 83  1  0  0  0
  2  3  1  0  0  0
  2 25  1  0  0  0
  2 84  1  0  0  0
  2 85  1  0  0  0
  3  4  1  0  0  0
  3 86  1  0  0  0
  3 87  1  0  0  0
  4  5  1  0  0  0
  4 88  1  0  0  0
  4 89  1  0  0  0
  5  6  1  0  0  0
  5 26  1  0  0  0
  5 90  1  0  0  0
  6 25  1  0  0  0
  6 91  1  0  0  0
  6 92  1  0  0  0
  7  8  2  0  0  0
  7 26  1  0  0  0
  7 29  1  0  0  0
  8  9  1  0  0  0
  8 22  1  0  0  0
  9 10  1  0  0  0
  9 27  2  0  0  0
 10 11  2  0  0  0
 10 15  1  0  0  0
 11 12  1  0  0  0
 11 93  1  0  0  0
 12 13  2  0  0  0
 12 94  1  0  0  0
 13 14  1  0  0  0
 13 31  1  0  0  0
 14 15  2  0  0  0
 14 95  1  0  0  0
 15 96  1  0  0  0
 16 17  2  0  0  0
 16 21  1  0  0  0
 16 31  1  0  0  0
 17 18  1  0  0  0
 17 97  1  0  0  0
 18 19  2  0  0  0
 18 98  1  0  0  0
 19 20  1  0  0  0
 19 24  1  0  0  0
 20 21  2  0  0  0
 20 99  1  0  0  0
 21 23  1  0  0  0
 22 28  1  0  0  0
 22 32  2  0  0  0
 26 27  1  0  0  0
 28100  1  0  0  0
 28101  1  0  0  0
 29102  1  0  0  0
 29103  1  0  0  0
 33 34  1  0  0  0
 33 66  1  0  0  0
 33 70  2  0  0  0
 34 36  1  0  0  0
 34 59  1  0  0  0
 34104  1  0  0  0
 35 44  2  0  0  0
 35 45  1  0  0  0
 35 68  1  0  0  0
 36 56  1  0  0  0
 36105  1  0  0  0
 37 39  1  0  0  0
 37 47  1  0  0  0
 37 66  1  0  0  0
 37106  1  0  0  0
 38 43  2  0  0  0
 38 46  1  0  0  0
 38 47  1  0  0  0
 39 64  1  0  0  0
 39 67  2  0  0  0
 40 52  1  0  0  0
 40 53  2  0  0  0
 40 58  1  0  0  0
 41107  1  0  0  0
 41108  1  0  0  0
 41109  1  0  0  0
 41 48  1  0  0  0
 42 43  1  0  0  0
 42 66  1  0  0  0
 42110  1  0  0  0
 42111  1  0  0  0
 43 44  1  0  0  0
 44112  1  0  0  0
 45 46  2  0  0  0
 45113  1  0  0  0
 46114  1  0  0  0
 47115  1  0  0  0
 47116  1  0  0  0
 48 56  1  0  0  0
 48 65  1  0  0  0
 48117  1  0  0  0
 49 50  1  0  0  0
 49 53  1  0  0  0
 49 64  1  0  0  0
 49118  1  0  0  0
 50 51  1  0  0  0
 50119  1  0  0  0
 50120  1  0  0  0
 51 52  1  0  0  0
 51121  1  0  0  0
 51122  1  0  0  0
 52123  1  0  0  0
 52124  1  0  0  0
 53 54  1  0  0  0
 54 55  2  0  0  0
 54125  1  0  0  0
 55 57  1  0  0  0
 55126  1  0  0  0
 56 69  2  0  0  0
 57 58  2  0  0  0
 57127  1  0  0  0
 58128  1  0  0  0
 59 60  1  0  0  0
 59 61  1  0  0  0
 59 62  1  0  0  0
 60129  1  0  0  0
 60130  1  0  0  0
 60131  1  0  0  0
 61132  1  0  0  0
 61133  1  0  0  0
 61134  1  0  0  0
 62135  1  0  0  0
 62136  1  0  0  0
 62137  1  0  0  0
 63 65  1  0  0  0
 63138  1  0  0  0
 63139  1  0  0  0
 63140  1  0  0  0
 64141  1  0  0  0
 65142  1  0  0  0
 68 79  1  0  0  0
 71 72  2  0  0  0
 71 81  1  0  0  0
 71143  1  0  0  0
 72 73  1  0  0  0
 72 77  1  0  0  0
 73 75  1  0  0  0
 73 82  2  0  0  0
 74 80  1  0  0  0
 74 81  2  0  0  0
 74 82  1  0  0  0
 75144  1  0  0  0
 75145  1  0  0  0
 75146  1  0  0  0
 76147  1  0  0  0
 76148  1  0  0  0
 76149  1  0  0  0
 76 80  1  0  0  0
 77 78  1  0  0  0
 77150  1  0  0  0
 77151  1  0  0  0
 78 79  1  0  0  0
 78152  1  0  0  0
 78153  1  0  0  0
 79154  1  0  0  0
 79155  1  0  0  0
 80 83  1  0  0  0
 80156  1  0  0  0
 83157  1  0  0  0
M  ISO  4   1 100  68 101  79 101  83 100
M  END
> <chiral flag>
0

> <version>
0

> <s_m_source_file>
/data/baiqing/PycharmProjects/Reinvent-master-3.2/result/LINK_invent/BTK/process_docking_weight1_custom_sum_contain_oxygen_bond_distance_aromatic_linkinvent_7_9_3/rearranged_h_0072.sdf

> <i_m_source_file_index>
9

> <r_mmod_Potential_Energy-OPLS-2005>
-460.946350097656

> <r_mmod_Stretch_Energy-OPLS-2005>
75.2867736816406

> <r_mmod_Bend_Energy-OPLS-2005>
160.46321105957

> <r_mmod_Torsional_Energy-OPLS-2005>
198.435043334961

> <r_mmod_Improper_Torsional_Energy-OPLS-2005>
12.2307605743408

> <r_mmod_Van_der_Waal_Energy-OPLS-2005>
158.136245727539

> <r_mmod_Electrostatic_Energy-OPLS-2005>
-899.065795898438

> <r_mmod_Solvation_Energy-OPLS-2005>
-220.458969116211

> <b_mmod_Minimization_Converged-OPLS-2005>
0

> <r_mmod_RMS_Derivative-OPLS-2005>
2.64769816398621

$$$$
10
                    3D
 Structure written by MMmdl.
154162  0  0  1  0            999 V2000
  -30.6897  -14.7393   20.2859 C   0  0  0  0  0  0
  -30.4270  -12.4172   19.4673 C   0  0  0  0  0  0
  -29.5090  -12.3742   18.2311 C   0  0  0  0  0  0
  -28.0332  -12.2224   18.6600 C   0  0  0  0  0  0
  -27.6179  -13.1684   19.8161 C   0  0  2  0  0  0
  -28.6879  -13.2692   20.9255 C   0  0  0  0  0  0
  -25.2551  -13.8009   20.5740 C   0  0  0  0  0  0
  -24.1781  -13.0353   20.9241 C   0  0  0  0  0  0
  -24.6297  -11.6809   20.8810 C   0  0  0  0  0  0
  -23.8961  -10.4244   21.0449 C   0  0  0  0  0  0
  -24.3548   -9.4175   21.9210 C   0  0  0  0  0  0
  -23.6254   -8.2203   22.0757 C   0  0  0  0  0  0
  -22.4242   -8.0242   21.3536 C   0  0  0  0  0  0
  -21.9849   -9.0214   20.4650 C   0  0  0  0  0  0
  -22.7150  -10.2106   20.3079 C   0  0  0  0  0  0
  -21.6846   -6.0707   22.5277 C   0  0  0  0  0  0
  -21.4014   -6.5622   23.8206 C   0  0  0  0  0  0
  -21.3654   -5.6781   24.9171 C   0  0  0  0  0  0
  -21.6037   -4.3043   24.7229 C   0  0  0  0  0  0
  -21.8826   -3.8130   23.4355 C   0  0  0  0  0  0
  -21.9199   -4.6940   22.3406 C   0  0  0  0  0  0
  -22.7822  -13.5207   21.1875 C   0  0  0  0  0  0
  -22.1663   -4.2129   21.0982 F   0  0  0  0  0  0
  -21.5629   -3.4529   25.7745 F   0  0  0  0  0  0
  -29.9879  -13.5529   20.3008 N   0  0  0  0  0  0
  -26.2859  -12.9039   20.3297 N   0  0  0  0  0  0
  -25.9197  -11.6276   20.5841 N   0  0  0  0  0  0
  -22.0437  -12.8233   22.0430 N   0  0  0  0  0  0
  -25.4326  -15.1734   20.4162 N   0  0  0  0  0  0
  -31.9149  -14.6774   20.4040 O   0  0  0  0  0  0
  -21.6617   -6.8837   21.4233 O   0  0  0  0  0  0
  -22.3544  -14.5515   20.6699 O   0  0  0  0  0  0
  -24.6243  -31.8608   23.2027 C   0  0  0  0  0  0
  -25.9100  -32.4782   23.8349 C   0  0  1  0  0  0
  -27.2329  -27.3436   20.1129 C   0  0  0  0  0  0
  -25.5917  -33.8578   24.2289 N   0  0  0  0  0  0
  -23.4161  -30.4854   21.5431 C   0  0  2  0  0  0
  -24.8645  -28.9442   20.1095 C   0  0  0  0  0  0
  -22.7463  -29.4639   22.4925 C   0  0  0  0  0  0
  -18.0285  -28.1391   22.8487 C   0  0  0  0  0  0
  -24.1483  -36.7300   23.2636 C   0  0  0  0  0  0
  -25.9547  -30.8027   21.3669 C   0  0  0  0  0  0
  -26.0312  -29.4306   20.7113 C   0  0  0  0  0  0
  -27.2173  -28.6418   20.7049 C   0  0  0  0  0  0
  -26.0410  -26.9047   19.4887 C   0  0  0  0  0  0
  -24.8701  -27.6858   19.4893 C   0  0  0  0  0  0
  -23.6296  -29.8194   20.1592 C   0  0  0  0  0  0
  -25.4105  -36.3082   24.0332 C   0  0  1  0  0  0
  -20.5886  -28.3686   23.1286 C   0  0  2  0  0  0
  -20.6778  -26.9412   22.5406 C   0  0  0  0  0  0
  -19.5755  -26.6399   21.5204 C   0  0  0  0  0  0
  -18.1935  -26.7937   22.1621 C   0  0  0  0  0  0
  -19.1541  -28.8854   23.2886 C   0  0  0  0  0  0
  -18.9464  -30.1459   23.8899 C   0  0  0  0  0  0
  -17.6468  -30.6591   24.0569 C   0  0  0  0  0  0
  -25.9043  -34.9450   23.5108 C   0  0  0  0  0  0
  -16.5356  -29.9092   23.6334 C   0  0  0  0  0  0
  -16.7278  -28.6512   23.0347 C   0  0  0  0  0  0
  -26.4506  -31.6581   25.0705 C   0  0  0  0  0  0
  -25.3760  -31.3720   26.1454 C   0  0  0  0  0  0
  -27.0331  -30.3004   24.6127 C   0  0  0  0  0  0
  -27.6077  -32.4300   25.7467 C   0  0  0  0  0  0
  -27.5573  -37.1792   24.8470 C   0  0  0  0  0  0
  -21.4179  -29.3044   22.3680 N   0  0  0  0  0  0
  -26.4284  -37.3773   23.9421 N   0  0  0  0  0  0
  -24.6836  -31.0653   22.0954 N   0  0  0  0  0  0
  -23.4203  -28.8173   23.2987 O   0  0  0  0  0  0
  -28.3663  -26.5195   20.1657 O   0  0  0  0  0  0
  -26.5612  -34.8915   22.4675 O   0  0  0  0  0  0
  -23.5417  -32.1382   23.7386 O   0  0  0  0  0  0
  -31.3616  -18.2944   20.4220 C   0  0  0  0  0  0
  -28.9449  -19.4832   20.6264 C   0  0  0  0  0  0
  -30.1874  -17.4975   20.2927 C   0  0  0  0  0  0
  -30.1228  -20.2803   20.6499 C   0  0  0  0  0  0
  -28.8984  -16.0096   18.7086 C   0  0  0  0  0  0
  -29.3444  -24.0905   20.4459 C   0  0  0  0  0  0
  -28.1693  -25.0650   20.0300 C   0  0  0  0  0  0
  -29.0428  -22.5292   20.4049 C   0  0  0  0  0  0
  -30.1928  -16.0970   19.5428 C   0  0  2  0  0  0
  -28.9801  -18.1233   20.4719 N   0  0  0  0  0  0
  -31.3311  -19.6537   20.6027 N   0  0  0  0  0  0
  -31.0806  -16.2321   18.4316 O   0  0  0  0  0  0
  -30.1910  -21.6838   20.7143 O   0  0  0  0  0  0
  -31.4701  -12.5082   19.1585 H   0  0  0  0  0  0
  -30.3579  -11.4849   20.0311 H   0  0  0  0  0  0
  -29.7884  -11.5290   17.6002 H   0  0  0  0  0  0
  -29.6610  -13.2518   17.6073 H   0  0  0  0  0  0
  -27.9059  -11.1876   18.9814 H   0  0  0  0  0  0
  -27.3724  -12.3511   17.8018 H   0  0  0  0  0  0
  -27.4994  -14.1142   19.3340 H   0  0  0  0  0  0
  -28.7377  -12.3436   21.5002 H   0  0  0  0  0  0
  -28.4290  -14.0615   21.6296 H   0  0  0  0  0  0
  -25.2696   -9.5665   22.4773 H   0  0  0  0  0  0
  -23.9981   -7.4588   22.7456 H   0  0  0  0  0  0
  -21.0786   -8.8711   19.8952 H   0  0  0  0  0  0
  -22.3600  -10.9647   19.6196 H   0  0  0  0  0  0
  -21.2002   -7.6132   23.9702 H   0  0  0  0  0  0
  -21.1465   -6.0510   25.9069 H   0  0  0  0  0  0
  -22.0615   -2.7594   23.2858 H   0  0  0  0  0  0
  -22.4039  -11.9907   22.4857 H   0  0  0  0  0  0
  -21.1060  -13.1283   22.2622 H   0  0  0  0  0  0
  -24.6738  -15.8326   20.5478 H   0  0  0  0  0  0
  -26.2957  -15.6209   20.1372 H   0  0  0  0  0  0
  -26.7161  -32.5477   23.1096 H   0  0  0  0  0  0
  -25.0070  -33.9718   25.0439 H   0  0  0  0  0  0
  -22.7085  -31.3047   21.4006 H   0  0  0  0  0  0
  -23.3736  -35.9640   23.3300 H   0  0  0  0  0  0
  -24.3582  -36.8922   22.2049 H   0  0  0  0  0  0
  -23.7243  -37.6507   23.6658 H   0  0  0  0  0  0
  -26.0760  -31.5658   20.5968 H   0  0  0  0  0  0
  -26.8388  -30.8566   21.9904 H   0  0  0  0  0  0
  -28.1117  -29.0115   21.1862 H   0  0  0  0  0  0
  -25.9842  -25.9437   19.0004 H   0  0  0  0  0  0
  -23.9766  -27.3093   19.0112 H   0  0  0  0  0  0
  -23.7414  -30.5935   19.3998 H   0  0  0  0  0  0
  -22.7518  -29.2439   19.8610 H   0  0  0  0  0  0
  -25.1278  -36.1927   25.0820 H   0  0  0  0  0  0
  -20.9983  -28.3250   24.1404 H   0  0  0  0  0  0
  -20.5682  -26.2279   23.3594 H   0  0  0  0  0  0
  -21.6640  -26.7451   22.1183 H   0  0  0  0  0  0
  -19.6915  -25.6315   21.1215 H   0  0  0  0  0  0
  -19.6690  -27.3217   20.6740 H   0  0  0  0  0  0
  -17.4198  -26.6682   21.4028 H   0  0  0  0  0  0
  -18.0341  -26.0084   22.9022 H   0  0  0  0  0  0
  -19.7943  -30.7282   24.2246 H   0  0  0  0  0  0
  -17.5024  -31.6264   24.5183 H   0  0  0  0  0  0
  -15.5353  -30.2995   23.7664 H   0  0  0  0  0  0
  -15.8680  -28.0844   22.7044 H   0  0  0  0  0  0
  -24.5930  -30.7062   25.7814 H   0  0  0  0  0  0
  -24.8959  -32.2884   26.4889 H   0  0  0  0  0  0
  -25.8108  -30.8911   27.0225 H   0  0  0  0  0  0
  -26.2874  -29.6747   24.1207 H   0  0  0  0  0  0
  -27.4104  -29.7269   25.4606 H   0  0  0  0  0  0
  -27.8711  -30.4299   23.9275 H   0  0  0  0  0  0
  -27.2705  -33.3610   26.2035 H   0  0  0  0  0  0
  -28.3888  -32.6839   25.0287 H   0  0  0  0  0  0
  -28.0737  -31.8425   26.5389 H   0  0  0  0  0  0
  -28.2600  -38.0081   24.7515 H   0  0  0  0  0  0
  -28.1059  -36.2617   24.6292 H   0  0  0  0  0  0
  -27.2306  -37.1444   25.8878 H   0  0  0  0  0  0
  -20.9340  -29.8768   21.6906 H   0  0  0  0  0  0
  -26.0170  -38.2846   24.1434 H   0  0  0  0  0  0
  -32.3356  -17.8642   20.2386 H   0  0  0  0  0  0
  -27.9660  -19.9336   20.6976 H   0  0  0  0  0  0
  -28.7978  -16.8579   18.0290 H   0  0  0  0  0  0
  -28.0204  -16.0666   19.3470 H   0  0  0  0  0  0
  -28.8455  -15.1282   18.0801 H   0  0  0  0  0  0
  -29.6638  -24.3497   21.4549 H   0  0  0  0  0  0
  -30.2016  -24.2965   19.8042 H   0  0  0  0  0  0
  -27.2952  -24.7806   20.6184 H   0  0  0  0  0  0
  -27.9253  -24.8557   18.9877 H   0  0  0  0  0  0
  -28.6746  -22.2614   19.4132 H   0  0  0  0  0  0
  -28.2385  -22.3064   21.1061 H   0  0  0  0  0  0
  -30.7867  -16.9791   17.9280 H   0  0  0  0  0  0
  1 25  1  0  0  0
  1 30  2  0  0  0
  1 79  1  0  0  0
  2  3  1  0  0  0
  2 25  1  0  0  0
  2 84  1  0  0  0
  2 85  1  0  0  0
  3  4  1  0  0  0
  3 86  1  0  0  0
  3 87  1  0  0  0
  4  5  1  0  0  0
  4 88  1  0  0  0
  4 89  1  0  0  0
  5  6  1  0  0  0
  5 26  1  0  0  0
  5 90  1  0  0  0
  6 25  1  0  0  0
  6 91  1  0  0  0
  6 92  1  0  0  0
  7  8  2  0  0  0
  7 26  1  0  0  0
  7 29  1  0  0  0
  8  9  1  0  0  0
  8 22  1  0  0  0
  9 10  1  0  0  0
  9 27  2  0  0  0
 10 11  2  0  0  0
 10 15  1  0  0  0
 11 12  1  0  0  0
 11 93  1  0  0  0
 12 13  2  0  0  0
 12 94  1  0  0  0
 13 14  1  0  0  0
 13 31  1  0  0  0
 14 15  2  0  0  0
 14 95  1  0  0  0
 15 96  1  0  0  0
 16 17  2  0  0  0
 16 21  1  0  0  0
 16 31  1  0  0  0
 17 18  1  0  0  0
 17 97  1  0  0  0
 18 19  2  0  0  0
 18 98  1  0  0  0
 19 20  1  0  0  0
 19 24  1  0  0  0
 20 21  2  0  0  0
 20 99  1  0  0  0
 21 23  1  0  0  0
 22 28  1  0  0  0
 22 32  2  0  0  0
 26 27  1  0  0  0
 28100  1  0  0  0
 28101  1  0  0  0
 29102  1  0  0  0
 29103  1  0  0  0
 33 34  1  0  0  0
 33 66  1  0  0  0
 33 70  2  0  0  0
 34 36  1  0  0  0
 34 59  1  0  0  0
 34104  1  0  0  0
 35 44  2  0  0  0
 35 45  1  0  0  0
 35 68  1  0  0  0
 36 56  1  0  0  0
 36105  1  0  0  0
 37 39  1  0  0  0
 37 47  1  0  0  0
 37 66  1  0  0  0
 37106  1  0  0  0
 38 43  2  0  0  0
 38 46  1  0  0  0
 38 47  1  0  0  0
 39 64  1  0  0  0
 39 67  2  0  0  0
 40 52  1  0  0  0
 40 53  2  0  0  0
 40 58  1  0  0  0
 41107  1  0  0  0
 41108  1  0  0  0
 41109  1  0  0  0
 41 48  1  0  0  0
 42 43  1  0  0  0
 42 66  1  0  0  0
 42110  1  0  0  0
 42111  1  0  0  0
 43 44  1  0  0  0
 44112  1  0  0  0
 45 46  2  0  0  0
 45113  1  0  0  0
 46114  1  0  0  0
 47115  1  0  0  0
 47116  1  0  0  0
 48 56  1  0  0  0
 48 65  1  0  0  0
 48117  1  0  0  0
 49 50  1  0  0  0
 49 53  1  0  0  0
 49 64  1  0  0  0
 49118  1  0  0  0
 50 51  1  0  0  0
 50119  1  0  0  0
 50120  1  0  0  0
 51 52  1  0  0  0
 51121  1  0  0  0
 51122  1  0  0  0
 52123  1  0  0  0
 52124  1  0  0  0
 53 54  1  0  0  0
 54 55  2  0  0  0
 54125  1  0  0  0
 55 57  1  0  0  0
 55126  1  0  0  0
 56 69  2  0  0  0
 57 58  2  0  0  0
 57127  1  0  0  0
 58128  1  0  0  0
 59 60  1  0  0  0
 59 61  1  0  0  0
 59 62  1  0  0  0
 60129  1  0  0  0
 60130  1  0  0  0
 60131  1  0  0  0
 61132  1  0  0  0
 61133  1  0  0  0
 61134  1  0  0  0
 62135  1  0  0  0
 62136  1  0  0  0
 62137  1  0  0  0
 63 65  1  0  0  0
 63138  1  0  0  0
 63139  1  0  0  0
 63140  1  0  0  0
 64141  1  0  0  0
 65142  1  0  0  0
 68 77  1  0  0  0
 71 73  2  0  0  0
 71 81  1  0  0  0
 71143  1  0  0  0
 72 74  1  0  0  0
 72 80  2  0  0  0
 72144  1  0  0  0
 73 79  1  0  0  0
 73 80  1  0  0  0
 74 81  2  0  0  0
 74 83  1  0  0  0
 75145  1  0  0  0
 75146  1  0  0  0
 75147  1  0  0  0
 75 79  1  0  0  0
 76 77  1  0  0  0
 76 78  1  0  0  0
 76148  1  0  0  0
 76149  1  0  0  0
 77150  1  0  0  0
 77151  1  0  0  0
 78 83  1  0  0  0
 78152  1  0  0  0
 78153  1  0  0  0
 79 82  1  0  0  0
 82154  1  0  0  0
M  ISO  4   1 100  68 101  77 101  79 100
M  END
> <chiral flag>
0

> <version>
0

> <s_m_source_file>
/data/baiqing/PycharmProjects/Reinvent-master-3.2/result/LINK_invent/BTK/process_docking_weight1_custom_sum_contain_oxygen_bond_distance_aromatic_linkinvent_7_9_3/rearranged_h_0072.sdf

> <i_m_source_file_index>
10

> <r_mmod_Potential_Energy-OPLS-2005>
417.218353271484

> <r_mmod_Stretch_Energy-OPLS-2005>
89.5096206665039

> <r_mmod_Bend_Energy-OPLS-2005>
176.052474975586

> <r_mmod_Torsional_Energy-OPLS-2005>
250.138153076172

> <r_mmod_Improper_Torsional_Energy-OPLS-2005>
21.2746391296387

> <r_mmod_Van_der_Waal_Energy-OPLS-2005>
168.568923950195

> <r_mmod_Electrostatic_Energy-OPLS-2005>
-163.645874023438

> <r_mmod_Solvation_Energy-OPLS-2005>
-224.299041748047

> <b_mmod_Minimization_Converged-OPLS-2005>
0

> <r_mmod_RMS_Derivative-OPLS-2005>
1.56551730632782

$$$$
11
                    3D
 Structure written by MMmdl.
167175  0  0  1  0            999 V2000
  -30.8021  -14.5012   20.4153 C   0  0  0  0  0  0
  -30.3928  -12.3025   19.4197 C   0  0  0  0  0  0
  -29.4672  -12.4374   18.1945 C   0  0  0  0  0  0
  -27.9943  -12.3120   18.6167 C   0  0  0  0  0  0
  -27.6395  -13.2085   19.8318 C   0  0  2  0  0  0
  -28.7069  -13.1219   20.9521 C   0  0  0  0  0  0
  -25.2478  -13.8134   20.5624 C   0  0  0  0  0  0
  -24.1784  -13.0415   20.9183 C   0  0  0  0  0  0
  -24.6369  -11.6910   20.8784 C   0  0  0  0  0  0
  -23.9053  -10.4289   21.0416 C   0  0  0  0  0  0
  -24.3626   -9.4199   21.9171 C   0  0  0  0  0  0
  -23.6305   -8.2237   22.0754 C   0  0  0  0  0  0
  -22.4284   -8.0254   21.3541 C   0  0  0  0  0  0
  -21.9909   -9.0235   20.4651 C   0  0  0  0  0  0
  -22.7248  -10.2106   20.3057 C   0  0  0  0  0  0
  -21.6813   -6.0712   22.5279 C   0  0  0  0  0  0
  -21.4001   -6.5620   23.8221 C   0  0  0  0  0  0
  -21.3700   -5.6771   24.9183 C   0  0  0  0  0  0
  -21.6062   -4.3033   24.7225 C   0  0  0  0  0  0
  -21.8818   -3.8130   23.4344 C   0  0  0  0  0  0
  -21.9200   -4.6946   22.3404 C   0  0  0  0  0  0
  -22.7810  -13.5165   21.1885 C   0  0  0  0  0  0
  -22.1648   -4.2114   21.0985 F   0  0  0  0  0  0
  -21.5670   -3.4541   25.7760 F   0  0  0  0  0  0
  -30.0252  -13.3791   20.3601 N   0  0  0  0  0  0
  -26.2946  -12.9333   20.3286 N   0  0  0  0  0  0
  -25.9308  -11.6503   20.5833 N   0  0  0  0  0  0
  -22.0495  -12.8141   22.0470 N   0  0  0  0  0  0
  -25.4092  -15.1855   20.4046 N   0  0  0  0  0  0
  -32.0149  -14.3870   20.2597 O   0  0  0  0  0  0
  -21.6637   -6.8852   21.4237 O   0  0  0  0  0  0
  -22.3472  -14.5479   20.6708 O   0  0  0  0  0  0
  -24.6212  -31.8610   23.2084 C   0  0  0  0  0  0
  -25.9059  -32.4804   23.8393 C   0  0  1  0  0  0
  -27.2323  -27.4301   20.1226 C   0  0  0  0  0  0
  -25.5883  -33.8594   24.2316 N   0  0  0  0  0  0
  -23.4140  -30.4825   21.5481 C   0  0  2  0  0  0
  -24.8636  -28.9586   20.1097 C   0  0  0  0  0  0
  -22.7528  -29.4583   22.4961 C   0  0  0  0  0  0
  -18.0313  -28.1371   22.8575 C   0  0  0  0  0  0
  -24.1480  -36.7335   23.2628 C   0  0  0  0  0  0
  -25.9421  -30.8411   21.3530 C   0  0  0  0  0  0
  -26.0249  -29.4750   20.7011 C   0  0  0  0  0  0
  -27.2213  -28.7200   20.6974 C   0  0  0  0  0  0
  -26.0655  -26.9344   19.5060 C   0  0  0  0  0  0
  -24.8822  -27.6915   19.4994 C   0  0  0  0  0  0
  -23.6242  -29.8228   20.1581 C   0  0  0  0  0  0
  -25.4112  -36.3107   24.0324 C   0  0  1  0  0  0
  -20.5929  -28.3658   23.1398 C   0  0  2  0  0  0
  -20.6822  -26.9415   22.5412 C   0  0  0  0  0  0
  -19.5718  -26.6421   21.5317 C   0  0  0  0  0  0
  -18.1943  -26.7876   22.1829 C   0  0  0  0  0  0
  -19.1571  -28.8864   23.2941 C   0  0  0  0  0  0
  -18.9458  -30.1457   23.8926 C   0  0  0  0  0  0
  -17.6449  -30.6562   24.0552 C   0  0  0  0  0  0
  -25.9050  -34.9464   23.5140 C   0  0  0  0  0  0
  -16.5352  -29.9061   23.6301 C   0  0  0  0  0  0
  -16.7292  -28.6462   23.0387 C   0  0  0  0  0  0
  -26.4472  -31.6597   25.0747 C   0  0  0  0  0  0
  -25.3746  -31.3695   26.1507 C   0  0  0  0  0  0
  -27.0274  -30.3041   24.6076 C   0  0  0  0  0  0
  -27.6049  -32.4332   25.7514 C   0  0  0  0  0  0
  -27.5584  -37.1823   24.8454 C   0  0  0  0  0  0
  -21.4215  -29.3058   22.3865 N   0  0  0  0  0  0
  -26.4290  -37.3798   23.9413 N   0  0  0  0  0  0
  -24.6783  -31.0756   22.0955 N   0  0  0  0  0  0
  -23.4307  -28.7987   23.2875 O   0  0  0  0  0  0
  -28.3362  -26.6138   20.2126 O   0  0  0  0  0  0
  -26.5588  -34.8881   22.4683 O   0  0  0  0  0  0
  -23.5376  -32.1295   23.7457 O   0  0  0  0  0  0
  -28.0814  -19.9865   19.9624 C   0  0  0  0  0  0
  -28.4563  -18.6405   19.9149 C   0  0  0  0  0  0
  -28.1019  -20.6540   21.2074 C   0  0  0  0  0  0
  -28.8677  -18.0120   21.1090 C   0  0  0  0  0  0
  -26.8723  -22.5828   20.0733 C   0  0  0  0  0  0
  -26.3954  -22.0710   22.4096 C   0  0  0  0  0  0
  -29.9326  -16.0631   18.6678 C   0  0  0  0  0  0
  -31.5218  -16.9398   20.3269 C   0  0  0  0  0  0
  -29.0280  -24.3435   20.9973 C   0  0  0  0  0  0
  -28.6651  -23.0992   21.8709 C   0  0  0  0  0  0
  -28.1767  -25.6113   21.2403 C   0  0  0  0  0  0
  -27.5480  -22.0992   21.3782 C   0  0  0  0  0  0
  -29.1762  -16.5068   21.1440 C   0  0  0  0  0  0
  -30.2971  -15.9785   20.1749 C   0  0  0  0  0  0
  -28.5438  -20.0052   22.3241 N   0  0  0  0  0  0
  -28.9152  -18.7159   22.2768 N   0  0  0  0  0  0
  -29.5143  -16.1647   22.3904 F   0  0  0  0  0  0
  -28.0150  -15.9324   20.8855 F   0  0  0  0  0  0
  -31.4328  -12.3453   19.0928 H   0  0  0  0  0  0
  -30.2759  -11.3276   19.8935 H   0  0  0  0  0  0
  -29.7021  -11.6667   17.4600 H   0  0  0  0  0  0
  -29.6368  -13.3878   17.6886 H   0  0  0  0  0  0
  -27.8048  -11.2639   18.8484 H   0  0  0  0  0  0
  -27.3403  -12.5592   17.7782 H   0  0  0  0  0  0
  -27.6184  -14.2117   19.4178 H   0  0  0  0  0  0
  -28.7013  -12.1236   21.3936 H   0  0  0  0  0  0
  -28.4984  -13.8086   21.7750 H   0  0  0  0  0  0
  -25.2781   -9.5648   22.4722 H   0  0  0  0  0  0
  -24.0003   -7.4612   22.7471 H   0  0  0  0  0  0
  -21.0833   -8.8776   19.8939 H   0  0  0  0  0  0
  -22.3735  -10.9644   19.6155 H   0  0  0  0  0  0
  -21.1954   -7.6118   23.9686 H   0  0  0  0  0  0
  -21.1536   -6.0519   25.9078 H   0  0  0  0  0  0
  -22.0561   -2.7576   23.2869 H   0  0  0  0  0  0
  -22.4093  -11.9830   22.4890 H   0  0  0  0  0  0
  -21.1141  -13.1157   22.2763 H   0  0  0  0  0  0
  -24.6572  -15.8490   20.5496 H   0  0  0  0  0  0
  -26.3108  -15.6228   20.2596 H   0  0  0  0  0  0
  -26.7192  -32.5503   23.1199 H   0  0  0  0  0  0
  -25.0048  -33.9759   25.0464 H   0  0  0  0  0  0
  -22.6996  -31.2979   21.4097 H   0  0  0  0  0  0
  -23.3716  -35.9694   23.3306 H   0  0  0  0  0  0
  -24.3574  -36.8938   22.2043 H   0  0  0  0  0  0
  -23.7241  -37.6549   23.6638 H   0  0  0  0  0  0
  -26.0471  -31.6086   20.5858 H   0  0  0  0  0  0
  -26.8354  -30.9048   21.9642 H   0  0  0  0  0  0
  -28.1192  -29.1030   21.1625 H   0  0  0  0  0  0
  -26.0656  -25.9451   19.0674 H   0  0  0  0  0  0
  -23.9886  -27.2843   19.0453 H   0  0  0  0  0  0
  -23.7294  -30.6027   19.3989 H   0  0  0  0  0  0
  -22.7521  -29.2412   19.8591 H   0  0  0  0  0  0
  -25.1272  -36.2000   25.0816 H   0  0  0  0  0  0
  -20.9952  -28.3158   24.1529 H   0  0  0  0  0  0
  -20.5777  -26.2226   23.3610 H   0  0  0  0  0  0
  -21.6674  -26.7445   22.1132 H   0  0  0  0  0  0
  -19.6852  -25.6331   21.1326 H   0  0  0  0  0  0
  -19.6559  -27.3237   20.6888 H   0  0  0  0  0  0
  -17.4196  -26.6556   21.4237 H   0  0  0  0  0  0
  -18.0332  -26.0084   22.9300 H   0  0  0  0  0  0
  -19.7888  -30.7292   24.2363 H   0  0  0  0  0  0
  -17.4945  -31.6248   24.5153 H   0  0  0  0  0  0
  -15.5353  -30.2907   23.7645 H   0  0  0  0  0  0
  -15.8726  -28.0718   22.7162 H   0  0  0  0  0  0
  -24.5930  -30.7016   25.7865 H   0  0  0  0  0  0
  -24.8906  -32.2837   26.4959 H   0  0  0  0  0  0
  -25.8112  -30.8887   27.0263 H   0  0  0  0  0  0
  -26.2773  -29.6866   24.1114 H   0  0  0  0  0  0
  -27.4042  -29.7224   25.4493 H   0  0  0  0  0  0
  -27.8616  -30.4377   23.9188 H   0  0  0  0  0  0
  -27.2650  -33.3614   26.2098 H   0  0  0  0  0  0
  -28.3831  -32.6915   25.0340 H   0  0  0  0  0  0
  -28.0729  -31.8459   26.5408 H   0  0  0  0  0  0
  -28.2588  -38.0125   24.7503 H   0  0  0  0  0  0
  -28.1075  -36.2660   24.6278 H   0  0  0  0  0  0
  -27.2295  -37.1476   25.8842 H   0  0  0  0  0  0
  -20.9362  -29.9074   21.7350 H   0  0  0  0  0  0
  -26.0188  -38.2873   24.1411 H   0  0  0  0  0  0
  -27.7344  -20.4481   19.0565 H   0  0  0  0  0  0
  -28.3774  -18.1126   18.9845 H   0  0  0  0  0  0
  -26.0646  -21.9066   19.7809 H   0  0  0  0  0  0
  -27.5748  -22.6369   19.2430 H   0  0  0  0  0  0
  -26.4166  -23.5590   20.1865 H   0  0  0  0  0  0
  -25.9712  -23.0637   22.5594 H   0  0  0  0  0  0
  -26.7101  -21.7109   23.3898 H   0  0  0  0  0  0
  -25.5849  -21.4186   22.0797 H   0  0  0  0  0  0
  -30.1017  -17.0527   18.2493 H   0  0  0  0  0  0
  -28.9034  -15.7791   18.4489 H   0  0  0  0  0  0
  -30.5799  -15.4204   18.0714 H   0  0  0  0  0  0
  -32.2937  -16.7482   19.5803 H   0  0  0  0  0  0
  -31.2515  -17.9841   20.1864 H   0  0  0  0  0  0
  -31.9934  -16.8519   21.3013 H   0  0  0  0  0  0
  -30.0635  -24.6101   21.2205 H   0  0  0  0  0  0
  -29.0325  -24.0893   19.9412 H   0  0  0  0  0  0
  -28.4225  -23.4440   22.8776 H   0  0  0  0  0  0
  -29.5884  -22.5396   22.0165 H   0  0  0  0  0  0
  -28.4635  -26.0528   22.1954 H   0  0  0  0  0  0
  -27.1332  -25.3182   21.3509 H   0  0  0  0  0  0
  1 25  1  0  0  0
  1 30  2  0  0  0
  1 84  1  0  0  0
  2  3  1  0  0  0
  2 25  1  0  0  0
  2 89  1  0  0  0
  2 90  1  0  0  0
  3  4  1  0  0  0
  3 91  1  0  0  0
  3 92  1  0  0  0
  4  5  1  0  0  0
  4 93  1  0  0  0
  4 94  1  0  0  0
  5  6  1  0  0  0
  5 26  1  0  0  0
  5 95  1  0  0  0
  6 25  1  0  0  0
  6 96  1  0  0  0
  6 97  1  0  0  0
  7  8  2  0  0  0
  7 26  1  0  0  0
  7 29  1  0  0  0
  8  9  1  0  0  0
  8 22  1  0  0  0
  9 10  1  0  0  0
  9 27  2  0  0  0
 10 11  2  0  0  0
 10 15  1  0  0  0
 11 12  1  0  0  0
 11 98  1  0  0  0
 12 13  2  0  0  0
 12 99  1  0  0  0
 13 14  1  0  0  0
 13 31  1  0  0  0
 14 15  2  0  0  0
 14100  1  0  0  0
 15101  1  0  0  0
 16 17  2  0  0  0
 16 21  1  0  0  0
 16 31  1  0  0  0
 17 18  1  0  0  0
 17102  1  0  0  0
 18 19  2  0  0  0
 18103  1  0  0  0
 19 20  1  0  0  0
 19 24  1  0  0  0
 20 21  2  0  0  0
 20104  1  0  0  0
 21 23  1  0  0  0
 22 28  1  0  0  0
 22 32  2  0  0  0
 26 27  1  0  0  0
 28105  1  0  0  0
 28106  1  0  0  0
 29107  1  0  0  0
 29108  1  0  0  0
 33 34  1  0  0  0
 33 66  1  0  0  0
 33 70  2  0  0  0
 34 36  1  0  0  0
 34 59  1  0  0  0
 34109  1  0  0  0
 35 44  2  0  0  0
 35 45  1  0  0  0
 35 68  1  0  0  0
 36 56  1  0  0  0
 36110  1  0  0  0
 37 39  1  0  0  0
 37 47  1  0  0  0
 37 66  1  0  0  0
 37111  1  0  0  0
 38 43  2  0  0  0
 38 46  1  0  0  0
 38 47  1  0  0  0
 39 64  1  0  0  0
 39 67  2  0  0  0
 40 52  1  0  0  0
 40 53  2  0  0  0
 40 58  1  0  0  0
 41112  1  0  0  0
 41113  1  0  0  0
 41114  1  0  0  0
 41 48  1  0  0  0
 42 43  1  0  0  0
 42 66  1  0  0  0
 42115  1  0  0  0
 42116  1  0  0  0
 43 44  1  0  0  0
 44117  1  0  0  0
 45 46  2  0  0  0
 45118  1  0  0  0
 46119  1  0  0  0
 47120  1  0  0  0
 47121  1  0  0  0
 48 56  1  0  0  0
 48 65  1  0  0  0
 48122  1  0  0  0
 49 50  1  0  0  0
 49 53  1  0  0  0
 49 64  1  0  0  0
 49123  1  0  0  0
 50 51  1  0  0  0
 50124  1  0  0  0
 50125  1  0  0  0
 51 52  1  0  0  0
 51126  1  0  0  0
 51127  1  0  0  0
 52128  1  0  0  0
 52129  1  0  0  0
 53 54  1  0  0  0
 54 55  2  0  0  0
 54130  1  0  0  0
 55 57  1  0  0  0
 55131  1  0  0  0
 56 69  2  0  0  0
 57 58  2  0  0  0
 57132  1  0  0  0
 58133  1  0  0  0
 59 60  1  0  0  0
 59 61  1  0  0  0
 59 62  1  0  0  0
 60134  1  0  0  0
 60135  1  0  0  0
 60136  1  0  0  0
 61137  1  0  0  0
 61138  1  0  0  0
 61139  1  0  0  0
 62140  1  0  0  0
 62141  1  0  0  0
 62142  1  0  0  0
 63 65  1  0  0  0
 63143  1  0  0  0
 63144  1  0  0  0
 63145  1  0  0  0
 64146  1  0  0  0
 65147  1  0  0  0
 68 81  1  0  0  0
 71 72  2  0  0  0
 71 73  1  0  0  0
 71148  1  0  0  0
 72 74  1  0  0  0
 72149  1  0  0  0
 73 82  1  0  0  0
 73 85  2  0  0  0
 74 83  1  0  0  0
 74 86  2  0  0  0
 75150  1  0  0  0
 75151  1  0  0  0
 75152  1  0  0  0
 75 82  1  0  0  0
 76 82  1  0  0  0
 76153  1  0  0  0
 76154  1  0  0  0
 76155  1  0  0  0
 77156  1  0  0  0
 77157  1  0  0  0
 77158  1  0  0  0
 77 84  1  0  0  0
 78 84  1  0  0  0
 78159  1  0  0  0
 78160  1  0  0  0
 78161  1  0  0  0
 79 80  1  0  0  0
 79 81  1  0  0  0
 79162  1  0  0  0
 79163  1  0  0  0
 80 82  1  0  0  0
 80164  1  0  0  0
 80165  1  0  0  0
 81166  1  0  0  0
 81167  1  0  0  0
 83 84  1  0  0  0
 83 87  1  0  0  0
 83 88  1  0  0  0
 85 86  1  0  0  0
M  ISO  4   1 100  68 101  81 101  84 100
M  END
> <chiral flag>
0

> <version>
0

> <s_m_source_file>
/data/baiqing/PycharmProjects/Reinvent-master-3.2/result/LINK_invent/BTK/process_docking_weight1_custom_sum_contain_oxygen_bond_distance_aromatic_linkinvent_7_9_3/rearranged_h_0072.sdf

> <i_m_source_file_index>
11

> <r_mmod_Potential_Energy-OPLS-2005>
236.325714111328

> <r_mmod_Stretch_Energy-OPLS-2005>
54.0181083679199

> <r_mmod_Bend_Energy-OPLS-2005>
142.802398681641

> <r_mmod_Torsional_Energy-OPLS-2005>
248.565795898438

> <r_mmod_Improper_Torsional_Energy-OPLS-2005>
13.3015718460083

> <r_mmod_Van_der_Waal_Energy-OPLS-2005>
188.707397460938

> <r_mmod_Electrostatic_Energy-OPLS-2005>
-263.157623291016

> <r_mmod_Solvation_Energy-OPLS-2005>
-196.926055908203

> <b_mmod_Minimization_Converged-OPLS-2005>
0

> <r_mmod_RMS_Derivative-OPLS-2005>
7.74626779556274

$$$$
12
                    3D
 Structure written by MMmdl.
166174  0  0  1  0            999 V2000
  -30.7240  -14.4431   20.6577 C   0  0  0  0  0  0
  -30.4411  -12.3201   19.4223 C   0  0  0  0  0  0
  -29.5086  -12.5325   18.2114 C   0  0  0  0  0  0
  -28.0316  -12.3615   18.6167 C   0  0  0  0  0  0
  -27.6671  -13.1965   19.8721 C   0  0  2  0  0  0
  -28.7047  -12.9564   20.9962 C   0  0  0  0  0  0
  -25.2504  -13.8064   20.5455 C   0  0  0  0  0  0
  -24.1793  -13.0393   20.9116 C   0  0  0  0  0  0
  -24.6375  -11.6868   20.8721 C   0  0  0  0  0  0
  -23.9026  -10.4270   21.0409 C   0  0  0  0  0  0
  -24.3588   -9.4202   21.9191 C   0  0  0  0  0  0
  -23.6279   -8.2242   22.0756 C   0  0  0  0  0  0
  -22.4265   -8.0272   21.3555 C   0  0  0  0  0  0
  -21.9884   -9.0236   20.4662 C   0  0  0  0  0  0
  -22.7200  -10.2109   20.3064 C   0  0  0  0  0  0
  -21.6846   -6.0740   22.5289 C   0  0  0  0  0  0
  -21.4011   -6.5639   23.8218 C   0  0  0  0  0  0
  -21.3641   -5.6784   24.9175 C   0  0  0  0  0  0
  -21.6052   -4.3055   24.7231 C   0  0  0  0  0  0
  -21.8815   -3.8148   23.4353 C   0  0  0  0  0  0
  -21.9186   -4.6970   22.3406 C   0  0  0  0  0  0
  -22.7822  -13.5235   21.1805 C   0  0  0  0  0  0
  -22.1659   -4.2149   21.0987 F   0  0  0  0  0  0
  -21.5611   -3.4541   25.7745 F   0  0  0  0  0  0
  -30.0514  -13.2724   20.4742 N   0  0  0  0  0  0
  -26.3016  -12.9266   20.3277 N   0  0  0  0  0  0
  -25.9310  -11.6445   20.5757 N   0  0  0  0  0  0
  -22.0420  -12.8284   22.0364 N   0  0  0  0  0  0
  -25.4002  -15.1736   20.3540 N   0  0  0  0  0  0
  -31.7744  -14.7190   20.0714 O   0  0  0  0  0  0
  -21.6630   -6.8885   21.4254 O   0  0  0  0  0  0
  -22.3522  -14.5562   20.6659 O   0  0  0  0  0  0
  -24.6137  -31.8672   23.2089 C   0  0  0  0  0  0
  -25.9021  -32.4819   23.8395 C   0  0  1  0  0  0
  -27.2239  -27.4340   20.0984 C   0  0  0  0  0  0
  -25.5867  -33.8618   24.2317 N   0  0  0  0  0  0
  -23.4037  -30.4896   21.5510 C   0  0  2  0  0  0
  -24.8489  -28.9596   20.1129 C   0  0  0  0  0  0
  -22.7440  -29.4618   22.4992 C   0  0  0  0  0  0
  -18.0279  -28.1394   22.8523 C   0  0  0  0  0  0
  -24.1486  -36.7332   23.2650 C   0  0  0  0  0  0
  -25.9320  -30.8356   21.3598 C   0  0  0  0  0  0
  -26.0101  -29.4712   20.7080 C   0  0  0  0  0  0
  -27.2059  -28.7148   20.6963 C   0  0  0  0  0  0
  -26.0528  -26.9367   19.4949 C   0  0  0  0  0  0
  -24.8662  -27.6940   19.5013 C   0  0  0  0  0  0
  -23.6089  -29.8255   20.1648 C   0  0  0  0  0  0
  -25.4102  -36.3116   24.0344 C   0  0  1  0  0  0
  -20.5873  -28.3643   23.1355 C   0  0  2  0  0  0
  -20.6740  -26.9376   22.5443 C   0  0  0  0  0  0
  -19.5706  -26.6388   21.5251 C   0  0  0  0  0  0
  -18.1898  -26.7945   22.1665 C   0  0  0  0  0  0
  -19.1531  -28.8837   23.2928 C   0  0  0  0  0  0
  -18.9455  -30.1458   23.8914 C   0  0  0  0  0  0
  -17.6448  -30.6587   24.0587 C   0  0  0  0  0  0
  -25.9023  -34.9473   23.5142 C   0  0  0  0  0  0
  -16.5344  -29.9095   23.6342 C   0  0  0  0  0  0
  -16.7262  -28.6524   23.0352 C   0  0  0  0  0  0
  -26.4466  -31.6607   25.0728 C   0  0  0  0  0  0
  -25.3738  -31.3707   26.1495 C   0  0  0  0  0  0
  -27.0294  -30.3055   24.6071 C   0  0  0  0  0  0
  -27.6049  -32.4342   25.7450 C   0  0  0  0  0  0
  -27.5581  -37.1820   24.8462 C   0  0  0  0  0  0
  -21.4160  -29.3017   22.3761 N   0  0  0  0  0  0
  -26.4290  -37.3795   23.9408 N   0  0  0  0  0  0
  -24.6685  -31.0771   22.1000 N   0  0  0  0  0  0
  -23.4226  -28.8152   23.3005 O   0  0  0  0  0  0
  -28.3526  -26.6457   20.1192 O   0  0  0  0  0  0
  -26.5614  -34.8928   22.4713 O   0  0  0  0  0  0
  -23.5328  -32.1417   23.7495 O   0  0  0  0  0  0
  -28.1987  -21.1645   20.6453 C   0  0  0  0  0  0
  -29.4244  -21.8556   20.6529 C   0  0  0  0  0  0
  -30.5677  -21.0244   20.7307 C   0  0  0  0  0  0
  -29.2649  -19.1314   20.8600 C   0  0  0  0  0  0
  -32.6925  -20.9471   19.3687 C   0  0  0  0  0  0
  -29.3348  -17.2736   19.1857 C   0  0  0  0  0  0
  -27.8073  -17.0906   21.1859 C   0  0  0  0  0  0
  -29.5022  -23.3993   20.5849 C   0  0  0  0  0  0
  -32.0023  -21.5198   20.6231 C   0  0  0  0  0  0
  -28.1765  -24.1940   20.7719 C   0  0  0  0  0  0
  -30.2801  -16.8013   21.5110 C   0  0  0  0  0  0
  -28.3528  -25.6836   21.1883 C   0  0  0  0  0  0
  -29.1867  -17.5859   20.6902 C   0  0  0  0  0  0
  -28.1342  -19.8240   20.7257 N   0  0  0  0  0  0
  -30.4675  -19.6855   20.8466 N   0  0  0  0  0  0
  -30.1101  -15.3273   21.4630 N   0  0  0  0  0  0
  -31.4837  -12.4418   19.1230 H   0  0  0  0  0  0
  -30.3556  -11.2992   19.7968 H   0  0  0  0  0  0
  -29.7697  -11.8352   17.4161 H   0  0  0  0  0  0
  -29.6648  -13.5325   17.8024 H   0  0  0  0  0  0
  -27.8672  -11.3021   18.8195 H   0  0  0  0  0  0
  -27.3777  -12.6128   17.7815 H   0  0  0  0  0  0
  -27.7188  -14.2447   19.5827 H   0  0  0  0  0  0
  -28.6768  -11.9116   21.3101 H   0  0  0  0  0  0
  -28.4359  -13.5240   21.8866 H   0  0  0  0  0  0
  -25.2731   -9.5694   22.4753 H   0  0  0  0  0  0
  -24.0003   -7.4642   22.7470 H   0  0  0  0  0  0
  -21.0810   -8.8736   19.8991 H   0  0  0  0  0  0
  -22.3653  -10.9635   19.6163 H   0  0  0  0  0  0
  -21.2014   -7.6145   23.9732 H   0  0  0  0  0  0
  -21.1454   -6.0508   25.9076 H   0  0  0  0  0  0
  -22.0614   -2.7618   23.2847 H   0  0  0  0  0  0
  -22.4002  -12.0005   22.4874 H   0  0  0  0  0  0
  -21.1060  -13.1397   22.2520 H   0  0  0  0  0  0
  -24.6271  -15.8243   20.4385 H   0  0  0  0  0  0
  -26.2444  -15.6086   20.0062 H   0  0  0  0  0  0
  -26.7094  -32.5543   23.1163 H   0  0  0  0  0  0
  -24.9959  -33.9757   25.0427 H   0  0  0  0  0  0
  -22.6920  -31.3054   21.4162 H   0  0  0  0  0  0
  -23.3726  -35.9690   23.3325 H   0  0  0  0  0  0
  -24.3577  -36.8934   22.2063 H   0  0  0  0  0  0
  -23.7263  -37.6551   23.6657 H   0  0  0  0  0  0
  -26.0396  -31.6024   20.5909 H   0  0  0  0  0  0
  -26.8232  -30.8924   21.9722 H   0  0  0  0  0  0
  -28.1026  -29.0986   21.1621 H   0  0  0  0  0  0
  -26.0533  -25.9576   19.0381 H   0  0  0  0  0  0
  -23.9731  -27.2989   19.0368 H   0  0  0  0  0  0
  -23.7056  -30.6017   19.4037 H   0  0  0  0  0  0
  -22.7356  -29.2378   19.8749 H   0  0  0  0  0  0
  -25.1274  -36.1996   25.0837 H   0  0  0  0  0  0
  -20.9969  -28.3195   24.1473 H   0  0  0  0  0  0
  -20.5647  -26.2242   23.3627 H   0  0  0  0  0  0
  -21.6606  -26.7406   22.1225 H   0  0  0  0  0  0
  -19.6823  -25.6306   21.1260 H   0  0  0  0  0  0
  -19.6639  -27.3220   20.6801 H   0  0  0  0  0  0
  -17.4165  -26.6753   21.4054 H   0  0  0  0  0  0
  -18.0238  -26.0076   22.9040 H   0  0  0  0  0  0
  -19.7913  -30.7305   24.2266 H   0  0  0  0  0  0
  -17.4988  -31.6267   24.5202 H   0  0  0  0  0  0
  -15.5332  -30.2998   23.7643 H   0  0  0  0  0  0
  -15.8680  -28.0856   22.7023 H   0  0  0  0  0  0
  -24.5868  -30.7099   25.7833 H   0  0  0  0  0  0
  -24.8978  -32.2871   26.5004 H   0  0  0  0  0  0
  -25.8103  -30.8825   27.0221 H   0  0  0  0  0  0
  -26.2819  -29.6797   24.1186 H   0  0  0  0  0  0
  -27.4152  -29.7300   25.4493 H   0  0  0  0  0  0
  -27.8613  -30.4381   23.9148 H   0  0  0  0  0  0
  -27.2668  -33.3622   26.2071 H   0  0  0  0  0  0
  -28.3811  -32.6955   25.0241 H   0  0  0  0  0  0
  -28.0791  -31.8464   26.5318 H   0  0  0  0  0  0
  -28.2621  -38.0101   24.7495 H   0  0  0  0  0  0
  -28.1060  -36.2633   24.6300 H   0  0  0  0  0  0
  -27.2306  -37.1494   25.8871 H   0  0  0  0  0  0
  -20.9313  -29.8787   21.7039 H   0  0  0  0  0  0
  -26.0185  -38.2878   24.1395 H   0  0  0  0  0  0
  -27.2515  -21.6741   20.5559 H   0  0  0  0  0  0
  -33.6708  -21.3970   19.2049 H   0  0  0  0  0  0
  -32.0926  -21.1130   18.4716 H   0  0  0  0  0  0
  -32.8408  -19.8684   19.4638 H   0  0  0  0  0  0
  -28.5793  -17.7962   18.5977 H   0  0  0  0  0  0
  -29.2477  -16.2117   18.9636 H   0  0  0  0  0  0
  -30.3094  -17.6052   18.8241 H   0  0  0  0  0  0
  -26.9975  -17.4902   20.5743 H   0  0  0  0  0  0
  -27.6226  -17.4021   22.2134 H   0  0  0  0  0  0
  -27.7205  -16.0083   21.1609 H   0  0  0  0  0  0
  -29.9735  -23.7027   19.6490 H   0  0  0  0  0  0
  -30.1776  -23.7103   21.3829 H   0  0  0  0  0  0
  -32.5448  -21.2138   21.5193 H   0  0  0  0  0  0
  -32.0449  -22.6083   20.6069 H   0  0  0  0  0  0
  -27.6320  -23.7283   21.5943 H   0  0  0  0  0  0
  -27.5252  -24.1064   19.9016 H   0  0  0  0  0  0
  -30.2182  -17.1042   22.5587 H   0  0  0  0  0  0
  -31.2842  -17.0786   21.1861 H   0  0  0  0  0  0
  -29.2794  -25.8100   21.7470 H   0  0  0  0  0  0
  -27.5673  -25.9220   21.9099 H   0  0  0  0  0  0
  -29.3298  -14.9567   21.9828 H   0  0  0  0  0  0
  1 25  1  0  0  0
  1 30  2  0  0  0
  1 86  1  0  0  0
  2  3  1  0  0  0
  2 25  1  0  0  0
  2 87  1  0  0  0
  2 88  1  0  0  0
  3  4  1  0  0  0
  3 89  1  0  0  0
  3 90  1  0  0  0
  4  5  1  0  0  0
  4 91  1  0  0  0
  4 92  1  0  0  0
  5  6  1  0  0  0
  5 26  1  0  0  0
  5 93  1  0  0  0
  6 25  1  0  0  0
  6 94  1  0  0  0
  6 95  1  0  0  0
  7  8  2  0  0  0
  7 26  1  0  0  0
  7 29  1  0  0  0
  8  9  1  0  0  0
  8 22  1  0  0  0
  9 10  1  0  0  0
  9 27  2  0  0  0
 10 11  2  0  0  0
 10 15  1  0  0  0
 11 12  1  0  0  0
 11 96  1  0  0  0
 12 13  2  0  0  0
 12 97  1  0  0  0
 13 14  1  0  0  0
 13 31  1  0  0  0
 14 15  2  0  0  0
 14 98  1  0  0  0
 15 99  1  0  0  0
 16 17  2  0  0  0
 16 21  1  0  0  0
 16 31  1  0  0  0
 17 18  1  0  0  0
 17100  1  0  0  0
 18 19  2  0  0  0
 18101  1  0  0  0
 19 20  1  0  0  0
 19 24  1  0  0  0
 20 21  2  0  0  0
 20102  1  0  0  0
 21 23  1  0  0  0
 22 28  1  0  0  0
 22 32  2  0  0  0
 26 27  1  0  0  0
 28103  1  0  0  0
 28104  1  0  0  0
 29105  1  0  0  0
 29106  1  0  0  0
 33 34  1  0  0  0
 33 66  1  0  0  0
 33 70  2  0  0  0
 34 36  1  0  0  0
 34 59  1  0  0  0
 34107  1  0  0  0
 35 44  2  0  0  0
 35 45  1  0  0  0
 35 68  1  0  0  0
 36 56  1  0  0  0
 36108  1  0  0  0
 37 39  1  0  0  0
 37 47  1  0  0  0
 37 66  1  0  0  0
 37109  1  0  0  0
 38 43  2  0  0  0
 38 46  1  0  0  0
 38 47  1  0  0  0
 39 64  1  0  0  0
 39 67  2  0  0  0
 40 52  1  0  0  0
 40 53  2  0  0  0
 40 58  1  0  0  0
 41110  1  0  0  0
 41111  1  0  0  0
 41112  1  0  0  0
 41 48  1  0  0  0
 42 43  1  0  0  0
 42 66  1  0  0  0
 42113  1  0  0  0
 42114  1  0  0  0
 43 44  1  0  0  0
 44115  1  0  0  0
 45 46  2  0  0  0
 45116  1  0  0  0
 46117  1  0  0  0
 47118  1  0  0  0
 47119  1  0  0  0
 48 56  1  0  0  0
 48 65  1  0  0  0
 48120  1  0  0  0
 49 50  1  0  0  0
 49 53  1  0  0  0
 49 64  1  0  0  0
 49121  1  0  0  0
 50 51  1  0  0  0
 50122  1  0  0  0
 50123  1  0  0  0
 51 52  1  0  0  0
 51124  1  0  0  0
 51125  1  0  0  0
 52126  1  0  0  0
 52127  1  0  0  0
 53 54  1  0  0  0
 54 55  2  0  0  0
 54128  1  0  0  0
 55 57  1  0  0  0
 55129  1  0  0  0
 56 69  2  0  0  0
 57 58  2  0  0  0
 57130  1  0  0  0
 58131  1  0  0  0
 59 60  1  0  0  0
 59 61  1  0  0  0
 59 62  1  0  0  0
 60132  1  0  0  0
 60133  1  0  0  0
 60134  1  0  0  0
 61135  1  0  0  0
 61136  1  0  0  0
 61137  1  0  0  0
 62138  1  0  0  0
 62139  1  0  0  0
 62140  1  0  0  0
 63 65  1  0  0  0
 63141  1  0  0  0
 63142  1  0  0  0
 63143  1  0  0  0
 64144  1  0  0  0
 65145  1  0  0  0
 68 82  1  0  0  0
 71 72  2  0  0  0
 71 84  1  0  0  0
 71146  1  0  0  0
 72 73  1  0  0  0
 72 78  1  0  0  0
 73 79  1  0  0  0
 73 85  2  0  0  0
 74 83  1  0  0  0
 74 84  2  0  0  0
 74 85  1  0  0  0
 75 79  1  0  0  0
 75147  1  0  0  0
 75148  1  0  0  0
 75149  1  0  0  0
 76150  1  0  0  0
 76151  1  0  0  0
 76152  1  0  0  0
 76 83  1  0  0  0
 77 83  1  0  0  0
 77153  1  0  0  0
 77154  1  0  0  0
 77155  1  0  0  0
 78 80  1  0  0  0
 78156  1  0  0  0
 78157  1  0  0  0
 79158  1  0  0  0
 79159  1  0  0  0
 80 82  1  0  0  0
 80160  1  0  0  0
 80161  1  0  0  0
 81 83  1  0  0  0
 81 86  1  0  0  0
 81162  1  0  0  0
 81163  1  0  0  0
 82164  1  0  0  0
 82165  1  0  0  0
 86166  1  0  0  0
M  ISO  4   1 100  68 101  82 101  86 100
M  END
> <chiral flag>
0

> <version>
0

> <s_m_source_file>
/data/baiqing/PycharmProjects/Reinvent-master-3.2/result/LINK_invent/BTK/process_docking_weight1_custom_sum_contain_oxygen_bond_distance_aromatic_linkinvent_7_9_3/rearranged_h_0072.sdf

> <i_m_source_file_index>
12

> <r_mmod_Potential_Energy-OPLS-2005>
-448.085144042969

> <r_mmod_Stretch_Energy-OPLS-2005>
44.1132621765137

> <r_mmod_Bend_Energy-OPLS-2005>
110.391372680664

> <r_mmod_Torsional_Energy-OPLS-2005>
225.46662902832

> <r_mmod_Improper_Torsional_Energy-OPLS-2005>
5.13634777069092

> <r_mmod_Van_der_Waal_Energy-OPLS-2005>
163.620742797852

> <r_mmod_Electrostatic_Energy-OPLS-2005>
-793.301086425781

> <r_mmod_Solvation_Energy-OPLS-2005>
-215.874725341797

> <b_mmod_Minimization_Converged-OPLS-2005>
0

> <r_mmod_RMS_Derivative-OPLS-2005>
3.92100596427917

$$$$
13
                    3D
 Structure written by MMmdl.
172180  0  0  1  0            999 V2000
  -30.9306  -13.9568   20.4543 C   0  0  0  0  0  0
  -31.1265  -11.8298   18.9599 C   0  0  0  0  0  0
  -29.8093  -12.3984   17.5844 C   0  0  0  0  0  0
  -28.2352  -13.4385   18.1344 C   0  0  0  0  0  0
  -27.8747  -13.9093   20.0306 C   0  0  2  0  0  0
  -29.0145  -13.2946   21.4259 C   0  0  0  0  0  0
  -25.8761  -14.1412   21.0644 C   0  0  0  0  0  0
  -24.1190  -13.4082   20.8075 C   0  0  0  0  0  0
  -23.9970  -12.1340   20.4854 C   0  0  0  0  0  0
  -23.6544  -10.6785   20.9606 C   0  0  0  0  0  0
  -24.1812   -9.7002   21.8948 C   0  0  0  0  0  0
  -23.5892   -8.4130   22.0662 C   0  0  0  0  0  0
  -22.4241   -8.0712   21.3420 C   0  0  0  0  0  0
  -21.9386   -8.9916   20.4076 C   0  0  0  0  0  0
  -22.5535  -10.2352   20.2135 C   0  0  0  0  0  0
  -21.7269   -6.0820   22.5292 C   0  0  0  0  0  0
  -21.4317   -6.5742   23.8190 C   0  0  0  0  0  0
  -21.3749   -5.6876   24.9145 C   0  0  0  0  0  0
  -21.6033   -4.3110   24.7227 C   0  0  0  0  0  0
  -21.8786   -3.8173   23.4366 C   0  0  0  0  0  0
  -21.9332   -4.7000   22.3433 C   0  0  0  0  0  0
  -22.5111  -13.7577   21.0774 C   0  0  0  0  0  0
  -22.1716   -4.2139   21.1009 F   0  0  0  0  0  0
  -21.5538   -3.4593   25.7739 F   0  0  0  0  0  0
  -30.6049  -12.7414   20.5944 N   0  0  0  0  0  0
  -26.6959  -13.7710   20.9012 N   0  0  0  0  0  0
  -24.8471  -13.3454   20.7894 N   0  0  0  0  0  0
  -21.8492  -12.9838   21.9507 N   0  0  0  0  0  0
  -26.6356  -15.3173   21.5666 N   0  0  0  0  0  0
  -31.8876  -14.5966   20.0230 O   0  0  0  0  0  0
  -21.7298   -6.8847   21.4168 O   0  0  0  0  0  0
  -21.9873  -14.7146   20.5297 O   0  0  0  0  0  0
  -24.6953  -31.7942   23.1655 C   0  0  0  0  0  0
  -25.9543  -32.4408   23.8116 C   0  0  1  0  0  0
  -26.6990  -26.4463   20.1779 C   0  0  0  0  0  0
  -25.6118  -33.8266   24.1949 N   0  0  0  0  0  0
  -23.4949  -30.4426   21.5297 C   0  0  2  0  0  0
  -24.8588  -28.8098   20.0640 C   0  0  0  0  0  0
  -22.7725  -29.4355   22.4662 C   0  0  0  0  0  0
  -18.0322  -28.1419   22.8446 C   0  0  0  0  0  0
  -24.1491  -36.7107   23.2649 C   0  0  0  0  0  0
  -26.0824  -30.4153   21.4735 C   0  0  0  0  0  0
  -26.0410  -28.9854   20.7851 C   0  0  0  0  0  0
  -26.9774  -27.8088   20.8309 C   0  0  0  0  0  0
  -25.6497  -26.6203   19.2824 C   0  0  0  0  0  0
  -24.7296  -27.6771   19.2717 C   0  0  0  0  0  0
  -23.7243  -29.8257   20.1298 C   0  0  0  0  0  0
  -25.4162  -36.2874   24.0268 C   0  0  1  0  0  0
  -20.5959  -28.3777   23.1116 C   0  0  2  0  0  0
  -20.6798  -26.9434   22.5384 C   0  0  0  0  0  0
  -19.5771  -26.6360   21.5205 C   0  0  0  0  0  0
  -18.1953  -26.7947   22.1607 C   0  0  0  0  0  0
  -19.1588  -28.8920   23.2771 C   0  0  0  0  0  0
  -18.9498  -30.1503   23.8824 C   0  0  0  0  0  0
  -17.6490  -30.6601   24.0554 C   0  0  0  0  0  0
  -25.9172  -34.9268   23.4932 C   0  0  0  0  0  0
  -16.5381  -29.9083   23.6352 C   0  0  0  0  0  0
  -16.7304  -28.6507   23.0365 C   0  0  0  0  0  0
  -26.4656  -31.6560   25.0833 C   0  0  0  0  0  0
  -25.3669  -31.3965   26.1421 C   0  0  0  0  0  0
  -27.0633  -30.2875   24.6942 C   0  0  0  0  0  0
  -27.6071  -32.4492   25.7614 C   0  0  0  0  0  0
  -27.5577  -37.1724   24.8463 C   0  0  0  0  0  0
  -21.4378  -29.3044   22.3440 N   0  0  0  0  0  0
  -26.4277  -37.3655   23.9413 N   0  0  0  0  0  0
  -24.7888  -30.9259   22.1016 N   0  0  0  0  0  0
  -23.4202  -28.7853   23.2908 O   0  0  0  0  0  0
  -27.1475  -24.9401   20.2865 O   0  0  0  0  0  0
  -26.5765  -34.8859   22.4521 O   0  0  0  0  0  0
  -23.5987  -32.1164   23.6567 O   0  0  0  0  0  0
  -24.3763  -15.1473   22.3329 C   0  0  0  0  0  0
  -25.2057  -13.1780   22.9990 C   0  0  0  0  0  0
  -24.6345  -15.7061   20.1394 C   0  0  0  0  0  0
  -26.1651  -12.1191   19.5337 C   0  0  0  0  0  0
  -25.2118  -12.7951   24.4564 C   0  0  0  0  0  0
  -27.1799  -10.7315   17.5876 C   0  0  0  0  0  0
  -27.0656   -9.8046   19.7470 C   0  0  0  0  0  0
  -24.8682  -23.6121   20.4614 C   0  0  0  0  0  0
  -26.3991  -23.2465   18.4352 C   0  0  0  0  0  0
  -25.4028  -17.5232   20.0519 C   0  0  0  0  0  0
  -25.2729  -19.5502   19.9667 C   0  0  0  0  0  0
  -26.2998  -21.2922   20.2647 C   0  0  0  0  0  0
  -28.8434  -11.6686   19.6779 C   0  0  0  0  0  0
  -27.3309  -11.1984   19.0797 C   0  0  0  0  0  0
  -26.2954  -23.3078   19.9719 C   0  0  0  0  0  0
  -26.0826  -11.7589   21.6679 N   0  0  0  0  0  0
  -25.4775  -14.1042   18.8195 N   0  0  0  0  0  0
  -30.0827  -13.5531   19.5843 N   0  0  0  0  0  0
  -32.1201  -12.1735   18.6635 H   0  0  0  0  0  0
  -31.2528  -10.7514   19.0839 H   0  0  0  0  0  0
  -29.5497  -11.5401   16.9693 H   0  0  0  0  0  0
  -30.3552  -13.0212   16.8741 H   0  0  0  0  0  0
  -28.5011  -14.4199   17.7366 H   0  0  0  0  0  0
  -27.3670  -13.3382   17.4955 H   0  0  0  0  0  0
  -28.1168  -14.9712   19.8960 H   0  0  0  0  0  0
  -28.5814  -12.5375   22.0818 H   0  0  0  0  0  0
  -29.1777  -14.1176   22.1322 H   0  0  0  0  0  0
  -25.0267   -9.9004   22.5313 H   0  0  0  0  0  0
  -24.0134   -7.7174   22.7767 H   0  0  0  0  0  0
  -21.0681   -8.7386   19.8187 H   0  0  0  0  0  0
  -22.1162  -10.8933   19.4745 H   0  0  0  0  0  0
  -21.2431   -7.6272   23.9686 H   0  0  0  0  0  0
  -21.1549   -6.0626   25.9033 H   0  0  0  0  0  0
  -22.0432   -2.7614   23.2860 H   0  0  0  0  0  0
  -22.3096  -12.2152   22.4117 H   0  0  0  0  0  0
  -20.8826  -13.1832   22.1645 H   0  0  0  0  0  0
  -25.7793  -15.6233   22.0577 H   0  0  0  0  0  0
  -26.8906  -15.9744   20.8488 H   0  0  0  0  0  0
  -26.7583  -32.4705   23.0763 H   0  0  0  0  0  0
  -25.0260  -33.9311   25.0103 H   0  0  0  0  0  0
  -22.8255  -31.2943   21.3905 H   0  0  0  0  0  0
  -23.3816  -35.9371   23.3247 H   0  0  0  0  0  0
  -24.3554  -36.8846   22.2080 H   0  0  0  0  0  0
  -23.7181  -37.6233   23.6775 H   0  0  0  0  0  0
  -26.3624  -31.1327   20.7011 H   0  0  0  0  0  0
  -26.9194  -30.4183   22.1569 H   0  0  0  0  0  0
  -27.8255  -27.8800   21.4952 H   0  0  0  0  0  0
  -25.3625  -25.8152   18.6384 H   0  0  0  0  0  0
  -23.8650  -27.5884   18.6295 H   0  0  0  0  0  0
  -23.9570  -30.6200   19.4193 H   0  0  0  0  0  0
  -22.7996  -29.3744   19.7683 H   0  0  0  0  0  0
  -25.1367  -36.1622   25.0754 H   0  0  0  0  0  0
  -21.0040  -28.3407   24.1243 H   0  0  0  0  0  0
  -20.5682  -26.2390   23.3645 H   0  0  0  0  0  0
  -21.6658  -26.7402   22.1190 H   0  0  0  0  0  0
  -19.6927  -25.6246   21.1293 H   0  0  0  0  0  0
  -19.6718  -27.3122   20.6697 H   0  0  0  0  0  0
  -17.4226  -26.6677   21.4015 H   0  0  0  0  0  0
  -18.0346  -26.0110   22.9019 H   0  0  0  0  0  0
  -19.7980  -30.7330   24.2165 H   0  0  0  0  0  0
  -17.5050  -31.6279   24.5163 H   0  0  0  0  0  0
  -15.5383  -30.2967   23.7729 H   0  0  0  0  0  0
  -15.8700  -28.0819   22.7112 H   0  0  0  0  0  0
  -24.5847  -30.7314   25.7747 H   0  0  0  0  0  0
  -24.8879  -32.3228   26.4612 H   0  0  0  0  0  0
  -25.7805  -30.9288   27.0361 H   0  0  0  0  0  0
  -26.3364  -29.6368   24.2076 H   0  0  0  0  0  0
  -27.4065  -29.7489   25.5784 H   0  0  0  0  0  0
  -27.9373  -30.3973   24.0517 H   0  0  0  0  0  0
  -27.2576  -33.3874   26.1936 H   0  0  0  0  0  0
  -28.3985  -32.6940   25.0517 H   0  0  0  0  0  0
  -28.0634  -31.8829   26.5742 H   0  0  0  0  0  0
  -28.2525  -38.0086   24.7575 H   0  0  0  0  0  0
  -28.1142  -36.2614   24.6213 H   0  0  0  0  0  0
  -27.2304  -37.1268   25.8864 H   0  0  0  0  0  0
  -20.9636  -29.8808   21.6634 H   0  0  0  0  0  0
  -26.0094  -38.2690   24.1447 H   0  0  0  0  0  0
  -24.0651  -15.8773   23.0690 H   0  0  0  0  0  0
  -24.8456  -13.6174   25.0689 H   0  0  0  0  0  0
  -26.2248  -12.5451   24.7710 H   0  0  0  0  0  0
  -24.5768  -11.9252   24.6159 H   0  0  0  0  0  0
  -26.2158  -10.2441   17.4303 H   0  0  0  0  0  0
  -27.9419   -9.9958   17.3277 H   0  0  0  0  0  0
  -27.2174  -11.4823   16.8072 H   0  0  0  0  0  0
  -26.0504   -9.4507   19.5625 H   0  0  0  0  0  0
  -27.2019   -9.7886   20.8268 H   0  0  0  0  0  0
  -27.7447   -9.0348   19.3782 H   0  0  0  0  0  0
  -24.2028  -22.7699   20.2671 H   0  0  0  0  0  0
  -24.4062  -24.4702   19.9861 H   0  0  0  0  0  0
  -24.8649  -23.7886   21.5373 H   0  0  0  0  0  0
  -25.7830  -22.4419   18.0321 H   0  0  0  0  0  0
  -27.4279  -23.0346   18.1436 H   0  0  0  0  0  0
  -26.1119  -24.1438   17.9045 H   0  0  0  0  0  0
  -26.2446  -17.3308   19.3883 H   0  0  0  0  0  0
  -25.8274  -17.5423   21.0511 H   0  0  0  0  0  0
  -24.3927  -19.7261   20.5854 H   0  0  0  0  0  0
  -24.9006  -19.6923   18.9516 H   0  0  0  0  0  0
  -27.2735  -21.0291   19.8510 H   0  0  0  0  0  0
  -26.4759  -21.2444   21.3389 H   0  0  0  0  0  0
  -29.2383  -10.7586   19.2293 H   0  0  0  0  0  0
  -28.8692  -11.1580   20.6463 H   0  0  0  0  0  0
  -30.0579  -14.0529   18.7102 H   0  0  0  0  0  0
  1 25  1  0  0  0
  1 30  2  0  0  0
  1 88  1  0  0  0
  2  3  1  0  0  0
  2 25  1  0  0  0
  2 89  1  0  0  0
  2 90  1  0  0  0
  3  4  1  0  0  0
  3 91  1  0  0  0
  3 92  1  0  0  0
  4  5  1  0  0  0
  4 93  1  0  0  0
  4 94  1  0  0  0
  5  6  1  0  0  0
  5 26  1  0  0  0
  5 95  1  0  0  0
  6 25  1  0  0  0
  6 96  1  0  0  0
  6 97  1  0  0  0
  7  8  2  0  0  0
  7 26  1  0  0  0
  7 29  1  0  0  0
  8  9  1  0  0  0
  8 22  1  0  0  0
  9 10  1  0  0  0
  9 27  2  0  0  0
 10 11  2  0  0  0
 10 15  1  0  0  0
 11 12  1  0  0  0
 11 98  1  0  0  0
 12 13  2  0  0  0
 12 99  1  0  0  0
 13 14  1  0  0  0
 13 31  1  0  0  0
 14 15  2  0  0  0
 14100  1  0  0  0
 15101  1  0  0  0
 16 17  2  0  0  0
 16 21  1  0  0  0
 16 31  1  0  0  0
 17 18  1  0  0  0
 17102  1  0  0  0
 18 19  2  0  0  0
 18103  1  0  0  0
 19 20  1  0  0  0
 19 24  1  0  0  0
 20 21  2  0  0  0
 20104  1  0  0  0
 21 23  1  0  0  0
 22 28  1  0  0  0
 22 32  2  0  0  0
 26 27  1  0  0  0
 28105  1  0  0  0
 28106  1  0  0  0
 29107  1  0  0  0
 29108  1  0  0  0
 33 34  1  0  0  0
 33 66  1  0  0  0
 33 70  2  0  0  0
 34 36  1  0  0  0
 34 59  1  0  0  0
 34109  1  0  0  0
 35 44  2  0  0  0
 35 45  1  0  0  0
 35 68  1  0  0  0
 36 56  1  0  0  0
 36110  1  0  0  0
 37 39  1  0  0  0
 37 47  1  0  0  0
 37 66  1  0  0  0
 37111  1  0  0  0
 38 43  2  0  0  0
 38 46  1  0  0  0
 38 47  1  0  0  0
 39 64  1  0  0  0
 39 67  2  0  0  0
 40 52  1  0  0  0
 40 53  2  0  0  0
 40 58  1  0  0  0
 41112  1  0  0  0
 41113  1  0  0  0
 41114  1  0  0  0
 41 48  1  0  0  0
 42 43  1  0  0  0
 42 66  1  0  0  0
 42115  1  0  0  0
 42116  1  0  0  0
 43 44  1  0  0  0
 44117  1  0  0  0
 45 46  2  0  0  0
 45118  1  0  0  0
 46119  1  0  0  0
 47120  1  0  0  0
 47121  1  0  0  0
 48 56  1  0  0  0
 48 65  1  0  0  0
 48122  1  0  0  0
 49 50  1  0  0  0
 49 53  1  0  0  0
 49 64  1  0  0  0
 49123  1  0  0  0
 50 51  1  0  0  0
 50124  1  0  0  0
 50125  1  0  0  0
 51 52  1  0  0  0
 51126  1  0  0  0
 51127  1  0  0  0
 52128  1  0  0  0
 52129  1  0  0  0
 53 54  1  0  0  0
 54 55  2  0  0  0
 54130  1  0  0  0
 55 57  1  0  0  0
 55131  1  0  0  0
 56 69  2  0  0  0
 57 58  2  0  0  0
 57132  1  0  0  0
 58133  1  0  0  0
 59 60  1  0  0  0
 59 61  1  0  0  0
 59 62  1  0  0  0
 60134  1  0  0  0
 60135  1  0  0  0
 60136  1  0  0  0
 61137  1  0  0  0
 61138  1  0  0  0
 61139  1  0  0  0
 62140  1  0  0  0
 62141  1  0  0  0
 62142  1  0  0  0
 63 65  1  0  0  0
 63143  1  0  0  0
 63144  1  0  0  0
 63145  1  0  0  0
 64146  1  0  0  0
 65147  1  0  0  0
 68 85  1  0  0  0
 71 72  2  0  0  0
 71 73  1  0  0  0
 71148  1  0  0  0
 72 75  1  0  0  0
 72 86  1  0  0  0
 73 80  1  0  0  0
 73 87  2  0  0  0
 74 84  1  0  0  0
 74 86  2  0  0  0
 74 87  1  0  0  0
 75149  1  0  0  0
 75150  1  0  0  0
 75151  1  0  0  0
 76152  1  0  0  0
 76153  1  0  0  0
 76154  1  0  0  0
 76 84  1  0  0  0
 77 84  1  0  0  0
 77155  1  0  0  0
 77156  1  0  0  0
 77157  1  0  0  0
 78158  1  0  0  0
 78159  1  0  0  0
 78160  1  0  0  0
 78 85  1  0  0  0
 79 85  1  0  0  0
 79161  1  0  0  0
 79162  1  0  0  0
 79163  1  0  0  0
 80 81  1  0  0  0
 80164  1  0  0  0
 80165  1  0  0  0
 81 82  1  0  0  0
 81166  1  0  0  0
 81167  1  0  0  0
 82 85  1  0  0  0
 82168  1  0  0  0
 82169  1  0  0  0
 83 84  1  0  0  0
 83 88  1  0  0  0
 83170  1  0  0  0
 83171  1  0  0  0
 88172  1  0  0  0
M  ISO  4   1 100  68 101  85 101  88 100
M  END
> <chiral flag>
0

> <version>
0

> <s_m_source_file>
/data/baiqing/PycharmProjects/Reinvent-master-3.2/result/LINK_invent/BTK/process_docking_weight1_custom_sum_contain_oxygen_bond_distance_aromatic_linkinvent_7_9_3/rearranged_h_0072.sdf

> <i_m_source_file_index>
13

> <r_mmod_Potential_Energy-OPLS-2005>
25963.67578125

> <r_mmod_Stretch_Energy-OPLS-2005>
14802.8154296875

> <r_mmod_Bend_Energy-OPLS-2005>
3017.80883789062

> <r_mmod_Torsional_Energy-OPLS-2005>
595.594116210938

> <r_mmod_Improper_Torsional_Energy-OPLS-2005>
144.548065185547

> <r_mmod_Van_der_Waal_Energy-OPLS-2005>
6013.56005859375

> <r_mmod_Electrostatic_Energy-OPLS-2005>
-706.09326171875

> <r_mmod_Solvation_Energy-OPLS-2005>
-241.415191650391

> <b_mmod_Minimization_Converged-OPLS-2005>
0

> <r_mmod_RMS_Derivative-OPLS-2005>
3.6894211769104

$$$$
14
                    3D
 Structure written by MMmdl.
166174  0  0  1  0            999 V2000
  -30.5553  -14.8937   20.4293 C   0  0  0  0  0  0
  -30.4482  -12.5386   19.5199 C   0  0  0  0  0  0
  -29.5391  -12.5372   18.2694 C   0  0  0  0  0  0
  -28.0614  -12.3441   18.6626 C   0  0  0  0  0  0
  -27.6431  -13.2503   19.8523 C   0  0  2  0  0  0
  -28.6812  -13.2295   20.9988 C   0  0  0  0  0  0
  -25.2452  -13.8242   20.5633 C   0  0  0  0  0  0
  -24.1765  -13.0476   20.9203 C   0  0  0  0  0  0
  -24.6374  -11.6980   20.8732 C   0  0  0  0  0  0
  -23.9071  -10.4326   21.0374 C   0  0  0  0  0  0
  -24.3630   -9.4242   21.9166 C   0  0  0  0  0  0
  -23.6314   -8.2263   22.0725 C   0  0  0  0  0  0
  -22.4292   -8.0291   21.3513 C   0  0  0  0  0  0
  -21.9919   -9.0269   20.4627 C   0  0  0  0  0  0
  -22.7234  -10.2159   20.3008 C   0  0  0  0  0  0
  -21.6867   -6.0742   22.5271 C   0  0  0  0  0  0
  -21.4031   -6.5635   23.8209 C   0  0  0  0  0  0
  -21.3662   -5.6769   24.9166 C   0  0  0  0  0  0
  -21.6036   -4.3026   24.7212 C   0  0  0  0  0  0
  -21.8826   -3.8142   23.4334 C   0  0  0  0  0  0
  -21.9188   -4.6964   22.3400 C   0  0  0  0  0  0
  -22.7764  -13.5236   21.1891 C   0  0  0  0  0  0
  -22.1648   -4.2151   21.0971 F   0  0  0  0  0  0
  -21.5640   -3.4503   25.7729 F   0  0  0  0  0  0
  -29.9779  -13.6264   20.4245 N   0  0  0  0  0  0
  -26.2912  -12.9496   20.3252 N   0  0  0  0  0  0
  -25.9308  -11.6632   20.5742 N   0  0  0  0  0  0
  -22.0365  -12.8241   22.0431 N   0  0  0  0  0  0
  -25.4155  -15.1971   20.4010 N   0  0  0  0  0  0
  -31.7192  -15.0038   20.0311 O   0  0  0  0  0  0
  -21.6646   -6.8893   21.4229 O   0  0  0  0  0  0
  -22.3468  -14.5527   20.6694 O   0  0  0  0  0  0
  -24.6406  -31.8463   23.1844 C   0  0  0  0  0  0
  -25.9169  -32.4693   23.8277 C   0  0  1  0  0  0
  -27.2167  -27.1462   20.1801 C   0  0  0  0  0  0
  -25.5921  -33.8496   24.2190 N   0  0  0  0  0  0
  -23.4501  -30.4609   21.5253 C   0  0  2  0  0  0
  -24.9055  -28.8889   20.1063 C   0  0  0  0  0  0
  -22.7598  -29.4547   22.4798 C   0  0  0  0  0  0
  -18.0338  -28.1423   22.8498 C   0  0  0  0  0  0
  -24.1485  -36.7255   23.2645 C   0  0  0  0  0  0
  -26.0008  -30.7254   21.3852 C   0  0  0  0  0  0
  -26.0758  -29.3343   20.7333 C   0  0  0  0  0  0
  -27.2367  -28.4786   20.7519 C   0  0  0  0  0  0
  -26.0235  -26.7899   19.5238 C   0  0  0  0  0  0
  -24.8898  -27.6309   19.4848 C   0  0  0  0  0  0
  -23.6816  -29.7885   20.1454 C   0  0  0  0  0  0
  -25.4115  -36.3014   24.0308 C   0  0  1  0  0  0
  -20.5953  -28.3736   23.1235 C   0  0  2  0  0  0
  -20.6787  -26.9427   22.5412 C   0  0  0  0  0  0
  -19.5753  -26.6403   21.5228 C   0  0  0  0  0  0
  -18.1952  -26.7953   22.1648 C   0  0  0  0  0  0
  -19.1594  -28.8887   23.2855 C   0  0  0  0  0  0
  -18.9496  -30.1493   23.8874 C   0  0  0  0  0  0
  -17.6486  -30.6586   24.0583 C   0  0  0  0  0  0
  -25.9071  -34.9392   23.5064 C   0  0  0  0  0  0
  -16.5382  -29.9096   23.6337 C   0  0  0  0  0  0
  -16.7321  -28.6518   23.0351 C   0  0  0  0  0  0
  -26.4491  -31.6545   25.0713 C   0  0  0  0  0  0
  -25.3673  -31.3767   26.1408 C   0  0  0  0  0  0
  -27.0365  -30.2935   24.6289 C   0  0  0  0  0  0
  -27.6028  -32.4317   25.7500 C   0  0  0  0  0  0
  -27.5579  -37.1782   24.8457 C   0  0  0  0  0  0
  -21.4281  -29.3059   22.3581 N   0  0  0  0  0  0
  -26.4264  -37.3728   23.9423 N   0  0  0  0  0  0
  -24.7153  -31.0346   22.0856 N   0  0  0  0  0  0
  -23.4245  -28.8106   23.2948 O   0  0  0  0  0  0
  -28.2583  -26.1547   20.2126 O   0  0  0  0  0  0
  -26.5688  -34.8885   22.4659 O   0  0  0  0  0  0
  -23.5518  -32.1322   23.7064 O   0  0  0  0  0  0
  -27.7562  -22.1335   21.0502 C   0  0  0  0  0  0
  -28.5080  -23.2695   20.6015 C   0  0  0  0  0  0
  -29.6741  -22.7572   19.9498 C   0  0  0  0  0  0
  -29.3540  -20.4313   20.5415 C   0  0  0  0  0  0
  -30.1059  -23.5843   17.6269 C   0  0  0  0  0  0
  -27.2325  -24.2744   23.4620 C   0  0  0  0  0  0
  -29.7274  -18.6963   22.4198 C   0  0  0  0  0  0
  -31.5426  -19.0294   20.8221 C   0  0  0  0  0  0
  -30.5195  -23.6832   19.0996 C   0  0  0  0  0  0
  -27.0078  -24.9614   22.0981 C   0  0  0  0  0  0
  -29.6411  -17.4990   20.1261 C   0  0  0  0  0  0
  -28.1546  -24.8448   21.0414 C   0  0  1  0  0  0
  -29.9966  -18.9269   20.9174 C   0  0  0  0  0  0
  -28.1524  -20.8047   21.0245 N   0  0  0  0  0  0
  -30.0722  -21.4144   19.9419 N   0  0  0  0  0  0
  -29.7639  -16.0281   20.6993 N   0  0  0  0  0  0
  -31.4905  -12.6705   19.2317 H   0  0  0  0  0  0
  -30.4138  -11.5747   20.0292 H   0  0  0  0  0  0
  -29.8590  -11.7619   17.5744 H   0  0  0  0  0  0
  -29.6518  -13.4848   17.7413 H   0  0  0  0  0  0
  -27.9189  -11.2954   18.9279 H   0  0  0  0  0  0
  -27.4182  -12.5261   17.8005 H   0  0  0  0  0  0
  -27.6243  -14.2658   19.4582 H   0  0  0  0  0  0
  -28.7371  -12.2342   21.4400 H   0  0  0  0  0  0
  -28.3872  -13.9015   21.8071 H   0  0  0  0  0  0
  -25.2765   -9.5748   22.4759 H   0  0  0  0  0  0
  -24.0026   -7.4651   22.7418 H   0  0  0  0  0  0
  -21.0856   -8.8780   19.8940 H   0  0  0  0  0  0
  -22.3662  -10.9698   19.6117 H   0  0  0  0  0  0
  -21.2006   -7.6131   23.9720 H   0  0  0  0  0  0
  -21.1494   -6.0487   25.9067 H   0  0  0  0  0  0
  -22.0600   -2.7607   23.2816 H   0  0  0  0  0  0
  -22.3959  -11.9963   22.4951 H   0  0  0  0  0  0
  -21.0950  -13.1269   22.2530 H   0  0  0  0  0  0
  -24.6474  -15.8537   20.4727 H   0  0  0  0  0  0
  -26.2572  -15.6206   20.0318 H   0  0  0  0  0  0
  -26.7246  -32.5321   23.1049 H   0  0  0  0  0  0
  -24.9987  -33.9594   25.0274 H   0  0  0  0  0  0
  -22.7483  -31.2823   21.3686 H   0  0  0  0  0  0
  -23.3724  -35.9609   23.3263 H   0  0  0  0  0  0
  -24.3602  -36.8939   22.2071 H   0  0  0  0  0  0
  -23.7240  -37.6439   23.6718 H   0  0  0  0  0  0
  -26.1536  -31.4742   20.6075 H   0  0  0  0  0  0
  -26.8670  -30.7856   22.0299 H   0  0  0  0  0  0
  -28.1246  -28.8075   21.2704 H   0  0  0  0  0  0
  -25.9533  -25.8129   19.0670 H   0  0  0  0  0  0
  -23.9971  -27.2852   18.9870 H   0  0  0  0  0  0
  -23.8210  -30.5587   19.3858 H   0  0  0  0  0  0
  -22.8001  -29.2289   19.8345 H   0  0  0  0  0  0
  -25.1286  -36.1832   25.0792 H   0  0  0  0  0  0
  -21.0099  -28.3322   24.1339 H   0  0  0  0  0  0
  -20.5696  -26.2347   23.3635 H   0  0  0  0  0  0
  -21.6644  -26.7425   22.1205 H   0  0  0  0  0  0
  -19.6882  -25.6314   21.1265 H   0  0  0  0  0  0
  -19.6665  -27.3200   20.6741 H   0  0  0  0  0  0
  -17.4225  -26.6760   21.4041 H   0  0  0  0  0  0
  -18.0305  -26.0102   22.9038 H   0  0  0  0  0  0
  -19.7963  -30.7341   24.2223 H   0  0  0  0  0  0
  -17.5026  -31.6261   24.5206 H   0  0  0  0  0  0
  -15.5378  -30.2985   23.7623 H   0  0  0  0  0  0
  -15.8744  -28.0820   22.7057 H   0  0  0  0  0  0
  -24.5835  -30.7122   25.7738 H   0  0  0  0  0  0
  -24.8877  -32.2972   26.4756 H   0  0  0  0  0  0
  -25.7943  -30.8994   27.0243 H   0  0  0  0  0  0
  -26.2990  -29.6647   24.1278 H   0  0  0  0  0  0
  -27.3954  -29.7220   25.4868 H   0  0  0  0  0  0
  -27.8902  -30.4145   23.9613 H   0  0  0  0  0  0
  -27.2612  -33.3632   26.2021 H   0  0  0  0  0  0
  -28.3872  -32.6862   25.0359 H   0  0  0  0  0  0
  -28.0662  -31.8490   26.5475 H   0  0  0  0  0  0
  -28.2545  -38.0125   24.7545 H   0  0  0  0  0  0
  -28.1121  -36.2661   24.6205 H   0  0  0  0  0  0
  -27.2338  -37.1330   25.8870 H   0  0  0  0  0  0
  -20.9473  -29.8801   21.6787 H   0  0  0  0  0  0
  -26.0112  -38.2790   24.1444 H   0  0  0  0  0  0
  -26.7988  -22.2816   21.5252 H   0  0  0  0  0  0
  -29.0507  -23.8231   17.4990 H   0  0  0  0  0  0
  -30.2533  -22.5719   17.2479 H   0  0  0  0  0  0
  -30.6761  -24.2775   17.0103 H   0  0  0  0  0  0
  -26.3280  -24.3355   24.0709 H   0  0  0  0  0  0
  -28.0286  -24.7634   24.0224 H   0  0  0  0  0  0
  -27.4880  -23.2221   23.3907 H   0  0  0  0  0  0
  -30.0974  -19.5349   23.0085 H   0  0  0  0  0  0
  -30.2213  -17.7981   22.7956 H   0  0  0  0  0  0
  -28.6600  -18.5972   22.6165 H   0  0  0  0  0  0
  -31.9436  -19.8190   21.4573 H   0  0  0  0  0  0
  -31.8628  -19.2482   19.8018 H   0  0  0  0  0  0
  -32.0339  -18.1003   21.1208 H   0  0  0  0  0  0
  -31.5738  -23.4373   19.2136 H   0  0  0  0  0  0
  -30.3985  -24.7143   19.4334 H   0  0  0  0  0  0
  -26.8355  -26.0052   22.3593 H   0  0  0  0  0  0
  -26.0695  -24.6175   21.6645 H   0  0  0  0  0  0
  -30.1478  -17.5131   19.1611 H   0  0  0  0  0  0
  -28.5810  -17.5808   19.8796 H   0  0  0  0  0  0
  -29.0480  -25.0119   21.6448 H   0  0  0  0  0  0
  -28.9094  -15.7449   21.1557 H   0  0  0  0  0  0
  1 25  1  0  0  0
  1 30  2  0  0  0
  1 86  1  0  0  0
  2  3  1  0  0  0
  2 25  1  0  0  0
  2 87  1  0  0  0
  2 88  1  0  0  0
  3  4  1  0  0  0
  3 89  1  0  0  0
  3 90  1  0  0  0
  4  5  1  0  0  0
  4 91  1  0  0  0
  4 92  1  0  0  0
  5  6  1  0  0  0
  5 26  1  0  0  0
  5 93  1  0  0  0
  6 25  1  0  0  0
  6 94  1  0  0  0
  6 95  1  0  0  0
  7  8  2  0  0  0
  7 26  1  0  0  0
  7 29  1  0  0  0
  8  9  1  0  0  0
  8 22  1  0  0  0
  9 10  1  0  0  0
  9 27  2  0  0  0
 10 11  2  0  0  0
 10 15  1  0  0  0
 11 12  1  0  0  0
 11 96  1  0  0  0
 12 13  2  0  0  0
 12 97  1  0  0  0
 13 14  1  0  0  0
 13 31  1  0  0  0
 14 15  2  0  0  0
 14 98  1  0  0  0
 15 99  1  0  0  0
 16 17  2  0  0  0
 16 21  1  0  0  0
 16 31  1  0  0  0
 17 18  1  0  0  0
 17100  1  0  0  0
 18 19  2  0  0  0
 18101  1  0  0  0
 19 20  1  0  0  0
 19 24  1  0  0  0
 20 21  2  0  0  0
 20102  1  0  0  0
 21 23  1  0  0  0
 22 28  1  0  0  0
 22 32  2  0  0  0
 26 27  1  0  0  0
 28103  1  0  0  0
 28104  1  0  0  0
 29105  1  0  0  0
 29106  1  0  0  0
 33 34  1  0  0  0
 33 66  1  0  0  0
 33 70  2  0  0  0
 34 36  1  0  0  0
 34 59  1  0  0  0
 34107  1  0  0  0
 35 44  2  0  0  0
 35 45  1  0  0  0
 35 68  1  0  0  0
 36 56  1  0  0  0
 36108  1  0  0  0
 37 39  1  0  0  0
 37 47  1  0  0  0
 37 66  1  0  0  0
 37109  1  0  0  0
 38 43  2  0  0  0
 38 46  1  0  0  0
 38 47  1  0  0  0
 39 64  1  0  0  0
 39 67  2  0  0  0
 40 52  1  0  0  0
 40 53  2  0  0  0
 40 58  1  0  0  0
 41110  1  0  0  0
 41111  1  0  0  0
 41112  1  0  0  0
 41 48  1  0  0  0
 42 43  1  0  0  0
 42 66  1  0  0  0
 42113  1  0  0  0
 42114  1  0  0  0
 43 44  1  0  0  0
 44115  1  0  0  0
 45 46  2  0  0  0
 45116  1  0  0  0
 46117  1  0  0  0
 47118  1  0  0  0
 47119  1  0  0  0
 48 56  1  0  0  0
 48 65  1  0  0  0
 48120  1  0  0  0
 49 50  1  0  0  0
 49 53  1  0  0  0
 49 64  1  0  0  0
 49121  1  0  0  0
 50 51  1  0  0  0
 50122  1  0  0  0
 50123  1  0  0  0
 51 52  1  0  0  0
 51124  1  0  0  0
 51125  1  0  0  0
 52126  1  0  0  0
 52127  1  0  0  0
 53 54  1  0  0  0
 54 55  2  0  0  0
 54128  1  0  0  0
 55 57  1  0  0  0
 55129  1  0  0  0
 56 69  2  0  0  0
 57 58  2  0  0  0
 57130  1  0  0  0
 58131  1  0  0  0
 59 60  1  0  0  0
 59 61  1  0  0  0
 59 62  1  0  0  0
 60132  1  0  0  0
 60133  1  0  0  0
 60134  1  0  0  0
 61135  1  0  0  0
 61136  1  0  0  0
 61137  1  0  0  0
 62138  1  0  0  0
 62139  1  0  0  0
 62140  1  0  0  0
 63 65  1  0  0  0
 63141  1  0  0  0
 63142  1  0  0  0
 63143  1  0  0  0
 64144  1  0  0  0
 65145  1  0  0  0
 68 82  1  0  0  0
 71 72  2  0  0  0
 71 84  1  0  0  0
 71146  1  0  0  0
 72 73  1  0  0  0
 72 82  1  0  0  0
 73 79  1  0  0  0
 73 85  2  0  0  0
 74 83  1  0  0  0
 74 84  2  0  0  0
 74 85  1  0  0  0
 75 79  1  0  0  0
 75147  1  0  0  0
 75148  1  0  0  0
 75149  1  0  0  0
 76 80  1  0  0  0
 76150  1  0  0  0
 76151  1  0  0  0
 76152  1  0  0  0
 77153  1  0  0  0
 77154  1  0  0  0
 77155  1  0  0  0
 77 83  1  0  0  0
 78 83  1  0  0  0
 78156  1  0  0  0
 78157  1  0  0  0
 78158  1  0  0  0
 79159  1  0  0  0
 79160  1  0  0  0
 80161  1  0  0  0
 80162  1  0  0  0
 80 82  1  0  0  0
 81 83  1  0  0  0
 81 86  1  0  0  0
 81163  1  0  0  0
 81164  1  0  0  0
 82165  1  0  0  0
 86166  1  0  0  0
M  ISO  4   1 100  68 101  82 101  86 100
M  END
> <chiral flag>
0

> <version>
0

> <s_m_source_file>
/data/baiqing/PycharmProjects/Reinvent-master-3.2/result/LINK_invent/BTK/process_docking_weight1_custom_sum_contain_oxygen_bond_distance_aromatic_linkinvent_7_9_3/rearranged_h_0072.sdf

> <i_m_source_file_index>
14

> <r_mmod_Potential_Energy-OPLS-2005>
122.346572875977

> <r_mmod_Stretch_Energy-OPLS-2005>
241.414093017578

> <r_mmod_Bend_Energy-OPLS-2005>
306.490020751953

> <r_mmod_Torsional_Energy-OPLS-2005>
276.749450683594

> <r_mmod_Improper_Torsional_Energy-OPLS-2005>
8.50069618225098

> <r_mmod_Van_der_Waal_Energy-OPLS-2005>
138.183609008789

> <r_mmod_Electrostatic_Energy-OPLS-2005>
-803.677062988281

> <r_mmod_Solvation_Energy-OPLS-2005>
-216.226623535156

> <b_mmod_Minimization_Converged-OPLS-2005>
0

> <r_mmod_RMS_Derivative-OPLS-2005>
5.65091276168823

$$$$
15
                    3D
 Structure written by MMmdl.
170178  0  0  1  0            999 V2000
  -30.6710  -14.4568   20.6649 C   0  0  0  0  0  0
  -30.4122  -12.3105   19.4291 C   0  0  0  0  0  0
  -29.4872  -12.4944   18.2085 C   0  0  0  0  0  0
  -28.0111  -12.3001   18.6121 C   0  0  0  0  0  0
  -27.6428  -13.1474   19.8459 C   0  0  2  0  0  0
  -28.6716  -12.8847   20.9654 C   0  0  0  0  0  0
  -25.2485  -13.7996   20.5524 C   0  0  0  0  0  0
  -24.1744  -13.0375   20.9122 C   0  0  0  0  0  0
  -24.6237  -11.6818   20.8723 C   0  0  0  0  0  0
  -23.8913  -10.4261   21.0411 C   0  0  0  0  0  0
  -24.3522   -9.4197   21.9185 C   0  0  0  0  0  0
  -23.6224   -8.2231   22.0771 C   0  0  0  0  0  0
  -22.4219   -8.0236   21.3549 C   0  0  0  0  0  0
  -21.9814   -9.0191   20.4658 C   0  0  0  0  0  0
  -22.7095  -10.2087   20.3054 C   0  0  0  0  0  0
  -21.6839   -6.0671   22.5265 C   0  0  0  0  0  0
  -21.4000   -6.5600   23.8192 C   0  0  0  0  0  0
  -21.3668   -5.6772   24.9171 C   0  0  0  0  0  0
  -21.6049   -4.3035   24.7228 C   0  0  0  0  0  0
  -21.8821   -3.8099   23.4365 C   0  0  0  0  0  0
  -21.9195   -4.6900   22.3404 C   0  0  0  0  0  0
  -22.7792  -13.5226   21.1828 C   0  0  0  0  0  0
  -22.1659   -4.2075   21.0983 F   0  0  0  0  0  0
  -21.5651   -3.4544   25.7761 F   0  0  0  0  0  0
  -29.9970  -13.2794   20.4656 N   0  0  0  0  0  0
  -26.2846  -12.9057   20.3128 N   0  0  0  0  0  0
  -25.9112  -11.6296   20.5694 N   0  0  0  0  0  0
  -22.0447  -12.8269   22.0413 N   0  0  0  0  0  0
  -25.4141  -15.1737   20.3902 N   0  0  0  0  0  0
  -31.7778  -14.5834   20.1341 O   0  0  0  0  0  0
  -21.6626   -6.8810   21.4227 O   0  0  0  0  0  0
  -22.3496  -14.5562   20.6691 O   0  0  0  0  0  0
  -24.6111  -31.8722   23.2126 C   0  0  0  0  0  0
  -25.9019  -32.4853   23.8410 C   0  0  1  0  0  0
  -27.2158  -27.4482   20.0611 C   0  0  0  0  0  0
  -25.5915  -33.8653   24.2342 N   0  0  0  0  0  0
  -23.3995  -30.5007   21.5524 C   0  0  2  0  0  0
  -24.8350  -28.9751   20.1114 C   0  0  0  0  0  0
  -22.7413  -29.4666   22.4962 C   0  0  0  0  0  0
  -18.0273  -28.1327   22.8496 C   0  0  0  0  0  0
  -24.1498  -36.7305   23.2644 C   0  0  0  0  0  0
  -25.9298  -30.8352   21.3673 C   0  0  0  0  0  0
  -25.9977  -29.4725   20.7108 C   0  0  0  0  0  0
  -27.1886  -28.7123   20.6929 C   0  0  0  0  0  0
  -26.0271  -26.9712   19.4557 C   0  0  0  0  0  0
  -24.8414  -27.7196   19.4882 C   0  0  0  0  0  0
  -23.6006  -29.8424   20.1635 C   0  0  0  0  0  0
  -25.4126  -36.3133   24.0351 C   0  0  1  0  0  0
  -20.5861  -28.3624   23.1308 C   0  0  2  0  0  0
  -20.6750  -26.9369   22.5384 C   0  0  0  0  0  0
  -19.5735  -26.6346   21.5186 C   0  0  0  0  0  0
  -18.1915  -26.7885   22.1599 C   0  0  0  0  0  0
  -19.1523  -28.8795   23.2900 C   0  0  0  0  0  0
  -18.9454  -30.1392   23.8919 C   0  0  0  0  0  0
  -17.6472  -30.6558   24.0541 C   0  0  0  0  0  0
  -25.9048  -34.9501   23.5136 C   0  0  0  0  0  0
  -16.5352  -29.9060   23.6292 C   0  0  0  0  0  0
  -16.7261  -28.6453   23.0365 C   0  0  0  0  0  0
  -26.4442  -31.6637   25.0737 C   0  0  0  0  0  0
  -25.3734  -31.3757   26.1514 C   0  0  0  0  0  0
  -27.0241  -30.3088   24.6066 C   0  0  0  0  0  0
  -27.6027  -32.4348   25.7498 C   0  0  0  0  0  0
  -27.5585  -37.1820   24.8472 C   0  0  0  0  0  0
  -21.4140  -29.3018   22.3733 N   0  0  0  0  0  0
  -26.4297  -37.3815   23.9427 N   0  0  0  0  0  0
  -24.6658  -31.0837   22.1024 N   0  0  0  0  0  0
  -23.4223  -28.8186   23.2957 O   0  0  0  0  0  0
  -28.3955  -26.7301   20.0626 O   0  0  0  0  0  0
  -26.5580  -34.8949   22.4678 O   0  0  0  0  0  0
  -23.5308  -32.1434   23.7562 O   0  0  0  0  0  0
  -30.2005  -18.4904   23.4558 C   0  0  0  0  0  0
  -29.3895  -19.5268   23.9308 C   0  0  0  0  0  0
  -30.2138  -18.2535   22.0689 C   0  0  0  0  0  0
  -28.7634  -20.0296   21.7989 C   0  0  0  0  0  0
  -32.3413  -16.9220   22.0673 C   0  0  0  0  0  0
  -31.2302  -17.4707   19.9158 C   0  0  0  0  0  0
  -28.6346  -16.0202   21.0472 C   0  0  0  0  0  0
  -30.0280  -15.2392   22.9994 C   0  0  0  0  0  0
  -28.0667  -20.9497   20.8059 C   0  0  0  0  0  0
  -28.9053  -22.1918   20.4363 C   0  0  0  0  0  0
  -28.4720  -23.4713   21.1793 C   0  0  0  0  0  0
  -27.5934  -24.3937   20.3192 C   0  0  0  0  0  0
  -28.3942  -25.4216   19.4792 C   0  0  0  0  0  0
  -30.9452  -17.0475   21.3988 C   0  0  0  0  0  0
  -30.0840  -15.6795   21.5036 C   0  0  0  0  0  0
  -28.6700  -20.3015   23.0957 N   0  0  0  0  0  0
  -29.4893  -19.0595   21.2648 N   0  0  0  0  0  0
  -31.4582  -12.4101   19.1414 H   0  0  0  0  0  0
  -30.3222  -11.2894   19.8069 H   0  0  0  0  0  0
  -29.7511  -11.7772   17.4296 H   0  0  0  0  0  0
  -29.6301  -13.4902   17.7877 H   0  0  0  0  0  0
  -27.8649  -11.2448   18.8493 H   0  0  0  0  0  0
  -27.3461  -12.5222   17.7786 H   0  0  0  0  0  0
  -27.6924  -14.1763   19.5037 H   0  0  0  0  0  0
  -28.6781  -11.8219   21.2138 H   0  0  0  0  0  0
  -28.3511  -13.3382   21.8888 H   0  0  0  0  0  0
  -25.2679   -9.5719   22.4735 H   0  0  0  0  0  0
  -23.9944   -7.4650   22.7515 H   0  0  0  0  0  0
  -21.0744   -8.8655   19.8991 H   0  0  0  0  0  0
  -22.3506  -10.9602   19.6162 H   0  0  0  0  0  0
  -21.1963   -7.6104   23.9656 H   0  0  0  0  0  0
  -21.1497   -6.0521   25.9067 H   0  0  0  0  0  0
  -22.0591   -2.7552   23.2888 H   0  0  0  0  0  0
  -22.4060  -11.9931   22.4819 H   0  0  0  0  0  0
  -21.1082  -13.1339   22.2657 H   0  0  0  0  0  0
  -24.6504  -15.8228   20.5390 H   0  0  0  0  0  0
  -26.2611  -15.6301   20.0803 H   0  0  0  0  0  0
  -26.7093  -32.5518   23.1178 H   0  0  0  0  0  0
  -25.0202  -33.9839   25.0579 H   0  0  0  0  0  0
  -22.6847  -31.3146   21.4184 H   0  0  0  0  0  0
  -23.3774  -35.9608   23.3320 H   0  0  0  0  0  0
  -24.3617  -36.8882   22.2046 H   0  0  0  0  0  0
  -23.7205  -37.6510   23.6632 H   0  0  0  0  0  0
  -26.0516  -31.6037   20.6039 H   0  0  0  0  0  0
  -26.8185  -30.8771   21.9854 H   0  0  0  0  0  0
  -28.0886  -29.0921   21.1533 H   0  0  0  0  0  0
  -25.9784  -26.0216   18.9467 H   0  0  0  0  0  0
  -23.9482  -27.3330   19.0180 H   0  0  0  0  0  0
  -23.7120  -30.6215   19.4089 H   0  0  0  0  0  0
  -22.7239  -29.2672   19.8615 H   0  0  0  0  0  0
  -25.1285  -36.2017   25.0837 H   0  0  0  0  0  0
  -20.9935  -28.3142   24.1438 H   0  0  0  0  0  0
  -20.5613  -26.2235   23.3553 H   0  0  0  0  0  0
  -21.6627  -26.7372   22.1202 H   0  0  0  0  0  0
  -19.6924  -25.6262   21.1202 H   0  0  0  0  0  0
  -19.6698  -27.3157   20.6725 H   0  0  0  0  0  0
  -17.4182  -26.6611   21.4001 H   0  0  0  0  0  0
  -18.0338  -26.0006   22.8981 H   0  0  0  0  0  0
  -19.7949  -30.7167   24.2306 H   0  0  0  0  0  0
  -17.5051  -31.6258   24.5105 H   0  0  0  0  0  0
  -15.5357  -30.2992   23.7632 H   0  0  0  0  0  0
  -15.8641  -28.0782   22.7110 H   0  0  0  0  0  0
  -24.5912  -30.7082   25.7903 H   0  0  0  0  0  0
  -24.8913  -32.2905   26.4965 H   0  0  0  0  0  0
  -25.8114  -30.8967   27.0278 H   0  0  0  0  0  0
  -26.2741  -29.6937   24.1080 H   0  0  0  0  0  0
  -27.3995  -29.7250   25.4472 H   0  0  0  0  0  0
  -27.8606  -30.4448   23.9214 H   0  0  0  0  0  0
  -27.2657  -33.3664   26.2069 H   0  0  0  0  0  0
  -28.3848  -32.6892   25.0337 H   0  0  0  0  0  0
  -28.0682  -31.8475   26.5423 H   0  0  0  0  0  0
  -28.2609  -38.0118   24.7520 H   0  0  0  0  0  0
  -28.1065  -36.2642   24.6282 H   0  0  0  0  0  0
  -27.2301  -37.1423   25.8874 H   0  0  0  0  0  0
  -20.9266  -29.8864   21.7090 H   0  0  0  0  0  0
  -26.0198  -38.2895   24.1428 H   0  0  0  0  0  0
  -30.7394  -17.8778   24.1653 H   0  0  0  0  0  0
  -29.3135  -19.7266   24.9896 H   0  0  0  0  0  0
  -32.9355  -17.8196   21.8913 H   0  0  0  0  0  0
  -32.9217  -16.0863   21.6874 H   0  0  0  0  0  0
  -32.2841  -16.7910   23.1456 H   0  0  0  0  0  0
  -31.6972  -18.4554   19.8739 H   0  0  0  0  0  0
  -30.3141  -17.5337   19.3283 H   0  0  0  0  0  0
  -31.9045  -16.8152   19.3720 H   0  0  0  0  0  0
  -27.9119  -15.2671   21.3125 H   0  0  0  0  0  0
  -28.5657  -16.2272   19.9774 H   0  0  0  0  0  0
  -28.2079  -16.8734   21.5632 H   0  0  0  0  0  0
  -29.6550  -16.0192   23.6553 H   0  0  0  0  0  0
  -31.0001  -14.9168   23.3687 H   0  0  0  0  0  0
  -29.3587  -14.4172   23.2053 H   0  0  0  0  0  0
  -27.0728  -21.2159   21.1630 H   0  0  0  0  0  0
  -27.8947  -20.3772   19.8935 H   0  0  0  0  0  0
  -28.8202  -22.3566   19.3623 H   0  0  0  0  0  0
  -29.9637  -21.9876   20.6088 H   0  0  0  0  0  0
  -29.3413  -24.0315   21.5244 H   0  0  0  0  0  0
  -27.9370  -23.1925   22.0872 H   0  0  0  0  0  0
  -26.8907  -24.9113   20.9708 H   0  0  0  0  0  0
  -26.9664  -23.7916   19.6584 H   0  0  0  0  0  0
  -28.0234  -25.4694   18.4554 H   0  0  0  0  0  0
  -29.4280  -25.0916   19.3778 H   0  0  0  0  0  0
  1 25  1  0  0  0
  1 30  2  0  0  0
  1 85  1  0  0  0
  2  3  1  0  0  0
  2 25  1  0  0  0
  2 88  1  0  0  0
  2 89  1  0  0  0
  3  4  1  0  0  0
  3 90  1  0  0  0
  3 91  1  0  0  0
  4  5  1  0  0  0
  4 92  1  0  0  0
  4 93  1  0  0  0
  5  6  1  0  0  0
  5 26  1  0  0  0
  5 94  1  0  0  0
  6 25  1  0  0  0
  6 95  1  0  0  0
  6 96  1  0  0  0
  7  8  2  0  0  0
  7 26  1  0  0  0
  7 29  1  0  0  0
  8  9  1  0  0  0
  8 22  1  0  0  0
  9 10  1  0  0  0
  9 27  2  0  0  0
 10 11  2  0  0  0
 10 15  1  0  0  0
 11 12  1  0  0  0
 11 97  1  0  0  0
 12 13  2  0  0  0
 12 98  1  0  0  0
 13 14  1  0  0  0
 13 31  1  0  0  0
 14 15  2  0  0  0
 14 99  1  0  0  0
 15100  1  0  0  0
 16 17  2  0  0  0
 16 21  1  0  0  0
 16 31  1  0  0  0
 17 18  1  0  0  0
 17101  1  0  0  0
 18 19  2  0  0  0
 18102  1  0  0  0
 19 20  1  0  0  0
 19 24  1  0  0  0
 20 21  2  0  0  0
 20103  1  0  0  0
 21 23  1  0  0  0
 22 28  1  0  0  0
 22 32  2  0  0  0
 26 27  1  0  0  0
 28104  1  0  0  0
 28105  1  0  0  0
 29106  1  0  0  0
 29107  1  0  0  0
 33 34  1  0  0  0
 33 66  1  0  0  0
 33 70  2  0  0  0
 34 36  1  0  0  0
 34 59  1  0  0  0
 34108  1  0  0  0
 35 44  2  0  0  0
 35 45  1  0  0  0
 35 68  1  0  0  0
 36 56  1  0  0  0
 36109  1  0  0  0
 37 39  1  0  0  0
 37 47  1  0  0  0
 37 66  1  0  0  0
 37110  1  0  0  0
 38 43  2  0  0  0
 38 46  1  0  0  0
 38 47  1  0  0  0
 39 64  1  0  0  0
 39 67  2  0  0  0
 40 52  1  0  0  0
 40 53  2  0  0  0
 40 58  1  0  0  0
 41111  1  0  0  0
 41112  1  0  0  0
 41113  1  0  0  0
 41 48  1  0  0  0
 42 43  1  0  0  0
 42 66  1  0  0  0
 42114  1  0  0  0
 42115  1  0  0  0
 43 44  1  0  0  0
 44116  1  0  0  0
 45 46  2  0  0  0
 45117  1  0  0  0
 46118  1  0  0  0
 47119  1  0  0  0
 47120  1  0  0  0
 48 56  1  0  0  0
 48 65  1  0  0  0
 48121  1  0  0  0
 49 50  1  0  0  0
 49 53  1  0  0  0
 49 64  1  0  0  0
 49122  1  0  0  0
 50 51  1  0  0  0
 50123  1  0  0  0
 50124  1  0  0  0
 51 52  1  0  0  0
 51125  1  0  0  0
 51126  1  0  0  0
 52127  1  0  0  0
 52128  1  0  0  0
 53 54  1  0  0  0
 54 55  2  0  0  0
 54129  1  0  0  0
 55 57  1  0  0  0
 55130  1  0  0  0
 56 69  2  0  0  0
 57 58  2  0  0  0
 57131  1  0  0  0
 58132  1  0  0  0
 59 60  1  0  0  0
 59 61  1  0  0  0
 59 62  1  0  0  0
 60133  1  0  0  0
 60134  1  0  0  0
 60135  1  0  0  0
 61136  1  0  0  0
 61137  1  0  0  0
 61138  1  0  0  0
 62139  1  0  0  0
 62140  1  0  0  0
 62141  1  0  0  0
 63 65  1  0  0  0
 63142  1  0  0  0
 63143  1  0  0  0
 63144  1  0  0  0
 64145  1  0  0  0
 65146  1  0  0  0
 68 83  1  0  0  0
 71 72  2  0  0  0
 71 73  1  0  0  0
 71147  1  0  0  0
 72 86  1  0  0  0
 72148  1  0  0  0
 73 84  1  0  0  0
 73 87  2  0  0  0
 74 79  1  0  0  0
 74 86  2  0  0  0
 74 87  1  0  0  0
 75149  1  0  0  0
 75150  1  0  0  0
 75151  1  0  0  0
 75 84  1  0  0  0
 76 84  1  0  0  0
 76152  1  0  0  0
 76153  1  0  0  0
 76154  1  0  0  0
 77155  1  0  0  0
 77156  1  0  0  0
 77157  1  0  0  0
 77 85  1  0  0  0
 78 85  1  0  0  0
 78158  1  0  0  0
 78159  1  0  0  0
 78160  1  0  0  0
 79 80  1  0  0  0
 79161  1  0  0  0
 79162  1  0  0  0
 80 81  1  0  0  0
 80163  1  0  0  0
 80164  1  0  0  0
 81 82  1  0  0  0
 81165  1  0  0  0
 81166  1  0  0  0
 82 83  1  0  0  0
 82167  1  0  0  0
 82168  1  0  0  0
 83169  1  0  0  0
 83170  1  0  0  0
 84 85  1  0  0  0
M  ISO  4   1 100  68 101  83 101  85 100
M  END
> <chiral flag>
0

> <version>
0

> <s_m_source_file>
/data/baiqing/PycharmProjects/Reinvent-master-3.2/result/LINK_invent/BTK/process_docking_weight1_custom_sum_contain_oxygen_bond_distance_aromatic_linkinvent_7_9_3/rearranged_h_0072.sdf

> <i_m_source_file_index>
15

> <r_mmod_Potential_Energy-OPLS-2005>
-309.770355224609

> <r_mmod_Stretch_Energy-OPLS-2005>
57.5475311279297

> <r_mmod_Bend_Energy-OPLS-2005>
135.929916381836

> <r_mmod_Torsional_Energy-OPLS-2005>
194.142791748047

> <r_mmod_Improper_Torsional_Energy-OPLS-2005>
2.0883367061615

> <r_mmod_Van_der_Waal_Energy-OPLS-2005>
226.811538696289

> <r_mmod_Electrostatic_Energy-OPLS-2005>
-749.519470214844

> <r_mmod_Solvation_Energy-OPLS-2005>
-193.138305664062

> <b_mmod_Minimization_Converged-OPLS-2005>
0

> <r_mmod_RMS_Derivative-OPLS-2005>
4.68576431274414

$$$$
16
                    3D
 Structure written by MMmdl.
179187  0  0  1  0            999 V2000
  -30.7317  -14.4023   20.6381 C   0  0  0  0  0  0
  -30.4366  -12.2944   19.3979 C   0  0  0  0  0  0
  -29.5079  -12.5338   18.1917 C   0  0  0  0  0  0
  -28.0200  -12.4162   18.5914 C   0  0  0  0  0  0
  -27.6737  -13.2092   19.8799 C   0  0  2  0  0  0
  -28.7122  -12.9285   20.9858 C   0  0  0  0  0  0
  -25.2618  -13.8168   20.5583 C   0  0  0  0  0  0
  -24.1875  -13.0463   20.9109 C   0  0  0  0  0  0
  -24.6442  -11.6933   20.8697 C   0  0  0  0  0  0
  -23.9111  -10.4327   21.0369 C   0  0  0  0  0  0
  -24.3632   -9.4244   21.9153 C   0  0  0  0  0  0
  -23.6300   -8.2284   22.0751 C   0  0  0  0  0  0
  -22.4281   -8.0308   21.3530 C   0  0  0  0  0  0
  -21.9934   -9.0316   20.4652 C   0  0  0  0  0  0
  -22.7286  -10.2174   20.3030 C   0  0  0  0  0  0
  -21.6883   -6.0749   22.5273 C   0  0  0  0  0  0
  -21.4032   -6.5632   23.8214 C   0  0  0  0  0  0
  -21.3664   -5.6756   24.9157 C   0  0  0  0  0  0
  -21.6048   -4.3028   24.7203 C   0  0  0  0  0  0
  -21.8822   -3.8153   23.4312 C   0  0  0  0  0  0
  -21.9208   -4.6988   22.3387 C   0  0  0  0  0  0
  -22.7886  -13.5276   21.1788 C   0  0  0  0  0  0
  -22.1643   -4.2177   21.0961 F   0  0  0  0  0  0
  -21.5650   -3.4493   25.7712 F   0  0  0  0  0  0
  -30.0529  -13.2422   20.4486 N   0  0  0  0  0  0
  -26.3090  -12.9349   20.3330 N   0  0  0  0  0  0
  -25.9382  -11.6519   20.5737 N   0  0  0  0  0  0
  -22.0504  -12.8302   22.0345 N   0  0  0  0  0  0
  -25.4327  -15.1874   20.3911 N   0  0  0  0  0  0
  -31.7934  -14.6887   20.0787 O   0  0  0  0  0  0
  -21.6634   -6.8904   21.4247 O   0  0  0  0  0  0
  -22.3609  -14.5620   20.6697 O   0  0  0  0  0  0
  -24.6111  -31.8694   23.2126 C   0  0  0  0  0  0
  -25.9021  -32.4826   23.8405 C   0  0  1  0  0  0
  -27.2361  -27.4578   20.0907 C   0  0  0  0  0  0
  -25.5899  -33.8622   24.2344 N   0  0  0  0  0  0
  -23.3955  -30.4922   21.5522 C   0  0  2  0  0  0
  -24.8399  -28.9554   20.1194 C   0  0  0  0  0  0
  -22.7385  -29.4659   22.5019 C   0  0  0  0  0  0
  -18.0266  -28.1358   22.8491 C   0  0  0  0  0  0
  -24.1485  -36.7318   23.2630 C   0  0  0  0  0  0
  -25.9199  -30.8410   21.3597 C   0  0  0  0  0  0
  -25.9966  -29.4742   20.7130 C   0  0  0  0  0  0
  -27.1956  -28.7323   20.6953 C   0  0  0  0  0  0
  -26.0645  -26.9432   19.4947 C   0  0  0  0  0  0
  -24.8668  -27.6858   19.5103 C   0  0  0  0  0  0
  -23.6018  -29.8215   20.1669 C   0  0  0  0  0  0
  -25.4102  -36.3108   24.0332 C   0  0  1  0  0  0
  -20.5846  -28.3632   23.1340 C   0  0  2  0  0  0
  -20.6747  -26.9377   22.5415 C   0  0  0  0  0  0
  -19.5735  -26.6375   21.5196 C   0  0  0  0  0  0
  -18.1912  -26.7907   22.1613 C   0  0  0  0  0  0
  -19.1506  -28.8812   23.2913 C   0  0  0  0  0  0
  -18.9446  -30.1420   23.8918 C   0  0  0  0  0  0
  -17.6448  -30.6568   24.0552 C   0  0  0  0  0  0
  -25.9033  -34.9476   23.5121 C   0  0  0  0  0  0
  -16.5340  -29.9070   23.6312 C   0  0  0  0  0  0
  -16.7253  -28.6485   23.0342 C   0  0  0  0  0  0
  -26.4461  -31.6599   25.0724 C   0  0  0  0  0  0
  -25.3753  -31.3724   26.1501 C   0  0  0  0  0  0
  -27.0256  -30.3036   24.6070 C   0  0  0  0  0  0
  -27.6044  -32.4310   25.7488 C   0  0  0  0  0  0
  -27.5580  -37.1809   24.8459 C   0  0  0  0  0  0
  -21.4118  -29.3019   22.3773 N   0  0  0  0  0  0
  -26.4288  -37.3797   23.9412 N   0  0  0  0  0  0
  -24.6601  -31.0816   22.1009 N   0  0  0  0  0  0
  -23.4197  -28.8189   23.3025 O   0  0  0  0  0  0
  -28.4388  -26.7920   20.0711 O   0  0  0  0  0  0
  -26.5588  -34.8919   22.4687 O   0  0  0  0  0  0
  -23.5311  -32.1437   23.7552 O   0  0  0  0  0  0
  -30.1496  -21.3644   21.0632 C   0  0  0  0  0  0
  -29.6281  -23.4041   21.3174 C   0  0  0  0  0  0
  -32.3004  -20.0214   20.9287 C   0  0  0  0  0  0
  -30.3259  -24.8994   16.7230 C   0  0  0  0  0  0
  -29.6494  -22.8369   15.4363 C   0  0  0  0  0  0
  -30.8408  -25.6459   20.9943 C   0  0  0  0  0  0
  -28.9694  -25.4818   22.5819 C   0  0  0  0  0  0
  -29.8864  -22.6919   17.9504 C   0  0  0  0  0  0
  -30.8667  -22.8166   19.1323 C   0  0  0  0  0  0
  -30.5011  -16.6252   21.7996 C   0  0  0  0  0  0
  -30.1015  -17.6485   20.7126 C   0  0  0  0  0  0
  -28.4567  -25.3636   20.1482 C   0  0  0  0  0  0
  -30.8029  -20.0832   20.5654 C   0  0  1  0  0  0
  -30.4075  -23.3626   16.6630 C   0  0  0  0  0  0
  -29.4857  -24.9337   21.2235 C   0  0  0  0  0  0
  -29.4832  -21.4346   22.2221 N   0  0  0  0  0  0
  -29.1186  -22.7381   22.3653 N   0  0  0  0  0  0
  -30.2373  -22.5619   20.4267 N   0  0  0  0  0  0
  -30.1124  -15.2618   21.4528 N   0  0  0  0  0  0
  -30.0486  -19.0188   21.2667 N   0  3  0  0  0  0
  -31.4837  -12.4082   19.1072 H   0  0  0  0  0  0
  -30.3317  -11.2720   19.7635 H   0  0  0  0  0  0
  -29.7395  -11.8275   17.3953 H   0  0  0  0  0  0
  -29.7054  -13.5237   17.7780 H   0  0  0  0  0  0
  -27.7799  -11.3604   18.7266 H   0  0  0  0  0  0
  -27.3961  -12.7708   17.7723 H   0  0  0  0  0  0
  -27.7380  -14.2702   19.6332 H   0  0  0  0  0  0
  -28.6810  -11.8764   21.2744 H   0  0  0  0  0  0
  -28.4601  -13.4701   21.8986 H   0  0  0  0  0  0
  -25.2786   -9.5756   22.4711 H   0  0  0  0  0  0
  -24.0026   -7.4683   22.7484 H   0  0  0  0  0  0
  -21.0852   -8.8892   19.8949 H   0  0  0  0  0  0
  -22.3770  -10.9713   19.6131 H   0  0  0  0  0  0
  -21.2008   -7.6138   23.9724 H   0  0  0  0  0  0
  -21.1471   -6.0464   25.9053 H   0  0  0  0  0  0
  -22.0607   -2.7632   23.2795 H   0  0  0  0  0  0
  -22.4071  -11.9954   22.4736 H   0  0  0  0  0  0
  -21.1161  -13.1434   22.2580 H   0  0  0  0  0  0
  -24.6577  -15.8373   20.4660 H   0  0  0  0  0  0
  -26.2767  -15.6169   20.0343 H   0  0  0  0  0  0
  -26.7098  -32.5549   23.1181 H   0  0  0  0  0  0
  -25.0085  -33.9804   25.0506 H   0  0  0  0  0  0
  -22.6802  -31.3066   21.4161 H   0  0  0  0  0  0
  -23.3737  -35.9661   23.3297 H   0  0  0  0  0  0
  -24.3581  -36.8932   22.2045 H   0  0  0  0  0  0
  -23.7248  -37.6526   23.6645 H   0  0  0  0  0  0
  -26.0265  -31.6044   20.5877 H   0  0  0  0  0  0
  -26.8108  -30.8996   21.9736 H   0  0  0  0  0  0
  -28.0917  -29.1318   21.1487 H   0  0  0  0  0  0
  -26.0738  -25.9820   18.9994 H   0  0  0  0  0  0
  -23.9788  -27.2812   19.0448 H   0  0  0  0  0  0
  -23.7113  -30.5959   19.4067 H   0  0  0  0  0  0
  -22.7249  -29.2426   19.8713 H   0  0  0  0  0  0
  -25.1272  -36.1967   25.0822 H   0  0  0  0  0  0
  -20.9934  -28.3167   24.1461 H   0  0  0  0  0  0
  -20.5608  -26.2237   23.3591 H   0  0  0  0  0  0
  -21.6626  -26.7401   22.1234 H   0  0  0  0  0  0
  -19.6885  -25.6290   21.1214 H   0  0  0  0  0  0
  -19.6663  -27.3192   20.6730 H   0  0  0  0  0  0
  -17.4173  -26.6648   21.4020 H   0  0  0  0  0  0
  -18.0316  -26.0045   22.9009 H   0  0  0  0  0  0
  -19.7918  -30.7220   24.2307 H   0  0  0  0  0  0
  -17.5003  -31.6253   24.5145 H   0  0  0  0  0  0
  -15.5337  -30.2979   23.7616 H   0  0  0  0  0  0
  -15.8658  -28.0804   22.7053 H   0  0  0  0  0  0
  -24.5921  -30.7055   25.7880 H   0  0  0  0  0  0
  -24.8953  -32.2888   26.4944 H   0  0  0  0  0  0
  -25.8140  -30.8925   27.0260 H   0  0  0  0  0  0
  -26.2771  -29.6846   24.1108 H   0  0  0  0  0  0
  -27.4001  -29.7227   25.4507 H   0  0  0  0  0  0
  -27.8625  -30.4341   23.9209 H   0  0  0  0  0  0
  -27.2659  -33.3600   26.2097 H   0  0  0  0  0  0
  -28.3849  -32.6891   25.0316 H   0  0  0  0  0  0
  -28.0716  -31.8415   26.5394 H   0  0  0  0  0  0
  -28.2594  -38.0112   24.7512 H   0  0  0  0  0  0
  -28.1082  -36.2642   24.6262 H   0  0  0  0  0  0
  -27.2314  -37.1444   25.8870 H   0  0  0  0  0  0
  -20.9254  -29.8802   21.7067 H   0  0  0  0  0  0
  -26.0168  -38.2870   24.1427 H   0  0  0  0  0  0
  -32.8703  -20.8170   20.4480 H   0  0  0  0  0  0
  -32.7432  -19.0752   20.6201 H   0  0  0  0  0  0
  -32.4503  -20.1247   22.0034 H   0  0  0  0  0  0
  -30.7775  -25.3477   15.8377 H   0  0  0  0  0  0
  -30.8503  -25.3108   17.5848 H   0  0  0  0  0  0
  -29.2923  -25.2446   16.7702 H   0  0  0  0  0  0
  -29.9783  -23.3358   14.5241 H   0  0  0  0  0  0
  -28.5745  -22.9942   15.5340 H   0  0  0  0  0  0
  -29.8196  -21.7687   15.3013 H   0  0  0  0  0  0
  -31.6262  -25.2242   21.6203 H   0  0  0  0  0  0
  -30.7689  -26.7062   21.2374 H   0  0  0  0  0  0
  -31.1680  -25.6288   19.9607 H   0  0  0  0  0  0
  -29.6470  -25.2243   23.3970 H   0  0  0  0  0  0
  -27.9839  -25.0839   22.8299 H   0  0  0  0  0  0
  -28.8734  -26.5665   22.5778 H   0  0  0  0  0  0
  -28.9055  -23.0908   18.2017 H   0  0  0  0  0  0
  -29.7113  -21.6325   17.7609 H   0  0  0  0  0  0
  -31.3563  -23.7770   19.1513 H   0  0  0  0  0  0
  -31.6860  -22.1159   18.9782 H   0  0  0  0  0  0
  -30.0093  -16.8580   22.7460 H   0  0  0  0  0  0
  -31.5758  -16.6677   21.9903 H   0  0  0  0  0  0
  -29.1132  -17.4175   20.3112 H   0  0  0  0  0  0
  -30.7965  -17.5908   19.8730 H   0  0  0  0  0  0
  -27.4853  -24.9316   20.3909 H   0  0  0  0  0  0
  -28.7385  -24.9955   19.1675 H   0  0  0  0  0  0
  -30.6505  -19.9944   19.4885 H   0  0  0  0  0  0
  -31.4564  -23.0881   16.5354 H   0  0  0  0  0  0
  -29.2544  -14.9208   21.8597 H   0  0  0  0  0  0
  -30.3401  -19.0186   22.2296 H   0  0  0  0  0  0
  -29.0867  -19.3245   21.2726 H   0  0  0  0  0  0
  1 25  1  0  0  0
  1 30  2  0  0  0
  1 89  1  0  0  0
  2  3  1  0  0  0
  2 25  1  0  0  0
  2 91  1  0  0  0
  2 92  1  0  0  0
  3  4  1  0  0  0
  3 93  1  0  0  0
  3 94  1  0  0  0
  4  5  1  0  0  0
  4 95  1  0  0  0
  4 96  1  0  0  0
  5  6  1  0  0  0
  5 26  1  0  0  0
  5 97  1  0  0  0
  6 25  1  0  0  0
  6 98  1  0  0  0
  6 99  1  0  0  0
  7  8  2  0  0  0
  7 26  1  0  0  0
  7 29  1  0  0  0
  8  9  1  0  0  0
  8 22  1  0  0  0
  9 10  1  0  0  0
  9 27  2  0  0  0
 10 11  2  0  0  0
 10 15  1  0  0  0
 11 12  1  0  0  0
 11100  1  0  0  0
 12 13  2  0  0  0
 12101  1  0  0  0
 13 14  1  0  0  0
 13 31  1  0  0  0
 14 15  2  0  0  0
 14102  1  0  0  0
 15103  1  0  0  0
 16 17  2  0  0  0
 16 21  1  0  0  0
 16 31  1  0  0  0
 17 18  1  0  0  0
 17104  1  0  0  0
 18 19  2  0  0  0
 18105  1  0  0  0
 19 20  1  0  0  0
 19 24  1  0  0  0
 20 21  2  0  0  0
 20106  1  0  0  0
 21 23  1  0  0  0
 22 28  1  0  0  0
 22 32  2  0  0  0
 26 27  1  0  0  0
 28107  1  0  0  0
 28108  1  0  0  0
 29109  1  0  0  0
 29110  1  0  0  0
 33 34  1  0  0  0
 33 66  1  0  0  0
 33 70  2  0  0  0
 34 36  1  0  0  0
 34 59  1  0  0  0
 34111  1  0  0  0
 35 44  2  0  0  0
 35 45  1  0  0  0
 35 68  1  0  0  0
 36 56  1  0  0  0
 36112  1  0  0  0
 37 39  1  0  0  0
 37 47  1  0  0  0
 37 66  1  0  0  0
 37113  1  0  0  0
 38 43  2  0  0  0
 38 46  1  0  0  0
 38 47  1  0  0  0
 39 64  1  0  0  0
 39 67  2  0  0  0
 40 52  1  0  0  0
 40 53  2  0  0  0
 40 58  1  0  0  0
 41114  1  0  0  0
 41115  1  0  0  0
 41116  1  0  0  0
 41 48  1  0  0  0
 42 43  1  0  0  0
 42 66  1  0  0  0
 42117  1  0  0  0
 42118  1  0  0  0
 43 44  1  0  0  0
 44119  1  0  0  0
 45 46  2  0  0  0
 45120  1  0  0  0
 46121  1  0  0  0
 47122  1  0  0  0
 47123  1  0  0  0
 48 56  1  0  0  0
 48 65  1  0  0  0
 48124  1  0  0  0
 49 50  1  0  0  0
 49 53  1  0  0  0
 49 64  1  0  0  0
 49125  1  0  0  0
 50 51  1  0  0  0
 50126  1  0  0  0
 50127  1  0  0  0
 51 52  1  0  0  0
 51128  1  0  0  0
 51129  1  0  0  0
 52130  1  0  0  0
 52131  1  0  0  0
 53 54  1  0  0  0
 54 55  2  0  0  0
 54132  1  0  0  0
 55 57  1  0  0  0
 55133  1  0  0  0
 56 69  2  0  0  0
 57 58  2  0  0  0
 57134  1  0  0  0
 58135  1  0  0  0
 59 60  1  0  0  0
 59 61  1  0  0  0
 59 62  1  0  0  0
 60136  1  0  0  0
 60137  1  0  0  0
 60138  1  0  0  0
 61139  1  0  0  0
 61140  1  0  0  0
 61141  1  0  0  0
 62142  1  0  0  0
 62143  1  0  0  0
 62144  1  0  0  0
 63 65  1  0  0  0
 63145  1  0  0  0
 63146  1  0  0  0
 63147  1  0  0  0
 64148  1  0  0  0
 65149  1  0  0  0
 68 82  1  0  0  0
 71 83  1  0  0  0
 71 86  2  0  0  0
 71 88  1  0  0  0
 72 85  1  0  0  0
 72 87  2  0  0  0
 72 88  1  0  0  0
 73150  1  0  0  0
 73151  1  0  0  0
 73152  1  0  0  0
 73 83  1  0  0  0
 74153  1  0  0  0
 74154  1  0  0  0
 74155  1  0  0  0
 74 84  1  0  0  0
 75 84  1  0  0  0
 75156  1  0  0  0
 75157  1  0  0  0
 75158  1  0  0  0
 76159  1  0  0  0
 76160  1  0  0  0
 76161  1  0  0  0
 76 85  1  0  0  0
 77 85  1  0  0  0
 77162  1  0  0  0
 77163  1  0  0  0
 77164  1  0  0  0
 78 79  1  0  0  0
 78 84  1  0  0  0
 78165  1  0  0  0
 78166  1  0  0  0
 79 88  1  0  0  0
 79167  1  0  0  0
 79168  1  0  0  0
 80 81  1  0  0  0
 80 89  1  0  0  0
 80169  1  0  0  0
 80170  1  0  0  0
 81 90  1  0  0  0
 81171  1  0  0  0
 81172  1  0  0  0
 82 85  1  0  0  0
 82173  1  0  0  0
 82174  1  0  0  0
 83 90  1  0  0  0
 83175  1  0  0  0
 84176  1  0  0  0
 86 87  1  0  0  0
 89177  1  0  0  0
 90178  1  0  0  0
 90179  1  0  0  0
M  CHG  1  90   1
M  ISO  4   1 100  68 101  82 101  89 100
M  END
> <chiral flag>
0

> <version>
0

> <s_m_source_file>
/data/baiqing/PycharmProjects/Reinvent-master-3.2/result/LINK_invent/BTK/process_docking_weight1_custom_sum_contain_oxygen_bond_distance_aromatic_linkinvent_7_9_3/rearranged_h_0072.sdf

> <i_m_source_file_index>
16

> <r_mmod_Potential_Energy-OPLS-2005>
-320.254943847656

> <r_mmod_Stretch_Energy-OPLS-2005>
40.281078338623

> <r_mmod_Bend_Energy-OPLS-2005>
127.179321289062

> <r_mmod_Torsional_Energy-OPLS-2005>
248.315643310547

> <r_mmod_Improper_Torsional_Energy-OPLS-2005>
2.53807330131531

> <r_mmod_Van_der_Waal_Energy-OPLS-2005>
141.155166625977

> <r_mmod_Electrostatic_Energy-OPLS-2005>
-420.248321533203

> <r_mmod_Solvation_Energy-OPLS-2005>
-467.704071044922

> <b_mmod_Minimization_Converged-OPLS-2005>
0

> <r_mmod_RMS_Derivative-OPLS-2005>
3.68698287010193

$$$$
17
                    3D
 Structure written by MMmdl.
154162  0  0  1  0            999 V2000
  -30.4921  -14.9942   20.3931 C   0  0  0  0  0  0
  -30.4400  -12.6236   19.4965 C   0  0  0  0  0  0
  -29.5280  -12.5579   18.2511 C   0  0  0  0  0  0
  -28.0596  -12.3312   18.6580 C   0  0  0  0  0  0
  -27.6256  -13.2466   19.8319 C   0  0  2  0  0  0
  -28.6655  -13.2855   20.9708 C   0  0  0  0  0  0
  -25.2537  -13.8164   20.5755 C   0  0  0  0  0  0
  -24.1845  -13.0406   20.9252 C   0  0  0  0  0  0
  -24.6425  -11.6888   20.8720 C   0  0  0  0  0  0
  -23.9099  -10.4278   21.0377 C   0  0  0  0  0  0
  -24.3631   -9.4231   21.9194 C   0  0  0  0  0  0
  -23.6302   -8.2272   22.0766 C   0  0  0  0  0  0
  -22.4279   -8.0298   21.3546 C   0  0  0  0  0  0
  -21.9923   -9.0267   20.4639 C   0  0  0  0  0  0
  -22.7248  -10.2150   20.3060 C   0  0  0  0  0  0
  -21.6871   -6.0740   22.5266 C   0  0  0  0  0  0
  -21.4034   -6.5654   23.8198 C   0  0  0  0  0  0
  -21.3665   -5.6807   24.9166 C   0  0  0  0  0  0
  -21.6053   -4.3066   24.7221 C   0  0  0  0  0  0
  -21.8823   -3.8155   23.4345 C   0  0  0  0  0  0
  -21.9234   -4.6971   22.3406 C   0  0  0  0  0  0
  -22.7876  -13.5202   21.1873 C   0  0  0  0  0  0
  -22.1705   -4.2163   21.0976 F   0  0  0  0  0  0
  -21.5608   -3.4559   25.7715 F   0  0  0  0  0  0
  -29.9330  -13.7171   20.3715 N   0  0  0  0  0  0
  -26.2872  -12.9367   20.3150 N   0  0  0  0  0  0
  -25.9321  -11.6491   20.5644 N   0  0  0  0  0  0
  -22.0481  -12.8189   22.0390 N   0  0  0  0  0  0
  -25.4282  -15.1884   20.4188 N   0  0  0  0  0  0
  -31.6928  -15.0744   20.1115 O   0  0  0  0  0  0
  -21.6667   -6.8877   21.4212 O   0  0  0  0  0  0
  -22.3582  -14.5480   20.6661 O   0  0  0  0  0  0
  -24.6430  -31.8450   23.1856 C   0  0  0  0  0  0
  -25.9210  -32.4716   23.8248 C   0  0  1  0  0  0
  -27.2018  -27.1078   20.1493 C   0  0  0  0  0  0
  -25.5948  -33.8514   24.2191 N   0  0  0  0  0  0
  -23.4443  -30.4652   21.5315 C   0  0  2  0  0  0
  -24.8895  -28.8826   20.1061 C   0  0  0  0  0  0
  -22.7555  -29.4595   22.4873 C   0  0  0  0  0  0
  -18.0295  -28.1431   22.8502 C   0  0  0  0  0  0
  -24.1486  -36.7252   23.2631 C   0  0  0  0  0  0
  -26.0002  -30.7119   21.3819 C   0  0  0  0  0  0
  -26.0681  -29.3177   20.7240 C   0  0  0  0  0  0
  -27.2198  -28.4445   20.7295 C   0  0  0  0  0  0
  -25.9997  -26.7787   19.4861 C   0  0  0  0  0  0
  -24.8701  -27.6298   19.4723 C   0  0  0  0  0  0
  -23.6671  -29.7894   20.1514 C   0  0  0  0  0  0
  -25.4133  -36.3049   24.0303 C   0  0  1  0  0  0
  -20.5905  -28.3772   23.1247 C   0  0  2  0  0  0
  -20.6806  -26.9493   22.5412 C   0  0  0  0  0  0
  -19.5786  -26.6421   21.5232 C   0  0  0  0  0  0
  -18.1946  -26.7970   22.1634 C   0  0  0  0  0  0
  -19.1548  -28.8918   23.2859 C   0  0  0  0  0  0
  -18.9478  -30.1493   23.8925 C   0  0  0  0  0  0
  -17.6478  -30.6631   24.0568 C   0  0  0  0  0  0
  -25.9080  -34.9421   23.5066 C   0  0  0  0  0  0
  -16.5365  -29.9134   23.6333 C   0  0  0  0  0  0
  -16.7273  -28.6530   23.0394 C   0  0  0  0  0  0
  -26.4538  -31.6561   25.0675 C   0  0  0  0  0  0
  -25.3689  -31.3743   26.1332 C   0  0  0  0  0  0
  -27.0363  -30.2949   24.6228 C   0  0  0  0  0  0
  -27.6079  -32.4302   25.7481 C   0  0  0  0  0  0
  -27.5600  -37.1784   24.8469 C   0  0  0  0  0  0
  -21.4254  -29.3075   22.3605 N   0  0  0  0  0  0
  -26.4307  -37.3770   23.9413 N   0  0  0  0  0  0
  -24.7162  -31.0281   22.0898 N   0  0  0  0  0  0
  -23.4195  -28.8151   23.3023 O   0  0  0  0  0  0
  -28.2611  -26.1304   20.2669 O   0  0  0  0  0  0
  -26.5680  -34.8923   22.4655 O   0  0  0  0  0  0
  -23.5549  -32.1350   23.7063 O   0  0  0  0  0  0
  -27.7173  -20.4133   22.0367 C   0  0  0  0  0  0
  -27.6127  -19.2132   22.6632 C   0  0  0  0  0  0
  -28.9644  -18.8459   20.9445 C   0  0  0  0  0  0
  -29.7866  -17.9404   18.6590 C   0  0  0  0  0  0
  -28.3223  -23.1684   20.6203 C   0  0  0  0  0  0
  -28.7806  -21.5965   20.0803 C   0  0  0  0  0  0
  -28.3003  -24.6409   19.7608 C   0  0  0  0  0  0
  -29.8716  -17.7201   20.1758 C   0  0  2  0  0  0
  -28.5695  -20.2515   20.9557 N   0  0  0  0  0  0
  -28.3690  -18.3078   22.0140 N   0  3  0  0  0  0
  -29.6724  -16.1609   20.5094 N   0  0  0  0  0  0
  -26.8805  -18.9432   23.7710 F   0  0  0  0  0  0
  -31.4789  -12.7863   19.1908 H   0  0  0  0  0  0
  -30.4336  -11.6738   20.0316 H   0  0  0  0  0  0
  -29.8613  -11.7690   17.5776 H   0  0  0  0  0  0
  -29.6114  -13.4950   17.6958 H   0  0  0  0  0  0
  -27.9482  -11.2842   18.9415 H   0  0  0  0  0  0
  -27.4082  -12.4881   17.7968 H   0  0  0  0  0  0
  -27.5817  -14.2472   19.4026 H   0  0  0  0  0  0
  -28.7691  -12.3098   21.4470 H   0  0  0  0  0  0
  -28.3560  -13.9818   21.7514 H   0  0  0  0  0  0
  -25.2768   -9.5753   22.4784 H   0  0  0  0  0  0
  -24.0016   -7.4698   22.7534 H   0  0  0  0  0  0
  -21.0842   -8.8776   19.8957 H   0  0  0  0  0  0
  -22.3668  -10.9693   19.6198 H   0  0  0  0  0  0
  -21.1989   -7.6151   23.9670 H   0  0  0  0  0  0
  -21.1500   -6.0556   25.9051 H   0  0  0  0  0  0
  -22.0589   -2.7609   23.2842 H   0  0  0  0  0  0
  -22.4018  -11.9792   22.4746 H   0  0  0  0  0  0
  -21.1099  -13.1243   22.2523 H   0  0  0  0  0  0
  -24.6540  -15.8364   20.5216 H   0  0  0  0  0  0
  -26.1914  -15.5743   19.8788 H   0  0  0  0  0  0
  -26.7257  -32.5327   23.0945 H   0  0  0  0  0  0
  -25.0020  -33.9646   25.0288 H   0  0  0  0  0  0
  -22.7437  -31.2879   21.3765 H   0  0  0  0  0  0
  -23.3788  -35.9547   23.3272 H   0  0  0  0  0  0
  -24.3546  -36.8921   22.2051 H   0  0  0  0  0  0
  -23.7199  -37.6417   23.6686 H   0  0  0  0  0  0
  -26.1453  -31.4667   20.6064 H   0  0  0  0  0  0
  -26.8753  -30.7702   22.0192 H   0  0  0  0  0  0
  -28.1162  -28.7726   21.2341 H   0  0  0  0  0  0
  -25.8842  -25.8180   19.0076 H   0  0  0  0  0  0
  -23.9636  -27.2976   18.9827 H   0  0  0  0  0  0
  -23.7995  -30.5629   19.3933 H   0  0  0  0  0  0
  -22.7806  -29.2297   19.8468 H   0  0  0  0  0  0
  -25.1327  -36.1874   25.0797 H   0  0  0  0  0  0
  -20.9982  -28.3384   24.1377 H   0  0  0  0  0  0
  -20.5744  -26.2422   23.3644 H   0  0  0  0  0  0
  -21.6678  -26.7537   22.1198 H   0  0  0  0  0  0
  -19.6970  -25.6314   21.1315 H   0  0  0  0  0  0
  -19.6707  -27.3199   20.6733 H   0  0  0  0  0  0
  -17.4225  -26.6709   21.4012 H   0  0  0  0  0  0
  -18.0333  -26.0099   22.9029 H   0  0  0  0  0  0
  -19.7935  -30.7280   24.2354 H   0  0  0  0  0  0
  -17.5025  -31.6326   24.5160 H   0  0  0  0  0  0
  -15.5370  -30.3065   23.7630 H   0  0  0  0  0  0
  -15.8662  -28.0819   22.7195 H   0  0  0  0  0  0
  -24.5917  -30.7063   25.7620 H   0  0  0  0  0  0
  -24.8804  -32.2908   26.4637 H   0  0  0  0  0  0
  -25.7908  -30.8983   27.0183 H   0  0  0  0  0  0
  -26.2945  -29.6696   24.1250 H   0  0  0  0  0  0
  -27.3997  -29.7223   25.4766 H   0  0  0  0  0  0
  -27.8853  -30.4179   23.9504 H   0  0  0  0  0  0
  -27.2712  -33.3641   26.1987 H   0  0  0  0  0  0
  -28.3944  -32.6795   25.0349 H   0  0  0  0  0  0
  -28.0682  -31.8453   26.5452 H   0  0  0  0  0  0
  -28.2595  -38.0107   24.7566 H   0  0  0  0  0  0
  -28.1124  -36.2638   24.6248 H   0  0  0  0  0  0
  -27.2302  -37.1374   25.8865 H   0  0  0  0  0  0
  -20.9498  -29.8711   21.6704 H   0  0  0  0  0  0
  -26.0173  -38.2839   24.1432 H   0  0  0  0  0  0
  -27.2376  -21.3390   22.3070 H   0  0  0  0  0  0
  -30.1303  -18.9415   18.3879 H   0  0  0  0  0  0
  -28.7607  -17.8382   18.3028 H   0  0  0  0  0  0
  -30.4026  -17.2281   18.1120 H   0  0  0  0  0  0
  -28.9213  -23.3570   21.5094 H   0  0  0  0  0  0
  -27.3020  -23.0860   20.9962 H   0  0  0  0  0  0
  -29.8313  -21.6221   19.7967 H   0  0  0  0  0  0
  -28.2415  -21.4107   19.1513 H   0  0  0  0  0  0
  -27.5833  -24.5326   18.9499 H   0  0  0  0  0  0
  -29.2538  -24.6310   19.2311 H   0  0  0  0  0  0
  -30.8909  -17.9567   20.4846 H   0  0  0  0  0  0
  -28.4853  -17.3482   22.3099 H   0  0  0  0  0  0
  -28.7144  -15.9065   20.6903 H   0  0  0  0  0  0
  1 25  1  0  0  0
  1 30  2  0  0  0
  1 81  1  0  0  0
  2  3  1  0  0  0
  2 25  1  0  0  0
  2 83  1  0  0  0
  2 84  1  0  0  0
  3  4  1  0  0  0
  3 85  1  0  0  0
  3 86  1  0  0  0
  4  5  1  0  0  0
  4 87  1  0  0  0
  4 88  1  0  0  0
  5  6  1  0  0  0
  5 26  1  0  0  0
  5 89  1  0  0  0
  6 25  1  0  0  0
  6 90  1  0  0  0
  6 91  1  0  0  0
  7  8  2  0  0  0
  7 26  1  0  0  0
  7 29  1  0  0  0
  8  9  1  0  0  0
  8 22  1  0  0  0
  9 10  1  0  0  0
  9 27  2  0  0  0
 10 11  2  0  0  0
 10 15  1  0  0  0
 11 12  1  0  0  0
 11 92  1  0  0  0
 12 13  2  0  0  0
 12 93  1  0  0  0
 13 14  1  0  0  0
 13 31  1  0  0  0
 14 15  2  0  0  0
 14 94  1  0  0  0
 15 95  1  0  0  0
 16 17  2  0  0  0
 16 21  1  0  0  0
 16 31  1  0  0  0
 17 18  1  0  0  0
 17 96  1  0  0  0
 18 19  2  0  0  0
 18 97  1  0  0  0
 19 20  1  0  0  0
 19 24  1  0  0  0
 20 21  2  0  0  0
 20 98  1  0  0  0
 21 23  1  0  0  0
 22 28  1  0  0  0
 22 32  2  0  0  0
 26 27  1  0  0  0
 28 99  1  0  0  0
 28100  1  0  0  0
 29101  1  0  0  0
 29102  1  0  0  0
 33 34  1  0  0  0
 33 66  1  0  0  0
 33 70  2  0  0  0
 34 36  1  0  0  0
 34 59  1  0  0  0
 34103  1  0  0  0
 35 44  2  0  0  0
 35 45  1  0  0  0
 35 68  1  0  0  0
 36 56  1  0  0  0
 36104  1  0  0  0
 37 39  1  0  0  0
 37 47  1  0  0  0
 37 66  1  0  0  0
 37105  1  0  0  0
 38 43  2  0  0  0
 38 46  1  0  0  0
 38 47  1  0  0  0
 39 64  1  0  0  0
 39 67  2  0  0  0
 40 52  1  0  0  0
 40 53  2  0  0  0
 40 58  1  0  0  0
 41106  1  0  0  0
 41107  1  0  0  0
 41108  1  0  0  0
 41 48  1  0  0  0
 42 43  1  0  0  0
 42 66  1  0  0  0
 42109  1  0  0  0
 42110  1  0  0  0
 43 44  1  0  0  0
 44111  1  0  0  0
 45 46  2  0  0  0
 45112  1  0  0  0
 46113  1  0  0  0
 47114  1  0  0  0
 47115  1  0  0  0
 48 56  1  0  0  0
 48 65  1  0  0  0
 48116  1  0  0  0
 49 50  1  0  0  0
 49 53  1  0  0  0
 49 64  1  0  0  0
 49117  1  0  0  0
 50 51  1  0  0  0
 50118  1  0  0  0
 50119  1  0  0  0
 51 52  1  0  0  0
 51120  1  0  0  0
 51121  1  0  0  0
 52122  1  0  0  0
 52123  1  0  0  0
 53 54  1  0  0  0
 54 55  2  0  0  0
 54124  1  0  0  0
 55 57  1  0  0  0
 55125  1  0  0  0
 56 69  2  0  0  0
 57 58  2  0  0  0
 57126  1  0  0  0
 58127  1  0  0  0
 59 60  1  0  0  0
 59 61  1  0  0  0
 59 62  1  0  0  0
 60128  1  0  0  0
 60129  1  0  0  0
 60130  1  0  0  0
 61131  1  0  0  0
 61132  1  0  0  0
 61133  1  0  0  0
 62134  1  0  0  0
 62135  1  0  0  0
 62136  1  0  0  0
 63 65  1  0  0  0
 63137  1  0  0  0
 63138  1  0  0  0
 63139  1  0  0  0
 64140  1  0  0  0
 65141  1  0  0  0
 68 77  1  0  0  0
 71 72  2  0  0  0
 71 79  1  0  0  0
 71142  1  0  0  0
 72 80  1  0  0  0
 72 82  1  0  0  0
 73 78  1  0  0  0
 73 79  1  0  0  0
 73 80  2  0  0  0
 74143  1  0  0  0
 74144  1  0  0  0
 74145  1  0  0  0
 74 78  1  0  0  0
 75 76  1  0  0  0
 75 77  1  0  0  0
 75146  1  0  0  0
 75147  1  0  0  0
 76 79  1  0  0  0
 76148  1  0  0  0
 76149  1  0  0  0
 77150  1  0  0  0
 77151  1  0  0  0
 78 81  1  0  0  0
 78152  1  0  0  0
 80153  1  0  0  0
 81154  1  0  0  0
M  CHG  1  80   1
M  ISO  4   1 100  68 101  77 101  81 100
M  END
> <chiral flag>
0

> <version>
0

> <s_m_source_file>
/data/baiqing/PycharmProjects/Reinvent-master-3.2/result/LINK_invent/BTK/process_docking_weight1_custom_sum_contain_oxygen_bond_distance_aromatic_linkinvent_7_9_3/rearranged_h_0072.sdf

> <i_m_source_file_index>
17

> <r_mmod_Potential_Energy-OPLS-2005>
414.313293457031

> <r_mmod_Stretch_Energy-OPLS-2005>
325.646514892578

> <r_mmod_Bend_Energy-OPLS-2005>
345.813079833984

> <r_mmod_Torsional_Energy-OPLS-2005>
217.770126342773

> <r_mmod_Improper_Torsional_Energy-OPLS-2005>
6.6567211151123

> <r_mmod_Van_der_Waal_Energy-OPLS-2005>
106.645057678223

> <r_mmod_Electrostatic_Energy-OPLS-2005>
-348.908172607422

> <r_mmod_Solvation_Energy-OPLS-2005>
-462.439056396484

> <b_mmod_Minimization_Converged-OPLS-2005>
0

> <r_mmod_RMS_Derivative-OPLS-2005>
4.88528680801392

$$$$
18
                    3D
 Structure written by MMmdl.
167175  0  0  1  0            999 V2000
  -30.7320  -14.4428   20.7118 C   0  0  0  0  0  0
  -30.4375  -12.3719   19.3577 C   0  0  0  0  0  0
  -29.4601  -12.5506   18.1739 C   0  0  0  0  0  0
  -27.9907  -12.3717   18.6044 C   0  0  0  0  0  0
  -27.6654  -13.1758   19.8850 C   0  0  2  0  0  0
  -28.7283  -12.8711   20.9685 C   0  0  0  0  0  0
  -25.2625  -13.8076   20.5683 C   0  0  0  0  0  0
  -24.1838  -13.0375   20.9194 C   0  0  0  0  0  0
  -24.6393  -11.6851   20.8777 C   0  0  0  0  0  0
  -23.9059  -10.4256   21.0432 C   0  0  0  0  0  0
  -24.3614   -9.4159   21.9186 C   0  0  0  0  0  0
  -23.6285   -8.2199   22.0735 C   0  0  0  0  0  0
  -22.4274   -8.0255   21.3522 C   0  0  0  0  0  0
  -21.9936   -9.0224   20.4621 C   0  0  0  0  0  0
  -22.7262  -10.2105   20.3046 C   0  0  0  0  0  0
  -21.6838   -6.0736   22.5265 C   0  0  0  0  0  0
  -21.3977   -6.5640   23.8194 C   0  0  0  0  0  0
  -21.3639   -5.6798   24.9163 C   0  0  0  0  0  0
  -21.6053   -4.3065   24.7228 C   0  0  0  0  0  0
  -21.8824   -3.8157   23.4347 C   0  0  0  0  0  0
  -21.9190   -4.6966   22.3401 C   0  0  0  0  0  0
  -22.7876  -13.5174   21.1898 C   0  0  0  0  0  0
  -22.1671   -4.2141   21.0986 F   0  0  0  0  0  0
  -21.5658   -3.4552   25.7753 F   0  0  0  0  0  0
  -30.0363  -13.2924   20.4426 N   0  0  0  0  0  0
  -26.3059  -12.9184   20.3498 N   0  0  0  0  0  0
  -25.9313  -11.6372   20.5853 N   0  0  0  0  0  0
  -22.0556  -12.8045   22.0434 N   0  0  0  0  0  0
  -25.4319  -15.1775   20.4016 N   0  0  0  0  0  0
  -31.7713  -14.6806   20.0845 O   0  0  0  0  0  0
  -21.6612   -6.8865   21.4230 O   0  0  0  0  0  0
  -22.3534  -14.5508   20.6847 O   0  0  0  0  0  0
  -24.6142  -31.8646   23.2118 C   0  0  0  0  0  0
  -25.9031  -32.4796   23.8410 C   0  0  1  0  0  0
  -27.2764  -27.4513   20.0939 C   0  0  0  0  0  0
  -25.5903  -33.8594   24.2358 N   0  0  0  0  0  0
  -23.4056  -30.4856   21.5490 C   0  0  2  0  0  0
  -24.8603  -28.9447   20.1183 C   0  0  0  0  0  0
  -22.7425  -29.4667   22.5014 C   0  0  0  0  0  0
  -18.0271  -28.1408   22.8509 C   0  0  0  0  0  0
  -24.1474  -36.7317   23.2639 C   0  0  0  0  0  0
  -25.9327  -30.8280   21.3695 C   0  0  0  0  0  0
  -26.0127  -29.4627   20.7191 C   0  0  0  0  0  0
  -27.2117  -28.7186   20.7138 C   0  0  0  0  0  0
  -26.1036  -26.9384   19.4873 C   0  0  0  0  0  0
  -24.9006  -27.6788   19.5043 C   0  0  0  0  0  0
  -23.6161  -29.8069   20.1675 C   0  0  0  0  0  0
  -25.4089  -36.3107   24.0350 C   0  0  1  0  0  0
  -20.5862  -28.3696   23.1323 C   0  0  2  0  0  0
  -20.6763  -26.9426   22.5426 C   0  0  0  0  0  0
  -19.5736  -26.6407   21.5228 C   0  0  0  0  0  0
  -18.1914  -26.7952   22.1647 C   0  0  0  0  0  0
  -19.1523  -28.8869   23.2918 C   0  0  0  0  0  0
  -18.9451  -30.1468   23.8933 C   0  0  0  0  0  0
  -17.6452  -30.6603   24.0588 C   0  0  0  0  0  0
  -25.9017  -34.9470   23.5161 C   0  0  0  0  0  0
  -16.5344  -29.9119   23.6311 C   0  0  0  0  0  0
  -16.7261  -28.6538   23.0334 C   0  0  0  0  0  0
  -26.4505  -31.6556   25.0716 C   0  0  0  0  0  0
  -25.3790  -31.3570   26.1465 C   0  0  0  0  0  0
  -27.0380  -30.3023   24.6119 C   0  0  0  0  0  0
  -27.6048  -32.4326   25.7466 C   0  0  0  0  0  0
  -27.5549  -37.1831   24.8475 C   0  0  0  0  0  0
  -21.4153  -29.3048   22.3719 N   0  0  0  0  0  0
  -26.4268  -37.3796   23.9410 N   0  0  0  0  0  0
  -24.6674  -31.0755   22.1005 N   0  0  0  0  0  0
  -23.4188  -28.8244   23.3094 O   0  0  0  0  0  0
  -28.4914  -26.7879   20.1298 O   0  0  0  0  0  0
  -26.5553  -34.8927   22.4705 O   0  0  0  0  0  0
  -23.5348  -32.1378   23.7538 O   0  0  0  0  0  0
  -30.7168  -17.4918   20.2833 C   0  0  0  0  0  0
  -30.8354  -16.8983   21.5669 C   0  0  0  0  0  0
  -31.0782  -19.0287   22.4848 C   0  0  0  0  0  0
  -30.9172  -19.6108   21.1999 C   0  0  0  0  0  0
  -31.1973  -19.8191   23.7744 C   0  0  0  0  0  0
  -28.8263  -15.6730   22.1255 C   0  0  0  0  0  0
  -31.0314  -14.8962   23.1304 C   0  0  0  0  0  0
  -30.7371  -21.1120   20.9660 C   0  0  0  0  0  0
  -32.0284  -21.9358   20.7847 C   0  0  0  0  0  0
  -31.8259  -23.2958   20.0595 C   0  0  0  0  0  0
  -30.5945  -24.1579   20.4659 C   0  0  0  0  0  0
  -30.1799  -25.1636   19.3593 C   0  0  0  0  0  0
  -28.6943  -25.6166   19.3405 C   0  0  0  0  0  0
  -30.3433  -15.4591   21.8618 C   0  0  0  0  0  0
  -30.7781  -18.8345   20.0960 N   0  0  0  0  0  0
  -31.0446  -17.6861   22.6572 N   0  0  0  0  0  0
  -31.4529  -12.5484   19.0003 H   0  0  0  0  0  0
  -30.4387  -11.3419   19.7148 H   0  0  0  0  0  0
  -29.7014  -11.8490   17.3767 H   0  0  0  0  0  0
  -29.5820  -13.5467   17.7485 H   0  0  0  0  0  0
  -27.8030  -11.3098   18.7651 H   0  0  0  0  0  0
  -27.3250  -12.6772   17.7968 H   0  0  0  0  0  0
  -27.7229  -14.2245   19.6012 H   0  0  0  0  0  0
  -28.7594  -11.7962   21.1555 H   0  0  0  0  0  0
  -28.4753  -13.2552   21.9446 H   0  0  0  0  0  0
  -25.2768   -9.5605   22.4760 H   0  0  0  0  0  0
  -23.9994   -7.4574   22.7439 H   0  0  0  0  0  0
  -21.0890   -8.8734   19.8912 H   0  0  0  0  0  0
  -22.3739  -10.9632   19.6152 H   0  0  0  0  0  0
  -21.1922   -7.6132   23.9689 H   0  0  0  0  0  0
  -21.1472   -6.0530   25.9062 H   0  0  0  0  0  0
  -22.0633   -2.7615   23.2851 H   0  0  0  0  0  0
  -22.4217  -11.9616   22.4609 H   0  0  0  0  0  0
  -21.1170  -13.0953   22.2776 H   0  0  0  0  0  0
  -24.6690  -15.8339   20.5216 H   0  0  0  0  0  0
  -26.2838  -15.6166   20.0769 H   0  0  0  0  0  0
  -26.7092  -32.5541   23.1155 H   0  0  0  0  0  0
  -25.0160  -33.9772   25.0576 H   0  0  0  0  0  0
  -22.6950  -31.3018   21.4058 H   0  0  0  0  0  0
  -23.3690  -35.9707   23.3373 H   0  0  0  0  0  0
  -24.3542  -36.8849   22.2039 H   0  0  0  0  0  0
  -23.7271  -37.6571   23.6589 H   0  0  0  0  0  0
  -26.0507  -31.5942   20.6035 H   0  0  0  0  0  0
  -26.8174  -30.8808   21.9924 H   0  0  0  0  0  0
  -28.0994  -29.1233   21.1798 H   0  0  0  0  0  0
  -26.1033  -25.9723   19.0028 H   0  0  0  0  0  0
  -24.0148  -27.2713   19.0369 H   0  0  0  0  0  0
  -23.7230  -30.5754   19.4030 H   0  0  0  0  0  0
  -22.7424  -29.2190   19.8760 H   0  0  0  0  0  0
  -25.1250  -36.1987   25.0834 H   0  0  0  0  0  0
  -20.9960  -28.3263   24.1446 H   0  0  0  0  0  0
  -20.5695  -26.2292   23.3616 H   0  0  0  0  0  0
  -21.6634  -26.7490   22.1202 H   0  0  0  0  0  0
  -19.6902  -25.6323   21.1246 H   0  0  0  0  0  0
  -19.6657  -27.3244   20.6778 H   0  0  0  0  0  0
  -17.4188  -26.6691   21.4046 H   0  0  0  0  0  0
  -18.0325  -26.0093   22.9053 H   0  0  0  0  0  0
  -19.7922  -30.7277   24.2322 H   0  0  0  0  0  0
  -17.5006  -31.6287   24.5194 H   0  0  0  0  0  0
  -15.5353  -30.3053   23.7596 H   0  0  0  0  0  0
  -15.8661  -28.0884   22.7011 H   0  0  0  0  0  0
  -24.6013  -30.6855   25.7808 H   0  0  0  0  0  0
  -24.8908  -32.2671   26.4944 H   0  0  0  0  0  0
  -25.8176  -30.8730   27.0204 H   0  0  0  0  0  0
  -27.4001  -29.7184   25.4599 H   0  0  0  0  0  0
  -27.8859  -30.4366   23.9391 H   0  0  0  0  0  0
  -26.3005  -29.6827   24.1031 H   0  0  0  0  0  0
  -27.2591  -33.3465   26.2317 H   0  0  0  0  0  0
  -28.3677  -32.7194   25.0205 H   0  0  0  0  0  0
  -28.0961  -31.8354   26.5172 H   0  0  0  0  0  0
  -28.2662  -38.0023   24.7376 H   0  0  0  0  0  0
  -28.0936  -36.2557   24.6447 H   0  0  0  0  0  0
  -27.2308  -37.1713   25.8895 H   0  0  0  0  0  0
  -20.9331  -29.8706   21.6868 H   0  0  0  0  0  0
  -26.0155  -38.2899   24.1314 H   0  0  0  0  0  0
  -30.4565  -16.9074   19.4133 H   0  0  0  0  0  0
  -32.0536  -19.4716   24.3536 H   0  0  0  0  0  0
  -30.3038  -19.6756   24.3860 H   0  0  0  0  0  0
  -31.3299  -20.8865   23.6148 H   0  0  0  0  0  0
  -28.4463  -15.0425   22.9275 H   0  0  0  0  0  0
  -28.2318  -15.5265   21.2313 H   0  0  0  0  0  0
  -28.5920  -16.6880   22.4533 H   0  0  0  0  0  0
  -30.7814  -13.8467   23.2967 H   0  0  0  0  0  0
  -32.1195  -14.9610   23.0501 H   0  0  0  0  0  0
  -30.7311  -15.4355   24.0274 H   0  0  0  0  0  0
  -30.1392  -21.5284   21.7753 H   0  0  0  0  0  0
  -30.1230  -21.2328   20.0745 H   0  0  0  0  0  0
  -32.5213  -22.0679   21.7484 H   0  0  0  0  0  0
  -32.7237  -21.3553   20.1753 H   0  0  0  0  0  0
  -31.7603  -23.0713   18.9946 H   0  0  0  0  0  0
  -32.7350  -23.8901   20.1596 H   0  0  0  0  0  0
  -30.7965  -24.6849   21.4001 H   0  0  0  0  0  0
  -29.7413  -23.5125   20.6658 H   0  0  0  0  0  0
  -30.3535  -24.6715   18.4044 H   0  0  0  0  0  0
  -30.8406  -26.0325   19.3613 H   0  0  0  0  0  0
  -28.0393  -24.8066   19.6626 H   0  0  0  0  0  0
  -28.4290  -25.8489   18.3082 H   0  0  0  0  0  0
  1 25  1  0  0  0
  1 30  2  0  0  0
  1 84  1  0  0  0
  2  3  1  0  0  0
  2 25  1  0  0  0
  2 87  1  0  0  0
  2 88  1  0  0  0
  3  4  1  0  0  0
  3 89  1  0  0  0
  3 90  1  0  0  0
  4  5  1  0  0  0
  4 91  1  0  0  0
  4 92  1  0  0  0
  5  6  1  0  0  0
  5 26  1  0  0  0
  5 93  1  0  0  0
  6 25  1  0  0  0
  6 94  1  0  0  0
  6 95  1  0  0  0
  7  8  2  0  0  0
  7 26  1  0  0  0
  7 29  1  0  0  0
  8  9  1  0  0  0
  8 22  1  0  0  0
  9 10  1  0  0  0
  9 27  2  0  0  0
 10 11  2  0  0  0
 10 15  1  0  0  0
 11 12  1  0  0  0
 11 96  1  0  0  0
 12 13  2  0  0  0
 12 97  1  0  0  0
 13 14  1  0  0  0
 13 31  1  0  0  0
 14 15  2  0  0  0
 14 98  1  0  0  0
 15 99  1  0  0  0
 16 17  2  0  0  0
 16 21  1  0  0  0
 16 31  1  0  0  0
 17 18  1  0  0  0
 17100  1  0  0  0
 18 19  2  0  0  0
 18101  1  0  0  0
 19 20  1  0  0  0
 19 24  1  0  0  0
 20 21  2  0  0  0
 20102  1  0  0  0
 21 23  1  0  0  0
 22 28  1  0  0  0
 22 32  2  0  0  0
 26 27  1  0  0  0
 28103  1  0  0  0
 28104  1  0  0  0
 29105  1  0  0  0
 29106  1  0  0  0
 33 34  1  0  0  0
 33 66  1  0  0  0
 33 70  2  0  0  0
 34 36  1  0  0  0
 34 59  1  0  0  0
 34107  1  0  0  0
 35 44  2  0  0  0
 35 45  1  0  0  0
 35 68  1  0  0  0
 36 56  1  0  0  0
 36108  1  0  0  0
 37 39  1  0  0  0
 37 47  1  0  0  0
 37 66  1  0  0  0
 37109  1  0  0  0
 38 43  2  0  0  0
 38 46  1  0  0  0
 38 47  1  0  0  0
 39 64  1  0  0  0
 39 67  2  0  0  0
 40 52  1  0  0  0
 40 53  2  0  0  0
 40 58  1  0  0  0
 41110  1  0  0  0
 41111  1  0  0  0
 41112  1  0  0  0
 41 48  1  0  0  0
 42 43  1  0  0  0
 42 66  1  0  0  0
 42113  1  0  0  0
 42114  1  0  0  0
 43 44  1  0  0  0
 44115  1  0  0  0
 45 46  2  0  0  0
 45116  1  0  0  0
 46117  1  0  0  0
 47118  1  0  0  0
 47119  1  0  0  0
 48 56  1  0  0  0
 48 65  1  0  0  0
 48120  1  0  0  0
 49 50  1  0  0  0
 49 53  1  0  0  0
 49 64  1  0  0  0
 49121  1  0  0  0
 50 51  1  0  0  0
 50122  1  0  0  0
 50123  1  0  0  0
 51 52  1  0  0  0
 51124  1  0  0  0
 51125  1  0  0  0
 52126  1  0  0  0
 52127  1  0  0  0
 53 54  1  0  0  0
 54 55  2  0  0  0
 54128  1  0  0  0
 55 57  1  0  0  0
 55129  1  0  0  0
 56 69  2  0  0  0
 57 58  2  0  0  0
 57130  1  0  0  0
 58131  1  0  0  0
 59 60  1  0  0  0
 59 61  1  0  0  0
 59 62  1  0  0  0
 60132  1  0  0  0
 60133  1  0  0  0
 60134  1  0  0  0
 61135  1  0  0  0
 61136  1  0  0  0
 61137  1  0  0  0
 62138  1  0  0  0
 62139  1  0  0  0
 62140  1  0  0  0
 63 65  1  0  0  0
 63141  1  0  0  0
 63142  1  0  0  0
 63143  1  0  0  0
 64144  1  0  0  0
 65145  1  0  0  0
 68 83  1  0  0  0
 71 72  2  0  0  0
 71 85  1  0  0  0
 71146  1  0  0  0
 72 84  1  0  0  0
 72 86  1  0  0  0
 73 74  1  0  0  0
 73 75  1  0  0  0
 73 86  2  0  0  0
 74 78  1  0  0  0
 74 85  2  0  0  0
 75147  1  0  0  0
 75148  1  0  0  0
 75149  1  0  0  0
 76150  1  0  0  0
 76151  1  0  0  0
 76152  1  0  0  0
 76 84  1  0  0  0
 77 84  1  0  0  0
 77153  1  0  0  0
 77154  1  0  0  0
 77155  1  0  0  0
 78 79  1  0  0  0
 78156  1  0  0  0
 78157  1  0  0  0
 79 80  1  0  0  0
 79158  1  0  0  0
 79159  1  0  0  0
 80 81  1  0  0  0
 80160  1  0  0  0
 80161  1  0  0  0
 81 82  1  0  0  0
 81162  1  0  0  0
 81163  1  0  0  0
 82 83  1  0  0  0
 82164  1  0  0  0
 82165  1  0  0  0
 83166  1  0  0  0
 83167  1  0  0  0
M  ISO  4   1 100  68 101  83 101  84 100
M  END
> <chiral flag>
0

> <version>
0

> <s_m_source_file>
/data/baiqing/PycharmProjects/Reinvent-master-3.2/result/LINK_invent/BTK/process_docking_weight1_custom_sum_contain_oxygen_bond_distance_aromatic_linkinvent_7_9_3/rearranged_h_0072.sdf

> <i_m_source_file_index>
18

> <r_mmod_Potential_Energy-OPLS-2005>
148.752304077148

> <r_mmod_Stretch_Energy-OPLS-2005>
48.1709442138672

> <r_mmod_Bend_Energy-OPLS-2005>
138.544479370117

> <r_mmod_Torsional_Energy-OPLS-2005>
205.004470825195

> <r_mmod_Improper_Torsional_Energy-OPLS-2005>
5.43316030502319

> <r_mmod_Van_der_Waal_Energy-OPLS-2005>
179.268737792969

> <r_mmod_Electrostatic_Energy-OPLS-2005>
-249.969085693359

> <r_mmod_Solvation_Energy-OPLS-2005>
-191.709686279297

> <b_mmod_Minimization_Converged-OPLS-2005>
0

> <r_mmod_RMS_Derivative-OPLS-2005>
4.99238920211792

$$$$
19
                    3D
 Structure written by MMmdl.
162170  0  0  1  0            999 V2000
  -30.6522  -14.5462   20.5682 C   0  0  0  0  0  0
  -30.4325  -12.3509   19.4491 C   0  0  0  0  0  0
  -29.5036  -12.5242   18.2269 C   0  0  0  0  0  0
  -28.0246  -12.3686   18.6318 C   0  0  0  0  0  0
  -27.6579  -13.2088   19.8829 C   0  0  2  0  0  0
  -28.6964  -13.0092   21.0120 C   0  0  0  0  0  0
  -25.2564  -13.8158   20.5754 C   0  0  0  0  0  0
  -24.1820  -13.0431   20.9213 C   0  0  0  0  0  0
  -24.6375  -11.6900   20.8728 C   0  0  0  0  0  0
  -23.9058  -10.4292   21.0405 C   0  0  0  0  0  0
  -24.3614   -9.4211   21.9197 C   0  0  0  0  0  0
  -23.6300   -8.2238   22.0751 C   0  0  0  0  0  0
  -22.4286   -8.0279   21.3545 C   0  0  0  0  0  0
  -21.9920   -9.0247   20.4641 C   0  0  0  0  0  0
  -22.7233  -10.2131   20.3052 C   0  0  0  0  0  0
  -21.6833   -6.0745   22.5287 C   0  0  0  0  0  0
  -21.4002   -6.5636   23.8226 C   0  0  0  0  0  0
  -21.3668   -5.6785   24.9182 C   0  0  0  0  0  0
  -21.6042   -4.3047   24.7228 C   0  0  0  0  0  0
  -21.8818   -3.8143   23.4344 C   0  0  0  0  0  0
  -21.9182   -4.6971   22.3406 C   0  0  0  0  0  0
  -22.7837  -13.5206   21.1866 C   0  0  0  0  0  0
  -22.1656   -4.2156   21.0984 F   0  0  0  0  0  0
  -21.5650   -3.4546   25.7747 F   0  0  0  0  0  0
  -30.0278  -13.3360   20.4690 N   0  0  0  0  0  0
  -26.2998  -12.9329   20.3398 N   0  0  0  0  0  0
  -25.9292  -11.6487   20.5768 N   0  0  0  0  0  0
  -22.0461  -12.8209   22.0410 N   0  0  0  0  0  0
  -25.4255  -15.1905   20.4246 N   0  0  0  0  0  0
  -31.7704  -14.7541   20.0857 O   0  0  0  0  0  0
  -21.6633   -6.8887   21.4244 O   0  0  0  0  0  0
  -22.3531  -14.5509   20.6684 O   0  0  0  0  0  0
  -24.6163  -31.8655   23.2043 C   0  0  0  0  0  0
  -25.9041  -32.4815   23.8365 C   0  0  1  0  0  0
  -27.2512  -27.4076   20.1132 C   0  0  0  0  0  0
  -25.5895  -33.8612   24.2290 N   0  0  0  0  0  0
  -23.4072  -30.4846   21.5463 C   0  0  2  0  0  0
  -24.8586  -28.9466   20.1142 C   0  0  0  0  0  0
  -22.7415  -29.4641   22.4978 C   0  0  0  0  0  0
  -18.0270  -28.1376   22.8489 C   0  0  0  0  0  0
  -24.1485  -36.7312   23.2635 C   0  0  0  0  0  0
  -25.9376  -30.8263   21.3590 C   0  0  0  0  0  0
  -26.0190  -29.4579   20.7070 C   0  0  0  0  0  0
  -27.2173  -28.7007   20.6947 C   0  0  0  0  0  0
  -26.0716  -26.9246   19.4984 C   0  0  0  0  0  0
  -24.8831  -27.6818   19.5014 C   0  0  0  0  0  0
  -23.6180  -29.8122   20.1635 C   0  0  0  0  0  0
  -25.4109  -36.3108   24.0329 C   0  0  1  0  0  0
  -20.5871  -28.3660   23.1309 C   0  0  2  0  0  0
  -20.6776  -26.9398   22.5410 C   0  0  0  0  0  0
  -19.5757  -26.6375   21.5204 C   0  0  0  0  0  0
  -18.1923  -26.7914   22.1614 C   0  0  0  0  0  0
  -19.1525  -28.8831   23.2897 C   0  0  0  0  0  0
  -18.9446  -30.1437   23.8909 C   0  0  0  0  0  0
  -17.6454  -30.6586   24.0549 C   0  0  0  0  0  0
  -25.9040  -34.9477   23.5114 C   0  0  0  0  0  0
  -16.5343  -29.9078   23.6338 C   0  0  0  0  0  0
  -16.7258  -28.6498   23.0347 C   0  0  0  0  0  0
  -26.4455  -31.6605   25.0708 C   0  0  0  0  0  0
  -25.3722  -31.3708   26.1464 C   0  0  0  0  0  0
  -27.0276  -30.3045   24.6084 C   0  0  0  0  0  0
  -27.6034  -32.4322   25.7474 C   0  0  0  0  0  0
  -27.5577  -37.1809   24.8455 C   0  0  0  0  0  0
  -21.4149  -29.3016   22.3706 N   0  0  0  0  0  0
  -26.4289  -37.3802   23.9405 N   0  0  0  0  0  0
  -24.6720  -31.0732   22.0953 N   0  0  0  0  0  0
  -23.4156  -28.8178   23.3040 O   0  0  0  0  0  0
  -28.4229  -26.6622   20.1690 O   0  0  0  0  0  0
  -26.5597  -34.8927   22.4673 O   0  0  0  0  0  0
  -23.5342  -32.1421   23.7433 O   0  0  0  0  0  0
  -28.5192  -17.5210   22.7366 C   0  0  0  0  0  0
  -28.7357  -19.6267   22.9378 C   0  0  0  0  0  0
  -29.2749  -17.9298   21.6539 C   0  0  0  0  0  0
  -28.8092  -18.2691   18.5321 C   0  0  0  0  0  0
  -29.0270  -16.9499   19.2698 C   0  0  0  0  0  0
  -29.8379  -23.0034   20.2120 C   0  0  0  0  0  0
  -29.4963  -21.8868   21.2519 C   0  0  0  0  0  0
  -29.5826  -24.4936   20.6452 C   0  0  0  0  0  0
  -30.0049  -20.4169   20.9537 C   0  0  0  0  0  0
  -28.3595  -25.2222   20.0038 C   0  0  0  0  0  0
  -29.8522  -16.9829   20.5843 C   0  0  2  0  0  0
  -28.1933  -18.5906   23.5564 N   0  0  0  0  0  0
  -29.3642  -19.3558   21.7786 N   0  0  0  0  0  0
  -29.8761  -15.5584   21.0325 N   0  0  0  0  0  0
  -31.4764  -12.4669   19.1529 H   0  0  0  0  0  0
  -30.3502  -11.3405   19.8494 H   0  0  0  0  0  0
  -29.7538  -11.7956   17.4557 H   0  0  0  0  0  0
  -29.6602  -13.5059   17.7796 H   0  0  0  0  0  0
  -27.8408  -11.3109   18.8282 H   0  0  0  0  0  0
  -27.3806  -12.6412   17.7953 H   0  0  0  0  0  0
  -27.6909  -14.2524   19.5742 H   0  0  0  0  0  0
  -28.6859  -11.9762   21.3638 H   0  0  0  0  0  0
  -28.4449  -13.6177   21.8826 H   0  0  0  0  0  0
  -25.2756   -9.5669   22.4785 H   0  0  0  0  0  0
  -24.0005   -7.4606   22.7436 H   0  0  0  0  0  0
  -21.0873   -8.8732   19.8928 H   0  0  0  0  0  0
  -22.3689  -10.9672   19.6165 H   0  0  0  0  0  0
  -21.1981   -7.6146   23.9737 H   0  0  0  0  0  0
  -21.1500   -6.0518   25.9095 H   0  0  0  0  0  0
  -22.0588   -2.7609   23.2841 H   0  0  0  0  0  0
  -22.4083  -11.9914   22.4874 H   0  0  0  0  0  0
  -21.1062  -13.1194   22.2566 H   0  0  0  0  0  0
  -24.6498  -15.8367   20.5306 H   0  0  0  0  0  0
  -26.2728  -15.6389   20.1038 H   0  0  0  0  0  0
  -26.7095  -32.5497   23.1113 H   0  0  0  0  0  0
  -25.0084  -33.9783   25.0454 H   0  0  0  0  0  0
  -22.6999  -31.3041   21.4018 H   0  0  0  0  0  0
  -23.3759  -35.9638   23.3313 H   0  0  0  0  0  0
  -24.3563  -36.8919   22.2046 H   0  0  0  0  0  0
  -23.7234  -37.6515   23.6645 H   0  0  0  0  0  0
  -26.0472  -31.5918   20.5889 H   0  0  0  0  0  0
  -26.8259  -30.8866   21.9769 H   0  0  0  0  0  0
  -28.1143  -29.1001   21.1474 H   0  0  0  0  0  0
  -26.0535  -25.9604   19.0129 H   0  0  0  0  0  0
  -23.9938  -27.2858   19.0306 H   0  0  0  0  0  0
  -23.7209  -30.5859   19.4013 H   0  0  0  0  0  0
  -22.7439  -29.2273   19.8703 H   0  0  0  0  0  0
  -25.1293  -36.1980   25.0825 H   0  0  0  0  0  0
  -20.9959  -28.3229   24.1437 H   0  0  0  0  0  0
  -20.5684  -26.2269   23.3593 H   0  0  0  0  0  0
  -21.6641  -26.7446   22.1199 H   0  0  0  0  0  0
  -19.6931  -25.6277   21.1241 H   0  0  0  0  0  0
  -19.6702  -27.3191   20.6733 H   0  0  0  0  0  0
  -17.4201  -26.6646   21.4011 H   0  0  0  0  0  0
  -18.0336  -26.0041   22.9006 H   0  0  0  0  0  0
  -19.7919  -30.7242   24.2285 H   0  0  0  0  0  0
  -17.5010  -31.6276   24.5126 H   0  0  0  0  0  0
  -15.5345  -30.2983   23.7664 H   0  0  0  0  0  0
  -15.8653  -28.0822   22.7065 H   0  0  0  0  0  0
  -24.5916  -30.7025   25.7812 H   0  0  0  0  0  0
  -24.8878  -32.2854   26.4894 H   0  0  0  0  0  0
  -25.8092  -30.8902   27.0233 H   0  0  0  0  0  0
  -26.2813  -29.6827   24.1124 H   0  0  0  0  0  0
  -27.4033  -29.7263   25.4532 H   0  0  0  0  0  0
  -27.8654  -30.4356   23.9236 H   0  0  0  0  0  0
  -27.2672  -33.3643   26.2043 H   0  0  0  0  0  0
  -28.3864  -32.6862   25.0313 H   0  0  0  0  0  0
  -28.0689  -31.8450   26.5403 H   0  0  0  0  0  0
  -28.2609  -38.0099   24.7531 H   0  0  0  0  0  0
  -28.1071  -36.2637   24.6270 H   0  0  0  0  0  0
  -27.2293  -37.1458   25.8858 H   0  0  0  0  0  0
  -20.9317  -29.8732   21.6926 H   0  0  0  0  0  0
  -26.0186  -38.2884   24.1420 H   0  0  0  0  0  0
  -28.1891  -16.5262   23.0025 H   0  0  0  0  0  0
  -28.6607  -20.6216   23.3563 H   0  0  0  0  0  0
  -28.2931  -18.0980   17.5875 H   0  0  0  0  0  0
  -29.7567  -18.7486   18.2924 H   0  0  0  0  0  0
  -28.1862  -18.9475   19.1140 H   0  0  0  0  0  0
  -29.5073  -16.2652   18.5684 H   0  0  0  0  0  0
  -28.0425  -16.5282   19.4734 H   0  0  0  0  0  0
  -30.8975  -22.9106   19.9700 H   0  0  0  0  0  0
  -29.3123  -22.8026   19.2773 H   0  0  0  0  0  0
  -28.4102  -21.8752   21.3647 H   0  0  0  0  0  0
  -29.9015  -22.1942   22.2186 H   0  0  0  0  0  0
  -30.4705  -25.0685   20.3736 H   0  0  0  0  0  0
  -29.5205  -24.5731   21.7321 H   0  0  0  0  0  0
  -31.0844  -20.3582   21.1074 H   0  0  0  0  0  0
  -29.8440  -20.2031   19.9061 H   0  0  0  0  0  0
  -27.4536  -24.8176   20.4586 H   0  0  0  0  0  0
  -28.3178  -25.0070   18.9343 H   0  0  0  0  0  0
  -30.8749  -17.2955   20.3586 H   0  0  0  0  0  0
  -29.0308  -15.2392   21.4799 H   0  0  0  0  0  0
  1 25  1  0  0  0
  1 30  2  0  0  0
  1 84  1  0  0  0
  2  3  1  0  0  0
  2 25  1  0  0  0
  2 85  1  0  0  0
  2 86  1  0  0  0
  3  4  1  0  0  0
  3 87  1  0  0  0
  3 88  1  0  0  0
  4  5  1  0  0  0
  4 89  1  0  0  0
  4 90  1  0  0  0
  5  6  1  0  0  0
  5 26  1  0  0  0
  5 91  1  0  0  0
  6 25  1  0  0  0
  6 92  1  0  0  0
  6 93  1  0  0  0
  7  8  2  0  0  0
  7 26  1  0  0  0
  7 29  1  0  0  0
  8  9  1  0  0  0
  8 22  1  0  0  0
  9 10  1  0  0  0
  9 27  2  0  0  0
 10 11  2  0  0  0
 10 15  1  0  0  0
 11 12  1  0  0  0
 11 94  1  0  0  0
 12 13  2  0  0  0
 12 95  1  0  0  0
 13 14  1  0  0  0
 13 31  1  0  0  0
 14 15  2  0  0  0
 14 96  1  0  0  0
 15 97  1  0  0  0
 16 17  2  0  0  0
 16 21  1  0  0  0
 16 31  1  0  0  0
 17 18  1  0  0  0
 17 98  1  0  0  0
 18 19  2  0  0  0
 18 99  1  0  0  0
 19 20  1  0  0  0
 19 24  1  0  0  0
 20 21  2  0  0  0
 20100  1  0  0  0
 21 23  1  0  0  0
 22 28  1  0  0  0
 22 32  2  0  0  0
 26 27  1  0  0  0
 28101  1  0  0  0
 28102  1  0  0  0
 29103  1  0  0  0
 29104  1  0  0  0
 33 34  1  0  0  0
 33 66  1  0  0  0
 33 70  2  0  0  0
 34 36  1  0  0  0
 34 59  1  0  0  0
 34105  1  0  0  0
 35 44  2  0  0  0
 35 45  1  0  0  0
 35 68  1  0  0  0
 36 56  1  0  0  0
 36106  1  0  0  0
 37 39  1  0  0  0
 37 47  1  0  0  0
 37 66  1  0  0  0
 37107  1  0  0  0
 38 43  2  0  0  0
 38 46  1  0  0  0
 38 47  1  0  0  0
 39 64  1  0  0  0
 39 67  2  0  0  0
 40 52  1  0  0  0
 40 53  2  0  0  0
 40 58  1  0  0  0
 41108  1  0  0  0
 41109  1  0  0  0
 41110  1  0  0  0
 41 48  1  0  0  0
 42 43  1  0  0  0
 42 66  1  0  0  0
 42111  1  0  0  0
 42112  1  0  0  0
 43 44  1  0  0  0
 44113  1  0  0  0
 45 46  2  0  0  0
 45114  1  0  0  0
 46115  1  0  0  0
 47116  1  0  0  0
 47117  1  0  0  0
 48 56  1  0  0  0
 48 65  1  0  0  0
 48118  1  0  0  0
 49 50  1  0  0  0
 49 53  1  0  0  0
 49 64  1  0  0  0
 49119  1  0  0  0
 50 51  1  0  0  0
 50120  1  0  0  0
 50121  1  0  0  0
 51 52  1  0  0  0
 51122  1  0  0  0
 51123  1  0  0  0
 52124  1  0  0  0
 52125  1  0  0  0
 53 54  1  0  0  0
 54 55  2  0  0  0
 54126  1  0  0  0
 55 57  1  0  0  0
 55127  1  0  0  0
 56 69  2  0  0  0
 57 58  2  0  0  0
 57128  1  0  0  0
 58129  1  0  0  0
 59 60  1  0  0  0
 59 61  1  0  0  0
 59 62  1  0  0  0
 60130  1  0  0  0
 60131  1  0  0  0
 60132  1  0  0  0
 61133  1  0  0  0
 61134  1  0  0  0
 61135  1  0  0  0
 62136  1  0  0  0
 62137  1  0  0  0
 62138  1  0  0  0
 63 65  1  0  0  0
 63139  1  0  0  0
 63140  1  0  0  0
 63141  1  0  0  0
 64142  1  0  0  0
 65143  1  0  0  0
 68 80  1  0  0  0
 71 73  2  0  0  0
 71 82  1  0  0  0
 71144  1  0  0  0
 72 82  2  0  0  0
 72 83  1  0  0  0
 72145  1  0  0  0
 73 81  1  0  0  0
 73 83  1  0  0  0
 74 75  1  0  0  0
 74146  1  0  0  0
 74147  1  0  0  0
 74148  1  0  0  0
 75149  1  0  0  0
 75150  1  0  0  0
 75 81  1  0  0  0
 76 77  1  0  0  0
 76 78  1  0  0  0
 76151  1  0  0  0
 76152  1  0  0  0
 77 79  1  0  0  0
 77153  1  0  0  0
 77154  1  0  0  0
 78 80  1  0  0  0
 78155  1  0  0  0
 78156  1  0  0  0
 79 83  1  0  0  0
 79157  1  0  0  0
 79158  1  0  0  0
 80159  1  0  0  0
 80160  1  0  0  0
 81 84  1  0  0  0
 81161  1  0  0  0
 84162  1  0  0  0
M  ISO  4   1 100  68 101  80 101  84 100
M  END
> <chiral flag>
0

> <version>
0

> <s_m_source_file>
/data/baiqing/PycharmProjects/Reinvent-master-3.2/result/LINK_invent/BTK/process_docking_weight1_custom_sum_contain_oxygen_bond_distance_aromatic_linkinvent_7_9_3/rearranged_h_0072.sdf

> <i_m_source_file_index>
19

> <r_mmod_Potential_Energy-OPLS-2005>
-5.00909614562988

> <r_mmod_Stretch_Energy-OPLS-2005>
59.3174057006836

> <r_mmod_Bend_Energy-OPLS-2005>
130.916625976562

> <r_mmod_Torsional_Energy-OPLS-2005>
232.995498657227

> <r_mmod_Improper_Torsional_Energy-OPLS-2005>
6.3260612487793

> <r_mmod_Van_der_Waal_Energy-OPLS-2005>
123.757110595703

> <r_mmod_Electrostatic_Energy-OPLS-2005>
-360.084930419922

> <r_mmod_Solvation_Energy-OPLS-2005>
-219.533920288086

> <b_mmod_Minimization_Converged-OPLS-2005>
0

> <r_mmod_RMS_Derivative-OPLS-2005>
3.65686106681824

$$$$
20
                    3D
 Structure written by MMmdl.
157165  0  0  1  0            999 V2000
  -30.6314  -14.7187   20.4753 C   0  0  0  0  0  0
  -30.4275  -12.4379   19.4864 C   0  0  0  0  0  0
  -29.5133  -12.5038   18.2431 C   0  0  0  0  0  0
  -28.0395  -12.3274   18.6501 C   0  0  0  0  0  0
  -27.6421  -13.2304   19.8481 C   0  0  2  0  0  0
  -28.6821  -13.1646   20.9909 C   0  0  0  0  0  0
  -25.2523  -13.8207   20.5696 C   0  0  0  0  0  0
  -24.1815  -13.0455   20.9215 C   0  0  0  0  0  0
  -24.6384  -11.6932   20.8721 C   0  0  0  0  0  0
  -23.9060  -10.4301   21.0386 C   0  0  0  0  0  0
  -24.3624   -9.4217   21.9163 C   0  0  0  0  0  0
  -23.6315   -8.2243   22.0724 C   0  0  0  0  0  0
  -22.4292   -8.0266   21.3523 C   0  0  0  0  0  0
  -21.9920   -9.0238   20.4622 C   0  0  0  0  0  0
  -22.7233  -10.2137   20.3030 C   0  0  0  0  0  0
  -21.6864   -6.0728   22.5280 C   0  0  0  0  0  0
  -21.4016   -6.5625   23.8216 C   0  0  0  0  0  0
  -21.3665   -5.6773   24.9175 C   0  0  0  0  0  0
  -21.6044   -4.3042   24.7210 C   0  0  0  0  0  0
  -21.8827   -3.8132   23.4329 C   0  0  0  0  0  0
  -21.9199   -4.6960   22.3393 C   0  0  0  0  0  0
  -22.7831  -13.5242   21.1852 C   0  0  0  0  0  0
  -22.1668   -4.2144   21.0971 F   0  0  0  0  0  0
  -21.5629   -3.4521   25.7721 F   0  0  0  0  0  0
  -29.9908  -13.5023   20.4200 N   0  0  0  0  0  0
  -26.2936  -12.9403   20.3246 N   0  0  0  0  0  0
  -25.9313  -11.6550   20.5711 N   0  0  0  0  0  0
  -22.0473  -12.8235   22.0413 N   0  0  0  0  0  0
  -25.4190  -15.1939   20.4131 N   0  0  0  0  0  0
  -31.8118  -14.8070   20.1298 O   0  0  0  0  0  0
  -21.6641   -6.8870   21.4246 O   0  0  0  0  0  0
  -22.3513  -14.5532   20.6675 O   0  0  0  0  0  0
  -24.6309  -31.8572   23.1992 C   0  0  0  0  0  0
  -25.9139  -32.4762   23.8335 C   0  0  1  0  0  0
  -27.2135  -27.2696   20.1269 C   0  0  0  0  0  0
  -25.5944  -33.8566   24.2263 N   0  0  0  0  0  0
  -23.4262  -30.4827   21.5422 C   0  0  2  0  0  0
  -24.8717  -28.9327   20.1084 C   0  0  0  0  0  0
  -22.7508  -29.4625   22.4906 C   0  0  0  0  0  0
  -18.0300  -28.1378   22.8472 C   0  0  0  0  0  0
  -24.1496  -36.7282   23.2638 C   0  0  0  0  0  0
  -25.9726  -30.7732   21.3780 C   0  0  0  0  0  0
  -26.0443  -29.3986   20.7169 C   0  0  0  0  0  0
  -27.2199  -28.5804   20.7124 C   0  0  0  0  0  0
  -26.0176  -26.8762   19.4824 C   0  0  0  0  0  0
  -24.8636  -27.6809   19.4797 C   0  0  0  0  0  0
  -23.6421  -29.8190   20.1578 C   0  0  0  0  0  0
  -25.4121  -36.3081   24.0332 C   0  0  1  0  0  0
  -20.5908  -28.3703   23.1263 C   0  0  2  0  0  0
  -20.6788  -26.9421   22.5401 C   0  0  0  0  0  0
  -19.5768  -26.6375   21.5200 C   0  0  0  0  0  0
  -18.1945  -26.7919   22.1612 C   0  0  0  0  0  0
  -19.1550  -28.8857   23.2856 C   0  0  0  0  0  0
  -18.9471  -30.1454   23.8879 C   0  0  0  0  0  0
  -17.6468  -30.6586   24.0556 C   0  0  0  0  0  0
  -25.9058  -34.9446   23.5093 C   0  0  0  0  0  0
  -16.5360  -29.9078   23.6324 C   0  0  0  0  0  0
  -16.7282  -28.6494   23.0347 C   0  0  0  0  0  0
  -26.4507  -31.6588   25.0724 C   0  0  0  0  0  0
  -25.3723  -31.3730   26.1438 C   0  0  0  0  0  0
  -27.0355  -30.3006   24.6204 C   0  0  0  0  0  0
  -27.6068  -32.4325   25.7490 C   0  0  0  0  0  0
  -27.5594  -37.1794   24.8465 C   0  0  0  0  0  0
  -21.4220  -29.3047   22.3650 N   0  0  0  0  0  0
  -26.4298  -37.3784   23.9415 N   0  0  0  0  0  0
  -24.6952  -31.0559   22.0962 N   0  0  0  0  0  0
  -23.4207  -28.8151   23.2996 O   0  0  0  0  0  0
  -28.2999  -26.3658   20.2022 O   0  0  0  0  0  0
  -26.5632  -34.8929   22.4666 O   0  0  0  0  0  0
  -23.5452  -32.1393   23.7296 O   0  0  0  0  0  0
  -29.8426  -21.7480   18.3983 C   0  0  0  0  0  0
  -30.4078  -20.7360   17.6813 C   0  0  0  0  0  0
  -29.6978  -19.8629   19.6273 C   0  0  0  0  0  0
  -27.8989  -18.2445   20.4374 C   0  0  0  0  0  0
  -29.0805  -23.7747   20.5591 C   0  0  0  0  0  0
  -28.7304  -22.1756   20.5938 C   0  0  0  0  0  0
  -30.3207  -17.2926   20.3228 C   0  0  0  0  0  0
  -28.0262  -24.8928   20.0642 C   0  0  0  0  0  0
  -29.3856  -18.6166   20.5472 C   0  0  1  0  0  0
  -29.4292  -21.2392   19.6088 N   0  0  0  0  0  0
  -30.3008  -19.6195   18.4531 N   0  3  0  0  0  0
  -29.8898  -15.8696   20.6847 N   0  0  0  0  0  0
  -31.4688  -12.5547   19.1841 H   0  0  0  0  0  0
  -30.3597  -11.4580   19.9621 H   0  0  0  0  0  0
  -29.8021  -11.7360   17.5250 H   0  0  0  0  0  0
  -29.6435  -13.4630   17.7384 H   0  0  0  0  0  0
  -27.8960  -11.2779   18.9117 H   0  0  0  0  0  0
  -27.3858  -12.5151   17.7964 H   0  0  0  0  0  0
  -27.6381  -14.2516   19.4684 H   0  0  0  0  0  0
  -28.7035  -12.1712   21.4380 H   0  0  0  0  0  0
  -28.4149  -13.8538   21.7934 H   0  0  0  0  0  0
  -25.2782   -9.5708   22.4736 H   0  0  0  0  0  0
  -24.0022   -7.4642   22.7458 H   0  0  0  0  0  0
  -21.0835   -8.8755   19.8947 H   0  0  0  0  0  0
  -22.3672  -10.9666   19.6131 H   0  0  0  0  0  0
  -21.1996   -7.6142   23.9720 H   0  0  0  0  0  0
  -21.1490   -6.0498   25.9082 H   0  0  0  0  0  0
  -22.0604   -2.7601   23.2825 H   0  0  0  0  0  0
  -22.4097  -11.9919   22.4840 H   0  0  0  0  0  0
  -21.1077  -13.1231   22.2582 H   0  0  0  0  0  0
  -24.6465  -15.8415   20.5153 H   0  0  0  0  0  0
  -26.2615  -15.6355   20.0689 H   0  0  0  0  0  0
  -26.7200  -32.5411   23.1063 H   0  0  0  0  0  0
  -25.0117  -33.9707   25.0427 H   0  0  0  0  0  0
  -22.7219  -31.3054   21.4006 H   0  0  0  0  0  0
  -23.3776  -35.9595   23.3280 H   0  0  0  0  0  0
  -24.3586  -36.8919   22.2054 H   0  0  0  0  0  0
  -23.7221  -37.6468   23.6664 H   0  0  0  0  0  0
  -26.1165  -31.5374   20.6129 H   0  0  0  0  0  0
  -26.8481  -30.8158   22.0143 H   0  0  0  0  0  0
  -28.1169  -28.9330   21.2020 H   0  0  0  0  0  0
  -25.9376  -25.9215   18.9867 H   0  0  0  0  0  0
  -23.9664  -27.3215   18.9946 H   0  0  0  0  0  0
  -23.7673  -30.5971   19.4047 H   0  0  0  0  0  0
  -22.7586  -29.2560   19.8502 H   0  0  0  0  0  0
  -25.1298  -36.1933   25.0824 H   0  0  0  0  0  0
  -20.9997  -28.3275   24.1387 H   0  0  0  0  0  0
  -20.5687  -26.2314   23.3602 H   0  0  0  0  0  0
  -21.6656  -26.7439   22.1204 H   0  0  0  0  0  0
  -19.6932  -25.6277   21.1243 H   0  0  0  0  0  0
  -19.6705  -27.3175   20.6718 H   0  0  0  0  0  0
  -17.4220  -26.6670   21.4005 H   0  0  0  0  0  0
  -18.0344  -26.0056   22.9007 H   0  0  0  0  0  0
  -19.7947  -30.7266   24.2243 H   0  0  0  0  0  0
  -17.5025  -31.6266   24.5161 H   0  0  0  0  0  0
  -15.5354  -30.2972   23.7660 H   0  0  0  0  0  0
  -15.8686  -28.0804   22.7064 H   0  0  0  0  0  0
  -24.5902  -30.7079   25.7757 H   0  0  0  0  0  0
  -24.8900  -32.2891   26.4855 H   0  0  0  0  0  0
  -25.8032  -30.8908   27.0222 H   0  0  0  0  0  0
  -26.2932  -29.6743   24.1236 H   0  0  0  0  0  0
  -27.4054  -29.7282   25.4724 H   0  0  0  0  0  0
  -27.8808  -30.4289   23.9436 H   0  0  0  0  0  0
  -27.2691  -33.3638   26.2047 H   0  0  0  0  0  0
  -28.3881  -32.6862   25.0314 H   0  0  0  0  0  0
  -28.0730  -31.8457   26.5413 H   0  0  0  0  0  0
  -28.2601  -38.0110   24.7549 H   0  0  0  0  0  0
  -28.1106  -36.2638   24.6246 H   0  0  0  0  0  0
  -27.2315  -37.1393   25.8872 H   0  0  0  0  0  0
  -20.9407  -29.8767   21.6856 H   0  0  0  0  0  0
  -26.0180  -38.2863   24.1418 H   0  0  0  0  0  0
  -29.7066  -22.7825   18.1198 H   0  0  0  0  0  0
  -30.8507  -20.7285   16.6938 H   0  0  0  0  0  0
  -27.2588  -19.0998   20.6553 H   0  0  0  0  0  0
  -27.6295  -17.4601   21.1438 H   0  0  0  0  0  0
  -27.6549  -17.8902   19.4353 H   0  0  0  0  0  0
  -30.0363  -23.9322   20.0608 H   0  0  0  0  0  0
  -29.2933  -24.0406   21.5939 H   0  0  0  0  0  0
  -27.6571  -22.0266   20.4720 H   0  0  0  0  0  0
  -28.9646  -21.7908   21.5881 H   0  0  0  0  0  0
  -31.2852  -17.4834   20.7980 H   0  0  0  0  0  0
  -30.5417  -17.2069   19.2594 H   0  0  0  0  0  0
  -27.1001  -24.6824   20.6009 H   0  0  0  0  0  0
  -27.8167  -24.7004   19.0110 H   0  0  0  0  0  0
  -29.5593  -18.9777   21.5621 H   0  0  0  0  0  0
  -30.6150  -18.7041   18.1556 H   0  0  0  0  0  0
  -28.9253  -15.7363   20.9496 H   0  0  0  0  0  0
  1 25  1  0  0  0
  1 30  2  0  0  0
  1 82  1  0  0  0
  2  3  1  0  0  0
  2 25  1  0  0  0
  2 83  1  0  0  0
  2 84  1  0  0  0
  3  4  1  0  0  0
  3 85  1  0  0  0
  3 86  1  0  0  0
  4  5  1  0  0  0
  4 87  1  0  0  0
  4 88  1  0  0  0
  5  6  1  0  0  0
  5 26  1  0  0  0
  5 89  1  0  0  0
  6 25  1  0  0  0
  6 90  1  0  0  0
  6 91  1  0  0  0
  7  8  2  0  0  0
  7 26  1  0  0  0
  7 29  1  0  0  0
  8  9  1  0  0  0
  8 22  1  0  0  0
  9 10  1  0  0  0
  9 27  2  0  0  0
 10 11  2  0  0  0
 10 15  1  0  0  0
 11 12  1  0  0  0
 11 92  1  0  0  0
 12 13  2  0  0  0
 12 93  1  0  0  0
 13 14  1  0  0  0
 13 31  1  0  0  0
 14 15  2  0  0  0
 14 94  1  0  0  0
 15 95  1  0  0  0
 16 17  2  0  0  0
 16 21  1  0  0  0
 16 31  1  0  0  0
 17 18  1  0  0  0
 17 96  1  0  0  0
 18 19  2  0  0  0
 18 97  1  0  0  0
 19 20  1  0  0  0
 19 24  1  0  0  0
 20 21  2  0  0  0
 20 98  1  0  0  0
 21 23  1  0  0  0
 22 28  1  0  0  0
 22 32  2  0  0  0
 26 27  1  0  0  0
 28 99  1  0  0  0
 28100  1  0  0  0
 29101  1  0  0  0
 29102  1  0  0  0
 33 34  1  0  0  0
 33 66  1  0  0  0
 33 70  2  0  0  0
 34 36  1  0  0  0
 34 59  1  0  0  0
 34103  1  0  0  0
 35 44  2  0  0  0
 35 45  1  0  0  0
 35 68  1  0  0  0
 36 56  1  0  0  0
 36104  1  0  0  0
 37 39  1  0  0  0
 37 47  1  0  0  0
 37 66  1  0  0  0
 37105  1  0  0  0
 38 43  2  0  0  0
 38 46  1  0  0  0
 38 47  1  0  0  0
 39 64  1  0  0  0
 39 67  2  0  0  0
 40 52  1  0  0  0
 40 53  2  0  0  0
 40 58  1  0  0  0
 41106  1  0  0  0
 41107  1  0  0  0
 41108  1  0  0  0
 41 48  1  0  0  0
 42 43  1  0  0  0
 42 66  1  0  0  0
 42109  1  0  0  0
 42110  1  0  0  0
 43 44  1  0  0  0
 44111  1  0  0  0
 45 46  2  0  0  0
 45112  1  0  0  0
 46113  1  0  0  0
 47114  1  0  0  0
 47115  1  0  0  0
 48 56  1  0  0  0
 48 65  1  0  0  0
 48116  1  0  0  0
 49 50  1  0  0  0
 49 53  1  0  0  0
 49 64  1  0  0  0
 49117  1  0  0  0
 50 51  1  0  0  0
 50118  1  0  0  0
 50119  1  0  0  0
 51 52  1  0  0  0
 51120  1  0  0  0
 51121  1  0  0  0
 52122  1  0  0  0
 52123  1  0  0  0
 53 54  1  0  0  0
 54 55  2  0  0  0
 54124  1  0  0  0
 55 57  1  0  0  0
 55125  1  0  0  0
 56 69  2  0  0  0
 57 58  2  0  0  0
 57126  1  0  0  0
 58127  1  0  0  0
 59 60  1  0  0  0
 59 61  1  0  0  0
 59 62  1  0  0  0
 60128  1  0  0  0
 60129  1  0  0  0
 60130  1  0  0  0
 61131  1  0  0  0
 61132  1  0  0  0
 61133  1  0  0  0
 62134  1  0  0  0
 62135  1  0  0  0
 62136  1  0  0  0
 63 65  1  0  0  0
 63137  1  0  0  0
 63138  1  0  0  0
 63139  1  0  0  0
 64140  1  0  0  0
 65141  1  0  0  0
 68 78  1  0  0  0
 71 72  2  0  0  0
 71 80  1  0  0  0
 71142  1  0  0  0
 72 81  1  0  0  0
 72143  1  0  0  0
 73 79  1  0  0  0
 73 80  1  0  0  0
 73 81  2  0  0  0
 74144  1  0  0  0
 74145  1  0  0  0
 74146  1  0  0  0
 74 79  1  0  0  0
 75 76  1  0  0  0
 75 78  1  0  0  0
 75147  1  0  0  0
 75148  1  0  0  0
 76 80  1  0  0  0
 76149  1  0  0  0
 76150  1  0  0  0
 77 79  1  0  0  0
 77 82  1  0  0  0
 77151  1  0  0  0
 77152  1  0  0  0
 78153  1  0  0  0
 78154  1  0  0  0
 79155  1  0  0  0
 81156  1  0  0  0
 82157  1  0  0  0
M  CHG  1  81   1
M  ISO  4   1 100  68 101  78 101  82 100
M  END
> <chiral flag>
0

> <version>
0

> <s_m_source_file>
/data/baiqing/PycharmProjects/Reinvent-master-3.2/result/LINK_invent/BTK/process_docking_weight1_custom_sum_contain_oxygen_bond_distance_aromatic_linkinvent_7_9_3/rearranged_h_0072.sdf

> <i_m_source_file_index>
20

> <r_mmod_Potential_Energy-OPLS-2005>
97.4744720458984

> <r_mmod_Stretch_Energy-OPLS-2005>
129.446243286133

> <r_mmod_Bend_Energy-OPLS-2005>
185.381973266602

> <r_mmod_Torsional_Energy-OPLS-2005>
248.283065795898

> <r_mmod_Improper_Torsional_Energy-OPLS-2005>
6.19914293289185

> <r_mmod_Van_der_Waal_Energy-OPLS-2005>
119.230087280273

> <r_mmod_Electrostatic_Energy-OPLS-2005>
-229.872848510742

> <r_mmod_Solvation_Energy-OPLS-2005>
-440.6259765625

> <b_mmod_Minimization_Converged-OPLS-2005>
0

> <r_mmod_RMS_Derivative-OPLS-2005>
2.9184877872467

$$$$
21
                    3D
 Structure written by MMmdl.
162170  0  0  1  0            999 V2000
  -30.6691  -14.6868   20.5587 C   0  0  0  0  0  0
  -30.4287  -12.4384   19.4751 C   0  0  0  0  0  0
  -29.5096  -12.5382   18.2368 C   0  0  0  0  0  0
  -28.0293  -12.3698   18.6325 C   0  0  0  0  0  0
  -27.6496  -13.2244   19.8696 C   0  0  2  0  0  0
  -28.6936  -13.0639   20.9937 C   0  0  0  0  0  0
  -25.2529  -13.8187   20.5694 C   0  0  0  0  0  0
  -24.1809  -13.0451   20.9197 C   0  0  0  0  0  0
  -24.6387  -11.6919   20.8742 C   0  0  0  0  0  0
  -23.9062  -10.4307   21.0411 C   0  0  0  0  0  0
  -24.3622   -9.4225   21.9188 C   0  0  0  0  0  0
  -23.6304   -8.2257   22.0759 C   0  0  0  0  0  0
  -22.4284   -8.0291   21.3552 C   0  0  0  0  0  0
  -21.9916   -9.0261   20.4652 C   0  0  0  0  0  0
  -22.7236  -10.2144   20.3065 C   0  0  0  0  0  0
  -21.6861   -6.0746   22.5281 C   0  0  0  0  0  0
  -21.4011   -6.5651   23.8209 C   0  0  0  0  0  0
  -21.3658   -5.6802   24.9172 C   0  0  0  0  0  0
  -21.6044   -4.3066   24.7220 C   0  0  0  0  0  0
  -21.8824   -3.8159   23.4341 C   0  0  0  0  0  0
  -21.9194   -4.6975   22.3400 C   0  0  0  0  0  0
  -22.7827  -13.5237   21.1864 C   0  0  0  0  0  0
  -22.1667   -4.2162   21.0977 F   0  0  0  0  0  0
  -21.5628   -3.4548   25.7732 F   0  0  0  0  0  0
  -30.0010  -13.4751   20.4531 N   0  0  0  0  0  0
  -26.2964  -12.9381   20.3345 N   0  0  0  0  0  0
  -25.9319  -11.6529   20.5750 N   0  0  0  0  0  0
  -22.0473  -12.8217   22.0409 N   0  0  0  0  0  0
  -25.4221  -15.1915   20.4107 N   0  0  0  0  0  0
  -31.7874  -14.7646   20.0337 O   0  0  0  0  0  0
  -21.6653   -6.8886   21.4246 O   0  0  0  0  0  0
  -22.3513  -14.5552   20.6718 O   0  0  0  0  0  0
  -24.6289  -31.8591   23.2005 C   0  0  0  0  0  0
  -25.9133  -32.4763   23.8340 C   0  0  1  0  0  0
  -27.2257  -27.2979   20.1293 C   0  0  0  0  0  0
  -25.5940  -33.8563   24.2272 N   0  0  0  0  0  0
  -23.4229  -30.4831   21.5446 C   0  0  2  0  0  0
  -24.8713  -28.9371   20.1126 C   0  0  0  0  0  0
  -22.7487  -29.4629   22.4929 C   0  0  0  0  0  0
  -18.0292  -28.1387   22.8484 C   0  0  0  0  0  0
  -24.1495  -36.7278   23.2641 C   0  0  0  0  0  0
  -25.9670  -30.7857   21.3740 C   0  0  0  0  0  0
  -26.0425  -29.4113   20.7168 C   0  0  0  0  0  0
  -27.2244  -28.6074   20.7097 C   0  0  0  0  0  0
  -26.0328  -26.8904   19.4885 C   0  0  0  0  0  0
  -24.8701  -27.6829   19.4869 C   0  0  0  0  0  0
  -23.6386  -29.8172   20.1611 C   0  0  0  0  0  0
  -25.4119  -36.3071   24.0329 C   0  0  1  0  0  0
  -20.5896  -28.3702   23.1264 C   0  0  2  0  0  0
  -20.6785  -26.9419   22.5405 C   0  0  0  0  0  0
  -19.5761  -26.6386   21.5211 C   0  0  0  0  0  0
  -18.1939  -26.7926   22.1622 C   0  0  0  0  0  0
  -19.1547  -28.8859   23.2869 C   0  0  0  0  0  0
  -18.9467  -30.1460   23.8886 C   0  0  0  0  0  0
  -17.6469  -30.6590   24.0559 C   0  0  0  0  0  0
  -25.9061  -34.9439   23.5101 C   0  0  0  0  0  0
  -16.5357  -29.9081   23.6339 C   0  0  0  0  0  0
  -16.7280  -28.6498   23.0360 C   0  0  0  0  0  0
  -26.4515  -31.6566   25.0708 C   0  0  0  0  0  0
  -25.3737  -31.3670   26.1417 C   0  0  0  0  0  0
  -27.0367  -30.2988   24.6169 C   0  0  0  0  0  0
  -27.6088  -32.4286   25.7468 C   0  0  0  0  0  0
  -27.5581  -37.1791   24.8468 C   0  0  0  0  0  0
  -21.4200  -29.3043   22.3651 N   0  0  0  0  0  0
  -26.4294  -37.3768   23.9408 N   0  0  0  0  0  0
  -24.6918  -31.0593   22.0961 N   0  0  0  0  0  0
  -23.4199  -28.8182   23.3026 O   0  0  0  0  0  0
  -28.3310  -26.4226   20.1714 O   0  0  0  0  0  0
  -26.5634  -34.8913   22.4670 O   0  0  0  0  0  0
  -23.5448  -32.1398   23.7328 O   0  0  0  0  0  0
  -29.1000  -17.0273   19.1275 C   0  0  0  0  0  0
  -29.7547  -17.2763   20.3530 C   0  0  0  0  0  0
  -28.8492  -19.3082   18.7170 C   0  0  0  0  0  0
  -29.4823  -19.6460   19.9494 C   0  0  0  0  0  0
  -29.4258  -20.4432   16.5215 C   0  0  0  0  0  0
  -29.1522  -15.8991   22.3971 C   0  0  0  0  0  0
  -28.4191  -20.3309   17.6726 C   0  0  0  0  0  0
  -29.8748  -21.1507   20.2853 C   0  0  0  0  0  0
  -28.7928  -22.3108   20.5724 C   0  0  0  0  0  0
  -29.1915  -23.8526   20.2962 C   0  0  0  0  0  0
  -28.0677  -24.9816   20.4726 C   0  0  0  0  0  0
  -30.2012  -16.0635   21.2835 C   0  0  1  0  0  0
  -28.6498  -18.0222   18.3297 N   0  0  0  0  0  0
  -29.9258  -18.6038   20.7579 N   0  0  0  0  0  0
  -31.3439  -16.4736   22.0260 O   0  0  0  0  0  0
  -31.4723  -12.5388   19.1742 H   0  0  0  0  0  0
  -30.3624  -11.4437   19.9199 H   0  0  0  0  0  0
  -29.7892  -11.7876   17.4964 H   0  0  0  0  0  0
  -29.6495  -13.5077   17.7572 H   0  0  0  0  0  0
  -27.8578  -11.3139   18.8451 H   0  0  0  0  0  0
  -27.3824  -12.6203   17.7906 H   0  0  0  0  0  0
  -27.6652  -14.2640   19.5481 H   0  0  0  0  0  0
  -28.7347  -12.0203   21.3099 H   0  0  0  0  0  0
  -28.3925  -13.5824   21.8933 H   0  0  0  0  0  0
  -25.2770   -9.5712   22.4751 H   0  0  0  0  0  0
  -24.0029   -7.4653   22.7474 H   0  0  0  0  0  0
  -21.0853   -8.8776   19.8945 H   0  0  0  0  0  0
  -22.3700  -10.9685   19.6175 H   0  0  0  0  0  0
  -21.2006   -7.6157   23.9715 H   0  0  0  0  0  0
  -21.1470   -6.0532   25.9072 H   0  0  0  0  0  0
  -22.0602   -2.7621   23.2836 H   0  0  0  0  0  0
  -22.4098  -11.9879   22.4786 H   0  0  0  0  0  0
  -21.1092  -13.1227   22.2620 H   0  0  0  0  0  0
  -24.6492  -15.8388   20.5180 H   0  0  0  0  0  0
  -26.2604  -15.6365   20.0621 H   0  0  0  0  0  0
  -26.7192  -32.5427   23.1081 H   0  0  0  0  0  0
  -25.0069  -33.9688   25.0405 H   0  0  0  0  0  0
  -22.7183  -31.3049   21.4003 H   0  0  0  0  0  0
  -23.3764  -35.9606   23.3302 H   0  0  0  0  0  0
  -24.3590  -36.8905   22.2056 H   0  0  0  0  0  0
  -23.7241  -37.6474   23.6668 H   0  0  0  0  0  0
  -26.1019  -31.5494   20.6065 H   0  0  0  0  0  0
  -26.8458  -30.8323   22.0054 H   0  0  0  0  0  0
  -28.1233  -28.9752   21.1848 H   0  0  0  0  0  0
  -25.9685  -25.9456   18.9738 H   0  0  0  0  0  0
  -23.9761  -27.3169   19.0009 H   0  0  0  0  0  0
  -23.7525  -30.5924   19.4021 H   0  0  0  0  0  0
  -22.7590  -29.2436   19.8625 H   0  0  0  0  0  0
  -25.1300  -36.1921   25.0821 H   0  0  0  0  0  0
  -20.9990  -28.3285   24.1385 H   0  0  0  0  0  0
  -20.5692  -26.2309   23.3611 H   0  0  0  0  0  0
  -21.6650  -26.7448   22.1195 H   0  0  0  0  0  0
  -19.6922  -25.6295   21.1243 H   0  0  0  0  0  0
  -19.6695  -27.3194   20.6740 H   0  0  0  0  0  0
  -17.4209  -26.6678   21.4025 H   0  0  0  0  0  0
  -18.0339  -26.0067   22.9018 H   0  0  0  0  0  0
  -19.7943  -30.7283   24.2248 H   0  0  0  0  0  0
  -17.5020  -31.6273   24.5160 H   0  0  0  0  0  0
  -15.5354  -30.2980   23.7672 H   0  0  0  0  0  0
  -15.8680  -28.0813   22.7087 H   0  0  0  0  0  0
  -24.5954  -30.6982   25.7720 H   0  0  0  0  0  0
  -24.8871  -32.2808   26.4830 H   0  0  0  0  0  0
  -25.8057  -30.8852   27.0198 H   0  0  0  0  0  0
  -26.2941  -29.6701   24.1238 H   0  0  0  0  0  0
  -27.4117  -29.7273   25.4673 H   0  0  0  0  0  0
  -27.8790  -30.4269   23.9364 H   0  0  0  0  0  0
  -27.2744  -33.3613   26.2019 H   0  0  0  0  0  0
  -28.3910  -32.6793   25.0287 H   0  0  0  0  0  0
  -28.0746  -31.8411   26.5391 H   0  0  0  0  0  0
  -28.2596  -38.0094   24.7535 H   0  0  0  0  0  0
  -28.1087  -36.2625   24.6285 H   0  0  0  0  0  0
  -27.2296  -37.1424   25.8872 H   0  0  0  0  0  0
  -20.9396  -29.8722   21.6812 H   0  0  0  0  0  0
  -26.0176  -38.2842   24.1420 H   0  0  0  0  0  0
  -28.9259  -16.0220   18.7745 H   0  0  0  0  0  0
  -29.0967  -21.1812   15.7901 H   0  0  0  0  0  0
  -29.5416  -19.4902   16.0041 H   0  0  0  0  0  0
  -30.4064  -20.7493   16.8847 H   0  0  0  0  0  0
  -28.1601  -15.7215   21.9839 H   0  0  0  0  0  0
  -29.0669  -16.8092   22.9922 H   0  0  0  0  0  0
  -29.4059  -15.0923   23.0853 H   0  0  0  0  0  0
  -28.2707  -21.3145   18.1025 H   0  0  0  0  0  0
  -27.4451  -20.0370   17.2777 H   0  0  0  0  0  0
  -30.4855  -21.4794   19.4439 H   0  0  0  0  0  0
  -30.5686  -21.1271   21.1274 H   0  0  0  0  0  0
  -28.4724  -22.2090   21.6097 H   0  0  0  0  0  0
  -27.8871  -22.1145   20.0036 H   0  0  0  0  0  0
  -29.5641  -23.9246   19.2745 H   0  0  0  0  0  0
  -30.0412  -24.1115   20.9297 H   0  0  0  0  0  0
  -27.7304  -24.9483   21.5095 H   0  0  0  0  0  0
  -27.2276  -24.6173   19.8883 H   0  0  0  0  0  0
  -32.0578  -16.4523   21.3950 H   0  0  0  0  0  0
  1 25  1  0  0  0
  1 30  2  0  0  0
  1 82  1  0  0  0
  2  3  1  0  0  0
  2 25  1  0  0  0
  2 86  1  0  0  0
  2 87  1  0  0  0
  3  4  1  0  0  0
  3 88  1  0  0  0
  3 89  1  0  0  0
  4  5  1  0  0  0
  4 90  1  0  0  0
  4 91  1  0  0  0
  5  6  1  0  0  0
  5 26  1  0  0  0
  5 92  1  0  0  0
  6 25  1  0  0  0
  6 93  1  0  0  0
  6 94  1  0  0  0
  7  8  2  0  0  0
  7 26  1  0  0  0
  7 29  1  0  0  0
  8  9  1  0  0  0
  8 22  1  0  0  0
  9 10  1  0  0  0
  9 27  2  0  0  0
 10 11  2  0  0  0
 10 15  1  0  0  0
 11 12  1  0  0  0
 11 95  1  0  0  0
 12 13  2  0  0  0
 12 96  1  0  0  0
 13 14  1  0  0  0
 13 31  1  0  0  0
 14 15  2  0  0  0
 14 97  1  0  0  0
 15 98  1  0  0  0
 16 17  2  0  0  0
 16 21  1  0  0  0
 16 31  1  0  0  0
 17 18  1  0  0  0
 17 99  1  0  0  0
 18 19  2  0  0  0
 18100  1  0  0  0
 19 20  1  0  0  0
 19 24  1  0  0  0
 20 21  2  0  0  0
 20101  1  0  0  0
 21 23  1  0  0  0
 22 28  1  0  0  0
 22 32  2  0  0  0
 26 27  1  0  0  0
 28102  1  0  0  0
 28103  1  0  0  0
 29104  1  0  0  0
 29105  1  0  0  0
 33 34  1  0  0  0
 33 66  1  0  0  0
 33 70  2  0  0  0
 34 36  1  0  0  0
 34 59  1  0  0  0
 34106  1  0  0  0
 35 44  2  0  0  0
 35 45  1  0  0  0
 35 68  1  0  0  0
 36 56  1  0  0  0
 36107  1  0  0  0
 37 39  1  0  0  0
 37 47  1  0  0  0
 37 66  1  0  0  0
 37108  1  0  0  0
 38 43  2  0  0  0
 38 46  1  0  0  0
 38 47  1  0  0  0
 39 64  1  0  0  0
 39 67  2  0  0  0
 40 52  1  0  0  0
 40 53  2  0  0  0
 40 58  1  0  0  0
 41109  1  0  0  0
 41110  1  0  0  0
 41111  1  0  0  0
 41 48  1  0  0  0
 42 43  1  0  0  0
 42 66  1  0  0  0
 42112  1  0  0  0
 42113  1  0  0  0
 43 44  1  0  0  0
 44114  1  0  0  0
 45 46  2  0  0  0
 45115  1  0  0  0
 46116  1  0  0  0
 47117  1  0  0  0
 47118  1  0  0  0
 48 56  1  0  0  0
 48 65  1  0  0  0
 48119  1  0  0  0
 49 50  1  0  0  0
 49 53  1  0  0  0
 49 64  1  0  0  0
 49120  1  0  0  0
 50 51  1  0  0  0
 50121  1  0  0  0
 50122  1  0  0  0
 51 52  1  0  0  0
 51123  1  0  0  0
 51124  1  0  0  0
 52125  1  0  0  0
 52126  1  0  0  0
 53 54  1  0  0  0
 54 55  2  0  0  0
 54127  1  0  0  0
 55 57  1  0  0  0
 55128  1  0  0  0
 56 69  2  0  0  0
 57 58  2  0  0  0
 57129  1  0  0  0
 58130  1  0  0  0
 59 60  1  0  0  0
 59 61  1  0  0  0
 59 62  1  0  0  0
 60131  1  0  0  0
 60132  1  0  0  0
 60133  1  0  0  0
 61134  1  0  0  0
 61135  1  0  0  0
 61136  1  0  0  0
 62137  1  0  0  0
 62138  1  0  0  0
 62139  1  0  0  0
 63 65  1  0  0  0
 63140  1  0  0  0
 63141  1  0  0  0
 63142  1  0  0  0
 64143  1  0  0  0
 65144  1  0  0  0
 68 81  1  0  0  0
 71 72  2  0  0  0
 71 83  1  0  0  0
 71145  1  0  0  0
 72 82  1  0  0  0
 72 84  1  0  0  0
 73 74  1  0  0  0
 73 77  1  0  0  0
 73 83  2  0  0  0
 74 78  1  0  0  0
 74 84  2  0  0  0
 75 77  1  0  0  0
 75146  1  0  0  0
 75147  1  0  0  0
 75148  1  0  0  0
 76149  1  0  0  0
 76150  1  0  0  0
 76151  1  0  0  0
 76 82  1  0  0  0
 77152  1  0  0  0
 77153  1  0  0  0
 78 79  1  0  0  0
 78154  1  0  0  0
 78155  1  0  0  0
 79 80  1  0  0  0
 79156  1  0  0  0
 79157  1  0  0  0
 80 81  1  0  0  0
 80158  1  0  0  0
 80159  1  0  0  0
 81160  1  0  0  0
 81161  1  0  0  0
 82 85  1  0  0  0
 85162  1  0  0  0
M  ISO  4   1 100  68 101  81 101  82 100
M  END
> <chiral flag>
0

> <version>
0

> <s_m_source_file>
/data/baiqing/PycharmProjects/Reinvent-master-3.2/result/LINK_invent/BTK/process_docking_weight1_custom_sum_contain_oxygen_bond_distance_aromatic_linkinvent_7_9_3/rearranged_h_0072.sdf

> <i_m_source_file_index>
21

> <r_mmod_Potential_Energy-OPLS-2005>
281.534637451172

> <r_mmod_Stretch_Energy-OPLS-2005>
123.695098876953

> <r_mmod_Bend_Energy-OPLS-2005>
187.927688598633

> <r_mmod_Torsional_Energy-OPLS-2005>
187.963882446289

> <r_mmod_Improper_Torsional_Energy-OPLS-2005>
2.91856145858765

> <r_mmod_Van_der_Waal_Energy-OPLS-2005>
150.10383605957

> <r_mmod_Electrostatic_Energy-OPLS-2005>
-219.291488647461

> <r_mmod_Solvation_Energy-OPLS-2005>
-208.807708740234

> <b_mmod_Minimization_Converged-OPLS-2005>
0

> <r_mmod_RMS_Derivative-OPLS-2005>
1.74559605121613

$$$$
22
                    3D
 Structure written by MMmdl.
164172  0  0  1  0            999 V2000
  -30.8654  -14.6356   19.5078 C   0  0  0  0  0  0
  -31.3111  -12.3491   19.6710 C   0  0  0  0  0  0
  -30.5729  -12.1191   18.3973 C   0  0  0  0  0  0
  -29.2501  -12.1681   18.9523 C   0  0  0  0  0  0
  -28.4870  -13.4348   20.0685 C   0  0  2  0  0  0
  -29.5347  -13.1907   21.1399 C   0  0  0  0  0  0
  -24.6055  -14.2558   20.6665 C   0  0  0  0  0  0
  -23.7764  -13.3048   21.2101 C   0  0  0  0  0  0
  -24.2546  -11.9971   20.9921 C   0  0  0  0  0  0
  -23.7409  -10.5937   21.0813 C   0  0  0  0  0  0
  -24.2840   -9.5837   21.9240 C   0  0  0  0  0  0
  -23.6391   -8.3242   22.0639 C   0  0  0  0  0  0
  -22.4450   -8.0573   21.3474 C   0  0  0  0  0  0
  -21.9710   -9.0238   20.4456 C   0  0  0  0  0  0
  -22.6157  -10.2629   20.3057 C   0  0  0  0  0  0
  -21.7164   -6.0820   22.5257 C   0  0  0  0  0  0
  -21.4238   -6.5743   23.8168 C   0  0  0  0  0  0
  -21.3714   -5.6890   24.9128 C   0  0  0  0  0  0
  -21.6022   -4.3129   24.7190 C   0  0  0  0  0  0
  -21.8792   -3.8193   23.4320 C   0  0  0  0  0  0
  -21.9309   -4.7010   22.3392 C   0  0  0  0  0  0
  -22.3802  -13.6106   21.4188 C   0  0  0  0  0  0
  -22.1721   -4.2179   21.0971 F   0  0  0  0  0  0
  -21.5548   -3.4600   25.7700 F   0  0  0  0  0  0
  -30.7292  -13.5169   20.3119 N   0  0  0  0  0  0
  -25.5979  -13.5804   20.0790 N   0  0  0  0  0  0
  -24.7254  -12.4132   19.8882 N   0  0  0  0  0  0
  -21.7241  -12.8124   22.2339 N   0  0  0  0  0  0
  -24.5369  -15.6187   20.4993 N   0  0  0  0  0  0
  -31.8850  -15.2656   19.7328 O   0  0  0  0  0  0
  -21.7175   -6.8889   21.4143 O   0  0  0  0  0  0
  -21.8881  -14.5710   20.8335 O   0  0  0  0  0  0
  -24.6730  -31.8151   23.1683 C   0  0  0  0  0  0
  -25.9387  -32.4528   23.8137 C   0  0  1  0  0  0
  -27.0001  -26.7103   20.2717 C   0  0  0  0  0  0
  -25.6029  -33.8359   24.2023 N   0  0  0  0  0  0
  -23.4824  -30.4403   21.5223 C   0  0  2  0  0  0
  -24.9004  -28.8103   20.1030 C   0  0  0  0  0  0
  -22.7680  -29.4435   22.4744 C   0  0  0  0  0  0
  -18.0335  -28.1413   22.8470 C   0  0  0  0  0  0
  -24.1495  -36.7180   23.2637 C   0  0  0  0  0  0
  -26.0598  -30.5513   21.4296 C   0  0  0  0  0  0
  -26.0857  -29.1257   20.7771 C   0  0  0  0  0  0
  -27.1459  -28.0941   20.8331 C   0  0  0  0  0  0
  -25.8417  -26.6171   19.4849 C   0  0  0  0  0  0
  -24.8207  -27.5916   19.4190 C   0  0  0  0  0  0
  -23.7197  -29.7802   20.1383 C   0  0  0  0  0  0
  -25.4141  -36.2935   24.0283 C   0  0  1  0  0  0
  -20.5955  -28.3767   23.1165 C   0  0  2  0  0  0
  -20.6812  -26.9443   22.5397 C   0  0  0  0  0  0
  -19.5774  -26.6371   21.5224 C   0  0  0  0  0  0
  -18.1956  -26.7946   22.1631 C   0  0  0  0  0  0
  -19.1593  -28.8918   23.2801 C   0  0  0  0  0  0
  -18.9498  -30.1507   23.8838 C   0  0  0  0  0  0
  -17.6487  -30.6599   24.0557 C   0  0  0  0  0  0
  -25.9129  -34.9325   23.4977 C   0  0  0  0  0  0
  -16.5381  -29.9079   23.6349 C   0  0  0  0  0  0
  -16.7317  -28.6502   23.0366 C   0  0  0  0  0  0
  -26.4575  -31.6541   25.0737 C   0  0  0  0  0  0
  -25.3644  -31.3865   26.1358 C   0  0  0  0  0  0
  -27.0492  -30.2879   24.6621 C   0  0  0  0  0  0
  -27.6042  -32.4384   25.7540 C   0  0  0  0  0  0
  -27.5585  -37.1729   24.8442 C   0  0  0  0  0  0
  -21.4347  -29.3044   22.3495 N   0  0  0  0  0  0
  -26.4263  -37.3702   23.9433 N   0  0  0  0  0  0
  -24.7631  -30.9687   22.0907 N   0  0  0  0  0  0
  -23.4207  -28.7987   23.2991 O   0  0  0  0  0  0
  -27.7817  -25.4144   20.3854 O   0  0  0  0  0  0
  -26.5739  -34.8877   22.4574 O   0  0  0  0  0  0
  -23.5789  -32.1218   23.6713 O   0  0  0  0  0  0
  -26.9431  -12.0516   19.1847 C   0  0  0  0  0  0
  -27.0484  -13.7525   21.8272 C   0  0  0  0  0  0
  -27.1259  -13.7564   18.3084 C   0  0  0  0  0  0
  -27.1054  -15.3167   20.8452 C   0  0  0  0  0  0
  -27.3679  -16.6015   16.7178 C   0  0  0  0  0  0
  -29.5407  -15.8661   15.7065 C   0  0  0  0  0  0
  -27.6623  -21.9719   20.3988 C   0  0  0  0  0  0
  -27.1148  -20.2399   20.9687 C   0  0  0  0  0  0
  -27.1892  -23.8015   20.6187 C   0  0  0  0  0  0
  -27.3720  -18.3946   20.5575 C   0  0  0  0  0  0
  -28.5671  -14.3794   17.5914 C   0  0  1  0  0  0
  -28.2615  -15.3817   16.4180 C   0  0  0  0  0  0
  -26.9944  -12.1040   21.0399 N   0  0  0  0  0  0
  -27.0872  -15.1584   19.2106 N   0  0  0  0  0  0
  -29.9161  -14.9382   18.4124 N   0  0  0  0  0  0
  -27.1437  -16.8467   21.2741 O   0  0  0  0  0  0
  -32.3707  -12.5175   19.4657 H   0  0  0  0  0  0
  -31.2901  -11.4745   20.3254 H   0  0  0  0  0  0
  -30.8065  -11.1239   18.0151 H   0  0  0  0  0  0
  -30.8317  -12.7967   17.5852 H   0  0  0  0  0  0
  -29.1839  -11.2142   19.4932 H   0  0  0  0  0  0
  -28.8083  -11.9004   17.9866 H   0  0  0  0  0  0
  -28.8369  -14.3840   20.2443 H   0  0  0  0  0  0
  -29.5511  -12.1706   21.5287 H   0  0  0  0  0  0
  -29.5414  -13.8624   22.0051 H   0  0  0  0  0  0
  -25.1714   -9.8008   22.5017 H   0  0  0  0  0  0
  -24.0549   -7.5852   22.7349 H   0  0  0  0  0  0
  -21.0825   -8.8206   19.8637 H   0  0  0  0  0  0
  -22.2019  -11.0007   19.6318 H   0  0  0  0  0  0
  -21.2323   -7.6271   23.9647 H   0  0  0  0  0  0
  -21.1507   -6.0649   25.9012 H   0  0  0  0  0  0
  -22.0467   -2.7640   23.2800 H   0  0  0  0  0  0
  -22.1809  -12.0406   22.6931 H   0  0  0  0  0  0
  -20.7430  -12.9760   22.4105 H   0  0  0  0  0  0
  -23.6112  -16.0332   20.5214 H   0  0  0  0  0  0
  -25.1304  -15.9933   19.7650 H   0  0  0  0  0  0
  -26.7440  -32.4966   23.0812 H   0  0  0  0  0  0
  -25.0130  -33.9425   25.0144 H   0  0  0  0  0  0
  -22.8028  -31.2802   21.3643 H   0  0  0  0  0  0
  -23.3805  -35.9455   23.3187 H   0  0  0  0  0  0
  -24.3586  -36.8956   22.2076 H   0  0  0  0  0  0
  -23.7184  -37.6301   23.6779 H   0  0  0  0  0  0
  -26.2717  -31.2786   20.6443 H   0  0  0  0  0  0
  -26.9126  -30.5964   22.0944 H   0  0  0  0  0  0
  -28.0274  -28.3092   21.4198 H   0  0  0  0  0  0
  -25.6570  -25.6919   18.9595 H   0  0  0  0  0  0
  -23.9288  -27.3608   18.8519 H   0  0  0  0  0  0
  -23.9107  -30.5588   19.3989 H   0  0  0  0  0  0
  -22.8137  -29.2736   19.8017 H   0  0  0  0  0  0
  -25.1330  -36.1703   25.0769 H   0  0  0  0  0  0
  -21.0050  -28.3386   24.1287 H   0  0  0  0  0  0
  -20.5708  -26.2391   23.3644 H   0  0  0  0  0  0
  -21.6668  -26.7420   22.1188 H   0  0  0  0  0  0
  -19.6920  -25.6262   21.1297 H   0  0  0  0  0  0
  -19.6703  -27.3146   20.6721 H   0  0  0  0  0  0
  -17.4227  -26.6704   21.4033 H   0  0  0  0  0  0
  -18.0337  -26.0103   22.9038 H   0  0  0  0  0  0
  -19.7973  -30.7346   24.2166 H   0  0  0  0  0  0
  -17.5037  -31.6270   24.5168 H   0  0  0  0  0  0
  -15.5375  -30.2952   23.7713 H   0  0  0  0  0  0
  -15.8723  -28.0798   22.7105 H   0  0  0  0  0  0
  -24.5842  -30.7202   25.7663 H   0  0  0  0  0  0
  -24.8814  -32.3097   26.4575 H   0  0  0  0  0  0
  -25.7808  -30.9161   27.0276 H   0  0  0  0  0  0
  -26.3189  -29.6500   24.1640 H   0  0  0  0  0  0
  -27.3947  -29.7328   25.5352 H   0  0  0  0  0  0
  -27.9169  -30.4011   24.0121 H   0  0  0  0  0  0
  -27.2597  -33.3745   26.1950 H   0  0  0  0  0  0
  -28.3935  -32.6856   25.0428 H   0  0  0  0  0  0
  -28.0626  -31.8635   26.5599 H   0  0  0  0  0  0
  -28.2483  -38.0139   24.7631 H   0  0  0  0  0  0
  -28.1198  -36.2677   24.6083 H   0  0  0  0  0  0
  -27.2326  -37.1140   25.8839 H   0  0  0  0  0  0
  -20.9602  -29.8759   21.6639 H   0  0  0  0  0  0
  -26.0091  -38.2732   24.1527 H   0  0  0  0  0  0
  -26.9249  -11.0924   18.6804 H   0  0  0  0  0  0
  -27.0485  -13.7830   22.9073 H   0  0  0  0  0  0
  -27.2630  -17.2415   15.8420 H   0  0  0  0  0  0
  -27.7739  -17.2127   17.5233 H   0  0  0  0  0  0
  -26.3571  -16.2997   16.9947 H   0  0  0  0  0  0
  -29.2967  -16.3856   14.7804 H   0  0  0  0  0  0
  -30.1958  -15.0349   15.4463 H   0  0  0  0  0  0
  -30.1083  -16.5678   16.3180 H   0  0  0  0  0  0
  -27.6837  -21.8683   19.3141 H   0  0  0  0  0  0
  -28.7186  -21.9759   20.6673 H   0  0  0  0  0  0
  -26.0274  -20.3244   20.9632 H   0  0  0  0  0  0
  -27.3552  -20.2696   22.0312 H   0  0  0  0  0  0
  -26.9401  -23.8425   21.6796 H   0  0  0  0  0  0
  -26.2101  -23.8409   20.1421 H   0  0  0  0  0  0
  -28.4291  -18.3497   20.2976 H   0  0  0  0  0  0
  -26.8707  -18.2766   19.5986 H   0  0  0  0  0  0
  -28.9310  -13.5891   16.9459 H   0  0  0  0  0  0
  -27.7049  -14.8054   15.6779 H   0  0  0  0  0  0
  -30.2122  -15.7938   17.9724 H   0  0  0  0  0  0
  1 25  1  0  0  0
  1 30  2  0  0  0
  1 85  1  0  0  0
  2  3  1  0  0  0
  2 25  1  0  0  0
  2 87  1  0  0  0
  2 88  1  0  0  0
  3  4  1  0  0  0
  3 89  1  0  0  0
  3 90  1  0  0  0
  4  5  1  0  0  0
  4 91  1  0  0  0
  4 92  1  0  0  0
  5  6  1  0  0  0
  5 26  1  0  0  0
  5 93  1  0  0  0
  6 25  1  0  0  0
  6 94  1  0  0  0
  6 95  1  0  0  0
  7  8  2  0  0  0
  7 26  1  0  0  0
  7 29  1  0  0  0
  8  9  1  0  0  0
  8 22  1  0  0  0
  9 10  1  0  0  0
  9 27  2  0  0  0
 10 11  2  0  0  0
 10 15  1  0  0  0
 11 12  1  0  0  0
 11 96  1  0  0  0
 12 13  2  0  0  0
 12 97  1  0  0  0
 13 14  1  0  0  0
 13 31  1  0  0  0
 14 15  2  0  0  0
 14 98  1  0  0  0
 15 99  1  0  0  0
 16 17  2  0  0  0
 16 21  1  0  0  0
 16 31  1  0  0  0
 17 18  1  0  0  0
 17100  1  0  0  0
 18 19  2  0  0  0
 18101  1  0  0  0
 19 20  1  0  0  0
 19 24  1  0  0  0
 20 21  2  0  0  0
 20102  1  0  0  0
 21 23  1  0  0  0
 22 28  1  0  0  0
 22 32  2  0  0  0
 26 27  1  0  0  0
 28103  1  0  0  0
 28104  1  0  0  0
 29105  1  0  0  0
 29106  1  0  0  0
 33 34  1  0  0  0
 33 66  1  0  0  0
 33 70  2  0  0  0
 34 36  1  0  0  0
 34 59  1  0  0  0
 34107  1  0  0  0
 35 44  2  0  0  0
 35 45  1  0  0  0
 35 68  1  0  0  0
 36 56  1  0  0  0
 36108  1  0  0  0
 37 39  1  0  0  0
 37 47  1  0  0  0
 37 66  1  0  0  0
 37109  1  0  0  0
 38 43  2  0  0  0
 38 46  1  0  0  0
 38 47  1  0  0  0
 39 64  1  0  0  0
 39 67  2  0  0  0
 40 52  1  0  0  0
 40 53  2  0  0  0
 40 58  1  0  0  0
 41110  1  0  0  0
 41111  1  0  0  0
 41112  1  0  0  0
 41 48  1  0  0  0
 42 43  1  0  0  0
 42 66  1  0  0  0
 42113  1  0  0  0
 42114  1  0  0  0
 43 44  1  0  0  0
 44115  1  0  0  0
 45 46  2  0  0  0
 45116  1  0  0  0
 46117  1  0  0  0
 47118  1  0  0  0
 47119  1  0  0  0
 48 56  1  0  0  0
 48 65  1  0  0  0
 48120  1  0  0  0
 49 50  1  0  0  0
 49 53  1  0  0  0
 49 64  1  0  0  0
 49121  1  0  0  0
 50 51  1  0  0  0
 50122  1  0  0  0
 50123  1  0  0  0
 51 52  1  0  0  0
 51124  1  0  0  0
 51125  1  0  0  0
 52126  1  0  0  0
 52127  1  0  0  0
 53 54  1  0  0  0
 54 55  2  0  0  0
 54128  1  0  0  0
 55 57  1  0  0  0
 55129  1  0  0  0
 56 69  2  0  0  0
 57 58  2  0  0  0
 57130  1  0  0  0
 58131  1  0  0  0
 59 60  1  0  0  0
 59 61  1  0  0  0
 59 62  1  0  0  0
 60132  1  0  0  0
 60133  1  0  0  0
 60134  1  0  0  0
 61135  1  0  0  0
 61136  1  0  0  0
 61137  1  0  0  0
 62138  1  0  0  0
 62139  1  0  0  0
 62140  1  0  0  0
 63 65  1  0  0  0
 63141  1  0  0  0
 63142  1  0  0  0
 63143  1  0  0  0
 64144  1  0  0  0
 65145  1  0  0  0
 68 79  1  0  0  0
 71 73  2  0  0  0
 71 83  1  0  0  0
 71146  1  0  0  0
 72 74  1  0  0  0
 72 83  2  0  0  0
 72147  1  0  0  0
 73 81  1  0  0  0
 73 84  1  0  0  0
 74 84  2  0  0  0
 74 86  1  0  0  0
 75148  1  0  0  0
 75149  1  0  0  0
 75150  1  0  0  0
 75 82  1  0  0  0
 76 82  1  0  0  0
 76151  1  0  0  0
 76152  1  0  0  0
 76153  1  0  0  0
 77 78  1  0  0  0
 77 79  1  0  0  0
 77154  1  0  0  0
 77155  1  0  0  0
 78 80  1  0  0  0
 78156  1  0  0  0
 78157  1  0  0  0
 79158  1  0  0  0
 79159  1  0  0  0
 80 86  1  0  0  0
 80160  1  0  0  0
 80161  1  0  0  0
 81 82  1  0  0  0
 81 85  1  0  0  0
 81162  1  0  0  0
 82163  1  0  0  0
 85164  1  0  0  0
M  ISO  4   1 100  68 101  79 101  85 100
M  END
> <chiral flag>
0

> <version>
0

> <s_m_source_file>
/data/baiqing/PycharmProjects/Reinvent-master-3.2/result/LINK_invent/BTK/process_docking_weight1_custom_sum_contain_oxygen_bond_distance_aromatic_linkinvent_7_9_3/rearranged_h_0072.sdf

> <i_m_source_file_index>
22

> <r_mmod_Potential_Energy-OPLS-2005>
12608.4306640625

> <r_mmod_Stretch_Energy-OPLS-2005>
6494.1337890625

> <r_mmod_Bend_Energy-OPLS-2005>
1116.6171875

> <r_mmod_Torsional_Energy-OPLS-2005>
563.490051269531

> <r_mmod_Improper_Torsional_Energy-OPLS-2005>
51.5362129211426

> <r_mmod_Van_der_Waal_Energy-OPLS-2005>
3112.10180664062

> <r_mmod_Electrostatic_Energy-OPLS-2005>
-381.180297851562

> <r_mmod_Solvation_Energy-OPLS-2005>
-209.992004394531

> <b_mmod_Minimization_Converged-OPLS-2005>
0

> <r_mmod_RMS_Derivative-OPLS-2005>
4.82150363922119

$$$$
23
                    3D
 Structure written by MMmdl.
160168  0  0  1  0            999 V2000
  -30.7827  -14.4569   20.6314 C   0  0  0  0  0  0
  -30.4170  -12.3219   19.4321 C   0  0  0  0  0  0
  -29.4940  -12.5365   18.2150 C   0  0  0  0  0  0
  -28.0139  -12.3835   18.6078 C   0  0  0  0  0  0
  -27.6610  -13.2177   19.8676 C   0  0  2  0  0  0
  -28.6971  -13.0191   20.9969 C   0  0  0  0  0  0
  -25.2558  -13.8260   20.5655 C   0  0  0  0  0  0
  -24.1841  -13.0482   20.9150 C   0  0  0  0  0  0
  -24.6454  -11.6965   20.8761 C   0  0  0  0  0  0
  -23.9200  -10.4312   21.0453 C   0  0  0  0  0  0
  -24.3751   -9.4225   21.9220 C   0  0  0  0  0  0
  -23.6414   -8.2260   22.0783 C   0  0  0  0  0  0
  -22.4364   -8.0331   21.3570 C   0  0  0  0  0  0
  -22.0054   -9.0306   20.4650 C   0  0  0  0  0  0
  -22.7395  -10.2177   20.3075 C   0  0  0  0  0  0
  -21.6846   -6.0808   22.5308 C   0  0  0  0  0  0
  -21.3997   -6.5696   23.8248 C   0  0  0  0  0  0
  -21.3662   -5.6810   24.9192 C   0  0  0  0  0  0
  -21.6064   -4.3087   24.7249 C   0  0  0  0  0  0
  -21.8817   -3.8193   23.4355 C   0  0  0  0  0  0
  -21.9187   -4.7026   22.3415 C   0  0  0  0  0  0
  -22.7820  -13.5185   21.1799 C   0  0  0  0  0  0
  -22.1634   -4.2204   21.0986 F   0  0  0  0  0  0
  -21.5664   -3.4566   25.7769 F   0  0  0  0  0  0
  -30.0476  -13.3077   20.4697 N   0  0  0  0  0  0
  -26.3004  -12.9451   20.3301 N   0  0  0  0  0  0
  -25.9376  -11.6607   20.5789 N   0  0  0  0  0  0
  -22.0492  -12.8160   22.0352 N   0  0  0  0  0  0
  -25.4226  -15.2040   20.4083 N   0  0  0  0  0  0
  -31.8132  -14.6546   19.9795 O   0  0  0  0  0  0
  -21.6649   -6.8980   21.4287 O   0  0  0  0  0  0
  -22.3441  -14.5457   20.6599 O   0  0  0  0  0  0
  -24.6158  -31.8662   23.2136 C   0  0  0  0  0  0
  -25.9035  -32.4832   23.8436 C   0  0  1  0  0  0
  -27.2196  -27.3843   20.0895 C   0  0  0  0  0  0
  -25.5875  -33.8639   24.2357 N   0  0  0  0  0  0
  -23.4075  -30.4929   21.5546 C   0  0  2  0  0  0
  -24.8535  -28.9664   20.1156 C   0  0  0  0  0  0
  -22.7408  -29.4628   22.4985 C   0  0  0  0  0  0
  -18.0273  -28.1336   22.8544 C   0  0  0  0  0  0
  -24.1462  -36.7296   23.2646 C   0  0  0  0  0  0
  -25.9468  -30.8103   21.3897 C   0  0  0  0  0  0
  -26.0182  -29.4472   20.7234 C   0  0  0  0  0  0
  -27.2006  -28.6608   20.7162 C   0  0  0  0  0  0
  -26.0295  -26.9432   19.4608 C   0  0  0  0  0  0
  -24.8537  -27.7146   19.4869 C   0  0  0  0  0  0
  -23.6206  -29.8369   20.1672 C   0  0  0  0  0  0
  -25.4094  -36.3137   24.0364 C   0  0  1  0  0  0
  -20.5866  -28.3636   23.1342 C   0  0  2  0  0  0
  -20.6752  -26.9360   22.5446 C   0  0  0  0  0  0
  -19.5716  -26.6338   21.5253 C   0  0  0  0  0  0
  -18.1898  -26.7894   22.1659 C   0  0  0  0  0  0
  -19.1522  -28.8802   23.2947 C   0  0  0  0  0  0
  -18.9444  -30.1422   23.8934 C   0  0  0  0  0  0
  -17.6449  -30.6561   24.0561 C   0  0  0  0  0  0
  -25.9026  -34.9499   23.5163 C   0  0  0  0  0  0
  -16.5341  -29.9064   23.6325 C   0  0  0  0  0  0
  -16.7262  -28.6455   23.0398 C   0  0  0  0  0  0
  -26.4454  -31.6637   25.0784 C   0  0  0  0  0  0
  -25.3693  -31.3796   26.1521 C   0  0  0  0  0  0
  -27.0314  -30.3049   24.6271 C   0  0  0  0  0  0
  -27.5989  -32.4413   25.7556 C   0  0  0  0  0  0
  -27.5591  -37.1799   24.8457 C   0  0  0  0  0  0
  -21.4127  -29.3027   22.3730 N   0  0  0  0  0  0
  -26.4281  -37.3818   23.9435 N   0  0  0  0  0  0
  -24.6740  -31.0725   22.1083 N   0  0  0  0  0  0
  -23.4165  -28.8167   23.3033 O   0  0  0  0  0  0
  -28.3792  -26.6086   20.1227 O   0  0  0  0  0  0
  -26.5588  -34.8935   22.4719 O   0  0  0  0  0  0
  -23.5350  -32.1467   23.7471 O   0  0  0  0  0  0
  -29.3061  -20.3948   20.9733 C   0  0  0  0  0  0
  -30.0152  -19.3965   21.6934 C   0  0  0  0  0  0
  -29.5390  -21.7608   21.2856 C   0  0  0  0  0  0
  -30.9585  -19.8816   22.6432 C   0  0  0  0  0  0
  -31.7747  -18.9944   23.5634 C   0  0  0  0  0  0
  -30.1753  -15.1420   22.8772 C   0  0  0  0  0  0
  -29.6092  -17.9075   21.5732 C   0  0  0  0  0  0
  -28.6221  -22.8852   20.7952 C   0  0  0  0  0  0
  -29.2913  -24.2514   20.4265 C   0  0  0  0  0  0
  -30.7027  -16.8606   21.1988 C   0  0  0  0  0  0
  -28.3002  -25.2158   19.7063 C   0  0  0  0  0  0
  -30.4551  -22.1290   22.2104 N   0  0  0  0  0  0
  -31.1784  -21.2066   22.8456 N   0  0  0  0  0  0
  -30.3042  -15.4416   21.4437 N   0  0  0  0  0  0
  -31.4590  -12.4022   19.1200 H   0  0  0  0  0  0
  -30.3161  -11.3071   19.8221 H   0  0  0  0  0  0
  -29.7499  -11.8475   17.4099 H   0  0  0  0  0  0
  -29.6458  -13.5448   17.8195 H   0  0  0  0  0  0
  -27.7995  -11.3296   18.7784 H   0  0  0  0  0  0
  -27.3816  -12.6820   17.7706 H   0  0  0  0  0  0
  -27.7056  -14.2658   19.5673 H   0  0  0  0  0  0
  -28.6573  -11.9981   21.3807 H   0  0  0  0  0  0
  -28.4123  -13.6528   21.8324 H   0  0  0  0  0  0
  -25.2933   -9.5689   22.4785 H   0  0  0  0  0  0
  -24.0135   -7.4662   22.7493 H   0  0  0  0  0  0
  -21.0992   -8.8864   19.8924 H   0  0  0  0  0  0
  -22.3920  -10.9754   19.6177 H   0  0  0  0  0  0
  -21.1952   -7.6183   23.9793 H   0  0  0  0  0  0
  -21.1484   -6.0524   25.9112 H   0  0  0  0  0  0
  -22.0607   -2.7667   23.2834 H   0  0  0  0  0  0
  -22.4066  -11.9847   22.4826 H   0  0  0  0  0  0
  -21.1095  -13.1157   22.2525 H   0  0  0  0  0  0
  -24.6585  -15.8608   20.5336 H   0  0  0  0  0  0
  -26.2841  -15.6513   20.1285 H   0  0  0  0  0  0
  -26.7083  -32.5526   23.1182 H   0  0  0  0  0  0
  -25.0000  -33.9814   25.0493 H   0  0  0  0  0  0
  -22.6995  -31.3128   21.4163 H   0  0  0  0  0  0
  -23.3775  -35.9563   23.3281 H   0  0  0  0  0  0
  -24.3563  -36.8935   22.2058 H   0  0  0  0  0  0
  -23.7141  -37.6468   23.6668 H   0  0  0  0  0  0
  -26.0840  -31.5883   20.6382 H   0  0  0  0  0  0
  -26.8227  -30.8403   22.0272 H   0  0  0  0  0  0
  -28.0920  -29.0174   21.2115 H   0  0  0  0  0  0
  -25.9524  -26.0048   18.9320 H   0  0  0  0  0  0
  -23.9580  -27.3407   19.0137 H   0  0  0  0  0  0
  -23.7351  -30.6168   19.4132 H   0  0  0  0  0  0
  -22.7440  -29.2610   19.8651 H   0  0  0  0  0  0
  -25.1262  -36.2015   25.0859 H   0  0  0  0  0  0
  -20.9968  -28.3179   24.1463 H   0  0  0  0  0  0
  -20.5644  -26.2228   23.3634 H   0  0  0  0  0  0
  -21.6621  -26.7363   22.1252 H   0  0  0  0  0  0
  -19.6859  -25.6235   21.1303 H   0  0  0  0  0  0
  -19.6671  -27.3146   20.6782 H   0  0  0  0  0  0
  -17.4178  -26.6698   21.4050 H   0  0  0  0  0  0
  -18.0263  -26.0001   22.9006 H   0  0  0  0  0  0
  -19.7922  -30.7239   24.2316 H   0  0  0  0  0  0
  -17.4998  -31.6267   24.5112 H   0  0  0  0  0  0
  -15.5341  -30.2982   23.7601 H   0  0  0  0  0  0
  -15.8675  -28.0764   22.7154 H   0  0  0  0  0  0
  -24.5809  -30.7216   25.7855 H   0  0  0  0  0  0
  -24.8953  -32.2979   26.4999 H   0  0  0  0  0  0
  -25.8002  -30.8918   27.0270 H   0  0  0  0  0  0
  -26.2917  -29.6832   24.1196 H   0  0  0  0  0  0
  -27.3876  -29.7304   25.4842 H   0  0  0  0  0  0
  -27.8858  -30.4348   23.9612 H   0  0  0  0  0  0
  -27.2545  -33.3697   26.2142 H   0  0  0  0  0  0
  -28.3780  -32.7025   25.0378 H   0  0  0  0  0  0
  -28.0669  -31.8551   26.5482 H   0  0  0  0  0  0
  -28.2574  -38.0137   24.7582 H   0  0  0  0  0  0
  -28.1133  -36.2678   24.6179 H   0  0  0  0  0  0
  -27.2322  -37.1311   25.8860 H   0  0  0  0  0  0
  -20.9240  -29.8786   21.7026 H   0  0  0  0  0  0
  -26.0191  -38.2893   24.1481 H   0  0  0  0  0  0
  -28.5294  -20.1198   20.2728 H   0  0  0  0  0  0
  -31.1704  -18.2172   24.0340 H   0  0  0  0  0  0
  -32.2262  -19.5868   24.3609 H   0  0  0  0  0  0
  -32.5952  -18.5445   23.0097 H   0  0  0  0  0  0
  -30.3597  -14.0947   23.1176 H   0  0  0  0  0  0
  -29.1654  -15.3744   23.2189 H   0  0  0  0  0  0
  -30.8846  -15.7172   23.4718 H   0  0  0  0  0  0
  -28.7898  -17.8172   20.8549 H   0  0  0  0  0  0
  -29.1743  -17.6440   22.5336 H   0  0  0  0  0  0
  -27.9008  -23.0692   21.5928 H   0  0  0  0  0  0
  -28.0387  -22.5100   19.9531 H   0  0  0  0  0  0
  -30.1718  -24.0864   19.8011 H   0  0  0  0  0  0
  -29.6503  -24.7250   21.3451 H   0  0  0  0  0  0
  -31.6246  -17.0424   21.7424 H   0  0  0  0  0  0
  -30.9639  -17.0020   20.1464 H   0  0  0  0  0  0
  -27.3152  -24.7884   19.8993 H   0  0  0  0  0  0
  -28.4514  -25.1644   18.6234 H   0  0  0  0  0  0
  1 25  1  0  0  0
  1 30  2  0  0  0
  1 84  1  0  0  0
  2  3  1  0  0  0
  2 25  1  0  0  0
  2 85  1  0  0  0
  2 86  1  0  0  0
  3  4  1  0  0  0
  3 87  1  0  0  0
  3 88  1  0  0  0
  4  5  1  0  0  0
  4 89  1  0  0  0
  4 90  1  0  0  0
  5  6  1  0  0  0
  5 26  1  0  0  0
  5 91  1  0  0  0
  6 25  1  0  0  0
  6 92  1  0  0  0
  6 93  1  0  0  0
  7  8  2  0  0  0
  7 26  1  0  0  0
  7 29  1  0  0  0
  8  9  1  0  0  0
  8 22  1  0  0  0
  9 10  1  0  0  0
  9 27  2  0  0  0
 10 11  2  0  0  0
 10 15  1  0  0  0
 11 12  1  0  0  0
 11 94  1  0  0  0
 12 13  2  0  0  0
 12 95  1  0  0  0
 13 14  1  0  0  0
 13 31  1  0  0  0
 14 15  2  0  0  0
 14 96  1  0  0  0
 15 97  1  0  0  0
 16 17  2  0  0  0
 16 21  1  0  0  0
 16 31  1  0  0  0
 17 18  1  0  0  0
 17 98  1  0  0  0
 18 19  2  0  0  0
 18 99  1  0  0  0
 19 20  1  0  0  0
 19 24  1  0  0  0
 20 21  2  0  0  0
 20100  1  0  0  0
 21 23  1  0  0  0
 22 28  1  0  0  0
 22 32  2  0  0  0
 26 27  1  0  0  0
 28101  1  0  0  0
 28102  1  0  0  0
 29103  1  0  0  0
 29104  1  0  0  0
 33 34  1  0  0  0
 33 66  1  0  0  0
 33 70  2  0  0  0
 34 36  1  0  0  0
 34 59  1  0  0  0
 34105  1  0  0  0
 35 44  2  0  0  0
 35 45  1  0  0  0
 35 68  1  0  0  0
 36 56  1  0  0  0
 36106  1  0  0  0
 37 39  1  0  0  0
 37 47  1  0  0  0
 37 66  1  0  0  0
 37107  1  0  0  0
 38 43  2  0  0  0
 38 46  1  0  0  0
 38 47  1  0  0  0
 39 64  1  0  0  0
 39 67  2  0  0  0
 40 52  1  0  0  0
 40 53  2  0  0  0
 40 58  1  0  0  0
 41108  1  0  0  0
 41109  1  0  0  0
 41110  1  0  0  0
 41 48  1  0  0  0
 42 43  1  0  0  0
 42 66  1  0  0  0
 42111  1  0  0  0
 42112  1  0  0  0
 43 44  1  0  0  0
 44113  1  0  0  0
 45 46  2  0  0  0
 45114  1  0  0  0
 46115  1  0  0  0
 47116  1  0  0  0
 47117  1  0  0  0
 48 56  1  0  0  0
 48 65  1  0  0  0
 48118  1  0  0  0
 49 50  1  0  0  0
 49 53  1  0  0  0
 49 64  1  0  0  0
 49119  1  0  0  0
 50 51  1  0  0  0
 50120  1  0  0  0
 50121  1  0  0  0
 51 52  1  0  0  0
 51122  1  0  0  0
 51123  1  0  0  0
 52124  1  0  0  0
 52125  1  0  0  0
 53 54  1  0  0  0
 54 55  2  0  0  0
 54126  1  0  0  0
 55 57  1  0  0  0
 55127  1  0  0  0
 56 69  2  0  0  0
 57 58  2  0  0  0
 57128  1  0  0  0
 58129  1  0  0  0
 59 60  1  0  0  0
 59 61  1  0  0  0
 59 62  1  0  0  0
 60130  1  0  0  0
 60131  1  0  0  0
 60132  1  0  0  0
 61133  1  0  0  0
 61134  1  0  0  0
 61135  1  0  0  0
 62136  1  0  0  0
 62137  1  0  0  0
 62138  1  0  0  0
 63 65  1  0  0  0
 63139  1  0  0  0
 63140  1  0  0  0
 63141  1  0  0  0
 64142  1  0  0  0
 65143  1  0  0  0
 68 81  1  0  0  0
 71 72  2  0  0  0
 71 73  1  0  0  0
 71144  1  0  0  0
 72 74  1  0  0  0
 72 77  1  0  0  0
 73 78  1  0  0  0
 73 82  2  0  0  0
 74 75  1  0  0  0
 74 83  2  0  0  0
 75145  1  0  0  0
 75146  1  0  0  0
 75147  1  0  0  0
 76 84  1  0  0  0
 76148  1  0  0  0
 76149  1  0  0  0
 76150  1  0  0  0
 77 80  1  0  0  0
 77151  1  0  0  0
 77152  1  0  0  0
 78 79  1  0  0  0
 78153  1  0  0  0
 78154  1  0  0  0
 79 81  1  0  0  0
 79155  1  0  0  0
 79156  1  0  0  0
 80 84  1  0  0  0
 80157  1  0  0  0
 80158  1  0  0  0
 81159  1  0  0  0
 81160  1  0  0  0
 82 83  1  0  0  0
M  ISO  4   1 100  68 101  81 101  84 100
M  END
> <chiral flag>
0

> <version>
0

> <s_m_source_file>
/data/baiqing/PycharmProjects/Reinvent-master-3.2/result/LINK_invent/BTK/process_docking_weight1_custom_sum_contain_oxygen_bond_distance_aromatic_linkinvent_7_9_3/rearranged_h_0072.sdf

> <i_m_source_file_index>
23

> <r_mmod_Potential_Energy-OPLS-2005>
101.228645324707

> <r_mmod_Stretch_Energy-OPLS-2005>
54.034740447998

> <r_mmod_Bend_Energy-OPLS-2005>
121.787979125977

> <r_mmod_Torsional_Energy-OPLS-2005>
270.670257568359

> <r_mmod_Improper_Torsional_Energy-OPLS-2005>
7.69368457794189

> <r_mmod_Van_der_Waal_Energy-OPLS-2005>
169.724472045898

> <r_mmod_Electrostatic_Energy-OPLS-2005>
-314.089721679688

> <r_mmod_Solvation_Energy-OPLS-2005>
-226.538284301758

> <b_mmod_Minimization_Converged-OPLS-2005>
0

> <r_mmod_RMS_Derivative-OPLS-2005>
6.03307819366455

$$$$
24
                    3D
 Structure written by MMmdl.
159167  0  0  1  0            999 V2000
  -30.4921  -14.9513   20.4697 C   0  0  0  0  0  0
  -30.4506  -12.5865   19.5222 C   0  0  0  0  0  0
  -29.5372  -12.5353   18.2734 C   0  0  0  0  0  0
  -28.0682  -12.3036   18.6807 C   0  0  0  0  0  0
  -27.6300  -13.2395   19.8368 C   0  0  2  0  0  0
  -28.6606  -13.2442   20.9824 C   0  0  0  0  0  0
  -25.2480  -13.8161   20.5804 C   0  0  0  0  0  0
  -24.1751  -13.0407   20.9231 C   0  0  0  0  0  0
  -24.6335  -11.6898   20.8687 C   0  0  0  0  0  0
  -23.9006  -10.4281   21.0357 C   0  0  0  0  0  0
  -24.3574   -9.4223   21.9149 C   0  0  0  0  0  0
  -23.6274   -8.2245   22.0727 C   0  0  0  0  0  0
  -22.4250   -8.0258   21.3524 C   0  0  0  0  0  0
  -21.9871   -9.0215   20.4615 C   0  0  0  0  0  0
  -22.7171  -10.2112   20.3020 C   0  0  0  0  0  0
  -21.6847   -6.0710   22.5281 C   0  0  0  0  0  0
  -21.3993   -6.5625   23.8210 C   0  0  0  0  0  0
  -21.3661   -5.6778   24.9174 C   0  0  0  0  0  0
  -21.6060   -4.3041   24.7231 C   0  0  0  0  0  0
  -21.8816   -3.8134   23.4347 C   0  0  0  0  0  0
  -21.9193   -4.6945   22.3406 C   0  0  0  0  0  0
  -22.7781  -13.5208   21.1933 C   0  0  0  0  0  0
  -22.1663   -4.2135   21.0981 F   0  0  0  0  0  0
  -21.5647   -3.4533   25.7739 F   0  0  0  0  0  0
  -29.9471  -13.6672   20.4164 N   0  0  0  0  0  0
  -26.2863  -12.9388   20.3194 N   0  0  0  0  0  0
  -25.9266  -11.6513   20.5632 N   0  0  0  0  0  0
  -22.0408  -12.8178   22.0464 N   0  0  0  0  0  0
  -25.4217  -15.1874   20.4485 N   0  0  0  0  0  0
  -31.6679  -15.0592   20.0996 O   0  0  0  0  0  0
  -21.6629   -6.8852   21.4233 O   0  0  0  0  0  0
  -22.3475  -14.5522   20.6798 O   0  0  0  0  0  0
  -24.6437  -31.8387   23.1845 C   0  0  0  0  0  0
  -25.9215  -32.4643   23.8244 C   0  0  1  0  0  0
  -27.2289  -27.1289   20.1574 C   0  0  0  0  0  0
  -25.5962  -33.8465   24.2156 N   0  0  0  0  0  0
  -23.4495  -30.4578   21.5262 C   0  0  2  0  0  0
  -24.8987  -28.8785   20.1078 C   0  0  0  0  0  0
  -22.7574  -29.4510   22.4791 C   0  0  0  0  0  0
  -18.0285  -28.1386   22.8428 C   0  0  0  0  0  0
  -24.1484  -36.7233   23.2644 C   0  0  0  0  0  0
  -26.0056  -30.7105   21.3863 C   0  0  0  0  0  0
  -26.0719  -29.3210   20.7300 C   0  0  0  0  0  0
  -27.2309  -28.4610   20.7396 C   0  0  0  0  0  0
  -26.0258  -26.7816   19.5015 C   0  0  0  0  0  0
  -24.8879  -27.6190   19.4847 C   0  0  0  0  0  0
  -23.6781  -29.7842   20.1454 C   0  0  0  0  0  0
  -25.4095  -36.2995   24.0325 C   0  0  1  0  0  0
  -20.5910  -28.3707   23.1187 C   0  0  2  0  0  0
  -20.6776  -26.9403   22.5368 C   0  0  0  0  0  0
  -19.5752  -26.6356   21.5173 C   0  0  0  0  0  0
  -18.1927  -26.7906   22.1585 C   0  0  0  0  0  0
  -19.1555  -28.8859   23.2806 C   0  0  0  0  0  0
  -18.9506  -30.1457   23.8826 C   0  0  0  0  0  0
  -17.6511  -30.6578   24.0559 C   0  0  0  0  0  0
  -25.9075  -34.9374   23.5043 C   0  0  0  0  0  0
  -16.5387  -29.9079   23.6356 C   0  0  0  0  0  0
  -16.7282  -28.6519   23.0330 C   0  0  0  0  0  0
  -26.4534  -31.6553   25.0719 C   0  0  0  0  0  0
  -25.3719  -31.3772   26.1426 C   0  0  0  0  0  0
  -27.0445  -30.2947   24.6359 C   0  0  0  0  0  0
  -27.6026  -32.4366   25.7498 C   0  0  0  0  0  0
  -27.5568  -37.1726   24.8438 C   0  0  0  0  0  0
  -21.4256  -29.3058   22.3585 N   0  0  0  0  0  0
  -26.4224  -37.3736   23.9457 N   0  0  0  0  0  0
  -24.7193  -31.0250   22.0864 N   0  0  0  0  0  0
  -23.4217  -28.8054   23.2943 O   0  0  0  0  0  0
  -28.3130  -26.1870   20.2724 O   0  0  0  0  0  0
  -26.5661  -34.8897   22.4620 O   0  0  0  0  0  0
  -23.5545  -32.1275   23.7060 O   0  0  0  0  0  0
  -27.1674  -20.8331   19.3826 C   0  0  0  0  0  0
  -26.2701  -19.9201   18.8277 C   0  0  0  0  0  0
  -28.3876  -20.4329   19.9771 C   0  0  0  0  0  0
  -26.5903  -18.5675   18.8685 C   0  0  0  0  0  0
  -28.6457  -18.9286   19.9954 C   0  0  0  0  0  0
  -25.6755  -17.5476   18.2256 C   0  0  0  0  0  0
  -29.8126  -16.3948   22.4716 C   0  0  0  0  0  0
  -29.1956  -21.7836   20.4045 C   0  0  0  0  0  0
  -29.8803  -17.9134   20.3626 C   0  0  0  0  0  0
  -28.5041  -23.3118   20.7424 C   0  0  0  0  0  0
  -28.3646  -24.7019   19.7991 C   0  0  0  0  0  0
  -29.6628  -16.3234   20.9357 C   0  0  1  0  0  0
  -27.7222  -18.1109   19.4320 N   0  0  0  0  0  0
  -31.4874  -12.7535   19.2256 H   0  0  0  0  0  0
  -30.4462  -11.6290   20.0455 H   0  0  0  0  0  0
  -29.8717  -11.7500   17.5946 H   0  0  0  0  0  0
  -29.6228  -13.4745   17.7247 H   0  0  0  0  0  0
  -27.9806  -11.2659   19.0035 H   0  0  0  0  0  0
  -27.4077  -12.4144   17.8204 H   0  0  0  0  0  0
  -27.5985  -14.2432   19.4109 H   0  0  0  0  0  0
  -28.7410  -12.2569   21.4390 H   0  0  0  0  0  0
  -28.3390  -13.9198   21.7743 H   0  0  0  0  0  0
  -25.2706   -9.5735   22.4723 H   0  0  0  0  0  0
  -23.9999   -7.4638   22.7443 H   0  0  0  0  0  0
  -21.0815   -8.8693   19.8919 H   0  0  0  0  0  0
  -22.3593  -10.9630   19.6138 H   0  0  0  0  0  0
  -21.1947   -7.6124   23.9707 H   0  0  0  0  0  0
  -21.1500   -6.0506   25.9077 H   0  0  0  0  0  0
  -22.0592   -2.7598   23.2851 H   0  0  0  0  0  0
  -22.3995  -11.9835   22.4867 H   0  0  0  0  0  0
  -21.1009  -13.1186   22.2633 H   0  0  0  0  0  0
  -24.6598  -15.8415   20.5731 H   0  0  0  0  0  0
  -26.2883  -15.6369   20.1801 H   0  0  0  0  0  0
  -26.7283  -32.5246   23.0969 H   0  0  0  0  0  0
  -25.0160  -33.9551   25.0342 H   0  0  0  0  0  0
  -22.7552  -31.2848   21.3619 H   0  0  0  0  0  0
  -23.3776  -35.9538   23.3212 H   0  0  0  0  0  0
  -24.3609  -36.8942   22.2085 H   0  0  0  0  0  0
  -23.7188  -37.6379   23.6738 H   0  0  0  0  0  0
  -26.1676  -31.4619   20.6105 H   0  0  0  0  0  0
  -26.8757  -30.7537   22.0321 H   0  0  0  0  0  0
  -28.1230  -28.7904   21.2541 H   0  0  0  0  0  0
  -25.9261  -25.8196   19.0262 H   0  0  0  0  0  0
  -23.9905  -27.2629   18.9957 H   0  0  0  0  0  0
  -23.8199  -30.5569   19.3874 H   0  0  0  0  0  0
  -22.7954  -29.2265   19.8301 H   0  0  0  0  0  0
  -25.1252  -36.1794   25.0810 H   0  0  0  0  0  0
  -20.9998  -28.3297   24.1306 H   0  0  0  0  0  0
  -20.5624  -26.2335   23.3591 H   0  0  0  0  0  0
  -21.6643  -26.7351   22.1192 H   0  0  0  0  0  0
  -19.6947  -25.6267   21.1206 H   0  0  0  0  0  0
  -19.6711  -27.3172   20.6707 H   0  0  0  0  0  0
  -17.4193  -26.6622   21.4003 H   0  0  0  0  0  0
  -18.0346  -26.0049   22.8985 H   0  0  0  0  0  0
  -19.8017  -30.7267   24.2150 H   0  0  0  0  0  0
  -17.5098  -31.6244   24.5200 H   0  0  0  0  0  0
  -15.5412  -30.2992   23.7730 H   0  0  0  0  0  0
  -15.8654  -28.0860   22.7048 H   0  0  0  0  0  0
  -24.5881  -30.7116   25.7776 H   0  0  0  0  0  0
  -24.8935  -32.2978   26.4798 H   0  0  0  0  0  0
  -25.7987  -30.8991   27.0250 H   0  0  0  0  0  0
  -26.3108  -29.6621   24.1351 H   0  0  0  0  0  0
  -27.4053  -29.7276   25.4952 H   0  0  0  0  0  0
  -27.8981  -30.4189   23.9686 H   0  0  0  0  0  0
  -27.2579  -33.3694   26.1985 H   0  0  0  0  0  0
  -28.3872  -32.6909   25.0355 H   0  0  0  0  0  0
  -28.0678  -31.8588   26.5499 H   0  0  0  0  0  0
  -28.2436  -38.0167   24.7652 H   0  0  0  0  0  0
  -28.1194  -36.2701   24.6007 H   0  0  0  0  0  0
  -27.2338  -37.1046   25.8843 H   0  0  0  0  0  0
  -20.9473  -29.8855   21.6826 H   0  0  0  0  0  0
  -26.0078  -38.2749   24.1633 H   0  0  0  0  0  0
  -26.9108  -21.8776   19.3014 H   0  0  0  0  0  0
  -25.3574  -20.2652   18.3565 H   0  0  0  0  0  0
  -25.5112  -17.7949   17.1773 H   0  0  0  0  0  0
  -24.7055  -17.5345   18.7224 H   0  0  0  0  0  0
  -26.1039  -16.5471   18.2664 H   0  0  0  0  0  0
  -29.1508  -17.1470   22.9026 H   0  0  0  0  0  0
  -30.8344  -16.6585   22.7478 H   0  0  0  0  0  0
  -29.5837  -15.4477   22.9597 H   0  0  0  0  0  0
  -29.9966  -21.9254   19.6803 H   0  0  0  0  0  0
  -29.7071  -21.4822   21.3199 H   0  0  0  0  0  0
  -30.5155  -18.4521   21.0644 H   0  0  0  0  0  0
  -30.4836  -17.8367   19.4581 H   0  0  0  0  0  0
  -29.1464  -23.6767   21.5445 H   0  0  0  0  0  0
  -27.5551  -23.1556   21.2545 H   0  0  0  0  0  0
  -27.5787  -24.5254   19.0704 H   0  0  0  0  0  0
  -29.2660  -24.6929   19.1873 H   0  0  0  0  0  0
  -28.6241  -16.0726   20.7271 H   0  0  0  0  0  0
  1 25  1  0  0  0
  1 30  2  0  0  0
  1 82  1  0  0  0
  2  3  1  0  0  0
  2 25  1  0  0  0
  2 84  1  0  0  0
  2 85  1  0  0  0
  3  4  1  0  0  0
  3 86  1  0  0  0
  3 87  1  0  0  0
  4  5  1  0  0  0
  4 88  1  0  0  0
  4 89  1  0  0  0
  5  6  1  0  0  0
  5 26  1  0  0  0
  5 90  1  0  0  0
  6 25  1  0  0  0
  6 91  1  0  0  0
  6 92  1  0  0  0
  7  8  2  0  0  0
  7 26  1  0  0  0
  7 29  1  0  0  0
  8  9  1  0  0  0
  8 22  1  0  0  0
  9 10  1  0  0  0
  9 27  2  0  0  0
 10 11  2  0  0  0
 10 15  1  0  0  0
 11 12  1  0  0  0
 11 93  1  0  0  0
 12 13  2  0  0  0
 12 94  1  0  0  0
 13 14  1  0  0  0
 13 31  1  0  0  0
 14 15  2  0  0  0
 14 95  1  0  0  0
 15 96  1  0  0  0
 16 17  2  0  0  0
 16 21  1  0  0  0
 16 31  1  0  0  0
 17 18  1  0  0  0
 17 97  1  0  0  0
 18 19  2  0  0  0
 18 98  1  0  0  0
 19 20  1  0  0  0
 19 24  1  0  0  0
 20 21  2  0  0  0
 20 99  1  0  0  0
 21 23  1  0  0  0
 22 28  1  0  0  0
 22 32  2  0  0  0
 26 27  1  0  0  0
 28100  1  0  0  0
 28101  1  0  0  0
 29102  1  0  0  0
 29103  1  0  0  0
 33 34  1  0  0  0
 33 66  1  0  0  0
 33 70  2  0  0  0
 34 36  1  0  0  0
 34 59  1  0  0  0
 34104  1  0  0  0
 35 44  2  0  0  0
 35 45  1  0  0  0
 35 68  1  0  0  0
 36 56  1  0  0  0
 36105  1  0  0  0
 37 39  1  0  0  0
 37 47  1  0  0  0
 37 66  1  0  0  0
 37106  1  0  0  0
 38 43  2  0  0  0
 38 46  1  0  0  0
 38 47  1  0  0  0
 39 64  1  0  0  0
 39 67  2  0  0  0
 40 52  1  0  0  0
 40 53  2  0  0  0
 40 58  1  0  0  0
 41107  1  0  0  0
 41108  1  0  0  0
 41109  1  0  0  0
 41 48  1  0  0  0
 42 43  1  0  0  0
 42 66  1  0  0  0
 42110  1  0  0  0
 42111  1  0  0  0
 43 44  1  0  0  0
 44112  1  0  0  0
 45 46  2  0  0  0
 45113  1  0  0  0
 46114  1  0  0  0
 47115  1  0  0  0
 47116  1  0  0  0
 48 56  1  0  0  0
 48 65  1  0  0  0
 48117  1  0  0  0
 49 50  1  0  0  0
 49 53  1  0  0  0
 49 64  1  0  0  0
 49118  1  0  0  0
 50 51  1  0  0  0
 50119  1  0  0  0
 50120  1  0  0  0
 51 52  1  0  0  0
 51121  1  0  0  0
 51122  1  0  0  0
 52123  1  0  0  0
 52124  1  0  0  0
 53 54  1  0  0  0
 54 55  2  0  0  0
 54125  1  0  0  0
 55 57  1  0  0  0
 55126  1  0  0  0
 56 69  2  0  0  0
 57 58  2  0  0  0
 57127  1  0  0  0
 58128  1  0  0  0
 59 60  1  0  0  0
 59 61  1  0  0  0
 59 62  1  0  0  0
 60129  1  0  0  0
 60130  1  0  0  0
 60131  1  0  0  0
 61132  1  0  0  0
 61133  1  0  0  0
 61134  1  0  0  0
 62135  1  0  0  0
 62136  1  0  0  0
 62137  1  0  0  0
 63 65  1  0  0  0
 63138  1  0  0  0
 63139  1  0  0  0
 63140  1  0  0  0
 64141  1  0  0  0
 65142  1  0  0  0
 68 81  1  0  0  0
 71 72  2  0  0  0
 71 73  1  0  0  0
 71143  1  0  0  0
 72 74  1  0  0  0
 72144  1  0  0  0
 73 75  2  0  0  0
 73 78  1  0  0  0
 74 76  1  0  0  0
 74 83  2  0  0  0
 75 79  1  0  0  0
 75 83  1  0  0  0
 76145  1  0  0  0
 76146  1  0  0  0
 76147  1  0  0  0
 77148  1  0  0  0
 77149  1  0  0  0
 77150  1  0  0  0
 77 82  1  0  0  0
 78 80  1  0  0  0
 78151  1  0  0  0
 78152  1  0  0  0
 79 82  1  0  0  0
 79153  1  0  0  0
 79154  1  0  0  0
 80 81  1  0  0  0
 80155  1  0  0  0
 80156  1  0  0  0
 81157  1  0  0  0
 81158  1  0  0  0
 82159  1  0  0  0
M  ISO  4   1 100  68 101  81 101  82 100
M  END
> <chiral flag>
0

> <version>
0

> <s_m_source_file>
/data/baiqing/PycharmProjects/Reinvent-master-3.2/result/LINK_invent/BTK/process_docking_weight1_custom_sum_contain_oxygen_bond_distance_aromatic_linkinvent_7_9_3/rearranged_h_0072.sdf

> <i_m_source_file_index>
24

> <r_mmod_Potential_Energy-OPLS-2005>
457.238739013672

> <r_mmod_Stretch_Energy-OPLS-2005>
294.278839111328

> <r_mmod_Bend_Energy-OPLS-2005>
350.699462890625

> <r_mmod_Torsional_Energy-OPLS-2005>
191.320907592773

> <r_mmod_Improper_Torsional_Energy-OPLS-2005>
2.46090459823608

> <r_mmod_Van_der_Waal_Energy-OPLS-2005>
126.11149597168

> <r_mmod_Electrostatic_Energy-OPLS-2005>
-509.725463867188

> <r_mmod_Solvation_Energy-OPLS-2005>
-192.984252929688

> <b_mmod_Minimization_Converged-OPLS-2005>
0

> <r_mmod_RMS_Derivative-OPLS-2005>
3.56276035308838

$$$$
25
                    3D
 Structure written by MMmdl.
189197  0  0  1  0            999 V2000
  -30.7317  -14.4169   20.6794 C   0  0  0  0  0  0
  -30.4252  -12.3219   19.3918 C   0  0  0  0  0  0
  -29.4832  -12.5363   18.1916 C   0  0  0  0  0  0
  -28.0086  -12.3831   18.6128 C   0  0  0  0  0  0
  -27.6649  -13.2028   19.8840 C   0  0  2  0  0  0
  -28.7082  -12.9346   20.9905 C   0  0  0  0  0  0
  -25.2579  -13.8145   20.5648 C   0  0  0  0  0  0
  -24.1840  -13.0429   20.9184 C   0  0  0  0  0  0
  -24.6394  -11.6897   20.8745 C   0  0  0  0  0  0
  -23.9053  -10.4292   21.0409 C   0  0  0  0  0  0
  -24.3609   -9.4206   21.9187 C   0  0  0  0  0  0
  -23.6289   -8.2237   22.0755 C   0  0  0  0  0  0
  -22.4272   -8.0276   21.3545 C   0  0  0  0  0  0
  -21.9905   -9.0250   20.4644 C   0  0  0  0  0  0
  -22.7228  -10.2135   20.3055 C   0  0  0  0  0  0
  -21.6852   -6.0731   22.5278 C   0  0  0  0  0  0
  -21.4009   -6.5635   23.8211 C   0  0  0  0  0  0
  -21.3660   -5.6791   24.9175 C   0  0  0  0  0  0
  -21.6048   -4.3051   24.7225 C   0  0  0  0  0  0
  -21.8817   -3.8142   23.4342 C   0  0  0  0  0  0
  -21.9193   -4.6959   22.3401 C   0  0  0  0  0  0
  -22.7868  -13.5233   21.1847 C   0  0  0  0  0  0
  -22.1666   -4.2143   21.0977 F   0  0  0  0  0  0
  -21.5639   -3.4537   25.7736 F   0  0  0  0  0  0
  -30.0405  -13.2643   20.4540 N   0  0  0  0  0  0
  -26.3037  -12.9316   20.3413 N   0  0  0  0  0  0
  -25.9321  -11.6476   20.5791 N   0  0  0  0  0  0
  -22.0508  -12.8227   22.0404 N   0  0  0  0  0  0
  -25.4240  -15.1843   20.3924 N   0  0  0  0  0  0
  -31.7720  -14.7011   20.0754 O   0  0  0  0  0  0
  -21.6640   -6.8869   21.4238 O   0  0  0  0  0  0
  -22.3546  -14.5540   20.6698 O   0  0  0  0  0  0
  -24.6135  -31.8676   23.2095 C   0  0  0  0  0  0
  -25.9036  -32.4821   23.8385 C   0  0  1  0  0  0
  -27.2398  -27.4362   20.0924 C   0  0  0  0  0  0
  -25.5889  -33.8618   24.2313 N   0  0  0  0  0  0
  -23.4005  -30.4900   21.5517 C   0  0  2  0  0  0
  -24.8458  -28.9506   20.1174 C   0  0  0  0  0  0
  -22.7398  -29.4655   22.5014 C   0  0  0  0  0  0
  -18.0262  -28.1393   22.8485 C   0  0  0  0  0  0
  -24.1486  -36.7313   23.2638 C   0  0  0  0  0  0
  -25.9275  -30.8324   21.3600 C   0  0  0  0  0  0
  -26.0042  -29.4653   20.7104 C   0  0  0  0  0  0
  -27.2002  -28.7150   20.6943 C   0  0  0  0  0  0
  -26.0600  -26.9294   19.4996 C   0  0  0  0  0  0
  -24.8685  -27.6817   19.5109 C   0  0  0  0  0  0
  -23.6073  -29.8174   20.1679 C   0  0  0  0  0  0
  -25.4111  -36.3106   24.0333 C   0  0  1  0  0  0
  -20.5850  -28.3664   23.1330 C   0  0  2  0  0  0
  -20.6757  -26.9402   22.5422 C   0  0  0  0  0  0
  -19.5744  -26.6392   21.5204 C   0  0  0  0  0  0
  -18.1918  -26.7940   22.1608 C   0  0  0  0  0  0
  -19.1512  -28.8843   23.2906 C   0  0  0  0  0  0
  -18.9446  -30.1446   23.8914 C   0  0  0  0  0  0
  -17.6453  -30.6593   24.0565 C   0  0  0  0  0  0
  -25.9036  -34.9473   23.5121 C   0  0  0  0  0  0
  -16.5340  -29.9096   23.6333 C   0  0  0  0  0  0
  -16.7251  -28.6515   23.0348 C   0  0  0  0  0  0
  -26.4467  -31.6597   25.0712 C   0  0  0  0  0  0
  -25.3730  -31.3667   26.1450 C   0  0  0  0  0  0
  -27.0317  -30.3057   24.6065 C   0  0  0  0  0  0
  -27.6041  -32.4318   25.7480 C   0  0  0  0  0  0
  -27.5588  -37.1807   24.8467 C   0  0  0  0  0  0
  -21.4127  -29.3028   22.3743 N   0  0  0  0  0  0
  -26.4296  -37.3794   23.9414 N   0  0  0  0  0  0
  -24.6660  -31.0777   22.0992 N   0  0  0  0  0  0
  -23.4174  -28.8208   23.3060 O   0  0  0  0  0  0
  -28.4368  -26.7489   20.1088 O   0  0  0  0  0  0
  -26.5602  -34.8927   22.4687 O   0  0  0  0  0  0
  -23.5327  -32.1428   23.7490 O   0  0  0  0  0  0
  -31.3546  -19.3680   22.0218 C   0  0  0  0  0  0
  -30.7692  -19.7455   20.8203 C   0  0  0  0  0  0
  -30.1040  -17.6970   21.3535 C   0  0  0  0  0  0
  -30.1858  -20.4053   24.6189 C   0  0  0  0  0  0
  -34.2396  -20.2499   21.2995 C   0  0  0  0  0  0
  -28.1705  -16.4016   22.3455 C   0  0  0  0  0  0
  -27.6233  -18.4326   19.4591 C   0  0  0  0  0  0
  -29.7033  -17.7047   18.1194 C   0  0  0  0  0  0
  -33.0127  -19.0712   23.9148 C   0  0  0  0  0  0
  -31.0162  -15.1707   22.9377 C   0  0  0  0  0  0
  -30.9289  -21.0228   20.0140 C   0  0  0  0  0  0
  -31.4301  -21.0251   23.9555 C   0  0  0  0  0  0
  -33.3608  -20.9640   22.3469 C   0  0  0  0  0  0
  -30.0080  -22.2094   20.3969 C   0  0  0  0  0  0
  -30.2807  -23.4535   19.5131 C   0  0  0  0  0  0
  -29.8800  -24.8324   20.0948 C   0  0  0  0  0  0
  -28.4766  -25.3663   19.7355 C   0  0  0  0  0  0
  -29.3767  -16.3575   21.3849 C   0  0  2  0  0  0
  -29.1245  -18.6413   19.1932 C   0  0  0  0  0  0
  -32.2610  -20.0975   23.0247 C   0  0  0  0  0  0
  -30.8923  -18.0958   22.3397 N   0  0  0  0  0  0
  -29.9504  -18.6679   20.4130 N   0  0  0  0  0  0
  -30.2602  -15.1944   21.6797 N   0  0  0  0  0  0
  -31.4645  -12.4452   19.0821 H   0  0  0  0  0  0
  -30.3475  -11.2980   19.7602 H   0  0  0  0  0  0
  -29.7193  -11.8281   17.3963 H   0  0  0  0  0  0
  -29.6420  -13.5309   17.7718 H   0  0  0  0  0  0
  -27.8234  -11.3236   18.7948 H   0  0  0  0  0  0
  -27.3504  -12.6681   17.7908 H   0  0  0  0  0  0
  -27.7199  -14.2569   19.6138 H   0  0  0  0  0  0
  -28.6877  -11.8817   21.2755 H   0  0  0  0  0  0
  -28.4635  -13.4715   21.9043 H   0  0  0  0  0  0
  -25.2751   -9.5695   22.4764 H   0  0  0  0  0  0
  -24.0004   -7.4633   22.7472 H   0  0  0  0  0  0
  -21.0835   -8.8756   19.8947 H   0  0  0  0  0  0
  -22.3676  -10.9671   19.6166 H   0  0  0  0  0  0
  -21.1991   -7.6141   23.9708 H   0  0  0  0  0  0
  -21.1493   -6.0522   25.9081 H   0  0  0  0  0  0
  -22.0594   -2.7600   23.2843 H   0  0  0  0  0  0
  -22.4125  -11.9891   22.4797 H   0  0  0  0  0  0
  -21.1121  -13.1255   22.2613 H   0  0  0  0  0  0
  -24.6456  -15.8287   20.4718 H   0  0  0  0  0  0
  -26.2607  -15.6154   20.0264 H   0  0  0  0  0  0
  -26.7104  -32.5544   23.1144 H   0  0  0  0  0  0
  -25.0023  -33.9773   25.0447 H   0  0  0  0  0  0
  -22.6876  -31.3061   21.4131 H   0  0  0  0  0  0
  -23.3750  -35.9643   23.3294 H   0  0  0  0  0  0
  -24.3566  -36.8940   22.2049 H   0  0  0  0  0  0
  -23.7232  -37.6511   23.6667 H   0  0  0  0  0  0
  -26.0343  -31.5953   20.5878 H   0  0  0  0  0  0
  -26.8176  -30.8895   21.9752 H   0  0  0  0  0  0
  -28.0958  -29.1118   21.1520 H   0  0  0  0  0  0
  -26.0431  -25.9592   19.0252 H   0  0  0  0  0  0
  -23.9766  -27.2766   19.0515 H   0  0  0  0  0  0
  -23.7130  -30.5899   19.4050 H   0  0  0  0  0  0
  -22.7307  -29.2360   19.8774 H   0  0  0  0  0  0
  -25.1285  -36.1959   25.0824 H   0  0  0  0  0  0
  -20.9928  -28.3231   24.1457 H   0  0  0  0  0  0
  -20.5647  -26.2268   23.3606 H   0  0  0  0  0  0
  -21.6641  -26.7461   22.1228 H   0  0  0  0  0  0
  -19.6911  -25.6302   21.1234 H   0  0  0  0  0  0
  -19.6699  -27.3198   20.6731 H   0  0  0  0  0  0
  -17.4199  -26.6685   21.4002 H   0  0  0  0  0  0
  -18.0309  -26.0078   22.8994 H   0  0  0  0  0  0
  -19.7925  -30.7249   24.2297 H   0  0  0  0  0  0
  -17.5020  -31.6274   24.5165 H   0  0  0  0  0  0
  -15.5345  -30.3009   23.7661 H   0  0  0  0  0  0
  -15.8648  -28.0844   22.7061 H   0  0  0  0  0  0
  -24.5993  -30.6904   25.7793 H   0  0  0  0  0  0
  -24.8801  -32.2786   26.4826 H   0  0  0  0  0  0
  -25.8103  -30.8932   27.0247 H   0  0  0  0  0  0
  -26.2854  -29.6801   24.1153 H   0  0  0  0  0  0
  -27.4147  -29.7302   25.4499 H   0  0  0  0  0  0
  -27.8651  -30.4404   23.9168 H   0  0  0  0  0  0
  -27.2678  -33.3637   26.2040 H   0  0  0  0  0  0
  -28.3865  -32.6841   25.0310 H   0  0  0  0  0  0
  -28.0695  -31.8450   26.5409 H   0  0  0  0  0  0
  -28.2595  -38.0117   24.7548 H   0  0  0  0  0  0
  -28.1097  -36.2651   24.6262 H   0  0  0  0  0  0
  -27.2310  -37.1415   25.8870 H   0  0  0  0  0  0
  -20.9284  -29.8731   21.6950 H   0  0  0  0  0  0
  -26.0184  -38.2867   24.1432 H   0  0  0  0  0  0
  -29.6914  -21.1342   25.2604 H   0  0  0  0  0  0
  -30.4399  -19.5457   25.2379 H   0  0  0  0  0  0
  -29.4569  -20.0800   23.8766 H   0  0  0  0  0  0
  -34.9286  -20.9549   20.8344 H   0  0  0  0  0  0
  -33.6503  -19.7976   20.5026 H   0  0  0  0  0  0
  -34.8434  -19.4615   21.7476 H   0  0  0  0  0  0
  -27.4670  -17.1808   22.0549 H   0  0  0  0  0  0
  -28.4779  -16.6245   23.3666 H   0  0  0  0  0  0
  -27.6190  -15.4640   22.3619 H   0  0  0  0  0  0
  -27.0411  -18.7085   18.5794 H   0  0  0  0  0  0
  -27.2787  -19.0631   20.2798 H   0  0  0  0  0  0
  -27.3612  -17.4037   19.6879 H   0  0  0  0  0  0
  -29.1703  -17.8241   17.1763 H   0  0  0  0  0  0
  -29.6439  -16.6530   18.3919 H   0  0  0  0  0  0
  -30.7520  -17.9353   17.9290 H   0  0  0  0  0  0
  -32.3307  -18.4755   24.5211 H   0  0  0  0  0  0
  -33.6979  -19.5612   24.6069 H   0  0  0  0  0  0
  -33.5930  -18.3667   23.3199 H   0  0  0  0  0  0
  -30.5380  -15.7570   23.7207 H   0  0  0  0  0  0
  -32.0245  -15.5634   22.7950 H   0  0  0  0  0  0
  -31.1038  -14.1490   23.3103 H   0  0  0  0  0  0
  -30.8321  -20.8205   18.9493 H   0  0  0  0  0  0
  -31.9594  -21.3558   20.0734 H   0  0  0  0  0  0
  -32.0767  -21.4342   24.7325 H   0  0  0  0  0  0
  -31.0907  -21.8878   23.3858 H   0  0  0  0  0  0
  -32.9087  -21.8434   21.8931 H   0  0  0  0  0  0
  -34.0167  -21.3770   23.1144 H   0  0  0  0  0  0
  -30.1772  -22.4630   21.4413 H   0  0  0  0  0  0
  -28.9596  -21.9193   20.3200 H   0  0  0  0  0  0
  -29.8463  -23.3166   18.5220 H   0  0  0  0  0  0
  -31.3578  -23.5015   19.3430 H   0  0  0  0  0  0
  -30.5967  -25.5571   19.7067 H   0  0  0  0  0  0
  -30.0210  -24.8465   21.1758 H   0  0  0  0  0  0
  -27.7133  -24.7905   20.2616 H   0  0  0  0  0  0
  -28.2984  -25.2730   18.6627 H   0  0  0  0  0  0
  -28.9675  -16.1757   20.3966 H   0  0  0  0  0  0
  -29.1486  -19.6348   18.7560 H   0  0  0  0  0  0
  1 25  1  0  0  0
  1 30  2  0  0  0
  1 93  1  0  0  0
  2  3  1  0  0  0
  2 25  1  0  0  0
  2 94  1  0  0  0
  2 95  1  0  0  0
  3  4  1  0  0  0
  3 96  1  0  0  0
  3 97  1  0  0  0
  4  5  1  0  0  0
  4 98  1  0  0  0
  4 99  1  0  0  0
  5  6  1  0  0  0
  5 26  1  0  0  0
  5100  1  0  0  0
  6 25  1  0  0  0
  6101  1  0  0  0
  6102  1  0  0  0
  7  8  2  0  0  0
  7 26  1  0  0  0
  7 29  1  0  0  0
  8  9  1  0  0  0
  8 22  1  0  0  0
  9 10  1  0  0  0
  9 27  2  0  0  0
 10 11  2  0  0  0
 10 15  1  0  0  0
 11 12  1  0  0  0
 11103  1  0  0  0
 12 13  2  0  0  0
 12104  1  0  0  0
 13 14  1  0  0  0
 13 31  1  0  0  0
 14 15  2  0  0  0
 14105  1  0  0  0
 15106  1  0  0  0
 16 17  2  0  0  0
 16 21  1  0  0  0
 16 31  1  0  0  0
 17 18  1  0  0  0
 17107  1  0  0  0
 18 19  2  0  0  0
 18108  1  0  0  0
 19 20  1  0  0  0
 19 24  1  0  0  0
 20 21  2  0  0  0
 20109  1  0  0  0
 21 23  1  0  0  0
 22 28  1  0  0  0
 22 32  2  0  0  0
 26 27  1  0  0  0
 28110  1  0  0  0
 28111  1  0  0  0
 29112  1  0  0  0
 29113  1  0  0  0
 33 34  1  0  0  0
 33 66  1  0  0  0
 33 70  2  0  0  0
 34 36  1  0  0  0
 34 59  1  0  0  0
 34114  1  0  0  0
 35 44  2  0  0  0
 35 45  1  0  0  0
 35 68  1  0  0  0
 36 56  1  0  0  0
 36115  1  0  0  0
 37 39  1  0  0  0
 37 47  1  0  0  0
 37 66  1  0  0  0
 37116  1  0  0  0
 38 43  2  0  0  0
 38 46  1  0  0  0
 38 47  1  0  0  0
 39 64  1  0  0  0
 39 67  2  0  0  0
 40 52  1  0  0  0
 40 53  2  0  0  0
 40 58  1  0  0  0
 41117  1  0  0  0
 41118  1  0  0  0
 41119  1  0  0  0
 41 48  1  0  0  0
 42 43  1  0  0  0
 42 66  1  0  0  0
 42120  1  0  0  0
 42121  1  0  0  0
 43 44  1  0  0  0
 44122  1  0  0  0
 45 46  2  0  0  0
 45123  1  0  0  0
 46124  1  0  0  0
 47125  1  0  0  0
 47126  1  0  0  0
 48 56  1  0  0  0
 48 65  1  0  0  0
 48127  1  0  0  0
 49 50  1  0  0  0
 49 53  1  0  0  0
 49 64  1  0  0  0
 49128  1  0  0  0
 50 51  1  0  0  0
 50129  1  0  0  0
 50130  1  0  0  0
 51 52  1  0  0  0
 51131  1  0  0  0
 51132  1  0  0  0
 52133  1  0  0  0
 52134  1  0  0  0
 53 54  1  0  0  0
 54 55  2  0  0  0
 54135  1  0  0  0
 55 57  1  0  0  0
 55136  1  0  0  0
 56 69  2  0  0  0
 57 58  2  0  0  0
 57137  1  0  0  0
 58138  1  0  0  0
 59 60  1  0  0  0
 59 61  1  0  0  0
 59 62  1  0  0  0
 60139  1  0  0  0
 60140  1  0  0  0
 60141  1  0  0  0
 61142  1  0  0  0
 61143  1  0  0  0
 61144  1  0  0  0
 62145  1  0  0  0
 62146  1  0  0  0
 62147  1  0  0  0
 63 65  1  0  0  0
 63148  1  0  0  0
 63149  1  0  0  0
 63150  1  0  0  0
 64151  1  0  0  0
 65152  1  0  0  0
 68 87  1  0  0  0
 71 72  2  0  0  0
 71 90  1  0  0  0
 71 91  1  0  0  0
 72 81  1  0  0  0
 72 92  1  0  0  0
 73 88  1  0  0  0
 73 91  2  0  0  0
 73 92  1  0  0  0
 74 82  1  0  0  0
 74153  1  0  0  0
 74154  1  0  0  0
 74155  1  0  0  0
 75 83  1  0  0  0
 75156  1  0  0  0
 75157  1  0  0  0
 75158  1  0  0  0
 76159  1  0  0  0
 76160  1  0  0  0
 76161  1  0  0  0
 76 88  1  0  0  0
 77162  1  0  0  0
 77163  1  0  0  0
 77164  1  0  0  0
 77 89  1  0  0  0
 78 89  1  0  0  0
 78165  1  0  0  0
 78166  1  0  0  0
 78167  1  0  0  0
 79168  1  0  0  0
 79169  1  0  0  0
 79170  1  0  0  0
 79 90  1  0  0  0
 80 93  1  0  0  0
 80171  1  0  0  0
 80172  1  0  0  0
 80173  1  0  0  0
 81 84  1  0  0  0
 81174  1  0  0  0
 81175  1  0  0  0
 82 90  1  0  0  0
 82176  1  0  0  0
 82177  1  0  0  0
 83 90  1  0  0  0
 83178  1  0  0  0
 83179  1  0  0  0
 84 85  1  0  0  0
 84180  1  0  0  0
 84181  1  0  0  0
 85 86  1  0  0  0
 85182  1  0  0  0
 85183  1  0  0  0
 86 87  1  0  0  0
 86184  1  0  0  0
 86185  1  0  0  0
 87186  1  0  0  0
 87187  1  0  0  0
 88 93  1  0  0  0
 88188  1  0  0  0
 89 92  1  0  0  0
 89189  1  0  0  0
M  ISO  4   1 100  68 101  87 101  93 100
M  END
> <chiral flag>
0

> <version>
0

> <s_m_source_file>
/data/baiqing/PycharmProjects/Reinvent-master-3.2/result/LINK_invent/BTK/process_docking_weight1_custom_sum_contain_oxygen_bond_distance_aromatic_linkinvent_7_9_3/rearranged_h_0072.sdf

> <i_m_source_file_index>
25

> <r_mmod_Potential_Energy-OPLS-2005>
108.621803283691

> <r_mmod_Stretch_Energy-OPLS-2005>
48.4509086608887

> <r_mmod_Bend_Energy-OPLS-2005>
138.220611572266

> <r_mmod_Torsional_Energy-OPLS-2005>
325.238220214844

> <r_mmod_Improper_Torsional_Energy-OPLS-2005>
4.16563940048218

> <r_mmod_Van_der_Waal_Energy-OPLS-2005>
122.745216369629

> <r_mmod_Electrostatic_Energy-OPLS-2005>
-357.470611572266

> <r_mmod_Solvation_Energy-OPLS-2005>
-182.264892578125

> <b_mmod_Minimization_Converged-OPLS-2005>
0

> <r_mmod_RMS_Derivative-OPLS-2005>
1.30527627468109

$$$$
26
                    3D
 Structure written by MMmdl.
162170  0  0  1  0            999 V2000
  -30.5220  -14.9267   20.4320 C   0  0  0  0  0  0
  -30.4459  -12.5637   19.5038 C   0  0  0  0  0  0
  -29.5264  -12.5254   18.2589 C   0  0  0  0  0  0
  -28.0583  -12.3022   18.6688 C   0  0  0  0  0  0
  -27.6310  -13.2279   19.8345 C   0  0  2  0  0  0
  -28.6700  -13.2452   20.9756 C   0  0  0  0  0  0
  -25.2506  -13.8165   20.5694 C   0  0  0  0  0  0
  -24.1784  -13.0419   20.9196 C   0  0  0  0  0  0
  -24.6368  -11.6896   20.8735 C   0  0  0  0  0  0
  -23.9041  -10.4283   21.0413 C   0  0  0  0  0  0
  -24.3603   -9.4205   21.9191 C   0  0  0  0  0  0
  -23.6287   -8.2237   22.0754 C   0  0  0  0  0  0
  -22.4271   -8.0271   21.3542 C   0  0  0  0  0  0
  -21.9902   -9.0240   20.4641 C   0  0  0  0  0  0
  -22.7218  -10.2125   20.3057 C   0  0  0  0  0  0
  -21.6851   -6.0726   22.5279 C   0  0  0  0  0  0
  -21.4012   -6.5635   23.8209 C   0  0  0  0  0  0
  -21.3660   -5.6792   24.9175 C   0  0  0  0  0  0
  -21.6048   -4.3055   24.7229 C   0  0  0  0  0  0
  -21.8821   -3.8138   23.4354 C   0  0  0  0  0  0
  -21.9198   -4.6953   22.3406 C   0  0  0  0  0  0
  -22.7818  -13.5223   21.1871 C   0  0  0  0  0  0
  -22.1668   -4.2138   21.0982 F   0  0  0  0  0  0
  -21.5629   -3.4541   25.7740 F   0  0  0  0  0  0
  -29.9596  -13.6498   20.4019 N   0  0  0  0  0  0
  -26.2883  -12.9342   20.3200 N   0  0  0  0  0  0
  -25.9290  -11.6497   20.5706 N   0  0  0  0  0  0
  -22.0469  -12.8207   22.0424 N   0  0  0  0  0  0
  -25.4265  -15.1883   20.4177 N   0  0  0  0  0  0
  -31.7153  -14.9915   20.1083 O   0  0  0  0  0  0
  -21.6639   -6.8869   21.4238 O   0  0  0  0  0  0
  -22.3505  -14.5532   20.6725 O   0  0  0  0  0  0
  -24.6418  -31.8456   23.1894 C   0  0  0  0  0  0
  -25.9202  -32.4694   23.8277 C   0  0  1  0  0  0
  -27.2141  -27.1520   20.1511 C   0  0  0  0  0  0
  -25.5966  -33.8502   24.2204 N   0  0  0  0  0  0
  -23.4441  -30.4660   21.5356 C   0  0  2  0  0  0
  -24.8928  -28.8950   20.1128 C   0  0  0  0  0  0
  -22.7558  -29.4555   22.4868 C   0  0  0  0  0  0
  -18.0307  -28.1393   22.8478 C   0  0  0  0  0  0
  -24.1498  -36.7246   23.2642 C   0  0  0  0  0  0
  -25.9990  -30.7244   21.3869 C   0  0  0  0  0  0
  -26.0702  -29.3367   20.7298 C   0  0  0  0  0  0
  -27.2335  -28.4813   20.7310 C   0  0  0  0  0  0
  -26.0139  -26.8113   19.4897 C   0  0  0  0  0  0
  -24.8768  -27.6454   19.4769 C   0  0  0  0  0  0
  -23.6694  -29.7956   20.1547 C   0  0  0  0  0  0
  -25.4126  -36.3024   24.0318 C   0  0  1  0  0  0
  -20.5918  -28.3717   23.1240 C   0  0  2  0  0  0
  -20.6791  -26.9421   22.5404 C   0  0  0  0  0  0
  -19.5764  -26.6380   21.5213 C   0  0  0  0  0  0
  -18.1944  -26.7935   22.1624 C   0  0  0  0  0  0
  -19.1563  -28.8875   23.2852 C   0  0  0  0  0  0
  -18.9477  -30.1473   23.8872 C   0  0  0  0  0  0
  -17.6473  -30.6590   24.0558 C   0  0  0  0  0  0
  -25.9075  -34.9404   23.5065 C   0  0  0  0  0  0
  -16.5363  -29.9078   23.6337 C   0  0  0  0  0  0
  -16.7291  -28.6499   23.0354 C   0  0  0  0  0  0
  -26.4535  -31.6542   25.0702 C   0  0  0  0  0  0
  -25.3729  -31.3727   26.1401 C   0  0  0  0  0  0
  -27.0394  -30.2937   24.6263 C   0  0  0  0  0  0
  -27.6064  -32.4306   25.7495 C   0  0  0  0  0  0
  -27.5579  -37.1779   24.8466 C   0  0  0  0  0  0
  -21.4255  -29.3044   22.3615 N   0  0  0  0  0  0
  -26.4288  -37.3736   23.9412 N   0  0  0  0  0  0
  -24.7144  -31.0330   22.0924 N   0  0  0  0  0  0
  -23.4209  -28.8098   23.3007 O   0  0  0  0  0  0
  -28.2791  -26.1863   20.1850 O   0  0  0  0  0  0
  -26.5647  -34.8896   22.4636 O   0  0  0  0  0  0
  -23.5543  -32.1335   23.7121 O   0  0  0  0  0  0
  -27.7419  -21.5480   21.4306 C   0  0  0  0  0  0
  -29.5573  -20.6300   20.1689 C   0  0  0  0  0  0
  -28.7887  -21.8411   20.5354 C   0  0  0  0  0  0
  -27.5339  -20.2322   21.9088 C   0  0  0  0  0  0
  -29.2873  -19.2651   20.6729 C   0  0  0  0  0  0
  -26.4189  -19.9586   22.8969 C   0  0  0  0  0  0
  -29.3194  -23.4164   18.5818 C   0  0  0  0  0  0
  -30.3877  -23.7995   20.8078 C   0  0  0  0  0  0
  -31.4842  -18.1292   21.3018 C   0  0  0  0  0  0
  -28.0111  -24.6683   20.4006 C   0  0  0  0  0  0
  -29.0817  -23.4064   20.1011 C   0  0  0  0  0  0
  -30.2124  -17.9111   20.4666 C   0  0  1  0  0  0
  -29.6717  -16.3319   20.7295 C   0  0  0  0  0  0
  -28.2790  -19.1511   21.5671 N   0  0  0  0  0  0
  -30.6246  -17.9526   19.1959 F   0  0  0  0  0  0
  -28.5424  -16.2530   20.0270 F   0  0  0  0  0  0
  -29.3263  -16.2765   22.0177 F   0  0  0  0  0  0
  -31.4818  -12.7155   19.1966 H   0  0  0  0  0  0
  -30.4301  -11.6044   20.0237 H   0  0  0  0  0  0
  -29.8470  -11.7402   17.5733 H   0  0  0  0  0  0
  -29.6156  -13.4644   17.7101 H   0  0  0  0  0  0
  -27.9529  -11.2588   18.9689 H   0  0  0  0  0  0
  -27.3979  -12.4407   17.8120 H   0  0  0  0  0  0
  -27.5887  -14.2202   19.3936 H   0  0  0  0  0  0
  -28.7458  -12.2639   21.4467 H   0  0  0  0  0  0
  -28.3621  -13.9369   21.7606 H   0  0  0  0  0  0
  -25.2756   -9.5685   22.4751 H   0  0  0  0  0  0
  -23.9999   -7.4633   22.7473 H   0  0  0  0  0  0
  -21.0838   -8.8752   19.8951 H   0  0  0  0  0  0
  -22.3677  -10.9659   19.6159 H   0  0  0  0  0  0
  -21.2002   -7.6144   23.9705 H   0  0  0  0  0  0
  -21.1481   -6.0525   25.9075 H   0  0  0  0  0  0
  -22.0604   -2.7599   23.2856 H   0  0  0  0  0  0
  -22.4100  -11.9876   22.4803 H   0  0  0  0  0  0
  -21.1087  -13.1213   22.2635 H   0  0  0  0  0  0
  -24.6722  -15.8529   20.5519 H   0  0  0  0  0  0
  -26.2959  -15.6270   20.1408 H   0  0  0  0  0  0
  -26.7261  -32.5309   23.1002 H   0  0  0  0  0  0
  -25.0126  -33.9622   25.0361 H   0  0  0  0  0  0
  -22.7455  -31.2910   21.3817 H   0  0  0  0  0  0
  -23.3767  -35.9570   23.3278 H   0  0  0  0  0  0
  -24.3592  -36.8902   22.2062 H   0  0  0  0  0  0
  -23.7238  -37.6431   23.6692 H   0  0  0  0  0  0
  -26.1538  -31.4790   20.6144 H   0  0  0  0  0  0
  -26.8698  -30.7743   22.0284 H   0  0  0  0  0  0
  -28.1323  -28.8162   21.2299 H   0  0  0  0  0  0
  -25.9265  -25.8691   18.9719 H   0  0  0  0  0  0
  -23.9810  -27.3062   18.9744 H   0  0  0  0  0  0
  -23.8032  -30.5699   19.3980 H   0  0  0  0  0  0
  -22.7847  -29.2357   19.8453 H   0  0  0  0  0  0
  -25.1310  -36.1856   25.0807 H   0  0  0  0  0  0
  -21.0014  -28.3303   24.1360 H   0  0  0  0  0  0
  -20.5689  -26.2325   23.3620 H   0  0  0  0  0  0
  -21.6654  -26.7428   22.1197 H   0  0  0  0  0  0
  -19.6921  -25.6284   21.1256 H   0  0  0  0  0  0
  -19.6699  -27.3177   20.6732 H   0  0  0  0  0  0
  -17.4212  -26.6681   21.4026 H   0  0  0  0  0  0
  -18.0339  -26.0083   22.9026 H   0  0  0  0  0  0
  -19.7950  -30.7303   24.2222 H   0  0  0  0  0  0
  -17.5020  -31.6268   24.5161 H   0  0  0  0  0  0
  -15.5359  -30.2967   23.7674 H   0  0  0  0  0  0
  -15.8695  -28.0810   22.7074 H   0  0  0  0  0  0
  -24.5926  -30.7053   25.7726 H   0  0  0  0  0  0
  -24.8900  -32.2904   26.4766 H   0  0  0  0  0  0
  -25.8025  -30.8948   27.0215 H   0  0  0  0  0  0
  -26.3001  -29.6662   24.1275 H   0  0  0  0  0  0
  -27.4020  -29.7232   25.4823 H   0  0  0  0  0  0
  -27.8906  -30.4171   23.9565 H   0  0  0  0  0  0
  -27.2656  -33.3629   26.2013 H   0  0  0  0  0  0
  -28.3913  -32.6829   25.0350 H   0  0  0  0  0  0
  -28.0689  -31.8468   26.5466 H   0  0  0  0  0  0
  -28.2571  -38.0099   24.7523 H   0  0  0  0  0  0
  -28.1099  -36.2624   24.6278 H   0  0  0  0  0  0
  -27.2298  -37.1402   25.8869 H   0  0  0  0  0  0
  -20.9461  -29.8764   21.6804 H   0  0  0  0  0  0
  -26.0154  -38.2804   24.1418 H   0  0  0  0  0  0
  -27.1031  -22.3444   21.7856 H   0  0  0  0  0  0
  -30.4089  -20.7494   19.5136 H   0  0  0  0  0  0
  -26.1785  -20.8502   23.4759 H   0  0  0  0  0  0
  -26.7014  -19.1748   23.6008 H   0  0  0  0  0  0
  -25.5190  -19.6391   22.3723 H   0  0  0  0  0  0
  -30.1359  -22.7548   18.2923 H   0  0  0  0  0  0
  -29.5681  -24.4166   18.2255 H   0  0  0  0  0  0
  -28.4263  -23.0897   18.0480 H   0  0  0  0  0  0
  -31.1978  -23.1114   20.5663 H   0  0  0  0  0  0
  -30.2569  -23.7875   21.8902 H   0  0  0  0  0  0
  -30.7089  -24.8017   20.5246 H   0  0  0  0  0  0
  -31.2439  -18.1740   22.3639 H   0  0  0  0  0  0
  -31.9727  -19.0659   21.0331 H   0  0  0  0  0  0
  -32.2086  -17.3301   21.1582 H   0  0  0  0  0  0
  -27.7430  -24.5999   21.4550 H   0  0  0  0  0  0
  -27.0993  -24.3937   19.8761 H   0  0  0  0  0  0
  1 25  1  0  0  0
  1 30  2  0  0  0
  1 83  1  0  0  0
  2  3  1  0  0  0
  2 25  1  0  0  0
  2 88  1  0  0  0
  2 89  1  0  0  0
  3  4  1  0  0  0
  3 90  1  0  0  0
  3 91  1  0  0  0
  4  5  1  0  0  0
  4 92  1  0  0  0
  4 93  1  0  0  0
  5  6  1  0  0  0
  5 26  1  0  0  0
  5 94  1  0  0  0
  6 25  1  0  0  0
  6 95  1  0  0  0
  6 96  1  0  0  0
  7  8  2  0  0  0
  7 26  1  0  0  0
  7 29  1  0  0  0
  8  9  1  0  0  0
  8 22  1  0  0  0
  9 10  1  0  0  0
  9 27  2  0  0  0
 10 11  2  0  0  0
 10 15  1  0  0  0
 11 12  1  0  0  0
 11 97  1  0  0  0
 12 13  2  0  0  0
 12 98  1  0  0  0
 13 14  1  0  0  0
 13 31  1  0  0  0
 14 15  2  0  0  0
 14 99  1  0  0  0
 15100  1  0  0  0
 16 17  2  0  0  0
 16 21  1  0  0  0
 16 31  1  0  0  0
 17 18  1  0  0  0
 17101  1  0  0  0
 18 19  2  0  0  0
 18102  1  0  0  0
 19 20  1  0  0  0
 19 24  1  0  0  0
 20 21  2  0  0  0
 20103  1  0  0  0
 21 23  1  0  0  0
 22 28  1  0  0  0
 22 32  2  0  0  0
 26 27  1  0  0  0
 28104  1  0  0  0
 28105  1  0  0  0
 29106  1  0  0  0
 29107  1  0  0  0
 33 34  1  0  0  0
 33 66  1  0  0  0
 33 70  2  0  0  0
 34 36  1  0  0  0
 34 59  1  0  0  0
 34108  1  0  0  0
 35 44  2  0  0  0
 35 45  1  0  0  0
 35 68  1  0  0  0
 36 56  1  0  0  0
 36109  1  0  0  0
 37 39  1  0  0  0
 37 47  1  0  0  0
 37 66  1  0  0  0
 37110  1  0  0  0
 38 43  2  0  0  0
 38 46  1  0  0  0
 38 47  1  0  0  0
 39 64  1  0  0  0
 39 67  2  0  0  0
 40 52  1  0  0  0
 40 53  2  0  0  0
 40 58  1  0  0  0
 41111  1  0  0  0
 41112  1  0  0  0
 41113  1  0  0  0
 41 48  1  0  0  0
 42 43  1  0  0  0
 42 66  1  0  0  0
 42114  1  0  0  0
 42115  1  0  0  0
 43 44  1  0  0  0
 44116  1  0  0  0
 45 46  2  0  0  0
 45117  1  0  0  0
 46118  1  0  0  0
 47119  1  0  0  0
 47120  1  0  0  0
 48 56  1  0  0  0
 48 65  1  0  0  0
 48121  1  0  0  0
 49 50  1  0  0  0
 49 53  1  0  0  0
 49 64  1  0  0  0
 49122  1  0  0  0
 50 51  1  0  0  0
 50123  1  0  0  0
 50124  1  0  0  0
 51 52  1  0  0  0
 51125  1  0  0  0
 51126  1  0  0  0
 52127  1  0  0  0
 52128  1  0  0  0
 53 54  1  0  0  0
 54 55  2  0  0  0
 54129  1  0  0  0
 55 57  1  0  0  0
 55130  1  0  0  0
 56 69  2  0  0  0
 57 58  2  0  0  0
 57131  1  0  0  0
 58132  1  0  0  0
 59 60  1  0  0  0
 59 61  1  0  0  0
 59 62  1  0  0  0
 60133  1  0  0  0
 60134  1  0  0  0
 60135  1  0  0  0
 61136  1  0  0  0
 61137  1  0  0  0
 61138  1  0  0  0
 62139  1  0  0  0
 62140  1  0  0  0
 62141  1  0  0  0
 63 65  1  0  0  0
 63142  1  0  0  0
 63143  1  0  0  0
 63144  1  0  0  0
 64145  1  0  0  0
 65146  1  0  0  0
 68 80  1  0  0  0
 71 73  2  0  0  0
 71 74  1  0  0  0
 71147  1  0  0  0
 72 73  1  0  0  0
 72 75  2  0  0  0
 72148  1  0  0  0
 73 81  1  0  0  0
 74 76  1  0  0  0
 74 84  2  0  0  0
 75 82  1  0  0  0
 75 84  1  0  0  0
 76149  1  0  0  0
 76150  1  0  0  0
 76151  1  0  0  0
 77152  1  0  0  0
 77153  1  0  0  0
 77154  1  0  0  0
 77 81  1  0  0  0
 78 81  1  0  0  0
 78155  1  0  0  0
 78156  1  0  0  0
 78157  1  0  0  0
 79158  1  0  0  0
 79159  1  0  0  0
 79160  1  0  0  0
 79 82  1  0  0  0
 80 81  1  0  0  0
 80161  1  0  0  0
 80162  1  0  0  0
 82 83  1  0  0  0
 82 85  1  0  0  0
 83 86  1  0  0  0
 83 87  1  0  0  0
M  ISO  4   1 100  68 101  80 101  83 100
M  END
> <chiral flag>
0

> <version>
0

> <s_m_source_file>
/data/baiqing/PycharmProjects/Reinvent-master-3.2/result/LINK_invent/BTK/process_docking_weight1_custom_sum_contain_oxygen_bond_distance_aromatic_linkinvent_7_9_3/rearranged_h_0072.sdf

> <i_m_source_file_index>
26

> <r_mmod_Potential_Energy-OPLS-2005>
371.231018066406

> <r_mmod_Stretch_Energy-OPLS-2005>
251.847808837891

> <r_mmod_Bend_Energy-OPLS-2005>
232.64404296875

> <r_mmod_Torsional_Energy-OPLS-2005>
176.191192626953

> <r_mmod_Improper_Torsional_Energy-OPLS-2005>
3.70356392860413

> <r_mmod_Van_der_Waal_Energy-OPLS-2005>
129.328277587891

> <r_mmod_Electrostatic_Energy-OPLS-2005>
-417.654693603516

> <r_mmod_Solvation_Energy-OPLS-2005>
-177.499938964844

> <b_mmod_Minimization_Converged-OPLS-2005>
0

> <r_mmod_RMS_Derivative-OPLS-2005>
1.17557692527771

$$$$
27
                    3D
 Structure written by MMmdl.
153161  0  0  1  0            999 V2000
  -30.6226  -14.7359   20.4422 C   0  0  0  0  0  0
  -30.4278  -12.4466   19.4733 C   0  0  0  0  0  0
  -29.5077  -12.4982   18.2349 C   0  0  0  0  0  0
  -28.0345  -12.3233   18.6521 C   0  0  0  0  0  0
  -27.6385  -13.2338   19.8452 C   0  0  2  0  0  0
  -28.6825  -13.1811   20.9807 C   0  0  0  0  0  0
  -25.2508  -13.8226   20.5708 C   0  0  0  0  0  0
  -24.1804  -13.0461   20.9214 C   0  0  0  0  0  0
  -24.6392  -11.6936   20.8748 C   0  0  0  0  0  0
  -23.9075  -10.4308   21.0405 C   0  0  0  0  0  0
  -24.3629   -9.4222   21.9176 C   0  0  0  0  0  0
  -23.6307   -8.2257   22.0745 C   0  0  0  0  0  0
  -22.4283   -8.0293   21.3543 C   0  0  0  0  0  0
  -21.9922   -9.0269   20.4643 C   0  0  0  0  0  0
  -22.7250  -10.2148   20.3050 C   0  0  0  0  0  0
  -21.6860   -6.0747   22.5283 C   0  0  0  0  0  0
  -21.4019   -6.5648   23.8217 C   0  0  0  0  0  0
  -21.3655   -5.6796   24.9177 C   0  0  0  0  0  0
  -21.6040   -4.3059   24.7223 C   0  0  0  0  0  0
  -21.8820   -3.8155   23.4345 C   0  0  0  0  0  0
  -21.9198   -4.6976   22.3403 C   0  0  0  0  0  0
  -22.7821  -13.5234   21.1876 C   0  0  0  0  0  0
  -22.1669   -4.2166   21.0981 F   0  0  0  0  0  0
  -21.5618   -3.4535   25.7732 F   0  0  0  0  0  0
  -29.9828  -13.5187   20.3921 N   0  0  0  0  0  0
  -26.2924  -12.9429   20.3265 N   0  0  0  0  0  0
  -25.9318  -11.6566   20.5739 N   0  0  0  0  0  0
  -22.0482  -12.8211   22.0430 N   0  0  0  0  0  0
  -25.4198  -15.1959   20.4159 N   0  0  0  0  0  0
  -31.8277  -14.7966   20.1911 O   0  0  0  0  0  0
  -21.6644   -6.8890   21.4243 O   0  0  0  0  0  0
  -22.3493  -14.5533   20.6717 O   0  0  0  0  0  0
  -24.6301  -31.8549   23.1965 C   0  0  0  0  0  0
  -25.9129  -32.4749   23.8321 C   0  0  1  0  0  0
  -27.2227  -27.2741   20.1372 C   0  0  0  0  0  0
  -25.5927  -33.8552   24.2246 N   0  0  0  0  0  0
  -23.4269  -30.4756   21.5384 C   0  0  2  0  0  0
  -24.8737  -28.9136   20.1176 C   0  0  0  0  0  0
  -22.7477  -29.4622   22.4914 C   0  0  0  0  0  0
  -18.0292  -28.1354   22.8462 C   0  0  0  0  0  0
  -24.1488  -36.7287   23.2640 C   0  0  0  0  0  0
  -25.9696  -30.7744   21.3703 C   0  0  0  0  0  0
  -26.0448  -29.3939   20.7185 C   0  0  0  0  0  0
  -27.2273  -28.5891   20.7094 C   0  0  0  0  0  0
  -26.0301  -26.8463   19.5228 C   0  0  0  0  0  0
  -24.8690  -27.6469   19.5100 C   0  0  0  0  0  0
  -23.6451  -29.8009   20.1577 C   0  0  0  0  0  0
  -25.4114  -36.3058   24.0316 C   0  0  1  0  0  0
  -20.5899  -28.3673   23.1231 C   0  0  2  0  0  0
  -20.6791  -26.9408   22.5324 C   0  0  0  0  0  0
  -19.5755  -26.6420   21.5127 C   0  0  0  0  0  0
  -18.1942  -26.7904   22.1582 C   0  0  0  0  0  0
  -19.1546  -28.8828   23.2846 C   0  0  0  0  0  0
  -18.9474  -30.1429   23.8869 C   0  0  0  0  0  0
  -17.6472  -30.6557   24.0544 C   0  0  0  0  0  0
  -25.9054  -34.9433   23.5083 C   0  0  0  0  0  0
  -16.5360  -29.9056   23.6313 C   0  0  0  0  0  0
  -16.7281  -28.6474   23.0334 C   0  0  0  0  0  0
  -26.4505  -31.6576   25.0713 C   0  0  0  0  0  0
  -25.3733  -31.3731   26.1441 C   0  0  0  0  0  0
  -27.0351  -30.2989   24.6192 C   0  0  0  0  0  0
  -27.6047  -32.4324   25.7501 C   0  0  0  0  0  0
  -27.5572  -37.1795   24.8462 C   0  0  0  0  0  0
  -21.4190  -29.3048   22.3633 N   0  0  0  0  0  0
  -26.4285  -37.3757   23.9406 N   0  0  0  0  0  0
  -24.6946  -31.0528   22.0925 N   0  0  0  0  0  0
  -23.4171  -28.8190   23.3042 O   0  0  0  0  0  0
  -28.3331  -26.4097   20.1133 O   0  0  0  0  0  0
  -26.5630  -34.8915   22.4656 O   0  0  0  0  0  0
  -23.5451  -32.1362   23.7267 O   0  0  0  0  0  0
  -27.3433  -20.4446   20.1941 C   0  0  0  0  0  0
  -28.6666  -20.8477   20.4672 C   0  0  0  0  0  0
  -29.2259  -18.5239   20.3905 C   0  0  0  0  0  0
  -30.8896  -17.4625   18.8435 C   0  0  0  0  0  0
  -28.9798  -22.3648   20.8450 C   0  0  0  0  0  0
  -28.4492  -23.6458   19.9970 C   0  0  0  0  0  0
  -28.2514  -25.0622   20.7629 C   0  0  0  0  0  0
  -30.2889  -17.3445   20.2630 C   0  0  2  0  0  0
  -27.0159  -19.1342   20.0353 N   0  0  0  0  0  0
  -29.6184  -19.8344   20.5621 N   0  0  0  0  0  0
  -27.9552  -18.1749   20.1253 N   0  0  0  0  0  0
  -29.8640  -15.8918   20.5240 N   0  0  0  0  0  0
  -31.4698  -12.5634   19.1707 H   0  0  0  0  0  0
  -30.3645  -11.4741   19.9637 H   0  0  0  0  0  0
  -29.7889  -11.7208   17.5231 H   0  0  0  0  0  0
  -29.6354  -13.4503   17.7171 H   0  0  0  0  0  0
  -27.8974  -11.2766   18.9272 H   0  0  0  0  0  0
  -27.3747  -12.5036   17.8022 H   0  0  0  0  0  0
  -27.6281  -14.2516   19.4547 H   0  0  0  0  0  0
  -28.7132  -12.1916   21.4381 H   0  0  0  0  0  0
  -28.4228  -13.8810   21.7767 H   0  0  0  0  0  0
  -25.2772   -9.5709   22.4746 H   0  0  0  0  0  0
  -24.0024   -7.4647   22.7455 H   0  0  0  0  0  0
  -21.0857   -8.8793   19.8946 H   0  0  0  0  0  0
  -22.3709  -10.9690   19.6162 H   0  0  0  0  0  0
  -21.2014   -7.6154   23.9728 H   0  0  0  0  0  0
  -21.1469   -6.0521   25.9081 H   0  0  0  0  0  0
  -22.0601   -2.7618   23.2840 H   0  0  0  0  0  0
  -22.4111  -11.9868   22.4798 H   0  0  0  0  0  0
  -21.1101  -13.1223   22.2646 H   0  0  0  0  0  0
  -24.6537  -15.8484   20.5390 H   0  0  0  0  0  0
  -26.2689  -15.6518   20.1048 H   0  0  0  0  0  0
  -26.7200  -32.5402   23.1071 H   0  0  0  0  0  0
  -25.0055  -33.9684   25.0377 H   0  0  0  0  0  0
  -22.7248  -31.2975   21.3865 H   0  0  0  0  0  0
  -23.3734  -35.9635   23.3298 H   0  0  0  0  0  0
  -24.3578  -36.8921   22.2056 H   0  0  0  0  0  0
  -23.7262  -37.6492   23.6679 H   0  0  0  0  0  0
  -26.1005  -31.5337   20.5974 H   0  0  0  0  0  0
  -26.8494  -30.8289   21.9999 H   0  0  0  0  0  0
  -28.1330  -28.9595   21.1695 H   0  0  0  0  0  0
  -25.9961  -25.8726   19.0544 H   0  0  0  0  0  0
  -23.9706  -27.2718   19.0386 H   0  0  0  0  0  0
  -23.7717  -30.5716   19.3961 H   0  0  0  0  0  0
  -22.7640  -29.2318   19.8549 H   0  0  0  0  0  0
  -25.1299  -36.1891   25.0803 H   0  0  0  0  0  0
  -21.0011  -28.3221   24.1342 H   0  0  0  0  0  0
  -20.5711  -26.2261   23.3496 H   0  0  0  0  0  0
  -21.6646  -26.7457   22.1071 H   0  0  0  0  0  0
  -19.6931  -25.6352   21.1107 H   0  0  0  0  0  0
  -19.6664  -27.3287   20.6697 H   0  0  0  0  0  0
  -17.4205  -26.6654   21.3993 H   0  0  0  0  0  0
  -18.0374  -26.0015   22.8947 H   0  0  0  0  0  0
  -19.7964  -30.7224   24.2240 H   0  0  0  0  0  0
  -17.5017  -31.6232   24.5157 H   0  0  0  0  0  0
  -15.5357  -30.2944   23.7648 H   0  0  0  0  0  0
  -15.8673  -28.0795   22.7060 H   0  0  0  0  0  0
  -24.5901  -30.7084   25.7784 H   0  0  0  0  0  0
  -24.8943  -32.2907   26.4862 H   0  0  0  0  0  0
  -25.8057  -30.8918   27.0220 H   0  0  0  0  0  0
  -26.2928  -29.6735   24.1218 H   0  0  0  0  0  0
  -27.4033  -29.7251   25.4708 H   0  0  0  0  0  0
  -27.8805  -30.4261   23.9426 H   0  0  0  0  0  0
  -27.2632  -33.3619   26.2069 H   0  0  0  0  0  0
  -28.3872  -32.6894   25.0351 H   0  0  0  0  0  0
  -28.0702  -31.8463   26.5434 H   0  0  0  0  0  0
  -28.2582  -38.0096   24.7496 H   0  0  0  0  0  0
  -28.1070  -36.2623   24.6297 H   0  0  0  0  0  0
  -27.2292  -37.1456   25.8866 H   0  0  0  0  0  0
  -20.9386  -29.8686   21.6756 H   0  0  0  0  0  0
  -26.0150  -38.2820   24.1417 H   0  0  0  0  0  0
  -26.5357  -21.1610   20.1520 H   0  0  0  0  0  0
  -31.2632  -18.4716   18.6683 H   0  0  0  0  0  0
  -30.1355  -17.2600   18.0828 H   0  0  0  0  0  0
  -31.7280  -16.7897   18.6724 H   0  0  0  0  0  0
  -30.0593  -22.4603   20.9574 H   0  0  0  0  0  0
  -28.5870  -22.4786   21.8552 H   0  0  0  0  0  0
  -27.4879  -23.3929   19.5508 H   0  0  0  0  0  0
  -29.1251  -23.7867   19.1534 H   0  0  0  0  0  0
  -29.0339  -25.1004   21.5213 H   0  0  0  0  0  0
  -27.3267  -25.0068   21.3396 H   0  0  0  0  0  0
  -31.0774  -17.5660   20.9827 H   0  0  0  0  0  0
  -28.8758  -15.7759   20.6902 H   0  0  0  0  0  0
  1 25  1  0  0  0
  1 30  2  0  0  0
  1 82  1  0  0  0
  2  3  1  0  0  0
  2 25  1  0  0  0
  2 83  1  0  0  0
  2 84  1  0  0  0
  3  4  1  0  0  0
  3 85  1  0  0  0
  3 86  1  0  0  0
  4  5  1  0  0  0
  4 87  1  0  0  0
  4 88  1  0  0  0
  5  6  1  0  0  0
  5 26  1  0  0  0
  5 89  1  0  0  0
  6 25  1  0  0  0
  6 90  1  0  0  0
  6 91  1  0  0  0
  7  8  2  0  0  0
  7 26  1  0  0  0
  7 29  1  0  0  0
  8  9  1  0  0  0
  8 22  1  0  0  0
  9 10  1  0  0  0
  9 27  2  0  0  0
 10 11  2  0  0  0
 10 15  1  0  0  0
 11 12  1  0  0  0
 11 92  1  0  0  0
 12 13  2  0  0  0
 12 93  1  0  0  0
 13 14  1  0  0  0
 13 31  1  0  0  0
 14 15  2  0  0  0
 14 94  1  0  0  0
 15 95  1  0  0  0
 16 17  2  0  0  0
 16 21  1  0  0  0
 16 31  1  0  0  0
 17 18  1  0  0  0
 17 96  1  0  0  0
 18 19  2  0  0  0
 18 97  1  0  0  0
 19 20  1  0  0  0
 19 24  1  0  0  0
 20 21  2  0  0  0
 20 98  1  0  0  0
 21 23  1  0  0  0
 22 28  1  0  0  0
 22 32  2  0  0  0
 26 27  1  0  0  0
 28 99  1  0  0  0
 28100  1  0  0  0
 29101  1  0  0  0
 29102  1  0  0  0
 33 34  1  0  0  0
 33 66  1  0  0  0
 33 70  2  0  0  0
 34 36  1  0  0  0
 34 59  1  0  0  0
 34103  1  0  0  0
 35 44  2  0  0  0
 35 45  1  0  0  0
 35 68  1  0  0  0
 36 56  1  0  0  0
 36104  1  0  0  0
 37 39  1  0  0  0
 37 47  1  0  0  0
 37 66  1  0  0  0
 37105  1  0  0  0
 38 43  2  0  0  0
 38 46  1  0  0  0
 38 47  1  0  0  0
 39 64  1  0  0  0
 39 67  2  0  0  0
 40 52  1  0  0  0
 40 53  2  0  0  0
 40 58  1  0  0  0
 41106  1  0  0  0
 41107  1  0  0  0
 41108  1  0  0  0
 41 48  1  0  0  0
 42 43  1  0  0  0
 42 66  1  0  0  0
 42109  1  0  0  0
 42110  1  0  0  0
 43 44  1  0  0  0
 44111  1  0  0  0
 45 46  2  0  0  0
 45112  1  0  0  0
 46113  1  0  0  0
 47114  1  0  0  0
 47115  1  0  0  0
 48 56  1  0  0  0
 48 65  1  0  0  0
 48116  1  0  0  0
 49 50  1  0  0  0
 49 53  1  0  0  0
 49 64  1  0  0  0
 49117  1  0  0  0
 50 51  1  0  0  0
 50118  1  0  0  0
 50119  1  0  0  0
 51 52  1  0  0  0
 51120  1  0  0  0
 51121  1  0  0  0
 52122  1  0  0  0
 52123  1  0  0  0
 53 54  1  0  0  0
 54 55  2  0  0  0
 54124  1  0  0  0
 55 57  1  0  0  0
 55125  1  0  0  0
 56 69  2  0  0  0
 57 58  2  0  0  0
 57126  1  0  0  0
 58127  1  0  0  0
 59 60  1  0  0  0
 59 61  1  0  0  0
 59 62  1  0  0  0
 60128  1  0  0  0
 60129  1  0  0  0
 60130  1  0  0  0
 61131  1  0  0  0
 61132  1  0  0  0
 61133  1  0  0  0
 62134  1  0  0  0
 62135  1  0  0  0
 62136  1  0  0  0
 63 65  1  0  0  0
 63137  1  0  0  0
 63138  1  0  0  0
 63139  1  0  0  0
 64140  1  0  0  0
 65141  1  0  0  0
 68 77  1  0  0  0
 71 72  2  0  0  0
 71 79  1  0  0  0
 71142  1  0  0  0
 72 75  1  0  0  0
 72 80  1  0  0  0
 73 78  1  0  0  0
 73 80  2  0  0  0
 73 81  1  0  0  0
 74143  1  0  0  0
 74144  1  0  0  0
 74145  1  0  0  0
 74 78  1  0  0  0
 75 76  1  0  0  0
 75146  1  0  0  0
 75147  1  0  0  0
 76 77  1  0  0  0
 76148  1  0  0  0
 76149  1  0  0  0
 77150  1  0  0  0
 77151  1  0  0  0
 78 82  1  0  0  0
 78152  1  0  0  0
 79 81  2  0  0  0
 82153  1  0  0  0
M  ISO  4   1 100  68 101  77 101  82 100
M  END
> <chiral flag>
0

> <version>
0

> <s_m_source_file>
/data/baiqing/PycharmProjects/Reinvent-master-3.2/result/LINK_invent/BTK/process_docking_weight1_custom_sum_contain_oxygen_bond_distance_aromatic_linkinvent_7_9_3/rearranged_h_0072.sdf

> <i_m_source_file_index>
27

> <r_mmod_Potential_Energy-OPLS-2005>
31.406867980957

> <r_mmod_Stretch_Energy-OPLS-2005>
121.247978210449

> <r_mmod_Bend_Energy-OPLS-2005>
171.040008544922

> <r_mmod_Torsional_Energy-OPLS-2005>
217.163909912109

> <r_mmod_Improper_Torsional_Energy-OPLS-2005>
7.29074048995972

> <r_mmod_Van_der_Waal_Energy-OPLS-2005>
138.357391357422

> <r_mmod_Electrostatic_Energy-OPLS-2005>
-482.915252685547

> <r_mmod_Solvation_Energy-OPLS-2005>
-220.275619506836

> <b_mmod_Minimization_Converged-OPLS-2005>
0

> <r_mmod_RMS_Derivative-OPLS-2005>
1.29457545280457

$$$$
28
                    3D
 Structure written by MMmdl.
165173  0  0  1  0            999 V2000
  -30.6394  -14.5829   20.6010 C   0  0  0  0  0  0
  -30.4465  -12.3817   19.4333 C   0  0  0  0  0  0
  -29.5078  -12.5193   18.2145 C   0  0  0  0  0  0
  -28.0317  -12.3411   18.6241 C   0  0  0  0  0  0
  -27.6566  -13.1938   19.8600 C   0  0  2  0  0  0
  -28.7007  -13.0130   20.9852 C   0  0  0  0  0  0
  -25.2596  -13.8098   20.5668 C   0  0  0  0  0  0
  -24.1843  -13.0410   20.9172 C   0  0  0  0  0  0
  -24.6387  -11.6872   20.8745 C   0  0  0  0  0  0
  -23.9052  -10.4269   21.0429 C   0  0  0  0  0  0
  -24.3606   -9.4183   21.9204 C   0  0  0  0  0  0
  -23.6279   -8.2223   22.0768 C   0  0  0  0  0  0
  -22.4262   -8.0265   21.3551 C   0  0  0  0  0  0
  -21.9900   -9.0247   20.4660 C   0  0  0  0  0  0
  -22.7232  -10.2117   20.3074 C   0  0  0  0  0  0
  -21.6837   -6.0728   22.5290 C   0  0  0  0  0  0
  -21.4002   -6.5633   23.8222 C   0  0  0  0  0  0
  -21.3663   -5.6784   24.9180 C   0  0  0  0  0  0
  -21.6044   -4.3051   24.7230 C   0  0  0  0  0  0
  -21.8818   -3.8142   23.4349 C   0  0  0  0  0  0
  -21.9191   -4.6961   22.3405 C   0  0  0  0  0  0
  -22.7863  -13.5222   21.1849 C   0  0  0  0  0  0
  -22.1658   -4.2138   21.0985 F   0  0  0  0  0  0
  -21.5636   -3.4544   25.7748 F   0  0  0  0  0  0
  -30.0225  -13.3675   20.4467 N   0  0  0  0  0  0
  -26.3001  -12.9245   20.3294 N   0  0  0  0  0  0
  -25.9304  -11.6430   20.5748 N   0  0  0  0  0  0
  -22.0494  -12.8244   22.0403 N   0  0  0  0  0  0
  -25.4340  -15.1835   20.4131 N   0  0  0  0  0  0
  -31.7623  -14.7722   20.1126 O   0  0  0  0  0  0
  -21.6625   -6.8870   21.4245 O   0  0  0  0  0  0
  -22.3561  -14.5529   20.6686 O   0  0  0  0  0  0
  -24.6173  -31.8642   23.2079 C   0  0  0  0  0  0
  -25.9062  -32.4800   23.8373 C   0  0  1  0  0  0
  -27.2376  -27.4083   20.1108 C   0  0  0  0  0  0
  -25.5905  -33.8594   24.2314 N   0  0  0  0  0  0
  -23.4070  -30.4877   21.5472 C   0  0  2  0  0  0
  -24.8571  -28.9445   20.1172 C   0  0  0  0  0  0
  -22.7419  -29.4647   22.4950 C   0  0  0  0  0  0
  -18.0282  -28.1366   22.8495 C   0  0  0  0  0  0
  -24.1487  -36.7312   23.2639 C   0  0  0  0  0  0
  -25.9360  -30.8240   21.3618 C   0  0  0  0  0  0
  -26.0166  -29.4514   20.7198 C   0  0  0  0  0  0
  -27.2115  -28.6911   20.7137 C   0  0  0  0  0  0
  -26.0645  -26.9156   19.5071 C   0  0  0  0  0  0
  -24.8784  -27.6781   19.5040 C   0  0  0  0  0  0
  -23.6199  -29.8164   20.1628 C   0  0  0  0  0  0
  -25.4101  -36.3099   24.0338 C   0  0  1  0  0  0
  -20.5875  -28.3675   23.1308 C   0  0  2  0  0  0
  -20.6772  -26.9407   22.5404 C   0  0  0  0  0  0
  -19.5748  -26.6393   21.5197 C   0  0  0  0  0  0
  -18.1925  -26.7925   22.1616 C   0  0  0  0  0  0
  -19.1527  -28.8825   23.2904 C   0  0  0  0  0  0
  -18.9450  -30.1426   23.8923 C   0  0  0  0  0  0
  -17.6449  -30.6564   24.0565 C   0  0  0  0  0  0
  -25.9027  -34.9460   23.5123 C   0  0  0  0  0  0
  -16.5338  -29.9072   23.6308 C   0  0  0  0  0  0
  -16.7265  -28.6497   23.0326 C   0  0  0  0  0  0
  -26.4485  -31.6557   25.0689 C   0  0  0  0  0  0
  -25.3761  -31.3655   26.1441 C   0  0  0  0  0  0
  -27.0320  -30.3009   24.6052 C   0  0  0  0  0  0
  -27.6049  -32.4277   25.7471 C   0  0  0  0  0  0
  -27.5572  -37.1809   24.8463 C   0  0  0  0  0  0
  -21.4133  -29.3061   22.3712 N   0  0  0  0  0  0
  -26.4288  -37.3783   23.9417 N   0  0  0  0  0  0
  -24.6719  -31.0740   22.0983 N   0  0  0  0  0  0
  -23.4175  -28.8164   23.2987 O   0  0  0  0  0  0
  -28.3921  -26.6526   20.0673 O   0  0  0  0  0  0
  -26.5581  -34.8915   22.4683 O   0  0  0  0  0  0
  -23.5361  -32.1378   23.7461 O   0  0  0  0  0  0
  -31.2199  -19.8606   21.7366 C   0  0  0  0  0  0
  -31.5406  -17.5075   22.1971 C   0  0  0  0  0  0
  -31.9163  -18.8448   22.4111 C   0  0  0  0  0  0
  -30.1437  -19.5209   20.8978 C   0  0  0  0  0  0
  -30.4662  -17.2066   21.3320 C   0  0  0  0  0  0
  -32.9975  -19.1937   23.4117 C   0  0  0  0  0  0
  -27.9925  -20.7591   22.4114 C   0  0  0  0  0  0
  -26.9013  -21.3934   20.2833 C   0  0  0  0  0  0
  -29.3412  -20.6566   20.2119 C   0  0  0  0  0  0
  -28.3474  -24.0998   20.3113 C   0  0  0  0  0  0
  -28.6144  -22.9510   21.3485 C   0  0  0  0  0  0
  -28.4485  -25.5194   20.9600 C   0  0  0  0  0  0
  -29.8663  -15.7649   21.3236 C   0  0  0  0  0  0
  -28.2422  -21.4433   21.0429 C   0  0  0  0  0  0
  -29.7844  -18.2174   20.6951 N   0  0  0  0  0  0
  -28.6445  -15.8746   20.7953 F   0  0  0  0  0  0
  -29.7182  -15.4267   22.6077 F   0  0  0  0  0  0
  -31.4835  -12.5223   19.1244 H   0  0  0  0  0  0
  -30.3955  -11.3729   19.8462 H   0  0  0  0  0  0
  -29.7728  -11.7871   17.4511 H   0  0  0  0  0  0
  -29.6406  -13.4992   17.7559 H   0  0  0  0  0  0
  -27.8679  -11.2845   18.8423 H   0  0  0  0  0  0
  -27.3750  -12.5903   17.7897 H   0  0  0  0  0  0
  -27.6729  -14.2235   19.5122 H   0  0  0  0  0  0
  -28.7094  -11.9781   21.3279 H   0  0  0  0  0  0
  -28.4304  -13.5968   21.8638 H   0  0  0  0  0  0
  -25.2758   -9.5643   22.4781 H   0  0  0  0  0  0
  -23.9984   -7.4602   22.7489 H   0  0  0  0  0  0
  -21.0827   -8.8772   19.8966 H   0  0  0  0  0  0
  -22.3712  -10.9660   19.6183 H   0  0  0  0  0  0
  -21.1986   -7.6144   23.9713 H   0  0  0  0  0  0
  -21.1489   -6.0525   25.9079 H   0  0  0  0  0  0
  -22.0597   -2.7609   23.2861 H   0  0  0  0  0  0
  -22.4089  -11.9895   22.4797 H   0  0  0  0  0  0
  -21.1118  -13.1300   22.2622 H   0  0  0  0  0  0
  -24.6759  -15.8437   20.5465 H   0  0  0  0  0  0
  -26.3033  -15.6245   20.1420 H   0  0  0  0  0  0
  -26.7126  -32.5535   23.1131 H   0  0  0  0  0  0
  -25.0079  -33.9744   25.0476 H   0  0  0  0  0  0
  -22.6954  -31.3040   21.4049 H   0  0  0  0  0  0
  -23.3733  -35.9663   23.3305 H   0  0  0  0  0  0
  -24.3571  -36.8924   22.2051 H   0  0  0  0  0  0
  -23.7259  -37.6525   23.6650 H   0  0  0  0  0  0
  -26.0433  -31.5798   20.5814 H   0  0  0  0  0  0
  -26.8255  -30.8878   21.9764 H   0  0  0  0  0  0
  -28.1084  -29.0836   21.1728 H   0  0  0  0  0  0
  -26.0733  -25.9435   19.0324 H   0  0  0  0  0  0
  -23.9894  -27.2866   19.0275 H   0  0  0  0  0  0
  -23.7302  -30.5908   19.4019 H   0  0  0  0  0  0
  -22.7457  -29.2348   19.8653 H   0  0  0  0  0  0
  -25.1279  -36.1943   25.0829 H   0  0  0  0  0  0
  -20.9996  -28.3230   24.1427 H   0  0  0  0  0  0
  -20.5668  -26.2290   23.3594 H   0  0  0  0  0  0
  -21.6643  -26.7424   22.1209 H   0  0  0  0  0  0
  -19.6912  -25.6312   21.1181 H   0  0  0  0  0  0
  -19.6676  -27.3242   20.6746 H   0  0  0  0  0  0
  -17.4181  -26.6685   21.4025 H   0  0  0  0  0  0
  -18.0337  -26.0056   22.9001 H   0  0  0  0  0  0
  -19.7930  -30.7235   24.2302 H   0  0  0  0  0  0
  -17.4989  -31.6245   24.5183 H   0  0  0  0  0  0
  -15.5332  -30.2982   23.7605 H   0  0  0  0  0  0
  -15.8658  -28.0847   22.7011 H   0  0  0  0  0  0
  -24.5924  -30.7014   25.7774 H   0  0  0  0  0  0
  -24.8965  -32.2813   26.4917 H   0  0  0  0  0  0
  -25.8120  -30.8800   27.0185 H   0  0  0  0  0  0
  -26.2861  -29.6769   24.1118 H   0  0  0  0  0  0
  -27.4119  -29.7240   25.4491 H   0  0  0  0  0  0
  -27.8681  -30.4340   23.9186 H   0  0  0  0  0  0
  -27.2655  -33.3556   26.2100 H   0  0  0  0  0  0
  -28.3853  -32.6875   25.0301 H   0  0  0  0  0  0
  -28.0736  -31.8370   26.5359 H   0  0  0  0  0  0
  -28.2594  -38.0099   24.7491 H   0  0  0  0  0  0
  -28.1060  -36.2627   24.6306 H   0  0  0  0  0  0
  -27.2291  -37.1484   25.8867 H   0  0  0  0  0  0
  -20.9263  -29.8832   21.6987 H   0  0  0  0  0  0
  -26.0164  -38.2863   24.1405 H   0  0  0  0  0  0
  -31.4767  -20.9012   21.8960 H   0  0  0  0  0  0
  -32.0270  -16.7099   22.7426 H   0  0  0  0  0  0
  -32.5379  -19.5917   24.3172 H   0  0  0  0  0  0
  -33.6822  -19.9454   23.0187 H   0  0  0  0  0  0
  -33.5785  -18.3125   23.6823 H   0  0  0  0  0  0
  -27.2266  -21.2770   22.9922 H   0  0  0  0  0  0
  -28.8929  -20.7273   23.0267 H   0  0  0  0  0  0
  -27.6484  -19.7319   22.2799 H   0  0  0  0  0  0
  -26.1264  -21.9568   20.8089 H   0  0  0  0  0  0
  -26.5423  -20.3702   20.1779 H   0  0  0  0  0  0
  -26.9989  -21.7980   19.2752 H   0  0  0  0  0  0
  -28.8799  -20.1945   19.3378 H   0  0  0  0  0  0
  -30.0468  -21.3696   19.7884 H   0  0  0  0  0  0
  -27.3515  -23.9976   19.8815 H   0  0  0  0  0  0
  -29.0510  -24.0254   19.4825 H   0  0  0  0  0  0
  -28.0450  -23.2461   22.2304 H   0  0  0  0  0  0
  -29.6540  -23.0018   21.6719 H   0  0  0  0  0  0
  -27.6877  -25.6140   21.7358 H   0  0  0  0  0  0
  -29.4009  -25.5928   21.4829 H   0  0  0  0  0  0
  1 25  1  0  0  0
  1 30  2  0  0  0
  1 83  1  0  0  0
  2  3  1  0  0  0
  2 25  1  0  0  0
  2 88  1  0  0  0
  2 89  1  0  0  0
  3  4  1  0  0  0
  3 90  1  0  0  0
  3 91  1  0  0  0
  4  5  1  0  0  0
  4 92  1  0  0  0
  4 93  1  0  0  0
  5  6  1  0  0  0
  5 26  1  0  0  0
  5 94  1  0  0  0
  6 25  1  0  0  0
  6 95  1  0  0  0
  6 96  1  0  0  0
  7  8  2  0  0  0
  7 26  1  0  0  0
  7 29  1  0  0  0
  8  9  1  0  0  0
  8 22  1  0  0  0
  9 10  1  0  0  0
  9 27  2  0  0  0
 10 11  2  0  0  0
 10 15  1  0  0  0
 11 12  1  0  0  0
 11 97  1  0  0  0
 12 13  2  0  0  0
 12 98  1  0  0  0
 13 14  1  0  0  0
 13 31  1  0  0  0
 14 15  2  0  0  0
 14 99  1  0  0  0
 15100  1  0  0  0
 16 17  2  0  0  0
 16 21  1  0  0  0
 16 31  1  0  0  0
 17 18  1  0  0  0
 17101  1  0  0  0
 18 19  2  0  0  0
 18102  1  0  0  0
 19 20  1  0  0  0
 19 24  1  0  0  0
 20 21  2  0  0  0
 20103  1  0  0  0
 21 23  1  0  0  0
 22 28  1  0  0  0
 22 32  2  0  0  0
 26 27  1  0  0  0
 28104  1  0  0  0
 28105  1  0  0  0
 29106  1  0  0  0
 29107  1  0  0  0
 33 34  1  0  0  0
 33 66  1  0  0  0
 33 70  2  0  0  0
 34 36  1  0  0  0
 34 59  1  0  0  0
 34108  1  0  0  0
 35 44  2  0  0  0
 35 45  1  0  0  0
 35 68  1  0  0  0
 36 56  1  0  0  0
 36109  1  0  0  0
 37 39  1  0  0  0
 37 47  1  0  0  0
 37 66  1  0  0  0
 37110  1  0  0  0
 38 43  2  0  0  0
 38 46  1  0  0  0
 38 47  1  0  0  0
 39 64  1  0  0  0
 39 67  2  0  0  0
 40 52  1  0  0  0
 40 53  2  0  0  0
 40 58  1  0  0  0
 41111  1  0  0  0
 41112  1  0  0  0
 41113  1  0  0  0
 41 48  1  0  0  0
 42 43  1  0  0  0
 42 66  1  0  0  0
 42114  1  0  0  0
 42115  1  0  0  0
 43 44  1  0  0  0
 44116  1  0  0  0
 45 46  2  0  0  0
 45117  1  0  0  0
 46118  1  0  0  0
 47119  1  0  0  0
 47120  1  0  0  0
 48 56  1  0  0  0
 48 65  1  0  0  0
 48121  1  0  0  0
 49 50  1  0  0  0
 49 53  1  0  0  0
 49 64  1  0  0  0
 49122  1  0  0  0
 50 51  1  0  0  0
 50123  1  0  0  0
 50124  1  0  0  0
 51 52  1  0  0  0
 51125  1  0  0  0
 51126  1  0  0  0
 52127  1  0  0  0
 52128  1  0  0  0
 53 54  1  0  0  0
 54 55  2  0  0  0
 54129  1  0  0  0
 55 57  1  0  0  0
 55130  1  0  0  0
 56 69  2  0  0  0
 57 58  2  0  0  0
 57131  1  0  0  0
 58132  1  0  0  0
 59 60  1  0  0  0
 59 61  1  0  0  0
 59 62  1  0  0  0
 60133  1  0  0  0
 60134  1  0  0  0
 60135  1  0  0  0
 61136  1  0  0  0
 61137  1  0  0  0
 61138  1  0  0  0
 62139  1  0  0  0
 62140  1  0  0  0
 62141  1  0  0  0
 63 65  1  0  0  0
 63142  1  0  0  0
 63143  1  0  0  0
 63144  1  0  0  0
 64145  1  0  0  0
 65146  1  0  0  0
 68 82  1  0  0  0
 71 73  2  0  0  0
 71 74  1  0  0  0
 71147  1  0  0  0
 72 73  1  0  0  0
 72 75  2  0  0  0
 72148  1  0  0  0
 73 76  1  0  0  0
 74 79  1  0  0  0
 74 85  2  0  0  0
 75 83  1  0  0  0
 75 85  1  0  0  0
 76149  1  0  0  0
 76150  1  0  0  0
 76151  1  0  0  0
 77152  1  0  0  0
 77153  1  0  0  0
 77154  1  0  0  0
 77 84  1  0  0  0
 78 84  1  0  0  0
 78155  1  0  0  0
 78156  1  0  0  0
 78157  1  0  0  0
 79 84  1  0  0  0
 79158  1  0  0  0
 79159  1  0  0  0
 80 81  1  0  0  0
 80 82  1  0  0  0
 80160  1  0  0  0
 80161  1  0  0  0
 81 84  1  0  0  0
 81162  1  0  0  0
 81163  1  0  0  0
 82164  1  0  0  0
 82165  1  0  0  0
 83 86  1  0  0  0
 83 87  1  0  0  0
M  ISO  4   1 100  68 101  82 101  83 100
M  END
> <chiral flag>
0

> <version>
0

> <s_m_source_file>
/data/baiqing/PycharmProjects/Reinvent-master-3.2/result/LINK_invent/BTK/process_docking_weight1_custom_sum_contain_oxygen_bond_distance_aromatic_linkinvent_7_9_3/rearranged_h_0072.sdf

> <i_m_source_file_index>
28

> <r_mmod_Potential_Energy-OPLS-2005>
135.961380004883

> <r_mmod_Stretch_Energy-OPLS-2005>
60.4102630615234

> <r_mmod_Bend_Energy-OPLS-2005>
127.916839599609

> <r_mmod_Torsional_Energy-OPLS-2005>
208.120986938477

> <r_mmod_Improper_Torsional_Energy-OPLS-2005>
3.93380832672119

> <r_mmod_Van_der_Waal_Energy-OPLS-2005>
153.024795532227

> <r_mmod_Electrostatic_Energy-OPLS-2005>
-258.297546386719

> <r_mmod_Solvation_Energy-OPLS-2005>
-182.30940246582

> <b_mmod_Minimization_Converged-OPLS-2005>
0

> <r_mmod_RMS_Derivative-OPLS-2005>
3.54528498649597

$$$$
29
                    3D
 Structure written by MMmdl.
169177  0  0  1  0            999 V2000
  -30.6640  -14.5889   20.2868 C   0  0  0  0  0  0
  -30.4070  -12.3269   19.4343 C   0  0  0  0  0  0
  -29.4777  -12.4368   18.2066 C   0  0  0  0  0  0
  -28.0014  -12.2913   18.6261 C   0  0  0  0  0  0
  -27.6222  -13.1878   19.8336 C   0  0  2  0  0  0
  -28.6909  -13.1421   20.9518 C   0  0  0  0  0  0
  -25.2507  -13.8050   20.5789 C   0  0  0  0  0  0
  -24.1760  -13.0380   20.9245 C   0  0  0  0  0  0
  -24.6283  -11.6830   20.8803 C   0  0  0  0  0  0
  -23.8963  -10.4248   21.0454 C   0  0  0  0  0  0
  -24.3546   -9.4179   21.9217 C   0  0  0  0  0  0
  -23.6248   -8.2208   22.0754 C   0  0  0  0  0  0
  -22.4233   -8.0235   21.3531 C   0  0  0  0  0  0
  -21.9858   -9.0209   20.4637 C   0  0  0  0  0  0
  -22.7161  -10.2099   20.3066 C   0  0  0  0  0  0
  -21.6845   -6.0704   22.5280 C   0  0  0  0  0  0
  -21.4015   -6.5620   23.8215 C   0  0  0  0  0  0
  -21.3663   -5.6774   24.9185 C   0  0  0  0  0  0
  -21.6048   -4.3037   24.7224 C   0  0  0  0  0  0
  -21.8823   -3.8119   23.4349 C   0  0  0  0  0  0
  -21.9197   -4.6938   22.3408 C   0  0  0  0  0  0
  -22.7780  -13.5216   21.1879 C   0  0  0  0  0  0
  -22.1666   -4.2134   21.0985 F   0  0  0  0  0  0
  -21.5635   -3.4522   25.7738 F   0  0  0  0  0  0
  -30.0199  -13.3889   20.3731 N   0  0  0  0  0  0
  -26.2856  -12.9155   20.3332 N   0  0  0  0  0  0
  -25.9194  -11.6361   20.5815 N   0  0  0  0  0  0
  -22.0391  -12.8252   22.0428 N   0  0  0  0  0  0
  -25.4270  -15.1795   20.4243 N   0  0  0  0  0  0
  -31.8940  -14.6488   20.3289 O   0  0  0  0  0  0
  -21.6611   -6.8827   21.4227 O   0  0  0  0  0  0
  -22.3525  -14.5544   20.6713 O   0  0  0  0  0  0
  -24.6122  -31.8682   23.2071 C   0  0  0  0  0  0
  -25.9027  -32.4824   23.8383 C   0  0  1  0  0  0
  -27.2601  -27.4406   20.0869 C   0  0  0  0  0  0
  -25.5874  -33.8630   24.2317 N   0  0  0  0  0  0
  -23.4044  -30.4818   21.5495 C   0  0  2  0  0  0
  -24.8560  -28.9348   20.1278 C   0  0  0  0  0  0
  -22.7417  -29.4654   22.5061 C   0  0  0  0  0  0
  -18.0286  -28.1339   22.8517 C   0  0  0  0  0  0
  -24.1475  -36.7299   23.2643 C   0  0  0  0  0  0
  -25.9301  -30.8283   21.3605 C   0  0  0  0  0  0
  -26.0136  -29.4567   20.7193 C   0  0  0  0  0  0
  -27.2191  -28.7175   20.6955 C   0  0  0  0  0  0
  -26.0841  -26.9211   19.5088 C   0  0  0  0  0  0
  -24.8835  -27.6628   19.5253 C   0  0  0  0  0  0
  -23.6145  -29.7982   20.1698 C   0  0  0  0  0  0
  -25.4100  -36.3110   24.0334 C   0  0  1  0  0  0
  -20.5865  -28.3674   23.1417 C   0  0  2  0  0  0
  -20.6796  -26.9434   22.5470 C   0  0  0  0  0  0
  -19.5818  -26.6478   21.5210 C   0  0  0  0  0  0
  -18.1989  -26.7889   22.1638 C   0  0  0  0  0  0
  -19.1517  -28.8834   23.2932 C   0  0  0  0  0  0
  -18.9402  -30.1456   23.8879 C   0  0  0  0  0  0
  -17.6390  -30.6574   24.0491 C   0  0  0  0  0  0
  -25.9045  -34.9486   23.5136 C   0  0  0  0  0  0
  -16.5306  -29.9047   23.6253 C   0  0  0  0  0  0
  -16.7260  -28.6447   23.0332 C   0  0  0  0  0  0
  -26.4455  -31.6609   25.0709 C   0  0  0  0  0  0
  -25.3708  -31.3717   26.1445 C   0  0  0  0  0  0
  -27.0290  -30.3061   24.6079 C   0  0  0  0  0  0
  -27.6046  -32.4323   25.7452 C   0  0  0  0  0  0
  -27.5574  -37.1802   24.8472 C   0  0  0  0  0  0
  -21.4141  -29.3074   22.3848 N   0  0  0  0  0  0
  -26.4287  -37.3787   23.9414 N   0  0  0  0  0  0
  -24.6677  -31.0743   22.0983 N   0  0  0  0  0  0
  -23.4214  -28.8172   23.3074 O   0  0  0  0  0  0
  -28.4509  -26.7576   19.9523 O   0  0  0  0  0  0
  -26.5612  -34.8938   22.4705 O   0  0  0  0  0  0
  -23.5307  -32.1451   23.7445 O   0  0  0  0  0  0
  -28.6046  -18.3779   21.7386 C   0  0  0  0  0  0
  -28.9837  -17.0819   21.5245 C   0  0  0  0  0  0
  -29.0204  -19.1217   20.5880 C   0  0  0  0  0  0
  -30.7505  -16.1132   18.2304 C   0  0  0  0  0  0
  -25.9061  -20.7777   20.9347 C   0  0  0  0  0  0
  -26.1733  -23.0633   21.8877 C   0  0  0  0  0  0
  -28.5022  -21.3302   22.6852 C   0  0  0  0  0  0
  -28.8738  -20.6290   20.1896 C   0  0  0  0  0  0
  -28.8023  -24.2785   20.1338 C   0  0  0  0  0  0
  -29.1754  -23.1034   21.1052 C   0  0  0  0  0  0
  -28.6993  -25.6678   20.8436 C   0  0  0  0  0  0
  -29.9673  -15.7873   19.5275 C   0  0  2  0  0  0
  -26.8066  -22.0281   20.9333 C   0  0  0  0  0  0
  -28.3323  -21.7524   21.2035 C   0  0  2  0  0  0
  -29.5958  -18.2631   19.7271 N   0  0  0  0  0  0
  -29.5970  -17.0077   20.2956 N   0  0  0  0  0  0
  -31.4533  -12.4143   19.1317 H   0  0  0  0  0  0
  -30.3043  -11.3490   19.9097 H   0  0  0  0  0  0
  -29.7275  -11.6632   17.4808 H   0  0  0  0  0  0
  -29.6253  -13.3864   17.6950 H   0  0  0  0  0  0
  -27.8399  -11.2401   18.8737 H   0  0  0  0  0  0
  -27.3465  -12.5067   17.7799 H   0  0  0  0  0  0
  -27.5447  -14.1855   19.4324 H   0  0  0  0  0  0
  -28.6862  -12.1680   21.4432 H   0  0  0  0  0  0
  -28.4616  -13.8760   21.7266 H   0  0  0  0  0  0
  -25.2688   -9.5696   22.4777 H   0  0  0  0  0  0
  -23.9989   -7.4601   22.7452 H   0  0  0  0  0  0
  -21.0799   -8.8695   19.8926 H   0  0  0  0  0  0
  -22.3619  -10.9629   19.6165 H   0  0  0  0  0  0
  -21.2002   -7.6124   23.9722 H   0  0  0  0  0  0
  -21.1489   -6.0499   25.9100 H   0  0  0  0  0  0
  -22.0598   -2.7575   23.2845 H   0  0  0  0  0  0
  -22.4006  -11.9971   22.4915 H   0  0  0  0  0  0
  -21.0995  -13.1287   22.2557 H   0  0  0  0  0  0
  -24.6636  -15.8321   20.5601 H   0  0  0  0  0  0
  -26.2828  -15.6288   20.1253 H   0  0  0  0  0  0
  -26.7095  -32.5536   23.1157 H   0  0  0  0  0  0
  -24.9977  -33.9802   25.0427 H   0  0  0  0  0  0
  -22.6917  -31.2964   21.4038 H   0  0  0  0  0  0
  -23.3730  -35.9640   23.3337 H   0  0  0  0  0  0
  -24.3554  -36.8880   22.2050 H   0  0  0  0  0  0
  -23.7244  -37.6523   23.6633 H   0  0  0  0  0  0
  -26.0306  -31.5870   20.5828 H   0  0  0  0  0  0
  -26.8208  -30.8960   21.9705 H   0  0  0  0  0  0
  -28.1209  -29.1344   21.1227 H   0  0  0  0  0  0
  -26.1037  -25.9566   19.0217 H   0  0  0  0  0  0
  -23.9945  -27.2552   19.0658 H   0  0  0  0  0  0
  -23.7118  -30.5634   19.3976 H   0  0  0  0  0  0
  -22.7403  -29.2058   19.8900 H   0  0  0  0  0  0
  -25.1283  -36.1971   25.0820 H   0  0  0  0  0  0
  -20.9924  -28.3225   24.1554 H   0  0  0  0  0  0
  -20.5683  -26.2264   23.3611 H   0  0  0  0  0  0
  -21.6689  -26.7535   22.1298 H   0  0  0  0  0  0
  -19.7050  -25.6446   21.1127 H   0  0  0  0  0  0
  -19.6724  -27.3391   20.6813 H   0  0  0  0  0  0
  -17.4268  -26.6593   21.4034 H   0  0  0  0  0  0
  -18.0479  -25.9985   22.9004 H   0  0  0  0  0  0
  -19.7849  -30.7316   24.2254 H   0  0  0  0  0  0
  -17.4910  -31.6280   24.4998 H   0  0  0  0  0  0
  -15.5292  -30.2933   23.7474 H   0  0  0  0  0  0
  -15.8692  -28.0708   22.7066 H   0  0  0  0  0  0
  -24.5861  -30.7108   25.7751 H   0  0  0  0  0  0
  -24.8908  -32.2868   26.4910 H   0  0  0  0  0  0
  -25.8015  -30.8842   27.0195 H   0  0  0  0  0  0
  -26.2838  -29.6818   24.1134 H   0  0  0  0  0  0
  -27.4086  -29.7300   25.4527 H   0  0  0  0  0  0
  -27.8652  -30.4399   23.9215 H   0  0  0  0  0  0
  -27.2694  -33.3614   26.2065 H   0  0  0  0  0  0
  -28.3811  -32.6903   25.0245 H   0  0  0  0  0  0
  -28.0762  -31.8429   26.5319 H   0  0  0  0  0  0
  -28.2625  -38.0072   24.7502 H   0  0  0  0  0  0
  -28.1045  -36.2608   24.6321 H   0  0  0  0  0  0
  -27.2293  -37.1485   25.8880 H   0  0  0  0  0  0
  -20.9284  -29.8875   21.7137 H   0  0  0  0  0  0
  -26.0176  -38.2868   24.1413 H   0  0  0  0  0  0
  -28.0772  -18.6930   22.6214 H   0  0  0  0  0  0
  -28.8159  -16.2082   22.1379 H   0  0  0  0  0  0
  -30.1030  -16.6103   17.5084 H   0  0  0  0  0  0
  -31.1125  -15.2060   17.7438 H   0  0  0  0  0  0
  -31.6106  -16.7573   18.4089 H   0  0  0  0  0  0
  -24.8861  -21.0521   20.6648 H   0  0  0  0  0  0
  -25.8579  -20.3053   21.9147 H   0  0  0  0  0  0
  -26.2256  -20.0290   20.2113 H   0  0  0  0  0  0
  -25.2292  -23.4342   21.4871 H   0  0  0  0  0  0
  -26.8014  -23.9294   22.0527 H   0  0  0  0  0  0
  -25.9772  -22.6342   22.8697 H   0  0  0  0  0  0
  -29.4979  -20.9275   22.8782 H   0  0  0  0  0  0
  -27.7573  -20.6130   23.0052 H   0  0  0  0  0  0
  -28.3541  -22.1575   23.3803 H   0  0  0  0  0  0
  -28.2856  -20.6903   19.2709 H   0  0  0  0  0  0
  -29.8586  -20.9446   19.8468 H   0  0  0  0  0  0
  -27.8784  -24.1127   19.5949 H   0  0  0  0  0  0
  -29.5725  -24.3393   19.3644 H   0  0  0  0  0  0
  -29.1834  -23.5732   22.0881 H   0  0  0  0  0  0
  -30.2298  -22.8618   20.9731 H   0  0  0  0  0  0
  -29.6474  -25.8881   21.3356 H   0  0  0  0  0  0
  -27.9567  -25.6586   21.6399 H   0  0  0  0  0  0
  -29.0335  -15.4260   19.1381 H   0  0  0  0  0  0
  -26.7170  -22.4185   19.9212 H   0  0  0  0  0  0
  1 25  1  0  0  0
  1 30  2  0  0  0
  1 82  1  0  0  0
  2  3  1  0  0  0
  2 25  1  0  0  0
  2 87  1  0  0  0
  2 88  1  0  0  0
  3  4  1  0  0  0
  3 89  1  0  0  0
  3 90  1  0  0  0
  4  5  1  0  0  0
  4 91  1  0  0  0
  4 92  1  0  0  0
  5  6  1  0  0  0
  5 26  1  0  0  0
  5 93  1  0  0  0
  6 25  1  0  0  0
  6 94  1  0  0  0
  6 95  1  0  0  0
  7  8  2  0  0  0
  7 26  1  0  0  0
  7 29  1  0  0  0
  8  9  1  0  0  0
  8 22  1  0  0  0
  9 10  1  0  0  0
  9 27  2  0  0  0
 10 11  2  0  0  0
 10 15  1  0  0  0
 11 12  1  0  0  0
 11 96  1  0  0  0
 12 13  2  0  0  0
 12 97  1  0  0  0
 13 14  1  0  0  0
 13 31  1  0  0  0
 14 15  2  0  0  0
 14 98  1  0  0  0
 15 99  1  0  0  0
 16 17  2  0  0  0
 16 21  1  0  0  0
 16 31  1  0  0  0
 17 18  1  0  0  0
 17100  1  0  0  0
 18 19  2  0  0  0
 18101  1  0  0  0
 19 20  1  0  0  0
 19 24  1  0  0  0
 20 21  2  0  0  0
 20102  1  0  0  0
 21 23  1  0  0  0
 22 28  1  0  0  0
 22 32  2  0  0  0
 26 27  1  0  0  0
 28103  1  0  0  0
 28104  1  0  0  0
 29105  1  0  0  0
 29106  1  0  0  0
 33 34  1  0  0  0
 33 66  1  0  0  0
 33 70  2  0  0  0
 34 36  1  0  0  0
 34 59  1  0  0  0
 34107  1  0  0  0
 35 44  2  0  0  0
 35 45  1  0  0  0
 35 68  1  0  0  0
 36 56  1  0  0  0
 36108  1  0  0  0
 37 39  1  0  0  0
 37 47  1  0  0  0
 37 66  1  0  0  0
 37109  1  0  0  0
 38 43  2  0  0  0
 38 46  1  0  0  0
 38 47  1  0  0  0
 39 64  1  0  0  0
 39 67  2  0  0  0
 40 52  1  0  0  0
 40 53  2  0  0  0
 40 58  1  0  0  0
 41110  1  0  0  0
 41111  1  0  0  0
 41112  1  0  0  0
 41 48  1  0  0  0
 42 43  1  0  0  0
 42 66  1  0  0  0
 42113  1  0  0  0
 42114  1  0  0  0
 43 44  1  0  0  0
 44115  1  0  0  0
 45 46  2  0  0  0
 45116  1  0  0  0
 46117  1  0  0  0
 47118  1  0  0  0
 47119  1  0  0  0
 48 56  1  0  0  0
 48 65  1  0  0  0
 48120  1  0  0  0
 49 50  1  0  0  0
 49 53  1  0  0  0
 49 64  1  0  0  0
 49121  1  0  0  0
 50 51  1  0  0  0
 50122  1  0  0  0
 50123  1  0  0  0
 51 52  1  0  0  0
 51124  1  0  0  0
 51125  1  0  0  0
 52126  1  0  0  0
 52127  1  0  0  0
 53 54  1  0  0  0
 54 55  2  0  0  0
 54128  1  0  0  0
 55 57  1  0  0  0
 55129  1  0  0  0
 56 69  2  0  0  0
 57 58  2  0  0  0
 57130  1  0  0  0
 58131  1  0  0  0
 59 60  1  0  0  0
 59 61  1  0  0  0
 59 62  1  0  0  0
 60132  1  0  0  0
 60133  1  0  0  0
 60134  1  0  0  0
 61135  1  0  0  0
 61136  1  0  0  0
 61137  1  0  0  0
 62138  1  0  0  0
 62139  1  0  0  0
 62140  1  0  0  0
 63 65  1  0  0  0
 63141  1  0  0  0
 63142  1  0  0  0
 63143  1  0  0  0
 64144  1  0  0  0
 65145  1  0  0  0
 68 81  1  0  0  0
 71 72  2  0  0  0
 71 73  1  0  0  0
 71146  1  0  0  0
 72 86  1  0  0  0
 72147  1  0  0  0
 73 78  1  0  0  0
 73 85  2  0  0  0
 74148  1  0  0  0
 74149  1  0  0  0
 74150  1  0  0  0
 74 82  1  0  0  0
 75151  1  0  0  0
 75152  1  0  0  0
 75153  1  0  0  0
 75 83  1  0  0  0
 76 83  1  0  0  0
 76154  1  0  0  0
 76155  1  0  0  0
 76156  1  0  0  0
 77157  1  0  0  0
 77158  1  0  0  0
 77159  1  0  0  0
 77 84  1  0  0  0
 78 84  1  0  0  0
 78160  1  0  0  0
 78161  1  0  0  0
 79 80  1  0  0  0
 79 81  1  0  0  0
 79162  1  0  0  0
 79163  1  0  0  0
 80 84  1  0  0  0
 80164  1  0  0  0
 80165  1  0  0  0
 81166  1  0  0  0
 81167  1  0  0  0
 82 86  1  0  0  0
 82168  1  0  0  0
 83 84  1  0  0  0
 83169  1  0  0  0
 85 86  1  0  0  0
M  ISO  4   1 100  68 101  81 101  82 100
M  END
> <chiral flag>
0

> <version>
0

> <s_m_source_file>
/data/baiqing/PycharmProjects/Reinvent-master-3.2/result/LINK_invent/BTK/process_docking_weight1_custom_sum_contain_oxygen_bond_distance_aromatic_linkinvent_7_9_3/rearranged_h_0072.sdf

> <i_m_source_file_index>
29

> <r_mmod_Potential_Energy-OPLS-2005>
237.207015991211

> <r_mmod_Stretch_Energy-OPLS-2005>
65.7324981689453

> <r_mmod_Bend_Energy-OPLS-2005>
154.346420288086

> <r_mmod_Torsional_Energy-OPLS-2005>
300.411956787109

> <r_mmod_Improper_Torsional_Energy-OPLS-2005>
19.969898223877

> <r_mmod_Van_der_Waal_Energy-OPLS-2005>
143.213088989258

> <r_mmod_Electrostatic_Energy-OPLS-2005>
-300.628234863281

> <r_mmod_Solvation_Energy-OPLS-2005>
-194.806777954102

> <b_mmod_Minimization_Converged-OPLS-2005>
0

> <r_mmod_RMS_Derivative-OPLS-2005>
4.14294147491455

$$$$
30
                    3D
 Structure written by MMmdl.
167175  0  0  1  0            999 V2000
  -30.7173  -14.5414   20.5342 C   0  0  0  0  0  0
  -30.4188  -12.3350   19.4546 C   0  0  0  0  0  0
  -29.5034  -12.4982   18.2244 C   0  0  0  0  0  0
  -28.0250  -12.3522   18.6320 C   0  0  0  0  0  0
  -27.6558  -13.2238   19.8630 C   0  0  2  0  0  0
  -28.7000  -13.0890   20.9956 C   0  0  0  0  0  0
  -25.2569  -13.8192   20.5695 C   0  0  0  0  0  0
  -24.1835  -13.0442   20.9191 C   0  0  0  0  0  0
  -24.6417  -11.6918   20.8737 C   0  0  0  0  0  0
  -23.9082  -10.4294   21.0397 C   0  0  0  0  0  0
  -24.3625   -9.4210   21.9180 C   0  0  0  0  0  0
  -23.6291   -8.2249   22.0750 C   0  0  0  0  0  0
  -22.4272   -8.0290   21.3541 C   0  0  0  0  0  0
  -21.9913   -9.0266   20.4643 C   0  0  0  0  0  0
  -22.7253  -10.2143   20.3049 C   0  0  0  0  0  0
  -21.6856   -6.0741   22.5282 C   0  0  0  0  0  0
  -21.4015   -6.5639   23.8219 C   0  0  0  0  0  0
  -21.3658   -5.6790   24.9178 C   0  0  0  0  0  0
  -21.6047   -4.3052   24.7228 C   0  0  0  0  0  0
  -21.8816   -3.8149   23.4345 C   0  0  0  0  0  0
  -21.9187   -4.6966   22.3403 C   0  0  0  0  0  0
  -22.7852  -13.5231   21.1849 C   0  0  0  0  0  0
  -22.1654   -4.2153   21.0981 F   0  0  0  0  0  0
  -21.5630   -3.4533   25.7739 F   0  0  0  0  0  0
  -30.0303  -13.3643   20.4369 N   0  0  0  0  0  0
  -26.3013  -12.9396   20.3334 N   0  0  0  0  0  0
  -25.9354  -11.6540   20.5762 N   0  0  0  0  0  0
  -22.0489  -12.8224   22.0404 N   0  0  0  0  0  0
  -25.4274  -15.1912   20.4128 N   0  0  0  0  0  0
  -31.8685  -14.6298   20.1007 O   0  0  0  0  0  0
  -21.6636   -6.8886   21.4244 O   0  0  0  0  0  0
  -22.3534  -14.5534   20.6697 O   0  0  0  0  0  0
  -24.6265  -31.8663   23.2129 C   0  0  0  0  0  0
  -25.9126  -32.4812   23.8423 C   0  0  1  0  0  0
  -27.1962  -27.3375   20.0939 C   0  0  0  0  0  0
  -25.5957  -33.8609   24.2346 N   0  0  0  0  0  0
  -23.4166  -30.5010   21.5571 C   0  0  2  0  0  0
  -24.8579  -28.9901   20.1010 C   0  0  0  0  0  0
  -22.7476  -29.4667   22.4952 C   0  0  0  0  0  0
  -18.0304  -28.1382   22.8488 C   0  0  0  0  0  0
  -24.1501  -36.7293   23.2635 C   0  0  0  0  0  0
  -25.9641  -30.8015   21.3897 C   0  0  0  0  0  0
  -26.0325  -29.4406   20.7167 C   0  0  0  0  0  0
  -27.2054  -28.6251   20.7134 C   0  0  0  0  0  0
  -26.0028  -26.9865   19.4096 C   0  0  0  0  0  0
  -24.8451  -27.7647   19.4398 C   0  0  0  0  0  0
  -23.6262  -29.8609   20.1650 C   0  0  0  0  0  0
  -25.4122  -36.3099   24.0340 C   0  0  1  0  0  0
  -20.5900  -28.3697   23.1286 C   0  0  2  0  0  0
  -20.6800  -26.9417   22.5424 C   0  0  0  0  0  0
  -19.5779  -26.6369   21.5227 C   0  0  0  0  0  0
  -18.1960  -26.7921   22.1637 C   0  0  0  0  0  0
  -19.1551  -28.8856   23.2882 C   0  0  0  0  0  0
  -18.9465  -30.1459   23.8897 C   0  0  0  0  0  0
  -17.6466  -30.6589   24.0557 C   0  0  0  0  0  0
  -25.9054  -34.9464   23.5133 C   0  0  0  0  0  0
  -16.5362  -29.9075   23.6336 C   0  0  0  0  0  0
  -16.7291  -28.6495   23.0355 C   0  0  0  0  0  0
  -26.4506  -31.6588   25.0768 C   0  0  0  0  0  0
  -25.3744  -31.3699   26.1491 C   0  0  0  0  0  0
  -27.0345  -30.3015   24.6207 C   0  0  0  0  0  0
  -27.6086  -32.4305   25.7516 C   0  0  0  0  0  0
  -27.5592  -37.1807   24.8474 C   0  0  0  0  0  0
  -21.4191  -29.3057   22.3677 N   0  0  0  0  0  0
  -26.4306  -37.3785   23.9412 N   0  0  0  0  0  0
  -24.6878  -31.0706   22.1085 N   0  0  0  0  0  0
  -23.4209  -28.8183   23.3006 O   0  0  0  0  0  0
  -28.2628  -26.4164   20.2171 O   0  0  0  0  0  0
  -26.5597  -34.8916   22.4684 O   0  0  0  0  0  0
  -23.5431  -32.1458   23.7463 O   0  0  0  0  0  0
  -29.2783  -21.1178   20.8250 C   0  0  0  0  0  0
  -28.9592  -20.2040   19.7858 C   0  0  0  0  0  0
  -30.1440  -20.5900   21.8138 C   0  0  0  0  0  0
  -30.2333  -18.5367   20.7426 C   0  0  0  0  0  0
  -28.0238  -20.5432   18.6397 C   0  0  0  0  0  0
  -32.0159  -21.9963   22.7797 C   0  0  0  0  0  0
  -27.5898  -24.4737   18.8402 C   0  0  0  0  0  0
  -26.8098  -24.7691   21.3481 C   0  0  0  0  0  0
  -28.5016  -22.4608   20.9928 C   0  0  0  0  0  0
  -30.6197  -21.4045   23.0077 C   0  0  0  0  0  0
  -30.8686  -17.1395   20.5963 C   0  0  0  0  0  0
  -30.0498  -15.8652   21.0219 C   0  0  0  0  0  0
  -29.0857  -23.9215   20.7256 C   0  0  0  0  0  0
  -27.9461  -24.9522   20.2791 C   0  0  0  0  0  0
  -29.4366  -18.9399   19.7608 N   0  0  0  0  0  0
  -30.6089  -19.3142   21.7581 N   0  0  0  0  0  0
  -31.4660  -12.4065   19.1569 H   0  0  0  0  0  0
  -30.3035  -11.3404   19.8888 H   0  0  0  0  0  0
  -29.7576  -11.7564   17.4663 H   0  0  0  0  0  0
  -29.6681  -13.4749   17.7675 H   0  0  0  0  0  0
  -27.8478  -11.2994   18.8555 H   0  0  0  0  0  0
  -27.3767  -12.5962   17.7898 H   0  0  0  0  0  0
  -27.6740  -14.2588   19.5224 H   0  0  0  0  0  0
  -28.6799  -12.0838   21.4187 H   0  0  0  0  0  0
  -28.4649  -13.7668   21.8177 H   0  0  0  0  0  0
  -25.2770   -9.5680   22.4757 H   0  0  0  0  0  0
  -23.9996   -7.4634   22.7466 H   0  0  0  0  0  0
  -21.0846   -8.8797   19.8941 H   0  0  0  0  0  0
  -22.3721  -10.9685   19.6157 H   0  0  0  0  0  0
  -21.2010   -7.6147   23.9731 H   0  0  0  0  0  0
  -21.1481   -6.0514   25.9084 H   0  0  0  0  0  0
  -22.0593   -2.7610   23.2846 H   0  0  0  0  0  0
  -22.4095  -11.9895   22.4813 H   0  0  0  0  0  0
  -21.1106  -13.1262   22.2595 H   0  0  0  0  0  0
  -24.6648  -15.8486   20.5328 H   0  0  0  0  0  0
  -26.2862  -15.6337   20.1093 H   0  0  0  0  0  0
  -26.7187  -32.5484   23.1166 H   0  0  0  0  0  0
  -25.0134  -33.9767   25.0510 H   0  0  0  0  0  0
  -22.7091  -31.3226   21.4291 H   0  0  0  0  0  0
  -23.3773  -35.9617   23.3306 H   0  0  0  0  0  0
  -24.3597  -36.8895   22.2049 H   0  0  0  0  0  0
  -23.7245  -37.6499   23.6635 H   0  0  0  0  0  0
  -26.1072  -31.5728   20.6315 H   0  0  0  0  0  0
  -26.8409  -30.8319   22.0246 H   0  0  0  0  0  0
  -28.0928  -28.9545   21.2363 H   0  0  0  0  0  0
  -25.8580  -26.0642   18.8869 H   0  0  0  0  0  0
  -23.9495  -27.4148   18.9447 H   0  0  0  0  0  0
  -23.7370  -30.6475   19.4174 H   0  0  0  0  0  0
  -22.7476  -29.2889   19.8614 H   0  0  0  0  0  0
  -25.1299  -36.1965   25.0833 H   0  0  0  0  0  0
  -20.9993  -28.3285   24.1408 H   0  0  0  0  0  0
  -20.5718  -26.2317   23.3634 H   0  0  0  0  0  0
  -21.6669  -26.7457   22.1217 H   0  0  0  0  0  0
  -19.6947  -25.6271   21.1280 H   0  0  0  0  0  0
  -19.6714  -27.3163   20.6746 H   0  0  0  0  0  0
  -17.4237  -26.6655   21.4035 H   0  0  0  0  0  0
  -18.0361  -26.0070   22.9043 H   0  0  0  0  0  0
  -19.7933  -30.7279   24.2272 H   0  0  0  0  0  0
  -17.5012  -31.6269   24.5155 H   0  0  0  0  0  0
  -15.5360  -30.2970   23.7663 H   0  0  0  0  0  0
  -15.8693  -28.0807   22.7082 H   0  0  0  0  0  0
  -24.5946  -30.7017   25.7815 H   0  0  0  0  0  0
  -24.8901  -32.2849   26.4911 H   0  0  0  0  0  0
  -25.8078  -30.8885   27.0268 H   0  0  0  0  0  0
  -26.2927  -29.6774   24.1211 H   0  0  0  0  0  0
  -27.4035  -29.7250   25.4702 H   0  0  0  0  0  0
  -27.8803  -30.4324   23.9452 H   0  0  0  0  0  0
  -27.2731  -33.3621   26.2083 H   0  0  0  0  0  0
  -28.3884  -32.6835   25.0318 H   0  0  0  0  0  0
  -28.0761  -31.8430   26.5429 H   0  0  0  0  0  0
  -28.2616  -38.0099   24.7522 H   0  0  0  0  0  0
  -28.1084  -36.2633   24.6304 H   0  0  0  0  0  0
  -27.2304  -37.1459   25.8875 H   0  0  0  0  0  0
  -20.9366  -29.8766   21.6880 H   0  0  0  0  0  0
  -26.0197  -38.2868   24.1388 H   0  0  0  0  0  0
  -26.9987  -20.6595   18.9920 H   0  0  0  0  0  0
  -28.0224  -19.7602   17.8809 H   0  0  0  0  0  0
  -28.3392  -21.4639   18.1534 H   0  0  0  0  0  0
  -32.3466  -22.5615   23.6508 H   0  0  0  0  0  0
  -32.0196  -22.6684   21.9217 H   0  0  0  0  0  0
  -32.7466  -21.2090   22.5930 H   0  0  0  0  0  0
  -28.2666  -23.7114   18.4586 H   0  0  0  0  0  0
  -27.6700  -25.2770   18.1077 H   0  0  0  0  0  0
  -26.5910  -24.0394   18.7870 H   0  0  0  0  0  0
  -26.3418  -23.7874   21.3214 H   0  0  0  0  0  0
  -25.9610  -25.4410   21.2888 H   0  0  0  0  0  0
  -27.2157  -24.9057   22.3510 H   0  0  0  0  0  0
  -28.0908  -22.4475   22.0024 H   0  0  0  0  0  0
  -27.6171  -22.3433   20.3746 H   0  0  0  0  0  0
  -30.6366  -20.7611   23.8879 H   0  0  0  0  0  0
  -29.9193  -22.2028   23.2466 H   0  0  0  0  0  0
  -31.8163  -17.1427   21.1364 H   0  0  0  0  0  0
  -31.1443  -17.0448   19.5446 H   0  0  0  0  0  0
  -29.0530  -15.9312   20.5877 H   0  0  0  0  0  0
  -29.9271  -15.8399   22.1041 H   0  0  0  0  0  0
  -29.8674  -23.8822   19.9661 H   0  0  0  0  0  0
  -29.5859  -24.2772   21.6268 H   0  0  0  0  0  0
  1 25  1  0  0  0
  1 30  2  0  0  0
  1 82  1  0  0  0
  2  3  1  0  0  0
  2 25  1  0  0  0
  2 87  1  0  0  0
  2 88  1  0  0  0
  3  4  1  0  0  0
  3 89  1  0  0  0
  3 90  1  0  0  0
  4  5  1  0  0  0
  4 91  1  0  0  0
  4 92  1  0  0  0
  5  6  1  0  0  0
  5 26  1  0  0  0
  5 93  1  0  0  0
  6 25  1  0  0  0
  6 94  1  0  0  0
  6 95  1  0  0  0
  7  8  2  0  0  0
  7 26  1  0  0  0
  7 29  1  0  0  0
  8  9  1  0  0  0
  8 22  1  0  0  0
  9 10  1  0  0  0
  9 27  2  0  0  0
 10 11  2  0  0  0
 10 15  1  0  0  0
 11 12  1  0  0  0
 11 96  1  0  0  0
 12 13  2  0  0  0
 12 97  1  0  0  0
 13 14  1  0  0  0
 13 31  1  0  0  0
 14 15  2  0  0  0
 14 98  1  0  0  0
 15 99  1  0  0  0
 16 17  2  0  0  0
 16 21  1  0  0  0
 16 31  1  0  0  0
 17 18  1  0  0  0
 17100  1  0  0  0
 18 19  2  0  0  0
 18101  1  0  0  0
 19 20  1  0  0  0
 19 24  1  0  0  0
 20 21  2  0  0  0
 20102  1  0  0  0
 21 23  1  0  0  0
 22 28  1  0  0  0
 22 32  2  0  0  0
 26 27  1  0  0  0
 28103  1  0  0  0
 28104  1  0  0  0
 29105  1  0  0  0
 29106  1  0  0  0
 33 34  1  0  0  0
 33 66  1  0  0  0
 33 70  2  0  0  0
 34 36  1  0  0  0
 34 59  1  0  0  0
 34107  1  0  0  0
 35 44  2  0  0  0
 35 45  1  0  0  0
 35 68  1  0  0  0
 36 56  1  0  0  0
 36108  1  0  0  0
 37 39  1  0  0  0
 37 47  1  0  0  0
 37 66  1  0  0  0
 37109  1  0  0  0
 38 43  2  0  0  0
 38 46  1  0  0  0
 38 47  1  0  0  0
 39 64  1  0  0  0
 39 67  2  0  0  0
 40 52  1  0  0  0
 40 53  2  0  0  0
 40 58  1  0  0  0
 41110  1  0  0  0
 41111  1  0  0  0
 41112  1  0  0  0
 41 48  1  0  0  0
 42 43  1  0  0  0
 42 66  1  0  0  0
 42113  1  0  0  0
 42114  1  0  0  0
 43 44  1  0  0  0
 44115  1  0  0  0
 45 46  2  0  0  0
 45116  1  0  0  0
 46117  1  0  0  0
 47118  1  0  0  0
 47119  1  0  0  0
 48 56  1  0  0  0
 48 65  1  0  0  0
 48120  1  0  0  0
 49 50  1  0  0  0
 49 53  1  0  0  0
 49 64  1  0  0  0
 49121  1  0  0  0
 50 51  1  0  0  0
 50122  1  0  0  0
 50123  1  0  0  0
 51 52  1  0  0  0
 51124  1  0  0  0
 51125  1  0  0  0
 52126  1  0  0  0
 52127  1  0  0  0
 53 54  1  0  0  0
 54 55  2  0  0  0
 54128  1  0  0  0
 55 57  1  0  0  0
 55129  1  0  0  0
 56 69  2  0  0  0
 57 58  2  0  0  0
 57130  1  0  0  0
 58131  1  0  0  0
 59 60  1  0  0  0
 59 61  1  0  0  0
 59 62  1  0  0  0
 60132  1  0  0  0
 60133  1  0  0  0
 60134  1  0  0  0
 61135  1  0  0  0
 61136  1  0  0  0
 61137  1  0  0  0
 62138  1  0  0  0
 62139  1  0  0  0
 62140  1  0  0  0
 63 65  1  0  0  0
 63141  1  0  0  0
 63142  1  0  0  0
 63143  1  0  0  0
 64144  1  0  0  0
 65145  1  0  0  0
 68 84  1  0  0  0
 71 72  2  0  0  0
 71 73  1  0  0  0
 71 79  1  0  0  0
 72 75  1  0  0  0
 72 85  1  0  0  0
 73 80  1  0  0  0
 73 86  2  0  0  0
 74 81  1  0  0  0
 74 85  2  0  0  0
 74 86  1  0  0  0
 75146  1  0  0  0
 75147  1  0  0  0
 75148  1  0  0  0
 76 80  1  0  0  0
 76149  1  0  0  0
 76150  1  0  0  0
 76151  1  0  0  0
 77152  1  0  0  0
 77153  1  0  0  0
 77154  1  0  0  0
 77 84  1  0  0  0
 78 84  1  0  0  0
 78155  1  0  0  0
 78156  1  0  0  0
 78157  1  0  0  0
 79 83  1  0  0  0
 79158  1  0  0  0
 79159  1  0  0  0
 80160  1  0  0  0
 80161  1  0  0  0
 81 82  1  0  0  0
 81162  1  0  0  0
 81163  1  0  0  0
 82164  1  0  0  0
 82165  1  0  0  0
 83 84  1  0  0  0
 83166  1  0  0  0
 83167  1  0  0  0
M  ISO  4   1 100  68 101  82 100  84 101
M  END
> <chiral flag>
0

> <version>
0

> <s_m_source_file>
/data/baiqing/PycharmProjects/Reinvent-master-3.2/result/LINK_invent/BTK/process_docking_weight1_custom_sum_contain_oxygen_bond_distance_aromatic_linkinvent_7_9_3/rearranged_h_0072.sdf

> <i_m_source_file_index>
30

> <r_mmod_Potential_Energy-OPLS-2005>
-384.290557861328

> <r_mmod_Stretch_Energy-OPLS-2005>
74.2815856933594

> <r_mmod_Bend_Energy-OPLS-2005>
154.691940307617

> <r_mmod_Torsional_Energy-OPLS-2005>
184.408309936523

> <r_mmod_Improper_Torsional_Energy-OPLS-2005>
5.75895595550537

> <r_mmod_Van_der_Waal_Energy-OPLS-2005>
195.529907226562

> <r_mmod_Electrostatic_Energy-OPLS-2005>
-835.833312988281

> <r_mmod_Solvation_Energy-OPLS-2005>
-208.32991027832

> <b_mmod_Minimization_Converged-OPLS-2005>
0

> <r_mmod_RMS_Derivative-OPLS-2005>
1.07738828659058

$$$$
31
                    3D
 Structure written by MMmdl.
166174  0  0  1  0            999 V2000
  -30.6721  -14.4856   20.5871 C   0  0  0  0  0  0
  -30.4372  -12.3202   19.4222 C   0  0  0  0  0  0
  -29.5058  -12.5185   18.2084 C   0  0  0  0  0  0
  -28.0235  -12.3723   18.6129 C   0  0  0  0  0  0
  -27.6650  -13.2012   19.8759 C   0  0  2  0  0  0
  -28.7044  -12.9634   20.9943 C   0  0  0  0  0  0
  -25.2623  -13.8154   20.5666 C   0  0  0  0  0  0
  -24.1856  -13.0450   20.9173 C   0  0  0  0  0  0
  -24.6396  -11.6907   20.8742 C   0  0  0  0  0  0
  -23.9040  -10.4305   21.0405 C   0  0  0  0  0  0
  -24.3593   -9.4224   21.9180 C   0  0  0  0  0  0
  -23.6281   -8.2252   22.0743 C   0  0  0  0  0  0
  -22.4265   -8.0285   21.3531 C   0  0  0  0  0  0
  -21.9887   -9.0258   20.4641 C   0  0  0  0  0  0
  -22.7213  -10.2142   20.3051 C   0  0  0  0  0  0
  -21.6863   -6.0740   22.5281 C   0  0  0  0  0  0
  -21.4022   -6.5639   23.8216 C   0  0  0  0  0  0
  -21.3654   -5.6787   24.9174 C   0  0  0  0  0  0
  -21.6047   -4.3050   24.7228 C   0  0  0  0  0  0
  -21.8818   -3.8143   23.4350 C   0  0  0  0  0  0
  -21.9195   -4.6962   22.3408 C   0  0  0  0  0  0
  -22.7877  -13.5267   21.1822 C   0  0  0  0  0  0
  -22.1661   -4.2149   21.0981 F   0  0  0  0  0  0
  -21.5614   -3.4533   25.7737 F   0  0  0  0  0  0
  -30.0368  -13.2893   20.4517 N   0  0  0  0  0  0
  -26.3044  -12.9298   20.3358 N   0  0  0  0  0  0
  -25.9317  -11.6469   20.5749 N   0  0  0  0  0  0
  -22.0487  -12.8292   22.0379 N   0  0  0  0  0  0
  -25.4400  -15.1871   20.4043 N   0  0  0  0  0  0
  -31.7919  -14.7161   20.1207 O   0  0  0  0  0  0
  -21.6629   -6.8884   21.4244 O   0  0  0  0  0  0
  -22.3571  -14.5569   20.6653 O   0  0  0  0  0  0
  -24.6155  -31.8663   23.2093 C   0  0  0  0  0  0
  -25.9032  -32.4819   23.8406 C   0  0  1  0  0  0
  -27.2264  -27.4109   20.1055 C   0  0  0  0  0  0
  -25.5884  -33.8616   24.2322 N   0  0  0  0  0  0
  -23.4073  -30.4897   21.5487 C   0  0  2  0  0  0
  -24.8562  -28.9586   20.1090 C   0  0  0  0  0  0
  -22.7428  -29.4644   22.4967 C   0  0  0  0  0  0
  -18.0268  -28.1397   22.8492 C   0  0  0  0  0  0
  -24.1485  -36.7317   23.2639 C   0  0  0  0  0  0
  -25.9397  -30.8244   21.3693 C   0  0  0  0  0  0
  -26.0173  -29.4585   20.7129 C   0  0  0  0  0  0
  -27.2093  -28.6925   20.7083 C   0  0  0  0  0  0
  -26.0549  -26.9415   19.4738 C   0  0  0  0  0  0
  -24.8711  -27.7018   19.4819 C   0  0  0  0  0  0
  -23.6173  -29.8246   20.1621 C   0  0  0  0  0  0
  -25.4109  -36.3114   24.0335 C   0  0  1  0  0  0
  -20.5866  -28.3674   23.1311 C   0  0  2  0  0  0
  -20.6765  -26.9409   22.5412 C   0  0  0  0  0  0
  -19.5739  -26.6401   21.5213 C   0  0  0  0  0  0
  -18.1921  -26.7942   22.1627 C   0  0  0  0  0  0
  -19.1523  -28.8851   23.2902 C   0  0  0  0  0  0
  -18.9450  -30.1461   23.8913 C   0  0  0  0  0  0
  -17.6453  -30.6596   24.0573 C   0  0  0  0  0  0
  -25.9029  -34.9473   23.5129 C   0  0  0  0  0  0
  -16.5339  -29.9104   23.6328 C   0  0  0  0  0  0
  -16.7261  -28.6522   23.0343 C   0  0  0  0  0  0
  -26.4454  -31.6613   25.0745 C   0  0  0  0  0  0
  -25.3710  -31.3727   26.1490 C   0  0  0  0  0  0
  -27.0297  -30.3058   24.6147 C   0  0  0  0  0  0
  -27.6043  -32.4336   25.7484 C   0  0  0  0  0  0
  -27.5585  -37.1815   24.8464 C   0  0  0  0  0  0
  -21.4150  -29.3038   22.3714 N   0  0  0  0  0  0
  -26.4297  -37.3795   23.9402 N   0  0  0  0  0  0
  -24.6726  -31.0742   22.1005 N   0  0  0  0  0  0
  -23.4186  -28.8170   23.3011 O   0  0  0  0  0  0
  -28.3471  -26.6011   20.1520 O   0  0  0  0  0  0
  -26.5600  -34.8918   22.4698 O   0  0  0  0  0  0
  -23.5335  -32.1418   23.7462 O   0  0  0  0  0  0
  -28.6377  -19.8483   20.1468 C   0  0  0  0  0  0
  -29.8909  -19.2079   19.9683 C   0  0  0  0  0  0
  -29.6076  -21.9358   19.8492 C   0  0  0  0  0  0
  -30.8814  -21.3049   19.7539 C   0  0  0  0  0  0
  -32.6098  -22.1190   18.0792 C   0  0  0  0  0  0
  -28.9430  -17.7191   17.4667 C   0  0  0  0  0  0
  -29.3662  -23.4387   19.6016 C   0  0  0  0  0  0
  -32.1700  -22.0861   19.5486 C   0  0  0  0  0  0
  -28.9306  -17.0900   18.8680 C   0  0  0  0  0  0
  -29.2499  -24.3136   20.8744 C   0  0  0  0  0  0
  -30.1363  -16.9130   21.1816 C   0  0  0  0  0  0
  -28.1079  -25.3655   20.8657 C   0  0  0  0  0  0
  -30.0107  -17.6708   19.8222 C   0  0  2  0  0  0
  -28.4941  -21.1977   20.0841 N   0  0  0  0  0  0
  -31.0193  -19.9502   19.8075 N   0  0  0  0  0  0
  -29.9079  -15.4539   21.1231 N   0  0  0  0  0  0
  -31.4798  -12.4377   19.1217 H   0  0  0  0  0  0
  -30.3516  -11.3044   19.8106 H   0  0  0  0  0  0
  -29.7537  -11.8030   17.4240 H   0  0  0  0  0  0
  -29.6748  -13.5094   17.7832 H   0  0  0  0  0  0
  -27.8308  -11.3154   18.7993 H   0  0  0  0  0  0
  -27.3778  -12.6574   17.7812 H   0  0  0  0  0  0
  -27.7092  -14.2512   19.5884 H   0  0  0  0  0  0
  -28.6867  -11.9184   21.3111 H   0  0  0  0  0  0
  -28.4534  -13.5360   21.8882 H   0  0  0  0  0  0
  -25.2738   -9.5718   22.4746 H   0  0  0  0  0  0
  -24.0007   -7.4646   22.7458 H   0  0  0  0  0  0
  -21.0811   -8.8776   19.8952 H   0  0  0  0  0  0
  -22.3665  -10.9673   19.6151 H   0  0  0  0  0  0
  -21.2018   -7.6145   23.9732 H   0  0  0  0  0  0
  -21.1471   -6.0505   25.9084 H   0  0  0  0  0  0
  -22.0600   -2.7607   23.2845 H   0  0  0  0  0  0
  -22.4040  -11.9969   22.4849 H   0  0  0  0  0  0
  -21.1105  -13.1357   22.2510 H   0  0  0  0  0  0
  -24.6790  -15.8510   20.4991 H   0  0  0  0  0  0
  -26.2961  -15.6130   20.0745 H   0  0  0  0  0  0
  -26.7107  -32.5510   23.1167 H   0  0  0  0  0  0
  -25.0037  -33.9789   25.0474 H   0  0  0  0  0  0
  -22.6953  -31.3062   21.4086 H   0  0  0  0  0  0
  -23.3743  -35.9654   23.3315 H   0  0  0  0  0  0
  -24.3576  -36.8915   22.2051 H   0  0  0  0  0  0
  -23.7238  -37.6529   23.6640 H   0  0  0  0  0  0
  -26.0578  -31.5898   20.6011 H   0  0  0  0  0  0
  -26.8265  -30.8745   21.9901 H   0  0  0  0  0  0
  -28.1010  -29.0638   21.1932 H   0  0  0  0  0  0
  -26.0473  -25.9799   18.9805 H   0  0  0  0  0  0
  -23.9824  -27.3179   19.0005 H   0  0  0  0  0  0
  -23.7222  -30.5994   19.4014 H   0  0  0  0  0  0
  -22.7424  -29.2412   19.8694 H   0  0  0  0  0  0
  -25.1285  -36.1992   25.0829 H   0  0  0  0  0  0
  -20.9963  -28.3250   24.1429 H   0  0  0  0  0  0
  -20.5676  -26.2279   23.3601 H   0  0  0  0  0  0
  -21.6634  -26.7461   22.1197 H   0  0  0  0  0  0
  -19.6896  -25.6316   21.1240 H   0  0  0  0  0  0
  -19.6687  -27.3213   20.6748 H   0  0  0  0  0  0
  -17.4189  -26.6686   21.4031 H   0  0  0  0  0  0
  -18.0324  -26.0093   22.9036 H   0  0  0  0  0  0
  -19.7923  -30.7281   24.2290 H   0  0  0  0  0  0
  -17.5001  -31.6272   24.5185 H   0  0  0  0  0  0
  -15.5340  -30.3010   23.7651 H   0  0  0  0  0  0
  -15.8659  -28.0856   22.7042 H   0  0  0  0  0  0
  -24.5859  -30.7104   25.7818 H   0  0  0  0  0  0
  -24.8921  -32.2883   26.4972 H   0  0  0  0  0  0
  -25.8044  -30.8860   27.0234 H   0  0  0  0  0  0
  -26.2864  -29.6816   24.1171 H   0  0  0  0  0  0
  -27.4034  -29.7299   25.4623 H   0  0  0  0  0  0
  -27.8705  -30.4393   23.9335 H   0  0  0  0  0  0
  -27.2687  -33.3625   26.2106 H   0  0  0  0  0  0
  -28.3809  -32.6919   25.0272 H   0  0  0  0  0  0
  -28.0762  -31.8437   26.5350 H   0  0  0  0  0  0
  -28.2617  -38.0103   24.7506 H   0  0  0  0  0  0
  -28.1069  -36.2633   24.6298 H   0  0  0  0  0  0
  -27.2297  -37.1476   25.8866 H   0  0  0  0  0  0
  -20.9309  -29.8766   21.6945 H   0  0  0  0  0  0
  -26.0191  -38.2873   24.1404 H   0  0  0  0  0  0
  -27.7265  -19.2811   20.2691 H   0  0  0  0  0  0
  -33.5346  -22.6851   17.9669 H   0  0  0  0  0  0
  -31.8521  -22.5822   17.4469 H   0  0  0  0  0  0
  -32.7903  -21.1134   17.6995 H   0  0  0  0  0  0
  -28.6749  -18.7753   17.4891 H   0  0  0  0  0  0
  -28.2385  -17.2151   16.8043 H   0  0  0  0  0  0
  -29.9318  -17.6376   17.0161 H   0  0  0  0  0  0
  -28.4461  -23.5233   19.0222 H   0  0  0  0  0  0
  -30.1372  -23.8437   18.9471 H   0  0  0  0  0  0
  -32.9549  -21.6283   20.1517 H   0  0  0  0  0  0
  -32.0663  -23.0988   19.9396 H   0  0  0  0  0  0
  -29.0826  -16.0210   18.7328 H   0  0  0  0  0  0
  -27.9378  -17.1956   19.3072 H   0  0  0  0  0  0
  -30.2089  -24.7666   21.1258 H   0  0  0  0  0  0
  -29.0270  -23.6392   21.7027 H   0  0  0  0  0  0
  -29.3901  -17.3073   21.8716 H   0  0  0  0  0  0
  -31.1041  -17.1154   21.6417 H   0  0  0  0  0  0
  -27.9127  -25.6408   21.9043 H   0  0  0  0  0  0
  -27.1990  -24.8618   20.5320 H   0  0  0  0  0  0
  -30.9599  -17.4939   19.3135 H   0  0  0  0  0  0
  -29.0126  -15.1418   21.4690 H   0  0  0  0  0  0
  1 25  1  0  0  0
  1 30  2  0  0  0
  1 86  1  0  0  0
  2  3  1  0  0  0
  2 25  1  0  0  0
  2 87  1  0  0  0
  2 88  1  0  0  0
  3  4  1  0  0  0
  3 89  1  0  0  0
  3 90  1  0  0  0
  4  5  1  0  0  0
  4 91  1  0  0  0
  4 92  1  0  0  0
  5  6  1  0  0  0
  5 26  1  0  0  0
  5 93  1  0  0  0
  6 25  1  0  0  0
  6 94  1  0  0  0
  6 95  1  0  0  0
  7  8  2  0  0  0
  7 26  1  0  0  0
  7 29  1  0  0  0
  8  9  1  0  0  0
  8 22  1  0  0  0
  9 10  1  0  0  0
  9 27  2  0  0  0
 10 11  2  0  0  0
 10 15  1  0  0  0
 11 12  1  0  0  0
 11 96  1  0  0  0
 12 13  2  0  0  0
 12 97  1  0  0  0
 13 14  1  0  0  0
 13 31  1  0  0  0
 14 15  2  0  0  0
 14 98  1  0  0  0
 15 99  1  0  0  0
 16 17  2  0  0  0
 16 21  1  0  0  0
 16 31  1  0  0  0
 17 18  1  0  0  0
 17100  1  0  0  0
 18 19  2  0  0  0
 18101  1  0  0  0
 19 20  1  0  0  0
 19 24  1  0  0  0
 20 21  2  0  0  0
 20102  1  0  0  0
 21 23  1  0  0  0
 22 28  1  0  0  0
 22 32  2  0  0  0
 26 27  1  0  0  0
 28103  1  0  0  0
 28104  1  0  0  0
 29105  1  0  0  0
 29106  1  0  0  0
 33 34  1  0  0  0
 33 66  1  0  0  0
 33 70  2  0  0  0
 34 36  1  0  0  0
 34 59  1  0  0  0
 34107  1  0  0  0
 35 44  2  0  0  0
 35 45  1  0  0  0
 35 68  1  0  0  0
 36 56  1  0  0  0
 36108  1  0  0  0
 37 39  1  0  0  0
 37 47  1  0  0  0
 37 66  1  0  0  0
 37109  1  0  0  0
 38 43  2  0  0  0
 38 46  1  0  0  0
 38 47  1  0  0  0
 39 64  1  0  0  0
 39 67  2  0  0  0
 40 52  1  0  0  0
 40 53  2  0  0  0
 40 58  1  0  0  0
 41110  1  0  0  0
 41111  1  0  0  0
 41112  1  0  0  0
 41 48  1  0  0  0
 42 43  1  0  0  0
 42 66  1  0  0  0
 42113  1  0  0  0
 42114  1  0  0  0
 43 44  1  0  0  0
 44115  1  0  0  0
 45 46  2  0  0  0
 45116  1  0  0  0
 46117  1  0  0  0
 47118  1  0  0  0
 47119  1  0  0  0
 48 56  1  0  0  0
 48 65  1  0  0  0
 48120  1  0  0  0
 49 50  1  0  0  0
 49 53  1  0  0  0
 49 64  1  0  0  0
 49121  1  0  0  0
 50 51  1  0  0  0
 50122  1  0  0  0
 50123  1  0  0  0
 51 52  1  0  0  0
 51124  1  0  0  0
 51125  1  0  0  0
 52126  1  0  0  0
 52127  1  0  0  0
 53 54  1  0  0  0
 54 55  2  0  0  0
 54128  1  0  0  0
 55 57  1  0  0  0
 55129  1  0  0  0
 56 69  2  0  0  0
 57 58  2  0  0  0
 57130  1  0  0  0
 58131  1  0  0  0
 59 60  1  0  0  0
 59 61  1  0  0  0
 59 62  1  0  0  0
 60132  1  0  0  0
 60133  1  0  0  0
 60134  1  0  0  0
 61135  1  0  0  0
 61136  1  0  0  0
 61137  1  0  0  0
 62138  1  0  0  0
 62139  1  0  0  0
 62140  1  0  0  0
 63 65  1  0  0  0
 63141  1  0  0  0
 63142  1  0  0  0
 63143  1  0  0  0
 64144  1  0  0  0
 65145  1  0  0  0
 68 82  1  0  0  0
 71 72  2  0  0  0
 71 84  1  0  0  0
 71146  1  0  0  0
 72 83  1  0  0  0
 72 85  1  0  0  0
 73 74  1  0  0  0
 73 77  1  0  0  0
 73 84  2  0  0  0
 74 78  1  0  0  0
 74 85  2  0  0  0
 75 78  1  0  0  0
 75147  1  0  0  0
 75148  1  0  0  0
 75149  1  0  0  0
 76 79  1  0  0  0
 76150  1  0  0  0
 76151  1  0  0  0
 76152  1  0  0  0
 77 80  1  0  0  0
 77153  1  0  0  0
 77154  1  0  0  0
 78155  1  0  0  0
 78156  1  0  0  0
 79157  1  0  0  0
 79158  1  0  0  0
 79 83  1  0  0  0
 80 82  1  0  0  0
 80159  1  0  0  0
 80160  1  0  0  0
 81 83  1  0  0  0
 81 86  1  0  0  0
 81161  1  0  0  0
 81162  1  0  0  0
 82163  1  0  0  0
 82164  1  0  0  0
 83165  1  0  0  0
 86166  1  0  0  0
M  ISO  4   1 100  68 101  82 101  86 100
M  END
> <chiral flag>
0

> <version>
0

> <s_m_source_file>
/data/baiqing/PycharmProjects/Reinvent-master-3.2/result/LINK_invent/BTK/process_docking_weight1_custom_sum_contain_oxygen_bond_distance_aromatic_linkinvent_7_9_3/rearranged_h_0072.sdf

> <i_m_source_file_index>
31

> <r_mmod_Potential_Energy-OPLS-2005>
-12.4698762893677

> <r_mmod_Stretch_Energy-OPLS-2005>
45.6960411071777

> <r_mmod_Bend_Energy-OPLS-2005>
106.783638000488

> <r_mmod_Torsional_Energy-OPLS-2005>
216.718185424805

> <r_mmod_Improper_Torsional_Energy-OPLS-2005>
4.43203496932983

> <r_mmod_Van_der_Waal_Energy-OPLS-2005>
147.920654296875

> <r_mmod_Electrostatic_Energy-OPLS-2005>
-333.963714599609

> <r_mmod_Solvation_Energy-OPLS-2005>
-217.699829101562

> <b_mmod_Minimization_Converged-OPLS-2005>
0

> <r_mmod_RMS_Derivative-OPLS-2005>
2.28284096717834

$$$$
32
                    3D
 Structure written by MMmdl.
164172  0  0  1  0            999 V2000
  -30.6330  -14.5976   20.5534 C   0  0  0  0  0  0
  -30.4411  -12.3775   19.4473 C   0  0  0  0  0  0
  -29.5153  -12.5432   18.2229 C   0  0  0  0  0  0
  -28.0293  -12.3860   18.6172 C   0  0  0  0  0  0
  -27.6590  -13.2174   19.8753 C   0  0  2  0  0  0
  -28.7026  -13.0263   20.9977 C   0  0  0  0  0  0
  -25.2609  -13.8170   20.5678 C   0  0  0  0  0  0
  -24.1864  -13.0442   20.9149 C   0  0  0  0  0  0
  -24.6428  -11.6910   20.8698 C   0  0  0  0  0  0
  -23.9067  -10.4299   21.0337 C   0  0  0  0  0  0
  -24.3608   -9.4229   21.9166 C   0  0  0  0  0  0
  -23.6302   -8.2242   22.0719 C   0  0  0  0  0  0
  -22.4290   -8.0258   21.3493 C   0  0  0  0  0  0
  -21.9917   -9.0246   20.4608 C   0  0  0  0  0  0
  -22.7205  -10.2148   20.3023 C   0  0  0  0  0  0
  -21.6876   -6.0749   22.5281 C   0  0  0  0  0  0
  -21.4017   -6.5643   23.8220 C   0  0  0  0  0  0
  -21.3658   -5.6777   24.9168 C   0  0  0  0  0  0
  -21.6057   -4.3045   24.7197 C   0  0  0  0  0  0
  -21.8831   -3.8147   23.4319 C   0  0  0  0  0  0
  -21.9192   -4.6974   22.3385 C   0  0  0  0  0  0
  -22.7893  -13.5239   21.1810 C   0  0  0  0  0  0
  -22.1665   -4.2150   21.0962 F   0  0  0  0  0  0
  -21.5635   -3.4521   25.7719 F   0  0  0  0  0  0
  -30.0247  -13.3729   20.4527 N   0  0  0  0  0  0
  -26.3030  -12.9335   20.3322 N   0  0  0  0  0  0
  -25.9359  -11.6476   20.5727 N   0  0  0  0  0  0
  -22.0506  -12.8271   22.0379 N   0  0  0  0  0  0
  -25.4356  -15.1886   20.4152 N   0  0  0  0  0  0
  -31.7785  -14.7920   20.1307 O   0  0  0  0  0  0
  -21.6650   -6.8883   21.4230 O   0  0  0  0  0  0
  -22.3553  -14.5516   20.6630 O   0  0  0  0  0  0
  -24.6155  -31.8646   23.2045 C   0  0  0  0  0  0
  -25.9028  -32.4792   23.8348 C   0  0  1  0  0  0
  -27.2265  -27.3572   20.1732 C   0  0  0  0  0  0
  -25.5851  -33.8595   24.2268 N   0  0  0  0  0  0
  -23.4066  -30.4821   21.5491 C   0  0  2  0  0  0
  -24.8604  -28.9361   20.1232 C   0  0  0  0  0  0
  -22.7398  -29.4650   22.5031 C   0  0  0  0  0  0
  -18.0256  -28.1376   22.8512 C   0  0  0  0  0  0
  -24.1465  -36.7276   23.2655 C   0  0  0  0  0  0
  -25.9421  -30.8126   21.3692 C   0  0  0  0  0  0
  -26.0208  -29.4396   20.7238 C   0  0  0  0  0  0
  -27.2120  -28.6624   20.7402 C   0  0  0  0  0  0
  -26.0591  -26.8954   19.5354 C   0  0  0  0  0  0
  -24.8803  -27.6674   19.5135 C   0  0  0  0  0  0
  -23.6171  -29.7999   20.1702 C   0  0  0  0  0  0
  -25.4099  -36.3092   24.0336 C   0  0  1  0  0  0
  -20.5840  -28.3671   23.1350 C   0  0  2  0  0  0
  -20.6769  -26.9422   22.5434 C   0  0  0  0  0  0
  -19.5747  -26.6401   21.5227 C   0  0  0  0  0  0
  -18.1920  -26.7934   22.1636 C   0  0  0  0  0  0
  -19.1516  -28.8835   23.2913 C   0  0  0  0  0  0
  -18.9445  -30.1445   23.8912 C   0  0  0  0  0  0
  -17.6454  -30.6590   24.0555 C   0  0  0  0  0  0
  -25.9052  -34.9463   23.5117 C   0  0  0  0  0  0
  -16.5342  -29.9101   23.6321 C   0  0  0  0  0  0
  -16.7249  -28.6514   23.0362 C   0  0  0  0  0  0
  -26.4442  -31.6570   25.0695 C   0  0  0  0  0  0
  -25.3661  -31.3738   26.1421 C   0  0  0  0  0  0
  -27.0284  -30.2985   24.6141 C   0  0  0  0  0  0
  -27.5970  -32.4351   25.7462 C   0  0  0  0  0  0
  -27.5561  -37.1806   24.8462 C   0  0  0  0  0  0
  -21.4129  -29.3016   22.3749 N   0  0  0  0  0  0
  -26.4272  -37.3797   23.9405 N   0  0  0  0  0  0
  -24.6718  -31.0702   22.0980 N   0  0  0  0  0  0
  -23.4176  -28.8236   23.3127 O   0  0  0  0  0  0
  -28.3567  -26.5447   20.1380 O   0  0  0  0  0  0
  -26.5678  -34.8946   22.4720 O   0  0  0  0  0  0
  -23.5341  -32.1445   23.7406 O   0  0  0  0  0  0
  -26.9983  -23.7460   21.0997 C   0  0  0  0  0  0
  -28.2557  -22.0569   21.0716 C   0  0  0  0  0  0
  -26.7856  -19.4597   20.1415 C   0  0  0  0  0  0
  -28.9546  -19.5228   18.9410 C   0  0  0  0  0  0
  -30.2469  -25.7256   21.2661 C   0  0  0  0  0  0
  -28.1983  -26.2232   22.5979 C   0  0  0  0  0  0
  -28.7744  -20.5943   21.2811 C   0  0  0  0  0  0
  -29.9977  -17.1026   20.7802 C   0  0  0  0  0  0
  -28.3237  -19.3703   20.3382 C   0  0  0  0  0  0
  -28.7071  -25.6705   21.2363 C   0  0  0  0  0  0
  -28.6062  -17.8616   20.8695 C   0  0  0  0  0  0
  -26.9299  -22.4100   21.1486 N   0  0  0  0  0  0
  -29.0755  -23.1304   21.0159 N   0  0  0  0  0  0
  -28.2372  -24.2411   21.0492 N   0  0  0  0  0  0
  -29.8410  -15.6217   20.9646 N   0  0  0  0  0  0
  -27.8310  -17.0520   20.1387 F   0  0  0  0  0  0
  -28.1827  -17.7691   22.1316 F   0  0  0  0  0  0
  -31.4826  -12.5069   19.1492 H   0  0  0  0  0  0
  -30.3693  -11.3652   19.8521 H   0  0  0  0  0  0
  -29.7822  -11.8273   17.4441 H   0  0  0  0  0  0
  -29.6679  -13.5326   17.7860 H   0  0  0  0  0  0
  -27.8440  -11.3291   18.8036 H   0  0  0  0  0  0
  -27.3906  -12.6674   17.7781 H   0  0  0  0  0  0
  -27.6933  -14.2658   19.5746 H   0  0  0  0  0  0
  -28.7084  -11.9882   21.3435 H   0  0  0  0  0  0
  -28.4521  -13.6289   21.8734 H   0  0  0  0  0  0
  -25.2743   -9.5759   22.4743 H   0  0  0  0  0  0
  -24.0035   -7.4662   22.7467 H   0  0  0  0  0  0
  -21.0854   -8.8781   19.8938 H   0  0  0  0  0  0
  -22.3657  -10.9700   19.6164 H   0  0  0  0  0  0
  -21.1997   -7.6151   23.9742 H   0  0  0  0  0  0
  -21.1479   -6.0485   25.9092 H   0  0  0  0  0  0
  -22.0601   -2.7608   23.2812 H   0  0  0  0  0  0
  -22.4029  -11.9929   22.4812 H   0  0  0  0  0  0
  -21.1129  -13.1349   22.2491 H   0  0  0  0  0  0
  -24.6813  -15.8469   20.5573 H   0  0  0  0  0  0
  -26.3118  -15.6412   20.1754 H   0  0  0  0  0  0
  -26.7122  -32.5506   23.1133 H   0  0  0  0  0  0
  -24.9867  -33.9737   25.0313 H   0  0  0  0  0  0
  -22.6963  -31.2997   21.4031 H   0  0  0  0  0  0
  -23.3768  -35.9573   23.3333 H   0  0  0  0  0  0
  -24.3535  -36.8887   22.2063 H   0  0  0  0  0  0
  -23.7195  -37.6468   23.6675 H   0  0  0  0  0  0
  -26.0653  -31.5794   20.6027 H   0  0  0  0  0  0
  -26.8250  -30.8642   21.9946 H   0  0  0  0  0  0
  -28.1047  -29.0518   21.2036 H   0  0  0  0  0  0
  -26.0626  -25.9217   19.0672 H   0  0  0  0  0  0
  -23.9932  -27.2757   19.0331 H   0  0  0  0  0  0
  -23.7025  -30.5641   19.3975 H   0  0  0  0  0  0
  -22.7470  -29.2026   19.8928 H   0  0  0  0  0  0
  -25.1292  -36.1944   25.0844 H   0  0  0  0  0  0
  -20.9928  -28.3230   24.1475 H   0  0  0  0  0  0
  -20.5702  -26.2278   23.3613 H   0  0  0  0  0  0
  -21.6643  -26.7502   22.1198 H   0  0  0  0  0  0
  -19.6922  -25.6323   21.1233 H   0  0  0  0  0  0
  -19.6676  -27.3241   20.6786 H   0  0  0  0  0  0
  -17.4197  -26.6688   21.4013 H   0  0  0  0  0  0
  -18.0314  -26.0039   22.9004 H   0  0  0  0  0  0
  -19.7930  -30.7241   24.2304 H   0  0  0  0  0  0
  -17.5019  -31.6296   24.5150 H   0  0  0  0  0  0
  -15.5339  -30.3024   23.7633 H   0  0  0  0  0  0
  -15.8651  -28.0829   22.7092 H   0  0  0  0  0  0
  -24.5760  -30.7202   25.7712 H   0  0  0  0  0  0
  -24.8974  -32.2953   26.4879 H   0  0  0  0  0  0
  -25.7936  -30.8824   27.0169 H   0  0  0  0  0  0
  -26.2899  -29.6766   24.1080 H   0  0  0  0  0  0
  -27.3899  -29.7164   25.4633 H   0  0  0  0  0  0
  -27.8779  -30.4254   23.9420 H   0  0  0  0  0  0
  -27.2498  -33.3603   26.2063 H   0  0  0  0  0  0
  -28.3726  -32.7016   25.0265 H   0  0  0  0  0  0
  -28.0715  -31.8508   26.5356 H   0  0  0  0  0  0
  -28.2600  -38.0088   24.7523 H   0  0  0  0  0  0
  -28.1032  -36.2630   24.6272 H   0  0  0  0  0  0
  -27.2271  -37.1427   25.8862 H   0  0  0  0  0  0
  -20.9315  -29.8661   21.6884 H   0  0  0  0  0  0
  -26.0150  -38.2863   24.1435 H   0  0  0  0  0  0
  -26.1302  -24.3875   21.2044 H   0  0  0  0  0  0
  -26.4718  -20.4003   19.7000 H   0  0  0  0  0  0
  -26.2589  -19.3330   21.0879 H   0  0  0  0  0  0
  -26.4009  -18.7048   19.4570 H   0  0  0  0  0  0
  -28.5993  -20.4210   18.4334 H   0  0  0  0  0  0
  -28.6965  -18.6786   18.3032 H   0  0  0  0  0  0
  -30.0416  -19.5755   18.9904 H   0  0  0  0  0  0
  -30.6414  -25.1242   22.0857 H   0  0  0  0  0  0
  -30.5684  -26.7581   21.4105 H   0  0  0  0  0  0
  -30.6579  -25.3617   20.3242 H   0  0  0  0  0  0
  -28.4564  -25.5315   23.4025 H   0  0  0  0  0  0
  -27.1147  -26.3474   22.6052 H   0  0  0  0  0  0
  -28.6654  -27.1848   22.8225 H   0  0  0  0  0  0
  -28.4809  -20.3312   22.2976 H   0  0  0  0  0  0
  -29.8639  -20.6283   21.3103 H   0  0  0  0  0  0
  -30.7055  -17.4901   21.5147 H   0  0  0  0  0  0
  -30.4533  -17.2723   19.8026 H   0  0  0  0  0  0
  -28.9336  -15.3445   21.3073 H   0  0  0  0  0  0
  1 25  1  0  0  0
  1 30  2  0  0  0
  1 85  1  0  0  0
  2  3  1  0  0  0
  2 25  1  0  0  0
  2 88  1  0  0  0
  2 89  1  0  0  0
  3  4  1  0  0  0
  3 90  1  0  0  0
  3 91  1  0  0  0
  4  5  1  0  0  0
  4 92  1  0  0  0
  4 93  1  0  0  0
  5  6  1  0  0  0
  5 26  1  0  0  0
  5 94  1  0  0  0
  6 25  1  0  0  0
  6 95  1  0  0  0
  6 96  1  0  0  0
  7  8  2  0  0  0
  7 26  1  0  0  0
  7 29  1  0  0  0
  8  9  1  0  0  0
  8 22  1  0  0  0
  9 10  1  0  0  0
  9 27  2  0  0  0
 10 11  2  0  0  0
 10 15  1  0  0  0
 11 12  1  0  0  0
 11 97  1  0  0  0
 12 13  2  0  0  0
 12 98  1  0  0  0
 13 14  1  0  0  0
 13 31  1  0  0  0
 14 15  2  0  0  0
 14 99  1  0  0  0
 15100  1  0  0  0
 16 17  2  0  0  0
 16 21  1  0  0  0
 16 31  1  0  0  0
 17 18  1  0  0  0
 17101  1  0  0  0
 18 19  2  0  0  0
 18102  1  0  0  0
 19 20  1  0  0  0
 19 24  1  0  0  0
 20 21  2  0  0  0
 20103  1  0  0  0
 21 23  1  0  0  0
 22 28  1  0  0  0
 22 32  2  0  0  0
 26 27  1  0  0  0
 28104  1  0  0  0
 28105  1  0  0  0
 29106  1  0  0  0
 29107  1  0  0  0
 33 34  1  0  0  0
 33 66  1  0  0  0
 33 70  2  0  0  0
 34 36  1  0  0  0
 34 59  1  0  0  0
 34108  1  0  0  0
 35 44  2  0  0  0
 35 45  1  0  0  0
 35 68  1  0  0  0
 36 56  1  0  0  0
 36109  1  0  0  0
 37 39  1  0  0  0
 37 47  1  0  0  0
 37 66  1  0  0  0
 37110  1  0  0  0
 38 43  2  0  0  0
 38 46  1  0  0  0
 38 47  1  0  0  0
 39 64  1  0  0  0
 39 67  2  0  0  0
 40 52  1  0  0  0
 40 53  2  0  0  0
 40 58  1  0  0  0
 41111  1  0  0  0
 41112  1  0  0  0
 41113  1  0  0  0
 41 48  1  0  0  0
 42 43  1  0  0  0
 42 66  1  0  0  0
 42114  1  0  0  0
 42115  1  0  0  0
 43 44  1  0  0  0
 44116  1  0  0  0
 45 46  2  0  0  0
 45117  1  0  0  0
 46118  1  0  0  0
 47119  1  0  0  0
 47120  1  0  0  0
 48 56  1  0  0  0
 48 65  1  0  0  0
 48121  1  0  0  0
 49 50  1  0  0  0
 49 53  1  0  0  0
 49 64  1  0  0  0
 49122  1  0  0  0
 50 51  1  0  0  0
 50123  1  0  0  0
 50124  1  0  0  0
 51 52  1  0  0  0
 51125  1  0  0  0
 51126  1  0  0  0
 52127  1  0  0  0
 52128  1  0  0  0
 53 54  1  0  0  0
 54 55  2  0  0  0
 54129  1  0  0  0
 55 57  1  0  0  0
 55130  1  0  0  0
 56 69  2  0  0  0
 57 58  2  0  0  0
 57131  1  0  0  0
 58132  1  0  0  0
 59 60  1  0  0  0
 59 61  1  0  0  0
 59 62  1  0  0  0
 60133  1  0  0  0
 60134  1  0  0  0
 60135  1  0  0  0
 61136  1  0  0  0
 61137  1  0  0  0
 61138  1  0  0  0
 62139  1  0  0  0
 62140  1  0  0  0
 62141  1  0  0  0
 63 65  1  0  0  0
 63142  1  0  0  0
 63143  1  0  0  0
 63144  1  0  0  0
 64145  1  0  0  0
 65146  1  0  0  0
 68 80  1  0  0  0
 71 82  2  0  0  0
 71 84  1  0  0  0
 71147  1  0  0  0
 72 77  1  0  0  0
 72 82  1  0  0  0
 72 83  2  0  0  0
 73148  1  0  0  0
 73149  1  0  0  0
 73150  1  0  0  0
 73 79  1  0  0  0
 74 79  1  0  0  0
 74151  1  0  0  0
 74152  1  0  0  0
 74153  1  0  0  0
 75154  1  0  0  0
 75155  1  0  0  0
 75156  1  0  0  0
 75 80  1  0  0  0
 76 80  1  0  0  0
 76157  1  0  0  0
 76158  1  0  0  0
 76159  1  0  0  0
 77 79  1  0  0  0
 77160  1  0  0  0
 77161  1  0  0  0
 78 81  1  0  0  0
 78 85  1  0  0  0
 78162  1  0  0  0
 78163  1  0  0  0
 79 81  1  0  0  0
 80 84  1  0  0  0
 81 86  1  0  0  0
 81 87  1  0  0  0
 83 84  1  0  0  0
 85164  1  0  0  0
M  ISO  4   1 100  68 101  80 101  85 100
M  END
> <chiral flag>
0

> <version>
0

> <s_m_source_file>
/data/baiqing/PycharmProjects/Reinvent-master-3.2/result/LINK_invent/BTK/process_docking_weight1_custom_sum_contain_oxygen_bond_distance_aromatic_linkinvent_7_9_3/rearranged_h_0072.sdf

> <i_m_source_file_index>
32

> <r_mmod_Potential_Energy-OPLS-2005>
67.79296875

> <r_mmod_Stretch_Energy-OPLS-2005>
88.9545669555664

> <r_mmod_Bend_Energy-OPLS-2005>
167.016174316406

> <r_mmod_Torsional_Energy-OPLS-2005>
271.497650146484

> <r_mmod_Improper_Torsional_Energy-OPLS-2005>
6.78835153579712

> <r_mmod_Van_der_Waal_Energy-OPLS-2005>
128.406204223633

> <r_mmod_Electrostatic_Energy-OPLS-2005>
-425.245361328125

> <r_mmod_Solvation_Energy-OPLS-2005>
-202.526153564453

> <b_mmod_Minimization_Converged-OPLS-2005>
0

> <r_mmod_RMS_Derivative-OPLS-2005>
5.7384729385376

$$$$
33
                    3D
 Structure written by MMmdl.
167175  0  0  1  0            999 V2000
  -30.4395  -15.2260   20.3172 C   0  0  0  0  0  0
  -30.4600  -12.7694   19.5199 C   0  0  0  0  0  0
  -29.5541  -12.5529   18.2818 C   0  0  0  0  0  0
  -28.0935  -12.2796   18.6978 C   0  0  0  0  0  0
  -27.6112  -13.2451   19.8090 C   0  0  2  0  0  0
  -28.6494  -13.4185   20.9318 C   0  0  0  0  0  0
  -25.2501  -13.8149   20.5744 C   0  0  0  0  0  0
  -24.1784  -13.0420   20.9229 C   0  0  0  0  0  0
  -24.6366  -11.6884   20.8700 C   0  0  0  0  0  0
  -23.9041  -10.4288   21.0338 C   0  0  0  0  0  0
  -24.3602   -9.4251   21.9132 C   0  0  0  0  0  0
  -23.6298   -8.2278   22.0703 C   0  0  0  0  0  0
  -22.4294   -8.0270   21.3483 C   0  0  0  0  0  0
  -21.9917   -9.0241   20.4565 C   0  0  0  0  0  0
  -22.7219  -10.2141   20.2981 C   0  0  0  0  0  0
  -21.6898   -6.0731   22.5274 C   0  0  0  0  0  0
  -21.4047   -6.5626   23.8226 C   0  0  0  0  0  0
  -21.3694   -5.6759   24.9164 C   0  0  0  0  0  0
  -21.6061   -4.3017   24.7201 C   0  0  0  0  0  0
  -21.8812   -3.8124   23.4333 C   0  0  0  0  0  0
  -21.9196   -4.6952   22.3395 C   0  0  0  0  0  0
  -22.7820  -13.5244   21.1873 C   0  0  0  0  0  0
  -22.1645   -4.2137   21.0975 F   0  0  0  0  0  0
  -21.5645   -3.4482   25.7714 F   0  0  0  0  0  0
  -29.9001  -13.9095   20.3208 N   0  0  0  0  0  0
  -26.2829  -12.9308   20.3126 N   0  0  0  0  0  0
  -25.9284  -11.6471   20.5637 N   0  0  0  0  0  0
  -22.0392  -12.8277   22.0405 N   0  0  0  0  0  0
  -25.4288  -15.1887   20.4346 N   0  0  0  0  0  0
  -31.6740  -15.2458   20.2391 O   0  0  0  0  0  0
  -21.6665   -6.8868   21.4226 O   0  0  0  0  0  0
  -22.3528  -14.5549   20.6696 O   0  0  0  0  0  0
  -24.6575  -31.8315   23.1744 C   0  0  0  0  0  0
  -25.9269  -32.4620   23.8209 C   0  0  1  0  0  0
  -27.2186  -26.9785   20.1806 C   0  0  0  0  0  0
  -25.5968  -33.8438   24.2124 N   0  0  0  0  0  0
  -23.4696  -30.4414   21.5248 C   0  0  2  0  0  0
  -24.9224  -28.8386   20.1098 C   0  0  0  0  0  0
  -22.7638  -29.4459   22.4828 C   0  0  0  0  0  0
  -18.0327  -28.1422   22.8471 C   0  0  0  0  0  0
  -24.1496  -36.7198   23.2651 C   0  0  0  0  0  0
  -26.0341  -30.6511   21.4005 C   0  0  0  0  0  0
  -26.1013  -29.2458   20.7446 C   0  0  0  0  0  0
  -27.2447  -28.3350   20.7582 C   0  0  0  0  0  0
  -26.0149  -26.7132   19.4877 C   0  0  0  0  0  0
  -24.9026  -27.5901   19.4667 C   0  0  0  0  0  0
  -23.7027  -29.7576   20.1491 C   0  0  0  0  0  0
  -25.4139  -36.2990   24.0315 C   0  0  1  0  0  0
  -20.5937  -28.3742   23.1222 C   0  0  2  0  0  0
  -20.6804  -26.9436   22.5422 C   0  0  0  0  0  0
  -19.5780  -26.6390   21.5233 C   0  0  0  0  0  0
  -18.1952  -26.7961   22.1620 C   0  0  0  0  0  0
  -19.1582  -28.8909   23.2827 C   0  0  0  0  0  0
  -18.9484  -30.1501   23.8851 C   0  0  0  0  0  0
  -17.6476  -30.6609   24.0549 C   0  0  0  0  0  0
  -25.9093  -34.9369   23.5033 C   0  0  0  0  0  0
  -16.5365  -29.9082   23.6355 C   0  0  0  0  0  0
  -16.7306  -28.6508   23.0359 C   0  0  0  0  0  0
  -26.4545  -31.6547   25.0724 C   0  0  0  0  0  0
  -25.3664  -31.3801   26.1369 C   0  0  0  0  0  0
  -27.0430  -30.2921   24.6443 C   0  0  0  0  0  0
  -27.6083  -32.4332   25.7477 C   0  0  0  0  0  0
  -27.5586  -37.1755   24.8468 C   0  0  0  0  0  0
  -21.4320  -29.3036   22.3571 N   0  0  0  0  0  0
  -26.4298  -37.3713   23.9406 N   0  0  0  0  0  0
  -24.7399  -31.0014   22.0849 N   0  0  0  0  0  0
  -23.4222  -28.8078   23.3062 O   0  0  0  0  0  0
  -28.2380  -25.9122   20.2998 O   0  0  0  0  0  0
  -26.5705  -34.8885   22.4628 O   0  0  0  0  0  0
  -23.5644  -32.1272   23.6843 O   0  0  0  0  0  0
  -29.0421  -16.3980   18.7169 C   0  0  0  0  0  0
  -29.5824  -16.6165   19.9607 C   0  0  0  0  0  0
  -30.1370  -18.3352   18.5696 C   0  0  0  0  0  0
  -30.8141  -19.4893   17.9028 C   0  0  0  0  0  0
  -28.7190  -18.2568   22.8531 C   0  0  0  0  0  0
  -30.2110  -23.3314   21.0596 C   0  0  0  0  0  0
  -27.9622  -22.7240   21.9550 C   0  0  0  0  0  0
  -30.7227  -19.8687   21.5218 C   0  0  0  0  0  0
  -28.3058  -19.1261   21.6468 C   0  0  0  0  0  0
  -28.9641  -21.1794   20.0246 C   0  0  0  0  0  0
  -28.1442  -24.3284   19.9166 C   0  0  0  0  0  0
  -28.7992  -22.8552   20.6734 C   0  0  0  0  0  0
  -29.4570  -19.5659   20.7011 C   0  0  1  0  0  0
  -29.7979  -18.1359   19.8575 N   0  0  0  0  0  0
  -29.5649  -17.3450   17.8866 N   0  3  0  0  0  0
  -31.4861  -12.9727   19.2002 H   0  0  0  0  0  0
  -30.5122  -11.8647   20.1273 H   0  0  0  0  0  0
  -29.9332  -11.7189   17.6893 H   0  0  0  0  0  0
  -29.5991  -13.4336   17.6390 H   0  0  0  0  0  0
  -28.0431  -11.2525   19.0659 H   0  0  0  0  0  0
  -27.4333  -12.3240   17.8305 H   0  0  0  0  0  0
  -27.4997  -14.2037   19.3190 H   0  0  0  0  0  0
  -28.8028  -12.4770   21.4617 H   0  0  0  0  0  0
  -28.2904  -14.1335   21.6734 H   0  0  0  0  0  0
  -25.2729   -9.5767   22.4728 H   0  0  0  0  0  0
  -23.9999   -7.4713   22.7476 H   0  0  0  0  0  0
  -21.0829   -8.8769   19.8916 H   0  0  0  0  0  0
  -22.3664  -10.9670   19.6094 H   0  0  0  0  0  0
  -21.2061   -7.6136   23.9730 H   0  0  0  0  0  0
  -21.1524   -6.0470   25.9083 H   0  0  0  0  0  0
  -22.0559   -2.7568   23.2830 H   0  0  0  0  0  0
  -22.3920  -11.9991   22.4946 H   0  0  0  0  0  0
  -21.0968  -13.1331   22.2403 H   0  0  0  0  0  0
  -24.6817  -15.8518   20.6030 H   0  0  0  0  0  0
  -26.2974  -15.6331   20.1652 H   0  0  0  0  0  0
  -26.7339  -32.5171   23.0928 H   0  0  0  0  0  0
  -25.0065  -33.9551   25.0241 H   0  0  0  0  0  0
  -22.7785  -31.2699   21.3598 H   0  0  0  0  0  0
  -23.3788  -35.9495   23.3287 H   0  0  0  0  0  0
  -24.3570  -36.8858   22.2072 H   0  0  0  0  0  0
  -23.7215  -37.6367   23.6706 H   0  0  0  0  0  0
  -26.2181  -31.4003   20.6289 H   0  0  0  0  0  0
  -26.8907  -30.7003   22.0598 H   0  0  0  0  0  0
  -28.1343  -28.6434   21.2918 H   0  0  0  0  0  0
  -25.8957  -25.7652   18.9845 H   0  0  0  0  0  0
  -24.0063  -27.2772   18.9510 H   0  0  0  0  0  0
  -23.8406  -30.5273   19.3887 H   0  0  0  0  0  0
  -22.8141  -29.2041   19.8414 H   0  0  0  0  0  0
  -25.1337  -36.1805   25.0805 H   0  0  0  0  0  0
  -21.0027  -28.3338   24.1342 H   0  0  0  0  0  0
  -20.5699  -26.2362   23.3649 H   0  0  0  0  0  0
  -21.6658  -26.7416   22.1223 H   0  0  0  0  0  0
  -19.6929  -25.6293   21.1290 H   0  0  0  0  0  0
  -19.6734  -27.3165   20.6738 H   0  0  0  0  0  0
  -17.4240  -26.6733   21.3998 H   0  0  0  0  0  0
  -18.0290  -26.0109   22.9009 H   0  0  0  0  0  0
  -19.7949  -30.7336   24.2185 H   0  0  0  0  0  0
  -17.5015  -31.6277   24.5170 H   0  0  0  0  0  0
  -15.5356  -30.2945   23.7730 H   0  0  0  0  0  0
  -15.8709  -28.0810   22.7087 H   0  0  0  0  0  0
  -24.5869  -30.7139   25.7659 H   0  0  0  0  0  0
  -24.8815  -32.2992   26.4667 H   0  0  0  0  0  0
  -25.7871  -30.9046   27.0236 H   0  0  0  0  0  0
  -26.3098  -29.6599   24.1435 H   0  0  0  0  0  0
  -27.3948  -29.7295   25.5100 H   0  0  0  0  0  0
  -27.9037  -30.4110   23.9865 H   0  0  0  0  0  0
  -27.2728  -33.3686   26.1960 H   0  0  0  0  0  0
  -28.3920  -32.6802   25.0303 H   0  0  0  0  0  0
  -28.0723  -31.8518   26.5456 H   0  0  0  0  0  0
  -28.2603  -38.0058   24.7501 H   0  0  0  0  0  0
  -28.1091  -36.2583   24.6302 H   0  0  0  0  0  0
  -27.2303  -37.1392   25.8875 H   0  0  0  0  0  0
  -20.9588  -29.8660   21.6643 H   0  0  0  0  0  0
  -26.0160  -38.2782   24.1391 H   0  0  0  0  0  0
  -28.7023  -15.4910   18.2493 H   0  0  0  0  0  0
  -30.0636  -20.1411   17.4547 H   0  0  0  0  0  0
  -31.4521  -19.0929   17.1133 H   0  0  0  0  0  0
  -31.4381  -20.0159   18.6228 H   0  0  0  0  0  0
  -27.8538  -17.8916   23.4055 H   0  0  0  0  0  0
  -29.3081  -18.8377   23.5624 H   0  0  0  0  0  0
  -29.3123  -17.3896   22.5625 H   0  0  0  0  0  0
  -30.7053  -22.6646   21.7613 H   0  0  0  0  0  0
  -30.1751  -24.3157   21.5324 H   0  0  0  0  0  0
  -30.8366  -23.4342   20.1729 H   0  0  0  0  0  0
  -28.3824  -21.9969   22.6494 H   0  0  0  0  0  0
  -26.9425  -22.4188   21.7129 H   0  0  0  0  0  0
  -27.8957  -23.6718   22.4908 H   0  0  0  0  0  0
  -30.5060  -20.5489   22.3447 H   0  0  0  0  0  0
  -31.4923  -20.3311   20.9055 H   0  0  0  0  0  0
  -31.1510  -18.9609   21.9515 H   0  0  0  0  0  0
  -27.7560  -19.9860   22.0151 H   0  0  0  0  0  0
  -27.5752  -18.5732   21.0531 H   0  0  0  0  0  0
  -29.6180  -21.3605   19.1795 H   0  0  0  0  0  0
  -27.9964  -20.9773   19.5624 H   0  0  0  0  0  0
  -27.0877  -24.1200   19.7575 H   0  0  0  0  0  0
  -28.5644  -24.3150   18.9107 H   0  0  0  0  0  0
  -29.5716  -17.2751   16.8748 H   0  0  0  0  0  0
  1 25  1  0  0  0
  1 30  2  0  0  0
  1 72  1  0  0  0
  2  3  1  0  0  0
  2 25  1  0  0  0
  2 86  1  0  0  0
  2 87  1  0  0  0
  3  4  1  0  0  0
  3 88  1  0  0  0
  3 89  1  0  0  0
  4  5  1  0  0  0
  4 90  1  0  0  0
  4 91  1  0  0  0
  5  6  1  0  0  0
  5 26  1  0  0  0
  5 92  1  0  0  0
  6 25  1  0  0  0
  6 93  1  0  0  0
  6 94  1  0  0  0
  7  8  2  0  0  0
  7 26  1  0  0  0
  7 29  1  0  0  0
  8  9  1  0  0  0
  8 22  1  0  0  0
  9 10  1  0  0  0
  9 27  2  0  0  0
 10 11  2  0  0  0
 10 15  1  0  0  0
 11 12  1  0  0  0
 11 95  1  0  0  0
 12 13  2  0  0  0
 12 96  1  0  0  0
 13 14  1  0  0  0
 13 31  1  0  0  0
 14 15  2  0  0  0
 14 97  1  0  0  0
 15 98  1  0  0  0
 16 17  2  0  0  0
 16 21  1  0  0  0
 16 31  1  0  0  0
 17 18  1  0  0  0
 17 99  1  0  0  0
 18 19  2  0  0  0
 18100  1  0  0  0
 19 20  1  0  0  0
 19 24  1  0  0  0
 20 21  2  0  0  0
 20101  1  0  0  0
 21 23  1  0  0  0
 22 28  1  0  0  0
 22 32  2  0  0  0
 26 27  1  0  0  0
 28102  1  0  0  0
 28103  1  0  0  0
 29104  1  0  0  0
 29105  1  0  0  0
 33 34  1  0  0  0
 33 66  1  0  0  0
 33 70  2  0  0  0
 34 36  1  0  0  0
 34 59  1  0  0  0
 34106  1  0  0  0
 35 44  2  0  0  0
 35 45  1  0  0  0
 35 68  1  0  0  0
 36 56  1  0  0  0
 36107  1  0  0  0
 37 39  1  0  0  0
 37 47  1  0  0  0
 37 66  1  0  0  0
 37108  1  0  0  0
 38 43  2  0  0  0
 38 46  1  0  0  0
 38 47  1  0  0  0
 39 64  1  0  0  0
 39 67  2  0  0  0
 40 52  1  0  0  0
 40 53  2  0  0  0
 40 58  1  0  0  0
 41109  1  0  0  0
 41110  1  0  0  0
 41111  1  0  0  0
 41 48  1  0  0  0
 42 43  1  0  0  0
 42 66  1  0  0  0
 42112  1  0  0  0
 42113  1  0  0  0
 43 44  1  0  0  0
 44114  1  0  0  0
 45 46  2  0  0  0
 45115  1  0  0  0
 46116  1  0  0  0
 47117  1  0  0  0
 47118  1  0  0  0
 48 56  1  0  0  0
 48 65  1  0  0  0
 48119  1  0  0  0
 49 50  1  0  0  0
 49 53  1  0  0  0
 49 64  1  0  0  0
 49120  1  0  0  0
 50 51  1  0  0  0
 50121  1  0  0  0
 50122  1  0  0  0
 51 52  1  0  0  0
 51123  1  0  0  0
 51124  1  0  0  0
 52125  1  0  0  0
 52126  1  0  0  0
 53 54  1  0  0  0
 54 55  2  0  0  0
 54127  1  0  0  0
 55 57  1  0  0  0
 55128  1  0  0  0
 56 69  2  0  0  0
 57 58  2  0  0  0
 57129  1  0  0  0
 58130  1  0  0  0
 59 60  1  0  0  0
 59 61  1  0  0  0
 59 62  1  0  0  0
 60131  1  0  0  0
 60132  1  0  0  0
 60133  1  0  0  0
 61134  1  0  0  0
 61135  1  0  0  0
 61136  1  0  0  0
 62137  1  0  0  0
 62138  1  0  0  0
 62139  1  0  0  0
 63 65  1  0  0  0
 63140  1  0  0  0
 63141  1  0  0  0
 63142  1  0  0  0
 64143  1  0  0  0
 65144  1  0  0  0
 68 81  1  0  0  0
 71 72  2  0  0  0
 71 85  1  0  0  0
 71145  1  0  0  0
 72 84  1  0  0  0
 73 74  1  0  0  0
 73 84  1  0  0  0
 73 85  2  0  0  0
 74146  1  0  0  0
 74147  1  0  0  0
 74148  1  0  0  0
 75 79  1  0  0  0
 75149  1  0  0  0
 75150  1  0  0  0
 75151  1  0  0  0
 76152  1  0  0  0
 76153  1  0  0  0
 76154  1  0  0  0
 76 82  1  0  0  0
 77 82  1  0  0  0
 77155  1  0  0  0
 77156  1  0  0  0
 77157  1  0  0  0
 78158  1  0  0  0
 78159  1  0  0  0
 78160  1  0  0  0
 78 83  1  0  0  0
 79 83  1  0  0  0
 79161  1  0  0  0
 79162  1  0  0  0
 80 82  1  0  0  0
 80 83  1  0  0  0
 80163  1  0  0  0
 80164  1  0  0  0
 81 82  1  0  0  0
 81165  1  0  0  0
 81166  1  0  0  0
 83 84  1  0  0  0
 85167  1  0  0  0
M  CHG  1  85   1
M  ISO  4   1 100  68 101  72 100  81 101
M  END
> <chiral flag>
0

> <version>
0

> <s_m_source_file>
/data/baiqing/PycharmProjects/Reinvent-master-3.2/result/LINK_invent/BTK/process_docking_weight1_custom_sum_contain_oxygen_bond_distance_aromatic_linkinvent_7_9_3/rearranged_h_0072.sdf

> <i_m_source_file_index>
33

> <r_mmod_Potential_Energy-OPLS-2005>
1472.89831542969

> <r_mmod_Stretch_Energy-OPLS-2005>
597.055358886719

> <r_mmod_Bend_Energy-OPLS-2005>
460.111877441406

> <r_mmod_Torsional_Energy-OPLS-2005>
447.325134277344

> <r_mmod_Improper_Torsional_Energy-OPLS-2005>
39.530086517334

> <r_mmod_Van_der_Waal_Energy-OPLS-2005>
106.21314239502

> <r_mmod_Electrostatic_Energy-OPLS-2005>
-185.037536621094

> <r_mmod_Solvation_Energy-OPLS-2005>
-401.639190673828

> <b_mmod_Minimization_Converged-OPLS-2005>
0

> <r_mmod_RMS_Derivative-OPLS-2005>
5.14949417114258

$$$$
34
                    3D
 Structure written by MMmdl.
175183  0  0  1  0            999 V2000
  -30.6934  -14.3788   20.6349 C   0  0  0  0  0  0
  -30.4257  -12.2692   19.3984 C   0  0  0  0  0  0
  -29.4908  -12.5248   18.1984 C   0  0  0  0  0  0
  -28.0116  -12.3851   18.6090 C   0  0  0  0  0  0
  -27.6714  -13.1892   19.8891 C   0  0  2  0  0  0
  -28.7048  -12.8796   20.9956 C   0  0  0  0  0  0
  -25.2637  -13.8104   20.5655 C   0  0  0  0  0  0
  -24.1854  -13.0414   20.9158 C   0  0  0  0  0  0
  -24.6383  -11.6874   20.8720 C   0  0  0  0  0  0
  -23.9035  -10.4266   21.0415 C   0  0  0  0  0  0
  -24.3584   -9.4186   21.9194 C   0  0  0  0  0  0
  -23.6272   -8.2225   22.0762 C   0  0  0  0  0  0
  -22.4252   -8.0258   21.3560 C   0  0  0  0  0  0
  -21.9890   -9.0228   20.4660 C   0  0  0  0  0  0
  -22.7210  -10.2108   20.3080 C   0  0  0  0  0  0
  -21.6834   -6.0720   22.5284 C   0  0  0  0  0  0
  -21.4011   -6.5644   23.8208 C   0  0  0  0  0  0
  -21.3673   -5.6807   24.9183 C   0  0  0  0  0  0
  -21.6034   -4.3062   24.7229 C   0  0  0  0  0  0
  -21.8821   -3.8148   23.4357 C   0  0  0  0  0  0
  -21.9182   -4.6959   22.3407 C   0  0  0  0  0  0
  -22.7895  -13.5243   21.1813 C   0  0  0  0  0  0
  -22.1648   -4.2147   21.0976 F   0  0  0  0  0  0
  -21.5627   -3.4543   25.7745 F   0  0  0  0  0  0
  -30.0525  -13.1946   20.4745 N   0  0  0  0  0  0
  -26.3058  -12.9235   20.3397 N   0  0  0  0  0  0
  -25.9294  -11.6414   20.5745 N   0  0  0  0  0  0
  -22.0523  -12.8251   22.0367 N   0  0  0  0  0  0
  -25.4399  -15.1796   20.4002 N   0  0  0  0  0  0
  -31.7421  -14.6852   20.0556 O   0  0  0  0  0  0
  -21.6628   -6.8852   21.4243 O   0  0  0  0  0  0
  -22.3608  -14.5580   20.6701 O   0  0  0  0  0  0
  -24.6117  -31.8736   23.2144 C   0  0  0  0  0  0
  -25.9039  -32.4842   23.8416 C   0  0  1  0  0  0
  -27.2433  -27.4848   20.0823 C   0  0  0  0  0  0
  -25.5886  -33.8632   24.2354 N   0  0  0  0  0  0
  -23.3982  -30.4943   21.5575 C   0  0  2  0  0  0
  -24.8437  -28.9629   20.1181 C   0  0  0  0  0  0
  -22.7379  -29.4697   22.5053 C   0  0  0  0  0  0
  -18.0273  -28.1348   22.8500 C   0  0  0  0  0  0
  -24.1478  -36.7332   23.2646 C   0  0  0  0  0  0
  -25.9192  -30.8451   21.3643 C   0  0  0  0  0  0
  -25.9977  -29.4810   20.7180 C   0  0  0  0  0  0
  -27.2008  -28.7446   20.7112 C   0  0  0  0  0  0
  -26.0814  -26.9719   19.4701 C   0  0  0  0  0  0
  -24.8756  -27.7005   19.4979 C   0  0  0  0  0  0
  -23.6030  -29.8243   20.1715 C   0  0  0  0  0  0
  -25.4096  -36.3139   24.0357 C   0  0  1  0  0  0
  -20.5848  -28.3661   23.1353 C   0  0  2  0  0  0
  -20.6799  -26.9405   22.5448 C   0  0  0  0  0  0
  -19.5792  -26.6369   21.5243 C   0  0  0  0  0  0
  -18.1952  -26.7901   22.1617 C   0  0  0  0  0  0
  -19.1503  -28.8811   23.2921 C   0  0  0  0  0  0
  -18.9429  -30.1422   23.8925 C   0  0  0  0  0  0
  -17.6435  -30.6571   24.0551 C   0  0  0  0  0  0
  -25.9024  -34.9496   23.5163 C   0  0  0  0  0  0
  -16.5337  -29.9070   23.6313 C   0  0  0  0  0  0
  -16.7259  -28.6485   23.0333 C   0  0  0  0  0  0
  -26.4475  -31.6594   25.0723 C   0  0  0  0  0  0
  -25.3746  -31.3698   26.1474 C   0  0  0  0  0  0
  -27.0296  -30.3045   24.6068 C   0  0  0  0  0  0
  -27.6059  -32.4301   25.7479 C   0  0  0  0  0  0
  -27.5581  -37.1826   24.8474 C   0  0  0  0  0  0
  -21.4113  -29.3063   22.3780 N   0  0  0  0  0  0
  -26.4294  -37.3819   23.9414 N   0  0  0  0  0  0
  -24.6615  -31.0834   22.1051 N   0  0  0  0  0  0
  -23.4158  -28.8250   23.3100 O   0  0  0  0  0  0
  -28.4023  -26.7519   20.0370 O   0  0  0  0  0  0
  -26.5579  -34.8958   22.4724 O   0  0  0  0  0  0
  -23.5316  -32.1499   23.7546 O   0  0  0  0  0  0
  -25.6697  -20.0595   23.4068 C   0  0  0  0  0  0
  -26.1157  -21.1774   22.6438 C   0  0  0  0  0  0
  -26.2155  -18.9112   22.9198 C   0  0  0  0  0  0
  -26.9580  -20.6455   21.6858 C   0  0  0  0  0  0
  -25.9511  -17.5136   23.3803 C   0  0  0  0  0  0
  -27.6919  -21.2895   20.5478 C   0  0  0  0  0  0
  -25.0055  -23.2291   21.6216 C   0  0  0  0  0  0
  -24.5269  -22.6565   23.9388 C   0  0  0  0  0  0
  -27.9999  -24.0206   22.6756 C   0  0  0  0  0  0
  -27.6236  -25.0759   21.6234 C   0  0  0  0  0  0
  -26.8044  -23.5005   23.5117 C   0  0  0  0  0  0
  -28.6049  -17.2184   21.7899 C   0  0  0  0  0  0
  -27.8812  -18.3598   21.0442 C   0  0  0  0  0  0
  -29.8393  -16.6627   21.0507 C   0  0  0  0  0  0
  -28.7300  -26.0805   21.2526 C   0  0  0  0  0  0
  -25.6642  -22.6313   22.8847 C   0  0  0  0  0  0
  -27.0696  -19.2646   21.8807 N   0  0  0  0  0  0
  -30.0049  -15.2518   21.3762 N   0  0  0  0  0  0
  -31.4694  -12.3793   19.1005 H   0  0  0  0  0  0
  -30.3199  -11.2392   19.7419 H   0  0  0  0  0  0
  -29.7198  -11.8273   17.3935 H   0  0  0  0  0  0
  -29.6645  -13.5257   17.8002 H   0  0  0  0  0  0
  -27.8160  -11.3251   18.7753 H   0  0  0  0  0  0
  -27.3600  -12.6879   17.7888 H   0  0  0  0  0  0
  -27.7418  -14.2494   19.6450 H   0  0  0  0  0  0
  -28.6629  -11.8201   21.2528 H   0  0  0  0  0  0
  -28.4559  -13.3986   21.9203 H   0  0  0  0  0  0
  -25.2707   -9.5657   22.4799 H   0  0  0  0  0  0
  -23.9971   -7.4626   22.7497 H   0  0  0  0  0  0
  -21.0815   -8.8737   19.8982 H   0  0  0  0  0  0
  -22.3642  -10.9660   19.6222 H   0  0  0  0  0  0
  -21.2017   -7.6156   23.9708 H   0  0  0  0  0  0
  -21.1497   -6.0544   25.9080 H   0  0  0  0  0  0
  -22.0589   -2.7613   23.2856 H   0  0  0  0  0  0
  -22.4108  -11.9899   22.4750 H   0  0  0  0  0  0
  -21.1193  -13.1379   22.2620 H   0  0  0  0  0  0
  -24.6771  -15.8356   20.5156 H   0  0  0  0  0  0
  -26.2880  -15.6061   20.0543 H   0  0  0  0  0  0
  -26.7106  -32.5580   23.1176 H   0  0  0  0  0  0
  -25.0071  -33.9788   25.0521 H   0  0  0  0  0  0
  -22.6878  -31.3121   21.4195 H   0  0  0  0  0  0
  -23.3742  -35.9665   23.3331 H   0  0  0  0  0  0
  -24.3601  -36.8916   22.2062 H   0  0  0  0  0  0
  -23.7209  -37.6551   23.6617 H   0  0  0  0  0  0
  -26.0242  -31.6046   20.5903 H   0  0  0  0  0  0
  -26.8117  -30.9029   21.9743 H   0  0  0  0  0  0
  -28.0927  -29.1467   21.1709 H   0  0  0  0  0  0
  -26.1069  -26.0099   18.9772 H   0  0  0  0  0  0
  -23.9895  -27.2923   19.0323 H   0  0  0  0  0  0
  -23.7078  -30.6020   19.4133 H   0  0  0  0  0  0
  -22.7254  -29.2433   19.8815 H   0  0  0  0  0  0
  -25.1256  -36.2057   25.0846 H   0  0  0  0  0  0
  -20.9903  -28.3219   24.1484 H   0  0  0  0  0  0
  -21.6709  -26.7508   22.1323 H   0  0  0  0  0  0
  -20.5657  -26.2282   23.3641 H   0  0  0  0  0  0
  -19.6989  -25.6288   21.1229 H   0  0  0  0  0  0
  -19.6708  -27.3214   20.6797 H   0  0  0  0  0  0
  -17.4242  -26.6650   21.3997 H   0  0  0  0  0  0
  -18.0350  -26.0020   22.8994 H   0  0  0  0  0  0
  -19.7899  -30.7218   24.2343 H   0  0  0  0  0  0
  -17.5010  -31.6259   24.5148 H   0  0  0  0  0  0
  -15.5352  -30.2999   23.7614 H   0  0  0  0  0  0
  -15.8655  -28.0800   22.7062 H   0  0  0  0  0  0
  -24.5898  -30.7068   25.7821 H   0  0  0  0  0  0
  -24.8949  -32.2842   26.4965 H   0  0  0  0  0  0
  -25.8098  -30.8842   27.0212 H   0  0  0  0  0  0
  -26.2826  -29.6811   24.1132 H   0  0  0  0  0  0
  -27.4106  -29.7282   25.4511 H   0  0  0  0  0  0
  -27.8641  -30.4401   23.9186 H   0  0  0  0  0  0
  -27.2688  -33.3580   26.2113 H   0  0  0  0  0  0
  -28.3826  -32.6898   25.0271 H   0  0  0  0  0  0
  -28.0764  -31.8390   26.5350 H   0  0  0  0  0  0
  -28.2631  -38.0098   24.7509 H   0  0  0  0  0  0
  -28.1042  -36.2639   24.6292 H   0  0  0  0  0  0
  -27.2310  -37.1466   25.8883 H   0  0  0  0  0  0
  -20.9268  -29.8791   21.6993 H   0  0  0  0  0  0
  -26.0213  -38.2922   24.1375 H   0  0  0  0  0  0
  -24.9711  -20.0789   24.2301 H   0  0  0  0  0  0
  -26.7499  -17.1548   24.0297 H   0  0  0  0  0  0
  -25.8411  -16.8298   22.5425 H   0  0  0  0  0  0
  -25.0218  -17.4666   23.9491 H   0  0  0  0  0  0
  -28.7675  -21.1611   20.6498 H   0  0  0  0  0  0
  -27.5127  -22.3542   20.4872 H   0  0  0  0  0  0
  -27.3844  -20.8568   19.5945 H   0  0  0  0  0  0
  -24.1025  -22.6731   21.3622 H   0  0  0  0  0  0
  -25.6291  -23.2007   20.7364 H   0  0  0  0  0  0
  -24.7080  -24.2658   21.7774 H   0  0  0  0  0  0
  -23.6765  -22.0489   23.6276 H   0  0  0  0  0  0
  -24.1424  -23.6661   24.0959 H   0  0  0  0  0  0
  -24.8577  -22.2911   24.9116 H   0  0  0  0  0  0
  -28.6903  -24.4904   23.3773 H   0  0  0  0  0  0
  -28.5682  -23.2072   22.2310 H   0  0  0  0  0  0
  -26.7655  -25.6381   21.9900 H   0  0  0  0  0  0
  -27.3109  -24.5791   20.7090 H   0  0  0  0  0  0
  -26.3549  -24.3852   23.9631 H   0  0  0  0  0  0
  -27.2118  -22.9423   24.3555 H   0  0  0  0  0  0
  -28.9073  -17.5362   22.7870 H   0  0  0  0  0  0
  -27.8955  -16.4044   21.9283 H   0  0  0  0  0  0
  -27.2344  -17.9527   20.2643 H   0  0  0  0  0  0
  -28.6441  -18.9360   20.5242 H   0  0  0  0  0  0
  -30.7384  -17.2324   21.2970 H   0  0  0  0  0  0
  -29.6918  -16.7519   19.9718 H   0  0  0  0  0  0
  -29.6766  -25.5605   21.0987 H   0  0  0  0  0  0
  -28.8854  -26.7985   22.0612 H   0  0  0  0  0  0
  -29.2482  -14.8345   21.8976 H   0  0  0  0  0  0
  1 25  1  0  0  0
  1 30  2  0  0  0
  1 88  1  0  0  0
  2  3  1  0  0  0
  2 25  1  0  0  0
  2 89  1  0  0  0
  2 90  1  0  0  0
  3  4  1  0  0  0
  3 91  1  0  0  0
  3 92  1  0  0  0
  4  5  1  0  0  0
  4 93  1  0  0  0
  4 94  1  0  0  0
  5  6  1  0  0  0
  5 26  1  0  0  0
  5 95  1  0  0  0
  6 25  1  0  0  0
  6 96  1  0  0  0
  6 97  1  0  0  0
  7  8  2  0  0  0
  7 26  1  0  0  0
  7 29  1  0  0  0
  8  9  1  0  0  0
  8 22  1  0  0  0
  9 10  1  0  0  0
  9 27  2  0  0  0
 10 11  2  0  0  0
 10 15  1  0  0  0
 11 12  1  0  0  0
 11 98  1  0  0  0
 12 13  2  0  0  0
 12 99  1  0  0  0
 13 14  1  0  0  0
 13 31  1  0  0  0
 14 15  2  0  0  0
 14100  1  0  0  0
 15101  1  0  0  0
 16 17  2  0  0  0
 16 21  1  0  0  0
 16 31  1  0  0  0
 17 18  1  0  0  0
 17102  1  0  0  0
 18 19  2  0  0  0
 18103  1  0  0  0
 19 20  1  0  0  0
 19 24  1  0  0  0
 20 21  2  0  0  0
 20104  1  0  0  0
 21 23  1  0  0  0
 22 28  1  0  0  0
 22 32  2  0  0  0
 26 27  1  0  0  0
 28105  1  0  0  0
 28106  1  0  0  0
 29107  1  0  0  0
 29108  1  0  0  0
 33 34  1  0  0  0
 33 66  1  0  0  0
 33 70  2  0  0  0
 34 36  1  0  0  0
 34 59  1  0  0  0
 34109  1  0  0  0
 35 44  2  0  0  0
 35 45  1  0  0  0
 35 68  1  0  0  0
 36 56  1  0  0  0
 36110  1  0  0  0
 37 39  1  0  0  0
 37 47  1  0  0  0
 37 66  1  0  0  0
 37111  1  0  0  0
 38 43  2  0  0  0
 38 46  1  0  0  0
 38 47  1  0  0  0
 39 64  1  0  0  0
 39 67  2  0  0  0
 40 52  1  0  0  0
 40 53  2  0  0  0
 40 58  1  0  0  0
 41112  1  0  0  0
 41113  1  0  0  0
 41114  1  0  0  0
 41 48  1  0  0  0
 42 43  1  0  0  0
 42 66  1  0  0  0
 42115  1  0  0  0
 42116  1  0  0  0
 43 44  1  0  0  0
 44117  1  0  0  0
 45 46  2  0  0  0
 45118  1  0  0  0
 46119  1  0  0  0
 47120  1  0  0  0
 47121  1  0  0  0
 48 56  1  0  0  0
 48 65  1  0  0  0
 48122  1  0  0  0
 49 50  1  0  0  0
 49 53  1  0  0  0
 49 64  1  0  0  0
 49123  1  0  0  0
 50 51  1  0  0  0
 50124  1  0  0  0
 50125  1  0  0  0
 51 52  1  0  0  0
 51126  1  0  0  0
 51127  1  0  0  0
 52128  1  0  0  0
 52129  1  0  0  0
 53 54  1  0  0  0
 54 55  2  0  0  0
 54130  1  0  0  0
 55 57  1  0  0  0
 55131  1  0  0  0
 56 69  2  0  0  0
 57 58  2  0  0  0
 57132  1  0  0  0
 58133  1  0  0  0
 59 60  1  0  0  0
 59 61  1  0  0  0
 59 62  1  0  0  0
 60134  1  0  0  0
 60135  1  0  0  0
 60136  1  0  0  0
 61137  1  0  0  0
 61138  1  0  0  0
 61139  1  0  0  0
 62140  1  0  0  0
 62141  1  0  0  0
 62142  1  0  0  0
 63 65  1  0  0  0
 63143  1  0  0  0
 63144  1  0  0  0
 63145  1  0  0  0
 64146  1  0  0  0
 65147  1  0  0  0
 68 85  1  0  0  0
 71 72  1  0  0  0
 71 73  2  0  0  0
 71148  1  0  0  0
 72 74  2  0  0  0
 72 86  1  0  0  0
 73 75  1  0  0  0
 73 87  1  0  0  0
 74 76  1  0  0  0
 74 87  1  0  0  0
 75149  1  0  0  0
 75150  1  0  0  0
 75151  1  0  0  0
 76152  1  0  0  0
 76153  1  0  0  0
 76154  1  0  0  0
 77155  1  0  0  0
 77156  1  0  0  0
 77157  1  0  0  0
 77 86  1  0  0  0
 78 86  1  0  0  0
 78158  1  0  0  0
 78159  1  0  0  0
 78160  1  0  0  0
 79 80  1  0  0  0
 79 81  1  0  0  0
 79161  1  0  0  0
 79162  1  0  0  0
 80 85  1  0  0  0
 80163  1  0  0  0
 80164  1  0  0  0
 81 86  1  0  0  0
 81165  1  0  0  0
 81166  1  0  0  0
 82 83  1  0  0  0
 82 84  1  0  0  0
 82167  1  0  0  0
 82168  1  0  0  0
 83 87  1  0  0  0
 83169  1  0  0  0
 83170  1  0  0  0
 84 88  1  0  0  0
 84171  1  0  0  0
 84172  1  0  0  0
 85173  1  0  0  0
 85174  1  0  0  0
 88175  1  0  0  0
M  ISO  4   1 100  68 101  85 101  88 100
M  END
> <chiral flag>
0

> <version>
0

> <s_m_source_file>
/data/baiqing/PycharmProjects/Reinvent-master-3.2/result/LINK_invent/BTK/process_docking_weight1_custom_sum_contain_oxygen_bond_distance_aromatic_linkinvent_7_9_3/rearranged_h_0072.sdf

> <i_m_source_file_index>
34

> <r_mmod_Potential_Energy-OPLS-2005>
-49.5129432678223

> <r_mmod_Stretch_Energy-OPLS-2005>
36.4432792663574

> <r_mmod_Bend_Energy-OPLS-2005>
120.024345397949

> <r_mmod_Torsional_Energy-OPLS-2005>
269.444030761719

> <r_mmod_Improper_Torsional_Energy-OPLS-2005>
5.8383731842041

> <r_mmod_Van_der_Waal_Energy-OPLS-2005>
139.576614379883

> <r_mmod_Electrostatic_Energy-OPLS-2005>
-425.469207763672

> <r_mmod_Solvation_Energy-OPLS-2005>
-202.844467163086

> <b_mmod_Minimization_Converged-OPLS-2005>
0

> <r_mmod_RMS_Derivative-OPLS-2005>
3.45396518707275

$$$$
35
                    3D
 Structure written by MMmdl.
165173  0  0  1  0            999 V2000
  -29.0052  -16.3123   20.7965 C   0  0  0  0  0  0
  -30.0776  -13.8061   19.7281 C   0  0  0  0  0  0
  -29.5077  -12.9454   18.5170 C   0  0  0  0  0  0
  -28.1668  -12.3069   18.8855 C   0  0  0  0  0  0
  -27.4508  -13.2754   19.8359 C   0  0  2  0  0  0
  -28.2414  -13.7317   21.0609 C   0  0  0  0  0  0
  -25.1596  -13.8091   20.5604 C   0  0  0  0  0  0
  -24.1147  -13.0262   20.9278 C   0  0  0  0  0  0
  -24.5872  -11.6769   20.8776 C   0  0  0  0  0  0
  -23.8777  -10.4162   21.0477 C   0  0  0  0  0  0
  -24.3474   -9.4141   21.9231 C   0  0  0  0  0  0
  -23.6214   -8.2161   22.0775 C   0  0  0  0  0  0
  -22.4211   -8.0182   21.3550 C   0  0  0  0  0  0
  -21.9771   -9.0119   20.4664 C   0  0  0  0  0  0
  -22.7014  -10.2009   20.3090 C   0  0  0  0  0  0
  -21.6824   -6.0687   22.5291 C   0  0  0  0  0  0
  -21.3972   -6.5605   23.8210 C   0  0  0  0  0  0
  -21.3637   -5.6776   24.9190 C   0  0  0  0  0  0
  -21.6051   -4.3037   24.7250 C   0  0  0  0  0  0
  -21.8836   -3.8111   23.4372 C   0  0  0  0  0  0
  -21.9187   -4.6925   22.3421 C   0  0  0  0  0  0
  -22.7296  -13.5100   21.1999 C   0  0  0  0  0  0
  -22.1669   -4.2104   21.1000 F   0  0  0  0  0  0
  -21.5633   -3.4527   25.7766 F   0  0  0  0  0  0
  -29.0450  -14.7920   20.5008 N   0  0  0  0  0  0
  -26.1655  -12.9150   20.2754 N   0  0  0  0  0  0
  -25.8666  -11.6318   20.5475 N   0  0  0  0  0  0
  -22.0008  -12.8125   22.0605 N   0  0  0  0  0  0
  -25.3330  -15.1885   20.4163 N   0  0  0  0  0  0
  -30.2915  -16.3709   20.6473 O   0  0  0  0  0  0
  -21.6597   -6.8784   21.4244 O   0  0  0  0  0  0
  -22.3082  -14.5470   20.6878 O   0  0  0  0  0  0
  -24.6560  -31.9215   23.2246 C   0  0  0  0  0  0
  -25.9409  -32.5097   23.8568 C   0  0  1  0  0  0
  -27.0734  -27.3910   20.0322 C   0  0  0  0  0  0
  -25.6218  -33.8839   24.2529 N   0  0  0  0  0  0
  -23.4550  -30.5310   21.6348 C   0  0  2  0  0  0
  -24.8224  -29.0735   20.0728 C   0  0  0  0  0  0
  -23.0479  -29.4226   22.6194 C   0  0  0  0  0  0
  -18.4636  -27.1730   23.0533 C   0  0  0  0  0  0
  -24.1484  -36.7423   23.2609 C   0  0  0  0  0  0
  -25.9864  -30.8293   21.4010 C   0  0  0  0  0  0
  -26.0020  -29.4706   20.7264 C   0  0  0  0  0  0
  -27.1326  -28.6098   20.7517 C   0  0  0  0  0  0
  -25.9645  -27.1601   19.2176 C   0  0  0  0  0  0
  -24.8005  -27.9171   19.2934 C   0  0  0  0  0  0
  -23.6133  -29.9642   20.2036 C   0  0  0  0  0  0
  -25.4105  -36.3269   24.0339 C   0  0  1  0  0  0
  -21.4243  -27.7239   23.0832 C   0  0  2  0  0  0
  -22.0849  -26.7632   21.3176 C   0  0  0  0  0  0
  -20.2610  -25.5292   20.4140 C   0  0  0  0  0  0
  -18.6984  -25.7080   21.8845 C   0  0  0  0  0  0
  -19.6630  -28.0168   23.6020 C   0  0  0  0  0  0
  -19.3076  -29.3971   24.0343 C   0  0  0  0  0  0
  -18.0149  -30.0043   24.0219 C   0  0  0  0  0  0
  -25.9091  -34.9649   23.5170 C   0  0  0  0  0  0
  -16.9384  -29.2537   23.5335 C   0  0  0  0  0  0
  -17.1799  -27.9152   23.0608 C   0  0  0  0  0  0
  -26.4583  -31.6699   25.0838 C   0  0  0  0  0  0
  -25.3717  -31.3762   26.1448 C   0  0  0  0  0  0
  -27.0343  -30.3158   24.6099 C   0  0  0  0  0  0
  -27.6149  -32.4301   25.7699 C   0  0  0  0  0  0
  -27.5599  -37.1883   24.8455 C   0  0  0  0  0  0
  -21.7910  -29.1087   22.7418 N   0  0  0  0  0  0
  -26.4304  -37.3947   23.9419 N   0  0  0  0  0  0
  -24.7226  -31.1369   22.1193 N   0  0  0  0  0  0
  -23.8670  -28.7987   23.2784 O   0  0  0  0  0  0
  -28.0258  -26.4008   20.0894 O   0  0  0  0  0  0
  -26.5548  -34.9066   22.4657 O   0  0  0  0  0  0
  -23.5722  -32.1946   23.7644 O   0  0  0  0  0  0
  -20.9159  -23.6217   21.9442 C   0  0  0  0  0  0
  -21.2194  -25.0111   22.4300 C   0  0  0  0  0  0
  -21.7121  -22.8981   20.8982 C   0  0  0  0  0  0
  -23.4971  -22.5360   22.1296 C   0  0  0  0  0  0
  -20.0251  -27.4914   21.2760 C   0  0  0  0  0  0
  -25.2673  -20.7492   23.6025 C   0  0  0  0  0  0
  -26.2057  -24.3199   20.0585 C   0  0  0  0  0  0
  -24.9296  -24.1984   19.0744 C   0  0  0  0  0  0
  -26.2919  -19.0861   21.3258 C   0  0  0  0  0  0
  -27.5966  -25.0540   19.6337 C   0  0  0  0  0  0
  -23.6951  -23.1892   19.2645 C   0  0  0  0  0  0
  -25.2080  -21.0777   22.1087 C   0  0  1  0  0  0
  -22.7857  -24.1096   22.5619 N   0  0  0  0  0  0
  -22.5331  -21.9628   21.4076 N   0  0  0  0  0  0
  -27.9191  -17.7046   21.2046 N   0  0  0  0  0  0
  -26.3567  -21.8780   22.0140 O   0  0  0  0  0  0
  -22.4264  -23.6415   19.9022 O   0  0  0  0  0  0
  -30.8804  -14.4181   19.3181 H   0  0  0  0  0  0
  -30.5903  -13.1465   20.4305 H   0  0  0  0  0  0
  -30.2246  -12.1881   18.1965 H   0  0  0  0  0  0
  -29.3638  -13.5939   17.6526 H   0  0  0  0  0  0
  -28.3547  -11.3661   19.4067 H   0  0  0  0  0  0
  -27.5675  -12.0890   17.9987 H   0  0  0  0  0  0
  -27.2640  -14.1343   19.1866 H   0  0  0  0  0  0
  -28.7776  -12.9347   21.5769 H   0  0  0  0  0  0
  -27.6087  -14.1991   21.8203 H   0  0  0  0  0  0
  -25.2625   -9.5702   22.4793 H   0  0  0  0  0  0
  -23.9949   -7.4578   22.7493 H   0  0  0  0  0  0
  -21.0703   -8.8631   19.8971 H   0  0  0  0  0  0
  -22.3474  -10.9585   19.6225 H   0  0  0  0  0  0
  -21.1938   -7.6107   23.9702 H   0  0  0  0  0  0
  -21.1441   -6.0499   25.9081 H   0  0  0  0  0  0
  -22.0630   -2.7573   23.2896 H   0  0  0  0  0  0
  -22.3577  -11.9756   22.4964 H   0  0  0  0  0  0
  -21.0661  -13.1222   22.2881 H   0  0  0  0  0  0
  -24.5722  -15.8393   20.5745 H   0  0  0  0  0  0
  -26.1641  -15.6354   20.0537 H   0  0  0  0  0  0
  -26.7504  -32.5737   23.1346 H   0  0  0  0  0  0
  -25.0405  -34.0006   25.0709 H   0  0  0  0  0  0
  -22.6744  -31.2939   21.6028 H   0  0  0  0  0  0
  -23.3783  -35.9723   23.3279 H   0  0  0  0  0  0
  -24.3595  -36.9017   22.2025 H   0  0  0  0  0  0
  -23.7180  -37.6617   23.6585 H   0  0  0  0  0  0
  -26.1031  -31.5692   20.6118 H   0  0  0  0  0  0
  -26.8979  -30.8819   21.9928 H   0  0  0  0  0  0
  -28.0168  -28.8348   21.3334 H   0  0  0  0  0  0
  -26.0005  -26.4034   18.4556 H   0  0  0  0  0  0
  -23.9523  -27.6565   18.6696 H   0  0  0  0  0  0
  -23.7854  -30.8102   19.5411 H   0  0  0  0  0  0
  -22.7089  -29.4772   19.8374 H   0  0  0  0  0  0
  -25.1243  -36.2190   25.0833 H   0  0  0  0  0  0
  -21.9631  -27.3641   23.9594 H   0  0  0  0  0  0
  -23.0479  -26.2621   21.4429 H   0  0  0  0  0  0
  -22.4308  -27.4901   20.5949 H   0  0  0  0  0  0
  -20.3414  -24.5897   19.8764 H   0  0  0  0  0  0
  -19.9406  -26.0056   19.4729 H   0  0  0  0  0  0
  -17.7624  -25.6150   21.3294 H   0  0  0  0  0  0
  -18.6660  -24.8222   22.5208 H   0  0  0  0  0  0
  -20.1124  -30.0387   24.3805 H   0  0  0  0  0  0
  -17.8723  -31.0215   24.3691 H   0  0  0  0  0  0
  -15.9451  -29.6849   23.4800 H   0  0  0  0  0  0
  -16.3373  -27.4027   22.6214 H   0  0  0  0  0  0
  -24.5918  -30.7148   25.7646 H   0  0  0  0  0  0
  -24.8895  -32.2905   26.4914 H   0  0  0  0  0  0
  -25.7951  -30.8853   27.0218 H   0  0  0  0  0  0
  -26.2885  -29.7061   24.1004 H   0  0  0  0  0  0
  -27.3989  -29.7205   25.4475 H   0  0  0  0  0  0
  -27.8774  -30.4509   23.9321 H   0  0  0  0  0  0
  -27.2789  -33.3571   26.2363 H   0  0  0  0  0  0
  -28.3985  -32.6893   25.0564 H   0  0  0  0  0  0
  -28.0777  -31.8327   26.5562 H   0  0  0  0  0  0
  -28.2610  -38.0200   24.7603 H   0  0  0  0  0  0
  -28.1104  -36.2744   24.6161 H   0  0  0  0  0  0
  -27.2327  -37.1412   25.8861 H   0  0  0  0  0  0
  -21.0941  -29.6834   22.2972 H   0  0  0  0  0  0
  -26.0220  -38.3025   24.1487 H   0  0  0  0  0  0
  -20.6339  -22.9788   22.7667 H   0  0  0  0  0  0
  -20.4309  -27.8279   20.3020 H   0  0  0  0  0  0
  -20.0288  -28.5651   21.4736 H   0  0  0  0  0  0
  -19.0425  -27.5551   20.7736 H   0  0  0  0  0  0
  -24.3691  -20.2181   23.9087 H   0  0  0  0  0  0
  -25.3396  -21.6506   24.2165 H   0  0  0  0  0  0
  -26.1343  -20.1245   23.8300 H   0  0  0  0  0  0
  -26.5479  -23.2925   20.1571 H   0  0  0  0  0  0
  -25.9030  -24.6360   21.0601 H   0  0  0  0  0  0
  -25.3530  -23.8969   18.1151 H   0  0  0  0  0  0
  -24.4643  -25.1563   18.8873 H   0  0  0  0  0  0
  -26.1826  -19.2693   20.2535 H   0  0  0  0  0  0
  -25.4980  -18.3682   21.5333 H   0  0  0  0  0  0
  -27.7496  -24.9714   18.5571 H   0  0  0  0  0  0
  -28.3951  -24.4297   20.0291 H   0  0  0  0  0  0
  -24.0703  -22.2093   19.5621 H   0  0  0  0  0  0
  -23.3426  -22.9602   18.2532 H   0  0  0  0  0  0
  -28.6701  -18.3484   21.4317 H   0  0  0  0  0  0
  -26.0584  -22.7413   22.2846 H   0  0  0  0  0  0
  1 25  1  0  0  0
  1 30  2  0  0  0
  1 85  1  0  0  0
  2  3  1  0  0  0
  2 25  1  0  0  0
  2 88  1  0  0  0
  2 89  1  0  0  0
  3  4  1  0  0  0
  3 90  1  0  0  0
  3 91  1  0  0  0
  4  5  1  0  0  0
  4 92  1  0  0  0
  4 93  1  0  0  0
  5  6  1  0  0  0
  5 26  1  0  0  0
  5 94  1  0  0  0
  6 25  1  0  0  0
  6 95  1  0  0  0
  6 96  1  0  0  0
  7  8  2  0  0  0
  7 26  1  0  0  0
  7 29  1  0  0  0
  8  9  1  0  0  0
  8 22  1  0  0  0
  9 10  1  0  0  0
  9 27  2  0  0  0
 10 11  2  0  0  0
 10 15  1  0  0  0
 11 12  1  0  0  0
 11 97  1  0  0  0
 12 13  2  0  0  0
 12 98  1  0  0  0
 13 14  1  0  0  0
 13 31  1  0  0  0
 14 15  2  0  0  0
 14 99  1  0  0  0
 15100  1  0  0  0
 16 17  2  0  0  0
 16 21  1  0  0  0
 16 31  1  0  0  0
 17 18  1  0  0  0
 17101  1  0  0  0
 18 19  2  0  0  0
 18102  1  0  0  0
 19 20  1  0  0  0
 19 24  1  0  0  0
 20 21  2  0  0  0
 20103  1  0  0  0
 21 23  1  0  0  0
 22 28  1  0  0  0
 22 32  2  0  0  0
 26 27  1  0  0  0
 28104  1  0  0  0
 28105  1  0  0  0
 29106  1  0  0  0
 29107  1  0  0  0
 33 34  1  0  0  0
 33 66  1  0  0  0
 33 70  2  0  0  0
 34 36  1  0  0  0
 34 59  1  0  0  0
 34108  1  0  0  0
 35 44  2  0  0  0
 35 45  1  0  0  0
 35 68  1  0  0  0
 36 56  1  0  0  0
 36109  1  0  0  0
 37 39  1  0  0  0
 37 47  1  0  0  0
 37 66  1  0  0  0
 37110  1  0  0  0
 38 43  2  0  0  0
 38 46  1  0  0  0
 38 47  1  0  0  0
 39 64  1  0  0  0
 39 67  2  0  0  0
 40 52  1  0  0  0
 40 53  2  0  0  0
 40 58  1  0  0  0
 41111  1  0  0  0
 41112  1  0  0  0
 41113  1  0  0  0
 41 48  1  0  0  0
 42 43  1  0  0  0
 42 66  1  0  0  0
 42114  1  0  0  0
 42115  1  0  0  0
 43 44  1  0  0  0
 44116  1  0  0  0
 45 46  2  0  0  0
 45117  1  0  0  0
 46118  1  0  0  0
 47119  1  0  0  0
 47120  1  0  0  0
 48 56  1  0  0  0
 48 65  1  0  0  0
 48121  1  0  0  0
 49 50  1  0  0  0
 49 53  1  0  0  0
 49 64  1  0  0  0
 49122  1  0  0  0
 50 51  1  0  0  0
 50123  1  0  0  0
 50124  1  0  0  0
 51 52  1  0  0  0
 51125  1  0  0  0
 51126  1  0  0  0
 52127  1  0  0  0
 52128  1  0  0  0
 53 54  1  0  0  0
 54 55  2  0  0  0
 54129  1  0  0  0
 55 57  1  0  0  0
 55130  1  0  0  0
 56 69  2  0  0  0
 57 58  2  0  0  0
 57131  1  0  0  0
 58132  1  0  0  0
 59 60  1  0  0  0
 59 61  1  0  0  0
 59 62  1  0  0  0
 60133  1  0  0  0
 60134  1  0  0  0
 60135  1  0  0  0
 61136  1  0  0  0
 61137  1  0  0  0
 61138  1  0  0  0
 62139  1  0  0  0
 62140  1  0  0  0
 62141  1  0  0  0
 63 65  1  0  0  0
 63142  1  0  0  0
 63143  1  0  0  0
 63144  1  0  0  0
 64145  1  0  0  0
 65146  1  0  0  0
 68 80  1  0  0  0
 71 72  2  0  0  0
 71 73  1  0  0  0
 71147  1  0  0  0
 72 75  1  0  0  0
 72 83  1  0  0  0
 73 84  2  0  0  0
 73 87  1  0  0  0
 74 82  1  0  0  0
 74 83  2  0  0  0
 74 84  1  0  0  0
 75148  1  0  0  0
 75149  1  0  0  0
 75150  1  0  0  0
 76151  1  0  0  0
 76152  1  0  0  0
 76153  1  0  0  0
 76 82  1  0  0  0
 77 78  1  0  0  0
 77 80  1  0  0  0
 77154  1  0  0  0
 77155  1  0  0  0
 78 81  1  0  0  0
 78156  1  0  0  0
 78157  1  0  0  0
 79 82  1  0  0  0
 79 85  1  0  0  0
 79158  1  0  0  0
 79159  1  0  0  0
 80160  1  0  0  0
 80161  1  0  0  0
 81 87  1  0  0  0
 81162  1  0  0  0
 81163  1  0  0  0
 82 86  1  0  0  0
 85164  1  0  0  0
 86165  1  0  0  0
M  ISO  4   1 100  68 101  80 101  85 100
M  END
> <chiral flag>
0

> <version>
0

> <s_m_source_file>
/data/baiqing/PycharmProjects/Reinvent-master-3.2/result/LINK_invent/BTK/process_docking_weight1_custom_sum_contain_oxygen_bond_distance_aromatic_linkinvent_7_9_3/rearranged_h_0072.sdf

> <i_m_source_file_index>
35

> <r_mmod_Potential_Energy-OPLS-2005>
15832.5322265625

> <r_mmod_Stretch_Energy-OPLS-2005>
8826.8037109375

> <r_mmod_Bend_Energy-OPLS-2005>
1834.86389160156

> <r_mmod_Torsional_Energy-OPLS-2005>
589.2236328125

> <r_mmod_Improper_Torsional_Energy-OPLS-2005>
59.2181701660156

> <r_mmod_Van_der_Waal_Energy-OPLS-2005>
2145.96435546875

> <r_mmod_Electrostatic_Energy-OPLS-2005>
-891.231201171875

> <r_mmod_Solvation_Energy-OPLS-2005>
-259.979675292969

> <b_mmod_Minimization_Converged-OPLS-2005>
0

> <r_mmod_RMS_Derivative-OPLS-2005>
14.9990186691284

$$$$
36
                    3D
 Structure written by MMmdl.
165173  0  0  1  0            999 V2000
  -30.5519  -14.7396   20.4020 C   0  0  0  0  0  0
  -30.4561  -12.4223   19.4920 C   0  0  0  0  0  0
  -29.5330  -12.4462   18.2493 C   0  0  0  0  0  0
  -28.0456  -12.3029   18.6448 C   0  0  0  0  0  0
  -27.6409  -13.1916   19.8484 C   0  0  2  0  0  0
  -28.6890  -13.1215   20.9821 C   0  0  0  0  0  0
  -25.2587  -13.8090   20.5668 C   0  0  0  0  0  0
  -24.1813  -13.0408   20.9171 C   0  0  0  0  0  0
  -24.6329  -11.6869   20.8711 C   0  0  0  0  0  0
  -23.8992  -10.4280   21.0410 C   0  0  0  0  0  0
  -24.3568   -9.4205   21.9186 C   0  0  0  0  0  0
  -23.6262   -8.2238   22.0749 C   0  0  0  0  0  0
  -22.4236   -8.0266   21.3545 C   0  0  0  0  0  0
  -21.9848   -9.0230   20.4643 C   0  0  0  0  0  0
  -22.7168  -10.2121   20.3058 C   0  0  0  0  0  0
  -21.6850   -6.0715   22.5281 C   0  0  0  0  0  0
  -21.4004   -6.5623   23.8204 C   0  0  0  0  0  0
  -21.3629   -5.6771   24.9164 C   0  0  0  0  0  0
  -21.6039   -4.3038   24.7213 C   0  0  0  0  0  0
  -21.8834   -3.8134   23.4328 C   0  0  0  0  0  0
  -21.9195   -4.6945   22.3390 C   0  0  0  0  0  0
  -22.7848  -13.5257   21.1796 C   0  0  0  0  0  0
  -22.1689   -4.2137   21.0969 F   0  0  0  0  0  0
  -21.5606   -3.4512   25.7721 F   0  0  0  0  0  0
  -30.0012  -13.4759   20.4245 N   0  0  0  0  0  0
  -26.2927  -12.9188   20.3260 N   0  0  0  0  0  0
  -25.9248  -11.6386   20.5732 N   0  0  0  0  0  0
  -22.0480  -12.8304   22.0383 N   0  0  0  0  0  0
  -25.4391  -15.1811   20.4071 N   0  0  0  0  0  0
  -31.7675  -14.8685   20.2185 O   0  0  0  0  0  0
  -21.6630   -6.8843   21.4238 O   0  0  0  0  0  0
  -22.3546  -14.5518   20.6542 O   0  0  0  0  0  0
  -24.6320  -31.8577   23.2016 C   0  0  0  0  0  0
  -25.9170  -32.4768   23.8360 C   0  0  1  0  0  0
  -27.2135  -27.2536   20.1032 C   0  0  0  0  0  0
  -25.5957  -33.8563   24.2256 N   0  0  0  0  0  0
  -23.4256  -30.4878   21.5485 C   0  0  2  0  0  0
  -24.8663  -28.9539   20.1062 C   0  0  0  0  0  0
  -22.7527  -29.4623   22.4924 C   0  0  0  0  0  0
  -18.0300  -28.1386   22.8481 C   0  0  0  0  0  0
  -24.1496  -36.7286   23.2636 C   0  0  0  0  0  0
  -25.9771  -30.7700   21.3843 C   0  0  0  0  0  0
  -26.0442  -29.3971   20.7175 C   0  0  0  0  0  0
  -27.2118  -28.5635   20.7041 C   0  0  0  0  0  0
  -25.9909  -26.8939   19.4836 C   0  0  0  0  0  0
  -24.8505  -27.7115   19.4749 C   0  0  0  0  0  0
  -23.6385  -29.8372   20.1606 C   0  0  0  0  0  0
  -25.4127  -36.3068   24.0314 C   0  0  1  0  0  0
  -20.5904  -28.3693   23.1255 C   0  0  2  0  0  0
  -20.6777  -26.9412   22.5395 C   0  0  0  0  0  0
  -19.5749  -26.6374   21.5205 C   0  0  0  0  0  0
  -18.1931  -26.7927   22.1624 C   0  0  0  0  0  0
  -19.1558  -28.8855   23.2861 C   0  0  0  0  0  0
  -18.9484  -30.1456   23.8883 C   0  0  0  0  0  0
  -17.6484  -30.6590   24.0560 C   0  0  0  0  0  0
  -25.9072  -34.9443   23.5090 C   0  0  0  0  0  0
  -16.5372  -29.9085   23.6332 C   0  0  0  0  0  0
  -16.7286  -28.6499   23.0354 C   0  0  0  0  0  0
  -26.4507  -31.6600   25.0755 C   0  0  0  0  0  0
  -25.3691  -31.3796   26.1449 C   0  0  0  0  0  0
  -27.0356  -30.3004   24.6269 C   0  0  0  0  0  0
  -27.6050  -32.4361   25.7526 C   0  0  0  0  0  0
  -27.5588  -37.1796   24.8469 C   0  0  0  0  0  0
  -21.4230  -29.3048   22.3662 N   0  0  0  0  0  0
  -26.4292  -37.3772   23.9417 N   0  0  0  0  0  0
  -24.6983  -31.0570   22.0999 N   0  0  0  0  0  0
  -23.4235  -28.8107   23.2980 O   0  0  0  0  0  0
  -28.3612  -26.4022   20.1804 O   0  0  0  0  0  0
  -26.5650  -34.8926   22.4661 O   0  0  0  0  0  0
  -23.5480  -32.1404   23.7326 O   0  0  0  0  0  0
  -29.7809  -19.6588   21.0563 C   0  0  0  0  0  0
  -30.3176  -18.6308   20.2682 C   0  0  0  0  0  0
  -32.1510  -19.8931   18.9625 C   0  0  0  0  0  0
  -29.4130  -16.1510   18.6030 C   0  0  0  0  0  0
  -27.4420  -24.3192   18.8730 C   0  0  0  0  0  0
  -29.7457  -25.1501   18.7211 C   0  0  0  0  0  0
  -29.9800  -21.2228   21.1746 C   0  0  0  0  0  0
  -31.2541  -18.6584   19.0917 C   0  0  0  0  0  0
  -29.0400  -22.2711   20.4084 C   0  0  0  0  0  0
  -29.0837  -23.8584   20.7704 C   0  0  0  0  0  0
  -29.5960  -16.0094   20.1316 C   0  0  2  0  0  0
  -28.5729  -24.9682   19.6986 C   0  0  0  0  0  0
  -28.9746  -19.0041   21.9935 N   0  0  0  0  0  0
  -28.9719  -17.7123   21.8068 N   0  0  0  0  0  0
  -29.7509  -17.4090   20.7346 N   0  0  0  0  0  0
  -31.4973  -12.5753   19.1988 H   0  0  0  0  0  0
  -30.4234  -11.4454   19.9758 H   0  0  0  0  0  0
  -29.8088  -11.6375   17.5733 H   0  0  0  0  0  0
  -29.6930  -13.3637   17.6849 H   0  0  0  0  0  0
  -27.8805  -11.2545   18.8937 H   0  0  0  0  0  0
  -27.4074  -12.5115   17.7867 H   0  0  0  0  0  0
  -27.5999  -14.1947   19.4495 H   0  0  0  0  0  0
  -28.7243  -12.1141   21.4010 H   0  0  0  0  0  0
  -28.4235  -13.7812   21.8112 H   0  0  0  0  0  0
  -25.2729   -9.5665   22.4727 H   0  0  0  0  0  0
  -23.9959   -7.4622   22.7460 H   0  0  0  0  0  0
  -21.0784   -8.8710   19.8940 H   0  0  0  0  0  0
  -22.3631  -10.9631   19.6114 H   0  0  0  0  0  0
  -21.2027   -7.6137   23.9691 H   0  0  0  0  0  0
  -21.1421   -6.0515   25.9057 H   0  0  0  0  0  0
  -22.0642   -2.7602   23.2840 H   0  0  0  0  0  0
  -22.4083  -12.0005   22.4871 H   0  0  0  0  0  0
  -21.1064  -13.1303   22.2452 H   0  0  0  0  0  0
  -24.6749  -15.8393   20.5044 H   0  0  0  0  0  0
  -26.2903  -15.6156   20.0749 H   0  0  0  0  0  0
  -26.7230  -32.5400   23.1103 H   0  0  0  0  0  0
  -25.0089  -33.9707   25.0381 H   0  0  0  0  0  0
  -22.7187  -31.3094   21.4128 H   0  0  0  0  0  0
  -23.3764  -35.9614   23.3292 H   0  0  0  0  0  0
  -24.3588  -36.8916   22.2055 H   0  0  0  0  0  0
  -23.7242  -37.6476   23.6670 H   0  0  0  0  0  0
  -26.1246  -31.5355   20.6214 H   0  0  0  0  0  0
  -26.8521  -30.8073   22.0205 H   0  0  0  0  0  0
  -28.1104  -28.9105   21.1919 H   0  0  0  0  0  0
  -25.7936  -25.9714   18.9905 H   0  0  0  0  0  0
  -23.9510  -27.3687   18.9801 H   0  0  0  0  0  0
  -23.7495  -30.6179   19.4064 H   0  0  0  0  0  0
  -22.7553  -29.2675   19.8628 H   0  0  0  0  0  0
  -25.1308  -36.1911   25.0800 H   0  0  0  0  0  0
  -20.9996  -28.3275   24.1379 H   0  0  0  0  0  0
  -20.5654  -26.2325   23.3613 H   0  0  0  0  0  0
  -21.6642  -26.7412   22.1202 H   0  0  0  0  0  0
  -19.6911  -25.6273   21.1258 H   0  0  0  0  0  0
  -19.6686  -27.3167   20.6716 H   0  0  0  0  0  0
  -17.4202  -26.6680   21.4029 H   0  0  0  0  0  0
  -18.0338  -26.0061   22.9013 H   0  0  0  0  0  0
  -19.7954  -30.7266   24.2258 H   0  0  0  0  0  0
  -17.5041  -31.6269   24.5157 H   0  0  0  0  0  0
  -15.5375  -30.2994   23.7637 H   0  0  0  0  0  0
  -15.8689  -28.0808   22.7084 H   0  0  0  0  0  0
  -24.5843  -30.7183   25.7768 H   0  0  0  0  0  0
  -24.8910  -32.2995   26.4830 H   0  0  0  0  0  0
  -25.7939  -30.8979   27.0265 H   0  0  0  0  0  0
  -26.2961  -29.6756   24.1249 H   0  0  0  0  0  0
  -27.3982  -29.7264   25.4810 H   0  0  0  0  0  0
  -27.8866  -30.4274   23.9573 H   0  0  0  0  0  0
  -27.2642  -33.3669   26.2088 H   0  0  0  0  0  0
  -28.3864  -32.6926   25.0354 H   0  0  0  0  0  0
  -28.0736  -31.8516   26.5458 H   0  0  0  0  0  0
  -28.2588  -38.0104   24.7525 H   0  0  0  0  0  0
  -28.1093  -36.2636   24.6277 H   0  0  0  0  0  0
  -27.2319  -37.1432   25.8872 H   0  0  0  0  0  0
  -20.9415  -29.8819   21.6899 H   0  0  0  0  0  0
  -26.0174  -38.2840   24.1414 H   0  0  0  0  0  0
  -32.8358  -19.7677   18.1226 H   0  0  0  0  0  0
  -32.7517  -20.0408   19.8597 H   0  0  0  0  0  0
  -31.5756  -20.7988   18.7731 H   0  0  0  0  0  0
  -28.8932  -17.0741   18.3472 H   0  0  0  0  0  0
  -28.8249  -15.3471   18.1702 H   0  0  0  0  0  0
  -30.3707  -16.1424   18.0810 H   0  0  0  0  0  0
  -27.7217  -23.3554   18.4565 H   0  0  0  0  0  0
  -27.1978  -24.9119   17.9919 H   0  0  0  0  0  0
  -26.5575  -24.1273   19.4850 H   0  0  0  0  0  0
  -29.9971  -24.2118   18.2237 H   0  0  0  0  0  0
  -30.6452  -25.4912   19.2372 H   0  0  0  0  0  0
  -29.5181  -25.8766   17.9411 H   0  0  0  0  0  0
  -31.0125  -21.4712   20.9388 H   0  0  0  0  0  0
  -29.8931  -21.4729   22.2336 H   0  0  0  0  0  0
  -30.6797  -18.5632   18.1702 H   0  0  0  0  0  0
  -31.8963  -17.7760   19.1372 H   0  0  0  0  0  0
  -28.0102  -21.9480   20.5528 H   0  0  0  0  0  0
  -29.2513  -22.1274   19.3500 H   0  0  0  0  0  0
  -30.1141  -24.0980   21.0383 H   0  0  0  0  0  0
  -28.5387  -24.0050   21.7034 H   0  0  0  0  0  0
  -28.6266  -15.7062   20.5155 H   0  0  0  0  0  0
  1 25  1  0  0  0
  1 30  2  0  0  0
  1 81  1  0  0  0
  2  3  1  0  0  0
  2 25  1  0  0  0
  2 86  1  0  0  0
  2 87  1  0  0  0
  3  4  1  0  0  0
  3 88  1  0  0  0
  3 89  1  0  0  0
  4  5  1  0  0  0
  4 90  1  0  0  0
  4 91  1  0  0  0
  5  6  1  0  0  0
  5 26  1  0  0  0
  5 92  1  0  0  0
  6 25  1  0  0  0
  6 93  1  0  0  0
  6 94  1  0  0  0
  7  8  2  0  0  0
  7 26  1  0  0  0
  7 29  1  0  0  0
  8  9  1  0  0  0
  8 22  1  0  0  0
  9 10  1  0  0  0
  9 27  2  0  0  0
 10 11  2  0  0  0
 10 15  1  0  0  0
 11 12  1  0  0  0
 11 95  1  0  0  0
 12 13  2  0  0  0
 12 96  1  0  0  0
 13 14  1  0  0  0
 13 31  1  0  0  0
 14 15  2  0  0  0
 14 97  1  0  0  0
 15 98  1  0  0  0
 16 17  2  0  0  0
 16 21  1  0  0  0
 16 31  1  0  0  0
 17 18  1  0  0  0
 17 99  1  0  0  0
 18 19  2  0  0  0
 18100  1  0  0  0
 19 20  1  0  0  0
 19 24  1  0  0  0
 20 21  2  0  0  0
 20101  1  0  0  0
 21 23  1  0  0  0
 22 28  1  0  0  0
 22 32  2  0  0  0
 26 27  1  0  0  0
 28102  1  0  0  0
 28103  1  0  0  0
 29104  1  0  0  0
 29105  1  0  0  0
 33 34  1  0  0  0
 33 66  1  0  0  0
 33 70  2  0  0  0
 34 36  1  0  0  0
 34 59  1  0  0  0
 34106  1  0  0  0
 35 44  2  0  0  0
 35 45  1  0  0  0
 35 68  1  0  0  0
 36 56  1  0  0  0
 36107  1  0  0  0
 37 39  1  0  0  0
 37 47  1  0  0  0
 37 66  1  0  0  0
 37108  1  0  0  0
 38 43  2  0  0  0
 38 46  1  0  0  0
 38 47  1  0  0  0
 39 64  1  0  0  0
 39 67  2  0  0  0
 40 52  1  0  0  0
 40 53  2  0  0  0
 40 58  1  0  0  0
 41109  1  0  0  0
 41110  1  0  0  0
 41111  1  0  0  0
 41 48  1  0  0  0
 42 43  1  0  0  0
 42 66  1  0  0  0
 42112  1  0  0  0
 42113  1  0  0  0
 43 44  1  0  0  0
 44114  1  0  0  0
 45 46  2  0  0  0
 45115  1  0  0  0
 46116  1  0  0  0
 47117  1  0  0  0
 47118  1  0  0  0
 48 56  1  0  0  0
 48 65  1  0  0  0
 48119  1  0  0  0
 49 50  1  0  0  0
 49 53  1  0  0  0
 49 64  1  0  0  0
 49120  1  0  0  0
 50 51  1  0  0  0
 50121  1  0  0  0
 50122  1  0  0  0
 51 52  1  0  0  0
 51123  1  0  0  0
 51124  1  0  0  0
 52125  1  0  0  0
 52126  1  0  0  0
 53 54  1  0  0  0
 54 55  2  0  0  0
 54127  1  0  0  0
 55 57  1  0  0  0
 55128  1  0  0  0
 56 69  2  0  0  0
 57 58  2  0  0  0
 57129  1  0  0  0
 58130  1  0  0  0
 59 60  1  0  0  0
 59 61  1  0  0  0
 59 62  1  0  0  0
 60131  1  0  0  0
 60132  1  0  0  0
 60133  1  0  0  0
 61134  1  0  0  0
 61135  1  0  0  0
 61136  1  0  0  0
 62137  1  0  0  0
 62138  1  0  0  0
 62139  1  0  0  0
 63 65  1  0  0  0
 63140  1  0  0  0
 63141  1  0  0  0
 63142  1  0  0  0
 64143  1  0  0  0
 65144  1  0  0  0
 68 82  1  0  0  0
 71 72  2  0  0  0
 71 77  1  0  0  0
 71 83  1  0  0  0
 72 78  1  0  0  0
 72 85  1  0  0  0
 73 78  1  0  0  0
 73145  1  0  0  0
 73146  1  0  0  0
 73147  1  0  0  0
 74148  1  0  0  0
 74149  1  0  0  0
 74150  1  0  0  0
 74 81  1  0  0  0
 75151  1  0  0  0
 75152  1  0  0  0
 75153  1  0  0  0
 75 82  1  0  0  0
 76 82  1  0  0  0
 76154  1  0  0  0
 76155  1  0  0  0
 76156  1  0  0  0
 77 79  1  0  0  0
 77157  1  0  0  0
 77158  1  0  0  0
 78159  1  0  0  0
 78160  1  0  0  0
 79 80  1  0  0  0
 79161  1  0  0  0
 79162  1  0  0  0
 80 82  1  0  0  0
 80163  1  0  0  0
 80164  1  0  0  0
 81 85  1  0  0  0
 81165  1  0  0  0
 83 84  2  0  0  0
 84 85  1  0  0  0
M  ISO  4   1 100  68 101  81 100  82 101
M  END
> <chiral flag>
0

> <version>
0

> <s_m_source_file>
/data/baiqing/PycharmProjects/Reinvent-master-3.2/result/LINK_invent/BTK/process_docking_weight1_custom_sum_contain_oxygen_bond_distance_aromatic_linkinvent_7_9_3/rearranged_h_0072.sdf

> <i_m_source_file_index>
36

> <r_mmod_Potential_Energy-OPLS-2005>
306.818939208984

> <r_mmod_Stretch_Energy-OPLS-2005>
131.919357299805

> <r_mmod_Bend_Energy-OPLS-2005>
232.901428222656

> <r_mmod_Torsional_Energy-OPLS-2005>
239.71516418457

> <r_mmod_Improper_Torsional_Energy-OPLS-2005>
14.2781610488892

> <r_mmod_Van_der_Waal_Energy-OPLS-2005>
135.096572875977

> <r_mmod_Electrostatic_Energy-OPLS-2005>
-336.683715820312

> <r_mmod_Solvation_Energy-OPLS-2005>
-197.423431396484

> <b_mmod_Minimization_Converged-OPLS-2005>
0

> <r_mmod_RMS_Derivative-OPLS-2005>
4.32921838760376

$$$$
37
                    3D
 Structure written by MMmdl.
155163  0  0  1  0            999 V2000
  -30.6235  -14.9593   20.4725 C   0  0  0  0  0  0
  -30.4274  -12.5928   19.5218 C   0  0  0  0  0  0
  -29.5294  -12.5508   18.2634 C   0  0  0  0  0  0
  -28.0549  -12.3553   18.6579 C   0  0  0  0  0  0
  -27.6361  -13.2648   19.8435 C   0  0  2  0  0  0
  -28.6803  -13.2940   20.9855 C   0  0  0  0  0  0
  -25.2433  -13.8246   20.5694 C   0  0  0  0  0  0
  -24.1790  -13.0433   20.9235 C   0  0  0  0  0  0
  -24.6441  -11.6930   20.8728 C   0  0  0  0  0  0
  -23.9114  -10.4295   21.0386 C   0  0  0  0  0  0
  -24.3668   -9.4219   21.9168 C   0  0  0  0  0  0
  -23.6337   -8.2263   22.0771 C   0  0  0  0  0  0
  -22.4319   -8.0286   21.3557 C   0  0  0  0  0  0
  -21.9945   -9.0261   20.4656 C   0  0  0  0  0  0
  -22.7275  -10.2131   20.3034 C   0  0  0  0  0  0
  -21.6848   -6.0735   22.5273 C   0  0  0  0  0  0
  -21.4006   -6.5634   23.8203 C   0  0  0  0  0  0
  -21.3664   -5.6792   24.9165 C   0  0  0  0  0  0
  -21.6070   -4.3055   24.7229 C   0  0  0  0  0  0
  -21.8824   -3.8151   23.4335 C   0  0  0  0  0  0
  -21.9190   -4.6959   22.3391 C   0  0  0  0  0  0
  -22.7797  -13.5173   21.1882 C   0  0  0  0  0  0
  -22.1676   -4.2147   21.0966 F   0  0  0  0  0  0
  -21.5672   -3.4546   25.7743 F   0  0  0  0  0  0
  -29.9682  -13.7138   20.4137 N   0  0  0  0  0  0
  -26.2919  -12.9537   20.3259 N   0  0  0  0  0  0
  -25.9389  -11.6634   20.5721 N   0  0  0  0  0  0
  -22.0447  -12.8169   22.0426 N   0  0  0  0  0  0
  -25.3940  -15.1993   20.4121 N   0  0  0  0  0  0
  -31.7494  -14.9475   19.9587 O   0  0  0  0  0  0
  -21.6665   -6.8895   21.4249 O   0  0  0  0  0  0
  -22.3459  -14.5462   20.6676 O   0  0  0  0  0  0
  -24.6446  -31.8414   23.1846 C   0  0  0  0  0  0
  -25.9202  -32.4683   23.8264 C   0  0  1  0  0  0
  -27.2282  -27.1206   20.1664 C   0  0  0  0  0  0
  -25.5917  -33.8487   24.2169 N   0  0  0  0  0  0
  -23.4507  -30.4570   21.5332 C   0  0  2  0  0  0
  -24.9006  -28.8795   20.1099 C   0  0  0  0  0  0
  -22.7546  -29.4531   22.4841 C   0  0  0  0  0  0
  -18.0302  -28.1382   22.8483 C   0  0  0  0  0  0
  -24.1480  -36.7276   23.2653 C   0  0  0  0  0  0
  -26.0045  -30.7115   21.3852 C   0  0  0  0  0  0
  -26.0747  -29.3190   20.7329 C   0  0  0  0  0  0
  -27.2324  -28.4562   20.7464 C   0  0  0  0  0  0
  -26.0288  -26.7835   19.4966 C   0  0  0  0  0  0
  -24.8920  -27.6275   19.4748 C   0  0  0  0  0  0
  -23.6741  -29.7809   20.1543 C   0  0  0  0  0  0
  -25.4116  -36.3048   24.0320 C   0  0  1  0  0  0
  -20.5917  -28.3755   23.1264 C   0  0  2  0  0  0
  -20.6760  -26.9406   22.5539 C   0  0  0  0  0  0
  -19.5755  -26.6319   21.5328 C   0  0  0  0  0  0
  -18.1905  -26.7891   22.1676 C   0  0  0  0  0  0
  -19.1566  -28.8905   23.2841 C   0  0  0  0  0  0
  -18.9473  -30.1522   23.8798 C   0  0  0  0  0  0
  -17.6480  -30.6634   24.0496 C   0  0  0  0  0  0
  -25.9058  -34.9414   23.5069 C   0  0  0  0  0  0
  -16.5364  -29.9091   23.6324 C   0  0  0  0  0  0
  -16.7293  -28.6513   23.0322 C   0  0  0  0  0  0
  -26.4495  -31.6570   25.0721 C   0  0  0  0  0  0
  -25.3678  -31.3768   26.1411 C   0  0  0  0  0  0
  -27.0353  -30.2965   24.6321 C   0  0  0  0  0  0
  -27.6008  -32.4360   25.7507 C   0  0  0  0  0  0
  -27.5564  -37.1779   24.8457 C   0  0  0  0  0  0
  -21.4242  -29.3058   22.3577 N   0  0  0  0  0  0
  -26.4273  -37.3768   23.9419 N   0  0  0  0  0  0
  -24.7208  -31.0234   22.0896 N   0  0  0  0  0  0
  -23.4150  -28.8120   23.3070 O   0  0  0  0  0  0
  -28.3057  -26.1644   20.3024 O   0  0  0  0  0  0
  -26.5664  -34.8920   22.4651 O   0  0  0  0  0  0
  -23.5556  -32.1297   23.7037 O   0  0  0  0  0  0
  -28.2189  -17.5342   19.8516 C   0  0  0  0  0  0
  -29.4527  -17.7550   20.4930 C   0  0  0  0  0  0
  -27.7617  -19.8343   19.6371 C   0  0  0  0  0  0
  -28.9791  -20.2239   20.2520 C   0  0  0  0  0  0
  -26.7786  -20.8637   19.1113 C   0  0  0  0  0  0
  -29.4107  -21.8307   20.2214 C   0  0  0  0  0  0
  -28.5463  -23.2256   20.6894 C   0  0  0  0  0  0
  -28.3753  -24.6754   19.8182 C   0  0  0  0  0  0
  -30.2127  -16.4416   21.1628 C   0  0  1  0  0  0
  -29.7981  -16.2784   22.6463 C   0  0  0  0  0  0
  -27.3997  -18.5361   19.4438 N   0  0  0  0  0  0
  -29.8125  -19.1373   20.6728 N   0  0  0  0  0  0
  -30.3805  -15.2209   23.2169 F   0  0  0  0  0  0
  -30.1589  -17.3519   23.3545 F   0  0  0  0  0  0
  -28.4767  -16.1328   22.7501 F   0  0  0  0  0  0
  -31.4696  -12.6923   19.2192 H   0  0  0  0  0  0
  -30.3854  -11.6389   20.0507 H   0  0  0  0  0  0
  -29.8490  -11.7523   17.5917 H   0  0  0  0  0  0
  -29.6446  -13.4766   17.6994 H   0  0  0  0  0  0
  -27.9185  -11.3051   18.9190 H   0  0  0  0  0  0
  -27.4079  -12.5453   17.8009 H   0  0  0  0  0  0
  -27.5964  -14.2702   19.4289 H   0  0  0  0  0  0
  -28.7632  -12.3144   21.4587 H   0  0  0  0  0  0
  -28.3552  -13.9705   21.7693 H   0  0  0  0  0  0
  -25.2837   -9.5709   22.4690 H   0  0  0  0  0  0
  -24.0070   -7.4672   22.7505 H   0  0  0  0  0  0
  -21.0865   -8.8766   19.8977 H   0  0  0  0  0  0
  -22.3754  -10.9657   19.6116 H   0  0  0  0  0  0
  -21.2000   -7.6131   23.9696 H   0  0  0  0  0  0
  -21.1478   -6.0529   25.9060 H   0  0  0  0  0  0
  -22.0595   -2.7605   23.2832 H   0  0  0  0  0  0
  -22.4110  -11.9892   22.4915 H   0  0  0  0  0  0
  -21.1024  -13.1142   22.2522 H   0  0  0  0  0  0
  -24.6023  -15.8239   20.5196 H   0  0  0  0  0  0
  -26.2126  -15.6656   20.0471 H   0  0  0  0  0  0
  -26.7267  -32.5282   23.0994 H   0  0  0  0  0  0
  -24.9953  -33.9600   25.0242 H   0  0  0  0  0  0
  -22.7618  -31.2873   21.3746 H   0  0  0  0  0  0
  -23.3748  -35.9593   23.3299 H   0  0  0  0  0  0
  -24.3582  -36.8934   22.2076 H   0  0  0  0  0  0
  -23.7209  -37.6460   23.6702 H   0  0  0  0  0  0
  -26.1507  -31.4597   20.6050 H   0  0  0  0  0  0
  -26.8779  -30.7718   22.0230 H   0  0  0  0  0  0
  -28.1223  -28.7898   21.2605 H   0  0  0  0  0  0
  -25.9217  -25.8261   19.0094 H   0  0  0  0  0  0
  -23.9953  -27.2880   18.9760 H   0  0  0  0  0  0
  -23.8105  -30.5549   19.3991 H   0  0  0  0  0  0
  -22.7875  -29.2262   19.8436 H   0  0  0  0  0  0
  -25.1286  -36.1885   25.0810 H   0  0  0  0  0  0
  -21.0014  -28.3443   24.1403 H   0  0  0  0  0  0
  -20.5614  -26.2378   23.3806 H   0  0  0  0  0  0
  -21.6630  -26.7289   22.1379 H   0  0  0  0  0  0
  -19.6746  -27.3048   20.6826 H   0  0  0  0  0  0
  -19.7009  -25.6207   21.1462 H   0  0  0  0  0  0
  -17.4166  -26.6585   21.4071 H   0  0  0  0  0  0
  -18.0294  -26.0067   22.9123 H   0  0  0  0  0  0
  -19.7951  -30.7418   24.2048 H   0  0  0  0  0  0
  -17.5056  -31.6357   24.5006 H   0  0  0  0  0  0
  -15.5353  -30.2981   23.7661 H   0  0  0  0  0  0
  -15.8732  -28.0761   22.7055 H   0  0  0  0  0  0
  -24.5858  -30.7104   25.7755 H   0  0  0  0  0  0
  -24.8837  -32.2941   26.4776 H   0  0  0  0  0  0
  -25.7952  -30.8993   27.0239 H   0  0  0  0  0  0
  -26.2967  -29.6702   24.1297 H   0  0  0  0  0  0
  -27.3922  -29.7246   25.4902 H   0  0  0  0  0  0
  -27.8912  -30.4202   23.9679 H   0  0  0  0  0  0
  -27.2577  -33.3692   26.2002 H   0  0  0  0  0  0
  -28.3857  -32.6873   25.0361 H   0  0  0  0  0  0
  -28.0650  -31.8548   26.5489 H   0  0  0  0  0  0
  -28.2548  -38.0102   24.7522 H   0  0  0  0  0  0
  -28.1076  -36.2617   24.6252 H   0  0  0  0  0  0
  -27.2280  -37.1429   25.8858 H   0  0  0  0  0  0
  -20.9432  -29.8835   21.6814 H   0  0  0  0  0  0
  -26.0139  -38.2832   24.1442 H   0  0  0  0  0  0
  -27.8447  -16.5322   19.7166 H   0  0  0  0  0  0
  -26.2919  -21.3739   19.9427 H   0  0  0  0  0  0
  -25.9963  -20.3968   18.5134 H   0  0  0  0  0  0
  -27.2791  -21.6020   18.4829 H   0  0  0  0  0  0
  -29.6906  -22.0085   19.1834 H   0  0  0  0  0  0
  -30.3640  -21.8742   20.7535 H   0  0  0  0  0  0
  -28.9990  -23.5162   21.6372 H   0  0  0  0  0  0
  -27.5474  -22.9146   20.9894 H   0  0  0  0  0  0
  -27.5672  -24.5070   19.1104 H   0  0  0  0  0  0
  -29.2575  -24.6995   19.1763 H   0  0  0  0  0  0
  -31.2141  -16.8666   21.2526 H   0  0  0  0  0  0
  1 25  1  0  0  0
  1 30  2  0  0  0
  1 79  1  0  0  0
  2  3  1  0  0  0
  2 25  1  0  0  0
  2 86  1  0  0  0
  2 87  1  0  0  0
  3  4  1  0  0  0
  3 88  1  0  0  0
  3 89  1  0  0  0
  4  5  1  0  0  0
  4 90  1  0  0  0
  4 91  1  0  0  0
  5  6  1  0  0  0
  5 26  1  0  0  0
  5 92  1  0  0  0
  6 25  1  0  0  0
  6 93  1  0  0  0
  6 94  1  0  0  0
  7  8  2  0  0  0
  7 26  1  0  0  0
  7 29  1  0  0  0
  8  9  1  0  0  0
  8 22  1  0  0  0
  9 10  1  0  0  0
  9 27  2  0  0  0
 10 11  2  0  0  0
 10 15  1  0  0  0
 11 12  1  0  0  0
 11 95  1  0  0  0
 12 13  2  0  0  0
 12 96  1  0  0  0
 13 14  1  0  0  0
 13 31  1  0  0  0
 14 15  2  0  0  0
 14 97  1  0  0  0
 15 98  1  0  0  0
 16 17  2  0  0  0
 16 21  1  0  0  0
 16 31  1  0  0  0
 17 18  1  0  0  0
 17 99  1  0  0  0
 18 19  2  0  0  0
 18100  1  0  0  0
 19 20  1  0  0  0
 19 24  1  0  0  0
 20 21  2  0  0  0
 20101  1  0  0  0
 21 23  1  0  0  0
 22 28  1  0  0  0
 22 32  2  0  0  0
 26 27  1  0  0  0
 28102  1  0  0  0
 28103  1  0  0  0
 29104  1  0  0  0
 29105  1  0  0  0
 33 34  1  0  0  0
 33 66  1  0  0  0
 33 70  2  0  0  0
 34 36  1  0  0  0
 34 59  1  0  0  0
 34106  1  0  0  0
 35 44  2  0  0  0
 35 45  1  0  0  0
 35 68  1  0  0  0
 36 56  1  0  0  0
 36107  1  0  0  0
 37 39  1  0  0  0
 37 47  1  0  0  0
 37 66  1  0  0  0
 37108  1  0  0  0
 38 43  2  0  0  0
 38 46  1  0  0  0
 38 47  1  0  0  0
 39 64  1  0  0  0
 39 67  2  0  0  0
 40 52  1  0  0  0
 40 53  2  0  0  0
 40 58  1  0  0  0
 41109  1  0  0  0
 41110  1  0  0  0
 41111  1  0  0  0
 41 48  1  0  0  0
 42 43  1  0  0  0
 42 66  1  0  0  0
 42112  1  0  0  0
 42113  1  0  0  0
 43 44  1  0  0  0
 44114  1  0  0  0
 45 46  2  0  0  0
 45115  1  0  0  0
 46116  1  0  0  0
 47117  1  0  0  0
 47118  1  0  0  0
 48 56  1  0  0  0
 48 65  1  0  0  0
 48119  1  0  0  0
 49 50  1  0  0  0
 49 53  1  0  0  0
 49 64  1  0  0  0
 49120  1  0  0  0
 50 51  1  0  0  0
 50121  1  0  0  0
 50122  1  0  0  0
 51 52  1  0  0  0
 51123  1  0  0  0
 51124  1  0  0  0
 52125  1  0  0  0
 52126  1  0  0  0
 53 54  1  0  0  0
 54 55  2  0  0  0
 54127  1  0  0  0
 55 57  1  0  0  0
 55128  1  0  0  0
 56 69  2  0  0  0
 57 58  2  0  0  0
 57129  1  0  0  0
 58130  1  0  0  0
 59 60  1  0  0  0
 59 61  1  0  0  0
 59 62  1  0  0  0
 60131  1  0  0  0
 60132  1  0  0  0
 60133  1  0  0  0
 61134  1  0  0  0
 61135  1  0  0  0
 61136  1  0  0  0
 62137  1  0  0  0
 62138  1  0  0  0
 62139  1  0  0  0
 63 65  1  0  0  0
 63140  1  0  0  0
 63141  1  0  0  0
 63142  1  0  0  0
 64143  1  0  0  0
 65144  1  0  0  0
 68 78  1  0  0  0
 71 72  2  0  0  0
 71 81  1  0  0  0
 71145  1  0  0  0
 72 79  1  0  0  0
 72 82  1  0  0  0
 73 74  1  0  0  0
 73 75  1  0  0  0
 73 81  2  0  0  0
 74 76  1  0  0  0
 74 82  2  0  0  0
 75146  1  0  0  0
 75147  1  0  0  0
 75148  1  0  0  0
 76 77  1  0  0  0
 76149  1  0  0  0
 76150  1  0  0  0
 77 78  1  0  0  0
 77151  1  0  0  0
 77152  1  0  0  0
 78153  1  0  0  0
 78154  1  0  0  0
 79 80  1  0  0  0
 79155  1  0  0  0
 80 83  1  0  0  0
 80 84  1  0  0  0
 80 85  1  0  0  0
M  ISO  4   1 100  68 101  78 101  79 100
M  END
> <chiral flag>
0

> <version>
0

> <s_m_source_file>
/data/baiqing/PycharmProjects/Reinvent-master-3.2/result/LINK_invent/BTK/process_docking_weight1_custom_sum_contain_oxygen_bond_distance_aromatic_linkinvent_7_9_3/rearranged_h_0072.sdf

> <i_m_source_file_index>
37

> <r_mmod_Potential_Energy-OPLS-2005>
719.334289550781

> <r_mmod_Stretch_Energy-OPLS-2005>
308.878997802734

> <r_mmod_Bend_Energy-OPLS-2005>
352.389526367188

> <r_mmod_Torsional_Energy-OPLS-2005>
181.294281005859

> <r_mmod_Improper_Torsional_Energy-OPLS-2005>
4.08914041519165

> <r_mmod_Van_der_Waal_Energy-OPLS-2005>
129.864700317383

> <r_mmod_Electrostatic_Energy-OPLS-2005>
-254.565475463867

> <r_mmod_Solvation_Energy-OPLS-2005>
-196.365036010742

> <b_mmod_Minimization_Converged-OPLS-2005>
0

> <r_mmod_RMS_Derivative-OPLS-2005>
4.32825469970703

$$$$
38
                    3D
 Structure written by MMmdl.
188196  0  0  1  0            999 V2000
  -30.7247  -14.6021   20.3548 C   0  0  0  0  0  0
  -30.4027  -12.3603   19.4371 C   0  0  0  0  0  0
  -29.4699  -12.4195   18.2111 C   0  0  0  0  0  0
  -28.0053  -12.2249   18.6469 C   0  0  0  0  0  0
  -27.6079  -13.1503   19.8180 C   0  0  2  0  0  0
  -28.6762  -13.1765   20.9398 C   0  0  0  0  0  0
  -25.2431  -13.7969   20.5677 C   0  0  0  0  0  0
  -24.1652  -13.0316   20.9247 C   0  0  0  0  0  0
  -24.6194  -11.6788   20.8798 C   0  0  0  0  0  0
  -23.8881  -10.4205   21.0412 C   0  0  0  0  0  0
  -24.3484   -9.4121   21.9177 C   0  0  0  0  0  0
  -23.6189   -8.2150   22.0724 C   0  0  0  0  0  0
  -22.4181   -8.0192   21.3503 C   0  0  0  0  0  0
  -21.9775   -9.0156   20.4606 C   0  0  0  0  0  0
  -22.7074  -10.2064   20.3048 C   0  0  0  0  0  0
  -21.6834   -6.0655   22.5267 C   0  0  0  0  0  0
  -21.3981   -6.5583   23.8183 C   0  0  0  0  0  0
  -21.3641   -5.6757   24.9171 C   0  0  0  0  0  0
  -21.6043   -4.3026   24.7251 C   0  0  0  0  0  0
  -21.8793   -3.8087   23.4378 C   0  0  0  0  0  0
  -21.9172   -4.6886   22.3424 C   0  0  0  0  0  0
  -22.7686  -13.5190   21.1882 C   0  0  0  0  0  0
  -22.1649   -4.2056   21.1007 F   0  0  0  0  0  0
  -21.5640   -3.4518   25.7785 F   0  0  0  0  0  0
  -29.9921  -13.4464   20.3444 N   0  0  0  0  0  0
  -26.2731  -12.8968   20.3239 N   0  0  0  0  0  0
  -25.9080  -11.6228   20.5804 N   0  0  0  0  0  0
  -22.0314  -12.8210   22.0464 N   0  0  0  0  0  0
  -25.4222  -15.1649   20.3979 N   0  0  0  0  0  0
  -31.9512  -14.5276   20.3317 O   0  0  0  0  0  0
  -21.6581   -6.8765   21.4207 O   0  0  0  0  0  0
  -22.3427  -14.5504   20.6722 O   0  0  0  0  0  0
  -24.6140  -31.8672   23.2080 C   0  0  0  0  0  0
  -25.9038  -32.4825   23.8376 C   0  0  1  0  0  0
  -27.2567  -27.4437   20.0957 C   0  0  0  0  0  0
  -25.5898  -33.8619   24.2332 N   0  0  0  0  0  0
  -23.4065  -30.4848   21.5469 C   0  0  2  0  0  0
  -24.8613  -28.9480   20.1149 C   0  0  0  0  0  0
  -22.7439  -29.4607   22.4981 C   0  0  0  0  0  0
  -18.0283  -28.1346   22.8518 C   0  0  0  0  0  0
  -24.1480  -36.7314   23.2646 C   0  0  0  0  0  0
  -25.9337  -30.8326   21.3623 C   0  0  0  0  0  0
  -26.0166  -29.4637   20.7169 C   0  0  0  0  0  0
  -27.2160  -28.7167   20.7074 C   0  0  0  0  0  0
  -26.0895  -26.9415   19.4830 C   0  0  0  0  0  0
  -24.8931  -27.6860   19.4906 C   0  0  0  0  0  0
  -23.6213  -29.8131   20.1630 C   0  0  0  0  0  0
  -25.4093  -36.3093   24.0342 C   0  0  1  0  0  0
  -20.5879  -28.3627   23.1351 C   0  0  2  0  0  0
  -20.6769  -26.9366   22.5430 C   0  0  0  0  0  0
  -19.5741  -26.6367   21.5235 C   0  0  0  0  0  0
  -18.1916  -26.7903   22.1640 C   0  0  0  0  0  0
  -19.1530  -28.8809   23.2937 C   0  0  0  0  0  0
  -18.9451  -30.1421   23.8940 C   0  0  0  0  0  0
  -17.6442  -30.6565   24.0562 C   0  0  0  0  0  0
  -25.9007  -34.9470   23.5120 C   0  0  0  0  0  0
  -16.5339  -29.9061   23.6313 C   0  0  0  0  0  0
  -16.7270  -28.6472   23.0351 C   0  0  0  0  0  0
  -26.4474  -31.6576   25.0689 C   0  0  0  0  0  0
  -25.3760  -31.3652   26.1442 C   0  0  0  0  0  0
  -27.0314  -30.3026   24.6025 C   0  0  0  0  0  0
  -27.6037  -32.4288   25.7486 C   0  0  0  0  0  0
  -27.5568  -37.1804   24.8464 C   0  0  0  0  0  0
  -21.4148  -29.2996   22.3754 N   0  0  0  0  0  0
  -26.4276  -37.3774   23.9403 N   0  0  0  0  0  0
  -24.6694  -31.0759   22.0980 N   0  0  0  0  0  0
  -23.4216  -28.8136   23.3000 O   0  0  0  0  0  0
  -28.4354  -26.7275   20.0723 O   0  0  0  0  0  0
  -26.5563  -34.8922   22.4671 O   0  0  0  0  0  0
  -23.5330  -32.1424   23.7473 O   0  0  0  0  0  0
  -31.0184  -18.9545   22.1249 C   0  0  0  0  0  0
  -30.4046  -18.1093   23.0079 C   0  0  0  0  0  0
  -30.5464  -17.0816   21.0040 C   0  0  0  0  0  0
  -30.9529  -17.3573   25.3009 C   0  0  0  0  0  0
  -28.5613  -17.8431   24.6851 C   0  0  0  0  0  0
  -30.1790  -19.7166   24.9268 C   0  0  0  0  0  0
  -28.6635  -16.2230   19.7574 C   0  0  0  0  0  0
  -30.3346  -22.8316   21.8963 C   0  0  0  0  0  0
  -32.4005  -22.9128   20.5444 C   0  0  0  0  0  0
  -31.4564  -20.4444   19.1603 C   0  0  0  0  0  0
  -28.8054  -24.2924   19.6939 C   0  0  0  0  0  0
  -30.4019  -21.3991   19.8205 C   0  0  0  0  0  0
  -30.3272  -23.9968   19.6276 C   0  0  0  0  0  0
  -31.5470  -18.9368   19.6298 C   0  0  0  0  0  0
  -30.8630  -16.2657   18.5089 C   0  0  0  0  0  0
  -28.3937  -25.4238   20.6707 C   0  0  0  0  0  0
  -30.0294  -18.2539   24.4629 C   0  0  0  0  0  0
  -30.1890  -16.0412   19.9260 C   0  0  2  0  0  0
  -30.8604  -22.7715   20.4470 C   0  0  0  0  0  0
  -31.0396  -18.3428   20.8922 N   0  0  0  0  0  0
  -30.1671  -16.9652   22.2885 N   0  3  0  0  0  0
  -30.1918  -17.1941   17.5577 N   0  3  0  0  0  0
  -31.4417  -12.4358   19.1101 H   0  0  0  0  0  0
  -30.3172  -11.4009   19.9453 H   0  0  0  0  0  0
  -29.7541  -11.6432   17.4995 H   0  0  0  0  0  0
  -29.5771  -13.3726   17.6928 H   0  0  0  0  0  0
  -27.8883  -11.1851   18.9541 H   0  0  0  0  0  0
  -27.3328  -12.3715   17.8016 H   0  0  0  0  0  0
  -27.5152  -14.0952   19.3314 H   0  0  0  0  0  0
  -28.6992  -12.2091   21.4432 H   0  0  0  0  0  0
  -28.4338  -13.9111   21.7076 H   0  0  0  0  0  0
  -25.2600   -9.5609   22.4763 H   0  0  0  0  0  0
  -23.9871   -7.4561   22.7480 H   0  0  0  0  0  0
  -21.0669   -8.8690   19.8940 H   0  0  0  0  0  0
  -22.3498  -10.9633   19.6190 H   0  0  0  0  0  0
  -21.1949   -7.6088   23.9676 H   0  0  0  0  0  0
  -21.1508   -6.0496   25.9080 H   0  0  0  0  0  0
  -22.0596   -2.7551   23.2945 H   0  0  0  0  0  0
  -22.3924  -11.9899   22.4905 H   0  0  0  0  0  0
  -21.0987  -13.1302   22.2744 H   0  0  0  0  0  0
  -24.6593  -15.8243   20.4974 H   0  0  0  0  0  0
  -26.2649  -15.5945   20.0440 H   0  0  0  0  0  0
  -26.7120  -32.5556   23.1153 H   0  0  0  0  0  0
  -25.0131  -33.9780   25.0531 H   0  0  0  0  0  0
  -22.6916  -31.2974   21.4025 H   0  0  0  0  0  0
  -23.3722  -35.9667   23.3325 H   0  0  0  0  0  0
  -24.3571  -36.8915   22.2055 H   0  0  0  0  0  0
  -23.7273  -37.6533   23.6659 H   0  0  0  0  0  0
  -26.0408  -31.5932   20.5872 H   0  0  0  0  0  0
  -26.8226  -30.8937   21.9781 H   0  0  0  0  0  0
  -28.1095  -29.1067   21.1731 H   0  0  0  0  0  0
  -26.1173  -25.9842   18.9806 H   0  0  0  0  0  0
  -24.0120  -27.2912   19.0022 H   0  0  0  0  0  0
  -23.7300  -30.5880   19.4022 H   0  0  0  0  0  0
  -22.7458  -29.2318   19.8668 H   0  0  0  0  0  0
  -25.1263  -36.1928   25.0831 H   0  0  0  0  0  0
  -21.0011  -28.3177   24.1463 H   0  0  0  0  0  0
  -20.5668  -26.2225   23.3605 H   0  0  0  0  0  0
  -21.6623  -26.7389   22.1207 H   0  0  0  0  0  0
  -19.6885  -25.6292   21.1230 H   0  0  0  0  0  0
  -19.6679  -27.3201   20.6788 H   0  0  0  0  0  0
  -17.4186  -26.6697   21.4028 H   0  0  0  0  0  0
  -18.0280  -26.0038   22.9020 H   0  0  0  0  0  0
  -19.7914  -30.7244   24.2326 H   0  0  0  0  0  0
  -17.4977  -31.6251   24.5133 H   0  0  0  0  0  0
  -15.5327  -30.2949   23.7606 H   0  0  0  0  0  0
  -15.8689  -28.0790   22.7036 H   0  0  0  0  0  0
  -24.5930  -30.6995   25.7790 H   0  0  0  0  0  0
  -24.8962  -32.2805   26.4895 H   0  0  0  0  0  0
  -25.8123  -30.8844   27.0208 H   0  0  0  0  0  0
  -26.2830  -29.6709   24.1204 H   0  0  0  0  0  0
  -27.4223  -29.7316   25.4447 H   0  0  0  0  0  0
  -27.8616  -30.4404   23.9093 H   0  0  0  0  0  0
  -27.2605  -33.3523   26.2168 H   0  0  0  0  0  0
  -28.3846  -32.6921   25.0341 H   0  0  0  0  0  0
  -28.0717  -31.8372   26.5357 H   0  0  0  0  0  0
  -28.2574  -38.0110   24.7484 H   0  0  0  0  0  0
  -28.1078  -36.2630   24.6306 H   0  0  0  0  0  0
  -27.2294  -37.1479   25.8875 H   0  0  0  0  0  0
  -20.9260  -29.8794   21.7081 H   0  0  0  0  0  0
  -26.0164  -38.2846   24.1402 H   0  0  0  0  0  0
  -31.4063  -19.9518   22.2738 H   0  0  0  0  0  0
  -30.8536  -16.3063   25.0261 H   0  0  0  0  0  0
  -30.7198  -17.4454   26.3611 H   0  0  0  0  0  0
  -32.0004  -17.6310   25.1744 H   0  0  0  0  0  0
  -28.3939  -16.7889   24.4746 H   0  0  0  0  0  0
  -27.8845  -18.4238   24.0588 H   0  0  0  0  0  0
  -28.2644  -18.0095   25.7225 H   0  0  0  0  0  0
  -31.2057  -20.0678   24.8445 H   0  0  0  0  0  0
  -29.8841  -19.8185   25.9739 H   0  0  0  0  0  0
  -29.5414  -20.3905   24.3539 H   0  0  0  0  0  0
  -28.3173  -15.8229   18.8074 H   0  0  0  0  0  0
  -28.0918  -15.8267   20.5942 H   0  0  0  0  0  0
  -28.4011  -17.2820   19.7136 H   0  0  0  0  0  0
  -30.7097  -21.9966   22.4790 H   0  0  0  0  0  0
  -29.2480  -22.7820   21.9551 H   0  0  0  0  0  0
  -30.6528  -23.7388   22.4068 H   0  0  0  0  0  0
  -32.8555  -22.0380   21.0067 H   0  0  0  0  0  0
  -32.6950  -23.7649   21.1579 H   0  0  0  0  0  0
  -32.8685  -23.0590   19.5686 H   0  0  0  0  0  0
  -32.4466  -20.8977   19.1108 H   0  0  0  0  0  0
  -31.2324  -20.4244   18.0904 H   0  0  0  0  0  0
  -28.4303  -24.5376   18.6999 H   0  0  0  0  0  0
  -28.2847  -23.3753   19.9710 H   0  0  0  0  0  0
  -29.8308  -20.8355   20.5591 H   0  0  0  0  0  0
  -29.6438  -21.5955   19.0560 H   0  0  0  0  0  0
  -30.8550  -24.9074   19.9150 H   0  0  0  0  0  0
  -30.5973  -23.8504   18.5809 H   0  0  0  0  0  0
  -30.4855  -19.0737   19.4163 H   0  0  0  0  0  0
  -32.3712  -19.3459   20.2138 H   0  0  0  0  0  0
  -31.9188  -16.5342   18.6164 H   0  0  0  0  0  0
  -30.8737  -15.3185   17.9685 H   0  0  0  0  0  0
  -29.0648  -25.4368   21.5303 H   0  0  0  0  0  0
  -27.4087  -25.2059   21.0905 H   0  0  0  0  0  0
  -29.7165  -16.1496   22.6827 H   0  0  0  0  0  0
  -29.2391  -16.9140   17.3875 H   0  0  0  0  0  0
  -30.6749  -17.1745   16.6725 H   0  0  0  0  0  0
  -30.1856  -18.1449   17.8731 H   0  0  0  0  0  0
  1 25  1  0  0  0
  1 30  2  0  0  0
  1 88  1  0  0  0
  2  3  1  0  0  0
  2 25  1  0  0  0
  2 93  1  0  0  0
  2 94  1  0  0  0
  3  4  1  0  0  0
  3 95  1  0  0  0
  3 96  1  0  0  0
  4  5  1  0  0  0
  4 97  1  0  0  0
  4 98  1  0  0  0
  5  6  1  0  0  0
  5 26  1  0  0  0
  5 99  1  0  0  0
  6 25  1  0  0  0
  6100  1  0  0  0
  6101  1  0  0  0
  7  8  2  0  0  0
  7 26  1  0  0  0
  7 29  1  0  0  0
  8  9  1  0  0  0
  8 22  1  0  0  0
  9 10  1  0  0  0
  9 27  2  0  0  0
 10 11  2  0  0  0
 10 15  1  0  0  0
 11 12  1  0  0  0
 11102  1  0  0  0
 12 13  2  0  0  0
 12103  1  0  0  0
 13 14  1  0  0  0
 13 31  1  0  0  0
 14 15  2  0  0  0
 14104  1  0  0  0
 15105  1  0  0  0
 16 17  2  0  0  0
 16 21  1  0  0  0
 16 31  1  0  0  0
 17 18  1  0  0  0
 17106  1  0  0  0
 18 19  2  0  0  0
 18107  1  0  0  0
 19 20  1  0  0  0
 19 24  1  0  0  0
 20 21  2  0  0  0
 20108  1  0  0  0
 21 23  1  0  0  0
 22 28  1  0  0  0
 22 32  2  0  0  0
 26 27  1  0  0  0
 28109  1  0  0  0
 28110  1  0  0  0
 29111  1  0  0  0
 29112  1  0  0  0
 33 34  1  0  0  0
 33 66  1  0  0  0
 33 70  2  0  0  0
 34 36  1  0  0  0
 34 59  1  0  0  0
 34113  1  0  0  0
 35 44  2  0  0  0
 35 45  1  0  0  0
 35 68  1  0  0  0
 36 56  1  0  0  0
 36114  1  0  0  0
 37 39  1  0  0  0
 37 47  1  0  0  0
 37 66  1  0  0  0
 37115  1  0  0  0
 38 43  2  0  0  0
 38 46  1  0  0  0
 38 47  1  0  0  0
 39 64  1  0  0  0
 39 67  2  0  0  0
 40 52  1  0  0  0
 40 53  2  0  0  0
 40 58  1  0  0  0
 41116  1  0  0  0
 41117  1  0  0  0
 41118  1  0  0  0
 41 48  1  0  0  0
 42 43  1  0  0  0
 42 66  1  0  0  0
 42119  1  0  0  0
 42120  1  0  0  0
 43 44  1  0  0  0
 44121  1  0  0  0
 45 46  2  0  0  0
 45122  1  0  0  0
 46123  1  0  0  0
 47124  1  0  0  0
 47125  1  0  0  0
 48 56  1  0  0  0
 48 65  1  0  0  0
 48126  1  0  0  0
 49 50  1  0  0  0
 49 53  1  0  0  0
 49 64  1  0  0  0
 49127  1  0  0  0
 50 51  1  0  0  0
 50128  1  0  0  0
 50129  1  0  0  0
 51 52  1  0  0  0
 51130  1  0  0  0
 51131  1  0  0  0
 52132  1  0  0  0
 52133  1  0  0  0
 53 54  1  0  0  0
 54 55  2  0  0  0
 54134  1  0  0  0
 55 57  1  0  0  0
 55135  1  0  0  0
 56 69  2  0  0  0
 57 58  2  0  0  0
 57136  1  0  0  0
 58137  1  0  0  0
 59 60  1  0  0  0
 59 61  1  0  0  0
 59 62  1  0  0  0
 60138  1  0  0  0
 60139  1  0  0  0
 60140  1  0  0  0
 61141  1  0  0  0
 61142  1  0  0  0
 61143  1  0  0  0
 62144  1  0  0  0
 62145  1  0  0  0
 62146  1  0  0  0
 63 65  1  0  0  0
 63147  1  0  0  0
 63148  1  0  0  0
 63149  1  0  0  0
 64150  1  0  0  0
 65151  1  0  0  0
 68 86  1  0  0  0
 71 72  2  0  0  0
 71 90  1  0  0  0
 71152  1  0  0  0
 72 87  1  0  0  0
 72 91  1  0  0  0
 73 88  1  0  0  0
 73 90  1  0  0  0
 73 91  2  0  0  0
 74153  1  0  0  0
 74154  1  0  0  0
 74155  1  0  0  0
 74 87  1  0  0  0
 75 87  1  0  0  0
 75156  1  0  0  0
 75157  1  0  0  0
 75158  1  0  0  0
 76 87  1  0  0  0
 76159  1  0  0  0
 76160  1  0  0  0
 76161  1  0  0  0
 77162  1  0  0  0
 77163  1  0  0  0
 77164  1  0  0  0
 77 88  1  0  0  0
 78165  1  0  0  0
 78166  1  0  0  0
 78167  1  0  0  0
 78 89  1  0  0  0
 79 89  1  0  0  0
 79168  1  0  0  0
 79169  1  0  0  0
 79170  1  0  0  0
 80 82  1  0  0  0
 80 84  1  0  0  0
 80171  1  0  0  0
 80172  1  0  0  0
 81 83  1  0  0  0
 81 86  1  0  0  0
 81173  1  0  0  0
 81174  1  0  0  0
 82 89  1  0  0  0
 82175  1  0  0  0
 82176  1  0  0  0
 83 89  1  0  0  0
 83177  1  0  0  0
 83178  1  0  0  0
 84 90  1  0  0  0
 84179  1  0  0  0
 84180  1  0  0  0
 85 88  1  0  0  0
 85 92  1  0  0  0
 85181  1  0  0  0
 85182  1  0  0  0
 86183  1  0  0  0
 86184  1  0  0  0
 91185  1  0  0  0
 92186  1  0  0  0
 92187  1  0  0  0
 92188  1  0  0  0
M  CHG  2  91   1  92   1
M  ISO  4   1 100  68 101  86 101  88 100
M  END
> <chiral flag>
0

> <version>
0

> <s_m_source_file>
/data/baiqing/PycharmProjects/Reinvent-master-3.2/result/LINK_invent/BTK/process_docking_weight1_custom_sum_contain_oxygen_bond_distance_aromatic_linkinvent_7_9_3/rearranged_h_0072.sdf

> <i_m_source_file_index>
38

> <r_mmod_Potential_Energy-OPLS-2005>
202.134414672852

> <r_mmod_Stretch_Energy-OPLS-2005>
60.3556022644043

> <r_mmod_Bend_Energy-OPLS-2005>
408.226959228516

> <r_mmod_Torsional_Energy-OPLS-2005>
354.061645507812

> <r_mmod_Improper_Torsional_Energy-OPLS-2005>
13.2646989822388

> <r_mmod_Van_der_Waal_Energy-OPLS-2005>
166.671157836914

> <r_mmod_Electrostatic_Energy-OPLS-2005>
84.6392822265625

> <r_mmod_Solvation_Energy-OPLS-2005>
-941.72607421875

> <b_mmod_Minimization_Converged-OPLS-2005>
0

> <r_mmod_RMS_Derivative-OPLS-2005>
5.41941547393799

$$$$
39
                    3D
 Structure written by MMmdl.
161169  0  0  1  0            999 V2000
  -30.6678  -14.6004   20.4971 C   0  0  0  0  0  0
  -30.4315  -12.3717   19.4536 C   0  0  0  0  0  0
  -29.5101  -12.5059   18.2248 C   0  0  0  0  0  0
  -28.0323  -12.3537   18.6324 C   0  0  0  0  0  0
  -27.6580  -13.2201   19.8629 C   0  0  2  0  0  0
  -28.6992  -13.0809   20.9931 C   0  0  0  0  0  0
  -25.2585  -13.8185   20.5623 C   0  0  0  0  0  0
  -24.1864  -13.0466   20.9184 C   0  0  0  0  0  0
  -24.6439  -11.6932   20.8741 C   0  0  0  0  0  0
  -23.9098  -10.4315   21.0406 C   0  0  0  0  0  0
  -24.3650   -9.4223   21.9171 C   0  0  0  0  0  0
  -23.6322   -8.2265   22.0741 C   0  0  0  0  0  0
  -22.4288   -8.0300   21.3550 C   0  0  0  0  0  0
  -21.9930   -9.0275   20.4642 C   0  0  0  0  0  0
  -22.7272  -10.2154   20.3052 C   0  0  0  0  0  0
  -21.6864   -6.0738   22.5270 C   0  0  0  0  0  0
  -21.4016   -6.5630   23.8210 C   0  0  0  0  0  0
  -21.3685   -5.6789   24.9175 C   0  0  0  0  0  0
  -21.6049   -4.3053   24.7210 C   0  0  0  0  0  0
  -21.8832   -3.8139   23.4341 C   0  0  0  0  0  0
  -21.9199   -4.6958   22.3397 C   0  0  0  0  0  0
  -22.7866  -13.5223   21.1847 C   0  0  0  0  0  0
  -22.1654   -4.2154   21.0969 F   0  0  0  0  0  0
  -21.5660   -3.4527   25.7725 F   0  0  0  0  0  0
  -30.0162  -13.4001   20.4239 N   0  0  0  0  0  0
  -26.3027  -12.9386   20.3292 N   0  0  0  0  0  0
  -25.9383  -11.6543   20.5796 N   0  0  0  0  0  0
  -22.0502  -12.8224   22.0414 N   0  0  0  0  0  0
  -25.4277  -15.1907   20.3991 N   0  0  0  0  0  0
  -31.8225  -14.7071   20.0827 O   0  0  0  0  0  0
  -21.6660   -6.8890   21.4241 O   0  0  0  0  0  0
  -22.3543  -14.5534   20.6694 O   0  0  0  0  0  0
  -24.6202  -31.8601   23.2051 C   0  0  0  0  0  0
  -25.9064  -32.4780   23.8380 C   0  0  1  0  0  0
  -27.2176  -27.3542   20.1006 C   0  0  0  0  0  0
  -25.5898  -33.8585   24.2299 N   0  0  0  0  0  0
  -23.4141  -30.4830   21.5468 C   0  0  2  0  0  0
  -24.8572  -28.9367   20.1184 C   0  0  0  0  0  0
  -22.7443  -29.4611   22.4948 C   0  0  0  0  0  0
  -18.0278  -28.1348   22.8497 C   0  0  0  0  0  0
  -24.1490  -36.7265   23.2635 C   0  0  0  0  0  0
  -25.9531  -30.8005   21.3741 C   0  0  0  0  0  0
  -26.0262  -29.4323   20.7097 C   0  0  0  0  0  0
  -27.2140  -28.6539   20.6855 C   0  0  0  0  0  0
  -26.0296  -26.8926   19.4983 C   0  0  0  0  0  0
  -24.8572  -27.6730   19.5060 C   0  0  0  0  0  0
  -23.6250  -29.8124   20.1653 C   0  0  0  0  0  0
  -25.4122  -36.3083   24.0328 C   0  0  1  0  0  0
  -20.5881  -28.3646   23.1289 C   0  0  2  0  0  0
  -20.6760  -26.9377   22.5388 C   0  0  0  0  0  0
  -19.5748  -26.6364   21.5179 C   0  0  0  0  0  0
  -18.1932  -26.7903   22.1604 C   0  0  0  0  0  0
  -19.1533  -28.8816   23.2899 C   0  0  0  0  0  0
  -18.9445  -30.1421   23.8915 C   0  0  0  0  0  0
  -17.6443  -30.6567   24.0551 C   0  0  0  0  0  0
  -25.9047  -34.9442   23.5119 C   0  0  0  0  0  0
  -16.5336  -29.9059   23.6325 C   0  0  0  0  0  0
  -16.7256  -28.6456   23.0384 C   0  0  0  0  0  0
  -26.4492  -31.6594   25.0732 C   0  0  0  0  0  0
  -25.3727  -31.3716   26.1455 C   0  0  0  0  0  0
  -27.0355  -30.3032   24.6174 C   0  0  0  0  0  0
  -27.6087  -32.4321   25.7466 C   0  0  0  0  0  0
  -27.5603  -37.1779   24.8463 C   0  0  0  0  0  0
  -21.4159  -29.3020   22.3680 N   0  0  0  0  0  0
  -26.4309  -37.3762   23.9409 N   0  0  0  0  0  0
  -24.6810  -31.0638   22.0985 N   0  0  0  0  0  0
  -23.4175  -28.8130   23.3004 O   0  0  0  0  0  0
  -28.3567  -26.5579   20.0969 O   0  0  0  0  0  0
  -26.5619  -34.8901   22.4684 O   0  0  0  0  0  0
  -23.5375  -32.1357   23.7412 O   0  0  0  0  0  0
  -28.6092  -17.7249   19.0448 C   0  0  0  0  0  0
  -29.3571  -18.1503   20.1692 C   0  0  0  0  0  0
  -27.7244  -19.8516   18.7831 C   0  0  0  0  0  0
  -28.5057  -20.3358   19.8682 C   0  0  0  0  0  0
  -26.7111  -20.7265   18.0744 C   0  0  0  0  0  0
  -32.5703  -17.1071   22.0882 C   0  0  0  0  0  0
  -31.7366  -17.5358   20.8695 C   0  0  0  0  0  0
  -28.2425  -24.0800   19.3068 C   0  0  0  0  0  0
  -28.2375  -25.1409   20.4652 C   0  0  0  0  0  0
  -28.9963  -22.7015   19.5000 C   0  0  0  0  0  0
  -30.2377  -17.1609   20.9951 C   0  0  2  0  0  0
  -27.7927  -18.5636   18.3607 N   0  0  0  0  0  0
  -29.2998  -19.4680   20.5723 N   0  0  0  0  0  0
  -29.9307  -15.6840   20.8906 N   0  0  0  0  0  0
  -28.4121  -21.6561   20.3247 O   0  0  0  0  0  0
  -31.4741  -12.4769   19.1517 H   0  0  0  0  0  0
  -30.3548  -11.3789   19.8979 H   0  0  0  0  0  0
  -29.7749  -11.7623   17.4725 H   0  0  0  0  0  0
  -29.6615  -13.4790   17.7557 H   0  0  0  0  0  0
  -27.8602  -11.2980   18.8520 H   0  0  0  0  0  0
  -27.3881  -12.6085   17.7907 H   0  0  0  0  0  0
  -27.6822  -14.2573   19.5278 H   0  0  0  0  0  0
  -28.7026  -12.0659   21.3909 H   0  0  0  0  0  0
  -28.4524  -13.7306   21.8337 H   0  0  0  0  0  0
  -25.2805   -9.5708   22.4741 H   0  0  0  0  0  0
  -24.0043   -7.4659   22.7438 H   0  0  0  0  0  0
  -21.0880   -8.8822   19.8924 H   0  0  0  0  0  0
  -22.3748  -10.9710   19.6171 H   0  0  0  0  0  0
  -21.1979   -7.6133   23.9718 H   0  0  0  0  0  0
  -21.1497   -6.0503   25.9090 H   0  0  0  0  0  0
  -22.0579   -2.7593   23.2834 H   0  0  0  0  0  0
  -22.4090  -11.9926   22.4886 H   0  0  0  0  0  0
  -21.1097  -13.1247   22.2551 H   0  0  0  0  0  0
  -24.6556  -15.8392   20.5079 H   0  0  0  0  0  0
  -26.2662  -15.6302   20.0425 H   0  0  0  0  0  0
  -26.7122  -32.5448   23.1125 H   0  0  0  0  0  0
  -25.0094  -33.9766   25.0481 H   0  0  0  0  0  0
  -22.7056  -31.3016   21.4025 H   0  0  0  0  0  0
  -23.3783  -35.9570   23.3269 H   0  0  0  0  0  0
  -24.3570  -36.8907   22.2056 H   0  0  0  0  0  0
  -23.7220  -37.6442   23.6671 H   0  0  0  0  0  0
  -26.0987  -31.5750   20.6211 H   0  0  0  0  0  0
  -26.8264  -30.8328   22.0135 H   0  0  0  0  0  0
  -28.1223  -29.0336   21.1327 H   0  0  0  0  0  0
  -26.0040  -25.9275   19.0132 H   0  0  0  0  0  0
  -23.9581  -27.2910   19.0423 H   0  0  0  0  0  0
  -23.7409  -30.5831   19.4031 H   0  0  0  0  0  0
  -22.7475  -29.2355   19.8701 H   0  0  0  0  0  0
  -25.1323  -36.1924   25.0827 H   0  0  0  0  0  0
  -20.9992  -28.3187   24.1403 H   0  0  0  0  0  0
  -20.5618  -26.2253   23.3570 H   0  0  0  0  0  0
  -21.6630  -26.7383   22.1206 H   0  0  0  0  0  0
  -19.6904  -25.6270   21.1222 H   0  0  0  0  0  0
  -19.6696  -27.3162   20.6704 H   0  0  0  0  0  0
  -17.4199  -26.6663   21.4003 H   0  0  0  0  0  0
  -18.0334  -26.0020   22.8980 H   0  0  0  0  0  0
  -19.7915  -30.7235   24.2294 H   0  0  0  0  0  0
  -17.4987  -31.6253   24.5122 H   0  0  0  0  0  0
  -15.5336  -30.2965   23.7609 H   0  0  0  0  0  0
  -15.8657  -28.0732   22.7164 H   0  0  0  0  0  0
  -24.5872  -30.7120   25.7741 H   0  0  0  0  0  0
  -24.8946  -32.2881   26.4929 H   0  0  0  0  0  0
  -25.8019  -30.8815   27.0201 H   0  0  0  0  0  0
  -26.2928  -29.6744   24.1242 H   0  0  0  0  0  0
  -27.4137  -29.7330   25.4670 H   0  0  0  0  0  0
  -27.8760  -30.4354   23.9354 H   0  0  0  0  0  0
  -27.2747  -33.3633   26.2059 H   0  0  0  0  0  0
  -28.3870  -32.6857   25.0250 H   0  0  0  0  0  0
  -28.0782  -31.8421   26.5352 H   0  0  0  0  0  0
  -28.2603  -38.0097   24.7568 H   0  0  0  0  0  0
  -28.1136  -36.2638   24.6245 H   0  0  0  0  0  0
  -27.2312  -37.1356   25.8859 H   0  0  0  0  0  0
  -20.9297  -29.8714   21.6887 H   0  0  0  0  0  0
  -26.0193  -38.2837   24.1417 H   0  0  0  0  0  0
  -28.6388  -16.6993   18.7076 H   0  0  0  0  0  0
  -27.1921  -21.3312   17.3068 H   0  0  0  0  0  0
  -26.2208  -21.3901   18.7859 H   0  0  0  0  0  0
  -25.9295  -20.1247   17.6094 H   0  0  0  0  0  0
  -33.6327  -17.2795   21.9142 H   0  0  0  0  0  0
  -32.4394  -16.0509   22.3253 H   0  0  0  0  0  0
  -32.2873  -17.6791   22.9719 H   0  0  0  0  0  0
  -32.1599  -17.1534   19.9399 H   0  0  0  0  0  0
  -31.8386  -18.6198   20.7888 H   0  0  0  0  0  0
  -28.7269  -24.5702   18.4612 H   0  0  0  0  0  0
  -27.2246  -23.8953   18.9686 H   0  0  0  0  0  0
  -29.0908  -24.9367   21.1123 H   0  0  0  0  0  0
  -27.3595  -24.9715   21.0917 H   0  0  0  0  0  0
  -29.9986  -22.8979   19.8810 H   0  0  0  0  0  0
  -29.1647  -22.3011   18.4993 H   0  0  0  0  0  0
  -29.9642  -17.3912   22.0271 H   0  0  0  0  0  0
  -28.9998  -15.4452   21.1925 H   0  0  0  0  0  0
  1 25  1  0  0  0
  1 30  2  0  0  0
  1 84  1  0  0  0
  2  3  1  0  0  0
  2 25  1  0  0  0
  2 86  1  0  0  0
  2 87  1  0  0  0
  3  4  1  0  0  0
  3 88  1  0  0  0
  3 89  1  0  0  0
  4  5  1  0  0  0
  4 90  1  0  0  0
  4 91  1  0  0  0
  5  6  1  0  0  0
  5 26  1  0  0  0
  5 92  1  0  0  0
  6 25  1  0  0  0
  6 93  1  0  0  0
  6 94  1  0  0  0
  7  8  2  0  0  0
  7 26  1  0  0  0
  7 29  1  0  0  0
  8  9  1  0  0  0
  8 22  1  0  0  0
  9 10  1  0  0  0
  9 27  2  0  0  0
 10 11  2  0  0  0
 10 15  1  0  0  0
 11 12  1  0  0  0
 11 95  1  0  0  0
 12 13  2  0  0  0
 12 96  1  0  0  0
 13 14  1  0  0  0
 13 31  1  0  0  0
 14 15  2  0  0  0
 14 97  1  0  0  0
 15 98  1  0  0  0
 16 17  2  0  0  0
 16 21  1  0  0  0
 16 31  1  0  0  0
 17 18  1  0  0  0
 17 99  1  0  0  0
 18 19  2  0  0  0
 18100  1  0  0  0
 19 20  1  0  0  0
 19 24  1  0  0  0
 20 21  2  0  0  0
 20101  1  0  0  0
 21 23  1  0  0  0
 22 28  1  0  0  0
 22 32  2  0  0  0
 26 27  1  0  0  0
 28102  1  0  0  0
 28103  1  0  0  0
 29104  1  0  0  0
 29105  1  0  0  0
 33 34  1  0  0  0
 33 66  1  0  0  0
 33 70  2  0  0  0
 34 36  1  0  0  0
 34 59  1  0  0  0
 34106  1  0  0  0
 35 44  2  0  0  0
 35 45  1  0  0  0
 35 68  1  0  0  0
 36 56  1  0  0  0
 36107  1  0  0  0
 37 39  1  0  0  0
 37 47  1  0  0  0
 37 66  1  0  0  0
 37108  1  0  0  0
 38 43  2  0  0  0
 38 46  1  0  0  0
 38 47  1  0  0  0
 39 64  1  0  0  0
 39 67  2  0  0  0
 40 52  1  0  0  0
 40 53  2  0  0  0
 40 58  1  0  0  0
 41109  1  0  0  0
 41110  1  0  0  0
 41111  1  0  0  0
 41 48  1  0  0  0
 42 43  1  0  0  0
 42 66  1  0  0  0
 42112  1  0  0  0
 42113  1  0  0  0
 43 44  1  0  0  0
 44114  1  0  0  0
 45 46  2  0  0  0
 45115  1  0  0  0
 46116  1  0  0  0
 47117  1  0  0  0
 47118  1  0  0  0
 48 56  1  0  0  0
 48 65  1  0  0  0
 48119  1  0  0  0
 49 50  1  0  0  0
 49 53  1  0  0  0
 49 64  1  0  0  0
 49120  1  0  0  0
 50 51  1  0  0  0
 50121  1  0  0  0
 50122  1  0  0  0
 51 52  1  0  0  0
 51123  1  0  0  0
 51124  1  0  0  0
 52125  1  0  0  0
 52126  1  0  0  0
 53 54  1  0  0  0
 54 55  2  0  0  0
 54127  1  0  0  0
 55 57  1  0  0  0
 55128  1  0  0  0
 56 69  2  0  0  0
 57 58  2  0  0  0
 57129  1  0  0  0
 58130  1  0  0  0
 59 60  1  0  0  0
 59 61  1  0  0  0
 59 62  1  0  0  0
 60131  1  0  0  0
 60132  1  0  0  0
 60133  1  0  0  0
 61134  1  0  0  0
 61135  1  0  0  0
 61136  1  0  0  0
 62137  1  0  0  0
 62138  1  0  0  0
 62139  1  0  0  0
 63 65  1  0  0  0
 63140  1  0  0  0
 63141  1  0  0  0
 63142  1  0  0  0
 64143  1  0  0  0
 65144  1  0  0  0
 68 79  1  0  0  0
 71 72  2  0  0  0
 71 82  1  0  0  0
 71145  1  0  0  0
 72 81  1  0  0  0
 72 83  1  0  0  0
 73 74  1  0  0  0
 73 75  1  0  0  0
 73 82  2  0  0  0
 74 83  2  0  0  0
 74 85  1  0  0  0
 75146  1  0  0  0
 75147  1  0  0  0
 75148  1  0  0  0
 76 77  1  0  0  0
 76149  1  0  0  0
 76150  1  0  0  0
 76151  1  0  0  0
 77152  1  0  0  0
 77153  1  0  0  0
 77 81  1  0  0  0
 78 79  1  0  0  0
 78 80  1  0  0  0
 78154  1  0  0  0
 78155  1  0  0  0
 79156  1  0  0  0
 79157  1  0  0  0
 80 85  1  0  0  0
 80158  1  0  0  0
 80159  1  0  0  0
 81 84  1  0  0  0
 81160  1  0  0  0
 84161  1  0  0  0
M  ISO  4   1 100  68 101  79 101  84 100
M  END
> <chiral flag>
0

> <version>
0

> <s_m_source_file>
/data/baiqing/PycharmProjects/Reinvent-master-3.2/result/LINK_invent/BTK/process_docking_weight1_custom_sum_contain_oxygen_bond_distance_aromatic_linkinvent_7_9_3/rearranged_h_0072.sdf

> <i_m_source_file_index>
39

> <r_mmod_Potential_Energy-OPLS-2005>
52.8151626586914

> <r_mmod_Stretch_Energy-OPLS-2005>
68.2353744506836

> <r_mmod_Bend_Energy-OPLS-2005>
142.72785949707

> <r_mmod_Torsional_Energy-OPLS-2005>
239.810684204102

> <r_mmod_Improper_Torsional_Energy-OPLS-2005>
4.04272890090942

> <r_mmod_Van_der_Waal_Energy-OPLS-2005>
145.125411987305

> <r_mmod_Electrostatic_Energy-OPLS-2005>
-366.3310546875

> <r_mmod_Solvation_Energy-OPLS-2005>
-215.299194335938

> <b_mmod_Minimization_Converged-OPLS-2005>
0

> <r_mmod_RMS_Derivative-OPLS-2005>
3.53387188911438

$$$$
40
                    3D
 Structure written by MMmdl.
156164  0  0  1  0            999 V2000
  -30.3454  -15.3313   20.3138 C   0  0  0  0  0  0
  -30.4334  -12.8473   19.5269 C   0  0  0  0  0  0
  -29.5445  -12.6100   18.2785 C   0  0  0  0  0  0
  -28.0754  -12.3568   18.6606 C   0  0  0  0  0  0
  -27.5990  -13.2917   19.8011 C   0  0  2  0  0  0
  -28.6254  -13.4403   20.9347 C   0  0  0  0  0  0
  -25.2369  -13.8261   20.5684 C   0  0  0  0  0  0
  -24.1732  -13.0417   20.9205 C   0  0  0  0  0  0
  -24.6450  -11.6935   20.8693 C   0  0  0  0  0  0
  -23.9160  -10.4266   21.0374 C   0  0  0  0  0  0
  -24.3694   -9.4186   21.9157 C   0  0  0  0  0  0
  -23.6322   -8.2238   22.0775 C   0  0  0  0  0  0
  -22.4283   -8.0295   21.3593 C   0  0  0  0  0  0
  -21.9949   -9.0264   20.4676 C   0  0  0  0  0  0
  -22.7337  -10.2115   20.3052 C   0  0  0  0  0  0
  -21.6851   -6.0757   22.5314 C   0  0  0  0  0  0
  -21.3997   -6.5662   23.8241 C   0  0  0  0  0  0
  -21.3660   -5.6807   24.9204 C   0  0  0  0  0  0
  -21.6057   -4.3078   24.7261 C   0  0  0  0  0  0
  -21.8803   -3.8189   23.4370 C   0  0  0  0  0  0
  -21.9194   -4.6992   22.3426 C   0  0  0  0  0  0
  -22.7747  -13.5161   21.1843 C   0  0  0  0  0  0
  -22.1646   -4.2172   21.1001 F   0  0  0  0  0  0
  -21.5653   -3.4565   25.7782 F   0  0  0  0  0  0
  -29.8441  -13.9888   20.3269 N   0  0  0  0  0  0
  -26.2776  -12.9567   20.3075 N   0  0  0  0  0  0
  -25.9371  -11.6649   20.5551 N   0  0  0  0  0  0
  -22.0445  -12.8098   22.0411 N   0  0  0  0  0  0
  -25.4019  -15.1969   20.4230 N   0  0  0  0  0  0
  -31.5750  -15.3276   20.1158 O   0  0  0  0  0  0
  -21.6632   -6.8905   21.4292 O   0  0  0  0  0  0
  -22.3371  -14.5438   20.6697 O   0  0  0  0  0  0
  -24.6743  -31.8127   23.1793 C   0  0  0  0  0  0
  -25.9393  -32.4527   23.8263 C   0  0  1  0  0  0
  -27.2103  -26.8938   20.1666 C   0  0  0  0  0  0
  -25.6073  -33.8337   24.2202 N   0  0  0  0  0  0
  -23.4862  -30.4349   21.5167 C   0  0  2  0  0  0
  -24.9393  -28.8194   20.1046 C   0  0  0  0  0  0
  -22.7688  -29.4429   22.4714 C   0  0  0  0  0  0
  -18.0304  -28.1416   22.8464 C   0  0  0  0  0  0
  -24.1436  -36.7108   23.2681 C   0  0  0  0  0  0
  -26.0557  -30.6056   21.4145 C   0  0  0  0  0  0
  -26.1184  -29.1958   20.7537 C   0  0  0  0  0  0
  -27.2462  -28.2517   20.7691 C   0  0  0  0  0  0
  -26.0082  -26.6845   19.4511 C   0  0  0  0  0  0
  -24.9118  -27.5875   19.4290 C   0  0  0  0  0  0
  -23.7315  -29.7579   20.1396 C   0  0  0  0  0  0
  -25.4075  -36.2932   24.0372 C   0  0  1  0  0  0
  -20.5943  -28.3749   23.1161 C   0  0  2  0  0  0
  -20.6770  -26.9419   22.5377 C   0  0  0  0  0  0
  -19.5753  -26.6388   21.5162 C   0  0  0  0  0  0
  -18.1947  -26.7957   22.1596 C   0  0  0  0  0  0
  -19.1587  -28.8905   23.2806 C   0  0  0  0  0  0
  -18.9501  -30.1490   23.8833 C   0  0  0  0  0  0
  -17.6495  -30.6588   24.0552 C   0  0  0  0  0  0
  -25.9069  -34.9301   23.5087 C   0  0  0  0  0  0
  -16.5379  -29.9057   23.6365 C   0  0  0  0  0  0
  -16.7297  -28.6492   23.0383 C   0  0  0  0  0  0
  -26.4681  -31.6523   25.0812 C   0  0  0  0  0  0
  -25.3893  -31.3603   26.1518 C   0  0  0  0  0  0
  -27.0717  -30.2972   24.6552 C   0  0  0  0  0  0
  -27.6202  -32.4341   25.7556 C   0  0  0  0  0  0
  -27.5501  -37.1700   24.8509 C   0  0  0  0  0  0
  -21.4346  -29.3064   22.3492 N   0  0  0  0  0  0
  -26.4199  -37.3686   23.9512 N   0  0  0  0  0  0
  -24.7584  -30.9785   22.0918 N   0  0  0  0  0  0
  -23.4208  -28.7978   23.2958 O   0  0  0  0  0  0
  -28.1926  -25.7693   20.2817 O   0  0  0  0  0  0
  -26.5569  -34.8824   22.4625 O   0  0  0  0  0  0
  -23.5793  -32.1061   23.6876 O   0  0  0  0  0  0
  -29.5216  -16.8407   20.3353 C   0  0  0  0  0  0
  -28.9360  -19.1793   20.1700 C   0  0  0  0  0  0
  -25.7740  -18.3764   18.8900 C   0  0  0  0  0  0
  -27.3510  -22.3059   21.5057 C   0  0  0  0  0  0
  -29.8194  -22.7804   21.3296 C   0  0  0  0  0  0
  -26.4273  -18.6688   20.2564 C   0  0  0  0  0  0
  -28.1270  -24.1673   19.8124 C   0  0  0  0  0  0
  -28.8001  -20.9059   19.7290 C   0  0  0  0  0  0
  -28.5258  -22.5301   20.5257 C   0  0  0  0  0  0
  -30.0146  -18.2236   20.1841 N   0  0  0  0  0  0
  -28.1849  -16.9589   20.4055 N   0  0  0  0  0  0
  -27.8525  -18.3354   20.2961 N   0  0  0  0  0  0
  -29.8715  -21.1709   18.9782 F   0  0  0  0  0  0
  -27.7771  -20.9498   18.8795 F   0  0  0  0  0  0
  -31.4488  -13.0780   19.2018 H   0  0  0  0  0  0
  -30.5186  -11.9386   20.1248 H   0  0  0  0  0  0
  -29.9225  -11.7790   17.6858 H   0  0  0  0  0  0
  -29.6024  -13.4896   17.6334 H   0  0  0  0  0  0
  -27.9738  -11.3089   18.9325 H   0  0  0  0  0  0
  -27.4456  -12.5042   17.7832 H   0  0  0  0  0  0
  -27.4990  -14.2699   19.3239 H   0  0  0  0  0  0
  -28.8072  -12.4749   21.4105 H   0  0  0  0  0  0
  -28.2528  -14.1147   21.7056 H   0  0  0  0  0  0
  -25.2843   -9.5617   22.4716 H   0  0  0  0  0  0
  -24.0032   -7.4615   22.7466 H   0  0  0  0  0  0
  -21.0930   -8.8801   19.8898 H   0  0  0  0  0  0
  -22.3868  -10.9645   19.6101 H   0  0  0  0  0  0
  -21.1935   -7.6159   23.9747 H   0  0  0  0  0  0
  -21.1492   -6.0556   25.9107 H   0  0  0  0  0  0
  -22.0569   -2.7656   23.2895 H   0  0  0  0  0  0
  -22.4132  -11.9783   22.4779 H   0  0  0  0  0  0
  -21.1041  -13.1058   22.2574 H   0  0  0  0  0  0
  -24.6392  -15.8520   20.5324 H   0  0  0  0  0  0
  -26.2849  -15.6618   20.2342 H   0  0  0  0  0  0
  -26.7440  -32.5040   23.0927 H   0  0  0  0  0  0
  -25.0497  -33.9420   25.0530 H   0  0  0  0  0  0
  -22.8098  -31.2749   21.3499 H   0  0  0  0  0  0
  -23.3781  -35.9351   23.3285 H   0  0  0  0  0  0
  -24.3507  -36.8775   22.2106 H   0  0  0  0  0  0
  -23.7045  -37.6233   23.6715 H   0  0  0  0  0  0
  -26.2463  -31.3521   20.6405 H   0  0  0  0  0  0
  -26.9086  -30.6516   22.0781 H   0  0  0  0  0  0
  -28.1302  -28.5301   21.3280 H   0  0  0  0  0  0
  -25.8756  -25.7537   18.9191 H   0  0  0  0  0  0
  -24.0227  -27.3046   18.8813 H   0  0  0  0  0  0
  -23.9071  -30.5267   19.3874 H   0  0  0  0  0  0
  -22.8378  -29.2280   19.8030 H   0  0  0  0  0  0
  -25.1233  -36.1740   25.0853 H   0  0  0  0  0  0
  -21.0047  -28.3337   24.1268 H   0  0  0  0  0  0
  -20.5632  -26.2332   23.3610 H   0  0  0  0  0  0
  -21.6630  -26.7355   22.1189 H   0  0  0  0  0  0
  -19.6882  -25.6280   21.1217 H   0  0  0  0  0  0
  -19.6713  -27.3158   20.6674 H   0  0  0  0  0  0
  -17.4209  -26.6731   21.4005 H   0  0  0  0  0  0
  -18.0349  -26.0068   22.8984 H   0  0  0  0  0  0
  -19.7987  -30.7329   24.2205 H   0  0  0  0  0  0
  -17.5041  -31.6277   24.5135 H   0  0  0  0  0  0
  -15.5391  -30.2940   23.7740 H   0  0  0  0  0  0
  -15.8706  -28.0772   22.7168 H   0  0  0  0  0  0
  -24.6132  -30.6885   25.7824 H   0  0  0  0  0  0
  -24.9032  -32.2691   26.5073 H   0  0  0  0  0  0
  -25.8279  -30.8732   27.0246 H   0  0  0  0  0  0
  -26.3484  -29.6525   24.1574 H   0  0  0  0  0  0
  -27.4358  -29.7433   25.5215 H   0  0  0  0  0  0
  -27.9301  -30.4322   23.9966 H   0  0  0  0  0  0
  -27.2907  -33.3765   26.1918 H   0  0  0  0  0  0
  -28.4083  -32.6693   25.0393 H   0  0  0  0  0  0
  -28.0774  -31.8603   26.5619 H   0  0  0  0  0  0
  -28.2549  -37.9991   24.7619 H   0  0  0  0  0  0
  -28.0996  -36.2534   24.6282 H   0  0  0  0  0  0
  -27.2234  -37.1223   25.8919 H   0  0  0  0  0  0
  -20.9599  -29.8783   21.6643 H   0  0  0  0  0  0
  -26.0058  -38.2733   24.1642 H   0  0  0  0  0  0
  -25.6614  -17.3067   18.7062 H   0  0  0  0  0  0
  -26.3512  -18.7928   18.0632 H   0  0  0  0  0  0
  -24.7734  -18.8050   18.8403 H   0  0  0  0  0  0
  -27.1753  -23.1836   22.1305 H   0  0  0  0  0  0
  -27.5160  -21.4546   22.1649 H   0  0  0  0  0  0
  -26.4210  -22.1171   20.9630 H   0  0  0  0  0  0
  -29.7435  -23.6639   21.9633 H   0  0  0  0  0  0
  -30.6738  -22.9392   20.6714 H   0  0  0  0  0  0
  -30.0571  -21.9368   21.9775 H   0  0  0  0  0  0
  -25.9040  -18.1026   21.0286 H   0  0  0  0  0  0
  -26.2932  -19.7192   20.5159 H   0  0  0  0  0  0
  -27.1139  -24.0383   19.4346 H   0  0  0  0  0  0
  -28.7380  -24.2037   18.9084 H   0  0  0  0  0  0
  1 25  1  0  0  0
  1 30  2  0  0  0
  1 71  1  0  0  0
  2  3  1  0  0  0
  2 25  1  0  0  0
  2 85  1  0  0  0
  2 86  1  0  0  0
  3  4  1  0  0  0
  3 87  1  0  0  0
  3 88  1  0  0  0
  4  5  1  0  0  0
  4 89  1  0  0  0
  4 90  1  0  0  0
  5  6  1  0  0  0
  5 26  1  0  0  0
  5 91  1  0  0  0
  6 25  1  0  0  0
  6 92  1  0  0  0
  6 93  1  0  0  0
  7  8  2  0  0  0
  7 26  1  0  0  0
  7 29  1  0  0  0
  8  9  1  0  0  0
  8 22  1  0  0  0
  9 10  1  0  0  0
  9 27  2  0  0  0
 10 11  2  0  0  0
 10 15  1  0  0  0
 11 12  1  0  0  0
 11 94  1  0  0  0
 12 13  2  0  0  0
 12 95  1  0  0  0
 13 14  1  0  0  0
 13 31  1  0  0  0
 14 15  2  0  0  0
 14 96  1  0  0  0
 15 97  1  0  0  0
 16 17  2  0  0  0
 16 21  1  0  0  0
 16 31  1  0  0  0
 17 18  1  0  0  0
 17 98  1  0  0  0
 18 19  2  0  0  0
 18 99  1  0  0  0
 19 20  1  0  0  0
 19 24  1  0  0  0
 20 21  2  0  0  0
 20100  1  0  0  0
 21 23  1  0  0  0
 22 28  1  0  0  0
 22 32  2  0  0  0
 26 27  1  0  0  0
 28101  1  0  0  0
 28102  1  0  0  0
 29103  1  0  0  0
 29104  1  0  0  0
 33 34  1  0  0  0
 33 66  1  0  0  0
 33 70  2  0  0  0
 34 36  1  0  0  0
 34 59  1  0  0  0
 34105  1  0  0  0
 35 44  2  0  0  0
 35 45  1  0  0  0
 35 68  1  0  0  0
 36 56  1  0  0  0
 36106  1  0  0  0
 37 39  1  0  0  0
 37 47  1  0  0  0
 37 66  1  0  0  0
 37107  1  0  0  0
 38 43  2  0  0  0
 38 46  1  0  0  0
 38 47  1  0  0  0
 39 64  1  0  0  0
 39 67  2  0  0  0
 40 52  1  0  0  0
 40 53  2  0  0  0
 40 58  1  0  0  0
 41108  1  0  0  0
 41109  1  0  0  0
 41110  1  0  0  0
 41 48  1  0  0  0
 42 43  1  0  0  0
 42 66  1  0  0  0
 42111  1  0  0  0
 42112  1  0  0  0
 43 44  1  0  0  0
 44113  1  0  0  0
 45 46  2  0  0  0
 45114  1  0  0  0
 46115  1  0  0  0
 47116  1  0  0  0
 47117  1  0  0  0
 48 56  1  0  0  0
 48 65  1  0  0  0
 48118  1  0  0  0
 49 50  1  0  0  0
 49 53  1  0  0  0
 49 64  1  0  0  0
 49119  1  0  0  0
 50 51  1  0  0  0
 50120  1  0  0  0
 50121  1  0  0  0
 51 52  1  0  0  0
 51122  1  0  0  0
 51123  1  0  0  0
 52124  1  0  0  0
 52125  1  0  0  0
 53 54  1  0  0  0
 54 55  2  0  0  0
 54126  1  0  0  0
 55 57  1  0  0  0
 55127  1  0  0  0
 56 69  2  0  0  0
 57 58  2  0  0  0
 57128  1  0  0  0
 58129  1  0  0  0
 59 60  1  0  0  0
 59 61  1  0  0  0
 59 62  1  0  0  0
 60130  1  0  0  0
 60131  1  0  0  0
 60132  1  0  0  0
 61133  1  0  0  0
 61134  1  0  0  0
 61135  1  0  0  0
 62136  1  0  0  0
 62137  1  0  0  0
 62138  1  0  0  0
 63 65  1  0  0  0
 63139  1  0  0  0
 63140  1  0  0  0
 63141  1  0  0  0
 64142  1  0  0  0
 65143  1  0  0  0
 68 77  1  0  0  0
 71 80  1  0  0  0
 71 81  2  0  0  0
 72 78  1  0  0  0
 72 80  2  0  0  0
 72 82  1  0  0  0
 73 76  1  0  0  0
 73144  1  0  0  0
 73145  1  0  0  0
 73146  1  0  0  0
 74147  1  0  0  0
 74148  1  0  0  0
 74149  1  0  0  0
 74 79  1  0  0  0
 75 79  1  0  0  0
 75150  1  0  0  0
 75151  1  0  0  0
 75152  1  0  0  0
 76 82  1  0  0  0
 76153  1  0  0  0
 76154  1  0  0  0
 77 79  1  0  0  0
 77155  1  0  0  0
 77156  1  0  0  0
 78 79  1  0  0  0
 78 83  1  0  0  0
 78 84  1  0  0  0
 81 82  1  0  0  0
M  ISO  4   1 100  68 101  71 100  77 101
M  END
> <chiral flag>
0

> <version>
0

> <s_m_source_file>
/data/baiqing/PycharmProjects/Reinvent-master-3.2/result/LINK_invent/BTK/process_docking_weight1_custom_sum_contain_oxygen_bond_distance_aromatic_linkinvent_7_9_3/rearranged_h_0072.sdf

> <i_m_source_file_index>
40

> <r_mmod_Potential_Energy-OPLS-2005>
1680.17944335938

> <r_mmod_Stretch_Energy-OPLS-2005>
676.228698730469

> <r_mmod_Bend_Energy-OPLS-2005>
500.588409423828

> <r_mmod_Torsional_Energy-OPLS-2005>
235.059387207031

> <r_mmod_Improper_Torsional_Energy-OPLS-2005>
5.29023313522339

> <r_mmod_Van_der_Waal_Energy-OPLS-2005>
96.3907852172852

> <r_mmod_Electrostatic_Energy-OPLS-2005>
-160.144546508789

> <r_mmod_Solvation_Energy-OPLS-2005>
-199.759094238281

> <b_mmod_Minimization_Converged-OPLS-2005>
0

> <r_mmod_RMS_Derivative-OPLS-2005>
7.38232183456421

$$$$
41
                    3D
 Structure written by MMmdl.
165173  0  0  1  0            999 V2000
  -30.6339  -14.7361   20.4282 C   0  0  0  0  0  0
  -30.4254  -12.4410   19.4885 C   0  0  0  0  0  0
  -29.5085  -12.4775   18.2459 C   0  0  0  0  0  0
  -28.0338  -12.3166   18.6620 C   0  0  0  0  0  0
  -27.6387  -13.2353   19.8484 C   0  0  2  0  0  0
  -28.6821  -13.2031   20.9859 C   0  0  0  0  0  0
  -25.2491  -13.8228   20.5737 C   0  0  0  0  0  0
  -24.1783  -13.0455   20.9228 C   0  0  0  0  0  0
  -24.6380  -11.6933   20.8751 C   0  0  0  0  0  0
  -23.9065  -10.4300   21.0412 C   0  0  0  0  0  0
  -24.3621   -9.4214   21.9193 C   0  0  0  0  0  0
  -23.6296   -8.2244   22.0759 C   0  0  0  0  0  0
  -22.4286   -8.0276   21.3533 C   0  0  0  0  0  0
  -21.9911   -9.0260   20.4649 C   0  0  0  0  0  0
  -22.7236  -10.2139   20.3063 C   0  0  0  0  0  0
  -21.6861   -6.0727   22.5275 C   0  0  0  0  0  0
  -21.4011   -6.5637   23.8202 C   0  0  0  0  0  0
  -21.3655   -5.6797   24.9168 C   0  0  0  0  0  0
  -21.6054   -4.3060   24.7234 C   0  0  0  0  0  0
  -21.8814   -3.8144   23.4356 C   0  0  0  0  0  0
  -21.9187   -4.6952   22.3406 C   0  0  0  0  0  0
  -22.7809  -13.5221   21.1887 C   0  0  0  0  0  0
  -22.1665   -4.2120   21.0985 F   0  0  0  0  0  0
  -21.5625   -3.4552   25.7755 F   0  0  0  0  0  0
  -29.9808  -13.5265   20.3921 N   0  0  0  0  0  0
  -26.2915  -12.9445   20.3303 N   0  0  0  0  0  0
  -25.9309  -11.6589   20.5775 N   0  0  0  0  0  0
  -22.0485  -12.8181   22.0449 N   0  0  0  0  0  0
  -25.4231  -15.1942   20.4184 N   0  0  0  0  0  0
  -31.8431  -14.7754   20.1913 O   0  0  0  0  0  0
  -21.6649   -6.8873   21.4239 O   0  0  0  0  0  0
  -22.3471  -14.5532   20.6751 O   0  0  0  0  0  0
  -24.6298  -31.8534   23.1991 C   0  0  0  0  0  0
  -25.9121  -32.4747   23.8328 C   0  0  1  0  0  0
  -27.2108  -27.2579   20.1207 C   0  0  0  0  0  0
  -25.5900  -33.8548   24.2262 N   0  0  0  0  0  0
  -23.4269  -30.4739   21.5438 C   0  0  2  0  0  0
  -24.8677  -28.9176   20.1067 C   0  0  0  0  0  0
  -22.7490  -29.4591   22.4927 C   0  0  0  0  0  0
  -18.0286  -28.1410   22.8463 C   0  0  0  0  0  0
  -24.1484  -36.7294   23.2639 C   0  0  0  0  0  0
  -25.9688  -30.7634   21.3746 C   0  0  0  0  0  0
  -26.0366  -29.3832   20.7208 C   0  0  0  0  0  0
  -27.2048  -28.5608   20.7247 C   0  0  0  0  0  0
  -26.0251  -26.8601   19.4704 C   0  0  0  0  0  0
  -24.8663  -27.6637   19.4734 C   0  0  0  0  0  0
  -23.6402  -29.8046   20.1595 C   0  0  0  0  0  0
  -25.4102  -36.3082   24.0331 C   0  0  1  0  0  0
  -20.5883  -28.3740   23.1290 C   0  0  2  0  0  0
  -20.6794  -26.9459   22.5446 C   0  0  0  0  0  0
  -19.5795  -26.6406   21.5240 C   0  0  0  0  0  0
  -18.1959  -26.7944   22.1617 C   0  0  0  0  0  0
  -19.1529  -28.8887   23.2869 C   0  0  0  0  0  0
  -18.9452  -30.1489   23.8882 C   0  0  0  0  0  0
  -17.6445  -30.6611   24.0564 C   0  0  0  0  0  0
  -25.9040  -34.9434   23.5111 C   0  0  0  0  0  0
  -16.5351  -29.9099   23.6329 C   0  0  0  0  0  0
  -16.7266  -28.6519   23.0320 C   0  0  0  0  0  0
  -26.4470  -31.6578   25.0724 C   0  0  0  0  0  0
  -25.3678  -31.3758   26.1451 C   0  0  0  0  0  0
  -27.0317  -30.2993   24.6199 C   0  0  0  0  0  0
  -27.6021  -32.4313   25.7495 C   0  0  0  0  0  0
  -27.5575  -37.1808   24.8460 C   0  0  0  0  0  0
  -21.4192  -29.3089   22.3692 N   0  0  0  0  0  0
  -26.4287  -37.3772   23.9414 N   0  0  0  0  0  0
  -24.6958  -31.0476   22.0974 N   0  0  0  0  0  0
  -23.4195  -28.8093   23.2994 O   0  0  0  0  0  0
  -28.3138  -26.3861   20.2234 O   0  0  0  0  0  0
  -26.5626  -34.8903   22.4696 O   0  0  0  0  0  0
  -23.5449  -32.1363   23.7292 O   0  0  0  0  0  0
  -30.0202  -19.9628   20.1143 C   0  0  0  0  0  0
  -27.9387  -20.0726   20.5484 C   0  0  0  0  0  0
  -29.5762  -18.6372   20.2502 C   0  0  0  0  0  0
  -29.6125  -16.8862   17.5631 C   0  0  0  0  0  0
  -26.7837  -22.6784   22.3459 C   0  0  0  0  0  0
  -26.8987  -23.0332   19.1725 C   0  0  0  0  0  0
  -30.7774  -17.2295   18.5107 C   0  0  0  0  0  0
  -27.2838  -23.8760   21.5283 C   0  0  0  0  0  0
  -29.1373  -22.4481   20.2970 C   0  0  0  0  0  0
  -28.4274  -25.0370   19.5698 C   0  0  0  0  0  0
  -30.3882  -17.2922   20.0116 C   0  0  2  0  0  0
  -27.9538  -23.5782   20.1603 C   0  0  1  0  0  0
  -28.2074  -18.7470   20.5160 N   0  0  0  0  0  0
  -28.9753  -20.9108   20.3049 N   0  0  0  0  0  0
  -29.8949  -15.9127   20.4536 N   0  0  0  0  0  0
  -31.4690  -12.5480   19.1918 H   0  0  0  0  0  0
  -30.3633  -11.4795   19.9977 H   0  0  0  0  0  0
  -29.7811  -11.6804   17.5538 H   0  0  0  0  0  0
  -29.6463  -13.4183   17.7093 H   0  0  0  0  0  0
  -27.8883  -11.2734   18.9416 H   0  0  0  0  0  0
  -27.3745  -12.4945   17.8129 H   0  0  0  0  0  0
  -27.6274  -14.2494   19.4469 H   0  0  0  0  0  0
  -28.7124  -12.2261   21.4720 H   0  0  0  0  0  0
  -28.4292  -13.9232   21.7652 H   0  0  0  0  0  0
  -25.2759   -9.5684   22.4782 H   0  0  0  0  0  0
  -23.9992   -7.4633   22.7488 H   0  0  0  0  0  0
  -21.0831   -8.8788   19.8959 H   0  0  0  0  0  0
  -22.3698  -10.9686   19.6176 H   0  0  0  0  0  0
  -21.2022   -7.6149   23.9686 H   0  0  0  0  0  0
  -21.1481   -6.0545   25.9060 H   0  0  0  0  0  0
  -22.0601   -2.7602   23.2880 H   0  0  0  0  0  0
  -22.4115  -11.9790   22.4720 H   0  0  0  0  0  0
  -21.1125  -13.1181   22.2756 H   0  0  0  0  0  0
  -24.6690  -15.8597   20.5420 H   0  0  0  0  0  0
  -26.2851  -15.6292   20.1153 H   0  0  0  0  0  0
  -26.7182  -32.5395   23.1066 H   0  0  0  0  0  0
  -25.0034  -33.9687   25.0400 H   0  0  0  0  0  0
  -22.7257  -31.2984   21.3988 H   0  0  0  0  0  0
  -23.3745  -35.9633   23.3301 H   0  0  0  0  0  0
  -24.3576  -36.8920   22.2057 H   0  0  0  0  0  0
  -23.7240  -37.6491   23.6661 H   0  0  0  0  0  0
  -26.1011  -31.5167   20.5964 H   0  0  0  0  0  0
  -26.8540  -30.8239   21.9980 H   0  0  0  0  0  0
  -28.0956  -28.9063   21.2312 H   0  0  0  0  0  0
  -25.9609  -25.8994   18.9856 H   0  0  0  0  0  0
  -23.9682  -27.3034   18.9891 H   0  0  0  0  0  0
  -23.7611  -30.5807   19.4026 H   0  0  0  0  0  0
  -22.7586  -29.2330   19.8614 H   0  0  0  0  0  0
  -25.1291  -36.1943   25.0823 H   0  0  0  0  0  0
  -20.9969  -28.3327   24.1415 H   0  0  0  0  0  0
  -20.5701  -26.2347   23.3644 H   0  0  0  0  0  0
  -21.6656  -26.7470   22.1261 H   0  0  0  0  0  0
  -19.6746  -27.3210   20.6757 H   0  0  0  0  0  0
  -19.6982  -25.6316   21.1278 H   0  0  0  0  0  0
  -17.4274  -26.6688   21.3974 H   0  0  0  0  0  0
  -18.0341  -26.0097   22.9013 H   0  0  0  0  0  0
  -19.7928  -30.7300   24.2256 H   0  0  0  0  0  0
  -17.4999  -31.6294   24.5179 H   0  0  0  0  0  0
  -15.5348  -30.2999   23.7651 H   0  0  0  0  0  0
  -15.8660  -28.0825   22.7042 H   0  0  0  0  0  0
  -24.5851  -30.7100   25.7807 H   0  0  0  0  0  0
  -24.8851  -32.2936   26.4814 H   0  0  0  0  0  0
  -25.7957  -30.8989   27.0279 H   0  0  0  0  0  0
  -26.2918  -29.6759   24.1154 H   0  0  0  0  0  0
  -27.3956  -29.7227   25.4718 H   0  0  0  0  0  0
  -27.8805  -30.4305   23.9480 H   0  0  0  0  0  0
  -27.2637  -33.3631   26.2041 H   0  0  0  0  0  0
  -28.3827  -32.6846   25.0311 H   0  0  0  0  0  0
  -28.0683  -31.8456   26.5433 H   0  0  0  0  0  0
  -28.2595  -38.0101   24.7492 H   0  0  0  0  0  0
  -28.1069  -36.2627   24.6305 H   0  0  0  0  0  0
  -27.2287  -37.1479   25.8861 H   0  0  0  0  0  0
  -20.9380  -29.8859   21.6925 H   0  0  0  0  0  0
  -26.0169  -38.2857   24.1390 H   0  0  0  0  0  0
  -31.0167  -20.3123   19.8797 H   0  0  0  0  0  0
  -26.9409  -20.4182   20.7687 H   0  0  0  0  0  0
  -29.9625  -16.8608   16.5295 H   0  0  0  0  0  0
  -28.8176  -17.6297   17.6239 H   0  0  0  0  0  0
  -29.1739  -15.9129   17.7852 H   0  0  0  0  0  0
  -26.3593  -23.0213   23.2908 H   0  0  0  0  0  0
  -27.5933  -21.9932   22.5937 H   0  0  0  0  0  0
  -25.9967  -22.1313   21.8259 H   0  0  0  0  0  0
  -26.4544  -22.0952   19.4887 H   0  0  0  0  0  0
  -27.3419  -22.8584   18.1907 H   0  0  0  0  0  0
  -26.0715  -23.7263   19.0330 H   0  0  0  0  0  0
  -31.2275  -18.1759   18.2106 H   0  0  0  0  0  0
  -31.5669  -16.4947   18.3564 H   0  0  0  0  0  0
  -27.9839  -24.4366   22.1486 H   0  0  0  0  0  0
  -26.4390  -24.5501   21.3706 H   0  0  0  0  0  0
  -29.7169  -22.6901   21.1885 H   0  0  0  0  0  0
  -29.8240  -22.6390   19.4729 H   0  0  0  0  0  0
  -28.0629  -25.1534   18.5491 H   0  0  0  0  0  0
  -29.5029  -24.9481   19.4279 H   0  0  0  0  0  0
  -31.3245  -17.4239   20.5587 H   0  0  0  0  0  0
  -28.9088  -15.8418   20.6486 H   0  0  0  0  0  0
  1 25  1  0  0  0
  1 30  2  0  0  0
  1 85  1  0  0  0
  2  3  1  0  0  0
  2 25  1  0  0  0
  2 86  1  0  0  0
  2 87  1  0  0  0
  3  4  1  0  0  0
  3 88  1  0  0  0
  3 89  1  0  0  0
  4  5  1  0  0  0
  4 90  1  0  0  0
  4 91  1  0  0  0
  5  6  1  0  0  0
  5 26  1  0  0  0
  5 92  1  0  0  0
  6 25  1  0  0  0
  6 93  1  0  0  0
  6 94  1  0  0  0
  7  8  2  0  0  0
  7 26  1  0  0  0
  7 29  1  0  0  0
  8  9  1  0  0  0
  8 22  1  0  0  0
  9 10  1  0  0  0
  9 27  2  0  0  0
 10 11  2  0  0  0
 10 15  1  0  0  0
 11 12  1  0  0  0
 11 95  1  0  0  0
 12 13  2  0  0  0
 12 96  1  0  0  0
 13 14  1  0  0  0
 13 31  1  0  0  0
 14 15  2  0  0  0
 14 97  1  0  0  0
 15 98  1  0  0  0
 16 17  2  0  0  0
 16 21  1  0  0  0
 16 31  1  0  0  0
 17 18  1  0  0  0
 17 99  1  0  0  0
 18 19  2  0  0  0
 18100  1  0  0  0
 19 20  1  0  0  0
 19 24  1  0  0  0
 20 21  2  0  0  0
 20101  1  0  0  0
 21 23  1  0  0  0
 22 28  1  0  0  0
 22 32  2  0  0  0
 26 27  1  0  0  0
 28102  1  0  0  0
 28103  1  0  0  0
 29104  1  0  0  0
 29105  1  0  0  0
 33 34  1  0  0  0
 33 66  1  0  0  0
 33 70  2  0  0  0
 34 36  1  0  0  0
 34 59  1  0  0  0
 34106  1  0  0  0
 35 44  2  0  0  0
 35 45  1  0  0  0
 35 68  1  0  0  0
 36 56  1  0  0  0
 36107  1  0  0  0
 37 39  1  0  0  0
 37 47  1  0  0  0
 37 66  1  0  0  0
 37108  1  0  0  0
 38 43  2  0  0  0
 38 46  1  0  0  0
 38 47  1  0  0  0
 39 64  1  0  0  0
 39 67  2  0  0  0
 40 52  1  0  0  0
 40 53  2  0  0  0
 40 58  1  0  0  0
 41109  1  0  0  0
 41110  1  0  0  0
 41111  1  0  0  0
 41 48  1  0  0  0
 42 43  1  0  0  0
 42 66  1  0  0  0
 42112  1  0  0  0
 42113  1  0  0  0
 43 44  1  0  0  0
 44114  1  0  0  0
 45 46  2  0  0  0
 45115  1  0  0  0
 46116  1  0  0  0
 47117  1  0  0  0
 47118  1  0  0  0
 48 56  1  0  0  0
 48 65  1  0  0  0
 48119  1  0  0  0
 49 50  1  0  0  0
 49 53  1  0  0  0
 49 64  1  0  0  0
 49120  1  0  0  0
 50 51  1  0  0  0
 50121  1  0  0  0
 50122  1  0  0  0
 51 52  1  0  0  0
 51123  1  0  0  0
 51124  1  0  0  0
 52125  1  0  0  0
 52126  1  0  0  0
 53 54  1  0  0  0
 54 55  2  0  0  0
 54127  1  0  0  0
 55 57  1  0  0  0
 55128  1  0  0  0
 56 69  2  0  0  0
 57 58  2  0  0  0
 57129  1  0  0  0
 58130  1  0  0  0
 59 60  1  0  0  0
 59 61  1  0  0  0
 59 62  1  0  0  0
 60131  1  0  0  0
 60132  1  0  0  0
 60133  1  0  0  0
 61134  1  0  0  0
 61135  1  0  0  0
 61136  1  0  0  0
 62137  1  0  0  0
 62138  1  0  0  0
 62139  1  0  0  0
 63 65  1  0  0  0
 63140  1  0  0  0
 63141  1  0  0  0
 63142  1  0  0  0
 64143  1  0  0  0
 65144  1  0  0  0
 68 80  1  0  0  0
 71 73  2  0  0  0
 71 84  1  0  0  0
 71145  1  0  0  0
 72 83  2  0  0  0
 72 84  1  0  0  0
 72146  1  0  0  0
 73 81  1  0  0  0
 73 83  1  0  0  0
 74 77  1  0  0  0
 74147  1  0  0  0
 74148  1  0  0  0
 74149  1  0  0  0
 75 78  1  0  0  0
 75150  1  0  0  0
 75151  1  0  0  0
 75152  1  0  0  0
 76153  1  0  0  0
 76154  1  0  0  0
 76155  1  0  0  0
 76 82  1  0  0  0
 77156  1  0  0  0
 77157  1  0  0  0
 77 81  1  0  0  0
 78 82  1  0  0  0
 78158  1  0  0  0
 78159  1  0  0  0
 79 82  1  0  0  0
 79 84  1  0  0  0
 79160  1  0  0  0
 79161  1  0  0  0
 80 82  1  0  0  0
 80162  1  0  0  0
 80163  1  0  0  0
 81 85  1  0  0  0
 81164  1  0  0  0
 85165  1  0  0  0
M  ISO  4   1 100  68 101  80 101  85 100
M  END
> <chiral flag>
0

> <version>
0

> <s_m_source_file>
/data/baiqing/PycharmProjects/Reinvent-master-3.2/result/LINK_invent/BTK/process_docking_weight1_custom_sum_contain_oxygen_bond_distance_aromatic_linkinvent_7_9_3/rearranged_h_0072.sdf

> <i_m_source_file_index>
41

> <r_mmod_Potential_Energy-OPLS-2005>
146.035949707031

> <r_mmod_Stretch_Energy-OPLS-2005>
130.488800048828

> <r_mmod_Bend_Energy-OPLS-2005>
228.361190795898

> <r_mmod_Torsional_Energy-OPLS-2005>
238.740173339844

> <r_mmod_Improper_Torsional_Energy-OPLS-2005>
7.0810866355896

> <r_mmod_Van_der_Waal_Energy-OPLS-2005>
111.040473937988

> <r_mmod_Electrostatic_Energy-OPLS-2005>
-454.274658203125

> <r_mmod_Solvation_Energy-OPLS-2005>
-204.623565673828

> <b_mmod_Minimization_Converged-OPLS-2005>
0

> <r_mmod_RMS_Derivative-OPLS-2005>
3.512366771698

$$$$
42
                    3D
 Structure written by MMmdl.
160168  0  0  1  0            999 V2000
  -30.5671  -15.0439   20.3337 C   0  0  0  0  0  0
  -30.4314  -12.6442   19.5035 C   0  0  0  0  0  0
  -29.5200  -12.5126   18.2624 C   0  0  0  0  0  0
  -28.0659  -12.2468   18.6945 C   0  0  0  0  0  0
  -27.6081  -13.2165   19.8086 C   0  0  2  0  0  0
  -28.6548  -13.3877   20.9325 C   0  0  0  0  0  0
  -25.2421  -13.8073   20.5735 C   0  0  0  0  0  0
  -24.1743  -13.0340   20.9275 C   0  0  0  0  0  0
  -24.6344  -11.6829   20.8799 C   0  0  0  0  0  0
  -23.9026  -10.4238   21.0448 C   0  0  0  0  0  0
  -24.3590   -9.4156   21.9211 C   0  0  0  0  0  0
  -23.6270   -8.2194   22.0755 C   0  0  0  0  0  0
  -22.4251   -8.0248   21.3539 C   0  0  0  0  0  0
  -21.9891   -9.0221   20.4639 C   0  0  0  0  0  0
  -22.7216  -10.2098   20.3070 C   0  0  0  0  0  0
  -21.6842   -6.0717   22.5275 C   0  0  0  0  0  0
  -21.4002   -6.5629   23.8205 C   0  0  0  0  0  0
  -21.3657   -5.6788   24.9172 C   0  0  0  0  0  0
  -21.6047   -4.3051   24.7225 C   0  0  0  0  0  0
  -21.8825   -3.8135   23.4350 C   0  0  0  0  0  0
  -21.9192   -4.6947   22.3403 C   0  0  0  0  0  0
  -22.7772  -13.5141   21.1925 C   0  0  0  0  0  0
  -22.1666   -4.2134   21.0982 F   0  0  0  0  0  0
  -21.5635   -3.4538   25.7742 F   0  0  0  0  0  0
  -29.9266  -13.7934   20.3160 N   0  0  0  0  0  0
  -26.2796  -12.9239   20.3196 N   0  0  0  0  0  0
  -25.9251  -11.6413   20.5749 N   0  0  0  0  0  0
  -22.0422  -12.8133   22.0477 N   0  0  0  0  0  0
  -25.4001  -15.1803   20.4153 N   0  0  0  0  0  0
  -31.7985  -14.9578   20.2910 O   0  0  0  0  0  0
  -21.6615   -6.8849   21.4230 O   0  0  0  0  0  0
  -22.3458  -14.5452   20.6764 O   0  0  0  0  0  0
  -24.6420  -31.8434   23.1858 C   0  0  0  0  0  0
  -25.9191  -32.4691   23.8264 C   0  0  1  0  0  0
  -27.2344  -27.1403   20.1627 C   0  0  0  0  0  0
  -25.5939  -33.8501   24.2186 N   0  0  0  0  0  0
  -23.4468  -30.4570   21.5336 C   0  0  2  0  0  0
  -24.9003  -28.8731   20.1215 C   0  0  0  0  0  0
  -22.7565  -29.4526   22.4889 C   0  0  0  0  0  0
  -18.0299  -28.1369   22.8475 C   0  0  0  0  0  0
  -24.1494  -36.7243   23.2642 C   0  0  0  0  0  0
  -26.0005  -30.7205   21.3818 C   0  0  0  0  0  0
  -26.0769  -29.3279   20.7310 C   0  0  0  0  0  0
  -27.2483  -28.4813   20.7216 C   0  0  0  0  0  0
  -26.0280  -26.7707   19.5351 C   0  0  0  0  0  0
  -24.8879  -27.6081   19.5085 C   0  0  0  0  0  0
  -23.6754  -29.7760   20.1568 C   0  0  0  0  0  0
  -25.4127  -36.3026   24.0310 C   0  0  1  0  0  0
  -20.5907  -28.3695   23.1244 C   0  0  2  0  0  0
  -20.6781  -26.9406   22.5399 C   0  0  0  0  0  0
  -19.5760  -26.6370   21.5196 C   0  0  0  0  0  0
  -18.1944  -26.7914   22.1610 C   0  0  0  0  0  0
  -19.1552  -28.8853   23.2848 C   0  0  0  0  0  0
  -18.9478  -30.1452   23.8869 C   0  0  0  0  0  0
  -17.6472  -30.6578   24.0545 C   0  0  0  0  0  0
  -25.9078  -34.9401   23.5059 C   0  0  0  0  0  0
  -16.5364  -29.9065   23.6329 C   0  0  0  0  0  0
  -16.7285  -28.6474   23.0359 C   0  0  0  0  0  0
  -26.4538  -31.6554   25.0693 C   0  0  0  0  0  0
  -25.3733  -31.3723   26.1396 C   0  0  0  0  0  0
  -27.0405  -30.2950   24.6258 C   0  0  0  0  0  0
  -27.6075  -32.4324   25.7466 C   0  0  0  0  0  0
  -27.5588  -37.1765   24.8459 C   0  0  0  0  0  0
  -21.4255  -29.3023   22.3625 N   0  0  0  0  0  0
  -26.4292  -37.3738   23.9411 N   0  0  0  0  0  0
  -24.7160  -31.0285   22.0897 N   0  0  0  0  0  0
  -23.4204  -28.8103   23.3062 O   0  0  0  0  0  0
  -28.3387  -26.2186   20.1174 O   0  0  0  0  0  0
  -26.5674  -34.8902   22.4647 O   0  0  0  0  0  0
  -23.5529  -32.1315   23.7072 O   0  0  0  0  0  0
  -28.6350  -20.5828   20.5524 C   0  0  0  0  0  0
  -30.3135  -21.5876   19.7218 C   0  0  0  0  0  0
  -29.6446  -19.5619   20.4331 C   0  0  0  0  0  0
  -28.7464  -17.7405   21.9990 C   0  0  0  0  0  0
  -31.1679  -18.0148   21.7752 C   0  0  0  0  0  0
  -30.8069  -17.0490   18.7476 C   0  0  0  0  0  0
  -28.5405  -16.4499   19.3490 C   0  0  0  0  0  0
  -28.3211  -23.2906   19.7718 C   0  0  0  0  0  0
  -28.3530  -24.7421   20.6253 C   0  0  0  0  0  0
  -29.8575  -17.9841   20.9554 C   0  0  0  0  0  0
  -29.9421  -16.5954   19.9535 C   0  0  0  0  0  0
  -30.7019  -20.3008   19.8718 N   0  0  0  0  0  0
  -29.0533  -21.9056   20.0818 N   0  0  0  0  0  0
  -31.4653  -12.7868   19.1865 H   0  0  0  0  0  0
  -30.4238  -11.7245   20.0904 H   0  0  0  0  0  0
  -29.8728  -11.7065   17.6178 H   0  0  0  0  0  0
  -29.5696  -13.4284   17.6707 H   0  0  0  0  0  0
  -28.0159  -11.2202   19.0607 H   0  0  0  0  0  0
  -27.3927  -12.3016   17.8370 H   0  0  0  0  0  0
  -27.4924  -14.1475   19.2793 H   0  0  0  0  0  0
  -28.7763  -12.4627   21.4975 H   0  0  0  0  0  0
  -28.3299  -14.1462   21.6456 H   0  0  0  0  0  0
  -25.2737   -9.5627   22.4779 H   0  0  0  0  0  0
  -23.9988   -7.4571   22.7456 H   0  0  0  0  0  0
  -21.0836   -8.8738   19.8927 H   0  0  0  0  0  0
  -22.3697  -10.9643   19.6178 H   0  0  0  0  0  0
  -21.1982   -7.6137   23.9695 H   0  0  0  0  0  0
  -21.1480   -6.0525   25.9076 H   0  0  0  0  0  0
  -22.0608   -2.7596   23.2851 H   0  0  0  0  0  0
  -22.4051  -11.9808   22.4882 H   0  0  0  0  0  0
  -21.1020  -13.1120   22.2656 H   0  0  0  0  0  0
  -24.6282  -15.8261   20.5430 H   0  0  0  0  0  0
  -26.2416  -15.6295   20.0813 H   0  0  0  0  0  0
  -26.7253  -32.5305   23.0990 H   0  0  0  0  0  0
  -25.0054  -33.9612   25.0312 H   0  0  0  0  0  0
  -22.7482  -31.2811   21.3750 H   0  0  0  0  0  0
  -23.3773  -35.9557   23.3258 H   0  0  0  0  0  0
  -24.3573  -36.8932   22.2065 H   0  0  0  0  0  0
  -23.7239  -37.6417   23.6718 H   0  0  0  0  0  0
  -26.1505  -31.4769   20.6102 H   0  0  0  0  0  0
  -26.8697  -30.7758   22.0245 H   0  0  0  0  0  0
  -28.1585  -28.8394   21.1830 H   0  0  0  0  0  0
  -25.9651  -25.8015   19.0609 H   0  0  0  0  0  0
  -23.9879  -27.2543   19.0237 H   0  0  0  0  0  0
  -23.8097  -30.5461   19.3961 H   0  0  0  0  0  0
  -22.7905  -29.2145   19.8513 H   0  0  0  0  0  0
  -25.1319  -36.1846   25.0800 H   0  0  0  0  0  0
  -20.9988  -28.3277   24.1366 H   0  0  0  0  0  0
  -20.5655  -26.2319   23.3612 H   0  0  0  0  0  0
  -21.6657  -26.7416   22.1218 H   0  0  0  0  0  0
  -19.6932  -25.6274   21.1242 H   0  0  0  0  0  0
  -19.6689  -27.3165   20.6710 H   0  0  0  0  0  0
  -17.4216  -26.6647   21.4008 H   0  0  0  0  0  0
  -18.0347  -26.0049   22.8995 H   0  0  0  0  0  0
  -19.7958  -30.7258   24.2238 H   0  0  0  0  0  0
  -17.5033  -31.6258   24.5140 H   0  0  0  0  0  0
  -15.5363  -30.2951   23.7674 H   0  0  0  0  0  0
  -15.8687  -28.0781   22.7099 H   0  0  0  0  0  0
  -24.5906  -30.7089   25.7699 H   0  0  0  0  0  0
  -24.8930  -32.2894   26.4811 H   0  0  0  0  0  0
  -25.8026  -30.8892   27.0182 H   0  0  0  0  0  0
  -26.3014  -29.6639   24.1304 H   0  0  0  0  0  0
  -27.4074  -29.7278   25.4824 H   0  0  0  0  0  0
  -27.8901  -30.4181   23.9535 H   0  0  0  0  0  0
  -27.2696  -33.3664   26.1960 H   0  0  0  0  0  0
  -28.3920  -32.6811   25.0308 H   0  0  0  0  0  0
  -28.0698  -31.8499   26.5439 H   0  0  0  0  0  0
  -28.2573  -38.0097   24.7555 H   0  0  0  0  0  0
  -28.1127  -36.2627   24.6242 H   0  0  0  0  0  0
  -27.2292  -37.1349   25.8857 H   0  0  0  0  0  0
  -20.9476  -29.8734   21.6793 H   0  0  0  0  0  0
  -26.0152  -38.2796   24.1458 H   0  0  0  0  0  0
  -27.6313  -20.4652   20.9394 H   0  0  0  0  0  0
  -30.9692  -22.3221   19.2745 H   0  0  0  0  0  0
  -28.7786  -18.4869   22.7932 H   0  0  0  0  0  0
  -28.8360  -16.7596   22.4666 H   0  0  0  0  0  0
  -27.7520  -17.8114   21.5586 H   0  0  0  0  0  0
  -31.1279  -18.7742   22.5571 H   0  0  0  0  0  0
  -32.0280  -18.2557   21.1514 H   0  0  0  0  0  0
  -31.3736  -17.0606   22.2599 H   0  0  0  0  0  0
  -30.3832  -17.9147   18.2384 H   0  0  0  0  0  0
  -30.9076  -16.2606   17.9997 H   0  0  0  0  0  0
  -31.8145  -17.3254   19.0549 H   0  0  0  0  0  0
  -28.1547  -17.4102   19.0031 H   0  0  0  0  0  0
  -27.8476  -16.0836   20.0976 H   0  0  0  0  0  0
  -28.5385  -15.7863   18.4854 H   0  0  0  0  0  0
  -28.6725  -23.5541   18.7735 H   0  0  0  0  0  0
  -27.2699  -23.0472   19.6125 H   0  0  0  0  0  0
  -29.2854  -24.7018   21.1879 H   0  0  0  0  0  0
  -27.5820  -24.6777   21.3940 H   0  0  0  0  0  0
  1 25  1  0  0  0
  1 30  2  0  0  0
  1 81  1  0  0  0
  2  3  1  0  0  0
  2 25  1  0  0  0
  2 84  1  0  0  0
  2 85  1  0  0  0
  3  4  1  0  0  0
  3 86  1  0  0  0
  3 87  1  0  0  0
  4  5  1  0  0  0
  4 88  1  0  0  0
  4 89  1  0  0  0
  5  6  1  0  0  0
  5 26  1  0  0  0
  5 90  1  0  0  0
  6 25  1  0  0  0
  6 91  1  0  0  0
  6 92  1  0  0  0
  7  8  2  0  0  0
  7 26  1  0  0  0
  7 29  1  0  0  0
  8  9  1  0  0  0
  8 22  1  0  0  0
  9 10  1  0  0  0
  9 27  2  0  0  0
 10 11  2  0  0  0
 10 15  1  0  0  0
 11 12  1  0  0  0
 11 93  1  0  0  0
 12 13  2  0  0  0
 12 94  1  0  0  0
 13 14  1  0  0  0
 13 31  1  0  0  0
 14 15  2  0  0  0
 14 95  1  0  0  0
 15 96  1  0  0  0
 16 17  2  0  0  0
 16 21  1  0  0  0
 16 31  1  0  0  0
 17 18  1  0  0  0
 17 97  1  0  0  0
 18 19  2  0  0  0
 18 98  1  0  0  0
 19 20  1  0  0  0
 19 24  1  0  0  0
 20 21  2  0  0  0
 20 99  1  0  0  0
 21 23  1  0  0  0
 22 28  1  0  0  0
 22 32  2  0  0  0
 26 27  1  0  0  0
 28100  1  0  0  0
 28101  1  0  0  0
 29102  1  0  0  0
 29103  1  0  0  0
 33 34  1  0  0  0
 33 66  1  0  0  0
 33 70  2  0  0  0
 34 36  1  0  0  0
 34 59  1  0  0  0
 34104  1  0  0  0
 35 44  2  0  0  0
 35 45  1  0  0  0
 35 68  1  0  0  0
 36 56  1  0  0  0
 36105  1  0  0  0
 37 39  1  0  0  0
 37 47  1  0  0  0
 37 66  1  0  0  0
 37106  1  0  0  0
 38 43  2  0  0  0
 38 46  1  0  0  0
 38 47  1  0  0  0
 39 64  1  0  0  0
 39 67  2  0  0  0
 40 52  1  0  0  0
 40 53  2  0  0  0
 40 58  1  0  0  0
 41107  1  0  0  0
 41108  1  0  0  0
 41109  1  0  0  0
 41 48  1  0  0  0
 42 43  1  0  0  0
 42 66  1  0  0  0
 42110  1  0  0  0
 42111  1  0  0  0
 43 44  1  0  0  0
 44112  1  0  0  0
 45 46  2  0  0  0
 45113  1  0  0  0
 46114  1  0  0  0
 47115  1  0  0  0
 47116  1  0  0  0
 48 56  1  0  0  0
 48 65  1  0  0  0
 48117  1  0  0  0
 49 50  1  0  0  0
 49 53  1  0  0  0
 49 64  1  0  0  0
 49118  1  0  0  0
 50 51  1  0  0  0
 50119  1  0  0  0
 50120  1  0  0  0
 51 52  1  0  0  0
 51121  1  0  0  0
 51122  1  0  0  0
 52123  1  0  0  0
 52124  1  0  0  0
 53 54  1  0  0  0
 54 55  2  0  0  0
 54125  1  0  0  0
 55 57  1  0  0  0
 55126  1  0  0  0
 56 69  2  0  0  0
 57 58  2  0  0  0
 57127  1  0  0  0
 58128  1  0  0  0
 59 60  1  0  0  0
 59 61  1  0  0  0
 59 62  1  0  0  0
 60129  1  0  0  0
 60130  1  0  0  0
 60131  1  0  0  0
 61132  1  0  0  0
 61133  1  0  0  0
 61134  1  0  0  0
 62135  1  0  0  0
 62136  1  0  0  0
 62137  1  0  0  0
 63 65  1  0  0  0
 63138  1  0  0  0
 63139  1  0  0  0
 63140  1  0  0  0
 64141  1  0  0  0
 65142  1  0  0  0
 68 79  1  0  0  0
 71 73  2  0  0  0
 71 83  1  0  0  0
 71143  1  0  0  0
 72 82  2  0  0  0
 72 83  1  0  0  0
 72144  1  0  0  0
 73 80  1  0  0  0
 73 82  1  0  0  0
 74145  1  0  0  0
 74146  1  0  0  0
 74147  1  0  0  0
 74 80  1  0  0  0
 75 80  1  0  0  0
 75148  1  0  0  0
 75149  1  0  0  0
 75150  1  0  0  0
 76151  1  0  0  0
 76152  1  0  0  0
 76153  1  0  0  0
 76 81  1  0  0  0
 77 81  1  0  0  0
 77154  1  0  0  0
 77155  1  0  0  0
 77156  1  0  0  0
 78 79  1  0  0  0
 78 83  1  0  0  0
 78157  1  0  0  0
 78158  1  0  0  0
 79159  1  0  0  0
 79160  1  0  0  0
 80 81  1  0  0  0
M  ISO  4   1 100  68 101  79 101  81 100
M  END
> <chiral flag>
0

> <version>
0

> <s_m_source_file>
/data/baiqing/PycharmProjects/Reinvent-master-3.2/result/LINK_invent/BTK/process_docking_weight1_custom_sum_contain_oxygen_bond_distance_aromatic_linkinvent_7_9_3/rearranged_h_0072.sdf

> <i_m_source_file_index>
42

> <r_mmod_Potential_Energy-OPLS-2005>
714.1748046875

> <r_mmod_Stretch_Energy-OPLS-2005>
307.569244384766

> <r_mmod_Bend_Energy-OPLS-2005>
340.740905761719

> <r_mmod_Torsional_Energy-OPLS-2005>
239.808074951172

> <r_mmod_Improper_Torsional_Energy-OPLS-2005>
14.2713918685913

> <r_mmod_Van_der_Waal_Energy-OPLS-2005>
117.794281005859

> <r_mmod_Electrostatic_Energy-OPLS-2005>
-330.746124267578

> <r_mmod_Solvation_Energy-OPLS-2005>
-202.837066650391

> <b_mmod_Minimization_Converged-OPLS-2005>
0

> <r_mmod_RMS_Derivative-OPLS-2005>
1.86032521724701

$$$$
43
                    3D
 Structure written by MMmdl.
170178  0  0  1  0            999 V2000
  -30.1890  -15.6968   20.5178 C   0  0  0  0  0  0
  -30.4657  -13.1358   19.5334 C   0  0  0  0  0  0
  -29.5615  -12.7339   18.3187 C   0  0  0  0  0  0
  -28.1277  -12.3537   18.7326 C   0  0  0  0  0  0
  -27.6332  -13.2846   19.8576 C   0  0  2  0  0  0
  -28.6930  -13.3996   20.9786 C   0  0  0  0  0  0
  -25.2434  -13.8217   20.5715 C   0  0  0  0  0  0
  -24.1794  -13.0406   20.9231 C   0  0  0  0  0  0
  -24.6478  -11.6912   20.8745 C   0  0  0  0  0  0
  -23.9151  -10.4281   21.0389 C   0  0  0  0  0  0
  -24.3671   -9.4195   21.9174 C   0  0  0  0  0  0
  -23.6321   -8.2245   22.0758 C   0  0  0  0  0  0
  -22.4299   -8.0291   21.3548 C   0  0  0  0  0  0
  -21.9952   -9.0275   20.4649 C   0  0  0  0  0  0
  -22.7313  -10.2138   20.3049 C   0  0  0  0  0  0
  -21.6863   -6.0748   22.5278 C   0  0  0  0  0  0
  -21.4021   -6.5648   23.8214 C   0  0  0  0  0  0
  -21.3655   -5.6794   24.9172 C   0  0  0  0  0  0
  -21.6040   -4.3059   24.7215 C   0  0  0  0  0  0
  -21.8822   -3.8157   23.4336 C   0  0  0  0  0  0
  -21.9197   -4.6976   22.3396 C   0  0  0  0  0  0
  -22.7802  -13.5158   21.1873 C   0  0  0  0  0  0
  -22.1669   -4.2164   21.0971 F   0  0  0  0  0  0
  -21.5622   -3.4537   25.7726 F   0  0  0  0  0  0
  -29.8249  -14.2312   20.4209 N   0  0  0  0  0  0
  -26.2953  -12.9520   20.3365 N   0  0  0  0  0  0
  -25.9447  -11.6614   20.5773 N   0  0  0  0  0  0
  -22.0477  -12.8144   22.0436 N   0  0  0  0  0  0
  -25.3931  -15.1952   20.4042 N   0  0  0  0  0  0
  -31.2732  -15.7144   19.8740 O   0  0  0  0  0  0
  -21.6655   -6.8894   21.4245 O   0  0  0  0  0  0
  -22.3470  -14.5456   20.6726 O   0  0  0  0  0  0
  -24.6844  -31.7942   23.1510 C   0  0  0  0  0  0
  -25.9425  -32.4420   23.8056 C   0  0  1  0  0  0
  -27.2434  -26.6843   20.2192 C   0  0  0  0  0  0
  -25.6000  -33.8250   24.1935 N   0  0  0  0  0  0
  -23.5121  -30.3949   21.5017 C   0  0  2  0  0  0
  -24.9750  -28.7298   20.1163 C   0  0  0  0  0  0
  -22.7773  -29.4288   22.4695 C   0  0  0  0  0  0
  -18.0339  -28.1421   22.8446 C   0  0  0  0  0  0
  -24.1497  -36.7117   23.2658 C   0  0  0  0  0  0
  -26.0931  -30.5207   21.4208 C   0  0  0  0  0  0
  -26.1602  -29.0836   20.7707 C   0  0  0  0  0  0
  -27.2728  -28.0880   20.7936 C   0  0  0  0  0  0
  -26.0259  -26.5439   19.5025 C   0  0  0  0  0  0
  -24.9480  -27.4862   19.4589 C   0  0  0  0  0  0
  -23.7685  -29.6833   20.1391 C   0  0  0  0  0  0
  -25.4149  -36.2862   24.0284 C   0  0  1  0  0  0
  -20.5974  -28.3777   23.1132 C   0  0  2  0  0  0
  -20.6804  -26.9433   22.5400 C   0  0  0  0  0  0
  -19.5785  -26.6370   21.5208 C   0  0  0  0  0  0
  -18.1966  -26.7948   22.1612 C   0  0  0  0  0  0
  -19.1607  -28.8927   23.2768 C   0  0  0  0  0  0
  -18.9517  -30.1511   23.8816 C   0  0  0  0  0  0
  -17.6508  -30.6607   24.0543 C   0  0  0  0  0  0
  -25.9133  -34.9254   23.4952 C   0  0  0  0  0  0
  -16.5395  -29.9084   23.6356 C   0  0  0  0  0  0
  -16.7317  -28.6505   23.0371 C   0  0  0  0  0  0
  -26.4607  -31.6462   25.0686 C   0  0  0  0  0  0
  -25.3691  -31.3772   26.1317 C   0  0  0  0  0  0
  -27.0540  -30.2787   24.6616 C   0  0  0  0  0  0
  -27.6044  -32.4344   25.7495 C   0  0  0  0  0  0
  -27.5566  -37.1711   24.8471 C   0  0  0  0  0  0
  -21.4417  -29.3013   22.3447 N   0  0  0  0  0  0
  -26.4265  -37.3636   23.9422 N   0  0  0  0  0  0
  -24.7858  -30.9382   22.0760 N   0  0  0  0  0  0
  -23.4209  -28.7898   23.3049 O   0  0  0  0  0  0
  -28.2175  -25.4684   20.3328 O   0  0  0  0  0  0
  -26.5778  -34.8837   22.4572 O   0  0  0  0  0  0
  -23.5866  -32.1019   23.6462 O   0  0  0  0  0  0
  -31.0238  -17.9241   21.2194 C   0  0  0  0  0  0
  -28.2500  -16.1084   21.8494 C   0  0  0  0  0  0
  -29.5597  -18.3661   20.4444 C   0  0  0  0  0  0
  -29.7413  -15.8430   22.8353 C   0  0  0  0  0  0
  -29.2416  -17.9534   25.5604 C   0  0  0  0  0  0
  -28.5247  -14.6994   24.7016 C   0  0  0  0  0  0
  -30.8608  -15.5695   25.0505 C   0  0  0  0  0  0
  -30.1002  -19.2467   23.2252 C   0  0  0  0  0  0
  -27.8329  -18.7744   22.7470 C   0  0  0  0  0  0
  -29.1010  -20.1263   19.9294 C   0  0  0  0  0  0
  -28.9430  -21.9876   20.5270 C   0  0  0  0  0  0
  -28.1593  -23.7196   20.0238 C   0  0  0  0  0  0
  -28.9765  -17.2028   24.2243 C   0  0  2  0  0  0
  -29.5386  -15.7820   24.2736 C   0  0  0  0  0  0
  -29.2427  -17.9300   22.7318 C   0  0  0  0  0  0
  -28.3167  -17.3049   20.6700 N   0  0  0  0  0  0
  -31.1498  -16.7460   22.4294 N   0  0  0  0  0  0
  -31.4277  -13.4633   19.1394 H   0  0  0  0  0  0
  -30.7386  -12.2553   20.1174 H   0  0  0  0  0  0
  -30.0207  -11.9208   17.7561 H   0  0  0  0  0  0
  -29.5119  -13.5837   17.6355 H   0  0  0  0  0  0
  -28.1354  -11.3225   19.0894 H   0  0  0  0  0  0
  -27.4543  -12.3831   17.8753 H   0  0  0  0  0  0
  -27.5473  -14.2702   19.3988 H   0  0  0  0  0  0
  -29.0045  -12.3989   21.2841 H   0  0  0  0  0  0
  -28.2591  -13.7480   21.9060 H   0  0  0  0  0  0
  -25.2816   -9.5660   22.4746 H   0  0  0  0  0  0
  -24.0025   -7.4634   22.7477 H   0  0  0  0  0  0
  -21.0883   -8.8807   19.8956 H   0  0  0  0  0  0
  -22.3777  -10.9678   19.6158 H   0  0  0  0  0  0
  -21.2025   -7.6157   23.9724 H   0  0  0  0  0  0
  -21.1469   -6.0520   25.9072 H   0  0  0  0  0  0
  -22.0605   -2.7622   23.2830 H   0  0  0  0  0  0
  -22.4122  -11.9798   22.4790 H   0  0  0  0  0  0
  -21.1097  -13.1140   22.2666 H   0  0  0  0  0  0
  -24.6115  -15.8323   20.5133 H   0  0  0  0  0  0
  -26.2328  -15.6590   20.0787 H   0  0  0  0  0  0
  -26.7496  -32.4878   23.0758 H   0  0  0  0  0  0
  -25.0048  -33.9264   25.0021 H   0  0  0  0  0  0
  -22.8395  -31.2331   21.3068 H   0  0  0  0  0  0
  -23.3784  -35.9419   23.3251 H   0  0  0  0  0  0
  -24.3571  -36.8844   22.2087 H   0  0  0  0  0  0
  -23.7224  -37.6263   23.6775 H   0  0  0  0  0  0
  -26.3035  -31.2447   20.6333 H   0  0  0  0  0  0
  -26.9424  -30.5894   22.0884 H   0  0  0  0  0  0
  -28.1565  -28.3621   21.3523 H   0  0  0  0  0  0
  -25.8643  -25.6019   18.9992 H   0  0  0  0  0  0
  -24.0533  -27.2054   18.9209 H   0  0  0  0  0  0
  -23.9385  -30.4385   19.3707 H   0  0  0  0  0  0
  -22.8751  -29.1438   19.8195 H   0  0  0  0  0  0
  -25.1360  -36.1619   25.0773 H   0  0  0  0  0  0
  -21.0053  -28.3412   24.1260 H   0  0  0  0  0  0
  -20.5656  -26.2403   23.3662 H   0  0  0  0  0  0
  -21.6669  -26.7368   22.1231 H   0  0  0  0  0  0
  -19.6944  -25.6263   21.1285 H   0  0  0  0  0  0
  -19.6737  -27.3141   20.6708 H   0  0  0  0  0  0
  -17.4232  -26.6674   21.4016 H   0  0  0  0  0  0
  -18.0367  -26.0108   22.9028 H   0  0  0  0  0  0
  -19.7997  -30.7343   24.2141 H   0  0  0  0  0  0
  -17.5063  -31.6280   24.5161 H   0  0  0  0  0  0
  -15.5392  -30.2964   23.7735 H   0  0  0  0  0  0
  -15.8713  -28.0801   22.7135 H   0  0  0  0  0  0
  -24.5904  -30.7081   25.7631 H   0  0  0  0  0  0
  -24.8850  -32.2981   26.4573 H   0  0  0  0  0  0
  -25.7906  -30.9062   27.0207 H   0  0  0  0  0  0
  -26.3264  -29.6386   24.1611 H   0  0  0  0  0  0
  -27.3932  -29.7258   25.5385 H   0  0  0  0  0  0
  -27.9265  -30.3871   24.0174 H   0  0  0  0  0  0
  -27.2568  -33.3717   26.1851 H   0  0  0  0  0  0
  -28.3963  -32.6785   25.0402 H   0  0  0  0  0  0
  -28.0593  -31.8627   26.5590 H   0  0  0  0  0  0
  -28.2541  -38.0046   24.7544 H   0  0  0  0  0  0
  -28.1104  -36.2570   24.6272 H   0  0  0  0  0  0
  -27.2284  -37.1324   25.8873 H   0  0  0  0  0  0
  -20.9734  -29.8624   21.6475 H   0  0  0  0  0  0
  -26.0083  -38.2676   24.1456 H   0  0  0  0  0  0
  -31.8846  -18.5711   21.1321 H   0  0  0  0  0  0
  -27.2771  -15.7370   22.1353 H   0  0  0  0  0  0
  -28.9862  -17.3165   26.4087 H   0  0  0  0  0  0
  -28.6304  -18.8485   25.6698 H   0  0  0  0  0  0
  -30.2872  -18.2330   25.6859 H   0  0  0  0  0  0
  -28.9069  -13.6989   24.4932 H   0  0  0  0  0  0
  -27.5594  -14.7880   24.2036 H   0  0  0  0  0  0
  -28.3325  -14.7558   25.7731 H   0  0  0  0  0  0
  -31.3312  -14.6267   24.7691 H   0  0  0  0  0  0
  -30.6845  -15.5336   26.1244 H   0  0  0  0  0  0
  -31.5871  -16.3639   24.8819 H   0  0  0  0  0  0
  -29.6272  -19.8630   23.9880 H   0  0  0  0  0  0
  -30.2743  -19.9750   22.4347 H   0  0  0  0  0  0
  -31.0793  -18.9885   23.6344 H   0  0  0  0  0  0
  -26.9390  -18.1770   22.5651 H   0  0  0  0  0  0
  -27.8010  -19.5872   22.0287 H   0  0  0  0  0  0
  -27.6107  -19.2535   23.7013 H   0  0  0  0  0  0
  -28.0860  -19.9383   19.5784 H   0  0  0  0  0  0
  -29.6703  -20.2227   19.0060 H   0  0  0  0  0  0
  -29.9893  -22.2550   20.6813 H   0  0  0  0  0  0
  -28.5651  -21.8686   21.5423 H   0  0  0  0  0  0
  -28.3054  -23.7204   18.9438 H   0  0  0  0  0  0
  -27.0913  -23.5302   20.1287 H   0  0  0  0  0  0
  -27.8988  -17.0373   24.2973 H   0  0  0  0  0  0
  1 25  1  0  0  0
  1 30  2  0  0  0
  1 85  1  0  0  0
  2  3  1  0  0  0
  2 25  1  0  0  0
  2 88  1  0  0  0
  2 89  1  0  0  0
  3  4  1  0  0  0
  3 90  1  0  0  0
  3 91  1  0  0  0
  4  5  1  0  0  0
  4 92  1  0  0  0
  4 93  1  0  0  0
  5  6  1  0  0  0
  5 26  1  0  0  0
  5 94  1  0  0  0
  6 25  1  0  0  0
  6 95  1  0  0  0
  6 96  1  0  0  0
  7  8  2  0  0  0
  7 26  1  0  0  0
  7 29  1  0  0  0
  8  9  1  0  0  0
  8 22  1  0  0  0
  9 10  1  0  0  0
  9 27  2  0  0  0
 10 11  2  0  0  0
 10 15  1  0  0  0
 11 12  1  0  0  0
 11 97  1  0  0  0
 12 13  2  0  0  0
 12 98  1  0  0  0
 13 14  1  0  0  0
 13 31  1  0  0  0
 14 15  2  0  0  0
 14 99  1  0  0  0
 15100  1  0  0  0
 16 17  2  0  0  0
 16 21  1  0  0  0
 16 31  1  0  0  0
 17 18  1  0  0  0
 17101  1  0  0  0
 18 19  2  0  0  0
 18102  1  0  0  0
 19 20  1  0  0  0
 19 24  1  0  0  0
 20 21  2  0  0  0
 20103  1  0  0  0
 21 23  1  0  0  0
 22 28  1  0  0  0
 22 32  2  0  0  0
 26 27  1  0  0  0
 28104  1  0  0  0
 28105  1  0  0  0
 29106  1  0  0  0
 29107  1  0  0  0
 33 34  1  0  0  0
 33 66  1  0  0  0
 33 70  2  0  0  0
 34 36  1  0  0  0
 34 59  1  0  0  0
 34108  1  0  0  0
 35 44  2  0  0  0
 35 45  1  0  0  0
 35 68  1  0  0  0
 36 56  1  0  0  0
 36109  1  0  0  0
 37 39  1  0  0  0
 37 47  1  0  0  0
 37 66  1  0  0  0
 37110  1  0  0  0
 38 43  2  0  0  0
 38 46  1  0  0  0
 38 47  1  0  0  0
 39 64  1  0  0  0
 39 67  2  0  0  0
 40 52  1  0  0  0
 40 53  2  0  0  0
 40 58  1  0  0  0
 41111  1  0  0  0
 41112  1  0  0  0
 41113  1  0  0  0
 41 48  1  0  0  0
 42 43  1  0  0  0
 42 66  1  0  0  0
 42114  1  0  0  0
 42115  1  0  0  0
 43 44  1  0  0  0
 44116  1  0  0  0
 45 46  2  0  0  0
 45117  1  0  0  0
 46118  1  0  0  0
 47119  1  0  0  0
 47120  1  0  0  0
 48 56  1  0  0  0
 48 65  1  0  0  0
 48121  1  0  0  0
 49 50  1  0  0  0
 49 53  1  0  0  0
 49 64  1  0  0  0
 49122  1  0  0  0
 50 51  1  0  0  0
 50123  1  0  0  0
 50124  1  0  0  0
 51 52  1  0  0  0
 51125  1  0  0  0
 51126  1  0  0  0
 52127  1  0  0  0
 52128  1  0  0  0
 53 54  1  0  0  0
 54 55  2  0  0  0
 54129  1  0  0  0
 55 57  1  0  0  0
 55130  1  0  0  0
 56 69  2  0  0  0
 57 58  2  0  0  0
 57131  1  0  0  0
 58132  1  0  0  0
 59 60  1  0  0  0
 59 61  1  0  0  0
 59 62  1  0  0  0
 60133  1  0  0  0
 60134  1  0  0  0
 60135  1  0  0  0
 61136  1  0  0  0
 61137  1  0  0  0
 61138  1  0  0  0
 62139  1  0  0  0
 62140  1  0  0  0
 62141  1  0  0  0
 63 65  1  0  0  0
 63142  1  0  0  0
 63143  1  0  0  0
 63144  1  0  0  0
 64145  1  0  0  0
 65146  1  0  0  0
 68 82  1  0  0  0
 71 73  2  0  0  0
 71 87  1  0  0  0
 71147  1  0  0  0
 72 74  1  0  0  0
 72 86  2  0  0  0
 72148  1  0  0  0
 73 80  1  0  0  0
 73 86  1  0  0  0
 74 84  1  0  0  0
 74 87  2  0  0  0
 75149  1  0  0  0
 75150  1  0  0  0
 75151  1  0  0  0
 75 83  1  0  0  0
 76152  1  0  0  0
 76153  1  0  0  0
 76154  1  0  0  0
 76 84  1  0  0  0
 77 84  1  0  0  0
 77155  1  0  0  0
 77156  1  0  0  0
 77157  1  0  0  0
 78158  1  0  0  0
 78159  1  0  0  0
 78160  1  0  0  0
 78 85  1  0  0  0
 79 85  1  0  0  0
 79161  1  0  0  0
 79162  1  0  0  0
 79163  1  0  0  0
 80 81  1  0  0  0
 80164  1  0  0  0
 80165  1  0  0  0
 81 82  1  0  0  0
 81166  1  0  0  0
 81167  1  0  0  0
 82168  1  0  0  0
 82169  1  0  0  0
 83 84  1  0  0  0
 83 85  1  0  0  0
 83170  1  0  0  0
M  ISO  4   1 100  68 101  82 101  85 100
M  END
> <chiral flag>
0

> <version>
0

> <s_m_source_file>
/data/baiqing/PycharmProjects/Reinvent-master-3.2/result/LINK_invent/BTK/process_docking_weight1_custom_sum_contain_oxygen_bond_distance_aromatic_linkinvent_7_9_3/rearranged_h_0072.sdf

> <i_m_source_file_index>
43

> <r_mmod_Potential_Energy-OPLS-2005>
10639.494140625

> <r_mmod_Stretch_Energy-OPLS-2005>
6729.03759765625

> <r_mmod_Bend_Energy-OPLS-2005>
804.1083984375

> <r_mmod_Torsional_Energy-OPLS-2005>
283.514221191406

> <r_mmod_Improper_Torsional_Energy-OPLS-2005>
41.7082672119141

> <r_mmod_Van_der_Waal_Energy-OPLS-2005>
2301.11450195312

> <r_mmod_Electrostatic_Energy-OPLS-2005>
-286.013580322266

> <r_mmod_Solvation_Energy-OPLS-2005>
-188.869827270508

> <b_mmod_Minimization_Converged-OPLS-2005>
0

> <r_mmod_RMS_Derivative-OPLS-2005>
2.91232180595398

$$$$
44
                    3D
 Structure written by MMmdl.
178186  0  0  1  0            999 V2000
  -30.8167  -14.3318   20.7394 C   0  0  0  0  0  0
  -30.4059  -12.2950   19.3926 C   0  0  0  0  0  0
  -29.4798  -12.5305   18.1887 C   0  0  0  0  0  0
  -28.0056  -12.3818   18.6045 C   0  0  0  0  0  0
  -27.6637  -13.2077   19.8716 C   0  0  2  0  0  0
  -28.7001  -12.9732   20.9916 C   0  0  0  0  0  0
  -25.2602  -13.8175   20.5673 C   0  0  0  0  0  0
  -24.1856  -13.0450   20.9178 C   0  0  0  0  0  0
  -24.6406  -11.6916   20.8725 C   0  0  0  0  0  0
  -23.9073  -10.4300   21.0401 C   0  0  0  0  0  0
  -24.3619   -9.4216   21.9183 C   0  0  0  0  0  0
  -23.6292   -8.2250   22.0756 C   0  0  0  0  0  0
  -22.4275   -8.0285   21.3547 C   0  0  0  0  0  0
  -21.9913   -9.0260   20.4650 C   0  0  0  0  0  0
  -22.7244  -10.2137   20.3054 C   0  0  0  0  0  0
  -21.6856   -6.0738   22.5283 C   0  0  0  0  0  0
  -21.4017   -6.5639   23.8216 C   0  0  0  0  0  0
  -21.3659   -5.6791   24.9176 C   0  0  0  0  0  0
  -21.6040   -4.3055   24.7228 C   0  0  0  0  0  0
  -21.8818   -3.8147   23.4348 C   0  0  0  0  0  0
  -21.9193   -4.6964   22.3405 C   0  0  0  0  0  0
  -22.7879  -13.5249   21.1840 C   0  0  0  0  0  0
  -22.1661   -4.2150   21.0984 F   0  0  0  0  0  0
  -21.5625   -3.4538   25.7741 F   0  0  0  0  0  0
  -30.0459  -13.2460   20.4572 N   0  0  0  0  0  0
  -26.3037  -12.9349   20.3340 N   0  0  0  0  0  0
  -25.9330  -11.6503   20.5738 N   0  0  0  0  0  0
  -22.0503  -12.8242   22.0389 N   0  0  0  0  0  0
  -25.4332  -15.1892   20.4102 N   0  0  0  0  0  0
  -31.7908  -14.6126   20.0297 O   0  0  0  0  0  0
  -21.6641   -6.8879   21.4244 O   0  0  0  0  0  0
  -22.3566  -14.5559   20.6690 O   0  0  0  0  0  0
  -24.6116  -31.8699   23.2112 C   0  0  0  0  0  0
  -25.9016  -32.4831   23.8397 C   0  0  1  0  0  0
  -27.2317  -27.4523   20.0855 C   0  0  0  0  0  0
  -25.5881  -33.8628   24.2333 N   0  0  0  0  0  0
  -23.3979  -30.4942   21.5517 C   0  0  2  0  0  0
  -24.8414  -28.9646   20.1121 C   0  0  0  0  0  0
  -22.7398  -29.4661   22.4998 C   0  0  0  0  0  0
  -18.0270  -28.1371   22.8495 C   0  0  0  0  0  0
  -24.1489  -36.7322   23.2639 C   0  0  0  0  0  0
  -25.9246  -30.8404   21.3617 C   0  0  0  0  0  0
  -26.0000  -29.4766   20.7083 C   0  0  0  0  0  0
  -27.1950  -28.7268   20.6927 C   0  0  0  0  0  0
  -26.0559  -26.9563   19.4751 C   0  0  0  0  0  0
  -24.8639  -27.7033   19.4946 C   0  0  0  0  0  0
  -23.6025  -29.8283   20.1651 C   0  0  0  0  0  0
  -25.4108  -36.3117   24.0341 C   0  0  1  0  0  0
  -20.5860  -28.3652   23.1330 C   0  0  2  0  0  0
  -20.6757  -26.9391   22.5420 C   0  0  0  0  0  0
  -19.5735  -26.6386   21.5212 C   0  0  0  0  0  0
  -18.1915  -26.7918   22.1624 C   0  0  0  0  0  0
  -19.1522  -28.8826   23.2910 C   0  0  0  0  0  0
  -18.9446  -30.1436   23.8915 C   0  0  0  0  0  0
  -17.6449  -30.6577   24.0567 C   0  0  0  0  0  0
  -25.9032  -34.9480   23.5133 C   0  0  0  0  0  0
  -16.5341  -29.9080   23.6326 C   0  0  0  0  0  0
  -16.7260  -28.6499   23.0344 C   0  0  0  0  0  0
  -26.4456  -31.6595   25.0711 C   0  0  0  0  0  0
  -25.3722  -31.3672   26.1457 C   0  0  0  0  0  0
  -27.0285  -30.3048   24.6054 C   0  0  0  0  0  0
  -27.6046  -32.4304   25.7459 C   0  0  0  0  0  0
  -27.5583  -37.1812   24.8464 C   0  0  0  0  0  0
  -21.4128  -29.3026   22.3737 N   0  0  0  0  0  0
  -26.4299  -37.3793   23.9406 N   0  0  0  0  0  0
  -24.6631  -31.0821   22.1007 N   0  0  0  0  0  0
  -23.4183  -28.8209   23.3033 O   0  0  0  0  0  0
  -28.4218  -26.7568   20.1113 O   0  0  0  0  0  0
  -26.5604  -34.8923   22.4703 O   0  0  0  0  0  0
  -23.5312  -32.1444   23.7524 O   0  0  0  0  0  0
  -33.1705  -17.6974   22.2706 C   0  0  0  0  0  0
  -32.2107  -18.4504   21.6465 C   0  0  0  0  0  0
  -31.4199  -16.4314   21.9919 C   0  0  0  0  0  0
  -29.9360  -15.1821   24.5019 C   0  0  0  0  0  0
  -25.6900  -20.9171   24.1781 C   0  0  0  0  0  0
  -25.1912  -19.5036   22.1410 C   0  0  0  0  0  0
  -30.5935  -14.4395   23.3263 C   0  0  0  0  0  0
  -27.9809  -23.0395   20.9289 C   0  0  0  0  0  0
  -28.9774  -18.8387   21.8522 C   0  0  0  0  0  0
  -27.6565  -24.5444   20.9301 C   0  0  0  0  0  0
  -26.9101  -22.1976   21.6556 C   0  0  0  0  0  0
  -28.1358  -19.9592   21.2123 C   0  0  0  0  0  0
  -29.8633  -18.0857   20.8428 C   0  0  0  0  0  0
  -28.4310  -25.3481   19.8624 C   0  0  0  0  0  0
  -30.5029  -15.2167   21.9823 C   0  0  2  0  0  0
  -26.3019  -20.0881   23.0348 C   0  0  0  0  0  0
  -27.4111  -20.8551   22.2514 C   0  0  2  0  0  0
  -32.6660  -16.4204   22.4821 N   0  0  0  0  0  0
  -31.0966  -17.6365   21.4691 N   0  0  0  0  0  0
  -31.4500  -12.3762   19.0853 H   0  0  0  0  0  0
  -30.2915  -11.2747   19.7624 H   0  0  0  0  0  0
  -29.7145  -11.8253   17.3902 H   0  0  0  0  0  0
  -29.6522  -13.5274   17.7800 H   0  0  0  0  0  0
  -27.8132  -11.3237   18.7865 H   0  0  0  0  0  0
  -27.3535  -12.6720   17.7797 H   0  0  0  0  0  0
  -27.7167  -14.2599   19.5900 H   0  0  0  0  0  0
  -28.6550  -11.9420   21.3447 H   0  0  0  0  0  0
  -28.4315  -13.5927   21.8448 H   0  0  0  0  0  0
  -25.2761   -9.5690   22.4762 H   0  0  0  0  0  0
  -24.0001   -7.4640   22.7474 H   0  0  0  0  0  0
  -21.0845   -8.8778   19.8952 H   0  0  0  0  0  0
  -22.3705  -10.9673   19.6161 H   0  0  0  0  0  0
  -21.2012   -7.6147   23.9722 H   0  0  0  0  0  0
  -21.1483   -6.0521   25.9080 H   0  0  0  0  0  0
  -22.0596   -2.7611   23.2853 H   0  0  0  0  0  0
  -22.4095  -11.9899   22.4784 H   0  0  0  0  0  0
  -21.1114  -13.1268   22.2559 H   0  0  0  0  0  0
  -24.6698  -15.8463   20.5270 H   0  0  0  0  0  0
  -26.2897  -15.6294   20.0989 H   0  0  0  0  0  0
  -26.7082  -32.5551   23.1155 H   0  0  0  0  0  0
  -25.0004  -33.9795   25.0459 H   0  0  0  0  0  0
  -22.6849  -31.3100   21.4145 H   0  0  0  0  0  0
  -23.3745  -35.9660   23.3312 H   0  0  0  0  0  0
  -24.3580  -36.8932   22.2051 H   0  0  0  0  0  0
  -23.7245  -37.6532   23.6650 H   0  0  0  0  0  0
  -26.0356  -31.6074   20.5940 H   0  0  0  0  0  0
  -26.8136  -30.8927   21.9786 H   0  0  0  0  0  0
  -28.0913  -29.1190   21.1538 H   0  0  0  0  0  0
  -26.0394  -25.9990   18.9770 H   0  0  0  0  0  0
  -23.9743  -27.3077   19.0253 H   0  0  0  0  0  0
  -23.7054  -30.6036   19.4044 H   0  0  0  0  0  0
  -22.7272  -29.2458   19.8728 H   0  0  0  0  0  0
  -25.1277  -36.1990   25.0833 H   0  0  0  0  0  0
  -20.9958  -28.3216   24.1448 H   0  0  0  0  0  0
  -20.5674  -26.2251   23.3603 H   0  0  0  0  0  0
  -21.6625  -26.7442   22.1202 H   0  0  0  0  0  0
  -19.6904  -25.6309   21.1219 H   0  0  0  0  0  0
  -19.6679  -27.3216   20.6760 H   0  0  0  0  0  0
  -17.4188  -26.6678   21.4024 H   0  0  0  0  0  0
  -18.0313  -26.0051   22.9012 H   0  0  0  0  0  0
  -19.7922  -30.7249   24.2292 H   0  0  0  0  0  0
  -17.5000  -31.6260   24.5162 H   0  0  0  0  0  0
  -15.5340  -30.2981   23.7639 H   0  0  0  0  0  0
  -15.8663  -28.0826   22.7040 H   0  0  0  0  0  0
  -24.5908  -30.7011   25.7777 H   0  0  0  0  0  0
  -24.8889  -32.2810   26.4926 H   0  0  0  0  0  0
  -25.8076  -30.8822   27.0202 H   0  0  0  0  0  0
  -26.2815  -29.6810   24.1129 H   0  0  0  0  0  0
  -27.4098  -29.7279   25.4489 H   0  0  0  0  0  0
  -27.8628  -30.4386   23.9161 H   0  0  0  0  0  0
  -27.2691  -33.3605   26.2057 H   0  0  0  0  0  0
  -28.3836  -32.6860   25.0263 H   0  0  0  0  0  0
  -28.0726  -31.8403   26.5349 H   0  0  0  0  0  0
  -28.2601  -38.0109   24.7519 H   0  0  0  0  0  0
  -28.1082  -36.2643   24.6286 H   0  0  0  0  0  0
  -27.2303  -37.1457   25.8867 H   0  0  0  0  0  0
  -20.9279  -29.8751   21.6971 H   0  0  0  0  0  0
  -26.0199  -38.2880   24.1390 H   0  0  0  0  0  0
  -34.1699  -17.9727   22.5777 H   0  0  0  0  0  0
  -32.2297  -19.4822   21.3214 H   0  0  0  0  0  0
  -30.0346  -14.6120   25.4259 H   0  0  0  0  0  0
  -28.8720  -15.3431   24.3245 H   0  0  0  0  0  0
  -30.3981  -16.1557   24.6660 H   0  0  0  0  0  0
  -25.0631  -20.2948   24.8180 H   0  0  0  0  0  0
  -25.0598  -21.7255   23.8062 H   0  0  0  0  0  0
  -26.4633  -21.3552   24.8103 H   0  0  0  0  0  0
  -24.4357  -18.9941   22.7399 H   0  0  0  0  0  0
  -25.5804  -18.7635   21.4419 H   0  0  0  0  0  0
  -24.6827  -20.2756   21.5641 H   0  0  0  0  0  0
  -30.1313  -13.4573   23.2488 H   0  0  0  0  0  0
  -31.6370  -14.2301   23.5643 H   0  0  0  0  0  0
  -28.9568  -22.8972   21.3952 H   0  0  0  0  0  0
  -28.0741  -22.6809   19.9027 H   0  0  0  0  0  0
  -28.3453  -18.1200   22.3732 H   0  0  0  0  0  0
  -29.6089  -19.2922   22.6179 H   0  0  0  0  0  0
  -27.8762  -24.9472   21.9194 H   0  0  0  0  0  0
  -26.5850  -24.6752   20.7848 H   0  0  0  0  0  0
  -26.0727  -22.0290   20.9783 H   0  0  0  0  0  0
  -26.5156  -22.8061   22.4691 H   0  0  0  0  0  0
  -27.4362  -19.5489   20.4848 H   0  0  0  0  0  0
  -28.8221  -20.5720   20.6300 H   0  0  0  0  0  0
  -30.1439  -18.7419   20.0174 H   0  0  0  0  0  0
  -29.3327  -17.2479   20.3909 H   0  0  0  0  0  0
  -28.0784  -25.1205   18.8560 H   0  0  0  0  0  0
  -29.4777  -25.0429   19.8820 H   0  0  0  0  0  0
  -29.4796  -15.5706   21.8698 H   0  0  0  0  0  0
  -26.7807  -19.2407   23.5260 H   0  0  0  0  0  0
  -28.1667  -21.1334   22.9882 H   0  0  0  0  0  0
  1 25  1  0  0  0
  1 30  2  0  0  0
  1 85  1  0  0  0
  2  3  1  0  0  0
  2 25  1  0  0  0
  2 90  1  0  0  0
  2 91  1  0  0  0
  3  4  1  0  0  0
  3 92  1  0  0  0
  3 93  1  0  0  0
  4  5  1  0  0  0
  4 94  1  0  0  0
  4 95  1  0  0  0
  5  6  1  0  0  0
  5 26  1  0  0  0
  5 96  1  0  0  0
  6 25  1  0  0  0
  6 97  1  0  0  0
  6 98  1  0  0  0
  7  8  2  0  0  0
  7 26  1  0  0  0
  7 29  1  0  0  0
  8  9  1  0  0  0
  8 22  1  0  0  0
  9 10  1  0  0  0
  9 27  2  0  0  0
 10 11  2  0  0  0
 10 15  1  0  0  0
 11 12  1  0  0  0
 11 99  1  0  0  0
 12 13  2  0  0  0
 12100  1  0  0  0
 13 14  1  0  0  0
 13 31  1  0  0  0
 14 15  2  0  0  0
 14101  1  0  0  0
 15102  1  0  0  0
 16 17  2  0  0  0
 16 21  1  0  0  0
 16 31  1  0  0  0
 17 18  1  0  0  0
 17103  1  0  0  0
 18 19  2  0  0  0
 18104  1  0  0  0
 19 20  1  0  0  0
 19 24  1  0  0  0
 20 21  2  0  0  0
 20105  1  0  0  0
 21 23  1  0  0  0
 22 28  1  0  0  0
 22 32  2  0  0  0
 26 27  1  0  0  0
 28106  1  0  0  0
 28107  1  0  0  0
 29108  1  0  0  0
 29109  1  0  0  0
 33 34  1  0  0  0
 33 66  1  0  0  0
 33 70  2  0  0  0
 34 36  1  0  0  0
 34 59  1  0  0  0
 34110  1  0  0  0
 35 44  2  0  0  0
 35 45  1  0  0  0
 35 68  1  0  0  0
 36 56  1  0  0  0
 36111  1  0  0  0
 37 39  1  0  0  0
 37 47  1  0  0  0
 37 66  1  0  0  0
 37112  1  0  0  0
 38 43  2  0  0  0
 38 46  1  0  0  0
 38 47  1  0  0  0
 39 64  1  0  0  0
 39 67  2  0  0  0
 40 52  1  0  0  0
 40 53  2  0  0  0
 40 58  1  0  0  0
 41113  1  0  0  0
 41114  1  0  0  0
 41115  1  0  0  0
 41 48  1  0  0  0
 42 43  1  0  0  0
 42 66  1  0  0  0
 42116  1  0  0  0
 42117  1  0  0  0
 43 44  1  0  0  0
 44118  1  0  0  0
 45 46  2  0  0  0
 45119  1  0  0  0
 46120  1  0  0  0
 47121  1  0  0  0
 47122  1  0  0  0
 48 56  1  0  0  0
 48 65  1  0  0  0
 48123  1  0  0  0
 49 50  1  0  0  0
 49 53  1  0  0  0
 49 64  1  0  0  0
 49124  1  0  0  0
 50 51  1  0  0  0
 50125  1  0  0  0
 50126  1  0  0  0
 51 52  1  0  0  0
 51127  1  0  0  0
 51128  1  0  0  0
 52129  1  0  0  0
 52130  1  0  0  0
 53 54  1  0  0  0
 54 55  2  0  0  0
 54131  1  0  0  0
 55 57  1  0  0  0
 55132  1  0  0  0
 56 69  2  0  0  0
 57 58  2  0  0  0
 57133  1  0  0  0
 58134  1  0  0  0
 59 60  1  0  0  0
 59 61  1  0  0  0
 59 62  1  0  0  0
 60135  1  0  0  0
 60136  1  0  0  0
 60137  1  0  0  0
 61138  1  0  0  0
 61139  1  0  0  0
 61140  1  0  0  0
 62141  1  0  0  0
 62142  1  0  0  0
 62143  1  0  0  0
 63 65  1  0  0  0
 63144  1  0  0  0
 63145  1  0  0  0
 63146  1  0  0  0
 64147  1  0  0  0
 65148  1  0  0  0
 68 84  1  0  0  0
 71 72  2  0  0  0
 71 88  1  0  0  0
 71149  1  0  0  0
 72 89  1  0  0  0
 72150  1  0  0  0
 73 85  1  0  0  0
 73 88  2  0  0  0
 73 89  1  0  0  0
 74 77  1  0  0  0
 74151  1  0  0  0
 74152  1  0  0  0
 74153  1  0  0  0
 75154  1  0  0  0
 75155  1  0  0  0
 75156  1  0  0  0
 75 86  1  0  0  0
 76 86  1  0  0  0
 76157  1  0  0  0
 76158  1  0  0  0
 76159  1  0  0  0
 77160  1  0  0  0
 77161  1  0  0  0
 77 85  1  0  0  0
 78 80  1  0  0  0
 78 81  1  0  0  0
 78162  1  0  0  0
 78163  1  0  0  0
 79 82  1  0  0  0
 79 83  1  0  0  0
 79164  1  0  0  0
 79165  1  0  0  0
 80 84  1  0  0  0
 80166  1  0  0  0
 80167  1  0  0  0
 81168  1  0  0  0
 81169  1  0  0  0
 81 87  1  0  0  0
 82 87  1  0  0  0
 82170  1  0  0  0
 82171  1  0  0  0
 83 89  1  0  0  0
 83172  1  0  0  0
 83173  1  0  0  0
 84174  1  0  0  0
 84175  1  0  0  0
 85176  1  0  0  0
 86 87  1  0  0  0
 86177  1  0  0  0
 87178  1  0  0  0
M  ISO  4   1 100  68 101  84 101  85 100
M  END
> <chiral flag>
0

> <version>
0

> <s_m_source_file>
/data/baiqing/PycharmProjects/Reinvent-master-3.2/result/LINK_invent/BTK/process_docking_weight1_custom_sum_contain_oxygen_bond_distance_aromatic_linkinvent_7_9_3/rearranged_h_0072.sdf

> <i_m_source_file_index>
44

> <r_mmod_Potential_Energy-OPLS-2005>
77.7360763549805

> <r_mmod_Stretch_Energy-OPLS-2005>
37.6946868896484

> <r_mmod_Bend_Energy-OPLS-2005>
114.824417114258

> <r_mmod_Torsional_Energy-OPLS-2005>
217.682632446289

> <r_mmod_Improper_Torsional_Energy-OPLS-2005>
1.49895083904266

> <r_mmod_Van_der_Waal_Energy-OPLS-2005>
133.36262512207

> <r_mmod_Electrostatic_Energy-OPLS-2005>
-237.713684082031

> <r_mmod_Solvation_Energy-OPLS-2005>
-199.047546386719

> <b_mmod_Minimization_Converged-OPLS-2005>
0

> <r_mmod_RMS_Derivative-OPLS-2005>
1.07602906227112

$$$$
45
                    3D
 Structure written by MMmdl.
150158  0  0  1  0            999 V2000
  -30.5334  -14.9189   20.4547 C   0  0  0  0  0  0
  -30.4458  -12.5648   19.5056 C   0  0  0  0  0  0
  -29.5263  -12.5366   18.2615 C   0  0  0  0  0  0
  -28.0561  -12.3260   18.6708 C   0  0  0  0  0  0
  -27.6371  -13.2461   19.8473 C   0  0  2  0  0  0
  -28.6771  -13.2369   20.9877 C   0  0  0  0  0  0
  -25.2488  -13.8214   20.5704 C   0  0  0  0  0  0
  -24.1790  -13.0435   20.9198 C   0  0  0  0  0  0
  -24.6404  -11.6921   20.8738 C   0  0  0  0  0  0
  -23.9081  -10.4290   21.0396 C   0  0  0  0  0  0
  -24.3627   -9.4204   21.9174 C   0  0  0  0  0  0
  -23.6296   -8.2245   22.0751 C   0  0  0  0  0  0
  -22.4277   -8.0287   21.3547 C   0  0  0  0  0  0
  -21.9916   -9.0257   20.4647 C   0  0  0  0  0  0
  -22.7252  -10.2130   20.3047 C   0  0  0  0  0  0
  -21.6854   -6.0732   22.5276 C   0  0  0  0  0  0
  -21.4022   -6.5634   23.8210 C   0  0  0  0  0  0
  -21.3665   -5.6790   24.9174 C   0  0  0  0  0  0
  -21.6041   -4.3052   24.7225 C   0  0  0  0  0  0
  -21.8820   -3.8141   23.4348 C   0  0  0  0  0  0
  -21.9193   -4.6957   22.3403 C   0  0  0  0  0  0
  -22.7810  -13.5211   21.1853 C   0  0  0  0  0  0
  -22.1657   -4.2140   21.0982 F   0  0  0  0  0  0
  -21.5628   -3.4538   25.7740 F   0  0  0  0  0  0
  -29.9654  -13.6456   20.4131 N   0  0  0  0  0  0
  -26.2922  -12.9443   20.3264 N   0  0  0  0  0  0
  -25.9339  -11.6571   20.5731 N   0  0  0  0  0  0
  -22.0460  -12.8214   22.0425 N   0  0  0  0  0  0
  -25.4166  -15.1944   20.4160 N   0  0  0  0  0  0
  -31.7012  -15.0110   20.0606 O   0  0  0  0  0  0
  -21.6646   -6.8881   21.4240 O   0  0  0  0  0  0
  -22.3487  -14.5507   20.6690 O   0  0  0  0  0  0
  -24.6428  -31.8434   23.1877 C   0  0  0  0  0  0
  -25.9206  -32.4686   23.8256 C   0  0  1  0  0  0
  -27.2175  -27.1431   20.1489 C   0  0  0  0  0  0
  -25.5955  -33.8492   24.2175 N   0  0  0  0  0  0
  -23.4455  -30.4633   21.5323 C   0  0  2  0  0  0
  -24.8949  -28.8918   20.1054 C   0  0  0  0  0  0
  -22.7557  -29.4549   22.4849 C   0  0  0  0  0  0
  -18.0300  -28.1403   22.8479 C   0  0  0  0  0  0
  -24.1486  -36.7248   23.2645 C   0  0  0  0  0  0
  -25.9999  -30.7196   21.3845 C   0  0  0  0  0  0
  -26.0702  -29.3317   20.7267 C   0  0  0  0  0  0
  -27.2303  -28.4719   20.7347 C   0  0  0  0  0  0
  -26.0212  -26.8088   19.4760 C   0  0  0  0  0  0
  -24.8827  -27.6439   19.4648 C   0  0  0  0  0  0
  -23.6707  -29.7921   20.1508 C   0  0  0  0  0  0
  -25.4117  -36.3023   24.0316 C   0  0  1  0  0  0
  -20.5910  -28.3726   23.1235 C   0  0  2  0  0  0
  -20.6783  -26.9427   22.5405 C   0  0  0  0  0  0
  -19.5755  -26.6388   21.5213 C   0  0  0  0  0  0
  -18.1936  -26.7940   22.1626 C   0  0  0  0  0  0
  -19.1558  -28.8883   23.2851 C   0  0  0  0  0  0
  -18.9478  -30.1478   23.8871 C   0  0  0  0  0  0
  -17.6479  -30.6602   24.0565 C   0  0  0  0  0  0
  -25.9071  -34.9403   23.5053 C   0  0  0  0  0  0
  -16.5368  -29.9095   23.6346 C   0  0  0  0  0  0
  -16.7285  -28.6518   23.0356 C   0  0  0  0  0  0
  -26.4532  -31.6555   25.0695 C   0  0  0  0  0  0
  -25.3726  -31.3753   26.1398 C   0  0  0  0  0  0
  -27.0397  -30.2949   24.6273 C   0  0  0  0  0  0
  -27.6049  -32.4328   25.7484 C   0  0  0  0  0  0
  -27.5562  -37.1778   24.8472 C   0  0  0  0  0  0
  -21.4248  -29.3050   22.3604 N   0  0  0  0  0  0
  -26.4273  -37.3744   23.9415 N   0  0  0  0  0  0
  -24.7158  -31.0301   22.0901 N   0  0  0  0  0  0
  -23.4199  -28.8100   23.2999 O   0  0  0  0  0  0
  -28.2736  -26.1662   20.2480 O   0  0  0  0  0  0
  -26.5657  -34.8912   22.4632 O   0  0  0  0  0  0
  -23.5551  -32.1307   23.7106 O   0  0  0  0  0  0
  -29.8450  -20.9719   22.3727 C   0  0  0  0  0  0
  -29.8151  -19.1825   21.2241 C   0  0  0  0  0  0
  -29.8581  -17.8598   20.2879 C   0  0  0  0  0  0
  -29.7686  -16.3011   20.9480 C   0  0  0  0  0  0
  -28.9130  -23.3616   20.6364 C   0  0  0  0  0  0
  -28.8585  -21.7142   20.2082 C   0  0  0  0  0  0
  -28.0807  -24.6501   19.9472 C   0  0  0  0  0  0
  -30.3634  -20.0470   23.1688 N   0  0  0  0  0  0
  -30.3573  -18.9096   22.4247 N   0  0  0  0  0  0
  -29.4723  -20.5959   21.1322 N   0  0  0  0  0  0
  -31.4808  -12.7169   19.1972 H   0  0  0  0  0  0
  -30.4318  -11.6022   20.0196 H   0  0  0  0  0  0
  -29.8425  -11.7483   17.5775 H   0  0  0  0  0  0
  -29.6225  -13.4756   17.7141 H   0  0  0  0  0  0
  -27.9427  -11.2811   18.9624 H   0  0  0  0  0  0
  -27.3975  -12.4773   17.8148 H   0  0  0  0  0  0
  -27.6135  -14.2572   19.4395 H   0  0  0  0  0  0
  -28.7490  -12.2468   21.4405 H   0  0  0  0  0  0
  -28.3772  -13.9153   21.7871 H   0  0  0  0  0  0
  -25.2767   -9.5680   22.4752 H   0  0  0  0  0  0
  -24.0000   -7.4639   22.7478 H   0  0  0  0  0  0
  -21.0840   -8.8780   19.8958 H   0  0  0  0  0  0
  -22.3708  -10.9666   19.6159 H   0  0  0  0  0  0
  -21.2023   -7.6142   23.9714 H   0  0  0  0  0  0
  -21.1485   -6.0519   25.9076 H   0  0  0  0  0  0
  -22.0596   -2.7601   23.2852 H   0  0  0  0  0  0
  -22.4085  -11.9890   22.4834 H   0  0  0  0  0  0
  -21.1070  -13.1231   22.2615 H   0  0  0  0  0  0
  -24.6506  -15.8486   20.5348 H   0  0  0  0  0  0
  -26.2727  -15.6379   20.1075 H   0  0  0  0  0  0
  -26.7266  -32.5298   23.0978 H   0  0  0  0  0  0
  -25.0091  -33.9606   25.0313 H   0  0  0  0  0  0
  -22.7485  -31.2895   21.3774 H   0  0  0  0  0  0
  -23.3750  -35.9580   23.3300 H   0  0  0  0  0  0
  -24.3574  -36.8883   22.2063 H   0  0  0  0  0  0
  -23.7237  -37.6442   23.6683 H   0  0  0  0  0  0
  -26.1522  -31.4738   20.6114 H   0  0  0  0  0  0
  -26.8722  -30.7707   22.0241 H   0  0  0  0  0  0
  -28.1229  -28.8011   21.2482 H   0  0  0  0  0  0
  -25.9304  -25.8613   18.9674 H   0  0  0  0  0  0
  -23.9878  -27.3033   18.9625 H   0  0  0  0  0  0
  -23.8046  -30.5662   19.3938 H   0  0  0  0  0  0
  -22.7859  -29.2325   19.8419 H   0  0  0  0  0  0
  -25.1304  -36.1838   25.0807 H   0  0  0  0  0  0
  -21.0009  -28.3317   24.1353 H   0  0  0  0  0  0
  -20.5676  -26.2339   23.3627 H   0  0  0  0  0  0
  -21.6650  -26.7431   22.1199 H   0  0  0  0  0  0
  -19.6917  -25.6296   21.1247 H   0  0  0  0  0  0
  -19.6689  -27.3200   20.6744 H   0  0  0  0  0  0
  -17.4204  -26.6686   21.4030 H   0  0  0  0  0  0
  -18.0331  -26.0090   22.9029 H   0  0  0  0  0  0
  -19.7960  -30.7301   24.2218 H   0  0  0  0  0  0
  -17.5040  -31.6276   24.5175 H   0  0  0  0  0  0
  -15.5371  -30.2994   23.7694 H   0  0  0  0  0  0
  -15.8678  -28.0839   22.7072 H   0  0  0  0  0  0
  -24.5914  -30.7081   25.7740 H   0  0  0  0  0  0
  -24.8913  -32.2944   26.4750 H   0  0  0  0  0  0
  -25.8030  -30.8987   27.0214 H   0  0  0  0  0  0
  -26.3015  -29.6663   24.1283 H   0  0  0  0  0  0
  -27.4015  -29.7252   25.4842 H   0  0  0  0  0  0
  -27.8915  -30.4179   23.9582 H   0  0  0  0  0  0
  -27.2625  -33.3655   26.1977 H   0  0  0  0  0  0
  -28.3907  -32.6842   25.0349 H   0  0  0  0  0  0
  -28.0658  -31.8504   26.5473 H   0  0  0  0  0  0
  -28.2584  -38.0069   24.7508 H   0  0  0  0  0  0
  -28.1047  -36.2598   24.6304 H   0  0  0  0  0  0
  -27.2284  -37.1438   25.8878 H   0  0  0  0  0  0
  -20.9452  -29.8764   21.6784 H   0  0  0  0  0  0
  -26.0130  -38.2805   24.1430 H   0  0  0  0  0  0
  -29.7486  -21.9816   22.7389 H   0  0  0  0  0  0
  -29.0644  -17.9603   19.5484 H   0  0  0  0  0  0
  -30.7833  -17.9198   19.7157 H   0  0  0  0  0  0
  -28.7108  -16.0719   21.0607 H   0  0  0  0  0  0
  -30.1263  -16.3804   21.9732 H   0  0  0  0  0  0
  -29.9671  -23.6407   20.6299 H   0  0  0  0  0  0
  -28.6165  -23.4217   21.6816 H   0  0  0  0  0  0
  -29.3151  -21.5992   19.2244 H   0  0  0  0  0  0
  -27.8100  -21.4476   20.0726 H   0  0  0  0  0  0
  -28.1991  -24.5588   18.8672 H   0  0  0  0  0  0
  -27.0326  -24.4182   20.1369 H   0  0  0  0  0  0
  1 25  1  0  0  0
  1 30  2  0  0  0
  1 74  1  0  0  0
  2  3  1  0  0  0
  2 25  1  0  0  0
  2 81  1  0  0  0
  2 82  1  0  0  0
  3  4  1  0  0  0
  3 83  1  0  0  0
  3 84  1  0  0  0
  4  5  1  0  0  0
  4 85  1  0  0  0
  4 86  1  0  0  0
  5  6  1  0  0  0
  5 26  1  0  0  0
  5 87  1  0  0  0
  6 25  1  0  0  0
  6 88  1  0  0  0
  6 89  1  0  0  0
  7  8  2  0  0  0
  7 26  1  0  0  0
  7 29  1  0  0  0
  8  9  1  0  0  0
  8 22  1  0  0  0
  9 10  1  0  0  0
  9 27  2  0  0  0
 10 11  2  0  0  0
 10 15  1  0  0  0
 11 12  1  0  0  0
 11 90  1  0  0  0
 12 13  2  0  0  0
 12 91  1  0  0  0
 13 14  1  0  0  0
 13 31  1  0  0  0
 14 15  2  0  0  0
 14 92  1  0  0  0
 15 93  1  0  0  0
 16 17  2  0  0  0
 16 21  1  0  0  0
 16 31  1  0  0  0
 17 18  1  0  0  0
 17 94  1  0  0  0
 18 19  2  0  0  0
 18 95  1  0  0  0
 19 20  1  0  0  0
 19 24  1  0  0  0
 20 21  2  0  0  0
 20 96  1  0  0  0
 21 23  1  0  0  0
 22 28  1  0  0  0
 22 32  2  0  0  0
 26 27  1  0  0  0
 28 97  1  0  0  0
 28 98  1  0  0  0
 29 99  1  0  0  0
 29100  1  0  0  0
 33 34  1  0  0  0
 33 66  1  0  0  0
 33 70  2  0  0  0
 34 36  1  0  0  0
 34 59  1  0  0  0
 34101  1  0  0  0
 35 44  2  0  0  0
 35 45  1  0  0  0
 35 68  1  0  0  0
 36 56  1  0  0  0
 36102  1  0  0  0
 37 39  1  0  0  0
 37 47  1  0  0  0
 37 66  1  0  0  0
 37103  1  0  0  0
 38 43  2  0  0  0
 38 46  1  0  0  0
 38 47  1  0  0  0
 39 64  1  0  0  0
 39 67  2  0  0  0
 40 52  1  0  0  0
 40 53  2  0  0  0
 40 58  1  0  0  0
 41104  1  0  0  0
 41105  1  0  0  0
 41106  1  0  0  0
 41 48  1  0  0  0
 42 43  1  0  0  0
 42 66  1  0  0  0
 42107  1  0  0  0
 42108  1  0  0  0
 43 44  1  0  0  0
 44109  1  0  0  0
 45 46  2  0  0  0
 45110  1  0  0  0
 46111  1  0  0  0
 47112  1  0  0  0
 47113  1  0  0  0
 48 56  1  0  0  0
 48 65  1  0  0  0
 48114  1  0  0  0
 49 50  1  0  0  0
 49 53  1  0  0  0
 49 64  1  0  0  0
 49115  1  0  0  0
 50 51  1  0  0  0
 50116  1  0  0  0
 50117  1  0  0  0
 51 52  1  0  0  0
 51118  1  0  0  0
 51119  1  0  0  0
 52120  1  0  0  0
 52121  1  0  0  0
 53 54  1  0  0  0
 54 55  2  0  0  0
 54122  1  0  0  0
 55 57  1  0  0  0
 55123  1  0  0  0
 56 69  2  0  0  0
 57 58  2  0  0  0
 57124  1  0  0  0
 58125  1  0  0  0
 59 60  1  0  0  0
 59 61  1  0  0  0
 59 62  1  0  0  0
 60126  1  0  0  0
 60127  1  0  0  0
 60128  1  0  0  0
 61129  1  0  0  0
 61130  1  0  0  0
 61131  1  0  0  0
 62132  1  0  0  0
 62133  1  0  0  0
 62134  1  0  0  0
 63 65  1  0  0  0
 63135  1  0  0  0
 63136  1  0  0  0
 63137  1  0  0  0
 64138  1  0  0  0
 65139  1  0  0  0
 68 77  1  0  0  0
 71 78  2  0  0  0
 71 80  1  0  0  0
 71140  1  0  0  0
 72 73  1  0  0  0
 72 79  2  0  0  0
 72 80  1  0  0  0
 73 74  1  0  0  0
 73141  1  0  0  0
 73142  1  0  0  0
 74143  1  0  0  0
 74144  1  0  0  0
 75 76  1  0  0  0
 75 77  1  0  0  0
 75145  1  0  0  0
 75146  1  0  0  0
 76 80  1  0  0  0
 76147  1  0  0  0
 76148  1  0  0  0
 77149  1  0  0  0
 77150  1  0  0  0
 78 79  1  0  0  0
M  ISO  4   1 100  68 101  74 100  77 101
M  END
> <chiral flag>
0

> <version>
0

> <s_m_source_file>
/data/baiqing/PycharmProjects/Reinvent-master-3.2/result/LINK_invent/BTK/process_docking_weight1_custom_sum_contain_oxygen_bond_distance_aromatic_linkinvent_7_9_3/rearranged_h_0072.sdf

> <i_m_source_file_index>
45

> <r_mmod_Potential_Energy-OPLS-2005>
479.981018066406

> <r_mmod_Stretch_Energy-OPLS-2005>
276.5947265625

> <r_mmod_Bend_Energy-OPLS-2005>
309.306427001953

> <r_mmod_Torsional_Energy-OPLS-2005>
193.223022460938

> <r_mmod_Improper_Torsional_Energy-OPLS-2005>
2.32336235046387

> <r_mmod_Van_der_Waal_Energy-OPLS-2005>
117.317565917969

> <r_mmod_Electrostatic_Energy-OPLS-2005>
-359.565032958984

> <r_mmod_Solvation_Energy-OPLS-2005>
-236.089492797852

> <b_mmod_Minimization_Converged-OPLS-2005>
0

> <r_mmod_RMS_Derivative-OPLS-2005>
1.05778527259827

$$$$
46
                    3D
 Structure written by MMmdl.
169177  0  0  1  0            999 V2000
  -30.7182  -14.5571   20.5674 C   0  0  0  0  0  0
  -30.4196  -12.3561   19.4584 C   0  0  0  0  0  0
  -29.5067  -12.4888   18.2210 C   0  0  0  0  0  0
  -28.0249  -12.3390   18.6214 C   0  0  0  0  0  0
  -27.6500  -13.2069   19.8482 C   0  0  2  0  0  0
  -28.6870  -13.0282   20.9767 C   0  0  0  0  0  0
  -25.2529  -13.8160   20.5597 C   0  0  0  0  0  0
  -24.1821  -13.0442   20.9173 C   0  0  0  0  0  0
  -24.6381  -11.6909   20.8720 C   0  0  0  0  0  0
  -23.9070  -10.4298   21.0404 C   0  0  0  0  0  0
  -24.3639   -9.4227   21.9186 C   0  0  0  0  0  0
  -23.6336   -8.2244   22.0759 C   0  0  0  0  0  0
  -22.4310   -8.0272   21.3552 C   0  0  0  0  0  0
  -21.9935   -9.0238   20.4648 C   0  0  0  0  0  0
  -22.7247  -10.2128   20.3058 C   0  0  0  0  0  0
  -21.6856   -6.0748   22.5298 C   0  0  0  0  0  0
  -21.4004   -6.5647   23.8237 C   0  0  0  0  0  0
  -21.3667   -5.6797   24.9194 C   0  0  0  0  0  0
  -21.6047   -4.3061   24.7237 C   0  0  0  0  0  0
  -21.8822   -3.8156   23.4357 C   0  0  0  0  0  0
  -21.9200   -4.6974   22.3414 C   0  0  0  0  0  0
  -22.7841  -13.5233   21.1857 C   0  0  0  0  0  0
  -22.1660   -4.2175   21.0989 F   0  0  0  0  0  0
  -21.5653   -3.4532   25.7742 F   0  0  0  0  0  0
  -30.0070  -13.3872   20.4408 N   0  0  0  0  0  0
  -26.2955  -12.9326   20.3201 N   0  0  0  0  0  0
  -25.9294  -11.6496   20.5698 N   0  0  0  0  0  0
  -22.0484  -12.8218   22.0399 N   0  0  0  0  0  0
  -25.4181  -15.1879   20.3927 N   0  0  0  0  0  0
  -31.8857  -14.5671   20.1619 O   0  0  0  0  0  0
  -21.6653   -6.8881   21.4258 O   0  0  0  0  0  0
  -22.3514  -14.5546   20.6724 O   0  0  0  0  0  0
  -24.6191  -31.8642   23.2082 C   0  0  0  0  0  0
  -25.9057  -32.4813   23.8395 C   0  0  1  0  0  0
  -27.2363  -27.3863   20.1056 C   0  0  0  0  0  0
  -25.5895  -33.8612   24.2329 N   0  0  0  0  0  0
  -23.4106  -30.4870   21.5497 C   0  0  2  0  0  0
  -24.8555  -28.9469   20.1167 C   0  0  0  0  0  0
  -22.7442  -29.4632   22.4979 C   0  0  0  0  0  0
  -18.0271  -28.1374   22.8494 C   0  0  0  0  0  0
  -24.1482  -36.7309   23.2641 C   0  0  0  0  0  0
  -25.9440  -30.8165   21.3665 C   0  0  0  0  0  0
  -26.0182  -29.4467   20.7133 C   0  0  0  0  0  0
  -27.2079  -28.6761   20.6989 C   0  0  0  0  0  0
  -26.0437  -26.9086   19.5113 C   0  0  0  0  0  0
  -24.8661  -27.6803   19.5112 C   0  0  0  0  0  0
  -23.6218  -29.8207   20.1642 C   0  0  0  0  0  0
  -25.4102  -36.3112   24.0345 C   0  0  1  0  0  0
  -20.5868  -28.3659   23.1308 C   0  0  2  0  0  0
  -20.6761  -26.9393   22.5407 C   0  0  0  0  0  0
  -19.5731  -26.6382   21.5212 C   0  0  0  0  0  0
  -18.1914  -26.7918   22.1634 C   0  0  0  0  0  0
  -19.1525  -28.8833   23.2898 C   0  0  0  0  0  0
  -18.9451  -30.1441   23.8907 C   0  0  0  0  0  0
  -17.6450  -30.6579   24.0562 C   0  0  0  0  0  0
  -25.9028  -34.9473   23.5141 C   0  0  0  0  0  0
  -16.5342  -29.9080   23.6330 C   0  0  0  0  0  0
  -16.7260  -28.6499   23.0350 C   0  0  0  0  0  0
  -26.4465  -31.6604   25.0738 C   0  0  0  0  0  0
  -25.3730  -31.3703   26.1489 C   0  0  0  0  0  0
  -27.0297  -30.3049   24.6126 C   0  0  0  0  0  0
  -27.6046  -32.4322   25.7487 C   0  0  0  0  0  0
  -27.5579  -37.1811   24.8467 C   0  0  0  0  0  0
  -21.4164  -29.3024   22.3721 N   0  0  0  0  0  0
  -26.4290  -37.3796   23.9414 N   0  0  0  0  0  0
  -24.6769  -31.0708   22.1000 N   0  0  0  0  0  0
  -23.4193  -28.8160   23.3026 O   0  0  0  0  0  0
  -28.4207  -26.6582   20.1325 O   0  0  0  0  0  0
  -26.5598  -34.8924   22.4711 O   0  0  0  0  0  0
  -23.5371  -32.1397   23.7455 O   0  0  0  0  0  0
  -30.6299  -16.6574   18.5199 C   0  0  0  0  0  0
  -30.2972  -18.7483   18.5161 C   0  0  0  0  0  0
  -30.2398  -16.9797   19.8123 C   0  0  0  0  0  0
  -31.1869  -16.4736   22.1076 C   0  0  0  0  0  0
  -28.8010  -16.0536   21.6941 C   0  0  0  0  0  0
  -27.5290  -20.7867   18.9453 C   0  0  0  0  0  0
  -29.3558  -22.4077   18.4712 C   0  0  0  0  0  0
  -28.3744  -24.1945   20.7869 C   0  0  0  0  0  0
  -27.7588  -22.8051   20.3935 C   0  0  0  0  0  0
  -29.5793  -20.8782   20.5204 C   0  0  0  0  0  0
  -29.4133  -19.3210   20.7719 C   0  0  0  0  0  0
  -28.4894  -25.2834   19.6709 C   0  0  0  0  0  0
  -30.1869  -16.0024   21.0196 C   0  0  0  0  0  0
  -28.5795  -21.7085   19.6080 C   0  0  0  0  0  0
  -30.6858  -17.7766   17.7103 N   0  0  0  0  0  0
  -29.9628  -18.3834   19.7631 N   0  0  0  0  0  0
  -31.4653  -12.4314   19.1566 H   0  0  0  0  0  0
  -30.3260  -11.3598   19.8932 H   0  0  0  0  0  0
  -29.7732  -11.7333   17.4796 H   0  0  0  0  0  0
  -29.6685  -13.4563   17.7456 H   0  0  0  0  0  0
  -27.8544  -11.2874   18.8528 H   0  0  0  0  0  0
  -27.3783  -12.5762   17.7749 H   0  0  0  0  0  0
  -27.6790  -14.2388   19.4999 H   0  0  0  0  0  0
  -28.6892  -11.9869   21.3003 H   0  0  0  0  0  0
  -28.4133  -13.5662   21.8751 H   0  0  0  0  0  0
  -25.2777   -9.5739   22.4777 H   0  0  0  0  0  0
  -24.0073   -7.4644   22.7477 H   0  0  0  0  0  0
  -21.0872   -8.8740   19.8947 H   0  0  0  0  0  0
  -22.3685  -10.9677   19.6185 H   0  0  0  0  0  0
  -21.1963   -7.6147   23.9746 H   0  0  0  0  0  0
  -21.1495   -6.0518   25.9109 H   0  0  0  0  0  0
  -22.0595   -2.7624   23.2839 H   0  0  0  0  0  0
  -22.4081  -11.9890   22.4827 H   0  0  0  0  0  0
  -21.1106  -13.1260   22.2577 H   0  0  0  0  0  0
  -24.6554  -15.8447   20.5117 H   0  0  0  0  0  0
  -26.2645  -15.6252   20.0535 H   0  0  0  0  0  0
  -26.7129  -32.5508   23.1158 H   0  0  0  0  0  0
  -25.0057  -33.9765   25.0484 H   0  0  0  0  0  0
  -22.7010  -31.3048   21.4087 H   0  0  0  0  0  0
  -23.3749  -35.9639   23.3310 H   0  0  0  0  0  0
  -24.3572  -36.8915   22.2053 H   0  0  0  0  0  0
  -23.7221  -37.6515   23.6642 H   0  0  0  0  0  0
  -26.0614  -31.5800   20.5962 H   0  0  0  0  0  0
  -26.8299  -30.8706   21.9886 H   0  0  0  0  0  0
  -28.1074  -29.0635   21.1568 H   0  0  0  0  0  0
  -25.9808  -25.9389   19.0456 H   0  0  0  0  0  0
  -23.9692  -27.2897   19.0499 H   0  0  0  0  0  0
  -23.7388  -30.5964   19.4061 H   0  0  0  0  0  0
  -22.7441  -29.2455   19.8645 H   0  0  0  0  0  0
  -25.1278  -36.1993   25.0839 H   0  0  0  0  0  0
  -20.9955  -28.3217   24.1432 H   0  0  0  0  0  0
  -20.5672  -26.2265   23.3592 H   0  0  0  0  0  0
  -21.6627  -26.7430   22.1192 H   0  0  0  0  0  0
  -19.6890  -25.6301   21.1225 H   0  0  0  0  0  0
  -19.6664  -27.3211   20.6757 H   0  0  0  0  0  0
  -17.4180  -26.6665   21.4042 H   0  0  0  0  0  0
  -18.0319  -26.0056   22.9027 H   0  0  0  0  0  0
  -19.7922  -30.7261   24.2287 H   0  0  0  0  0  0
  -17.4997  -31.6261   24.5159 H   0  0  0  0  0  0
  -15.5342  -30.2982   23.7639 H   0  0  0  0  0  0
  -15.8661  -28.0816   22.7060 H   0  0  0  0  0  0
  -24.5910  -30.7042   25.7828 H   0  0  0  0  0  0
  -24.8910  -32.2850   26.4953 H   0  0  0  0  0  0
  -25.8087  -30.8866   27.0242 H   0  0  0  0  0  0
  -26.2848  -29.6817   24.1168 H   0  0  0  0  0  0
  -27.4052  -29.7279   25.4584 H   0  0  0  0  0  0
  -27.8686  -30.4368   23.9292 H   0  0  0  0  0  0
  -27.2683  -33.3622   26.2080 H   0  0  0  0  0  0
  -28.3838  -32.6885   25.0297 H   0  0  0  0  0  0
  -28.0736  -31.8442   26.5385 H   0  0  0  0  0  0
  -28.2613  -38.0096   24.7520 H   0  0  0  0  0  0
  -28.1065  -36.2636   24.6293 H   0  0  0  0  0  0
  -27.2299  -37.1464   25.8870 H   0  0  0  0  0  0
  -20.9339  -29.8760   21.6949 H   0  0  0  0  0  0
  -26.0190  -38.2883   24.1411 H   0  0  0  0  0  0
  -30.9285  -15.7040   18.1048 H   0  0  0  0  0  0
  -30.2506  -19.7600   18.1632 H   0  0  0  0  0  0
  -30.8866  -17.4049   22.5795 H   0  0  0  0  0  0
  -32.1887  -16.6283   21.7039 H   0  0  0  0  0  0
  -31.2694  -15.7399   22.9115 H   0  0  0  0  0  0
  -28.5540  -17.0640   22.0137 H   0  0  0  0  0  0
  -28.7679  -15.4664   22.6104 H   0  0  0  0  0  0
  -28.0012  -15.7458   21.0294 H   0  0  0  0  0  0
  -26.8566  -21.3549   18.3015 H   0  0  0  0  0  0
  -26.9015  -20.2869   19.6830 H   0  0  0  0  0  0
  -27.9721  -20.0217   18.3108 H   0  0  0  0  0  0
  -28.7073  -23.0716   17.9002 H   0  0  0  0  0  0
  -29.7687  -21.7117   17.7461 H   0  0  0  0  0  0
  -30.1881  -22.9986   18.8534 H   0  0  0  0  0  0
  -29.3367  -24.0515   21.2803 H   0  0  0  0  0  0
  -27.7215  -24.6074   21.5570 H   0  0  0  0  0  0
  -26.8531  -23.0386   19.8303 H   0  0  0  0  0  0
  -27.3809  -22.3365   21.3038 H   0  0  0  0  0  0
  -30.6071  -21.0551   20.2005 H   0  0  0  0  0  0
  -29.5556  -21.3389   21.5082 H   0  0  0  0  0  0
  -28.3694  -19.0681   20.9506 H   0  0  0  0  0  0
  -29.9271  -19.1125   21.7058 H   0  0  0  0  0  0
  -27.8195  -25.0792   18.8397 H   0  0  0  0  0  0
  -29.4799  -25.1838   19.2274 H   0  0  0  0  0  0
  1 25  1  0  0  0
  1 30  2  0  0  0
  1 83  1  0  0  0
  2  3  1  0  0  0
  2 25  1  0  0  0
  2 87  1  0  0  0
  2 88  1  0  0  0
  3  4  1  0  0  0
  3 89  1  0  0  0
  3 90  1  0  0  0
  4  5  1  0  0  0
  4 91  1  0  0  0
  4 92  1  0  0  0
  5  6  1  0  0  0
  5 26  1  0  0  0
  5 93  1  0  0  0
  6 25  1  0  0  0
  6 94  1  0  0  0
  6 95  1  0  0  0
  7  8  2  0  0  0
  7 26  1  0  0  0
  7 29  1  0  0  0
  8  9  1  0  0  0
  8 22  1  0  0  0
  9 10  1  0  0  0
  9 27  2  0  0  0
 10 11  2  0  0  0
 10 15  1  0  0  0
 11 12  1  0  0  0
 11 96  1  0  0  0
 12 13  2  0  0  0
 12 97  1  0  0  0
 13 14  1  0  0  0
 13 31  1  0  0  0
 14 15  2  0  0  0
 14 98  1  0  0  0
 15 99  1  0  0  0
 16 17  2  0  0  0
 16 21  1  0  0  0
 16 31  1  0  0  0
 17 18  1  0  0  0
 17100  1  0  0  0
 18 19  2  0  0  0
 18101  1  0  0  0
 19 20  1  0  0  0
 19 24  1  0  0  0
 20 21  2  0  0  0
 20102  1  0  0  0
 21 23  1  0  0  0
 22 28  1  0  0  0
 22 32  2  0  0  0
 26 27  1  0  0  0
 28103  1  0  0  0
 28104  1  0  0  0
 29105  1  0  0  0
 29106  1  0  0  0
 33 34  1  0  0  0
 33 66  1  0  0  0
 33 70  2  0  0  0
 34 36  1  0  0  0
 34 59  1  0  0  0
 34107  1  0  0  0
 35 44  2  0  0  0
 35 45  1  0  0  0
 35 68  1  0  0  0
 36 56  1  0  0  0
 36108  1  0  0  0
 37 39  1  0  0  0
 37 47  1  0  0  0
 37 66  1  0  0  0
 37109  1  0  0  0
 38 43  2  0  0  0
 38 46  1  0  0  0
 38 47  1  0  0  0
 39 64  1  0  0  0
 39 67  2  0  0  0
 40 52  1  0  0  0
 40 53  2  0  0  0
 40 58  1  0  0  0
 41110  1  0  0  0
 41111  1  0  0  0
 41112  1  0  0  0
 41 48  1  0  0  0
 42 43  1  0  0  0
 42 66  1  0  0  0
 42113  1  0  0  0
 42114  1  0  0  0
 43 44  1  0  0  0
 44115  1  0  0  0
 45 46  2  0  0  0
 45116  1  0  0  0
 46117  1  0  0  0
 47118  1  0  0  0
 47119  1  0  0  0
 48 56  1  0  0  0
 48 65  1  0  0  0
 48120  1  0  0  0
 49 50  1  0  0  0
 49 53  1  0  0  0
 49 64  1  0  0  0
 49121  1  0  0  0
 50 51  1  0  0  0
 50122  1  0  0  0
 50123  1  0  0  0
 51 52  1  0  0  0
 51124  1  0  0  0
 51125  1  0  0  0
 52126  1  0  0  0
 52127  1  0  0  0
 53 54  1  0  0  0
 54 55  2  0  0  0
 54128  1  0  0  0
 55 57  1  0  0  0
 55129  1  0  0  0
 56 69  2  0  0  0
 57 58  2  0  0  0
 57130  1  0  0  0
 58131  1  0  0  0
 59 60  1  0  0  0
 59 61  1  0  0  0
 59 62  1  0  0  0
 60132  1  0  0  0
 60133  1  0  0  0
 60134  1  0  0  0
 61135  1  0  0  0
 61136  1  0  0  0
 61137  1  0  0  0
 62138  1  0  0  0
 62139  1  0  0  0
 62140  1  0  0  0
 63 65  1  0  0  0
 63141  1  0  0  0
 63142  1  0  0  0
 63143  1  0  0  0
 64144  1  0  0  0
 65145  1  0  0  0
 68 82  1  0  0  0
 71 73  2  0  0  0
 71 85  1  0  0  0
 71146  1  0  0  0
 72 85  2  0  0  0
 72 86  1  0  0  0
 72147  1  0  0  0
 73 83  1  0  0  0
 73 86  1  0  0  0
 74148  1  0  0  0
 74149  1  0  0  0
 74150  1  0  0  0
 74 83  1  0  0  0
 75 83  1  0  0  0
 75151  1  0  0  0
 75152  1  0  0  0
 75153  1  0  0  0
 76154  1  0  0  0
 76155  1  0  0  0
 76156  1  0  0  0
 76 84  1  0  0  0
 77 84  1  0  0  0
 77157  1  0  0  0
 77158  1  0  0  0
 77159  1  0  0  0
 78 79  1  0  0  0
 78 82  1  0  0  0
 78160  1  0  0  0
 78161  1  0  0  0
 79 84  1  0  0  0
 79162  1  0  0  0
 79163  1  0  0  0
 80 81  1  0  0  0
 80 84  1  0  0  0
 80164  1  0  0  0
 80165  1  0  0  0
 81 86  1  0  0  0
 81166  1  0  0  0
 81167  1  0  0  0
 82168  1  0  0  0
 82169  1  0  0  0
M  ISO  4   1 100  68 101  82 101  83 100
M  END
> <chiral flag>
0

> <version>
0

> <s_m_source_file>
/data/baiqing/PycharmProjects/Reinvent-master-3.2/result/LINK_invent/BTK/process_docking_weight1_custom_sum_contain_oxygen_bond_distance_aromatic_linkinvent_7_9_3/rearranged_h_0072.sdf

> <i_m_source_file_index>
46

> <r_mmod_Potential_Energy-OPLS-2005>
186.21044921875

> <r_mmod_Stretch_Energy-OPLS-2005>
74.1528244018555

> <r_mmod_Bend_Energy-OPLS-2005>
193.181900024414

> <r_mmod_Torsional_Energy-OPLS-2005>
239.83642578125

> <r_mmod_Improper_Torsional_Energy-OPLS-2005>
3.35457897186279

> <r_mmod_Van_der_Waal_Energy-OPLS-2005>
150.406387329102

> <r_mmod_Electrostatic_Energy-OPLS-2005>
-305.818054199219

> <r_mmod_Solvation_Energy-OPLS-2005>
-195.659729003906

> <b_mmod_Minimization_Converged-OPLS-2005>
0

> <r_mmod_RMS_Derivative-OPLS-2005>
2.21700620651245

$$$$
47
                    3D
 Structure written by MMmdl.
173181  0  0  1  0            999 V2000
  -30.7121  -14.4734   20.3925 C   0  0  0  0  0  0
  -30.4048  -12.2749   19.3934 C   0  0  0  0  0  0
  -29.4755  -12.4586   18.1807 C   0  0  0  0  0  0
  -28.0031  -12.3464   18.6176 C   0  0  0  0  0  0
  -27.6531  -13.2139   19.8565 C   0  0  2  0  0  0
  -28.7082  -13.0634   20.9752 C   0  0  0  0  0  0
  -25.2612  -13.8158   20.5744 C   0  0  0  0  0  0
  -24.1884  -13.0410   20.9274 C   0  0  0  0  0  0
  -24.6449  -11.6910   20.8746 C   0  0  0  0  0  0
  -23.9121  -10.4288   21.0418 C   0  0  0  0  0  0
  -24.3637   -9.4190   21.9184 C   0  0  0  0  0  0
  -23.6299   -8.2222   22.0750 C   0  0  0  0  0  0
  -22.4286   -8.0261   21.3522 C   0  0  0  0  0  0
  -21.9946   -9.0277   20.4652 C   0  0  0  0  0  0
  -22.7303  -10.2145   20.3080 C   0  0  0  0  0  0
  -21.6840   -6.0742   22.5285 C   0  0  0  0  0  0
  -21.4007   -6.5641   23.8226 C   0  0  0  0  0  0
  -21.3669   -5.6779   24.9185 C   0  0  0  0  0  0
  -21.6046   -4.3046   24.7231 C   0  0  0  0  0  0
  -21.8814   -3.8148   23.4352 C   0  0  0  0  0  0
  -21.9210   -4.6975   22.3412 C   0  0  0  0  0  0
  -22.7891  -13.5194   21.1907 C   0  0  0  0  0  0
  -22.1654   -4.2151   21.0994 F   0  0  0  0  0  0
  -21.5694   -3.4543   25.7759 F   0  0  0  0  0  0
  -30.0248  -13.3030   20.3742 N   0  0  0  0  0  0
  -26.3023  -12.9340   20.3329 N   0  0  0  0  0  0
  -25.9385  -11.6509   20.5810 N   0  0  0  0  0  0
  -22.0538  -12.8157   22.0461 N   0  0  0  0  0  0
  -25.4333  -15.1865   20.4193 N   0  0  0  0  0  0
  -31.9264  -14.5247   20.2337 O   0  0  0  0  0  0
  -21.6618   -6.8878   21.4224 O   0  0  0  0  0  0
  -22.3564  -14.5473   20.6746 O   0  0  0  0  0  0
  -24.6229  -31.8604   23.2059 C   0  0  0  0  0  0
  -25.9084  -32.4797   23.8397 C   0  0  1  0  0  0
  -27.2227  -27.3646   20.0849 C   0  0  0  0  0  0
  -25.5885  -33.8595   24.2320 N   0  0  0  0  0  0
  -23.4198  -30.4832   21.5468 C   0  0  2  0  0  0
  -24.8626  -28.9504   20.1112 C   0  0  0  0  0  0
  -22.7385  -29.4660   22.4931 C   0  0  0  0  0  0
  -18.0294  -28.1450   22.8585 C   0  0  0  0  0  0
  -24.1490  -36.7323   23.2657 C   0  0  0  0  0  0
  -25.9597  -30.8044   21.3753 C   0  0  0  0  0  0
  -26.0283  -29.4357   20.7147 C   0  0  0  0  0  0
  -27.2092  -28.6470   20.7019 C   0  0  0  0  0  0
  -26.0396  -26.9406   19.4243 C   0  0  0  0  0  0
  -24.8639  -27.7107   19.4607 C   0  0  0  0  0  0
  -23.6340  -29.8269   20.1599 C   0  0  0  0  0  0
  -25.4108  -36.3126   24.0382 C   0  0  1  0  0  0
  -20.5878  -28.3777   23.1421 C   0  0  2  0  0  0
  -20.6619  -26.9376   22.5926 C   0  0  0  0  0  0
  -19.5889  -26.6599   21.5332 C   0  0  0  0  0  0
  -18.2029  -26.7950   22.1715 C   0  0  0  0  0  0
  -19.1544  -28.8947   23.3011 C   0  0  0  0  0  0
  -18.9441  -30.1543   23.9025 C   0  0  0  0  0  0
  -17.6448  -30.6696   24.0621 C   0  0  0  0  0  0
  -25.9011  -34.9465   23.5162 C   0  0  0  0  0  0
  -16.5349  -29.9189   23.6382 C   0  0  0  0  0  0
  -16.7268  -28.6589   23.0416 C   0  0  0  0  0  0
  -26.4450  -31.6588   25.0747 C   0  0  0  0  0  0
  -25.3720  -31.3635   26.1492 C   0  0  0  0  0  0
  -27.0314  -30.3041   24.6188 C   0  0  0  0  0  0
  -27.6061  -32.4282   25.7482 C   0  0  0  0  0  0
  -27.5582  -37.1815   24.8471 C   0  0  0  0  0  0
  -21.4104  -29.2945   22.3550 N   0  0  0  0  0  0
  -26.4285  -37.3798   23.9410 N   0  0  0  0  0  0
  -24.6876  -31.0654   22.1002 N   0  0  0  0  0  0
  -23.4059  -28.8274   23.3129 O   0  0  0  0  0  0
  -28.3552  -26.5630   20.1483 O   0  0  0  0  0  0
  -26.5599  -34.8928   22.4733 O   0  0  0  0  0  0
  -23.5392  -32.1354   23.7374 O   0  0  0  0  0  0
  -29.1855  -20.0782   20.4870 C   0  0  0  0  0  0
  -29.7057  -18.1133   19.9157 C   0  0  0  0  0  0
  -31.7107  -18.0617   17.6966 C   0  0  0  0  0  0
  -31.2602  -24.4673   22.1836 C   0  0  0  0  0  0
  -26.8568  -18.7230   17.4081 C   0  0  0  0  0  0
  -28.3835  -24.2680   22.1647 C   0  0  0  0  0  0
  -29.2358  -21.4523   21.1379 C   0  0  0  0  0  0
  -31.1432  -16.7411   18.2400 C   0  0  0  0  0  0
  -30.5403  -24.5820   20.8221 C   0  0  0  0  0  0
  -28.8798  -22.6741   20.2195 C   0  0  0  0  0  0
  -27.8762  -17.8187   18.1319 C   0  0  0  0  0  0
  -28.2519  -25.1370   19.8359 C   0  0  0  0  0  0
  -30.5507  -16.8546   19.6774 C   0  0  2  0  0  0
  -29.0397  -24.1521   20.7746 C   0  0  1  0  0  0
  -30.1012  -19.0892   20.7473 N   0  0  0  0  0  0
  -28.2232  -19.7251   19.6424 N   0  0  0  0  0  0
  -28.6116  -18.4841   19.2148 N   0  0  0  0  0  0
  -29.9688  -15.5847   20.1892 N   0  0  0  0  0  0
  -31.4402  -12.3551   19.0631 H   0  0  0  0  0  0
  -30.3077  -11.2706   19.8122 H   0  0  0  0  0  0
  -29.6895  -11.7112   17.4112 H   0  0  0  0  0  0
  -29.6613  -13.4305   17.7241 H   0  0  0  0  0  0
  -27.8165  -11.2966   18.8403 H   0  0  0  0  0  0
  -27.3410  -12.5960   17.7850 H   0  0  0  0  0  0
  -27.6679  -14.2532   19.5249 H   0  0  0  0  0  0
  -28.6601  -12.0737   21.4315 H   0  0  0  0  0  0
  -28.5131  -13.7814   21.7731 H   0  0  0  0  0  0
  -25.2802   -9.5654   22.4736 H   0  0  0  0  0  0
  -24.0029   -7.4610   22.7471 H   0  0  0  0  0  0
  -21.0878   -8.8852   19.8921 H   0  0  0  0  0  0
  -22.3818  -10.9694   19.6189 H   0  0  0  0  0  0
  -21.1925   -7.6139   23.9731 H   0  0  0  0  0  0
  -21.1494   -6.0510   25.9090 H   0  0  0  0  0  0
  -22.0566   -2.7607   23.2873 H   0  0  0  0  0  0
  -22.4138  -11.9776   22.4779 H   0  0  0  0  0  0
  -21.1145  -13.1184   22.2638 H   0  0  0  0  0  0
  -24.6760  -15.8438   20.5712 H   0  0  0  0  0  0
  -26.2836  -15.6306   20.0991 H   0  0  0  0  0  0
  -26.7176  -32.5441   23.1167 H   0  0  0  0  0  0
  -25.0000  -33.9751   25.0443 H   0  0  0  0  0  0
  -22.7243  -31.3108   21.3980 H   0  0  0  0  0  0
  -23.3749  -35.9639   23.3326 H   0  0  0  0  0  0
  -24.3556  -36.8913   22.2052 H   0  0  0  0  0  0
  -23.7222  -37.6547   23.6625 H   0  0  0  0  0  0
  -26.0928  -31.5732   20.6141 H   0  0  0  0  0  0
  -26.8395  -30.8405   22.0068 H   0  0  0  0  0  0
  -28.1105  -29.0138   21.1715 H   0  0  0  0  0  0
  -25.9905  -26.0227   18.8613 H   0  0  0  0  0  0
  -23.9656  -27.3535   18.9673 H   0  0  0  0  0  0
  -23.7716  -30.6009   19.4044 H   0  0  0  0  0  0
  -22.7574  -29.2558   19.8545 H   0  0  0  0  0  0
  -25.1262  -36.2032   25.0875 H   0  0  0  0  0  0
  -21.0043  -28.3598   24.1530 H   0  0  0  0  0  0
  -20.4668  -26.2611   23.4266 H   0  0  0  0  0  0
  -21.6645  -26.6844   22.2507 H   0  0  0  0  0  0
  -19.7175  -25.6649   21.1114 H   0  0  0  0  0  0
  -19.6920  -27.3713   20.7126 H   0  0  0  0  0  0
  -17.4267  -26.6499   21.4186 H   0  0  0  0  0  0
  -18.0603  -26.0065   22.9137 H   0  0  0  0  0  0
  -19.7865  -30.7371   24.2528 H   0  0  0  0  0  0
  -17.4972  -31.6380   24.5173 H   0  0  0  0  0  0
  -15.5366  -30.3148   23.7641 H   0  0  0  0  0  0
  -15.8675  -28.0858   22.7178 H   0  0  0  0  0  0
  -24.5943  -30.6942   25.7806 H   0  0  0  0  0  0
  -24.8836  -32.2737   26.4985 H   0  0  0  0  0  0
  -25.8078  -30.8772   27.0242 H   0  0  0  0  0  0
  -26.2885  -29.6776   24.1251 H   0  0  0  0  0  0
  -27.4083  -29.7308   25.4676 H   0  0  0  0  0  0
  -27.8715  -30.4377   23.9369 H   0  0  0  0  0  0
  -27.2755  -33.3607   26.2065 H   0  0  0  0  0  0
  -28.3825  -32.6800   25.0243 H   0  0  0  0  0  0
  -28.0780  -31.8392   26.5366 H   0  0  0  0  0  0
  -28.2634  -38.0087   24.7497 H   0  0  0  0  0  0
  -28.1051  -36.2624   24.6312 H   0  0  0  0  0  0
  -27.2285  -37.1482   25.8870 H   0  0  0  0  0  0
  -20.9336  -29.8123   21.6283 H   0  0  0  0  0  0
  -26.0226  -38.2898   24.1355 H   0  0  0  0  0  0
  -32.4671  -18.4729   18.3714 H   0  0  0  0  0  0
  -30.9298  -18.8110   17.5638 H   0  0  0  0  0  0
  -32.1754  -17.8979   16.7235 H   0  0  0  0  0  0
  -30.8464  -25.1779   22.9052 H   0  0  0  0  0  0
  -32.3207  -24.6950   22.0979 H   0  0  0  0  0  0
  -31.1769  -23.4740   22.6180 H   0  0  0  0  0  0
  -25.9690  -18.8600   18.0249 H   0  0  0  0  0  0
  -26.5226  -18.2922   16.4657 H   0  0  0  0  0  0
  -27.2908  -19.6948   17.1719 H   0  0  0  0  0  0
  -28.9012  -23.6991   22.9382 H   0  0  0  0  0  0
  -27.3554  -23.9080   22.1561 H   0  0  0  0  0  0
  -28.3682  -25.3103   22.4840 H   0  0  0  0  0  0
  -30.2524  -21.5706   21.5164 H   0  0  0  0  0  0
  -28.5648  -21.4445   21.9919 H   0  0  0  0  0  0
  -31.9640  -16.0237   18.2459 H   0  0  0  0  0  0
  -30.4225  -16.3421   17.5254 H   0  0  0  0  0  0
  -31.1101  -24.0393   20.0694 H   0  0  0  0  0  0
  -30.6334  -25.6224   20.5109 H   0  0  0  0  0  0
  -29.4469  -22.6044   19.2893 H   0  0  0  0  0  0
  -27.8374  -22.5230   19.9335 H   0  0  0  0  0  0
  -28.5817  -17.4427   17.3904 H   0  0  0  0  0  0
  -27.3755  -16.9433   18.5461 H   0  0  0  0  0  0
  -27.2279  -24.7761   19.8932 H   0  0  0  0  0  0
  -28.5455  -24.9900   18.7970 H   0  0  0  0  0  0
  -31.4236  -17.0105   20.3122 H   0  0  0  0  0  0
  -28.9687  -15.5019   20.2483 H   0  0  0  0  0  0
  1 25  1  0  0  0
  1 30  2  0  0  0
  1 88  1  0  0  0
  2  3  1  0  0  0
  2 25  1  0  0  0
  2 89  1  0  0  0
  2 90  1  0  0  0
  3  4  1  0  0  0
  3 91  1  0  0  0
  3 92  1  0  0  0
  4  5  1  0  0  0
  4 93  1  0  0  0
  4 94  1  0  0  0
  5  6  1  0  0  0
  5 26  1  0  0  0
  5 95  1  0  0  0
  6 25  1  0  0  0
  6 96  1  0  0  0
  6 97  1  0  0  0
  7  8  2  0  0  0
  7 26  1  0  0  0
  7 29  1  0  0  0
  8  9  1  0  0  0
  8 22  1  0  0  0
  9 10  1  0  0  0
  9 27  2  0  0  0
 10 11  2  0  0  0
 10 15  1  0  0  0
 11 12  1  0  0  0
 11 98  1  0  0  0
 12 13  2  0  0  0
 12 99  1  0  0  0
 13 14  1  0  0  0
 13 31  1  0  0  0
 14 15  2  0  0  0
 14100  1  0  0  0
 15101  1  0  0  0
 16 17  2  0  0  0
 16 21  1  0  0  0
 16 31  1  0  0  0
 17 18  1  0  0  0
 17102  1  0  0  0
 18 19  2  0  0  0
 18103  1  0  0  0
 19 20  1  0  0  0
 19 24  1  0  0  0
 20 21  2  0  0  0
 20104  1  0  0  0
 21 23  1  0  0  0
 22 28  1  0  0  0
 22 32  2  0  0  0
 26 27  1  0  0  0
 28105  1  0  0  0
 28106  1  0  0  0
 29107  1  0  0  0
 29108  1  0  0  0
 33 34  1  0  0  0
 33 66  1  0  0  0
 33 70  2  0  0  0
 34 36  1  0  0  0
 34 59  1  0  0  0
 34109  1  0  0  0
 35 44  2  0  0  0
 35 45  1  0  0  0
 35 68  1  0  0  0
 36 56  1  0  0  0
 36110  1  0  0  0
 37 39  1  0  0  0
 37 47  1  0  0  0
 37 66  1  0  0  0
 37111  1  0  0  0
 38 43  2  0  0  0
 38 46  1  0  0  0
 38 47  1  0  0  0
 39 64  1  0  0  0
 39 67  2  0  0  0
 40 52  1  0  0  0
 40 53  2  0  0  0
 40 58  1  0  0  0
 41112  1  0  0  0
 41113  1  0  0  0
 41114  1  0  0  0
 41 48  1  0  0  0
 42 43  1  0  0  0
 42 66  1  0  0  0
 42115  1  0  0  0
 42116  1  0  0  0
 43 44  1  0  0  0
 44117  1  0  0  0
 45 46  2  0  0  0
 45118  1  0  0  0
 46119  1  0  0  0
 47120  1  0  0  0
 47121  1  0  0  0
 48 56  1  0  0  0
 48 65  1  0  0  0
 48122  1  0  0  0
 49 50  1  0  0  0
 49 53  1  0  0  0
 49 64  1  0  0  0
 49123  1  0  0  0
 50 51  1  0  0  0
 50124  1  0  0  0
 50125  1  0  0  0
 51 52  1  0  0  0
 51126  1  0  0  0
 51127  1  0  0  0
 52128  1  0  0  0
 52129  1  0  0  0
 53 54  1  0  0  0
 54 55  2  0  0  0
 54130  1  0  0  0
 55 57  1  0  0  0
 55131  1  0  0  0
 56 69  2  0  0  0
 57 58  2  0  0  0
 57132  1  0  0  0
 58133  1  0  0  0
 59 60  1  0  0  0
 59 61  1  0  0  0
 59 62  1  0  0  0
 60134  1  0  0  0
 60135  1  0  0  0
 60136  1  0  0  0
 61137  1  0  0  0
 61138  1  0  0  0
 61139  1  0  0  0
 62140  1  0  0  0
 62141  1  0  0  0
 62142  1  0  0  0
 63 65  1  0  0  0
 63143  1  0  0  0
 63144  1  0  0  0
 63145  1  0  0  0
 64146  1  0  0  0
 65147  1  0  0  0
 68 82  1  0  0  0
 71 77  1  0  0  0
 71 85  1  0  0  0
 71 86  2  0  0  0
 72 83  1  0  0  0
 72 85  2  0  0  0
 72 87  1  0  0  0
 73 78  1  0  0  0
 73148  1  0  0  0
 73149  1  0  0  0
 73150  1  0  0  0
 74 79  1  0  0  0
 74151  1  0  0  0
 74152  1  0  0  0
 74153  1  0  0  0
 75 81  1  0  0  0
 75154  1  0  0  0
 75155  1  0  0  0
 75156  1  0  0  0
 76157  1  0  0  0
 76158  1  0  0  0
 76159  1  0  0  0
 76 84  1  0  0  0
 77 80  1  0  0  0
 77160  1  0  0  0
 77161  1  0  0  0
 78162  1  0  0  0
 78163  1  0  0  0
 78 83  1  0  0  0
 79 84  1  0  0  0
 79164  1  0  0  0
 79165  1  0  0  0
 80 84  1  0  0  0
 80166  1  0  0  0
 80167  1  0  0  0
 81 87  1  0  0  0
 81168  1  0  0  0
 81169  1  0  0  0
 82 84  1  0  0  0
 82170  1  0  0  0
 82171  1  0  0  0
 83 88  1  0  0  0
 83172  1  0  0  0
 86 87  1  0  0  0
 88173  1  0  0  0
M  ISO  4   1 100  68 101  82 101  88 100
M  END
> <chiral flag>
0

> <version>
0

> <s_m_source_file>
/data/baiqing/PycharmProjects/Reinvent-master-3.2/result/LINK_invent/BTK/process_docking_weight1_custom_sum_contain_oxygen_bond_distance_aromatic_linkinvent_7_9_3/rearranged_h_0072.sdf

> <i_m_source_file_index>
47

> <r_mmod_Potential_Energy-OPLS-2005>
-21.5291366577148

> <r_mmod_Stretch_Energy-OPLS-2005>
55.5959320068359

> <r_mmod_Bend_Energy-OPLS-2005>
140.851364135742

> <r_mmod_Torsional_Energy-OPLS-2005>
250.478134155273

> <r_mmod_Improper_Torsional_Energy-OPLS-2005>
12.102424621582

> <r_mmod_Van_der_Waal_Energy-OPLS-2005>
137.787689208984

> <r_mmod_Electrostatic_Energy-OPLS-2005>
-447.790252685547

> <r_mmod_Solvation_Energy-OPLS-2005>
-209.30485534668

> <b_mmod_Minimization_Converged-OPLS-2005>
0

> <r_mmod_RMS_Derivative-OPLS-2005>
9.74230575561523

$$$$
48
                    3D
 Structure written by MMmdl.
164172  0  0  1  0            999 V2000
  -30.7144  -14.7123   20.2626 C   0  0  0  0  0  0
  -30.4195  -12.4053   19.4372 C   0  0  0  0  0  0
  -29.4751  -12.3076   18.2214 C   0  0  0  0  0  0
  -27.9958  -12.2731   18.6478 C   0  0  0  0  0  0
  -27.6242  -13.2264   19.8199 C   0  0  2  0  0  0
  -28.7031  -13.2646   20.9184 C   0  0  0  0  0  0
  -25.2510  -13.8208   20.5793 C   0  0  0  0  0  0
  -24.1791  -13.0459   20.9298 C   0  0  0  0  0  0
  -24.6372  -11.6934   20.8840 C   0  0  0  0  0  0
  -23.9056  -10.4300   21.0441 C   0  0  0  0  0  0
  -24.3611   -9.4201   21.9201 C   0  0  0  0  0  0
  -23.6300   -8.2226   22.0742 C   0  0  0  0  0  0
  -22.4282   -8.0271   21.3529 C   0  0  0  0  0  0
  -21.9920   -9.0249   20.4635 C   0  0  0  0  0  0
  -22.7239  -10.2143   20.3072 C   0  0  0  0  0  0
  -21.6854   -6.0736   22.5280 C   0  0  0  0  0  0
  -21.4011   -6.5640   23.8214 C   0  0  0  0  0  0
  -21.3661   -5.6793   24.9176 C   0  0  0  0  0  0
  -21.6048   -4.3054   24.7227 C   0  0  0  0  0  0
  -21.8817   -3.8148   23.4348 C   0  0  0  0  0  0
  -21.9193   -4.6966   22.3405 C   0  0  0  0  0  0
  -22.7806  -13.5234   21.1905 C   0  0  0  0  0  0
  -22.1659   -4.2152   21.0982 F   0  0  0  0  0  0
  -21.5638   -3.4538   25.7741 F   0  0  0  0  0  0
  -29.9853  -13.5469   20.2604 N   0  0  0  0  0  0
  -26.2915  -12.9394   20.3380 N   0  0  0  0  0  0
  -25.9310  -11.6552   20.5923 N   0  0  0  0  0  0
  -22.0444  -12.8205   22.0441 N   0  0  0  0  0  0
  -25.4230  -15.1928   20.4166 N   0  0  0  0  0  0
  -31.9165  -14.6022   20.4874 O   0  0  0  0  0  0
  -21.6640   -6.8874   21.4236 O   0  0  0  0  0  0
  -22.3495  -14.5529   20.6739 O   0  0  0  0  0  0
  -24.6230  -31.8605   23.2018 C   0  0  0  0  0  0
  -25.9088  -32.4779   23.8335 C   0  0  1  0  0  0
  -27.2203  -27.3369   20.1302 C   0  0  0  0  0  0
  -25.5918  -33.8583   24.2261 N   0  0  0  0  0  0
  -23.4144  -30.4823   21.5445 C   0  0  2  0  0  0
  -24.8592  -28.9270   20.1201 C   0  0  0  0  0  0
  -22.7445  -29.4625   22.4955 C   0  0  0  0  0  0
  -18.0281  -28.1381   22.8486 C   0  0  0  0  0  0
  -24.1496  -36.7301   23.2635 C   0  0  0  0  0  0
  -25.9509  -30.7976   21.3665 C   0  0  0  0  0  0
  -26.0245  -29.4220   20.7189 C   0  0  0  0  0  0
  -27.2118  -28.6383   20.7097 C   0  0  0  0  0  0
  -26.0372  -26.8736   19.5246 C   0  0  0  0  0  0
  -24.8650  -27.6565   19.5169 C   0  0  0  0  0  0
  -23.6278  -29.8088   20.1619 C   0  0  0  0  0  0
  -25.4121  -36.3081   24.0319 C   0  0  1  0  0  0
  -20.5873  -28.3668   23.1308 C   0  0  2  0  0  0
  -20.6777  -26.9396   22.5421 C   0  0  0  0  0  0
  -19.5753  -26.6379   21.5224 C   0  0  0  0  0  0
  -18.1927  -26.7926   22.1624 C   0  0  0  0  0  0
  -19.1532  -28.8841   23.2892 C   0  0  0  0  0  0
  -18.9458  -30.1445   23.8900 C   0  0  0  0  0  0
  -17.6462  -30.6586   24.0560 C   0  0  0  0  0  0
  -25.9062  -34.9450   23.5090 C   0  0  0  0  0  0
  -16.5352  -29.9081   23.6329 C   0  0  0  0  0  0
  -16.7270  -28.6500   23.0348 C   0  0  0  0  0  0
  -26.4485  -31.6584   25.0695 C   0  0  0  0  0  0
  -25.3723  -31.3713   26.1430 C   0  0  0  0  0  0
  -27.0311  -30.3009   24.6121 C   0  0  0  0  0  0
  -27.6056  -32.4300   25.7462 C   0  0  0  0  0  0
  -27.5579  -37.1803   24.8464 C   0  0  0  0  0  0
  -21.4167  -29.3032   22.3704 N   0  0  0  0  0  0
  -26.4302  -37.3782   23.9401 N   0  0  0  0  0  0
  -24.6815  -31.0644   22.0950 N   0  0  0  0  0  0
  -23.4189  -28.8174   23.3027 O   0  0  0  0  0  0
  -28.3672  -26.5522   20.0743 O   0  0  0  0  0  0
  -26.5635  -34.8918   22.4660 O   0  0  0  0  0  0
  -23.5402  -32.1396   23.7366 O   0  0  0  0  0  0
  -29.8535  -18.0719   21.0833 C   0  0  0  0  0  0
  -29.4290  -17.1978   20.0352 C   0  0  0  0  0  0
  -27.9243  -18.9039   19.3896 C   0  0  0  0  0  0
  -28.4167  -19.8091   20.3754 C   0  0  0  0  0  0
  -26.7990  -19.2606   18.4356 C   0  0  0  0  0  0
  -29.8166  -15.6157   18.0193 C   0  0  0  0  0  0
  -27.7999  -21.2446   20.5800 C   0  0  0  0  0  0
  -28.6895  -22.5507   20.4587 C   0  0  0  0  0  0
  -27.9641  -23.9138   20.0403 C   0  0  0  0  0  0
  -31.7017  -16.7741   19.0543 C   0  0  0  0  0  0
  -28.4136  -25.2527   20.7589 C   0  0  0  0  0  0
  -30.3416  -16.0550   19.4195 C   0  0  1  0  0  0
  -29.3650  -19.3487   21.2452 N   0  0  0  0  0  0
  -28.4290  -17.6495   19.2249 N   0  0  0  0  0  0
  -31.5848  -17.9461   18.1523 N   0  3  0  0  0  0
  -31.4523  -12.5069   19.0965 H   0  0  0  0  0  0
  -30.3857  -11.4867   20.0248 H   0  0  0  0  0  0
  -29.7019  -11.3903   17.6767 H   0  0  0  0  0  0
  -29.6422  -13.0871   17.4901 H   0  0  0  0  0  0
  -27.7952  -11.2431   18.9419 H   0  0  0  0  0  0
  -27.3506  -12.4646   17.7891 H   0  0  0  0  0  0
  -27.5657  -14.2274   19.4056 H   0  0  0  0  0  0
  -28.7483  -12.3198   21.4608 H   0  0  0  0  0  0
  -28.4741  -14.0399   21.6513 H   0  0  0  0  0  0
  -25.2747   -9.5690   22.4789 H   0  0  0  0  0  0
  -24.0018   -7.4611   22.7449 H   0  0  0  0  0  0
  -21.0860   -8.8771   19.8934 H   0  0  0  0  0  0
  -22.3688  -10.9691   19.6199 H   0  0  0  0  0  0
  -21.1994   -7.6147   23.9720 H   0  0  0  0  0  0
  -21.1488   -6.0523   25.9083 H   0  0  0  0  0  0
  -22.0595   -2.7611   23.2853 H   0  0  0  0  0  0
  -22.4062  -11.9875   22.4842 H   0  0  0  0  0  0
  -21.1046  -13.1189   22.2617 H   0  0  0  0  0  0
  -24.6613  -15.8507   20.5328 H   0  0  0  0  0  0
  -26.2812  -15.6323   20.1046 H   0  0  0  0  0  0
  -26.7144  -32.5456   23.1073 H   0  0  0  0  0  0
  -25.0059  -33.9739   25.0398 H   0  0  0  0  0  0
  -22.7080  -31.3017   21.3982 H   0  0  0  0  0  0
  -23.3755  -35.9637   23.3302 H   0  0  0  0  0  0
  -24.3593  -36.8925   22.2050 H   0  0  0  0  0  0
  -23.7248  -37.6498   23.6669 H   0  0  0  0  0  0
  -26.0768  -31.5558   20.5925 H   0  0  0  0  0  0
  -26.8349  -30.8522   21.9901 H   0  0  0  0  0  0
  -28.1156  -29.0213   21.1625 H   0  0  0  0  0  0
  -26.0221  -25.9012   19.0522 H   0  0  0  0  0  0
  -23.9690  -27.2710   19.0497 H   0  0  0  0  0  0
  -23.7465  -30.5812   19.4015 H   0  0  0  0  0  0
  -22.7476  -29.2367   19.8635 H   0  0  0  0  0  0
  -25.1300  -36.1931   25.0811 H   0  0  0  0  0  0
  -20.9965  -28.3238   24.1430 H   0  0  0  0  0  0
  -20.5697  -26.2271   23.3612 H   0  0  0  0  0  0
  -21.6644  -26.7451   22.1197 H   0  0  0  0  0  0
  -19.6924  -25.6296   21.1236 H   0  0  0  0  0  0
  -19.6703  -27.3207   20.6771 H   0  0  0  0  0  0
  -17.4207  -26.6677   21.4016 H   0  0  0  0  0  0
  -18.0311  -26.0072   22.9018 H   0  0  0  0  0  0
  -19.7936  -30.7258   24.2268 H   0  0  0  0  0  0
  -17.5020  -31.6267   24.5156 H   0  0  0  0  0  0
  -15.5353  -30.2985   23.7660 H   0  0  0  0  0  0
  -15.8667  -28.0825   22.7060 H   0  0  0  0  0  0
  -24.5919  -30.7034   25.7760 H   0  0  0  0  0  0
  -24.8891  -32.2876   26.4838 H   0  0  0  0  0  0
  -25.8055  -30.8909   27.0212 H   0  0  0  0  0  0
  -26.2861  -29.6767   24.1179 H   0  0  0  0  0  0
  -27.4053  -29.7260   25.4600 H   0  0  0  0  0  0
  -27.8706  -30.4301   23.9288 H   0  0  0  0  0  0
  -27.2695  -33.3620   26.2016 H   0  0  0  0  0  0
  -28.3881  -32.6823   25.0294 H   0  0  0  0  0  0
  -28.0699  -31.8428   26.5395 H   0  0  0  0  0  0
  -28.2594  -38.0104   24.7519 H   0  0  0  0  0  0
  -28.1072  -36.2636   24.6279 H   0  0  0  0  0  0
  -27.2301  -37.1430   25.8868 H   0  0  0  0  0  0
  -20.9335  -29.8746   21.6910 H   0  0  0  0  0  0
  -26.0174  -38.2847   24.1413 H   0  0  0  0  0  0
  -30.6976  -17.8100   21.7051 H   0  0  0  0  0  0
  -25.8753  -19.4330   18.9890 H   0  0  0  0  0  0
  -26.6095  -18.4581   17.7211 H   0  0  0  0  0  0
  -27.0418  -20.1598   17.8687 H   0  0  0  0  0  0
  -29.6752  -16.4460   17.3285 H   0  0  0  0  0  0
  -28.8524  -15.1245   18.0571 H   0  0  0  0  0  0
  -30.5345  -14.9610   17.5274 H   0  0  0  0  0  0
  -27.3120  -21.2500   21.5547 H   0  0  0  0  0  0
  -26.9785  -21.3673   19.8769 H   0  0  0  0  0  0
  -29.4714  -22.3635   19.7224 H   0  0  0  0  0  0
  -29.2191  -22.6838   21.4032 H   0  0  0  0  0  0
  -26.8880  -23.8074   20.1817 H   0  0  0  0  0  0
  -28.0964  -24.0389   18.9651 H   0  0  0  0  0  0
  -32.3847  -16.0786   18.5604 H   0  0  0  0  0  0
  -32.2194  -17.1028   19.9564 H   0  0  0  0  0  0
  -29.4636  -25.1277   21.0235 H   0  0  0  0  0  0
  -27.8958  -25.3363   21.7148 H   0  0  0  0  0  0
  -31.1928  -17.6726   17.2678 H   0  0  0  0  0  0
  -32.4960  -18.3336   17.9773 H   0  0  0  0  0  0
  -31.0070  -18.6663   18.5468 H   0  0  0  0  0  0
  1 25  1  0  0  0
  1 30  2  0  0  0
  1 82  1  0  0  0
  2  3  1  0  0  0
  2 25  1  0  0  0
  2 86  1  0  0  0
  2 87  1  0  0  0
  3  4  1  0  0  0
  3 88  1  0  0  0
  3 89  1  0  0  0
  4  5  1  0  0  0
  4 90  1  0  0  0
  4 91  1  0  0  0
  5  6  1  0  0  0
  5 26  1  0  0  0
  5 92  1  0  0  0
  6 25  1  0  0  0
  6 93  1  0  0  0
  6 94  1  0  0  0
  7  8  2  0  0  0
  7 26  1  0  0  0
  7 29  1  0  0  0
  8  9  1  0  0  0
  8 22  1  0  0  0
  9 10  1  0  0  0
  9 27  2  0  0  0
 10 11  2  0  0  0
 10 15  1  0  0  0
 11 12  1  0  0  0
 11 95  1  0  0  0
 12 13  2  0  0  0
 12 96  1  0  0  0
 13 14  1  0  0  0
 13 31  1  0  0  0
 14 15  2  0  0  0
 14 97  1  0  0  0
 15 98  1  0  0  0
 16 17  2  0  0  0
 16 21  1  0  0  0
 16 31  1  0  0  0
 17 18  1  0  0  0
 17 99  1  0  0  0
 18 19  2  0  0  0
 18100  1  0  0  0
 19 20  1  0  0  0
 19 24  1  0  0  0
 20 21  2  0  0  0
 20101  1  0  0  0
 21 23  1  0  0  0
 22 28  1  0  0  0
 22 32  2  0  0  0
 26 27  1  0  0  0
 28102  1  0  0  0
 28103  1  0  0  0
 29104  1  0  0  0
 29105  1  0  0  0
 33 34  1  0  0  0
 33 66  1  0  0  0
 33 70  2  0  0  0
 34 36  1  0  0  0
 34 59  1  0  0  0
 34106  1  0  0  0
 35 44  2  0  0  0
 35 45  1  0  0  0
 35 68  1  0  0  0
 36 56  1  0  0  0
 36107  1  0  0  0
 37 39  1  0  0  0
 37 47  1  0  0  0
 37 66  1  0  0  0
 37108  1  0  0  0
 38 43  2  0  0  0
 38 46  1  0  0  0
 38 47  1  0  0  0
 39 64  1  0  0  0
 39 67  2  0  0  0
 40 52  1  0  0  0
 40 53  2  0  0  0
 40 58  1  0  0  0
 41109  1  0  0  0
 41110  1  0  0  0
 41111  1  0  0  0
 41 48  1  0  0  0
 42 43  1  0  0  0
 42 66  1  0  0  0
 42112  1  0  0  0
 42113  1  0  0  0
 43 44  1  0  0  0
 44114  1  0  0  0
 45 46  2  0  0  0
 45115  1  0  0  0
 46116  1  0  0  0
 47117  1  0  0  0
 47118  1  0  0  0
 48 56  1  0  0  0
 48 65  1  0  0  0
 48119  1  0  0  0
 49 50  1  0  0  0
 49 53  1  0  0  0
 49 64  1  0  0  0
 49120  1  0  0  0
 50 51  1  0  0  0
 50121  1  0  0  0
 50122  1  0  0  0
 51 52  1  0  0  0
 51123  1  0  0  0
 51124  1  0  0  0
 52125  1  0  0  0
 52126  1  0  0  0
 53 54  1  0  0  0
 54 55  2  0  0  0
 54127  1  0  0  0
 55 57  1  0  0  0
 55128  1  0  0  0
 56 69  2  0  0  0
 57 58  2  0  0  0
 57129  1  0  0  0
 58130  1  0  0  0
 59 60  1  0  0  0
 59 61  1  0  0  0
 59 62  1  0  0  0
 60131  1  0  0  0
 60132  1  0  0  0
 60133  1  0  0  0
 61134  1  0  0  0
 61135  1  0  0  0
 61136  1  0  0  0
 62137  1  0  0  0
 62138  1  0  0  0
 62139  1  0  0  0
 63 65  1  0  0  0
 63140  1  0  0  0
 63141  1  0  0  0
 63142  1  0  0  0
 64143  1  0  0  0
 65144  1  0  0  0
 68 81  1  0  0  0
 71 72  2  0  0  0
 71 83  1  0  0  0
 71145  1  0  0  0
 72 82  1  0  0  0
 72 84  1  0  0  0
 73 74  1  0  0  0
 73 75  1  0  0  0
 73 84  2  0  0  0
 74 77  1  0  0  0
 74 83  2  0  0  0
 75146  1  0  0  0
 75147  1  0  0  0
 75148  1  0  0  0
 76149  1  0  0  0
 76150  1  0  0  0
 76151  1  0  0  0
 76 82  1  0  0  0
 77 78  1  0  0  0
 77152  1  0  0  0
 77153  1  0  0  0
 78 79  1  0  0  0
 78154  1  0  0  0
 78155  1  0  0  0
 79 81  1  0  0  0
 79156  1  0  0  0
 79157  1  0  0  0
 80 82  1  0  0  0
 80 85  1  0  0  0
 80158  1  0  0  0
 80159  1  0  0  0
 81160  1  0  0  0
 81161  1  0  0  0
 85162  1  0  0  0
 85163  1  0  0  0
 85164  1  0  0  0
M  CHG  1  85   1
M  ISO  4   1 100  68 101  81 101  82 100
M  END
> <chiral flag>
0

> <version>
0

> <s_m_source_file>
/data/baiqing/PycharmProjects/Reinvent-master-3.2/result/LINK_invent/BTK/process_docking_weight1_custom_sum_contain_oxygen_bond_distance_aromatic_linkinvent_7_9_3/rearranged_h_0072.sdf

> <i_m_source_file_index>
48

> <r_mmod_Potential_Energy-OPLS-2005>
140.63346862793

> <r_mmod_Stretch_Energy-OPLS-2005>
94.8170166015625

> <r_mmod_Bend_Energy-OPLS-2005>
181.569488525391

> <r_mmod_Torsional_Energy-OPLS-2005>
305.446502685547

> <r_mmod_Improper_Torsional_Energy-OPLS-2005>
24.7316379547119

> <r_mmod_Van_der_Waal_Energy-OPLS-2005>
162.792602539062

> <r_mmod_Electrostatic_Energy-OPLS-2005>
-274.957458496094

> <r_mmod_Solvation_Energy-OPLS-2005>
-457.673492431641

> <b_mmod_Minimization_Converged-OPLS-2005>
0

> <r_mmod_RMS_Derivative-OPLS-2005>
1.6380398273468

$$$$
49
                    3D
 Structure written by MMmdl.
164172  0  0  1  0            999 V2000
  -30.6797  -14.4612   20.5874 C   0  0  0  0  0  0
  -30.4306  -12.3018   19.4202 C   0  0  0  0  0  0
  -29.4971  -12.5123   18.2079 C   0  0  0  0  0  0
  -28.0170  -12.3723   18.6176 C   0  0  0  0  0  0
  -27.6666  -13.1987   19.8834 C   0  0  2  0  0  0
  -28.7064  -12.9510   21.0013 C   0  0  0  0  0  0
  -25.2613  -13.8135   20.5691 C   0  0  0  0  0  0
  -24.1849  -13.0422   20.9175 C   0  0  0  0  0  0
  -24.6386  -11.6887   20.8728 C   0  0  0  0  0  0
  -23.9041  -10.4281   21.0403 C   0  0  0  0  0  0
  -24.3602   -9.4193   21.9180 C   0  0  0  0  0  0
  -23.6280   -8.2227   22.0755 C   0  0  0  0  0  0
  -22.4262   -8.0267   21.3543 C   0  0  0  0  0  0
  -21.9892   -9.0241   20.4641 C   0  0  0  0  0  0
  -22.7222  -10.2120   20.3046 C   0  0  0  0  0  0
  -21.6847   -6.0724   22.5282 C   0  0  0  0  0  0
  -21.4018   -6.5637   23.8216 C   0  0  0  0  0  0
  -21.3658   -5.6792   24.9178 C   0  0  0  0  0  0
  -21.6041   -4.3056   24.7226 C   0  0  0  0  0  0
  -21.8826   -3.8140   23.4354 C   0  0  0  0  0  0
  -21.9199   -4.6954   22.3407 C   0  0  0  0  0  0
  -22.7878  -13.5243   21.1840 C   0  0  0  0  0  0
  -22.1670   -4.2140   21.0986 F   0  0  0  0  0  0
  -21.5615   -3.4537   25.7737 F   0  0  0  0  0  0
  -30.0410  -13.2670   20.4599 N   0  0  0  0  0  0
  -26.3043  -12.9289   20.3390 N   0  0  0  0  0  0
  -25.9308  -11.6451   20.5755 N   0  0  0  0  0  0
  -22.0514  -12.8236   22.0398 N   0  0  0  0  0  0
  -25.4349  -15.1839   20.4100 N   0  0  0  0  0  0
  -31.7787  -14.7018   20.0782 O   0  0  0  0  0  0
  -21.6636   -6.8859   21.4238 O   0  0  0  0  0  0
  -22.3571  -14.5557   20.6699 O   0  0  0  0  0  0
  -24.6133  -31.8684   23.2103 C   0  0  0  0  0  0
  -25.9033  -32.4825   23.8393 C   0  0  1  0  0  0
  -27.2401  -27.4461   20.0993 C   0  0  0  0  0  0
  -25.5905  -33.8626   24.2331 N   0  0  0  0  0  0
  -23.4009  -30.4900   21.5514 C   0  0  2  0  0  0
  -24.8483  -28.9531   20.1182 C   0  0  0  0  0  0
  -22.7396  -29.4661   22.5014 C   0  0  0  0  0  0
  -18.0266  -28.1374   22.8496 C   0  0  0  0  0  0
  -24.1488  -36.7313   23.2637 C   0  0  0  0  0  0
  -25.9271  -30.8393   21.3594 C   0  0  0  0  0  0
  -26.0076  -29.4739   20.7070 C   0  0  0  0  0  0
  -27.2082  -28.7301   20.6873 C   0  0  0  0  0  0
  -26.0643  -26.9328   19.5102 C   0  0  0  0  0  0
  -24.8712  -27.6817   19.5165 C   0  0  0  0  0  0
  -23.6085  -29.8180   20.1671 C   0  0  0  0  0  0
  -25.4109  -36.3114   24.0337 C   0  0  1  0  0  0
  -20.5857  -28.3654   23.1332 C   0  0  2  0  0  0
  -20.6759  -26.9397   22.5418 C   0  0  0  0  0  0
  -19.5742  -26.6388   21.5210 C   0  0  0  0  0  0
  -18.1919  -26.7926   22.1620 C   0  0  0  0  0  0
  -19.1516  -28.8831   23.2913 C   0  0  0  0  0  0
  -18.9447  -30.1440   23.8916 C   0  0  0  0  0  0
  -17.6451  -30.6583   24.0566 C   0  0  0  0  0  0
  -25.9036  -34.9479   23.5128 C   0  0  0  0  0  0
  -16.5341  -29.9085   23.6329 C   0  0  0  0  0  0
  -16.7257  -28.6502   23.0351 C   0  0  0  0  0  0
  -26.4469  -31.6603   25.0713 C   0  0  0  0  0  0
  -25.3748  -31.3705   26.1471 C   0  0  0  0  0  0
  -27.0288  -30.3049   24.6067 C   0  0  0  0  0  0
  -27.6048  -32.4318   25.7473 C   0  0  0  0  0  0
  -27.5582  -37.1811   24.8466 C   0  0  0  0  0  0
  -21.4127  -29.3025   22.3743 N   0  0  0  0  0  0
  -26.4297  -37.3797   23.9409 N   0  0  0  0  0  0
  -24.6651  -31.0794   22.0993 N   0  0  0  0  0  0
  -23.4169  -28.8216   23.3063 O   0  0  0  0  0  0
  -28.4163  -26.7298   20.0917 O   0  0  0  0  0  0
  -26.5591  -34.8928   22.4684 O   0  0  0  0  0  0
  -23.5329  -32.1432   23.7514 O   0  0  0  0  0  0
  -28.7125  -21.4157   21.8727 C   0  0  0  0  0  0
  -29.0439  -20.2772   21.1891 C   0  0  0  0  0  0
  -27.6971  -18.5624   19.9263 C   0  0  0  0  0  0
  -28.1413  -16.8341   22.6900 C   0  0  0  0  0  0
  -30.1130  -18.2837   23.0590 C   0  0  0  0  0  0
  -29.7470  -24.8666   20.8781 C   0  0  0  0  0  0
  -29.8218  -23.7200   21.9168 C   0  0  0  0  0  0
  -30.0714  -16.8764   20.9752 C   0  0  0  0  0  0
  -28.3302  -25.3672   20.5300 C   0  0  0  0  0  0
  -28.3878  -18.9109   21.2563 C   0  0  1  0  0  0
  -29.1814  -17.7296   21.9585 C   0  0  0  0  0  0
  -30.1086  -20.5830   20.3377 N   0  0  0  0  0  0
  -30.4400  -21.8320   20.4899 N   0  0  0  0  0  0
  -29.6039  -22.3665   21.4142 N   0  0  0  0  0  0
  -29.9437  -15.4230   21.1664 N   0  0  0  0  0  0
  -31.4739  -12.4145   19.1204 H   0  0  0  0  0  0
  -30.3400  -11.2852   19.8044 H   0  0  0  0  0  0
  -29.7340  -11.7963   17.4187 H   0  0  0  0  0  0
  -29.6642  -13.5042   17.7841 H   0  0  0  0  0  0
  -27.8182  -11.3150   18.7990 H   0  0  0  0  0  0
  -27.3709  -12.6628   17.7885 H   0  0  0  0  0  0
  -27.7202  -14.2505   19.6012 H   0  0  0  0  0  0
  -28.6831  -11.9054   21.3128 H   0  0  0  0  0  0
  -28.4618  -13.5222   21.8979 H   0  0  0  0  0  0
  -25.2757   -9.5669   22.4742 H   0  0  0  0  0  0
  -23.9984   -7.4621   22.7484 H   0  0  0  0  0  0
  -21.0810   -8.8764   19.8959 H   0  0  0  0  0  0
  -22.3686  -10.9653   19.6151 H   0  0  0  0  0  0
  -21.2025   -7.6150   23.9724 H   0  0  0  0  0  0
  -21.1474   -6.0517   25.9086 H   0  0  0  0  0  0
  -22.0607   -2.7597   23.2858 H   0  0  0  0  0  0
  -22.4119  -11.9882   22.4762 H   0  0  0  0  0  0
  -21.1144  -13.1275   22.2635 H   0  0  0  0  0  0
  -24.6775  -15.8466   20.5338 H   0  0  0  0  0  0
  -26.2922  -15.6140   20.0902 H   0  0  0  0  0  0
  -26.7101  -32.5546   23.1160 H   0  0  0  0  0  0
  -25.0077  -33.9792   25.0491 H   0  0  0  0  0  0
  -22.6891  -31.3060   21.4112 H   0  0  0  0  0  0
  -23.3749  -35.9647   23.3313 H   0  0  0  0  0  0
  -24.3580  -36.8911   22.2048 H   0  0  0  0  0  0
  -23.7242  -37.6524   23.6638 H   0  0  0  0  0  0
  -26.0362  -31.6076   20.5930 H   0  0  0  0  0  0
  -26.8156  -30.8939   21.9769 H   0  0  0  0  0  0
  -28.1067  -29.1320   21.1343 H   0  0  0  0  0  0
  -26.0683  -25.9623   19.0348 H   0  0  0  0  0  0
  -23.9805  -27.2750   19.0583 H   0  0  0  0  0  0
  -23.7153  -30.5911   19.4048 H   0  0  0  0  0  0
  -22.7330  -29.2351   19.8742 H   0  0  0  0  0  0
  -25.1289  -36.1977   25.0831 H   0  0  0  0  0  0
  -20.9947  -28.3210   24.1454 H   0  0  0  0  0  0
  -20.5664  -26.2259   23.3595 H   0  0  0  0  0  0
  -21.6632  -26.7448   22.1212 H   0  0  0  0  0  0
  -19.6903  -25.6305   21.1226 H   0  0  0  0  0  0
  -19.6685  -27.3207   20.6748 H   0  0  0  0  0  0
  -17.4192  -26.6681   21.4017 H   0  0  0  0  0  0
  -18.0319  -26.0057   22.9006 H   0  0  0  0  0  0
  -19.7926  -30.7252   24.2293 H   0  0  0  0  0  0
  -17.5008  -31.6266   24.5161 H   0  0  0  0  0  0
  -15.5345  -30.2991   23.7645 H   0  0  0  0  0  0
  -15.8658  -28.0824   22.7061 H   0  0  0  0  0  0
  -24.5919  -30.7049   25.7818 H   0  0  0  0  0  0
  -24.8942  -32.2858   26.4933 H   0  0  0  0  0  0
  -25.8118  -30.8870   27.0217 H   0  0  0  0  0  0
  -26.2813  -29.6820   24.1138 H   0  0  0  0  0  0
  -27.4085  -29.7275   25.4508 H   0  0  0  0  0  0
  -27.8639  -30.4376   23.9185 H   0  0  0  0  0  0
  -27.2670  -33.3609   26.2077 H   0  0  0  0  0  0
  -28.3844  -32.6892   25.0292 H   0  0  0  0  0  0
  -28.0728  -31.8424   26.5370 H   0  0  0  0  0  0
  -28.2614  -38.0096   24.7510 H   0  0  0  0  0  0
  -28.1068  -36.2631   24.6299 H   0  0  0  0  0  0
  -27.2303  -37.1472   25.8871 H   0  0  0  0  0  0
  -20.9283  -29.8736   21.6957 H   0  0  0  0  0  0
  -26.0189  -38.2878   24.1406 H   0  0  0  0  0  0
  -27.9678  -21.6143   22.6332 H   0  0  0  0  0  0
  -26.9380  -19.3081   19.6875 H   0  0  0  0  0  0
  -27.1989  -17.5950   19.9697 H   0  0  0  0  0  0
  -28.4009  -18.5485   19.0944 H   0  0  0  0  0  0
  -27.5193  -17.4122   23.3740 H   0  0  0  0  0  0
  -28.6144  -16.0643   23.3010 H   0  0  0  0  0  0
  -27.4670  -16.3383   21.9925 H   0  0  0  0  0  0
  -30.6158  -17.4768   23.5932 H   0  0  0  0  0  0
  -29.5617  -18.8714   23.7942 H   0  0  0  0  0  0
  -30.8923  -18.9251   22.6466 H   0  0  0  0  0  0
  -30.2942  -24.6146   19.9699 H   0  0  0  0  0  0
  -30.2856  -25.7085   21.3153 H   0  0  0  0  0  0
  -29.1274  -23.9094   22.7355 H   0  0  0  0  0  0
  -30.8142  -23.7286   22.3700 H   0  0  0  0  0  0
  -31.1223  -17.1635   21.0497 H   0  0  0  0  0  0
  -29.8122  -17.0680   19.9360 H   0  0  0  0  0  0
  -27.6934  -25.3146   21.4148 H   0  0  0  0  0  0
  -27.8821  -24.7288   19.7687 H   0  0  0  0  0  0
  -27.5393  -19.0826   21.9192 H   0  0  0  0  0  0
  -29.0803  -15.1141   21.5856 H   0  0  0  0  0  0
  1 25  1  0  0  0
  1 30  2  0  0  0
  1 85  1  0  0  0
  2  3  1  0  0  0
  2 25  1  0  0  0
  2 86  1  0  0  0
  2 87  1  0  0  0
  3  4  1  0  0  0
  3 88  1  0  0  0
  3 89  1  0  0  0
  4  5  1  0  0  0
  4 90  1  0  0  0
  4 91  1  0  0  0
  5  6  1  0  0  0
  5 26  1  0  0  0
  5 92  1  0  0  0
  6 25  1  0  0  0
  6 93  1  0  0  0
  6 94  1  0  0  0
  7  8  2  0  0  0
  7 26  1  0  0  0
  7 29  1  0  0  0
  8  9  1  0  0  0
  8 22  1  0  0  0
  9 10  1  0  0  0
  9 27  2  0  0  0
 10 11  2  0  0  0
 10 15  1  0  0  0
 11 12  1  0  0  0
 11 95  1  0  0  0
 12 13  2  0  0  0
 12 96  1  0  0  0
 13 14  1  0  0  0
 13 31  1  0  0  0
 14 15  2  0  0  0
 14 97  1  0  0  0
 15 98  1  0  0  0
 16 17  2  0  0  0
 16 21  1  0  0  0
 16 31  1  0  0  0
 17 18  1  0  0  0
 17 99  1  0  0  0
 18 19  2  0  0  0
 18100  1  0  0  0
 19 20  1  0  0  0
 19 24  1  0  0  0
 20 21  2  0  0  0
 20101  1  0  0  0
 21 23  1  0  0  0
 22 28  1  0  0  0
 22 32  2  0  0  0
 26 27  1  0  0  0
 28102  1  0  0  0
 28103  1  0  0  0
 29104  1  0  0  0
 29105  1  0  0  0
 33 34  1  0  0  0
 33 66  1  0  0  0
 33 70  2  0  0  0
 34 36  1  0  0  0
 34 59  1  0  0  0
 34106  1  0  0  0
 35 44  2  0  0  0
 35 45  1  0  0  0
 35 68  1  0  0  0
 36 56  1  0  0  0
 36107  1  0  0  0
 37 39  1  0  0  0
 37 47  1  0  0  0
 37 66  1  0  0  0
 37108  1  0  0  0
 38 43  2  0  0  0
 38 46  1  0  0  0
 38 47  1  0  0  0
 39 64  1  0  0  0
 39 67  2  0  0  0
 40 52  1  0  0  0
 40 53  2  0  0  0
 40 58  1  0  0  0
 41109  1  0  0  0
 41110  1  0  0  0
 41111  1  0  0  0
 41 48  1  0  0  0
 42 43  1  0  0  0
 42 66  1  0  0  0
 42112  1  0  0  0
 42113  1  0  0  0
 43 44  1  0  0  0
 44114  1  0  0  0
 45 46  2  0  0  0
 45115  1  0  0  0
 46116  1  0  0  0
 47117  1  0  0  0
 47118  1  0  0  0
 48 56  1  0  0  0
 48 65  1  0  0  0
 48119  1  0  0  0
 49 50  1  0  0  0
 49 53  1  0  0  0
 49 64  1  0  0  0
 49120  1  0  0  0
 50 51  1  0  0  0
 50121  1  0  0  0
 50122  1  0  0  0
 51 52  1  0  0  0
 51123  1  0  0  0
 51124  1  0  0  0
 52125  1  0  0  0
 52126  1  0  0  0
 53 54  1  0  0  0
 54 55  2  0  0  0
 54127  1  0  0  0
 55 57  1  0  0  0
 55128  1  0  0  0
 56 69  2  0  0  0
 57 58  2  0  0  0
 57129  1  0  0  0
 58130  1  0  0  0
 59 60  1  0  0  0
 59 61  1  0  0  0
 59 62  1  0  0  0
 60131  1  0  0  0
 60132  1  0  0  0
 60133  1  0  0  0
 61134  1  0  0  0
 61135  1  0  0  0
 61136  1  0  0  0
 62137  1  0  0  0
 62138  1  0  0  0
 62139  1  0  0  0
 63 65  1  0  0  0
 63140  1  0  0  0
 63141  1  0  0  0
 63142  1  0  0  0
 64143  1  0  0  0
 65144  1  0  0  0
 68 79  1  0  0  0
 71 72  2  0  0  0
 71 84  1  0  0  0
 71145  1  0  0  0
 72 80  1  0  0  0
 72 82  1  0  0  0
 73146  1  0  0  0
 73147  1  0  0  0
 73148  1  0  0  0
 73 80  1  0  0  0
 74149  1  0  0  0
 74150  1  0  0  0
 74151  1  0  0  0
 74 81  1  0  0  0
 75 81  1  0  0  0
 75152  1  0  0  0
 75153  1  0  0  0
 75154  1  0  0  0
 76 77  1  0  0  0
 76 79  1  0  0  0
 76155  1  0  0  0
 76156  1  0  0  0
 77 84  1  0  0  0
 77157  1  0  0  0
 77158  1  0  0  0
 78 81  1  0  0  0
 78 85  1  0  0  0
 78159  1  0  0  0
 78160  1  0  0  0
 79161  1  0  0  0
 79162  1  0  0  0
 80 81  1  0  0  0
 80163  1  0  0  0
 82 83  2  0  0  0
 83 84  1  0  0  0
 85164  1  0  0  0
M  ISO  4   1 100  68 101  79 101  85 100
M  END
> <chiral flag>
0

> <version>
0

> <s_m_source_file>
/data/baiqing/PycharmProjects/Reinvent-master-3.2/result/LINK_invent/BTK/process_docking_weight1_custom_sum_contain_oxygen_bond_distance_aromatic_linkinvent_7_9_3/rearranged_h_0072.sdf

> <i_m_source_file_index>
49

> <r_mmod_Potential_Energy-OPLS-2005>
-101.666618347168

> <r_mmod_Stretch_Energy-OPLS-2005>
40.5656776428223

> <r_mmod_Bend_Energy-OPLS-2005>
114.580680847168

> <r_mmod_Torsional_Energy-OPLS-2005>
246.31201171875

> <r_mmod_Improper_Torsional_Energy-OPLS-2005>
5.10808849334717

> <r_mmod_Van_der_Waal_Energy-OPLS-2005>
132.270385742188

> <r_mmod_Electrostatic_Energy-OPLS-2005>
-433.893737792969

> <r_mmod_Solvation_Energy-OPLS-2005>
-217.198181152344

> <b_mmod_Minimization_Converged-OPLS-2005>
0

> <r_mmod_RMS_Derivative-OPLS-2005>
1.36395990848541

$$$$
50
                    3D
 Structure written by MMmdl.
158166  0  0  1  0            999 V2000
  -30.5074  -14.9667   20.3929 C   0  0  0  0  0  0
  -30.4681  -12.5918   19.4871 C   0  0  0  0  0  0
  -29.5262  -12.5180   18.2571 C   0  0  0  0  0  0
  -28.0520  -12.3135   18.6716 C   0  0  0  0  0  0
  -27.6349  -13.2098   19.8654 C   0  0  2  0  0  0
  -28.7061  -13.1739   20.9785 C   0  0  0  0  0  0
  -25.2451  -13.8062   20.5690 C   0  0  0  0  0  0
  -24.1760  -13.0348   20.9248 C   0  0  0  0  0  0
  -24.6353  -11.6829   20.8805 C   0  0  0  0  0  0
  -23.9030  -10.4236   21.0438 C   0  0  0  0  0  0
  -24.3591   -9.4158   21.9213 C   0  0  0  0  0  0
  -23.6269   -8.2196   22.0764 C   0  0  0  0  0  0
  -22.4254   -8.0247   21.3544 C   0  0  0  0  0  0
  -21.9888   -9.0220   20.4647 C   0  0  0  0  0  0
  -22.7212  -10.2097   20.3072 C   0  0  0  0  0  0
  -21.6840   -6.0720   22.5284 C   0  0  0  0  0  0
  -21.4007   -6.5633   23.8213 C   0  0  0  0  0  0
  -21.3655   -5.6789   24.9174 C   0  0  0  0  0  0
  -21.6043   -4.3052   24.7227 C   0  0  0  0  0  0
  -21.8821   -3.8141   23.4350 C   0  0  0  0  0  0
  -21.9188   -4.6953   22.3404 C   0  0  0  0  0  0
  -22.7787  -13.5160   21.1878 C   0  0  0  0  0  0
  -22.1659   -4.2140   21.0981 F   0  0  0  0  0  0
  -21.5623   -3.4540   25.7743 F   0  0  0  0  0  0
  -29.9704  -13.6661   20.3950 N   0  0  0  0  0  0
  -26.2912  -12.9229   20.3441 N   0  0  0  0  0  0
  -25.9293  -11.6403   20.5889 N   0  0  0  0  0  0
  -22.0432  -12.8178   22.0445 N   0  0  0  0  0  0
  -25.3973  -15.1782   20.3896 N   0  0  0  0  0  0
  -31.7207  -15.0272   20.1532 O   0  0  0  0  0  0
  -21.6611   -6.8855   21.4243 O   0  0  0  0  0  0
  -22.3492  -14.5472   20.6711 O   0  0  0  0  0  0
  -24.6407  -31.8465   23.1897 C   0  0  0  0  0  0
  -25.9182  -32.4713   23.8285 C   0  0  1  0  0  0
  -27.2335  -27.1716   20.1463 C   0  0  0  0  0  0
  -25.5935  -33.8518   24.2206 N   0  0  0  0  0  0
  -23.4440  -30.4648   21.5339 C   0  0  2  0  0  0
  -24.8968  -28.8950   20.1108 C   0  0  0  0  0  0
  -22.7557  -29.4554   22.4861 C   0  0  0  0  0  0
  -18.0304  -28.1397   22.8478 C   0  0  0  0  0  0
  -24.1487  -36.7260   23.2643 C   0  0  0  0  0  0
  -25.9969  -30.7318   21.3827 C   0  0  0  0  0  0
  -26.0717  -29.3452   20.7260 C   0  0  0  0  0  0
  -27.2401  -28.4994   20.7266 C   0  0  0  0  0  0
  -26.0304  -26.8136   19.4957 C   0  0  0  0  0  0
  -24.8869  -27.6411   19.4815 C   0  0  0  0  0  0
  -23.6704  -29.7922   20.1534 C   0  0  0  0  0  0
  -25.4117  -36.3044   24.0322 C   0  0  1  0  0  0
  -20.5916  -28.3717   23.1235 C   0  0  2  0  0  0
  -20.6779  -26.9422   22.5399 C   0  0  0  0  0  0
  -19.5753  -26.6385   21.5206 C   0  0  0  0  0  0
  -18.1940  -26.7937   22.1626 C   0  0  0  0  0  0
  -19.1560  -28.8878   23.2852 C   0  0  0  0  0  0
  -18.9477  -30.1472   23.8881 C   0  0  0  0  0  0
  -17.6474  -30.6593   24.0564 C   0  0  0  0  0  0
  -25.9065  -34.9416   23.5074 C   0  0  0  0  0  0
  -16.5365  -29.9088   23.6335 C   0  0  0  0  0  0
  -16.7289  -28.6507   23.0356 C   0  0  0  0  0  0
  -26.4519  -31.6573   25.0713 C   0  0  0  0  0  0
  -25.3710  -31.3742   26.1410 C   0  0  0  0  0  0
  -27.0380  -30.2977   24.6262 C   0  0  0  0  0  0
  -27.6061  -32.4326   25.7494 C   0  0  0  0  0  0
  -27.5574  -37.1784   24.8468 C   0  0  0  0  0  0
  -21.4252  -29.3047   22.3612 N   0  0  0  0  0  0
  -26.4284  -37.3751   23.9415 N   0  0  0  0  0  0
  -24.7135  -31.0345   22.0916 N   0  0  0  0  0  0
  -23.4209  -28.8104   23.3007 O   0  0  0  0  0  0
  -28.3078  -26.2181   20.2197 O   0  0  0  0  0  0
  -26.5652  -34.8911   22.4652 O   0  0  0  0  0  0
  -23.5528  -32.1321   23.7129 O   0  0  0  0  0  0
  -29.1952  -19.1183   20.2358 C   0  0  0  0  0  0
  -29.6167  -20.5066   20.3808 C   0  0  0  0  0  0
  -30.0772  -17.9676   20.4842 C   0  0  0  0  0  0
  -31.6666  -19.5900   20.9732 C   0  0  0  0  0  0
  -33.0938  -19.8675   21.3925 C   0  0  0  0  0  0
  -28.8728  -16.3900   19.0019 C   0  0  0  0  0  0
  -28.5888  -16.3077   21.5620 C   0  0  0  0  0  0
  -28.7127  -21.8388   20.0815 C   0  0  0  0  0  0
  -29.1002  -23.4364   20.3825 C   0  0  0  0  0  0
  -28.0678  -24.7040   20.0263 C   0  0  0  0  0  0
  -29.5865  -16.3907   20.3821 C   0  0  0  0  0  0
  -30.9025  -20.6726   20.7470 N   0  0  0  0  0  0
  -31.3265  -18.2933   20.8788 N   0  0  0  0  0  0
  -31.4910  -12.7770   19.1562 H   0  0  0  0  0  0
  -30.5025  -11.6318   20.0037 H   0  0  0  0  0  0
  -29.8384  -11.7067   17.5985 H   0  0  0  0  0  0
  -29.6207  -13.4306   17.6695 H   0  0  0  0  0  0
  -27.9357  -11.2659   18.9514 H   0  0  0  0  0  0
  -27.3900  -12.4744   17.8210 H   0  0  0  0  0  0
  -27.5737  -14.2148   19.4795 H   0  0  0  0  0  0
  -28.8219  -12.1512   21.3407 H   0  0  0  0  0  0
  -28.4249  -13.7211   21.8732 H   0  0  0  0  0  0
  -25.2734   -9.5629   22.4796 H   0  0  0  0  0  0
  -23.9972   -7.4581   22.7482 H   0  0  0  0  0  0
  -21.0826   -8.8741   19.8948 H   0  0  0  0  0  0
  -22.3686  -10.9645   19.6184 H   0  0  0  0  0  0
  -21.2003   -7.6141   23.9717 H   0  0  0  0  0  0
  -21.1477   -6.0515   25.9078 H   0  0  0  0  0  0
  -22.0604   -2.7605   23.2851 H   0  0  0  0  0  0
  -22.4042  -11.9827   22.4819 H   0  0  0  0  0  0
  -21.1064  -13.1224   22.2679 H   0  0  0  0  0  0
  -24.6111  -15.8125   20.4782 H   0  0  0  0  0  0
  -26.2282  -15.6261   20.0292 H   0  0  0  0  0  0
  -26.7252  -32.5341   23.1025 H   0  0  0  0  0  0
  -25.0057  -33.9635   25.0336 H   0  0  0  0  0  0
  -22.7450  -31.2894   21.3788 H   0  0  0  0  0  0
  -23.3755  -35.9584   23.3295 H   0  0  0  0  0  0
  -24.3573  -36.8896   22.2060 H   0  0  0  0  0  0
  -23.7234  -37.6452   23.6680 H   0  0  0  0  0  0
  -26.1443  -31.4861   20.6086 H   0  0  0  0  0  0
  -26.8698  -30.7857   22.0213 H   0  0  0  0  0  0
  -28.1361  -28.8402   21.2264 H   0  0  0  0  0  0
  -25.9410  -25.8546   19.0082 H   0  0  0  0  0  0
  -23.9899  -27.2899   18.9903 H   0  0  0  0  0  0
  -23.8043  -30.5657   19.3959 H   0  0  0  0  0  0
  -22.7868  -29.2302   19.8458 H   0  0  0  0  0  0
  -25.1304  -36.1877   25.0814 H   0  0  0  0  0  0
  -21.0012  -28.3306   24.1353 H   0  0  0  0  0  0
  -20.5653  -26.2338   23.3621 H   0  0  0  0  0  0
  -21.6648  -26.7415   22.1211 H   0  0  0  0  0  0
  -19.6907  -25.6291   21.1251 H   0  0  0  0  0  0
  -19.6688  -27.3183   20.6727 H   0  0  0  0  0  0
  -17.4203  -26.6681   21.4038 H   0  0  0  0  0  0
  -18.0345  -26.0087   22.9032 H   0  0  0  0  0  0
  -19.7951  -30.7294   24.2245 H   0  0  0  0  0  0
  -17.5024  -31.6271   24.5166 H   0  0  0  0  0  0
  -15.5362  -30.2984   23.7661 H   0  0  0  0  0  0
  -15.8692  -28.0817   22.7075 H   0  0  0  0  0  0
  -24.5905  -30.7077   25.7727 H   0  0  0  0  0  0
  -24.8879  -32.2912   26.4790 H   0  0  0  0  0  0
  -25.7996  -30.8950   27.0219 H   0  0  0  0  0  0
  -26.2988  -29.6706   24.1266 H   0  0  0  0  0  0
  -27.4009  -29.7271   25.4821 H   0  0  0  0  0  0
  -27.8890  -30.4236   23.9564 H   0  0  0  0  0  0
  -27.2674  -33.3648   26.2027 H   0  0  0  0  0  0
  -28.3896  -32.6843   25.0333 H   0  0  0  0  0  0
  -28.0703  -31.8475   26.5444 H   0  0  0  0  0  0
  -28.2589  -38.0085   24.7511 H   0  0  0  0  0  0
  -28.1071  -36.2611   24.6300 H   0  0  0  0  0  0
  -27.2290  -37.1441   25.8871 H   0  0  0  0  0  0
  -20.9455  -29.8777   21.6811 H   0  0  0  0  0  0
  -26.0153  -38.2821   24.1416 H   0  0  0  0  0  0
  -28.1727  -18.9311   19.9357 H   0  0  0  0  0  0
  -33.2194  -19.6624   22.4549 H   0  0  0  0  0  0
  -33.3675  -20.9076   21.2131 H   0  0  0  0  0  0
  -33.7908  -19.2411   20.8352 H   0  0  0  0  0  0
  -28.8855  -15.4351   18.4872 H   0  0  0  0  0  0
  -29.3785  -17.0589   18.3048 H   0  0  0  0  0  0
  -27.8391  -16.7277   19.0736 H   0  0  0  0  0  0
  -27.7800  -15.6134   21.3868 H   0  0  0  0  0  0
  -28.0833  -17.2539   21.7519 H   0  0  0  0  0  0
  -29.0968  -16.0391   22.4893 H   0  0  0  0  0  0
  -27.7687  -21.6528   20.5930 H   0  0  0  0  0  0
  -28.4611  -21.7756   19.0234 H   0  0  0  0  0  0
  -30.0411  -23.6343   19.8689 H   0  0  0  0  0  0
  -29.3395  -23.5054   21.4433 H   0  0  0  0  0  0
  -27.1431  -24.4794   20.5592 H   0  0  0  0  0  0
  -27.8205  -24.5855   18.9710 H   0  0  0  0  0  0
  1 25  1  0  0  0
  1 30  2  0  0  0
  1 81  1  0  0  0
  2  3  1  0  0  0
  2 25  1  0  0  0
  2 84  1  0  0  0
  2 85  1  0  0  0
  3  4  1  0  0  0
  3 86  1  0  0  0
  3 87  1  0  0  0
  4  5  1  0  0  0
  4 88  1  0  0  0
  4 89  1  0  0  0
  5  6  1  0  0  0
  5 26  1  0  0  0
  5 90  1  0  0  0
  6 25  1  0  0  0
  6 91  1  0  0  0
  6 92  1  0  0  0
  7  8  2  0  0  0
  7 26  1  0  0  0
  7 29  1  0  0  0
  8  9  1  0  0  0
  8 22  1  0  0  0
  9 10  1  0  0  0
  9 27  2  0  0  0
 10 11  2  0  0  0
 10 15  1  0  0  0
 11 12  1  0  0  0
 11 93  1  0  0  0
 12 13  2  0  0  0
 12 94  1  0  0  0
 13 14  1  0  0  0
 13 31  1  0  0  0
 14 15  2  0  0  0
 14 95  1  0  0  0
 15 96  1  0  0  0
 16 17  2  0  0  0
 16 21  1  0  0  0
 16 31  1  0  0  0
 17 18  1  0  0  0
 17 97  1  0  0  0
 18 19  2  0  0  0
 18 98  1  0  0  0
 19 20  1  0  0  0
 19 24  1  0  0  0
 20 21  2  0  0  0
 20 99  1  0  0  0
 21 23  1  0  0  0
 22 28  1  0  0  0
 22 32  2  0  0  0
 26 27  1  0  0  0
 28100  1  0  0  0
 28101  1  0  0  0
 29102  1  0  0  0
 29103  1  0  0  0
 33 34  1  0  0  0
 33 66  1  0  0  0
 33 70  2  0  0  0
 34 36  1  0  0  0
 34 59  1  0  0  0
 34104  1  0  0  0
 35 44  2  0  0  0
 35 45  1  0  0  0
 35 68  1  0  0  0
 36 56  1  0  0  0
 36105  1  0  0  0
 37 39  1  0  0  0
 37 47  1  0  0  0
 37 66  1  0  0  0
 37106  1  0  0  0
 38 43  2  0  0  0
 38 46  1  0  0  0
 38 47  1  0  0  0
 39 64  1  0  0  0
 39 67  2  0  0  0
 40 52  1  0  0  0
 40 53  2  0  0  0
 40 58  1  0  0  0
 41107  1  0  0  0
 41108  1  0  0  0
 41109  1  0  0  0
 41 48  1  0  0  0
 42 43  1  0  0  0
 42 66  1  0  0  0
 42110  1  0  0  0
 42111  1  0  0  0
 43 44  1  0  0  0
 44112  1  0  0  0
 45 46  2  0  0  0
 45113  1  0  0  0
 46114  1  0  0  0
 47115  1  0  0  0
 47116  1  0  0  0
 48 56  1  0  0  0
 48 65  1  0  0  0
 48117  1  0  0  0
 49 50  1  0  0  0
 49 53  1  0  0  0
 49 64  1  0  0  0
 49118  1  0  0  0
 50 51  1  0  0  0
 50119  1  0  0  0
 50120  1  0  0  0
 51 52  1  0  0  0
 51121  1  0  0  0
 51122  1  0  0  0
 52123  1  0  0  0
 52124  1  0  0  0
 53 54  1  0  0  0
 54 55  2  0  0  0
 54125  1  0  0  0
 55 57  1  0  0  0
 55126  1  0  0  0
 56 69  2  0  0  0
 57 58  2  0  0  0
 57127  1  0  0  0
 58128  1  0  0  0
 59 60  1  0  0  0
 59 61  1  0  0  0
 59 62  1  0  0  0
 60129  1  0  0  0
 60130  1  0  0  0
 60131  1  0  0  0
 61132  1  0  0  0
 61133  1  0  0  0
 61134  1  0  0  0
 62135  1  0  0  0
 62136  1  0  0  0
 62137  1  0  0  0
 63 65  1  0  0  0
 63138  1  0  0  0
 63139  1  0  0  0
 63140  1  0  0  0
 64141  1  0  0  0
 65142  1  0  0  0
 68 80  1  0  0  0
 71 72  2  0  0  0
 71 73  1  0  0  0
 71143  1  0  0  0
 72 78  1  0  0  0
 72 82  1  0  0  0
 73 81  1  0  0  0
 73 83  2  0  0  0
 74 75  1  0  0  0
 74 82  2  0  0  0
 74 83  1  0  0  0
 75144  1  0  0  0
 75145  1  0  0  0
 75146  1  0  0  0
 76147  1  0  0  0
 76148  1  0  0  0
 76149  1  0  0  0
 76 81  1  0  0  0
 77 81  1  0  0  0
 77150  1  0  0  0
 77151  1  0  0  0
 77152  1  0  0  0
 78 79  1  0  0  0
 78153  1  0  0  0
 78154  1  0  0  0
 79 80  1  0  0  0
 79155  1  0  0  0
 79156  1  0  0  0
 80157  1  0  0  0
 80158  1  0  0  0
M  ISO  4   1 100  68 101  80 101  81 100
M  END
> <chiral flag>
0

> <version>
0

> <s_m_source_file>
/data/baiqing/PycharmProjects/Reinvent-master-3.2/result/LINK_invent/BTK/process_docking_weight1_custom_sum_contain_oxygen_bond_distance_aromatic_linkinvent_7_9_3/rearranged_h_0072.sdf

> <i_m_source_file_index>
50

> <r_mmod_Potential_Energy-OPLS-2005>
154.404876708984

> <r_mmod_Stretch_Energy-OPLS-2005>
242.433059692383

> <r_mmod_Bend_Energy-OPLS-2005>
273.782989501953

> <r_mmod_Torsional_Energy-OPLS-2005>
217.349884033203

> <r_mmod_Improper_Torsional_Energy-OPLS-2005>
6.8423056602478

> <r_mmod_Van_der_Waal_Energy-OPLS-2005>
157.258224487305

> <r_mmod_Electrostatic_Energy-OPLS-2005>
-688.1240234375

> <r_mmod_Solvation_Energy-OPLS-2005>
-231.248687744141

> <b_mmod_Minimization_Converged-OPLS-2005>
0

> <r_mmod_RMS_Derivative-OPLS-2005>
1.04321491718292

$$$$
51
                    3D
 Structure written by MMmdl.
170178  0  0  1  0            999 V2000
  -30.6428  -14.9179   20.2687 C   0  0  0  0  0  0
  -30.4433  -12.5629   19.4206 C   0  0  0  0  0  0
  -29.4842  -12.3625   18.2277 C   0  0  0  0  0  0
  -28.0204  -12.2257   18.6859 C   0  0  0  0  0  0
  -27.6151  -13.2114   19.8130 C   0  0  2  0  0  0
  -28.6970  -13.3396   20.9019 C   0  0  0  0  0  0
  -25.2506  -13.8134   20.5824 C   0  0  0  0  0  0
  -24.1777  -13.0414   20.9230 C   0  0  0  0  0  0
  -24.6329  -11.6863   20.8801 C   0  0  0  0  0  0
  -23.9020  -10.4254   21.0397 C   0  0  0  0  0  0
  -24.3609   -9.4175   21.9147 C   0  0  0  0  0  0
  -23.6286   -8.2226   22.0747 C   0  0  0  0  0  0
  -22.4266   -8.0264   21.3554 C   0  0  0  0  0  0
  -21.9894   -9.0215   20.4647 C   0  0  0  0  0  0
  -22.7210  -10.2085   20.3036 C   0  0  0  0  0  0
  -21.6861   -6.0715   22.5254 C   0  0  0  0  0  0
  -21.4030   -6.5625   23.8179 C   0  0  0  0  0  0
  -21.3662   -5.6787   24.9144 C   0  0  0  0  0  0
  -21.6043   -4.3046   24.7205 C   0  0  0  0  0  0
  -21.8838   -3.8135   23.4327 C   0  0  0  0  0  0
  -21.9202   -4.6946   22.3379 C   0  0  0  0  0  0
  -22.7795  -13.5183   21.1784 C   0  0  0  0  0  0
  -22.1673   -4.2125   21.0966 F   0  0  0  0  0  0
  -21.5607   -3.4534   25.7718 F   0  0  0  0  0  0
  -29.9530  -13.7087   20.2291 N   0  0  0  0  0  0
  -26.2882  -12.9274   20.3393 N   0  0  0  0  0  0
  -25.9266  -11.6446   20.5925 N   0  0  0  0  0  0
  -22.0493  -12.8225   22.0394 N   0  0  0  0  0  0
  -25.4265  -15.1882   20.4266 N   0  0  0  0  0  0
  -31.8516  -14.7934   20.4722 O   0  0  0  0  0  0
  -21.6657   -6.8863   21.4225 O   0  0  0  0  0  0
  -22.3479  -14.5444   20.6523 O   0  0  0  0  0  0
  -24.6350  -31.8468   23.1899 C   0  0  0  0  0  0
  -25.9133  -32.4717   23.8286 C   0  0  1  0  0  0
  -27.2471  -27.2012   20.1942 C   0  0  0  0  0  0
  -25.5921  -33.8523   24.2216 N   0  0  0  0  0  0
  -23.4354  -30.4628   21.5313 C   0  0  2  0  0  0
  -24.8955  -28.8796   20.1276 C   0  0  0  0  0  0
  -22.7512  -29.4563   22.4873 C   0  0  0  0  0  0
  -18.0295  -28.1371   22.8462 C   0  0  0  0  0  0
  -24.1478  -36.7283   23.2640 C   0  0  0  0  0  0
  -25.9820  -30.7468   21.3735 C   0  0  0  0  0  0
  -26.0623  -29.3547   20.7406 C   0  0  0  0  0  0
  -27.2412  -28.5320   20.7540 C   0  0  0  0  0  0
  -26.0579  -26.7990   19.5535 C   0  0  0  0  0  0
  -24.9000  -27.6115   19.5216 C   0  0  0  0  0  0
  -23.6637  -29.7720   20.1566 C   0  0  0  0  0  0
  -25.4103  -36.3062   24.0330 C   0  0  1  0  0  0
  -20.5896  -28.3694   23.1246 C   0  0  2  0  0  0
  -20.6781  -26.9404   22.5393 C   0  0  0  0  0  0
  -19.5762  -26.6358   21.5188 C   0  0  0  0  0  0
  -18.1941  -26.7911   22.1599 C   0  0  0  0  0  0
  -19.1551  -28.8848   23.2843 C   0  0  0  0  0  0
  -18.9478  -30.1448   23.8851 C   0  0  0  0  0  0
  -17.6479  -30.6572   24.0539 C   0  0  0  0  0  0
  -25.9039  -34.9423   23.5071 C   0  0  0  0  0  0
  -16.5366  -29.9055   23.6334 C   0  0  0  0  0  0
  -16.7284  -28.6475   23.0351 C   0  0  0  0  0  0
  -26.4504  -31.6556   25.0677 C   0  0  0  0  0  0
  -25.3733  -31.3741   26.1409 C   0  0  0  0  0  0
  -27.0348  -30.2966   24.6171 C   0  0  0  0  0  0
  -27.6052  -32.4308   25.7448 C   0  0  0  0  0  0
  -27.5567  -37.1794   24.8465 C   0  0  0  0  0  0
  -21.4208  -29.3036   22.3634 N   0  0  0  0  0  0
  -26.4274  -37.3770   23.9417 N   0  0  0  0  0  0
  -24.7032  -31.0396   22.0886 N   0  0  0  0  0  0
  -23.4181  -28.8144   23.3035 O   0  0  0  0  0  0
  -28.3721  -26.3243   20.1481 O   0  0  0  0  0  0
  -26.5617  -34.8924   22.4645 O   0  0  0  0  0  0
  -23.5499  -32.1310   23.7189 O   0  0  0  0  0  0
  -28.6185  -18.6173   19.4859 C   0  0  0  0  0  0
  -30.1021  -19.7267   21.4181 C   0  0  0  0  0  0
  -29.1657  -20.5975   20.7352 C   0  0  0  0  0  0
  -29.6347  -17.7543   20.0878 C   0  0  0  0  0  0
  -27.6300  -18.1840   18.4140 C   0  0  0  0  0  0
  -32.2220  -20.8093   22.3512 C   0  0  0  0  0  0
  -29.5251  -15.8904   18.1656 C   0  0  0  0  0  0
  -31.5780  -16.8382   18.8320 C   0  0  0  0  0  0
  -30.0452  -25.2107   21.3294 C   0  0  0  0  0  0
  -27.7368  -25.0958   22.2199 C   0  0  0  0  0  0
  -30.8598  -20.1813   22.6606 C   0  0  0  0  0  0
  -28.7752  -22.1203   21.2002 C   0  0  0  0  0  0
  -28.5011  -23.4761   20.2756 C   0  0  0  0  0  0
  -30.2365  -16.3342   19.4626 C   0  0  0  0  0  0
  -28.5677  -25.0145   20.9242 C   0  0  0  0  0  0
  -28.4097  -19.9539   19.8034 N   0  0  0  0  0  0
  -30.3444  -18.3968   21.0762 N   0  0  0  0  0  0
  -31.4504  -12.7410   19.0371 H   0  0  0  0  0  0
  -30.5075  -11.6598   20.0267 H   0  0  0  0  0  0
  -29.7649  -11.4583   17.6871 H   0  0  0  0  0  0
  -29.5827  -13.1559   17.4953 H   0  0  0  0  0  0
  -27.9097  -11.2031   19.0512 H   0  0  0  0  0  0
  -27.3370  -12.3099   17.8384 H   0  0  0  0  0  0
  -27.5155  -14.1770   19.3418 H   0  0  0  0  0  0
  -28.8111  -12.4038   21.4502 H   0  0  0  0  0  0
  -28.4226  -14.1079   21.6262 H   0  0  0  0  0  0
  -25.2757   -9.5655   22.4695 H   0  0  0  0  0  0
  -23.9992   -7.4643   22.7475 H   0  0  0  0  0  0
  -21.0819   -8.8706   19.8963 H   0  0  0  0  0  0
  -22.3646  -10.9618   19.6139 H   0  0  0  0  0  0
  -21.2053   -7.6136   23.9663 H   0  0  0  0  0  0
  -21.1459   -6.0522   25.9039 H   0  0  0  0  0  0
  -22.0628   -2.7597   23.2825 H   0  0  0  0  0  0
  -22.4190  -11.9944   22.4833 H   0  0  0  0  0  0
  -21.1061  -13.1162   22.2531 H   0  0  0  0  0  0
  -24.6694  -15.8484   20.5624 H   0  0  0  0  0  0
  -26.2923  -15.6355   20.1615 H   0  0  0  0  0  0
  -26.7188  -32.5372   23.1028 H   0  0  0  0  0  0
  -25.0133  -33.9634   25.0411 H   0  0  0  0  0  0
  -22.7338  -31.2842   21.3681 H   0  0  0  0  0  0
  -23.3742  -35.9609   23.3284 H   0  0  0  0  0  0
  -24.3580  -36.8906   22.2054 H   0  0  0  0  0  0
  -23.7201  -37.6474   23.6672 H   0  0  0  0  0  0
  -26.1099  -31.4924   20.5866 H   0  0  0  0  0  0
  -26.8630  -30.8205   21.9995 H   0  0  0  0  0  0
  -28.1411  -28.8998   21.2259 H   0  0  0  0  0  0
  -26.0247  -25.8272   19.0795 H   0  0  0  0  0  0
  -24.0077  -27.2367   19.0396 H   0  0  0  0  0  0
  -23.7970  -30.5339   19.3884 H   0  0  0  0  0  0
  -22.7839  -29.1998   19.8562 H   0  0  0  0  0  0
  -25.1281  -36.1902   25.0824 H   0  0  0  0  0  0
  -20.9983  -28.3270   24.1372 H   0  0  0  0  0  0
  -20.5649  -26.2305   23.3605 H   0  0  0  0  0  0
  -21.6659  -26.7415   22.1208 H   0  0  0  0  0  0
  -19.6920  -25.6259   21.1232 H   0  0  0  0  0  0
  -19.6695  -27.3150   20.6703 H   0  0  0  0  0  0
  -17.4207  -26.6642   21.4001 H   0  0  0  0  0  0
  -18.0368  -26.0055   22.9004 H   0  0  0  0  0  0
  -19.7963  -30.7270   24.2190 H   0  0  0  0  0  0
  -17.5034  -31.6252   24.5150 H   0  0  0  0  0  0
  -15.5358  -30.2933   23.7679 H   0  0  0  0  0  0
  -15.8683  -28.0761   22.7102 H   0  0  0  0  0  0
  -24.5884  -30.7110   25.7750 H   0  0  0  0  0  0
  -24.8980  -32.2943   26.4828 H   0  0  0  0  0  0
  -25.8058  -30.8916   27.0182 H   0  0  0  0  0  0
  -26.2937  -29.6687   24.1216 H   0  0  0  0  0  0
  -27.4046  -29.7240   25.4681 H   0  0  0  0  0  0
  -27.8801  -30.4217   23.9400 H   0  0  0  0  0  0
  -27.2665  -33.3644   26.1960 H   0  0  0  0  0  0
  -28.3918  -32.6790   25.0304 H   0  0  0  0  0  0
  -28.0660  -31.8455   26.5421 H   0  0  0  0  0  0
  -28.2606  -38.0079   24.7519 H   0  0  0  0  0  0
  -28.1045  -36.2610   24.6287 H   0  0  0  0  0  0
  -27.2298  -37.1437   25.8876 H   0  0  0  0  0  0
  -20.9405  -29.8746   21.6808 H   0  0  0  0  0  0
  -26.0144  -38.2839   24.1441 H   0  0  0  0  0  0
  -28.0898  -18.1468   17.4293 H   0  0  0  0  0  0
  -26.8221  -18.9093   18.3122 H   0  0  0  0  0  0
  -27.1514  -17.2376   18.6588 H   0  0  0  0  0  0
  -32.1269  -21.6685   21.6844 H   0  0  0  0  0  0
  -32.8907  -20.0900   21.8806 H   0  0  0  0  0  0
  -32.7035  -21.1461   23.2698 H   0  0  0  0  0  0
  -29.5195  -16.6746   17.4218 H   0  0  0  0  0  0
  -28.5102  -15.5509   18.3000 H   0  0  0  0  0  0
  -30.0886  -15.1146   17.6568 H   0  0  0  0  0  0
  -32.2920  -17.1886   19.5793 H   0  0  0  0  0  0
  -31.4120  -17.6669   18.1394 H   0  0  0  0  0  0
  -32.0868  -16.0622   18.2563 H   0  0  0  0  0  0
  -30.4160  -24.4096   21.9656 H   0  0  0  0  0  0
  -30.1917  -26.1355   21.8907 H   0  0  0  0  0  0
  -30.6948  -25.2503   20.4530 H   0  0  0  0  0  0
  -27.9862  -24.2836   22.9049 H   0  0  0  0  0  0
  -26.6671  -25.0508   22.0198 H   0  0  0  0  0  0
  -27.9381  -26.0262   22.7564 H   0  0  0  0  0  0
  -31.0173  -19.3123   23.3018 H   0  0  0  0  0  0
  -30.2490  -20.8612   23.2562 H   0  0  0  0  0  0
  -29.5466  -22.4160   21.9065 H   0  0  0  0  0  0
  -27.8898  -22.0025   21.8283 H   0  0  0  0  0  0
  -27.5236  -23.3490   19.8087 H   0  0  0  0  0  0
  -29.2108  -23.4451   19.4491 H   0  0  0  0  0  0
  1 25  1  0  0  0
  1 30  2  0  0  0
  1 84  1  0  0  0
  2  3  1  0  0  0
  2 25  1  0  0  0
  2 88  1  0  0  0
  2 89  1  0  0  0
  3  4  1  0  0  0
  3 90  1  0  0  0
  3 91  1  0  0  0
  4  5  1  0  0  0
  4 92  1  0  0  0
  4 93  1  0  0  0
  5  6  1  0  0  0
  5 26  1  0  0  0
  5 94  1  0  0  0
  6 25  1  0  0  0
  6 95  1  0  0  0
  6 96  1  0  0  0
  7  8  2  0  0  0
  7 26  1  0  0  0
  7 29  1  0  0  0
  8  9  1  0  0  0
  8 22  1  0  0  0
  9 10  1  0  0  0
  9 27  2  0  0  0
 10 11  2  0  0  0
 10 15  1  0  0  0
 11 12  1  0  0  0
 11 97  1  0  0  0
 12 13  2  0  0  0
 12 98  1  0  0  0
 13 14  1  0  0  0
 13 31  1  0  0  0
 14 15  2  0  0  0
 14 99  1  0  0  0
 15100  1  0  0  0
 16 17  2  0  0  0
 16 21  1  0  0  0
 16 31  1  0  0  0
 17 18  1  0  0  0
 17101  1  0  0  0
 18 19  2  0  0  0
 18102  1  0  0  0
 19 20  1  0  0  0
 19 24  1  0  0  0
 20 21  2  0  0  0
 20103  1  0  0  0
 21 23  1  0  0  0
 22 28  1  0  0  0
 22 32  2  0  0  0
 26 27  1  0  0  0
 28104  1  0  0  0
 28105  1  0  0  0
 29106  1  0  0  0
 29107  1  0  0  0
 33 34  1  0  0  0
 33 66  1  0  0  0
 33 70  2  0  0  0
 34 36  1  0  0  0
 34 59  1  0  0  0
 34108  1  0  0  0
 35 44  2  0  0  0
 35 45  1  0  0  0
 35 68  1  0  0  0
 36 56  1  0  0  0
 36109  1  0  0  0
 37 39  1  0  0  0
 37 47  1  0  0  0
 37 66  1  0  0  0
 37110  1  0  0  0
 38 43  2  0  0  0
 38 46  1  0  0  0
 38 47  1  0  0  0
 39 64  1  0  0  0
 39 67  2  0  0  0
 40 52  1  0  0  0
 40 53  2  0  0  0
 40 58  1  0  0  0
 41111  1  0  0  0
 41112  1  0  0  0
 41113  1  0  0  0
 41 48  1  0  0  0
 42 43  1  0  0  0
 42 66  1  0  0  0
 42114  1  0  0  0
 42115  1  0  0  0
 43 44  1  0  0  0
 44116  1  0  0  0
 45 46  2  0  0  0
 45117  1  0  0  0
 46118  1  0  0  0
 47119  1  0  0  0
 47120  1  0  0  0
 48 56  1  0  0  0
 48 65  1  0  0  0
 48121  1  0  0  0
 49 50  1  0  0  0
 49 53  1  0  0  0
 49 64  1  0  0  0
 49122  1  0  0  0
 50 51  1  0  0  0
 50123  1  0  0  0
 50124  1  0  0  0
 51 52  1  0  0  0
 51125  1  0  0  0
 51126  1  0  0  0
 52127  1  0  0  0
 52128  1  0  0  0
 53 54  1  0  0  0
 54 55  2  0  0  0
 54129  1  0  0  0
 55 57  1  0  0  0
 55130  1  0  0  0
 56 69  2  0  0  0
 57 58  2  0  0  0
 57131  1  0  0  0
 58132  1  0  0  0
 59 60  1  0  0  0
 59 61  1  0  0  0
 59 62  1  0  0  0
 60133  1  0  0  0
 60134  1  0  0  0
 60135  1  0  0  0
 61136  1  0  0  0
 61137  1  0  0  0
 61138  1  0  0  0
 62139  1  0  0  0
 62140  1  0  0  0
 62141  1  0  0  0
 63 65  1  0  0  0
 63142  1  0  0  0
 63143  1  0  0  0
 63144  1  0  0  0
 64145  1  0  0  0
 65146  1  0  0  0
 68 85  1  0  0  0
 71 74  2  0  0  0
 71 75  1  0  0  0
 71 86  1  0  0  0
 72 73  1  0  0  0
 72 81  1  0  0  0
 72 87  2  0  0  0
 73 82  1  0  0  0
 73 86  2  0  0  0
 74 84  1  0  0  0
 74 87  1  0  0  0
 75147  1  0  0  0
 75148  1  0  0  0
 75149  1  0  0  0
 76 81  1  0  0  0
 76150  1  0  0  0
 76151  1  0  0  0
 76152  1  0  0  0
 77153  1  0  0  0
 77154  1  0  0  0
 77155  1  0  0  0
 77 84  1  0  0  0
 78 84  1  0  0  0
 78156  1  0  0  0
 78157  1  0  0  0
 78158  1  0  0  0
 79159  1  0  0  0
 79160  1  0  0  0
 79161  1  0  0  0
 79 85  1  0  0  0
 80 85  1  0  0  0
 80162  1  0  0  0
 80163  1  0  0  0
 80164  1  0  0  0
 81165  1  0  0  0
 81166  1  0  0  0
 82 83  1  0  0  0
 82167  1  0  0  0
 82168  1  0  0  0
 83 85  1  0  0  0
 83169  1  0  0  0
 83170  1  0  0  0
M  ISO  4   1 100  68 101  84 100  85 101
M  END
> <chiral flag>
0

> <version>
0

> <s_m_source_file>
/data/baiqing/PycharmProjects/Reinvent-master-3.2/result/LINK_invent/BTK/process_docking_weight1_custom_sum_contain_oxygen_bond_distance_aromatic_linkinvent_7_9_3/rearranged_h_0072.sdf

> <i_m_source_file_index>
51

> <r_mmod_Potential_Energy-OPLS-2005>
690.549987792969

> <r_mmod_Stretch_Energy-OPLS-2005>
233.255722045898

> <r_mmod_Bend_Energy-OPLS-2005>
323.593780517578

> <r_mmod_Torsional_Energy-OPLS-2005>
262.565826416016

> <r_mmod_Improper_Torsional_Energy-OPLS-2005>
25.6200141906738

> <r_mmod_Van_der_Waal_Energy-OPLS-2005>
158.903167724609

> <r_mmod_Electrostatic_Energy-OPLS-2005>
-300.383728027344

> <r_mmod_Solvation_Energy-OPLS-2005>
-197.20149230957

> <b_mmod_Minimization_Converged-OPLS-2005>
0

> <r_mmod_RMS_Derivative-OPLS-2005>
5.33472490310669

$$$$
52
                    3D
 Structure written by MMmdl.
164172  0  0  1  0            999 V2000
  -30.6618  -14.5851   20.4951 C   0  0  0  0  0  0
  -30.4296  -12.3539   19.4535 C   0  0  0  0  0  0
  -29.5065  -12.5070   18.2252 C   0  0  0  0  0  0
  -28.0273  -12.3604   18.6316 C   0  0  0  0  0  0
  -27.6582  -13.2203   19.8698 C   0  0  2  0  0  0
  -28.7025  -13.0631   21.0017 C   0  0  0  0  0  0
  -25.2560  -13.8178   20.5678 C   0  0  0  0  0  0
  -24.1825  -13.0436   20.9172 C   0  0  0  0  0  0
  -24.6402  -11.6916   20.8724 C   0  0  0  0  0  0
  -23.9066  -10.4292   21.0393 C   0  0  0  0  0  0
  -24.3613   -9.4203   21.9168 C   0  0  0  0  0  0
  -23.6289   -8.2239   22.0743 C   0  0  0  0  0  0
  -22.4266   -8.0275   21.3535 C   0  0  0  0  0  0
  -21.9903   -9.0255   20.4637 C   0  0  0  0  0  0
  -22.7241  -10.2129   20.3042 C   0  0  0  0  0  0
  -21.6864   -6.0722   22.5271 C   0  0  0  0  0  0
  -21.4027   -6.5625   23.8203 C   0  0  0  0  0  0
  -21.3654   -5.6781   24.9160 C   0  0  0  0  0  0
  -21.6042   -4.3048   24.7228 C   0  0  0  0  0  0
  -21.8823   -3.8130   23.4353 C   0  0  0  0  0  0
  -21.9198   -4.6943   22.3398 C   0  0  0  0  0  0
  -22.7842  -13.5218   21.1837 C   0  0  0  0  0  0
  -22.1661   -4.2126   21.0983 F   0  0  0  0  0  0
  -21.5619   -3.4532   25.7744 F   0  0  0  0  0  0
  -30.0296  -13.3736   20.4439 N   0  0  0  0  0  0
  -26.3016  -12.9374   20.3344 N   0  0  0  0  0  0
  -25.9335  -11.6519   20.5758 N   0  0  0  0  0  0
  -22.0493  -12.8220   22.0412 N   0  0  0  0  0  0
  -25.4263  -15.1904   20.4094 N   0  0  0  0  0  0
  -31.8068  -14.7425   20.0637 O   0  0  0  0  0  0
  -21.6635   -6.8864   21.4235 O   0  0  0  0  0  0
  -22.3516  -14.5518   20.6679 O   0  0  0  0  0  0
  -24.6289  -31.8631   23.2059 C   0  0  0  0  0  0
  -25.9158  -32.4796   23.8347 C   0  0  1  0  0  0
  -27.2121  -27.3114   20.0856 C   0  0  0  0  0  0
  -25.5997  -33.8594   24.2295 N   0  0  0  0  0  0
  -23.4210  -30.4935   21.5466 C   0  0  2  0  0  0
  -24.8639  -28.9636   20.1027 C   0  0  0  0  0  0
  -22.7473  -29.4668   22.4885 C   0  0  0  0  0  0
  -18.0296  -28.1435   22.8462 C   0  0  0  0  0  0
  -24.1481  -36.7237   23.2629 C   0  0  0  0  0  0
  -25.9659  -30.7864   21.3877 C   0  0  0  0  0  0
  -26.0339  -29.4170   20.7218 C   0  0  0  0  0  0
  -27.2070  -28.5969   20.7201 C   0  0  0  0  0  0
  -26.0159  -26.9513   19.4087 C   0  0  0  0  0  0
  -24.8559  -27.7349   19.4427 C   0  0  0  0  0  0
  -23.6370  -29.8470   20.1558 C   0  0  0  0  0  0
  -25.4116  -36.3080   24.0325 C   0  0  1  0  0  0
  -20.5894  -28.3742   23.1241 C   0  0  2  0  0  0
  -20.6790  -26.9470   22.5395 C   0  0  0  0  0  0
  -19.5767  -26.6422   21.5194 C   0  0  0  0  0  0
  -18.1943  -26.7982   22.1614 C   0  0  0  0  0  0
  -19.1557  -28.8909   23.2853 C   0  0  0  0  0  0
  -18.9493  -30.1492   23.8900 C   0  0  0  0  0  0
  -17.6498  -30.6631   24.0572 C   0  0  0  0  0  0
  -25.9054  -34.9463   23.5089 C   0  0  0  0  0  0
  -16.5377  -29.9131   23.6336 C   0  0  0  0  0  0
  -16.7291  -28.6547   23.0355 C   0  0  0  0  0  0
  -26.4544  -31.6611   25.0721 C   0  0  0  0  0  0
  -25.3759  -31.3761   26.1423 C   0  0  0  0  0  0
  -27.0350  -30.3028   24.6176 C   0  0  0  0  0  0
  -27.6107  -32.4327   25.7501 C   0  0  0  0  0  0
  -27.5581  -37.1770   24.8469 C   0  0  0  0  0  0
  -21.4203  -29.3067   22.3616 N   0  0  0  0  0  0
  -26.4273  -37.3798   23.9435 N   0  0  0  0  0  0
  -24.6896  -31.0652   22.1015 N   0  0  0  0  0  0
  -23.4200  -28.8182   23.2947 O   0  0  0  0  0  0
  -28.3079  -26.4197   20.1629 O   0  0  0  0  0  0
  -26.5589  -34.8941   22.4633 O   0  0  0  0  0  0
  -23.5452  -32.1422   23.7395 O   0  0  0  0  0  0
  -28.7842  -23.2849   21.1738 C   0  0  0  0  0  0
  -28.9464  -21.8928   21.4371 C   0  0  0  0  0  0
  -28.8613  -23.7755   19.8472 C   0  0  0  0  0  0
  -29.1983  -20.9861   20.3804 C   0  0  0  0  0  0
  -29.2180  -22.8018   18.8599 C   0  0  0  0  0  0
  -29.5579  -22.0067   16.3994 C   0  0  0  0  0  0
  -31.4103  -18.8909   20.8596 C   0  0  0  0  0  0
  -29.7057  -18.0099   22.4539 C   0  0  0  0  0  0
  -28.2142  -25.1428   19.4173 C   0  0  0  0  0  0
  -28.9181  -19.4435   20.4976 C   0  0  0  0  0  0
  -29.3000  -23.1711   17.3753 C   0  0  0  0  0  0
  -29.8759  -16.9904   20.1156 C   0  0  0  0  0  0
  -29.9763  -18.3400   20.9697 C   0  0  0  0  0  0
  -29.3961  -21.4755   19.1329 N   0  0  0  0  0  0
  -29.8779  -15.6546   20.7998 N   0  0  0  0  0  0
  -31.4740  -12.4542   19.1537 H   0  0  0  0  0  0
  -30.3392  -11.3541   19.8814 H   0  0  0  0  0  0
  -29.7606  -11.7666   17.4658 H   0  0  0  0  0  0
  -29.6666  -13.4827   17.7643 H   0  0  0  0  0  0
  -27.8483  -11.3059   18.8472 H   0  0  0  0  0  0
  -27.3794  -12.6127   17.7913 H   0  0  0  0  0  0
  -27.6823  -14.2588   19.5386 H   0  0  0  0  0  0
  -28.6919  -12.0451   21.3954 H   0  0  0  0  0  0
  -28.4597  -13.7130   21.8443 H   0  0  0  0  0  0
  -25.2761   -9.5677   22.4731 H   0  0  0  0  0  0
  -23.9997   -7.4630   22.7467 H   0  0  0  0  0  0
  -21.0820   -8.8778   19.8952 H   0  0  0  0  0  0
  -22.3700  -10.9657   19.6135 H   0  0  0  0  0  0
  -21.2034   -7.6135   23.9703 H   0  0  0  0  0  0
  -21.1460   -6.0507   25.9065 H   0  0  0  0  0  0
  -22.0610   -2.7595   23.2862 H   0  0  0  0  0  0
  -22.4117  -11.9886   22.4798 H   0  0  0  0  0  0
  -21.1110  -13.1236   22.2619 H   0  0  0  0  0  0
  -24.6587  -15.8459   20.5123 H   0  0  0  0  0  0
  -26.2812  -15.6311   20.0964 H   0  0  0  0  0  0
  -26.7214  -32.5471   23.1059 H   0  0  0  0  0  0
  -25.0268  -33.9727   25.0538 H   0  0  0  0  0  0
  -22.7124  -31.3131   21.4097 H   0  0  0  0  0  0
  -23.3773  -35.9545   23.3316 H   0  0  0  0  0  0
  -24.3558  -36.8822   22.2046 H   0  0  0  0  0  0
  -23.7212  -37.6444   23.6601 H   0  0  0  0  0  0
  -26.1110  -31.5589   20.6330 H   0  0  0  0  0  0
  -26.8416  -30.8215   22.0218 H   0  0  0  0  0  0
  -28.0962  -28.9373   21.2313 H   0  0  0  0  0  0
  -25.8974  -26.0603   18.8149 H   0  0  0  0  0  0
  -23.9658  -27.3940   18.9291 H   0  0  0  0  0  0
  -23.7690  -30.6303   19.4072 H   0  0  0  0  0  0
  -22.7552  -29.2852   19.8407 H   0  0  0  0  0  0
  -25.1311  -36.1905   25.0816 H   0  0  0  0  0  0
  -20.9995  -28.3352   24.1365 H   0  0  0  0  0  0
  -20.5714  -26.2366   23.3609 H   0  0  0  0  0  0
  -21.6646  -26.7528   22.1177 H   0  0  0  0  0  0
  -19.6921  -25.6327   21.1240 H   0  0  0  0  0  0
  -19.6697  -27.3205   20.6693 H   0  0  0  0  0  0
  -17.4210  -26.6702   21.4024 H   0  0  0  0  0  0
  -18.0366  -26.0168   22.9056 H   0  0  0  0  0  0
  -19.7973  -30.7274   24.2299 H   0  0  0  0  0  0
  -17.5072  -31.6313   24.5180 H   0  0  0  0  0  0
  -15.5394  -30.3052   23.7661 H   0  0  0  0  0  0
  -15.8677  -28.0858   22.7104 H   0  0  0  0  0  0
  -24.5952  -30.7100   25.7720 H   0  0  0  0  0  0
  -24.8939  -32.2943   26.4801 H   0  0  0  0  0  0
  -25.8104  -30.8970   27.0206 H   0  0  0  0  0  0
  -26.2909  -29.6794   24.1201 H   0  0  0  0  0  0
  -27.4030  -29.7289   25.4685 H   0  0  0  0  0  0
  -27.8802  -30.4296   23.9403 H   0  0  0  0  0  0
  -27.2734  -33.3620   26.2095 H   0  0  0  0  0  0
  -28.3943  -32.6885   25.0354 H   0  0  0  0  0  0
  -28.0737  -31.8435   26.5430 H   0  0  0  0  0  0
  -28.2582  -38.0077   24.7588 H   0  0  0  0  0  0
  -28.1097  -36.2632   24.6222 H   0  0  0  0  0  0
  -27.2304  -37.1354   25.8864 H   0  0  0  0  0  0
  -20.9396  -29.8827   21.6850 H   0  0  0  0  0  0
  -26.0139  -38.2850   24.1513 H   0  0  0  0  0  0
  -28.4770  -23.9419   21.9751 H   0  0  0  0  0  0
  -28.7639  -21.5156   22.4334 H   0  0  0  0  0  0
  -29.6033  -22.3721   15.3731 H   0  0  0  0  0  0
  -28.7559  -21.2696   16.4507 H   0  0  0  0  0  0
  -30.5013  -21.5026   16.6114 H   0  0  0  0  0  0
  -31.5528  -19.7600   21.5042 H   0  0  0  0  0  0
  -31.6341  -19.2000   19.8383 H   0  0  0  0  0  0
  -32.1495  -18.1414   21.1476 H   0  0  0  0  0  0
  -29.7126  -18.9094   23.0700 H   0  0  0  0  0  0
  -30.4614  -17.3358   22.8591 H   0  0  0  0  0  0
  -28.7351  -17.5297   22.5880 H   0  0  0  0  0  0
  -27.1990  -24.7657   19.4345 H   0  0  0  0  0  0
  -28.4515  -25.3862   18.3840 H   0  0  0  0  0  0
  -28.5941  -19.1629   19.4958 H   0  0  0  0  0  0
  -28.0074  -19.3285   21.0873 H   0  0  0  0  0  0
  -30.0795  -23.9241   17.2539 H   0  0  0  0  0  0
  -28.3614  -23.6358   17.0759 H   0  0  0  0  0  0
  -30.6221  -16.9954   19.3180 H   0  0  0  0  0  0
  -28.9244  -16.9862   19.5817 H   0  0  0  0  0  0
  -29.0014  -15.4026   21.2310 H   0  0  0  0  0  0
  1 25  1  0  0  0
  1 30  2  0  0  0
  1 85  1  0  0  0
  2  3  1  0  0  0
  2 25  1  0  0  0
  2 86  1  0  0  0
  2 87  1  0  0  0
  3  4  1  0  0  0
  3 88  1  0  0  0
  3 89  1  0  0  0
  4  5  1  0  0  0
  4 90  1  0  0  0
  4 91  1  0  0  0
  5  6  1  0  0  0
  5 26  1  0  0  0
  5 92  1  0  0  0
  6 25  1  0  0  0
  6 93  1  0  0  0
  6 94  1  0  0  0
  7  8  2  0  0  0
  7 26  1  0  0  0
  7 29  1  0  0  0
  8  9  1  0  0  0
  8 22  1  0  0  0
  9 10  1  0  0  0
  9 27  2  0  0  0
 10 11  2  0  0  0
 10 15  1  0  0  0
 11 12  1  0  0  0
 11 95  1  0  0  0
 12 13  2  0  0  0
 12 96  1  0  0  0
 13 14  1  0  0  0
 13 31  1  0  0  0
 14 15  2  0  0  0
 14 97  1  0  0  0
 15 98  1  0  0  0
 16 17  2  0  0  0
 16 21  1  0  0  0
 16 31  1  0  0  0
 17 18  1  0  0  0
 17 99  1  0  0  0
 18 19  2  0  0  0
 18100  1  0  0  0
 19 20  1  0  0  0
 19 24  1  0  0  0
 20 21  2  0  0  0
 20101  1  0  0  0
 21 23  1  0  0  0
 22 28  1  0  0  0
 22 32  2  0  0  0
 26 27  1  0  0  0
 28102  1  0  0  0
 28103  1  0  0  0
 29104  1  0  0  0
 29105  1  0  0  0
 33 34  1  0  0  0
 33 66  1  0  0  0
 33 70  2  0  0  0
 34 36  1  0  0  0
 34 59  1  0  0  0
 34106  1  0  0  0
 35 44  2  0  0  0
 35 45  1  0  0  0
 35 68  1  0  0  0
 36 56  1  0  0  0
 36107  1  0  0  0
 37 39  1  0  0  0
 37 47  1  0  0  0
 37 66  1  0  0  0
 37108  1  0  0  0
 38 43  2  0  0  0
 38 46  1  0  0  0
 38 47  1  0  0  0
 39 64  1  0  0  0
 39 67  2  0  0  0
 40 52  1  0  0  0
 40 53  2  0  0  0
 40 58  1  0  0  0
 41109  1  0  0  0
 41110  1  0  0  0
 41111  1  0  0  0
 41 48  1  0  0  0
 42 43  1  0  0  0
 42 66  1  0  0  0
 42112  1  0  0  0
 42113  1  0  0  0
 43 44  1  0  0  0
 44114  1  0  0  0
 45 46  2  0  0  0
 45115  1  0  0  0
 46116  1  0  0  0
 47117  1  0  0  0
 47118  1  0  0  0
 48 56  1  0  0  0
 48 65  1  0  0  0
 48119  1  0  0  0
 49 50  1  0  0  0
 49 53  1  0  0  0
 49 64  1  0  0  0
 49120  1  0  0  0
 50 51  1  0  0  0
 50121  1  0  0  0
 50122  1  0  0  0
 51 52  1  0  0  0
 51123  1  0  0  0
 51124  1  0  0  0
 52125  1  0  0  0
 52126  1  0  0  0
 53 54  1  0  0  0
 54 55  2  0  0  0
 54127  1  0  0  0
 55 57  1  0  0  0
 55128  1  0  0  0
 56 69  2  0  0  0
 57 58  2  0  0  0
 57129  1  0  0  0
 58130  1  0  0  0
 59 60  1  0  0  0
 59 61  1  0  0  0
 59 62  1  0  0  0
 60131  1  0  0  0
 60132  1  0  0  0
 60133  1  0  0  0
 61134  1  0  0  0
 61135  1  0  0  0
 61136  1  0  0  0
 62137  1  0  0  0
 62138  1  0  0  0
 62139  1  0  0  0
 63 65  1  0  0  0
 63140  1  0  0  0
 63141  1  0  0  0
 63142  1  0  0  0
 64143  1  0  0  0
 65144  1  0  0  0
 68 79  1  0  0  0
 71 72  2  0  0  0
 71 73  1  0  0  0
 71145  1  0  0  0
 72 74  1  0  0  0
 72146  1  0  0  0
 73 75  2  0  0  0
 73 79  1  0  0  0
 74 80  1  0  0  0
 74 84  2  0  0  0
 75 81  1  0  0  0
 75 84  1  0  0  0
 76 81  1  0  0  0
 76147  1  0  0  0
 76148  1  0  0  0
 76149  1  0  0  0
 77150  1  0  0  0
 77151  1  0  0  0
 77152  1  0  0  0
 77 83  1  0  0  0
 78 83  1  0  0  0
 78153  1  0  0  0
 78154  1  0  0  0
 78155  1  0  0  0
 79156  1  0  0  0
 79157  1  0  0  0
 80 83  1  0  0  0
 80158  1  0  0  0
 80159  1  0  0  0
 81160  1  0  0  0
 81161  1  0  0  0
 82 83  1  0  0  0
 82 85  1  0  0  0
 82162  1  0  0  0
 82163  1  0  0  0
 85164  1  0  0  0
M  ISO  4   1 100  68 101  79 101  85 100
M  END
> <chiral flag>
0

> <version>
0

> <s_m_source_file>
/data/baiqing/PycharmProjects/Reinvent-master-3.2/result/LINK_invent/BTK/process_docking_weight1_custom_sum_contain_oxygen_bond_distance_aromatic_linkinvent_7_9_3/rearranged_h_0072.sdf

> <i_m_source_file_index>
52

> <r_mmod_Potential_Energy-OPLS-2005>
12.9228954315186

> <r_mmod_Stretch_Energy-OPLS-2005>
81.1017761230469

> <r_mmod_Bend_Energy-OPLS-2005>
170.134780883789

> <r_mmod_Torsional_Energy-OPLS-2005>
267.542938232422

> <r_mmod_Improper_Torsional_Energy-OPLS-2005>
13.7367248535156

> <r_mmod_Van_der_Waal_Energy-OPLS-2005>
166.867767333984

> <r_mmod_Electrostatic_Energy-OPLS-2005>
-519.102905273438

> <r_mmod_Solvation_Energy-OPLS-2005>
-214.527053833008

> <b_mmod_Minimization_Converged-OPLS-2005>
0

> <r_mmod_RMS_Derivative-OPLS-2005>
3.23780798912048

$$$$
53
                    3D
 Structure written by MMmdl.
167175  0  0  1  0            999 V2000
  -30.6669  -14.7092   20.5048 C   0  0  0  0  0  0
  -30.4135  -12.4287   19.5115 C   0  0  0  0  0  0
  -29.5161  -12.5226   18.2595 C   0  0  0  0  0  0
  -28.0405  -12.3506   18.6571 C   0  0  0  0  0  0
  -27.6458  -13.2401   19.8663 C   0  0  2  0  0  0
  -28.6802  -13.1793   21.0114 C   0  0  0  0  0  0
  -25.2505  -13.8204   20.5718 C   0  0  0  0  0  0
  -24.1818  -13.0451   20.9172 C   0  0  0  0  0  0
  -24.6413  -11.6927   20.8693 C   0  0  0  0  0  0
  -23.9091  -10.4308   21.0357 C   0  0  0  0  0  0
  -24.3642   -9.4219   21.9153 C   0  0  0  0  0  0
  -23.6314   -8.2248   22.0744 C   0  0  0  0  0  0
  -22.4296   -8.0255   21.3536 C   0  0  0  0  0  0
  -21.9910   -9.0232   20.4638 C   0  0  0  0  0  0
  -22.7234  -10.2132   20.3037 C   0  0  0  0  0  0
  -21.6894   -6.0706   22.5264 C   0  0  0  0  0  0
  -21.4027   -6.5624   23.8185 C   0  0  0  0  0  0
  -21.3679   -5.6786   24.9157 C   0  0  0  0  0  0
  -21.6071   -4.3052   24.7219 C   0  0  0  0  0  0
  -21.8818   -3.8123   23.4342 C   0  0  0  0  0  0
  -21.9214   -4.6925   22.3398 C   0  0  0  0  0  0
  -22.7840  -13.5186   21.1838 C   0  0  0  0  0  0
  -22.1682   -4.2113   21.0971 F   0  0  0  0  0  0
  -21.5639   -3.4542   25.7741 F   0  0  0  0  0  0
  -29.9946  -13.5056   20.4472 N   0  0  0  0  0  0
  -26.2960  -12.9449   20.3321 N   0  0  0  0  0  0
  -25.9350  -11.6577   20.5731 N   0  0  0  0  0  0
  -22.0540  -12.8186   22.0424 N   0  0  0  0  0  0
  -25.4229  -15.1939   20.4157 N   0  0  0  0  0  0
  -31.8270  -14.7409   20.0925 O   0  0  0  0  0  0
  -21.6673   -6.8845   21.4232 O   0  0  0  0  0  0
  -22.3514  -14.5489   20.6679 O   0  0  0  0  0  0
  -24.6264  -31.8620   23.2089 C   0  0  0  0  0  0
  -25.9103  -32.4804   23.8422 C   0  0  1  0  0  0
  -27.2060  -27.3033   20.1547 C   0  0  0  0  0  0
  -25.5930  -33.8620   24.2284 N   0  0  0  0  0  0
  -23.4204  -30.4875   21.5536 C   0  0  2  0  0  0
  -24.8687  -28.9547   20.1085 C   0  0  0  0  0  0
  -22.7470  -29.4608   22.4950 C   0  0  0  0  0  0
  -18.0260  -28.1369   22.8500 C   0  0  0  0  0  0
  -24.1487  -36.7275   23.2642 C   0  0  0  0  0  0
  -25.9673  -30.7898   21.3895 C   0  0  0  0  0  0
  -26.0391  -29.4230   20.7191 C   0  0  0  0  0  0
  -27.2141  -28.6134   20.7270 C   0  0  0  0  0  0
  -26.0211  -26.9101   19.4821 C   0  0  0  0  0  0
  -24.8639  -27.7076   19.4704 C   0  0  0  0  0  0
  -23.6356  -29.8338   20.1643 C   0  0  0  0  0  0
  -25.4138  -36.3111   24.0315 C   0  0  1  0  0  0
  -20.5870  -28.3646   23.1284 C   0  0  2  0  0  0
  -20.6771  -26.9364   22.5415 C   0  0  0  0  0  0
  -19.5741  -26.6360   21.5232 C   0  0  0  0  0  0
  -18.1914  -26.7922   22.1624 C   0  0  0  0  0  0
  -19.1522  -28.8828   23.2894 C   0  0  0  0  0  0
  -18.9459  -30.1458   23.8861 C   0  0  0  0  0  0
  -17.6460  -30.6585   24.0549 C   0  0  0  0  0  0
  -25.9058  -34.9473   23.5095 C   0  0  0  0  0  0
  -16.5344  -29.9064   23.6373 C   0  0  0  0  0  0
  -16.7256  -28.6498   23.0369 C   0  0  0  0  0  0
  -26.4485  -31.6674   25.0836 C   0  0  0  0  0  0
  -25.3699  -31.3780   26.1548 C   0  0  0  0  0  0
  -27.0382  -30.3117   24.6360 C   0  0  0  0  0  0
  -27.6051  -32.4458   25.7567 C   0  0  0  0  0  0
  -27.5586  -37.1786   24.8452 C   0  0  0  0  0  0
  -21.4183  -29.2997   22.3684 N   0  0  0  0  0  0
  -26.4286  -37.3827   23.9400 N   0  0  0  0  0  0
  -24.6889  -31.0626   22.1052 N   0  0  0  0  0  0
  -23.4189  -28.8146   23.3029 O   0  0  0  0  0  0
  -28.2716  -26.3907   20.3026 O   0  0  0  0  0  0
  -26.5626  -34.8928   22.4655 O   0  0  0  0  0  0
  -23.5429  -32.1415   23.7414 O   0  0  0  0  0  0
  -28.7090  -20.6579   22.7435 C   0  0  0  0  0  0
  -29.2231  -19.8201   20.5680 C   0  0  0  0  0  0
  -28.7297  -20.9263   21.3553 C   0  0  0  0  0  0
  -29.0812  -19.3901   23.2428 C   0  0  0  0  0  0
  -29.5820  -18.5376   21.1422 C   0  0  0  0  0  0
  -29.0016  -19.0808   24.7205 C   0  0  0  0  0  0
  -27.5700  -21.9903   19.3296 C   0  0  0  0  0  0
  -26.6639  -22.3590   21.5892 C   0  0  0  0  0  0
  -31.7686  -17.6662   20.3918 C   0  0  0  0  0  0
  -29.7926  -17.4078   18.8824 C   0  0  0  0  0  0
  -28.7123  -23.6957   20.8774 C   0  0  0  0  0  0
  -27.9056  -24.9452   20.2437 C   0  0  0  0  0  0
  -27.9938  -22.2398   20.7914 C   0  0  0  0  0  0
  -30.2564  -17.3327   20.3484 C   0  0  0  0  0  0
  -29.4979  -18.3599   22.4744 N   0  0  0  0  0  0
  -29.9896  -15.8840   20.8169 N   0  0  0  0  0  0
  -31.4678  -12.4927   19.2353 H   0  0  0  0  0  0
  -30.2989  -11.4540   19.9889 H   0  0  0  0  0  0
  -29.7975  -11.7656   17.5302 H   0  0  0  0  0  0
  -29.6635  -13.4881   17.7728 H   0  0  0  0  0  0
  -27.8898  -11.3026   18.9065 H   0  0  0  0  0  0
  -27.3938  -12.5571   17.8050 H   0  0  0  0  0  0
  -27.6443  -14.2611   19.4845 H   0  0  0  0  0  0
  -28.7040  -12.1868   21.4607 H   0  0  0  0  0  0
  -28.4148  -13.8707   21.8141 H   0  0  0  0  0  0
  -25.2791   -9.5715   22.4710 H   0  0  0  0  0  0
  -24.0051   -7.4647   22.7456 H   0  0  0  0  0  0
  -21.0838   -8.8714   19.8946 H   0  0  0  0  0  0
  -22.3634  -10.9658   19.6139 H   0  0  0  0  0  0
  -21.2009   -7.6125   23.9666 H   0  0  0  0  0  0
  -21.1528   -6.0533   25.9069 H   0  0  0  0  0  0
  -22.0590   -2.7572   23.2867 H   0  0  0  0  0  0
  -22.4239  -11.9901   22.4855 H   0  0  0  0  0  0
  -21.1121  -13.1150   22.2574 H   0  0  0  0  0  0
  -24.6622  -15.8537   20.5293 H   0  0  0  0  0  0
  -26.2764  -15.6303   20.0948 H   0  0  0  0  0  0
  -26.7151  -32.5434   23.1150 H   0  0  0  0  0  0
  -25.0115  -33.9816   25.0453 H   0  0  0  0  0  0
  -22.7140  -31.3098   21.4202 H   0  0  0  0  0  0
  -23.3805  -35.9544   23.3302 H   0  0  0  0  0  0
  -24.3556  -36.8917   22.2053 H   0  0  0  0  0  0
  -23.7172  -37.6435   23.6684 H   0  0  0  0  0  0
  -26.1215  -31.5632   20.6371 H   0  0  0  0  0  0
  -26.8406  -30.8151   22.0296 H   0  0  0  0  0  0
  -28.1101  -28.9657   21.2164 H   0  0  0  0  0  0
  -25.9452  -25.9543   18.9861 H   0  0  0  0  0  0
  -23.9702  -27.3470   18.9782 H   0  0  0  0  0  0
  -23.7414  -30.6216   19.4183 H   0  0  0  0  0  0
  -22.7582  -29.2605   19.8624 H   0  0  0  0  0  0
  -25.1332  -36.1972   25.0806 H   0  0  0  0  0  0
  -20.9963  -28.3236   24.1408 H   0  0  0  0  0  0
  -20.5696  -26.2249   23.3618 H   0  0  0  0  0  0
  -21.6639  -26.7408   22.1194 H   0  0  0  0  0  0
  -19.6896  -25.6271   21.1263 H   0  0  0  0  0  0
  -19.6711  -27.3174   20.6773 H   0  0  0  0  0  0
  -17.4208  -26.6700   21.3998 H   0  0  0  0  0  0
  -18.0262  -26.0055   22.8995 H   0  0  0  0  0  0
  -19.7930  -30.7317   24.2179 H   0  0  0  0  0  0
  -17.5002  -31.6258   24.5143 H   0  0  0  0  0  0
  -15.5334  -30.2937   23.7754 H   0  0  0  0  0  0
  -15.8661  -28.0822   22.7067 H   0  0  0  0  0  0
  -24.5847  -30.7198   25.7808 H   0  0  0  0  0  0
  -24.8928  -32.2931   26.5067 H   0  0  0  0  0  0
  -25.8013  -30.8849   27.0269 H   0  0  0  0  0  0
  -26.2997  -29.6839   24.1375 H   0  0  0  0  0  0
  -27.4035  -29.7448   25.4927 H   0  0  0  0  0  0
  -27.8876  -30.4442   23.9664 H   0  0  0  0  0  0
  -27.2670  -33.3750   26.2170 H   0  0  0  0  0  0
  -28.3813  -32.7053   25.0353 H   0  0  0  0  0  0
  -28.0789  -31.8603   26.5453 H   0  0  0  0  0  0
  -28.2605  -38.0094   24.7588 H   0  0  0  0  0  0
  -28.1091  -36.2635   24.6207 H   0  0  0  0  0  0
  -27.2287  -37.1349   25.8847 H   0  0  0  0  0  0
  -20.9363  -29.8689   21.6871 H   0  0  0  0  0  0
  -26.0178  -38.2871   24.1515 H   0  0  0  0  0  0
  -28.3384  -21.4004   23.4353 H   0  0  0  0  0  0
  -29.3067  -19.9558   19.5013 H   0  0  0  0  0  0
  -28.6885  -19.9390   25.3142 H   0  0  0  0  0  0
  -29.9772  -18.7534   25.0762 H   0  0  0  0  0  0
  -28.2842  -18.2758   24.8880 H   0  0  0  0  0  0
  -27.0430  -21.0422   19.2212 H   0  0  0  0  0  0
  -28.4247  -21.9851   18.6550 H   0  0  0  0  0  0
  -26.8831  -22.7544   18.9670 H   0  0  0  0  0  0
  -26.1904  -21.3833   21.7140 H   0  0  0  0  0  0
  -25.9239  -22.9898   21.0952 H   0  0  0  0  0  0
  -26.8163  -22.7801   22.5857 H   0  0  0  0  0  0
  -31.9507  -18.6885   20.0540 H   0  0  0  0  0  0
  -32.3736  -17.0350   19.7450 H   0  0  0  0  0  0
  -32.1636  -17.5932   21.4030 H   0  0  0  0  0  0
  -30.1627  -18.3096   18.3928 H   0  0  0  0  0  0
  -28.7051  -17.4208   18.8170 H   0  0  0  0  0  0
  -30.1519  -16.5689   18.2896 H   0  0  0  0  0  0
  -28.9067  -23.9169   21.9266 H   0  0  0  0  0  0
  -29.6969  -23.6368   20.4164 H   0  0  0  0  0  0
  -26.9194  -24.8717   20.6929 H   0  0  0  0  0  0
  -27.7920  -24.7439   19.1812 H   0  0  0  0  0  0
  -29.1073  -15.7704   21.2933 H   0  0  0  0  0  0
  1 25  1  0  0  0
  1 30  2  0  0  0
  1 86  1  0  0  0
  2  3  1  0  0  0
  2 25  1  0  0  0
  2 87  1  0  0  0
  2 88  1  0  0  0
  3  4  1  0  0  0
  3 89  1  0  0  0
  3 90  1  0  0  0
  4  5  1  0  0  0
  4 91  1  0  0  0
  4 92  1  0  0  0
  5  6  1  0  0  0
  5 26  1  0  0  0
  5 93  1  0  0  0
  6 25  1  0  0  0
  6 94  1  0  0  0
  6 95  1  0  0  0
  7  8  2  0  0  0
  7 26  1  0  0  0
  7 29  1  0  0  0
  8  9  1  0  0  0
  8 22  1  0  0  0
  9 10  1  0  0  0
  9 27  2  0  0  0
 10 11  2  0  0  0
 10 15  1  0  0  0
 11 12  1  0  0  0
 11 96  1  0  0  0
 12 13  2  0  0  0
 12 97  1  0  0  0
 13 14  1  0  0  0
 13 31  1  0  0  0
 14 15  2  0  0  0
 14 98  1  0  0  0
 15 99  1  0  0  0
 16 17  2  0  0  0
 16 21  1  0  0  0
 16 31  1  0  0  0
 17 18  1  0  0  0
 17100  1  0  0  0
 18 19  2  0  0  0
 18101  1  0  0  0
 19 20  1  0  0  0
 19 24  1  0  0  0
 20 21  2  0  0  0
 20102  1  0  0  0
 21 23  1  0  0  0
 22 28  1  0  0  0
 22 32  2  0  0  0
 26 27  1  0  0  0
 28103  1  0  0  0
 28104  1  0  0  0
 29105  1  0  0  0
 29106  1  0  0  0
 33 34  1  0  0  0
 33 66  1  0  0  0
 33 70  2  0  0  0
 34 36  1  0  0  0
 34 59  1  0  0  0
 34107  1  0  0  0
 35 44  2  0  0  0
 35 45  1  0  0  0
 35 68  1  0  0  0
 36 56  1  0  0  0
 36108  1  0  0  0
 37 39  1  0  0  0
 37 47  1  0  0  0
 37 66  1  0  0  0
 37109  1  0  0  0
 38 43  2  0  0  0
 38 46  1  0  0  0
 38 47  1  0  0  0
 39 64  1  0  0  0
 39 67  2  0  0  0
 40 52  1  0  0  0
 40 53  2  0  0  0
 40 58  1  0  0  0
 41110  1  0  0  0
 41111  1  0  0  0
 41112  1  0  0  0
 41 48  1  0  0  0
 42 43  1  0  0  0
 42 66  1  0  0  0
 42113  1  0  0  0
 42114  1  0  0  0
 43 44  1  0  0  0
 44115  1  0  0  0
 45 46  2  0  0  0
 45116  1  0  0  0
 46117  1  0  0  0
 47118  1  0  0  0
 47119  1  0  0  0
 48 56  1  0  0  0
 48 65  1  0  0  0
 48120  1  0  0  0
 49 50  1  0  0  0
 49 53  1  0  0  0
 49 64  1  0  0  0
 49121  1  0  0  0
 50 51  1  0  0  0
 50122  1  0  0  0
 50123  1  0  0  0
 51 52  1  0  0  0
 51124  1  0  0  0
 51125  1  0  0  0
 52126  1  0  0  0
 52127  1  0  0  0
 53 54  1  0  0  0
 54 55  2  0  0  0
 54128  1  0  0  0
 55 57  1  0  0  0
 55129  1  0  0  0
 56 69  2  0  0  0
 57 58  2  0  0  0
 57130  1  0  0  0
 58131  1  0  0  0
 59 60  1  0  0  0
 59 61  1  0  0  0
 59 62  1  0  0  0
 60132  1  0  0  0
 60133  1  0  0  0
 60134  1  0  0  0
 61135  1  0  0  0
 61136  1  0  0  0
 61137  1  0  0  0
 62138  1  0  0  0
 62139  1  0  0  0
 62140  1  0  0  0
 63 65  1  0  0  0
 63141  1  0  0  0
 63142  1  0  0  0
 63143  1  0  0  0
 64144  1  0  0  0
 65145  1  0  0  0
 68 82  1  0  0  0
 71 73  2  0  0  0
 71 74  1  0  0  0
 71146  1  0  0  0
 72 73  1  0  0  0
 72 75  2  0  0  0
 72147  1  0  0  0
 73 83  1  0  0  0
 74 76  1  0  0  0
 74 85  2  0  0  0
 75 84  1  0  0  0
 75 85  1  0  0  0
 76148  1  0  0  0
 76149  1  0  0  0
 76150  1  0  0  0
 77151  1  0  0  0
 77152  1  0  0  0
 77153  1  0  0  0
 77 83  1  0  0  0
 78 83  1  0  0  0
 78154  1  0  0  0
 78155  1  0  0  0
 78156  1  0  0  0
 79157  1  0  0  0
 79158  1  0  0  0
 79159  1  0  0  0
 79 84  1  0  0  0
 80 84  1  0  0  0
 80160  1  0  0  0
 80161  1  0  0  0
 80162  1  0  0  0
 81 82  1  0  0  0
 81 83  1  0  0  0
 81163  1  0  0  0
 81164  1  0  0  0
 82165  1  0  0  0
 82166  1  0  0  0
 84 86  1  0  0  0
 86167  1  0  0  0
M  ISO  4   1 100  68 101  82 101  86 100
M  END
> <chiral flag>
0

> <version>
0

> <s_m_source_file>
/data/baiqing/PycharmProjects/Reinvent-master-3.2/result/LINK_invent/BTK/process_docking_weight1_custom_sum_contain_oxygen_bond_distance_aromatic_linkinvent_7_9_3/rearranged_h_0072.sdf

> <i_m_source_file_index>
53

> <r_mmod_Potential_Energy-OPLS-2005>
-125.170616149902

> <r_mmod_Stretch_Energy-OPLS-2005>
122.062767028809

> <r_mmod_Bend_Energy-OPLS-2005>
179.411560058594

> <r_mmod_Torsional_Energy-OPLS-2005>
218.552719116211

> <r_mmod_Improper_Torsional_Energy-OPLS-2005>
7.19938659667969

> <r_mmod_Van_der_Waal_Energy-OPLS-2005>
171.12060546875

> <r_mmod_Electrostatic_Energy-OPLS-2005>
-696.627563476562

> <r_mmod_Solvation_Energy-OPLS-2005>
-202.778335571289

> <b_mmod_Minimization_Converged-OPLS-2005>
0

> <r_mmod_RMS_Derivative-OPLS-2005>
5.84940576553345

$$$$
54
                    3D
 Structure written by MMmdl.
168176  0  0  1  0            999 V2000
  -30.6513  -14.5817   20.5474 C   0  0  0  0  0  0
  -30.4411  -12.3702   19.4330 C   0  0  0  0  0  0
  -29.5053  -12.5073   18.2141 C   0  0  0  0  0  0
  -28.0285  -12.3390   18.6286 C   0  0  0  0  0  0
  -27.6548  -13.2069   19.8596 C   0  0  2  0  0  0
  -28.6998  -13.0382   20.9826 C   0  0  0  0  0  0
  -25.2577  -13.8160   20.5658 C   0  0  0  0  0  0
  -24.1834  -13.0438   20.9198 C   0  0  0  0  0  0
  -24.6390  -11.6908   20.8727 C   0  0  0  0  0  0
  -23.9062  -10.4300   21.0392 C   0  0  0  0  0  0
  -24.3618   -9.4219   21.9169 C   0  0  0  0  0  0
  -23.6304   -8.2251   22.0744 C   0  0  0  0  0  0
  -22.4270   -8.0283   21.3536 C   0  0  0  0  0  0
  -21.9903   -9.0256   20.4635 C   0  0  0  0  0  0
  -22.7227  -10.2140   20.3032 C   0  0  0  0  0  0
  -21.6855   -6.0732   22.5276 C   0  0  0  0  0  0
  -21.4020   -6.5635   23.8212 C   0  0  0  0  0  0
  -21.3662   -5.6792   24.9173 C   0  0  0  0  0  0
  -21.6042   -4.3050   24.7222 C   0  0  0  0  0  0
  -21.8828   -3.8144   23.4345 C   0  0  0  0  0  0
  -21.9207   -4.6956   22.3401 C   0  0  0  0  0  0
  -22.7857  -13.5232   21.1856 C   0  0  0  0  0  0
  -22.1667   -4.2147   21.0975 F   0  0  0  0  0  0
  -21.5632   -3.4531   25.7741 F   0  0  0  0  0  0
  -30.0183  -13.3774   20.4210 N   0  0  0  0  0  0
  -26.2994  -12.9324   20.3286 N   0  0  0  0  0  0
  -25.9316  -11.6498   20.5747 N   0  0  0  0  0  0
  -22.0483  -12.8238   22.0416 N   0  0  0  0  0  0
  -25.4307  -15.1870   20.4017 N   0  0  0  0  0  0
  -31.8256  -14.7327   20.2014 O   0  0  0  0  0  0
  -21.6646   -6.8868   21.4234 O   0  0  0  0  0  0
  -22.3562  -14.5541   20.6694 O   0  0  0  0  0  0
  -24.6195  -31.8665   23.2076 C   0  0  0  0  0  0
  -25.9068  -32.4827   23.8379 C   0  0  1  0  0  0
  -27.2342  -27.3924   20.1160 C   0  0  0  0  0  0
  -25.5914  -33.8616   24.2334 N   0  0  0  0  0  0
  -23.4102  -30.4903   21.5484 C   0  0  2  0  0  0
  -24.8596  -28.9488   20.1152 C   0  0  0  0  0  0
  -22.7431  -29.4657   22.4961 C   0  0  0  0  0  0
  -18.0280  -28.1402   22.8481 C   0  0  0  0  0  0
  -24.1483  -36.7294   23.2644 C   0  0  0  0  0  0
  -25.9449  -30.8165   21.3705 C   0  0  0  0  0  0
  -26.0222  -29.4479   20.7183 C   0  0  0  0  0  0
  -27.2152  -28.6786   20.7144 C   0  0  0  0  0  0
  -26.0595  -26.9187   19.4999 C   0  0  0  0  0  0
  -24.8764  -27.6851   19.4983 C   0  0  0  0  0  0
  -23.6243  -29.8259   20.1626 C   0  0  0  0  0  0
  -25.4107  -36.3115   24.0353 C   0  0  1  0  0  0
  -20.5874  -28.3679   23.1309 C   0  0  2  0  0  0
  -20.6783  -26.9411   22.5427 C   0  0  0  0  0  0
  -19.5762  -26.6391   21.5233 C   0  0  0  0  0  0
  -18.1927  -26.7945   22.1621 C   0  0  0  0  0  0
  -19.1528  -28.8857   23.2894 C   0  0  0  0  0  0
  -18.9455  -30.1462   23.8901 C   0  0  0  0  0  0
  -17.6456  -30.6593   24.0577 C   0  0  0  0  0  0
  -25.9034  -34.9486   23.5143 C   0  0  0  0  0  0
  -16.5348  -29.9091   23.6353 C   0  0  0  0  0  0
  -16.7266  -28.6531   23.0329 C   0  0  0  0  0  0
  -26.4493  -31.6597   25.0698 C   0  0  0  0  0  0
  -25.3758  -31.3668   26.1430 C   0  0  0  0  0  0
  -27.0346  -30.3051   24.6086 C   0  0  0  0  0  0
  -27.6088  -32.4289   25.7444 C   0  0  0  0  0  0
  -27.5588  -37.1803   24.8476 C   0  0  0  0  0  0
  -21.4157  -29.3035   22.3689 N   0  0  0  0  0  0
  -26.4299  -37.3801   23.9417 N   0  0  0  0  0  0
  -24.6766  -31.0719   22.1007 N   0  0  0  0  0  0
  -23.4178  -28.8211   23.3037 O   0  0  0  0  0  0
  -28.3497  -26.5701   20.1357 O   0  0  0  0  0  0
  -26.5577  -34.8945   22.4688 O   0  0  0  0  0  0
  -23.5379  -32.1425   23.7449 O   0  0  0  0  0  0
  -31.2049  -19.8312   19.1560 C   0  0  0  0  0  0
  -30.2764  -19.4638   20.0908 C   0  0  0  0  0  0
  -30.5720  -18.0497   20.3080 C   0  0  0  0  0  0
  -30.8709  -17.1057   22.6396 C   0  0  0  0  0  0
  -30.8830  -24.0972   20.8912 C   0  0  0  0  0  0
  -29.7807  -23.0879   18.9110 C   0  0  0  0  0  0
  -33.1056  -18.6685   17.9546 C   0  0  0  0  0  0
  -29.2567  -20.4611   20.6823 C   0  0  0  0  0  0
  -29.8727  -21.8262   21.1845 C   0  0  0  0  0  0
  -28.3358  -24.0051   20.7866 C   0  0  0  0  0  0
  -28.3272  -25.5458   21.1700 C   0  0  0  0  0  0
  -30.0482  -17.0325   21.3419 C   0  0  2  0  0  0
  -29.6815  -23.2334   20.4443 C   0  0  0  0  0  0
  -31.5784  -17.6550   19.5346 N   0  0  0  0  0  0
  -31.9718  -18.7413   18.8489 N   0  0  0  0  0  0
  -29.8466  -15.6014   20.9477 N   0  0  0  0  0  0
  -31.4801  -12.5041   19.1261 H   0  0  0  0  0  0
  -30.3789  -11.3687   19.8608 H   0  0  0  0  0  0
  -29.7678  -11.7738   17.4523 H   0  0  0  0  0  0
  -29.6462  -13.4880   17.7567 H   0  0  0  0  0  0
  -27.8669  -11.2855   18.8584 H   0  0  0  0  0  0
  -27.3738  -12.5698   17.7882 H   0  0  0  0  0  0
  -27.6789  -14.2447   19.5280 H   0  0  0  0  0  0
  -28.7062  -12.0082   21.3388 H   0  0  0  0  0  0
  -28.4474  -13.6493   21.8514 H   0  0  0  0  0  0
  -25.2762   -9.5712   22.4754 H   0  0  0  0  0  0
  -24.0023   -7.4639   22.7457 H   0  0  0  0  0  0
  -21.0845   -8.8740   19.8940 H   0  0  0  0  0  0
  -22.3662  -10.9665   19.6135 H   0  0  0  0  0  0
  -21.1986   -7.6140   23.9715 H   0  0  0  0  0  0
  -21.1479   -6.0513   25.9085 H   0  0  0  0  0  0
  -22.0602   -2.7601   23.2845 H   0  0  0  0  0  0
  -22.4113  -11.9910   22.4821 H   0  0  0  0  0  0
  -21.1069  -13.1218   22.2561 H   0  0  0  0  0  0
  -24.6617  -15.8404   20.5025 H   0  0  0  0  0  0
  -26.2679  -15.6182   20.0315 H   0  0  0  0  0  0
  -26.7121  -32.5524   23.1123 H   0  0  0  0  0  0
  -25.0119  -33.9788   25.0514 H   0  0  0  0  0  0
  -22.7025  -31.3105   21.4108 H   0  0  0  0  0  0
  -23.3779  -35.9596   23.3315 H   0  0  0  0  0  0
  -24.3604  -36.8882   22.2065 H   0  0  0  0  0  0
  -23.7198  -37.6486   23.6638 H   0  0  0  0  0  0
  -26.0633  -31.5780   20.5984 H   0  0  0  0  0  0
  -26.8316  -30.8727   21.9906 H   0  0  0  0  0  0
  -28.1086  -29.0569   21.1917 H   0  0  0  0  0  0
  -26.0623  -25.9433   19.0351 H   0  0  0  0  0  0
  -23.9876  -27.2944   19.0220 H   0  0  0  0  0  0
  -23.7478  -30.6088   19.4134 H   0  0  0  0  0  0
  -22.7451  -29.2584   19.8524 H   0  0  0  0  0  0
  -25.1297  -36.1995   25.0855 H   0  0  0  0  0  0
  -20.9987  -28.3282   24.1420 H   0  0  0  0  0  0
  -20.5742  -26.2283   23.3617 H   0  0  0  0  0  0
  -21.6647  -26.7480   22.1192 H   0  0  0  0  0  0
  -19.6928  -25.6307   21.1247 H   0  0  0  0  0  0
  -19.6736  -27.3222   20.6782 H   0  0  0  0  0  0
  -17.4219  -26.6703   21.4001 H   0  0  0  0  0  0
  -18.0303  -26.0090   22.9020 H   0  0  0  0  0  0
  -19.7928  -30.7285   24.2256 H   0  0  0  0  0  0
  -17.5011  -31.6283   24.5161 H   0  0  0  0  0  0
  -15.5344  -30.2990   23.7699 H   0  0  0  0  0  0
  -15.8661  -28.0878   22.7003 H   0  0  0  0  0  0
  -24.5952  -30.7015   25.7720 H   0  0  0  0  0  0
  -24.8930  -32.2808   26.4903 H   0  0  0  0  0  0
  -25.8121  -30.8792   27.0159 H   0  0  0  0  0  0
  -26.2894  -29.6748   24.1222 H   0  0  0  0  0  0
  -27.4216  -29.7353   25.4544 H   0  0  0  0  0  0
  -27.8686  -30.4380   23.9189 H   0  0  0  0  0  0
  -27.2764  -33.3598   26.2045 H   0  0  0  0  0  0
  -28.3890  -32.6811   25.0247 H   0  0  0  0  0  0
  -28.0759  -31.8365   26.5321 H   0  0  0  0  0  0
  -28.2616  -38.0087   24.7539 H   0  0  0  0  0  0
  -28.1074  -36.2633   24.6297 H   0  0  0  0  0  0
  -27.2310  -37.1442   25.8875 H   0  0  0  0  0  0
  -20.9300  -29.8749   21.6910 H   0  0  0  0  0  0
  -26.0205  -38.2881   24.1422 H   0  0  0  0  0  0
  -31.4024  -20.7876   18.7045 H   0  0  0  0  0  0
  -30.8548  -18.1164   23.0497 H   0  0  0  0  0  0
  -31.9138  -16.8382   22.4662 H   0  0  0  0  0  0
  -30.4703  -16.4422   23.4060 H   0  0  0  0  0  0
  -31.8339  -23.6337   20.6264 H   0  0  0  0  0  0
  -30.8945  -24.2423   21.9727 H   0  0  0  0  0  0
  -30.8759  -25.0803   20.4203 H   0  0  0  0  0  0
  -30.7851  -22.8211   18.5878 H   0  0  0  0  0  0
  -29.5480  -24.0287   18.4109 H   0  0  0  0  0  0
  -29.0914  -22.3389   18.5218 H   0  0  0  0  0  0
  -33.1649  -19.5782   17.3571 H   0  0  0  0  0  0
  -33.0096  -17.8115   17.2885 H   0  0  0  0  0  0
  -34.0220  -18.5752   18.5389 H   0  0  0  0  0  0
  -28.7520  -19.9931   21.5282 H   0  0  0  0  0  0
  -28.4528  -20.6648   19.9740 H   0  0  0  0  0  0
  -30.9383  -21.6363   21.3259 H   0  0  0  0  0  0
  -29.5293  -21.9610   22.2112 H   0  0  0  0  0  0
  -27.5928  -23.8385   20.0059 H   0  0  0  0  0  0
  -27.8999  -23.5007   21.6503 H   0  0  0  0  0  0
  -29.1347  -25.7676   21.8641 H   0  0  0  0  0  0
  -27.4360  -25.7001   21.7827 H   0  0  0  0  0  0
  -29.0433  -17.3609   21.6066 H   0  0  0  0  0  0
  -28.9013  -15.2881   21.1021 H   0  0  0  0  0  0
  1 25  1  0  0  0
  1 30  2  0  0  0
  1 86  1  0  0  0
  2  3  1  0  0  0
  2 25  1  0  0  0
  2 87  1  0  0  0
  2 88  1  0  0  0
  3  4  1  0  0  0
  3 89  1  0  0  0
  3 90  1  0  0  0
  4  5  1  0  0  0
  4 91  1  0  0  0
  4 92  1  0  0  0
  5  6  1  0  0  0
  5 26  1  0  0  0
  5 93  1  0  0  0
  6 25  1  0  0  0
  6 94  1  0  0  0
  6 95  1  0  0  0
  7  8  2  0  0  0
  7 26  1  0  0  0
  7 29  1  0  0  0
  8  9  1  0  0  0
  8 22  1  0  0  0
  9 10  1  0  0  0
  9 27  2  0  0  0
 10 11  2  0  0  0
 10 15  1  0  0  0
 11 12  1  0  0  0
 11 96  1  0  0  0
 12 13  2  0  0  0
 12 97  1  0  0  0
 13 14  1  0  0  0
 13 31  1  0  0  0
 14 15  2  0  0  0
 14 98  1  0  0  0
 15 99  1  0  0  0
 16 17  2  0  0  0
 16 21  1  0  0  0
 16 31  1  0  0  0
 17 18  1  0  0  0
 17100  1  0  0  0
 18 19  2  0  0  0
 18101  1  0  0  0
 19 20  1  0  0  0
 19 24  1  0  0  0
 20 21  2  0  0  0
 20102  1  0  0  0
 21 23  1  0  0  0
 22 28  1  0  0  0
 22 32  2  0  0  0
 26 27  1  0  0  0
 28103  1  0  0  0
 28104  1  0  0  0
 29105  1  0  0  0
 29106  1  0  0  0
 33 34  1  0  0  0
 33 66  1  0  0  0
 33 70  2  0  0  0
 34 36  1  0  0  0
 34 59  1  0  0  0
 34107  1  0  0  0
 35 44  2  0  0  0
 35 45  1  0  0  0
 35 68  1  0  0  0
 36 56  1  0  0  0
 36108  1  0  0  0
 37 39  1  0  0  0
 37 47  1  0  0  0
 37 66  1  0  0  0
 37109  1  0  0  0
 38 43  2  0  0  0
 38 46  1  0  0  0
 38 47  1  0  0  0
 39 64  1  0  0  0
 39 67  2  0  0  0
 40 52  1  0  0  0
 40 53  2  0  0  0
 40 58  1  0  0  0
 41110  1  0  0  0
 41111  1  0  0  0
 41112  1  0  0  0
 41 48  1  0  0  0
 42 43  1  0  0  0
 42 66  1  0  0  0
 42113  1  0  0  0
 42114  1  0  0  0
 43 44  1  0  0  0
 44115  1  0  0  0
 45 46  2  0  0  0
 45116  1  0  0  0
 46117  1  0  0  0
 47118  1  0  0  0
 47119  1  0  0  0
 48 56  1  0  0  0
 48 65  1  0  0  0
 48120  1  0  0  0
 49 50  1  0  0  0
 49 53  1  0  0  0
 49 64  1  0  0  0
 49121  1  0  0  0
 50 51  1  0  0  0
 50122  1  0  0  0
 50123  1  0  0  0
 51 52  1  0  0  0
 51124  1  0  0  0
 51125  1  0  0  0
 52126  1  0  0  0
 52127  1  0  0  0
 53 54  1  0  0  0
 54 55  2  0  0  0
 54128  1  0  0  0
 55 57  1  0  0  0
 55129  1  0  0  0
 56 69  2  0  0  0
 57 58  2  0  0  0
 57130  1  0  0  0
 58131  1  0  0  0
 59 60  1  0  0  0
 59 61  1  0  0  0
 59 62  1  0  0  0
 60132  1  0  0  0
 60133  1  0  0  0
 60134  1  0  0  0
 61135  1  0  0  0
 61136  1  0  0  0
 61137  1  0  0  0
 62138  1  0  0  0
 62139  1  0  0  0
 62140  1  0  0  0
 63 65  1  0  0  0
 63141  1  0  0  0
 63142  1  0  0  0
 63143  1  0  0  0
 64144  1  0  0  0
 65145  1  0  0  0
 68 81  1  0  0  0
 71 72  2  0  0  0
 71 85  1  0  0  0
 71146  1  0  0  0
 72 73  1  0  0  0
 72 78  1  0  0  0
 73 82  1  0  0  0
 73 84  2  0  0  0
 74147  1  0  0  0
 74148  1  0  0  0
 74149  1  0  0  0
 74 82  1  0  0  0
 75150  1  0  0  0
 75151  1  0  0  0
 75152  1  0  0  0
 75 83  1  0  0  0
 76 83  1  0  0  0
 76153  1  0  0  0
 76154  1  0  0  0
 76155  1  0  0  0
 77 85  1  0  0  0
 77156  1  0  0  0
 77157  1  0  0  0
 77158  1  0  0  0
 78 79  1  0  0  0
 78159  1  0  0  0
 78160  1  0  0  0
 79 83  1  0  0  0
 79161  1  0  0  0
 79162  1  0  0  0
 80 81  1  0  0  0
 80 83  1  0  0  0
 80163  1  0  0  0
 80164  1  0  0  0
 81165  1  0  0  0
 81166  1  0  0  0
 82 86  1  0  0  0
 82167  1  0  0  0
 84 85  1  0  0  0
 86168  1  0  0  0
M  ISO  4   1 100  68 101  81 101  86 100
M  END
> <chiral flag>
0

> <version>
0

> <s_m_source_file>
/data/baiqing/PycharmProjects/Reinvent-master-3.2/result/LINK_invent/BTK/process_docking_weight1_custom_sum_contain_oxygen_bond_distance_aromatic_linkinvent_7_9_3/rearranged_h_0072.sdf

> <i_m_source_file_index>
54

> <r_mmod_Potential_Energy-OPLS-2005>
-20.9809989929199

> <r_mmod_Stretch_Energy-OPLS-2005>
64.7949600219727

> <r_mmod_Bend_Energy-OPLS-2005>
161.917404174805

> <r_mmod_Torsional_Energy-OPLS-2005>
254.544967651367

> <r_mmod_Improper_Torsional_Energy-OPLS-2005>
3.71948766708374

> <r_mmod_Van_der_Waal_Energy-OPLS-2005>
122.139419555664

> <r_mmod_Electrostatic_Energy-OPLS-2005>
-430.120727539062

> <r_mmod_Solvation_Energy-OPLS-2005>
-228.183975219727

> <b_mmod_Minimization_Converged-OPLS-2005>
0

> <r_mmod_RMS_Derivative-OPLS-2005>
3.13854837417603

$$$$
55
                    3D
 Structure written by MMmdl.
161169  0  0  1  0            999 V2000
  -30.6529  -14.6406   20.5982 C   0  0  0  0  0  0
  -30.4325  -12.4221   19.4568 C   0  0  0  0  0  0
  -29.5102  -12.5417   18.2223 C   0  0  0  0  0  0
  -28.0262  -12.3745   18.6111 C   0  0  0  0  0  0
  -27.6524  -13.2137   19.8610 C   0  0  2  0  0  0
  -28.6894  -12.9996   20.9771 C   0  0  0  0  0  0
  -25.2573  -13.8190   20.5634 C   0  0  0  0  0  0
  -24.1817  -13.0459   20.9139 C   0  0  0  0  0  0
  -24.6377  -11.6927   20.8731 C   0  0  0  0  0  0
  -23.9035  -10.4307   21.0407 C   0  0  0  0  0  0
  -24.3571   -9.4220   21.9201 C   0  0  0  0  0  0
  -23.6279   -8.2232   22.0735 C   0  0  0  0  0  0
  -22.4285   -8.0246   21.3503 C   0  0  0  0  0  0
  -21.9924   -9.0226   20.4619 C   0  0  0  0  0  0
  -22.7219  -10.2136   20.3054 C   0  0  0  0  0  0
  -21.6842   -6.0718   22.5288 C   0  0  0  0  0  0
  -21.3997   -6.5618   23.8225 C   0  0  0  0  0  0
  -21.3676   -5.6772   24.9203 C   0  0  0  0  0  0
  -21.6061   -4.3034   24.7244 C   0  0  0  0  0  0
  -21.8816   -3.8129   23.4365 C   0  0  0  0  0  0
  -21.9170   -4.6944   22.3418 C   0  0  0  0  0  0
  -22.7849  -13.5281   21.1819 C   0  0  0  0  0  0
  -22.1624   -4.2128   21.0994 F   0  0  0  0  0  0
  -21.5652   -3.4520   25.7751 F   0  0  0  0  0  0
  -29.9985  -13.4290   20.4614 N   0  0  0  0  0  0
  -26.2970  -12.9338   20.3257 N   0  0  0  0  0  0
  -25.9292  -11.6502   20.5716 N   0  0  0  0  0  0
  -22.0469  -12.8278   22.0370 N   0  0  0  0  0  0
  -25.4399  -15.1897   20.4114 N   0  0  0  0  0  0
  -31.7489  -14.7461   20.0277 O   0  0  0  0  0  0
  -21.6629   -6.8856   21.4231 O   0  0  0  0  0  0
  -22.3550  -14.5579   20.6664 O   0  0  0  0  0  0
  -24.6290  -31.8605   23.2033 C   0  0  0  0  0  0
  -25.9138  -32.4779   23.8364 C   0  0  1  0  0  0
  -27.2003  -27.3018   20.1092 C   0  0  0  0  0  0
  -25.5953  -33.8579   24.2289 N   0  0  0  0  0  0
  -23.4206  -30.4896   21.5468 C   0  0  2  0  0  0
  -24.8605  -28.9505   20.1057 C   0  0  0  0  0  0
  -22.7481  -29.4640   22.4923 C   0  0  0  0  0  0
  -18.0290  -28.1392   22.8486 C   0  0  0  0  0  0
  -24.1481  -36.7285   23.2638 C   0  0  0  0  0  0
  -25.9661  -30.7836   21.3787 C   0  0  0  0  0  0
  -26.0339  -29.4128   20.7165 C   0  0  0  0  0  0
  -27.2092  -28.6011   20.7105 C   0  0  0  0  0  0
  -26.0044  -26.9070   19.4652 C   0  0  0  0  0  0
  -24.8485  -27.7033   19.4709 C   0  0  0  0  0  0
  -23.6349  -29.8364   20.1573 C   0  0  0  0  0  0
  -25.4107  -36.3076   24.0327 C   0  0  1  0  0  0
  -20.5893  -28.3696   23.1270 C   0  0  2  0  0  0
  -20.6780  -26.9418   22.5399 C   0  0  0  0  0  0
  -19.5747  -26.6384   21.5210 C   0  0  0  0  0  0
  -18.1932  -26.7935   22.1627 C   0  0  0  0  0  0
  -19.1544  -28.8862   23.2876 C   0  0  0  0  0  0
  -18.9467  -30.1468   23.8891 C   0  0  0  0  0  0
  -17.6466  -30.6593   24.0572 C   0  0  0  0  0  0
  -25.9046  -34.9452   23.5095 C   0  0  0  0  0  0
  -16.5356  -29.9094   23.6341 C   0  0  0  0  0  0
  -16.7276  -28.6516   23.0351 C   0  0  0  0  0  0
  -26.4514  -31.6587   25.0735 C   0  0  0  0  0  0
  -25.3751  -31.3724   26.1463 C   0  0  0  0  0  0
  -27.0356  -30.3009   24.6191 C   0  0  0  0  0  0
  -27.6071  -32.4321   25.7517 C   0  0  0  0  0  0
  -27.5572  -37.1800   24.8471 C   0  0  0  0  0  0
  -21.4197  -29.3049   22.3659 N   0  0  0  0  0  0
  -26.4283  -37.3776   23.9415 N   0  0  0  0  0  0
  -24.6910  -31.0621   22.0983 N   0  0  0  0  0  0
  -23.4204  -28.8172   23.2996 O   0  0  0  0  0  0
  -28.2870  -26.4079   20.1694 O   0  0  0  0  0  0
  -26.5606  -34.8918   22.4655 O   0  0  0  0  0  0
  -23.5448  -32.1411   23.7357 O   0  0  0  0  0  0
  -29.9232  -18.5635   20.9416 C   0  0  0  0  0  0
  -29.2469  -19.6212   20.2641 C   0  0  0  0  0  0
  -29.6172  -17.1918   20.6417 C   0  0  0  0  0  0
  -28.0571  -17.9997   19.1414 C   0  0  0  0  0  0
  -26.9671  -17.6864   18.1386 C   0  0  0  0  0  0
  -29.1769  -15.6557   22.5712 C   0  0  0  0  0  0
  -31.4765  -16.3906   22.1989 C   0  0  0  0  0  0
  -29.6378  -21.1412   20.4013 C   0  0  0  0  0  0
  -28.5425  -22.2956   20.2804 C   0  0  0  0  0  0
  -29.0267  -23.8225   20.3911 C   0  0  0  0  0  0
  -27.9731  -24.9584   20.0289 C   0  0  0  0  0  0
  -30.1918  -15.9451   21.4454 C   0  0  0  0  0  0
  -28.3268  -19.2924   19.3373 N   0  0  0  0  0  0
  -28.6346  -16.9587   19.7439 N   0  0  0  0  0  0
  -31.4726  -12.5413   19.1520 H   0  0  0  0  0  0
  -30.3840  -11.4166   19.8777 H   0  0  0  0  0  0
  -29.7888  -11.7974   17.4744 H   0  0  0  0  0  0
  -29.6574  -13.5151   17.7519 H   0  0  0  0  0  0
  -27.8478  -11.3158   18.8033 H   0  0  0  0  0  0
  -27.3868  -12.6432   17.7701 H   0  0  0  0  0  0
  -27.6933  -14.2603   19.5607 H   0  0  0  0  0  0
  -28.7263  -11.9402   21.2338 H   0  0  0  0  0  0
  -28.3709  -13.4517   21.9025 H   0  0  0  0  0  0
  -25.2668   -9.5711   22.4848 H   0  0  0  0  0  0
  -23.9999   -7.4616   22.7454 H   0  0  0  0  0  0
  -21.0872   -8.8709   19.8910 H   0  0  0  0  0  0
  -22.3642  -10.9686   19.6201 H   0  0  0  0  0  0
  -21.1943   -7.6117   23.9738 H   0  0  0  0  0  0
  -21.1531   -6.0483   25.9113 H   0  0  0  0  0  0
  -22.0581   -2.7584   23.2883 H   0  0  0  0  0  0
  -22.4006  -11.9861   22.4666 H   0  0  0  0  0  0
  -21.1112  -13.1392   22.2597 H   0  0  0  0  0  0
  -26.3300  -15.6192   20.1830 H   0  0  0  0  0  0
  -24.6828  -15.8579   20.4995 H   0  0  0  0  0  0
  -26.7214  -32.5429   23.1117 H   0  0  0  0  0  0
  -25.0136  -33.9733   25.0459 H   0  0  0  0  0  0
  -22.7141  -31.3115   21.4100 H   0  0  0  0  0  0
  -23.3742  -35.9622   23.3309 H   0  0  0  0  0  0
  -24.3572  -36.8883   22.2050 H   0  0  0  0  0  0
  -23.7240  -37.6489   23.6652 H   0  0  0  0  0  0
  -26.1033  -31.5450   20.6099 H   0  0  0  0  0  0
  -26.8463  -30.8277   22.0083 H   0  0  0  0  0  0
  -28.1043  -28.9468   21.2090 H   0  0  0  0  0  0
  -25.9149  -25.9598   18.9572 H   0  0  0  0  0  0
  -23.9531  -27.3464   18.9797 H   0  0  0  0  0  0
  -23.7620  -30.6204   19.4092 H   0  0  0  0  0  0
  -22.7512  -29.2756   19.8472 H   0  0  0  0  0  0
  -25.1289  -36.1922   25.0821 H   0  0  0  0  0  0
  -21.0002  -28.3270   24.1384 H   0  0  0  0  0  0
  -20.5685  -26.2308   23.3598 H   0  0  0  0  0  0
  -21.6647  -26.7439   22.1190 H   0  0  0  0  0  0
  -19.6894  -25.6291   21.1239 H   0  0  0  0  0  0
  -19.6685  -27.3201   20.6743 H   0  0  0  0  0  0
  -17.4200  -26.6688   21.4032 H   0  0  0  0  0  0
  -18.0334  -26.0087   22.9031 H   0  0  0  0  0  0
  -19.7939  -30.7296   24.2247 H   0  0  0  0  0  0
  -17.5014  -31.6267   24.5179 H   0  0  0  0  0  0
  -15.5354  -30.2991   23.7664 H   0  0  0  0  0  0
  -15.8677  -28.0833   22.7054 H   0  0  0  0  0  0
  -24.5936  -30.7055   25.7803 H   0  0  0  0  0  0
  -24.8937  -32.2883   26.4891 H   0  0  0  0  0  0
  -25.8081  -30.8910   27.0240 H   0  0  0  0  0  0
  -26.2921  -29.6758   24.1222 H   0  0  0  0  0  0
  -27.4060  -29.7269   25.4699 H   0  0  0  0  0  0
  -27.8797  -30.4299   23.9414 H   0  0  0  0  0  0
  -27.2676  -33.3622   26.2095 H   0  0  0  0  0  0
  -28.3887  -32.6870   25.0349 H   0  0  0  0  0  0
  -28.0738  -31.8445   26.5432 H   0  0  0  0  0  0
  -28.2594  -38.0091   24.7508 H   0  0  0  0  0  0
  -28.1053  -36.2619   24.6305 H   0  0  0  0  0  0
  -27.2289  -37.1465   25.8873 H   0  0  0  0  0  0
  -20.9363  -29.8800   21.6902 H   0  0  0  0  0  0
  -26.0148  -38.2839   24.1431 H   0  0  0  0  0  0
  -30.6697  -18.8195   21.6787 H   0  0  0  0  0  0
  -27.1228  -18.2479   17.2179 H   0  0  0  0  0  0
  -25.9924  -17.9619   18.5428 H   0  0  0  0  0  0
  -26.9437  -16.6260   17.8845 H   0  0  0  0  0  0
  -29.1121  -16.4914   23.2664 H   0  0  0  0  0  0
  -29.4591  -14.7869   23.1655 H   0  0  0  0  0  0
  -28.1685  -15.5340   22.1768 H   0  0  0  0  0  0
  -31.9567  -15.5528   22.7072 H   0  0  0  0  0  0
  -31.2738  -17.1414   22.9632 H   0  0  0  0  0  0
  -32.2125  -16.8181   21.5173 H   0  0  0  0  0  0
  -30.4062  -21.3295   19.6522 H   0  0  0  0  0  0
  -30.1374  -21.2579   21.3631 H   0  0  0  0  0  0
  -27.7678  -22.1146   21.0254 H   0  0  0  0  0  0
  -28.0485  -22.1737   19.3169 H   0  0  0  0  0  0
  -29.8920  -23.9528   19.7410 H   0  0  0  0  0  0
  -29.3900  -23.9974   21.4044 H   0  0  0  0  0  0
  -27.0823  -24.7528   20.6246 H   0  0  0  0  0  0
  -27.6971  -24.7820   18.9895 H   0  0  0  0  0  0
  1 25  1  0  0  0
  1 30  2  0  0  0
  1 82  1  0  0  0
  2  3  1  0  0  0
  2 25  1  0  0  0
  2 85  1  0  0  0
  2 86  1  0  0  0
  3  4  1  0  0  0
  3 87  1  0  0  0
  3 88  1  0  0  0
  4  5  1  0  0  0
  4 89  1  0  0  0
  4 90  1  0  0  0
  5  6  1  0  0  0
  5 26  1  0  0  0
  5 91  1  0  0  0
  6 25  1  0  0  0
  6 92  1  0  0  0
  6 93  1  0  0  0
  7  8  2  0  0  0
  7 26  1  0  0  0
  7 29  1  0  0  0
  8  9  1  0  0  0
  8 22  1  0  0  0
  9 10  1  0  0  0
  9 27  2  0  0  0
 10 11  2  0  0  0
 10 15  1  0  0  0
 11 12  1  0  0  0
 11 94  1  0  0  0
 12 13  2  0  0  0
 12 95  1  0  0  0
 13 14  1  0  0  0
 13 31  1  0  0  0
 14 15  2  0  0  0
 14 96  1  0  0  0
 15 97  1  0  0  0
 16 17  2  0  0  0
 16 21  1  0  0  0
 16 31  1  0  0  0
 17 18  1  0  0  0
 17 98  1  0  0  0
 18 19  2  0  0  0
 18 99  1  0  0  0
 19 20  1  0  0  0
 19 24  1  0  0  0
 20 21  2  0  0  0
 20100  1  0  0  0
 21 23  1  0  0  0
 22 28  1  0  0  0
 22 32  2  0  0  0
 26 27  1  0  0  0
 28101  1  0  0  0
 28102  1  0  0  0
 29103  1  0  0  0
 29104  1  0  0  0
 33 34  1  0  0  0
 33 66  1  0  0  0
 33 70  2  0  0  0
 34 36  1  0  0  0
 34 59  1  0  0  0
 34105  1  0  0  0
 35 44  2  0  0  0
 35 45  1  0  0  0
 35 68  1  0  0  0
 36 56  1  0  0  0
 36106  1  0  0  0
 37 39  1  0  0  0
 37 47  1  0  0  0
 37 66  1  0  0  0
 37107  1  0  0  0
 38 43  2  0  0  0
 38 46  1  0  0  0
 38 47  1  0  0  0
 39 64  1  0  0  0
 39 67  2  0  0  0
 40 52  1  0  0  0
 40 53  2  0  0  0
 40 58  1  0  0  0
 41108  1  0  0  0
 41109  1  0  0  0
 41110  1  0  0  0
 41 48  1  0  0  0
 42 43  1  0  0  0
 42 66  1  0  0  0
 42111  1  0  0  0
 42112  1  0  0  0
 43 44  1  0  0  0
 44113  1  0  0  0
 45 46  2  0  0  0
 45114  1  0  0  0
 46115  1  0  0  0
 47116  1  0  0  0
 47117  1  0  0  0
 48 56  1  0  0  0
 48 65  1  0  0  0
 48118  1  0  0  0
 49 50  1  0  0  0
 49 53  1  0  0  0
 49 64  1  0  0  0
 49119  1  0  0  0
 50 51  1  0  0  0
 50120  1  0  0  0
 50121  1  0  0  0
 51 52  1  0  0  0
 51122  1  0  0  0
 51123  1  0  0  0
 52124  1  0  0  0
 52125  1  0  0  0
 53 54  1  0  0  0
 54 55  2  0  0  0
 54126  1  0  0  0
 55 57  1  0  0  0
 55127  1  0  0  0
 56 69  2  0  0  0
 57 58  2  0  0  0
 57128  1  0  0  0
 58129  1  0  0  0
 59 60  1  0  0  0
 59 61  1  0  0  0
 59 62  1  0  0  0
 60130  1  0  0  0
 60131  1  0  0  0
 60132  1  0  0  0
 61133  1  0  0  0
 61134  1  0  0  0
 61135  1  0  0  0
 62136  1  0  0  0
 62137  1  0  0  0
 62138  1  0  0  0
 63 65  1  0  0  0
 63139  1  0  0  0
 63140  1  0  0  0
 63141  1  0  0  0
 64142  1  0  0  0
 65143  1  0  0  0
 68 81  1  0  0  0
 71 72  2  0  0  0
 71 73  1  0  0  0
 71144  1  0  0  0
 72 78  1  0  0  0
 72 83  1  0  0  0
 73 82  1  0  0  0
 73 84  2  0  0  0
 74 75  1  0  0  0
 74 83  2  0  0  0
 74 84  1  0  0  0
 75145  1  0  0  0
 75146  1  0  0  0
 75147  1  0  0  0
 76148  1  0  0  0
 76149  1  0  0  0
 76150  1  0  0  0
 76 82  1  0  0  0
 77 82  1  0  0  0
 77151  1  0  0  0
 77152  1  0  0  0
 77153  1  0  0  0
 78 79  1  0  0  0
 78154  1  0  0  0
 78155  1  0  0  0
 79 80  1  0  0  0
 79156  1  0  0  0
 79157  1  0  0  0
 80 81  1  0  0  0
 80158  1  0  0  0
 80159  1  0  0  0
 81160  1  0  0  0
 81161  1  0  0  0
M  ISO  4   1 100  68 101  81 101  82 100
M  END
> <chiral flag>
0

> <version>
0

> <s_m_source_file>
/data/baiqing/PycharmProjects/Reinvent-master-3.2/result/LINK_invent/BTK/process_docking_weight1_custom_sum_contain_oxygen_bond_distance_aromatic_linkinvent_7_9_3/rearranged_h_0072.sdf

> <i_m_source_file_index>
55

> <r_mmod_Potential_Energy-OPLS-2005>
-217.572814941406

> <r_mmod_Stretch_Energy-OPLS-2005>
100.188468933105

> <r_mmod_Bend_Energy-OPLS-2005>
174.772720336914

> <r_mmod_Torsional_Energy-OPLS-2005>
174.304534912109

> <r_mmod_Improper_Torsional_Energy-OPLS-2005>
3.07739353179932

> <r_mmod_Van_der_Waal_Energy-OPLS-2005>
164.950744628906

> <r_mmod_Electrostatic_Energy-OPLS-2005>
-688.765014648438

> <r_mmod_Solvation_Energy-OPLS-2005>
-198.225463867188

> <b_mmod_Minimization_Converged-OPLS-2005>
0

> <r_mmod_RMS_Derivative-OPLS-2005>
2.60523343086243

$$$$
56
                    3D
 Structure written by MMmdl.
161169  0  0  1  0            999 V2000
  -30.5123  -14.9023   20.4603 C   0  0  0  0  0  0
  -30.4426  -12.5541   19.4864 C   0  0  0  0  0  0
  -29.5232  -12.5444   18.2431 C   0  0  0  0  0  0
  -28.0522  -12.3376   18.6553 C   0  0  0  0  0  0
  -27.6390  -13.2393   19.8494 C   0  0  2  0  0  0
  -28.6775  -13.2159   20.9894 C   0  0  0  0  0  0
  -25.2523  -13.8202   20.5701 C   0  0  0  0  0  0
  -24.1842  -13.0460   20.9179 C   0  0  0  0  0  0
  -24.6451  -11.6926   20.8747 C   0  0  0  0  0  0
  -23.9114  -10.4311   21.0416 C   0  0  0  0  0  0
  -24.3650   -9.4211   21.9185 C   0  0  0  0  0  0
  -23.6301   -8.2259   22.0767 C   0  0  0  0  0  0
  -22.4282   -8.0311   21.3559 C   0  0  0  0  0  0
  -21.9933   -9.0295   20.4657 C   0  0  0  0  0  0
  -22.7285  -10.2161   20.3064 C   0  0  0  0  0  0
  -21.6870   -6.0747   22.5277 C   0  0  0  0  0  0
  -21.4019   -6.5647   23.8210 C   0  0  0  0  0  0
  -21.3653   -5.6796   24.9169 C   0  0  0  0  0  0
  -21.6048   -4.3060   24.7220 C   0  0  0  0  0  0
  -21.8813   -3.8155   23.4343 C   0  0  0  0  0  0
  -21.9194   -4.6967   22.3401 C   0  0  0  0  0  0
  -22.7856  -13.5230   21.1854 C   0  0  0  0  0  0
  -22.1657   -4.2162   21.0975 F   0  0  0  0  0  0
  -21.5626   -3.4545   25.7729 F   0  0  0  0  0  0
  -29.9567  -13.6264   20.4049 N   0  0  0  0  0  0
  -26.2952  -12.9424   20.3269 N   0  0  0  0  0  0
  -25.9378  -11.6554   20.5725 N   0  0  0  0  0  0
  -22.0509  -12.8231   22.0394 N   0  0  0  0  0  0
  -25.4195  -15.1944   20.4170 N   0  0  0  0  0  0
  -31.6908  -14.9985   20.0980 O   0  0  0  0  0  0
  -21.6659   -6.8896   21.4244 O   0  0  0  0  0  0
  -22.3564  -14.5559   20.6705 O   0  0  0  0  0  0
  -24.6436  -31.8450   23.1880 C   0  0  0  0  0  0
  -25.9219  -32.4686   23.8268 C   0  0  1  0  0  0
  -27.2041  -27.1352   20.1488 C   0  0  0  0  0  0
  -25.5979  -33.8495   24.2147 N   0  0  0  0  0  0
  -23.4464  -30.4593   21.5430 C   0  0  2  0  0  0
  -24.8897  -28.8961   20.1121 C   0  0  0  0  0  0
  -22.7629  -29.4469   22.4949 C   0  0  0  0  0  0
  -18.0309  -28.1410   22.8465 C   0  0  0  0  0  0
  -24.1486  -36.7247   23.2625 C   0  0  0  0  0  0
  -26.0034  -30.7151   21.3906 C   0  0  0  0  0  0
  -26.0694  -29.3296   20.7279 C   0  0  0  0  0  0
  -27.2301  -28.4659   20.7258 C   0  0  0  0  0  0
  -26.0003  -26.8062   19.4901 C   0  0  0  0  0  0
  -24.8673  -27.6483   19.4752 C   0  0  0  0  0  0
  -23.6679  -29.8004   20.1554 C   0  0  0  0  0  0
  -25.4112  -36.3010   24.0291 C   0  0  1  0  0  0
  -20.5916  -28.3673   23.1321 C   0  0  2  0  0  0
  -20.6811  -26.9397   22.5440 C   0  0  0  0  0  0
  -19.5775  -26.6373   21.5259 C   0  0  0  0  0  0
  -18.1948  -26.7945   22.1639 C   0  0  0  0  0  0
  -19.1569  -28.8880   23.2850 C   0  0  0  0  0  0
  -18.9469  -30.1497   23.8834 C   0  0  0  0  0  0
  -17.6462  -30.6592   24.0550 C   0  0  0  0  0  0
  -25.9101  -34.9399   23.5011 C   0  0  0  0  0  0
  -16.5360  -29.9072   23.6341 C   0  0  0  0  0  0
  -16.7293  -28.6516   23.0322 C   0  0  0  0  0  0
  -26.4527  -31.6578   25.0735 C   0  0  0  0  0  0
  -25.3678  -31.3802   26.1405 C   0  0  0  0  0  0
  -27.0358  -30.2965   24.6293 C   0  0  0  0  0  0
  -27.6033  -32.4396   25.7520 C   0  0  0  0  0  0
  -27.5588  -37.1726   24.8425 C   0  0  0  0  0  0
  -21.4320  -29.2973   22.3719 N   0  0  0  0  0  0
  -26.4249  -37.3761   23.9453 N   0  0  0  0  0  0
  -24.7187  -31.0272   22.0969 N   0  0  0  0  0  0
  -23.4290  -28.8033   23.3104 O   0  0  0  0  0  0
  -28.2670  -26.1607   20.1752 O   0  0  0  0  0  0
  -26.5701  -34.8897   22.4602 O   0  0  0  0  0  0
  -23.5557  -32.1397   23.7072 O   0  0  0  0  0  0
  -29.4390  -20.5375   19.9950 C   0  0  0  0  0  0
  -28.7482  -21.7527   20.4742 C   0  0  0  0  0  0
  -29.1344  -19.1850   20.4985 C   0  0  0  0  0  0
  -27.5867  -20.2709   21.8429 C   0  0  0  0  0  0
  -26.5679  -20.1244   22.9504 C   0  0  0  0  0  0
  -28.9891  -17.3853   18.6572 C   0  0  0  0  0  0
  -29.0405  -23.3436   20.1182 C   0  0  0  0  0  0
  -30.0426  -16.6325   22.3852 C   0  0  0  0  0  0
  -27.9987  -24.6364   20.3982 C   0  0  0  0  0  0
  -29.6922  -17.7159   19.9857 C   0  0  2  0  0  0
  -29.7192  -16.2987   20.9051 C   0  0  1  0  0  0
  -27.8400  -21.5238   21.4445 N   0  0  0  0  0  0
  -28.1430  -19.1352   21.4055 N   0  0  0  0  0  0
  -31.4042  -17.1605   22.6056 N   0  3  0  0  0  0
  -31.4803  -12.7086   19.1821 H   0  0  0  0  0  0
  -30.4168  -11.5796   19.9781 H   0  0  0  0  0  0
  -29.8315  -11.7602   17.5503 H   0  0  0  0  0  0
  -29.6299  -13.4851   17.7006 H   0  0  0  0  0  0
  -27.9325  -11.2892   18.9268 H   0  0  0  0  0  0
  -27.3933  -12.5074   17.8027 H   0  0  0  0  0  0
  -27.6243  -14.2553   19.4562 H   0  0  0  0  0  0
  -28.7543  -12.2292   21.4510 H   0  0  0  0  0  0
  -28.3847  -13.9012   21.7865 H   0  0  0  0  0  0
  -25.2805   -9.5694   22.4744 H   0  0  0  0  0  0
  -24.0011   -7.4674   22.7519 H   0  0  0  0  0  0
  -21.0845   -8.8841   19.8978 H   0  0  0  0  0  0
  -22.3757  -10.9706   19.6173 H   0  0  0  0  0  0
  -21.2012   -7.6161   23.9717 H   0  0  0  0  0  0
  -21.1474   -6.0527   25.9072 H   0  0  0  0  0  0
  -22.0594   -2.7619   23.2846 H   0  0  0  0  0  0
  -22.4107  -11.9862   22.4728 H   0  0  0  0  0  0
  -21.1142  -13.1274   22.2622 H   0  0  0  0  0  0
  -24.6463  -15.8373   20.5399 H   0  0  0  0  0  0
  -26.2646  -15.6527   20.1054 H   0  0  0  0  0  0
  -26.7274  -32.5254   23.0976 H   0  0  0  0  0  0
  -25.0060  -33.9617   25.0252 H   0  0  0  0  0  0
  -22.7445  -31.2830   21.3974 H   0  0  0  0  0  0
  -23.3789  -35.9528   23.3203 H   0  0  0  0  0  0
  -24.3594  -36.8999   22.2067 H   0  0  0  0  0  0
  -23.7202  -37.6384   23.6745 H   0  0  0  0  0  0
  -26.1653  -31.4719   20.6220 H   0  0  0  0  0  0
  -26.8768  -30.7549   22.0321 H   0  0  0  0  0  0
  -28.1363  -28.7887   21.2172 H   0  0  0  0  0  0
  -25.9093  -25.8658   18.9726 H   0  0  0  0  0  0
  -23.9707  -27.3218   18.9666 H   0  0  0  0  0  0
  -23.8002  -30.5870   19.4087 H   0  0  0  0  0  0
  -22.7856  -29.2419   19.8364 H   0  0  0  0  0  0
  -25.1285  -36.1781   25.0774 H   0  0  0  0  0  0
  -20.9923  -28.3182   24.1487 H   0  0  0  0  0  0
  -20.5804  -26.2240   23.3618 H   0  0  0  0  0  0
  -21.6657  -26.7488   22.1164 H   0  0  0  0  0  0
  -19.6931  -25.6290   21.1283 H   0  0  0  0  0  0
  -19.6719  -27.3204   20.6812 H   0  0  0  0  0  0
  -17.4239  -26.6724   21.4028 H   0  0  0  0  0  0
  -18.0281  -26.0121   22.9060 H   0  0  0  0  0  0
  -19.7938  -30.7345   24.2164 H   0  0  0  0  0  0
  -17.4996  -31.6263   24.5176 H   0  0  0  0  0  0
  -15.5350  -30.2929   23.7727 H   0  0  0  0  0  0
  -15.8706  -28.0831   22.7027 H   0  0  0  0  0  0
  -24.5854  -30.7168   25.7709 H   0  0  0  0  0  0
  -24.8877  -32.3004   26.4737 H   0  0  0  0  0  0
  -25.7904  -30.9029   27.0250 H   0  0  0  0  0  0
  -26.2928  -29.6775   24.1254 H   0  0  0  0  0  0
  -27.3946  -29.7173   25.4813 H   0  0  0  0  0  0
  -27.8862  -30.4234   23.9599 H   0  0  0  0  0  0
  -27.2564  -33.3699   26.2022 H   0  0  0  0  0  0
  -28.3836  -32.6988   25.0360 H   0  0  0  0  0  0
  -28.0701  -31.8631   26.5513 H   0  0  0  0  0  0
  -28.2421  -38.0201   24.7699 H   0  0  0  0  0  0
  -28.1266  -36.2752   24.5927 H   0  0  0  0  0  0
  -27.2366  -37.0963   25.8828 H   0  0  0  0  0  0
  -20.9597  -29.8627   21.6816 H   0  0  0  0  0  0
  -26.0094  -38.2765   24.1653 H   0  0  0  0  0  0
  -30.2032  -20.6401   19.2368 H   0  0  0  0  0  0
  -26.7236  -20.8761   23.7255 H   0  0  0  0  0  0
  -26.6220  -19.1425   23.4222 H   0  0  0  0  0  0
  -25.5686  -20.2485   22.5381 H   0  0  0  0  0  0
  -29.1015  -18.1931   17.9329 H   0  0  0  0  0  0
  -27.9189  -17.2268   18.8060 H   0  0  0  0  0  0
  -29.4132  -16.4843   18.2142 H   0  0  0  0  0  0
  -29.2758  -23.3865   19.0531 H   0  0  0  0  0  0
  -29.9794  -23.5805   20.6224 H   0  0  0  0  0  0
  -29.9133  -15.7435   23.0049 H   0  0  0  0  0  0
  -29.3230  -17.3501   22.7732 H   0  0  0  0  0  0
  -27.7705  -24.5829   21.4626 H   0  0  0  0  0  0
  -27.0673  -24.3564   19.9087 H   0  0  0  0  0  0
  -30.7358  -17.9044   19.7342 H   0  0  0  0  0  0
  -28.6692  -15.9990   20.9368 H   0  0  0  0  0  0
  -32.0866  -16.4312   22.4994 H   0  0  0  0  0  0
  -31.4799  -17.5199   23.5428 H   0  0  0  0  0  0
  -31.6221  -17.9054   21.9684 H   0  0  0  0  0  0
  1 25  1  0  0  0
  1 30  2  0  0  0
  1 81  1  0  0  0
  2  3  1  0  0  0
  2 25  1  0  0  0
  2 85  1  0  0  0
  2 86  1  0  0  0
  3  4  1  0  0  0
  3 87  1  0  0  0
  3 88  1  0  0  0
  4  5  1  0  0  0
  4 89  1  0  0  0
  4 90  1  0  0  0
  5  6  1  0  0  0
  5 26  1  0  0  0
  5 91  1  0  0  0
  6 25  1  0  0  0
  6 92  1  0  0  0
  6 93  1  0  0  0
  7  8  2  0  0  0
  7 26  1  0  0  0
  7 29  1  0  0  0
  8  9  1  0  0  0
  8 22  1  0  0  0
  9 10  1  0  0  0
  9 27  2  0  0  0
 10 11  2  0  0  0
 10 15  1  0  0  0
 11 12  1  0  0  0
 11 94  1  0  0  0
 12 13  2  0  0  0
 12 95  1  0  0  0
 13 14  1  0  0  0
 13 31  1  0  0  0
 14 15  2  0  0  0
 14 96  1  0  0  0
 15 97  1  0  0  0
 16 17  2  0  0  0
 16 21  1  0  0  0
 16 31  1  0  0  0
 17 18  1  0  0  0
 17 98  1  0  0  0
 18 19  2  0  0  0
 18 99  1  0  0  0
 19 20  1  0  0  0
 19 24  1  0  0  0
 20 21  2  0  0  0
 20100  1  0  0  0
 21 23  1  0  0  0
 22 28  1  0  0  0
 22 32  2  0  0  0
 26 27  1  0  0  0
 28101  1  0  0  0
 28102  1  0  0  0
 29103  1  0  0  0
 29104  1  0  0  0
 33 34  1  0  0  0
 33 66  1  0  0  0
 33 70  2  0  0  0
 34 36  1  0  0  0
 34 59  1  0  0  0
 34105  1  0  0  0
 35 44  2  0  0  0
 35 45  1  0  0  0
 35 68  1  0  0  0
 36 56  1  0  0  0
 36106  1  0  0  0
 37 39  1  0  0  0
 37 47  1  0  0  0
 37 66  1  0  0  0
 37107  1  0  0  0
 38 43  2  0  0  0
 38 46  1  0  0  0
 38 47  1  0  0  0
 39 64  1  0  0  0
 39 67  2  0  0  0
 40 52  1  0  0  0
 40 53  2  0  0  0
 40 58  1  0  0  0
 41108  1  0  0  0
 41109  1  0  0  0
 41110  1  0  0  0
 41 48  1  0  0  0
 42 43  1  0  0  0
 42 66  1  0  0  0
 42111  1  0  0  0
 42112  1  0  0  0
 43 44  1  0  0  0
 44113  1  0  0  0
 45 46  2  0  0  0
 45114  1  0  0  0
 46115  1  0  0  0
 47116  1  0  0  0
 47117  1  0  0  0
 48 56  1  0  0  0
 48 65  1  0  0  0
 48118  1  0  0  0
 49 50  1  0  0  0
 49 53  1  0  0  0
 49 64  1  0  0  0
 49119  1  0  0  0
 50 51  1  0  0  0
 50120  1  0  0  0
 50121  1  0  0  0
 51 52  1  0  0  0
 51122  1  0  0  0
 51123  1  0  0  0
 52124  1  0  0  0
 52125  1  0  0  0
 53 54  1  0  0  0
 54 55  2  0  0  0
 54126  1  0  0  0
 55 57  1  0  0  0
 55127  1  0  0  0
 56 69  2  0  0  0
 57 58  2  0  0  0
 57128  1  0  0  0
 58129  1  0  0  0
 59 60  1  0  0  0
 59 61  1  0  0  0
 59 62  1  0  0  0
 60130  1  0  0  0
 60131  1  0  0  0
 60132  1  0  0  0
 61133  1  0  0  0
 61134  1  0  0  0
 61135  1  0  0  0
 62136  1  0  0  0
 62137  1  0  0  0
 62138  1  0  0  0
 63 65  1  0  0  0
 63139  1  0  0  0
 63140  1  0  0  0
 63141  1  0  0  0
 64142  1  0  0  0
 65143  1  0  0  0
 68 79  1  0  0  0
 71 72  2  0  0  0
 71 73  1  0  0  0
 71144  1  0  0  0
 72 77  1  0  0  0
 72 82  1  0  0  0
 73 80  1  0  0  0
 73 83  2  0  0  0
 74 75  1  0  0  0
 74 82  2  0  0  0
 74 83  1  0  0  0
 75145  1  0  0  0
 75146  1  0  0  0
 75147  1  0  0  0
 76148  1  0  0  0
 76149  1  0  0  0
 76150  1  0  0  0
 76 80  1  0  0  0
 77 79  1  0  0  0
 77151  1  0  0  0
 77152  1  0  0  0
 78 84  1  0  0  0
 78153  1  0  0  0
 78154  1  0  0  0
 78 81  1  0  0  0
 79155  1  0  0  0
 79156  1  0  0  0
 80 81  1  0  0  0
 80157  1  0  0  0
 81158  1  0  0  0
 84159  1  0  0  0
 84160  1  0  0  0
 84161  1  0  0  0
M  CHG  1  84   1
M  ISO  4   1 100  68 101  79 101  81 100
M  END
> <chiral flag>
0

> <version>
0

> <s_m_source_file>
/data/baiqing/PycharmProjects/Reinvent-master-3.2/result/LINK_invent/BTK/process_docking_weight1_custom_sum_contain_oxygen_bond_distance_aromatic_linkinvent_7_9_3/rearranged_h_0072.sdf

> <i_m_source_file_index>
56

> <r_mmod_Potential_Energy-OPLS-2005>
-270.164978027344

> <r_mmod_Stretch_Energy-OPLS-2005>
256.020385742188

> <r_mmod_Bend_Energy-OPLS-2005>
246.509552001953

> <r_mmod_Torsional_Energy-OPLS-2005>
183.146499633789

> <r_mmod_Improper_Torsional_Energy-OPLS-2005>
2.83126783370972

> <r_mmod_Van_der_Waal_Energy-OPLS-2005>
129.134780883789

> <r_mmod_Electrostatic_Energy-OPLS-2005>
-774.070373535156

> <r_mmod_Solvation_Energy-OPLS-2005>
-484.488739013672

> <b_mmod_Minimization_Converged-OPLS-2005>
0

> <r_mmod_RMS_Derivative-OPLS-2005>
5.3013744354248

$$$$
57
                    3D
 Structure written by MMmdl.
168176  0  0  1  0            999 V2000
  -30.5931  -14.7541   20.5057 C   0  0  0  0  0  0
  -30.4452  -12.4651   19.4637 C   0  0  0  0  0  0
  -29.5112  -12.5074   18.2317 C   0  0  0  0  0  0
  -28.0382  -12.3325   18.6512 C   0  0  0  0  0  0
  -27.6530  -13.2245   19.8625 C   0  0  2  0  0  0
  -28.7032  -13.1142   20.9887 C   0  0  0  0  0  0
  -25.2601  -13.8212   20.5709 C   0  0  0  0  0  0
  -24.1853  -13.0445   20.9181 C   0  0  0  0  0  0
  -24.6438  -11.6929   20.8760 C   0  0  0  0  0  0
  -23.9107  -10.4314   21.0430 C   0  0  0  0  0  0
  -24.3651   -9.4220   21.9201 C   0  0  0  0  0  0
  -23.6311   -8.2259   22.0771 C   0  0  0  0  0  0
  -22.4300   -8.0317   21.3553 C   0  0  0  0  0  0
  -21.9945   -9.0301   20.4658 C   0  0  0  0  0  0
  -22.7283  -10.2172   20.3071 C   0  0  0  0  0  0
  -21.6849   -6.0773   22.5282 C   0  0  0  0  0  0
  -21.4013   -6.5658   23.8222 C   0  0  0  0  0  0
  -21.3647   -5.6802   24.9180 C   0  0  0  0  0  0
  -21.6034   -4.3071   24.7218 C   0  0  0  0  0  0
  -21.8816   -3.8170   23.4334 C   0  0  0  0  0  0
  -21.9193   -4.6997   22.3398 C   0  0  0  0  0  0
  -22.7881  -13.5249   21.1814 C   0  0  0  0  0  0
  -22.1658   -4.2177   21.0982 F   0  0  0  0  0  0
  -21.5619   -3.4556   25.7729 F   0  0  0  0  0  0
  -29.9944  -13.5115   20.4140 N   0  0  0  0  0  0
  -26.3027  -12.9390   20.3375 N   0  0  0  0  0  0
  -25.9384  -11.6538   20.5811 N   0  0  0  0  0  0
  -22.0526  -12.8244   22.0383 N   0  0  0  0  0  0
  -25.4322  -15.1918   20.4133 N   0  0  0  0  0  0
  -31.7333  -14.8848   20.0486 O   0  0  0  0  0  0
  -21.6645   -6.8928   21.4254 O   0  0  0  0  0  0
  -22.3580  -14.5555   20.6673 O   0  0  0  0  0  0
  -24.6276  -31.8522   23.1990 C   0  0  0  0  0  0
  -25.9121  -32.4729   23.8308 C   0  0  1  0  0  0
  -27.2350  -27.2687   20.1157 C   0  0  0  0  0  0
  -25.5905  -33.8543   24.2205 N   0  0  0  0  0  0
  -23.4272  -30.4737   21.5382 C   0  0  2  0  0  0
  -24.8819  -28.9314   20.0934 C   0  0  0  0  0  0
  -22.7506  -29.4561   22.4888 C   0  0  0  0  0  0
  -18.0291  -28.1398   22.8462 C   0  0  0  0  0  0
  -24.1492  -36.7281   23.2644 C   0  0  0  0  0  0
  -25.9724  -30.7625   21.3879 C   0  0  0  0  0  0
  -26.0446  -29.3885   20.7244 C   0  0  0  0  0  0
  -27.2120  -28.5617   20.7421 C   0  0  0  0  0  0
  -26.0549  -26.8864   19.4464 C   0  0  0  0  0  0
  -24.8939  -27.6882   19.4396 C   0  0  0  0  0  0
  -23.6452  -29.8098   20.1511 C   0  0  0  0  0  0
  -25.4121  -36.3051   24.0312 C   0  0  1  0  0  0
  -20.5896  -28.3689   23.1277 C   0  0  2  0  0  0
  -20.6797  -26.9413   22.5415 C   0  0  0  0  0  0
  -19.5790  -26.6390   21.5196 C   0  0  0  0  0  0
  -18.1960  -26.7937   22.1602 C   0  0  0  0  0  0
  -19.1546  -28.8861   23.2858 C   0  0  0  0  0  0
  -18.9464  -30.1465   23.8867 C   0  0  0  0  0  0
  -17.6463  -30.6592   24.0547 C   0  0  0  0  0  0
  -25.9068  -34.9420   23.5076 C   0  0  0  0  0  0
  -16.5353  -29.9087   23.6340 C   0  0  0  0  0  0
  -16.7271  -28.6515   23.0334 C   0  0  0  0  0  0
  -26.4506  -31.6591   25.0718 C   0  0  0  0  0  0
  -25.3732  -31.3751   26.1442 C   0  0  0  0  0  0
  -27.0394  -30.2995   24.6284 C   0  0  0  0  0  0
  -27.6044  -32.4374   25.7466 C   0  0  0  0  0  0
  -27.5564  -37.1796   24.8452 C   0  0  0  0  0  0
  -21.4205  -29.3011   22.3650 N   0  0  0  0  0  0
  -26.4276  -37.3758   23.9405 N   0  0  0  0  0  0
  -24.6931  -31.0496   22.0950 N   0  0  0  0  0  0
  -23.4206  -28.8112   23.3005 O   0  0  0  0  0  0
  -28.3128  -26.3632   20.2631 O   0  0  0  0  0  0
  -26.5680  -34.8907   22.4666 O   0  0  0  0  0  0
  -23.5437  -32.1342   23.7296 O   0  0  0  0  0  0
  -29.7059  -17.4627   20.4642 C   0  0  0  0  0  0
  -30.0881  -18.8005   20.7208 C   0  0  0  0  0  0
  -29.1164  -20.5565   23.0541 C   0  0  0  0  0  0
  -30.4965  -16.2006   22.5991 C   0  0  0  0  0  0
  -29.0885  -23.5012   17.6364 C   0  0  0  0  0  0
  -26.9440  -23.4984   18.8511 C   0  0  0  0  0  0
  -31.0410  -19.3998   21.7197 C   0  0  0  0  0  0
  -30.4249  -19.7478   23.0948 C   0  0  0  0  0  0
  -28.9900  -22.4745   19.9875 C   0  0  0  0  0  0
  -29.5398  -21.0823   19.3074 C   0  0  0  0  0  0
  -28.7311  -25.3349   19.2644 C   0  0  0  0  0  0
  -29.8956  -16.0461   21.1917 C   0  0  1  0  0  0
  -28.4503  -23.7168   19.0384 C   0  0  0  0  0  0
  -28.7716  -17.5738   19.4274 N   0  0  0  0  0  0
  -28.5938  -18.8162   19.0629 N   0  0  0  0  0  0
  -29.3821  -19.6377   19.8098 N   0  0  0  0  0  0
  -31.4813  -12.6075   19.1526 H   0  0  0  0  0  0
  -30.4186  -11.4848   19.9428 H   0  0  0  0  0  0
  -29.7905  -11.7288   17.5183 H   0  0  0  0  0  0
  -29.6295  -13.4606   17.7132 H   0  0  0  0  0  0
  -27.8969  -11.2819   18.9112 H   0  0  0  0  0  0
  -27.3790  -12.5369   17.8069 H   0  0  0  0  0  0
  -27.6653  -14.2544   19.5015 H   0  0  0  0  0  0
  -28.7653  -12.0926   21.3696 H   0  0  0  0  0  0
  -28.4330  -13.7214   21.8521 H   0  0  0  0  0  0
  -25.2810   -9.5669   22.4770 H   0  0  0  0  0  0
  -24.0013   -7.4647   22.7482 H   0  0  0  0  0  0
  -21.0880   -8.8812   19.8967 H   0  0  0  0  0  0
  -22.3747  -10.9714   19.6171 H   0  0  0  0  0  0
  -21.2013   -7.6169   23.9719 H   0  0  0  0  0  0
  -21.1459   -6.0544   25.9074 H   0  0  0  0  0  0
  -22.0611   -2.7635   23.2822 H   0  0  0  0  0  0
  -22.4161  -11.9905   22.4742 H   0  0  0  0  0  0
  -21.1159  -13.1273   22.2654 H   0  0  0  0  0  0
  -24.6663  -15.8496   20.5159 H   0  0  0  0  0  0
  -26.2903  -15.6340   20.1039 H   0  0  0  0  0  0
  -26.7187  -32.5372   23.1040 H   0  0  0  0  0  0
  -24.9931  -33.9670   25.0260 H   0  0  0  0  0  0
  -22.7210  -31.2950   21.3947 H   0  0  0  0  0  0
  -23.3741  -35.9627   23.3304 H   0  0  0  0  0  0
  -24.3554  -36.8926   22.2056 H   0  0  0  0  0  0
  -23.7282  -37.6486   23.6694 H   0  0  0  0  0  0
  -26.1325  -31.5295   20.6296 H   0  0  0  0  0  0
  -26.8393  -30.7938   22.0349 H   0  0  0  0  0  0
  -28.0883  -28.8955   21.2809 H   0  0  0  0  0  0
  -25.9941  -25.9301   18.9647 H   0  0  0  0  0  0
  -24.0099  -27.3393   18.9238 H   0  0  0  0  0  0
  -23.7504  -30.5886   19.3934 H   0  0  0  0  0  0
  -22.7668  -29.2326   19.8547 H   0  0  0  0  0  0
  -25.1323  -36.1856   25.0802 H   0  0  0  0  0  0
  -20.9973  -28.3283   24.1403 H   0  0  0  0  0  0
  -20.5700  -26.2284   23.3603 H   0  0  0  0  0  0
  -21.6674  -26.7471   22.1228 H   0  0  0  0  0  0
  -19.6974  -25.6305   21.1213 H   0  0  0  0  0  0
  -19.6738  -27.3207   20.6735 H   0  0  0  0  0  0
  -17.4236  -26.6668   21.3996 H   0  0  0  0  0  0
  -18.0365  -26.0082   22.9011 H   0  0  0  0  0  0
  -19.7928  -30.7284   24.2249 H   0  0  0  0  0  0
  -17.5012  -31.6262   24.5162 H   0  0  0  0  0  0
  -15.5356  -30.2974   23.7694 H   0  0  0  0  0  0
  -15.8669  -28.0828   22.7066 H   0  0  0  0  0  0
  -24.5871  -30.7148   25.7755 H   0  0  0  0  0  0
  -24.8973  -32.2938   26.4883 H   0  0  0  0  0  0
  -25.8034  -30.8882   27.0206 H   0  0  0  0  0  0
  -26.3020  -29.6705   24.1285 H   0  0  0  0  0  0
  -27.4015  -29.7294   25.4854 H   0  0  0  0  0  0
  -27.8918  -30.4244   23.9605 H   0  0  0  0  0  0
  -27.2619  -33.3667   26.2029 H   0  0  0  0  0  0
  -28.3831  -32.6971   25.0281 H   0  0  0  0  0  0
  -28.0762  -31.8540   26.5382 H   0  0  0  0  0  0
  -28.2587  -38.0085   24.7490 H   0  0  0  0  0  0
  -28.1062  -36.2620   24.6293 H   0  0  0  0  0  0
  -27.2285  -37.1463   25.8855 H   0  0  0  0  0  0
  -20.9398  -29.8658   21.6783 H   0  0  0  0  0  0
  -26.0138  -38.2824   24.1399 H   0  0  0  0  0  0
  -29.2707  -21.5309   22.5958 H   0  0  0  0  0  0
  -28.7386  -20.7279   24.0615 H   0  0  0  0  0  0
  -28.3288  -20.0356   22.5097 H   0  0  0  0  0  0
  -31.4605  -16.7067   22.5712 H   0  0  0  0  0  0
  -29.8168  -16.7575   23.2409 H   0  0  0  0  0  0
  -30.6614  -15.2379   23.0825 H   0  0  0  0  0  0
  -28.6925  -22.6327   17.1139 H   0  0  0  0  0  0
  -30.1742  -23.4026   17.7108 H   0  0  0  0  0  0
  -28.8902  -24.3233   16.9451 H   0  0  0  0  0  0
  -26.7242  -22.4596   18.6003 H   0  0  0  0  0  0
  -26.5490  -24.1002   18.0328 H   0  0  0  0  0  0
  -26.3975  -23.7509   19.7613 H   0  0  0  0  0  0
  -31.4816  -20.3025   21.2956 H   0  0  0  0  0  0
  -31.9004  -18.7462   21.8673 H   0  0  0  0  0  0
  -31.1679  -20.2958   23.6741 H   0  0  0  0  0  0
  -30.2357  -18.8398   23.6604 H   0  0  0  0  0  0
  -29.7930  -22.8501   20.6226 H   0  0  0  0  0  0
  -28.1962  -22.2150   20.6909 H   0  0  0  0  0  0
  -30.6020  -21.2107   19.0978 H   0  0  0  0  0  0
  -29.0981  -21.0258   18.3183 H   0  0  0  0  0  0
  -28.4335  -25.8333   18.3406 H   0  0  0  0  0  0
  -29.8179  -25.4318   19.2692 H   0  0  0  0  0  0
  -28.8691  -15.7355   21.3678 H   0  0  0  0  0  0
  1 25  1  0  0  0
  1 30  2  0  0  0
  1 82  1  0  0  0
  2  3  1  0  0  0
  2 25  1  0  0  0
  2 87  1  0  0  0
  2 88  1  0  0  0
  3  4  1  0  0  0
  3 89  1  0  0  0
  3 90  1  0  0  0
  4  5  1  0  0  0
  4 91  1  0  0  0
  4 92  1  0  0  0
  5  6  1  0  0  0
  5 26  1  0  0  0
  5 93  1  0  0  0
  6 25  1  0  0  0
  6 94  1  0  0  0
  6 95  1  0  0  0
  7  8  2  0  0  0
  7 26  1  0  0  0
  7 29  1  0  0  0
  8  9  1  0  0  0
  8 22  1  0  0  0
  9 10  1  0  0  0
  9 27  2  0  0  0
 10 11  2  0  0  0
 10 15  1  0  0  0
 11 12  1  0  0  0
 11 96  1  0  0  0
 12 13  2  0  0  0
 12 97  1  0  0  0
 13 14  1  0  0  0
 13 31  1  0  0  0
 14 15  2  0  0  0
 14 98  1  0  0  0
 15 99  1  0  0  0
 16 17  2  0  0  0
 16 21  1  0  0  0
 16 31  1  0  0  0
 17 18  1  0  0  0
 17100  1  0  0  0
 18 19  2  0  0  0
 18101  1  0  0  0
 19 20  1  0  0  0
 19 24  1  0  0  0
 20 21  2  0  0  0
 20102  1  0  0  0
 21 23  1  0  0  0
 22 28  1  0  0  0
 22 32  2  0  0  0
 26 27  1  0  0  0
 28103  1  0  0  0
 28104  1  0  0  0
 29105  1  0  0  0
 29106  1  0  0  0
 33 34  1  0  0  0
 33 66  1  0  0  0
 33 70  2  0  0  0
 34 36  1  0  0  0
 34 59  1  0  0  0
 34107  1  0  0  0
 35 44  2  0  0  0
 35 45  1  0  0  0
 35 68  1  0  0  0
 36 56  1  0  0  0
 36108  1  0  0  0
 37 39  1  0  0  0
 37 47  1  0  0  0
 37 66  1  0  0  0
 37109  1  0  0  0
 38 43  2  0  0  0
 38 46  1  0  0  0
 38 47  1  0  0  0
 39 64  1  0  0  0
 39 67  2  0  0  0
 40 52  1  0  0  0
 40 53  2  0  0  0
 40 58  1  0  0  0
 41110  1  0  0  0
 41111  1  0  0  0
 41112  1  0  0  0
 41 48  1  0  0  0
 42 43  1  0  0  0
 42 66  1  0  0  0
 42113  1  0  0  0
 42114  1  0  0  0
 43 44  1  0  0  0
 44115  1  0  0  0
 45 46  2  0  0  0
 45116  1  0  0  0
 46117  1  0  0  0
 47118  1  0  0  0
 47119  1  0  0  0
 48 56  1  0  0  0
 48 65  1  0  0  0
 48120  1  0  0  0
 49 50  1  0  0  0
 49 53  1  0  0  0
 49 64  1  0  0  0
 49121  1  0  0  0
 50 51  1  0  0  0
 50122  1  0  0  0
 50123  1  0  0  0
 51 52  1  0  0  0
 51124  1  0  0  0
 51125  1  0  0  0
 52126  1  0  0  0
 52127  1  0  0  0
 53 54  1  0  0  0
 54 55  2  0  0  0
 54128  1  0  0  0
 55 57  1  0  0  0
 55129  1  0  0  0
 56 69  2  0  0  0
 57 58  2  0  0  0
 57130  1  0  0  0
 58131  1  0  0  0
 59 60  1  0  0  0
 59 61  1  0  0  0
 59 62  1  0  0  0
 60132  1  0  0  0
 60133  1  0  0  0
 60134  1  0  0  0
 61135  1  0  0  0
 61136  1  0  0  0
 61137  1  0  0  0
 62138  1  0  0  0
 62139  1  0  0  0
 62140  1  0  0  0
 63 65  1  0  0  0
 63141  1  0  0  0
 63142  1  0  0  0
 63143  1  0  0  0
 64144  1  0  0  0
 65145  1  0  0  0
 68 81  1  0  0  0
 71 72  2  0  0  0
 71 82  1  0  0  0
 71 84  1  0  0  0
 72 77  1  0  0  0
 72 86  1  0  0  0
 73 78  1  0  0  0
 73146  1  0  0  0
 73147  1  0  0  0
 73148  1  0  0  0
 74149  1  0  0  0
 74150  1  0  0  0
 74151  1  0  0  0
 74 82  1  0  0  0
 75152  1  0  0  0
 75153  1  0  0  0
 75154  1  0  0  0
 75 83  1  0  0  0
 76 83  1  0  0  0
 76155  1  0  0  0
 76156  1  0  0  0
 76157  1  0  0  0
 77 78  1  0  0  0
 77158  1  0  0  0
 77159  1  0  0  0
 78160  1  0  0  0
 78161  1  0  0  0
 79 80  1  0  0  0
 79 83  1  0  0  0
 79162  1  0  0  0
 79163  1  0  0  0
 80 86  1  0  0  0
 80164  1  0  0  0
 80165  1  0  0  0
 81 83  1  0  0  0
 81166  1  0  0  0
 81167  1  0  0  0
 82168  1  0  0  0
 84 85  2  0  0  0
 85 86  1  0  0  0
M  ISO  4   1 100  68 101  81 101  82 100
M  END
> <chiral flag>
0

> <version>
0

> <s_m_source_file>
/data/baiqing/PycharmProjects/Reinvent-master-3.2/result/LINK_invent/BTK/process_docking_weight1_custom_sum_contain_oxygen_bond_distance_aromatic_linkinvent_7_9_3/rearranged_h_0072.sdf

> <i_m_source_file_index>
57

> <r_mmod_Potential_Energy-OPLS-2005>
421.01123046875

> <r_mmod_Stretch_Energy-OPLS-2005>
154.159973144531

> <r_mmod_Bend_Energy-OPLS-2005>
295.576812744141

> <r_mmod_Torsional_Energy-OPLS-2005>
232.127990722656

> <r_mmod_Improper_Torsional_Energy-OPLS-2005>
4.69045352935791

> <r_mmod_Van_der_Waal_Energy-OPLS-2005>
121.551330566406

> <r_mmod_Electrostatic_Energy-OPLS-2005>
-287.998229980469

> <r_mmod_Solvation_Energy-OPLS-2005>
-186.891479492188

> <b_mmod_Minimization_Converged-OPLS-2005>
0

> <r_mmod_RMS_Derivative-OPLS-2005>
4.22035312652588

$$$$
58
                    3D
 Structure written by MMmdl.
160168  0  0  1  0            999 V2000
  -30.4175  -15.2537   20.4315 C   0  0  0  0  0  0
  -30.4448  -12.8095   19.5257 C   0  0  0  0  0  0
  -29.5411  -12.5866   18.2829 C   0  0  0  0  0  0
  -28.0807  -12.3153   18.6866 C   0  0  0  0  0  0
  -27.6168  -13.2584   19.8207 C   0  0  2  0  0  0
  -28.6445  -13.3512   20.9600 C   0  0  0  0  0  0
  -25.2433  -13.8206   20.5702 C   0  0  0  0  0  0
  -24.1759  -13.0423   20.9195 C   0  0  0  0  0  0
  -24.6387  -11.6911   20.8717 C   0  0  0  0  0  0
  -23.9078  -10.4284   21.0406 C   0  0  0  0  0  0
  -24.3629   -9.4206   21.9194 C   0  0  0  0  0  0
  -23.6294   -8.2253   22.0764 C   0  0  0  0  0  0
  -22.4275   -8.0295   21.3557 C   0  0  0  0  0  0
  -21.9908   -9.0269   20.4658 C   0  0  0  0  0  0
  -22.7246  -10.2139   20.3056 C   0  0  0  0  0  0
  -21.6874   -6.0727   22.5257 C   0  0  0  0  0  0
  -21.4024   -6.5610   23.8195 C   0  0  0  0  0  0
  -21.3674   -5.6766   24.9149 C   0  0  0  0  0  0
  -21.6059   -4.3034   24.7202 C   0  0  0  0  0  0
  -21.8827   -3.8127   23.4318 C   0  0  0  0  0  0
  -21.9200   -4.6949   22.3374 C   0  0  0  0  0  0
  -22.7786  -13.5220   21.1855 C   0  0  0  0  0  0
  -22.1667   -4.2136   21.0957 F   0  0  0  0  0  0
  -21.5638   -3.4517   25.7719 F   0  0  0  0  0  0
  -29.8784  -13.9252   20.3773 N   0  0  0  0  0  0
  -26.2820  -12.9443   20.3123 N   0  0  0  0  0  0
  -25.9316  -11.6559   20.5634 N   0  0  0  0  0  0
  -22.0439  -12.8231   22.0423 N   0  0  0  0  0  0
  -25.4110  -15.1955   20.4274 N   0  0  0  0  0  0
  -31.6049  -15.2773   20.0606 O   0  0  0  0  0  0
  -21.6643   -6.8886   21.4237 O   0  0  0  0  0  0
  -22.3477  -14.5530   20.6700 O   0  0  0  0  0  0
  -24.6621  -31.8269   23.1713 C   0  0  0  0  0  0
  -25.9310  -32.4600   23.8170 C   0  0  1  0  0  0
  -27.2118  -26.9460   20.1784 C   0  0  0  0  0  0
  -25.5976  -33.8407   24.2079 N   0  0  0  0  0  0
  -23.4737  -30.4398   21.5226 C   0  0  2  0  0  0
  -24.9204  -28.8262   20.1174 C   0  0  0  0  0  0
  -22.7665  -29.4466   22.4812 C   0  0  0  0  0  0
  -18.0324  -28.1426   22.8480 C   0  0  0  0  0  0
  -24.1458  -36.7159   23.2651 C   0  0  0  0  0  0
  -26.0415  -30.6412   21.3943 C   0  0  0  0  0  0
  -26.1083  -29.2317   20.7389 C   0  0  0  0  0  0
  -27.2507  -28.3148   20.7374 C   0  0  0  0  0  0
  -25.9883  -26.6806   19.5235 C   0  0  0  0  0  0
  -24.8848  -27.5690   19.4915 C   0  0  0  0  0  0
  -23.7086  -29.7547   20.1496 C   0  0  0  0  0  0
  -25.4111  -36.2959   24.0306 C   0  0  1  0  0  0
  -20.5955  -28.3755   23.1211 C   0  0  2  0  0  0
  -20.6784  -26.9435   22.5427 C   0  0  0  0  0  0
  -19.5755  -26.6400   21.5232 C   0  0  0  0  0  0
  -18.1939  -26.7963   22.1633 C   0  0  0  0  0  0
  -19.1597  -28.8909   23.2834 C   0  0  0  0  0  0
  -18.9498  -30.1503   23.8870 C   0  0  0  0  0  0
  -17.6490  -30.6598   24.0577 C   0  0  0  0  0  0
  -25.9095  -34.9350   23.5012 C   0  0  0  0  0  0
  -16.5385  -29.9094   23.6366 C   0  0  0  0  0  0
  -16.7307  -28.6522   23.0376 C   0  0  0  0  0  0
  -26.4549  -31.6553   25.0701 C   0  0  0  0  0  0
  -25.3668  -31.3844   26.1367 C   0  0  0  0  0  0
  -27.0420  -30.2910   24.6423 C   0  0  0  0  0  0
  -27.6055  -32.4357   25.7490 C   0  0  0  0  0  0
  -27.5551  -37.1728   24.8465 C   0  0  0  0  0  0
  -21.4339  -29.3022   22.3534 N   0  0  0  0  0  0
  -26.4237  -37.3716   23.9438 N   0  0  0  0  0  0
  -24.7478  -30.9962   22.0827 N   0  0  0  0  0  0
  -23.4206  -28.8057   23.3072 O   0  0  0  0  0  0
  -28.2409  -25.8723   20.2070 O   0  0  0  0  0  0
  -26.5723  -34.8901   22.4618 O   0  0  0  0  0  0
  -23.5705  -32.1218   23.6824 O   0  0  0  0  0  0
  -28.5396  -20.2631   21.0268 C   0  0  0  0  0  0
  -29.2018  -21.1373   20.0792 C   0  0  0  0  0  0
  -30.0579  -20.1621   19.3585 C   0  0  0  0  0  0
  -29.5351  -18.0215   20.4900 C   0  0  0  0  0  0
  -31.0106  -20.5996   18.2590 C   0  0  0  0  0  0
  -30.3151  -23.1252   22.2597 C   0  0  0  0  0  0
  -29.4281  -23.2595   18.4454 C   0  0  0  0  0  0
  -29.1015  -16.2695   22.1766 C   0  0  0  0  0  0
  -30.4338  -23.3451   20.7422 C   0  0  0  0  0  0
  -28.0339  -24.2384   20.2777 C   0  0  0  0  0  0
  -29.1865  -22.9114   19.9365 C   0  0  2  0  0  0
  -28.6930  -18.8593   21.1965 N   0  0  0  0  0  0
  -30.1900  -18.7563   19.5507 N   0  0  0  0  0  0
  -29.6805  -16.4901   20.8351 N   0  0  0  0  0  0
  -31.4567  -13.0350   19.1881 H   0  0  0  0  0  0
  -30.5403  -11.8872   20.1024 H   0  0  0  0  0  0
  -29.9222  -11.7579   17.6847 H   0  0  0  0  0  0
  -29.5790  -13.4679   17.6411 H   0  0  0  0  0  0
  -28.0126  -11.2773   19.0153 H   0  0  0  0  0  0
  -27.4233  -12.4085   17.8212 H   0  0  0  0  0  0
  -27.5534  -14.2461   19.3640 H   0  0  0  0  0  0
  -28.8248  -12.3687   21.4009 H   0  0  0  0  0  0
  -28.2261  -13.9468   21.7631 H   0  0  0  0  0  0
  -25.2790   -9.5678   22.4751 H   0  0  0  0  0  0
  -24.0017   -7.4634   22.7466 H   0  0  0  0  0  0
  -21.0849   -8.8785   19.8959 H   0  0  0  0  0  0
  -22.3719  -10.9674   19.6148 H   0  0  0  0  0  0
  -21.2011   -7.6114   23.9680 H   0  0  0  0  0  0
  -21.1498   -6.0493   25.9058 H   0  0  0  0  0  0
  -22.0598   -2.7590   23.2800 H   0  0  0  0  0  0
  -22.4084  -11.9917   22.4822 H   0  0  0  0  0  0
  -21.1067  -13.1282   22.2634 H   0  0  0  0  0  0
  -24.6438  -15.8445   20.5663 H   0  0  0  0  0  0
  -26.2717  -15.6544   20.1592 H   0  0  0  0  0  0
  -26.7384  -32.5153   23.0895 H   0  0  0  0  0  0
  -25.0049  -33.9469   25.0179 H   0  0  0  0  0  0
  -22.7862  -31.2716   21.3556 H   0  0  0  0  0  0
  -23.3758  -35.9449   23.3289 H   0  0  0  0  0  0
  -24.3530  -36.8828   22.2070 H   0  0  0  0  0  0
  -23.7164  -37.6316   23.6720 H   0  0  0  0  0  0
  -26.2217  -31.3837   20.6153 H   0  0  0  0  0  0
  -26.9020  -30.6951   22.0498 H   0  0  0  0  0  0
  -28.1589  -28.6276   21.2325 H   0  0  0  0  0  0
  -25.8530  -25.7218   19.0456 H   0  0  0  0  0  0
  -23.9770  -27.2505   18.9973 H   0  0  0  0  0  0
  -23.8610  -30.5208   19.3877 H   0  0  0  0  0  0
  -22.8154  -29.2095   19.8393 H   0  0  0  0  0  0
  -25.1304  -36.1739   25.0795 H   0  0  0  0  0  0
  -21.0070  -28.3367   24.1325 H   0  0  0  0  0  0
  -20.5658  -26.2373   23.3672 H   0  0  0  0  0  0
  -21.6655  -26.7393   22.1256 H   0  0  0  0  0  0
  -19.6905  -25.6305   21.1282 H   0  0  0  0  0  0
  -19.6706  -27.3198   20.6755 H   0  0  0  0  0  0
  -17.4228  -26.6760   21.4008 H   0  0  0  0  0  0
  -18.0288  -26.0104   22.9024 H   0  0  0  0  0  0
  -19.7977  -30.7338   24.2213 H   0  0  0  0  0  0
  -17.5043  -31.6276   24.5203 H   0  0  0  0  0  0
  -15.5376  -30.2981   23.7707 H   0  0  0  0  0  0
  -15.8714  -28.0818   22.7113 H   0  0  0  0  0  0
  -24.5852  -30.7176   25.7707 H   0  0  0  0  0  0
  -24.8841  -32.3064   26.4621 H   0  0  0  0  0  0
  -25.7894  -30.9145   27.0256 H   0  0  0  0  0  0
  -26.3074  -29.6616   24.1387 H   0  0  0  0  0  0
  -27.3899  -29.7258   25.5079 H   0  0  0  0  0  0
  -27.9050  -30.4078   23.9863 H   0  0  0  0  0  0
  -27.2631  -33.3705   26.1952 H   0  0  0  0  0  0
  -28.3926  -32.6854   25.0357 H   0  0  0  0  0  0
  -28.0662  -31.8560   26.5500 H   0  0  0  0  0  0
  -28.2571  -38.0022   24.7540 H   0  0  0  0  0  0
  -28.1048  -36.2561   24.6255 H   0  0  0  0  0  0
  -27.2294  -37.1358   25.8875 H   0  0  0  0  0  0
  -20.9599  -29.8632   21.6601 H   0  0  0  0  0  0
  -26.0077  -38.2756   24.1514 H   0  0  0  0  0  0
  -27.8709  -20.7205   21.7417 H   0  0  0  0  0  0
  -31.6944  -21.3674   18.6148 H   0  0  0  0  0  0
  -30.4630  -20.9563   17.3874 H   0  0  0  0  0  0
  -31.6365  -19.7773   17.9094 H   0  0  0  0  0  0
  -31.2304  -23.4369   22.7634 H   0  0  0  0  0  0
  -30.1548  -22.0765   22.5090 H   0  0  0  0  0  0
  -29.4968  -23.7019   22.6913 H   0  0  0  0  0  0
  -30.4382  -23.0641   18.1041 H   0  0  0  0  0  0
  -29.3036  -24.3250   18.2425 H   0  0  0  0  0  0
  -28.7249  -22.7373   17.7953 H   0  0  0  0  0  0
  -29.3407  -17.0955   22.8461 H   0  0  0  0  0  0
  -29.4855  -15.3983   22.7094 H   0  0  0  0  0  0
  -28.0142  -16.2028   22.1168 H   0  0  0  0  0  0
  -31.3154  -22.8092   20.3909 H   0  0  0  0  0  0
  -30.6440  -24.4008   20.5592 H   0  0  0  0  0  0
  -27.6680  -24.0688   21.2898 H   0  0  0  0  0  0
  -27.1608  -24.0276   19.6603 H   0  0  0  0  0  0
  1 25  1  0  0  0
  1 30  2  0  0  0
  1 84  1  0  0  0
  2  3  1  0  0  0
  2 25  1  0  0  0
  2 85  1  0  0  0
  2 86  1  0  0  0
  3  4  1  0  0  0
  3 87  1  0  0  0
  3 88  1  0  0  0
  4  5  1  0  0  0
  4 89  1  0  0  0
  4 90  1  0  0  0
  5  6  1  0  0  0
  5 26  1  0  0  0
  5 91  1  0  0  0
  6 25  1  0  0  0
  6 92  1  0  0  0
  6 93  1  0  0  0
  7  8  2  0  0  0
  7 26  1  0  0  0
  7 29  1  0  0  0
  8  9  1  0  0  0
  8 22  1  0  0  0
  9 10  1  0  0  0
  9 27  2  0  0  0
 10 11  2  0  0  0
 10 15  1  0  0  0
 11 12  1  0  0  0
 11 94  1  0  0  0
 12 13  2  0  0  0
 12 95  1  0  0  0
 13 14  1  0  0  0
 13 31  1  0  0  0
 14 15  2  0  0  0
 14 96  1  0  0  0
 15 97  1  0  0  0
 16 17  2  0  0  0
 16 21  1  0  0  0
 16 31  1  0  0  0
 17 18  1  0  0  0
 17 98  1  0  0  0
 18 19  2  0  0  0
 18 99  1  0  0  0
 19 20  1  0  0  0
 19 24  1  0  0  0
 20 21  2  0  0  0
 20100  1  0  0  0
 21 23  1  0  0  0
 22 28  1  0  0  0
 22 32  2  0  0  0
 26 27  1  0  0  0
 28101  1  0  0  0
 28102  1  0  0  0
 29103  1  0  0  0
 29104  1  0  0  0
 33 34  1  0  0  0
 33 66  1  0  0  0
 33 70  2  0  0  0
 34 36  1  0  0  0
 34 59  1  0  0  0
 34105  1  0  0  0
 35 44  2  0  0  0
 35 45  1  0  0  0
 35 68  1  0  0  0
 36 56  1  0  0  0
 36106  1  0  0  0
 37 39  1  0  0  0
 37 47  1  0  0  0
 37 66  1  0  0  0
 37107  1  0  0  0
 38 43  2  0  0  0
 38 46  1  0  0  0
 38 47  1  0  0  0
 39 64  1  0  0  0
 39 67  2  0  0  0
 40 52  1  0  0  0
 40 53  2  0  0  0
 40 58  1  0  0  0
 41108  1  0  0  0
 41109  1  0  0  0
 41110  1  0  0  0
 41 48  1  0  0  0
 42 43  1  0  0  0
 42 66  1  0  0  0
 42111  1  0  0  0
 42112  1  0  0  0
 43 44  1  0  0  0
 44113  1  0  0  0
 45 46  2  0  0  0
 45114  1  0  0  0
 46115  1  0  0  0
 47116  1  0  0  0
 47117  1  0  0  0
 48 56  1  0  0  0
 48 65  1  0  0  0
 48118  1  0  0  0
 49 50  1  0  0  0
 49 53  1  0  0  0
 49 64  1  0  0  0
 49119  1  0  0  0
 50 51  1  0  0  0
 50120  1  0  0  0
 50121  1  0  0  0
 51 52  1  0  0  0
 51122  1  0  0  0
 51123  1  0  0  0
 52124  1  0  0  0
 52125  1  0  0  0
 53 54  1  0  0  0
 54 55  2  0  0  0
 54126  1  0  0  0
 55 57  1  0  0  0
 55127  1  0  0  0
 56 69  2  0  0  0
 57 58  2  0  0  0
 57128  1  0  0  0
 58129  1  0  0  0
 59 60  1  0  0  0
 59 61  1  0  0  0
 59 62  1  0  0  0
 60130  1  0  0  0
 60131  1  0  0  0
 60132  1  0  0  0
 61133  1  0  0  0
 61134  1  0  0  0
 61135  1  0  0  0
 62136  1  0  0  0
 62137  1  0  0  0
 62138  1  0  0  0
 63 65  1  0  0  0
 63139  1  0  0  0
 63140  1  0  0  0
 63141  1  0  0  0
 64142  1  0  0  0
 65143  1  0  0  0
 68 80  1  0  0  0
 71 72  2  0  0  0
 71 82  1  0  0  0
 71144  1  0  0  0
 72 73  1  0  0  0
 72 81  1  0  0  0
 73 75  1  0  0  0
 73 83  2  0  0  0
 74 82  2  0  0  0
 74 83  1  0  0  0
 74 84  1  0  0  0
 75145  1  0  0  0
 75146  1  0  0  0
 75147  1  0  0  0
 76 79  1  0  0  0
 76148  1  0  0  0
 76149  1  0  0  0
 76150  1  0  0  0
 77151  1  0  0  0
 77152  1  0  0  0
 77153  1  0  0  0
 77 81  1  0  0  0
 78 84  1  0  0  0
 78154  1  0  0  0
 78155  1  0  0  0
 78156  1  0  0  0
 79 81  1  0  0  0
 79157  1  0  0  0
 79158  1  0  0  0
 80 81  1  0  0  0
 80159  1  0  0  0
 80160  1  0  0  0
M  ISO  4   1 100  68 101  80 101  84 100
M  END
> <chiral flag>
0

> <version>
0

> <s_m_source_file>
/data/baiqing/PycharmProjects/Reinvent-master-3.2/result/LINK_invent/BTK/process_docking_weight1_custom_sum_contain_oxygen_bond_distance_aromatic_linkinvent_7_9_3/rearranged_h_0072.sdf

> <i_m_source_file_index>
58

> <r_mmod_Potential_Energy-OPLS-2005>
1020.10949707031

> <r_mmod_Stretch_Energy-OPLS-2005>
548.197692871094

> <r_mmod_Bend_Energy-OPLS-2005>
493.086791992188

> <r_mmod_Torsional_Energy-OPLS-2005>
273.147827148438

> <r_mmod_Improper_Torsional_Energy-OPLS-2005>
3.13422656059265

> <r_mmod_Van_der_Waal_Energy-OPLS-2005>
162.058242797852

> <r_mmod_Electrostatic_Energy-OPLS-2005>
-676.524169921875

> <r_mmod_Solvation_Energy-OPLS-2005>
-205.849395751953

> <b_mmod_Minimization_Converged-OPLS-2005>
0

> <r_mmod_RMS_Derivative-OPLS-2005>
2.59133124351501

$$$$
59
                    3D
 Structure written by MMmdl.
163171  0  0  1  0            999 V2000
  -30.6736  -14.5315   20.5406 C   0  0  0  0  0  0
  -30.4350  -12.3384   19.4249 C   0  0  0  0  0  0
  -29.4982  -12.4999   18.2081 C   0  0  0  0  0  0
  -28.0203  -12.3506   18.6242 C   0  0  0  0  0  0
  -27.6591  -13.2064   19.8674 C   0  0  2  0  0  0
  -28.7056  -13.0152   20.9888 C   0  0  0  0  0  0
  -25.2586  -13.8145   20.5667 C   0  0  0  0  0  0
  -24.1835  -13.0430   20.9165 C   0  0  0  0  0  0
  -24.6383  -11.6896   20.8719 C   0  0  0  0  0  0
  -23.9051  -10.4286   21.0395 C   0  0  0  0  0  0
  -24.3606   -9.4205   21.9176 C   0  0  0  0  0  0
  -23.6284   -8.2244   22.0752 C   0  0  0  0  0  0
  -22.4269   -8.0275   21.3542 C   0  0  0  0  0  0
  -21.9900   -9.0244   20.4643 C   0  0  0  0  0  0
  -22.7222  -10.2125   20.3048 C   0  0  0  0  0  0
  -21.6856   -6.0728   22.5275 C   0  0  0  0  0  0
  -21.4015   -6.5637   23.8205 C   0  0  0  0  0  0
  -21.3653   -5.6793   24.9169 C   0  0  0  0  0  0
  -21.6045   -4.3056   24.7223 C   0  0  0  0  0  0
  -21.8821   -3.8144   23.4345 C   0  0  0  0  0  0
  -21.9192   -4.6957   22.3399 C   0  0  0  0  0  0
  -22.7859  -13.5233   21.1835 C   0  0  0  0  0  0
  -22.1662   -4.2142   21.0976 F   0  0  0  0  0  0
  -21.5628   -3.4540   25.7738 F   0  0  0  0  0  0
  -30.0305  -13.3350   20.4292 N   0  0  0  0  0  0
  -26.3015  -12.9314   20.3338 N   0  0  0  0  0  0
  -25.9315  -11.6475   20.5763 N   0  0  0  0  0  0
  -22.0506  -12.8223   22.0389 N   0  0  0  0  0  0
  -25.4311  -15.1858   20.4070 N   0  0  0  0  0  0
  -31.8205  -14.7181   20.1282 O   0  0  0  0  0  0
  -21.6637   -6.8866   21.4239 O   0  0  0  0  0  0
  -22.3544  -14.5543   20.6687 O   0  0  0  0  0  0
  -24.6194  -31.8652   23.2080 C   0  0  0  0  0  0
  -25.9072  -32.4802   23.8387 C   0  0  1  0  0  0
  -27.2305  -27.3944   20.0982 C   0  0  0  0  0  0
  -25.5942  -33.8607   24.2319 N   0  0  0  0  0  0
  -23.4085  -30.4903   21.5487 C   0  0  2  0  0  0
  -24.8527  -28.9565   20.1100 C   0  0  0  0  0  0
  -22.7436  -29.4649   22.4959 C   0  0  0  0  0  0
  -18.0282  -28.1369   22.8485 C   0  0  0  0  0  0
  -24.1491  -36.7298   23.2634 C   0  0  0  0  0  0
  -25.9421  -30.8203   21.3651 C   0  0  0  0  0  0
  -26.0168  -29.4530   20.7085 C   0  0  0  0  0  0
  -27.2059  -28.6817   20.6957 C   0  0  0  0  0  0
  -26.0419  -26.9276   19.4853 C   0  0  0  0  0  0
  -24.8633  -27.6955   19.4928 C   0  0  0  0  0  0
  -23.6179  -29.8280   20.1614 C   0  0  0  0  0  0
  -25.4112  -36.3098   24.0331 C   0  0  1  0  0  0
  -20.5881  -28.3664   23.1291 C   0  0  2  0  0  0
  -20.6775  -26.9388   22.5407 C   0  0  0  0  0  0
  -19.5750  -26.6371   21.5212 C   0  0  0  0  0  0
  -18.1926  -26.7912   22.1619 C   0  0  0  0  0  0
  -19.1536  -28.8839   23.2884 C   0  0  0  0  0  0
  -18.9464  -30.1449   23.8888 C   0  0  0  0  0  0
  -17.6464  -30.6573   24.0572 C   0  0  0  0  0  0
  -25.9048  -34.9464   23.5111 C   0  0  0  0  0  0
  -16.5354  -29.9070   23.6331 C   0  0  0  0  0  0
  -16.7273  -28.6494   23.0336 C   0  0  0  0  0  0
  -26.4489  -31.6582   25.0718 C   0  0  0  0  0  0
  -25.3753  -31.3675   26.1466 C   0  0  0  0  0  0
  -27.0326  -30.3027   24.6097 C   0  0  0  0  0  0
  -27.6072  -32.4293   25.7467 C   0  0  0  0  0  0
  -27.5590  -37.1782   24.8453 C   0  0  0  0  0  0
  -21.4160  -29.3035   22.3702 N   0  0  0  0  0  0
  -26.4280  -37.3799   23.9428 N   0  0  0  0  0  0
  -24.6750  -31.0737   22.0984 N   0  0  0  0  0  0
  -23.4194  -28.8181   23.3002 O   0  0  0  0  0  0
  -28.3910  -26.6291   20.1396 O   0  0  0  0  0  0
  -26.5600  -34.8921   22.4664 O   0  0  0  0  0  0
  -23.5377  -32.1418   23.7454 O   0  0  0  0  0  0
  -29.9089  -20.5004   19.8304 C   0  0  0  0  0  0
  -29.2455  -21.7391   20.0135 C   0  0  0  0  0  0
  -29.2291  -19.3137   20.2006 C   0  0  0  0  0  0
  -27.4474  -20.6092   20.8677 C   0  0  0  0  0  0
  -26.0857  -20.7532   23.0032 C   0  0  0  0  0  0
  -30.6829  -17.8254   18.6871 C   0  0  0  0  0  0
  -29.8018  -23.0607   19.4502 C   0  0  0  0  0  0
  -26.0573  -20.6586   21.4723 C   0  0  0  0  0  0
  -29.5493  -24.3946   20.2343 C   0  0  0  0  0  0
  -30.2010  -17.0080   21.0731 C   0  0  0  0  0  0
  -28.3092  -25.2235   19.7895 C   0  0  0  0  0  0
  -29.6932  -17.8659   19.8643 C   0  0  1  0  0  0
  -28.0026  -21.7685   20.5274 N   0  0  0  0  0  0
  -28.0000  -19.4059   20.7429 N   0  0  0  0  0  0
  -29.9041  -15.5532   20.9745 N   0  0  0  0  0  0
  -31.4755  -12.4582   19.1180 H   0  0  0  0  0  0
  -30.3603  -11.3336   19.8425 H   0  0  0  0  0  0
  -29.7453  -11.7633   17.4419 H   0  0  0  0  0  0
  -29.6522  -13.4791   17.7517 H   0  0  0  0  0  0
  -27.8418  -11.2960   18.8375 H   0  0  0  0  0  0
  -27.3669  -12.6045   17.7884 H   0  0  0  0  0  0
  -27.6929  -14.2482   19.5478 H   0  0  0  0  0  0
  -28.6975  -11.9848   21.3460 H   0  0  0  0  0  0
  -28.4640  -13.6269   21.8592 H   0  0  0  0  0  0
  -25.2755   -9.5685   22.4739 H   0  0  0  0  0  0
  -23.9995   -7.4638   22.7472 H   0  0  0  0  0  0
  -21.0831   -8.8748   19.8948 H   0  0  0  0  0  0
  -22.3674  -10.9655   19.6147 H   0  0  0  0  0  0
  -21.2012   -7.6146   23.9705 H   0  0  0  0  0  0
  -21.1472   -6.0525   25.9069 H   0  0  0  0  0  0
  -22.0607   -2.7609   23.2849 H   0  0  0  0  0  0
  -22.4141  -11.9890   22.4775 H   0  0  0  0  0  0
  -21.1115  -13.1228   22.2589 H   0  0  0  0  0  0
  -24.6660  -15.8421   20.5160 H   0  0  0  0  0  0
  -26.2849  -15.6261   20.0896 H   0  0  0  0  0  0
  -26.7139  -32.5492   23.1147 H   0  0  0  0  0  0
  -25.0157  -33.9781   25.0516 H   0  0  0  0  0  0
  -22.6989  -31.3083   21.4108 H   0  0  0  0  0  0
  -23.3759  -35.9626   23.3282 H   0  0  0  0  0  0
  -24.3597  -36.8922   22.2055 H   0  0  0  0  0  0
  -23.7224  -37.6491   23.6654 H   0  0  0  0  0  0
  -26.0611  -31.5859   20.5967 H   0  0  0  0  0  0
  -26.8275  -30.8686   21.9868 H   0  0  0  0  0  0
  -28.1035  -29.0617   21.1629 H   0  0  0  0  0  0
  -25.9979  -25.9665   18.9954 H   0  0  0  0  0  0
  -23.9694  -27.3103   19.0212 H   0  0  0  0  0  0
  -23.7282  -30.6075   19.4061 H   0  0  0  0  0  0
  -22.7409  -29.2509   19.8613 H   0  0  0  0  0  0
  -25.1270  -36.1959   25.0818 H   0  0  0  0  0  0
  -20.9990  -28.3231   24.1406 H   0  0  0  0  0  0
  -20.5686  -26.2256   23.3592 H   0  0  0  0  0  0
  -21.6636  -26.7415   22.1191 H   0  0  0  0  0  0
  -19.6903  -25.6286   21.1220 H   0  0  0  0  0  0
  -19.6695  -27.3206   20.6763 H   0  0  0  0  0  0
  -17.4197  -26.6681   21.4020 H   0  0  0  0  0  0
  -18.0323  -26.0044   22.9005 H   0  0  0  0  0  0
  -19.7948  -30.7283   24.2224 H   0  0  0  0  0  0
  -17.5014  -31.6252   24.5176 H   0  0  0  0  0  0
  -15.5353  -30.2974   23.7649 H   0  0  0  0  0  0
  -15.8671  -28.0828   22.7019 H   0  0  0  0  0  0
  -24.5967  -30.6974   25.7806 H   0  0  0  0  0  0
  -24.8912  -32.2821   26.4901 H   0  0  0  0  0  0
  -25.8123  -30.8873   27.0233 H   0  0  0  0  0  0
  -26.2881  -29.6783   24.1154 H   0  0  0  0  0  0
  -27.4102  -29.7262   25.4553 H   0  0  0  0  0  0
  -27.8704  -30.4333   23.9242 H   0  0  0  0  0  0
  -27.2713  -33.3600   26.2047 H   0  0  0  0  0  0
  -28.3877  -32.6833   25.0281 H   0  0  0  0  0  0
  -28.0745  -31.8409   26.5373 H   0  0  0  0  0  0
  -28.2540  -38.0147   24.7601 H   0  0  0  0  0  0
  -28.1138  -36.2678   24.6136 H   0  0  0  0  0  0
  -27.2316  -37.1267   25.8853 H   0  0  0  0  0  0
  -20.9308  -29.8760   21.6940 H   0  0  0  0  0  0
  -26.0156  -38.2852   24.1517 H   0  0  0  0  0  0
  -30.8764  -20.4649   19.3490 H   0  0  0  0  0  0
  -25.0743  -20.7763   23.4066 H   0  0  0  0  0  0
  -26.6034  -21.6552   23.3276 H   0  0  0  0  0  0
  -26.6020  -19.8955   23.4350 H   0  0  0  0  0  0
  -30.2740  -18.3381   17.8168 H   0  0  0  0  0  0
  -30.9014  -16.8009   18.3882 H   0  0  0  0  0  0
  -31.6282  -18.3031   18.9443 H   0  0  0  0  0  0
  -29.4674  -23.1656   18.4189 H   0  0  0  0  0  0
  -30.8816  -22.9294   19.3825 H   0  0  0  0  0  0
  -25.5051  -19.7686   21.1661 H   0  0  0  0  0  0
  -25.5129  -21.5085   21.0594 H   0  0  0  0  0  0
  -30.4148  -25.0302   20.0476 H   0  0  0  0  0  0
  -29.5426  -24.2221   21.3102 H   0  0  0  0  0  0
  -29.6933  -17.3540   21.9753 H   0  0  0  0  0  0
  -31.2643  -17.1832   21.2503 H   0  0  0  0  0  0
  -27.4260  -24.7615   20.2349 H   0  0  0  0  0  0
  -28.2013  -25.1590   18.7067 H   0  0  0  0  0  0
  -28.7903  -17.3726   19.4996 H   0  0  0  0  0  0
  -28.9746  -15.2842   21.2597 H   0  0  0  0  0  0
  1 25  1  0  0  0
  1 30  2  0  0  0
  1 85  1  0  0  0
  2  3  1  0  0  0
  2 25  1  0  0  0
  2 86  1  0  0  0
  2 87  1  0  0  0
  3  4  1  0  0  0
  3 88  1  0  0  0
  3 89  1  0  0  0
  4  5  1  0  0  0
  4 90  1  0  0  0
  4 91  1  0  0  0
  5  6  1  0  0  0
  5 26  1  0  0  0
  5 92  1  0  0  0
  6 25  1  0  0  0
  6 93  1  0  0  0
  6 94  1  0  0  0
  7  8  2  0  0  0
  7 26  1  0  0  0
  7 29  1  0  0  0
  8  9  1  0  0  0
  8 22  1  0  0  0
  9 10  1  0  0  0
  9 27  2  0  0  0
 10 11  2  0  0  0
 10 15  1  0  0  0
 11 12  1  0  0  0
 11 95  1  0  0  0
 12 13  2  0  0  0
 12 96  1  0  0  0
 13 14  1  0  0  0
 13 31  1  0  0  0
 14 15  2  0  0  0
 14 97  1  0  0  0
 15 98  1  0  0  0
 16 17  2  0  0  0
 16 21  1  0  0  0
 16 31  1  0  0  0
 17 18  1  0  0  0
 17 99  1  0  0  0
 18 19  2  0  0  0
 18100  1  0  0  0
 19 20  1  0  0  0
 19 24  1  0  0  0
 20 21  2  0  0  0
 20101  1  0  0  0
 21 23  1  0  0  0
 22 28  1  0  0  0
 22 32  2  0  0  0
 26 27  1  0  0  0
 28102  1  0  0  0
 28103  1  0  0  0
 29104  1  0  0  0
 29105  1  0  0  0
 33 34  1  0  0  0
 33 66  1  0  0  0
 33 70  2  0  0  0
 34 36  1  0  0  0
 34 59  1  0  0  0
 34106  1  0  0  0
 35 44  2  0  0  0
 35 45  1  0  0  0
 35 68  1  0  0  0
 36 56  1  0  0  0
 36107  1  0  0  0
 37 39  1  0  0  0
 37 47  1  0  0  0
 37 66  1  0  0  0
 37108  1  0  0  0
 38 43  2  0  0  0
 38 46  1  0  0  0
 38 47  1  0  0  0
 39 64  1  0  0  0
 39 67  2  0  0  0
 40 52  1  0  0  0
 40 53  2  0  0  0
 40 58  1  0  0  0
 41109  1  0  0  0
 41110  1  0  0  0
 41111  1  0  0  0
 41 48  1  0  0  0
 42 43  1  0  0  0
 42 66  1  0  0  0
 42112  1  0  0  0
 42113  1  0  0  0
 43 44  1  0  0  0
 44114  1  0  0  0
 45 46  2  0  0  0
 45115  1  0  0  0
 46116  1  0  0  0
 47117  1  0  0  0
 47118  1  0  0  0
 48 56  1  0  0  0
 48 65  1  0  0  0
 48119  1  0  0  0
 49 50  1  0  0  0
 49 53  1  0  0  0
 49 64  1  0  0  0
 49120  1  0  0  0
 50 51  1  0  0  0
 50121  1  0  0  0
 50122  1  0  0  0
 51 52  1  0  0  0
 51123  1  0  0  0
 51124  1  0  0  0
 52125  1  0  0  0
 52126  1  0  0  0
 53 54  1  0  0  0
 54 55  2  0  0  0
 54127  1  0  0  0
 55 57  1  0  0  0
 55128  1  0  0  0
 56 69  2  0  0  0
 57 58  2  0  0  0
 57129  1  0  0  0
 58130  1  0  0  0
 59 60  1  0  0  0
 59 61  1  0  0  0
 59 62  1  0  0  0
 60131  1  0  0  0
 60132  1  0  0  0
 60133  1  0  0  0
 61134  1  0  0  0
 61135  1  0  0  0
 61136  1  0  0  0
 62137  1  0  0  0
 62138  1  0  0  0
 62139  1  0  0  0
 63 65  1  0  0  0
 63140  1  0  0  0
 63141  1  0  0  0
 63142  1  0  0  0
 64143  1  0  0  0
 65144  1  0  0  0
 68 81  1  0  0  0
 71 72  2  0  0  0
 71 73  1  0  0  0
 71145  1  0  0  0
 72 77  1  0  0  0
 72 83  1  0  0  0
 73 82  1  0  0  0
 73 84  2  0  0  0
 74 78  1  0  0  0
 74 83  2  0  0  0
 74 84  1  0  0  0
 75 78  1  0  0  0
 75146  1  0  0  0
 75147  1  0  0  0
 75148  1  0  0  0
 76149  1  0  0  0
 76150  1  0  0  0
 76151  1  0  0  0
 76 82  1  0  0  0
 77 79  1  0  0  0
 77152  1  0  0  0
 77153  1  0  0  0
 78154  1  0  0  0
 78155  1  0  0  0
 79 81  1  0  0  0
 79156  1  0  0  0
 79157  1  0  0  0
 80 82  1  0  0  0
 80 85  1  0  0  0
 80158  1  0  0  0
 80159  1  0  0  0
 81160  1  0  0  0
 81161  1  0  0  0
 82162  1  0  0  0
 85163  1  0  0  0
M  ISO  4   1 100  68 101  81 101  85 100
M  END
> <chiral flag>
0

> <version>
0

> <s_m_source_file>
/data/baiqing/PycharmProjects/Reinvent-master-3.2/result/LINK_invent/BTK/process_docking_weight1_custom_sum_contain_oxygen_bond_distance_aromatic_linkinvent_7_9_3/rearranged_h_0072.sdf

> <i_m_source_file_index>
59

> <r_mmod_Potential_Energy-OPLS-2005>
-522.335510253906

> <r_mmod_Stretch_Energy-OPLS-2005>
46.902172088623

> <r_mmod_Bend_Energy-OPLS-2005>
115.867835998535

> <r_mmod_Torsional_Energy-OPLS-2005>
195.993362426758

> <r_mmod_Improper_Torsional_Energy-OPLS-2005>
5.23202133178711

> <r_mmod_Van_der_Waal_Energy-OPLS-2005>
152.581985473633

> <r_mmod_Electrostatic_Energy-OPLS-2005>
-838.201843261719

> <r_mmod_Solvation_Energy-OPLS-2005>
-222.418228149414

> <b_mmod_Minimization_Converged-OPLS-2005>
0

> <r_mmod_RMS_Derivative-OPLS-2005>
1.76236474514008

$$$$
60
                    3D
 Structure written by MMmdl.
169177  0  0  1  0            999 V2000
  -30.6754  -14.6014   20.5616 C   0  0  0  0  0  0
  -30.4251  -12.3849   19.4465 C   0  0  0  0  0  0
  -29.4946  -12.5005   18.2207 C   0  0  0  0  0  0
  -28.0196  -12.3177   18.6323 C   0  0  0  0  0  0
  -27.6464  -13.1789   19.8644 C   0  0  2  0  0  0
  -28.7003  -13.0110   20.9857 C   0  0  0  0  0  0
  -25.2540  -13.8068   20.5665 C   0  0  0  0  0  0
  -24.1792  -13.0378   20.9205 C   0  0  0  0  0  0
  -24.6342  -11.6848   20.8791 C   0  0  0  0  0  0
  -23.9017  -10.4266   21.0462 C   0  0  0  0  0  0
  -24.3595   -9.4176   21.9211 C   0  0  0  0  0  0
  -23.6282   -8.2209   22.0760 C   0  0  0  0  0  0
  -22.4264   -8.0266   21.3551 C   0  0  0  0  0  0
  -21.9899   -9.0243   20.4652 C   0  0  0  0  0  0
  -22.7214  -10.2123   20.3076 C   0  0  0  0  0  0
  -21.6825   -6.0741   22.5290 C   0  0  0  0  0  0
  -21.4001   -6.5650   23.8227 C   0  0  0  0  0  0
  -21.3661   -5.6799   24.9193 C   0  0  0  0  0  0
  -21.6036   -4.3064   24.7234 C   0  0  0  0  0  0
  -21.8829   -3.8159   23.4355 C   0  0  0  0  0  0
  -21.9189   -4.6971   22.3410 C   0  0  0  0  0  0
  -22.7833  -13.5215   21.1880 C   0  0  0  0  0  0
  -22.1655   -4.2161   21.0986 F   0  0  0  0  0  0
  -21.5637   -3.4546   25.7738 F   0  0  0  0  0  0
  -30.0021  -13.4058   20.4355 N   0  0  0  0  0  0
  -26.2936  -12.9171   20.3357 N   0  0  0  0  0  0
  -25.9250  -11.6372   20.5823 N   0  0  0  0  0  0
  -22.0474  -12.8208   22.0431 N   0  0  0  0  0  0
  -25.4209  -15.1777   20.3999 N   0  0  0  0  0  0
  -31.8199  -14.6526   20.0979 O   0  0  0  0  0  0
  -21.6613   -6.8877   21.4250 O   0  0  0  0  0  0
  -22.3536  -14.5533   20.6746 O   0  0  0  0  0  0
  -24.6156  -31.8648   23.2071 C   0  0  0  0  0  0
  -25.9042  -32.4800   23.8372 C   0  0  1  0  0  0
  -27.2387  -27.3965   20.1061 C   0  0  0  0  0  0
  -25.5892  -33.8604   24.2295 N   0  0  0  0  0  0
  -23.4063  -30.4864   21.5468 C   0  0  2  0  0  0
  -24.8546  -28.9459   20.1101 C   0  0  0  0  0  0
  -22.7417  -29.4633   22.4972 C   0  0  0  0  0  0
  -18.0268  -28.1380   22.8490 C   0  0  0  0  0  0
  -24.1493  -36.7307   23.2640 C   0  0  0  0  0  0
  -25.9373  -30.8165   21.3694 C   0  0  0  0  0  0
  -26.0122  -29.4481   20.7159 C   0  0  0  0  0  0
  -27.2008  -28.6783   20.7141 C   0  0  0  0  0  0
  -26.0620  -26.9183   19.4875 C   0  0  0  0  0  0
  -24.8768  -27.6827   19.4911 C   0  0  0  0  0  0
  -23.6164  -29.8156   20.1617 C   0  0  0  0  0  0
  -25.4118  -36.3101   24.0336 C   0  0  1  0  0  0
  -20.5861  -28.3665   23.1318 C   0  0  2  0  0  0
  -20.6767  -26.9401   22.5427 C   0  0  0  0  0  0
  -19.5744  -26.6384   21.5222 C   0  0  0  0  0  0
  -18.1916  -26.7925   22.1624 C   0  0  0  0  0  0
  -19.1520  -28.8836   23.2898 C   0  0  0  0  0  0
  -18.9447  -30.1450   23.8906 C   0  0  0  0  0  0
  -17.6456  -30.6583   24.0565 C   0  0  0  0  0  0
  -25.9043  -34.9467   23.5115 C   0  0  0  0  0  0
  -16.5342  -29.9089   23.6333 C   0  0  0  0  0  0
  -16.7261  -28.6505   23.0349 C   0  0  0  0  0  0
  -26.4468  -31.6591   25.0710 C   0  0  0  0  0  0
  -25.3724  -31.3712   26.1448 C   0  0  0  0  0  0
  -27.0308  -30.3026   24.6121 C   0  0  0  0  0  0
  -27.6037  -32.4323   25.7468 C   0  0  0  0  0  0
  -27.5590  -37.1806   24.8459 C   0  0  0  0  0  0
  -21.4140  -29.3022   22.3709 N   0  0  0  0  0  0
  -26.4299  -37.3791   23.9408 N   0  0  0  0  0  0
  -24.6709  -31.0721   22.0985 N   0  0  0  0  0  0
  -23.4170  -28.8184   23.3030 O   0  0  0  0  0  0
  -28.4163  -26.6647   20.1668 O   0  0  0  0  0  0
  -26.5616  -34.8931   22.4683 O   0  0  0  0  0  0
  -23.5346  -32.1419   23.7444 O   0  0  0  0  0  0
  -28.4666  -19.7139   18.7940 C   0  0  0  0  0  0
  -28.8553  -18.4212   18.9987 C   0  0  0  0  0  0
  -29.3540  -20.5009   19.5815 C   0  0  0  0  0  0
  -32.1244  -17.7330   20.7907 C   0  0  0  0  0  0
  -31.0342  -22.3681   19.6473 C   0  0  0  0  0  0
  -29.1357  -22.4743   18.0679 C   0  0  0  0  0  0
  -28.5554  -16.1493   21.0830 C   0  0  0  0  0  0
  -27.8750  -24.1409   20.1976 C   0  0  0  0  0  0
  -28.7156  -22.8566   20.5813 C   0  0  0  0  0  0
  -28.5634  -25.3752   19.5265 C   0  0  0  0  0  0
  -30.7338  -17.2410   20.3146 C   0  0  1  0  0  0
  -29.5314  -22.0432   19.5003 C   0  0  0  0  0  0
  -30.0999  -15.9909   21.1386 C   0  0  2  0  0  0
  -30.4764  -16.0567   22.6548 C   0  0  0  0  0  0
  -30.1175  -19.6978   20.3445 N   0  0  0  0  0  0
  -29.8677  -18.4073   19.9391 N   0  0  0  0  0  0
  -31.7762  -15.8608   22.8868 F   0  0  0  0  0  0
  -29.8316  -15.1082   23.3356 F   0  0  0  0  0  0
  -30.1353  -17.2335   23.1835 F   0  0  0  0  0  0
  -31.4635  -12.4898   19.1304 H   0  0  0  0  0  0
  -30.3655  -11.3857   19.8795 H   0  0  0  0  0  0
  -29.7689  -11.7572   17.4693 H   0  0  0  0  0  0
  -29.6268  -13.4756   17.7505 H   0  0  0  0  0  0
  -27.8647  -11.2619   18.8568 H   0  0  0  0  0  0
  -27.3637  -12.5490   17.7924 H   0  0  0  0  0  0
  -27.6567  -14.1926   19.4895 H   0  0  0  0  0  0
  -28.7337  -11.9641   21.2868 H   0  0  0  0  0  0
  -28.4556  -13.5182   21.9120 H   0  0  0  0  0  0
  -25.2747   -9.5647   22.4776 H   0  0  0  0  0  0
  -24.0003   -7.4591   22.7455 H   0  0  0  0  0  0
  -21.0848   -8.8769   19.8934 H   0  0  0  0  0  0
  -22.3698  -10.9684   19.6192 H   0  0  0  0  0  0
  -21.1976   -7.6150   23.9731 H   0  0  0  0  0  0
  -21.1473   -6.0529   25.9098 H   0  0  0  0  0  0
  -22.0599   -2.7620   23.2842 H   0  0  0  0  0  0
  -22.4072  -11.9844   22.4786 H   0  0  0  0  0  0
  -21.1096  -13.1240   22.2653 H   0  0  0  0  0  0
  -24.6522  -15.8288   20.5111 H   0  0  0  0  0  0
  -26.2713  -15.6222   20.0839 H   0  0  0  0  0  0
  -26.7097  -32.5502   23.1123 H   0  0  0  0  0  0
  -25.0039  -33.9762   25.0435 H   0  0  0  0  0  0
  -22.6952  -31.3025   21.4056 H   0  0  0  0  0  0
  -23.3764  -35.9632   23.3297 H   0  0  0  0  0  0
  -24.3579  -36.8930   22.2054 H   0  0  0  0  0  0
  -23.7242  -37.6509   23.6661 H   0  0  0  0  0  0
  -26.0609  -31.5817   20.6021 H   0  0  0  0  0  0
  -26.8207  -30.8649   21.9944 H   0  0  0  0  0  0
  -28.0908  -29.0585   21.1961 H   0  0  0  0  0  0
  -26.0381  -25.9507   19.0093 H   0  0  0  0  0  0
  -23.9870  -27.2910   19.0175 H   0  0  0  0  0  0
  -23.7224  -30.5893   19.4005 H   0  0  0  0  0  0
  -22.7412  -29.2329   19.8683 H   0  0  0  0  0  0
  -25.1298  -36.1965   25.0832 H   0  0  0  0  0  0
  -20.9951  -28.3246   24.1438 H   0  0  0  0  0  0
  -20.5687  -26.2271   23.3613 H   0  0  0  0  0  0
  -21.6637  -26.7454   22.1209 H   0  0  0  0  0  0
  -19.6915  -25.6301   21.1238 H   0  0  0  0  0  0
  -19.6696  -27.3204   20.6760 H   0  0  0  0  0  0
  -17.4201  -26.6680   21.4013 H   0  0  0  0  0  0
  -18.0308  -26.0060   22.9008 H   0  0  0  0  0  0
  -19.7928  -30.7257   24.2278 H   0  0  0  0  0  0
  -17.5013  -31.6266   24.5162 H   0  0  0  0  0  0
  -15.5346  -30.2993   23.7658 H   0  0  0  0  0  0
  -15.8655  -28.0832   22.7060 H   0  0  0  0  0  0
  -24.5885  -30.7081   25.7775 H   0  0  0  0  0  0
  -24.8933  -32.2875   26.4901 H   0  0  0  0  0  0
  -25.8063  -30.8864   27.0198 H   0  0  0  0  0  0
  -26.2865  -29.6777   24.1171 H   0  0  0  0  0  0
  -27.4053  -29.7279   25.4600 H   0  0  0  0  0  0
  -27.8710  -30.4329   23.9297 H   0  0  0  0  0  0
  -27.2642  -33.3603   26.2079 H   0  0  0  0  0  0
  -28.3820  -32.6914   25.0279 H   0  0  0  0  0  0
  -28.0732  -31.8428   26.5350 H   0  0  0  0  0  0
  -28.2599  -38.0110   24.7527 H   0  0  0  0  0  0
  -28.1092  -36.2645   24.6262 H   0  0  0  0  0  0
  -27.2303  -37.1432   25.8857 H   0  0  0  0  0  0
  -20.9305  -29.8723   21.6910 H   0  0  0  0  0  0
  -26.0188  -38.2869   24.1413 H   0  0  0  0  0  0
  -27.7252  -20.0493   18.0821 H   0  0  0  0  0  0
  -28.5243  -17.5197   18.5031 H   0  0  0  0  0  0
  -32.8438  -16.9198   20.8782 H   0  0  0  0  0  0
  -32.0645  -18.2343   21.7559 H   0  0  0  0  0  0
  -32.5495  -18.4453   20.0825 H   0  0  0  0  0  0
  -31.6239  -21.8622   18.8819 H   0  0  0  0  0  0
  -31.4208  -22.0427   20.6140 H   0  0  0  0  0  0
  -31.2324  -23.4356   19.5653 H   0  0  0  0  0  0
  -29.6578  -21.8699   17.3236 H   0  0  0  0  0  0
  -29.4051  -23.5056   17.8538 H   0  0  0  0  0  0
  -28.0663  -22.3628   17.8883 H   0  0  0  0  0  0
  -28.2549  -17.1272   21.4593 H   0  0  0  0  0  0
  -27.9972  -15.4734   21.7166 H   0  0  0  0  0  0
  -28.1782  -16.0762   20.0725 H   0  0  0  0  0  0
  -27.3872  -24.4911   21.1077 H   0  0  0  0  0  0
  -27.0486  -23.8269   19.5595 H   0  0  0  0  0  0
  -27.9952  -22.1624   21.0158 H   0  0  0  0  0  0
  -29.3703  -23.1038   21.4176 H   0  0  0  0  0  0
  -28.2484  -25.4587   18.4846 H   0  0  0  0  0  0
  -29.6360  -25.1918   19.4860 H   0  0  0  0  0  0
  -30.9504  -16.8286   19.3277 H   0  0  0  0  0  0
  1 25  1  0  0  0
  1 30  2  0  0  0
  1 83  1  0  0  0
  2  3  1  0  0  0
  2 25  1  0  0  0
  2 90  1  0  0  0
  2 91  1  0  0  0
  3  4  1  0  0  0
  3 92  1  0  0  0
  3 93  1  0  0  0
  4  5  1  0  0  0
  4 94  1  0  0  0
  4 95  1  0  0  0
  5  6  1  0  0  0
  5 26  1  0  0  0
  5 96  1  0  0  0
  6 25  1  0  0  0
  6 97  1  0  0  0
  6 98  1  0  0  0
  7  8  2  0  0  0
  7 26  1  0  0  0
  7 29  1  0  0  0
  8  9  1  0  0  0
  8 22  1  0  0  0
  9 10  1  0  0  0
  9 27  2  0  0  0
 10 11  2  0  0  0
 10 15  1  0  0  0
 11 12  1  0  0  0
 11 99  1  0  0  0
 12 13  2  0  0  0
 12100  1  0  0  0
 13 14  1  0  0  0
 13 31  1  0  0  0
 14 15  2  0  0  0
 14101  1  0  0  0
 15102  1  0  0  0
 16 17  2  0  0  0
 16 21  1  0  0  0
 16 31  1  0  0  0
 17 18  1  0  0  0
 17103  1  0  0  0
 18 19  2  0  0  0
 18104  1  0  0  0
 19 20  1  0  0  0
 19 24  1  0  0  0
 20 21  2  0  0  0
 20105  1  0  0  0
 21 23  1  0  0  0
 22 28  1  0  0  0
 22 32  2  0  0  0
 26 27  1  0  0  0
 28106  1  0  0  0
 28107  1  0  0  0
 29108  1  0  0  0
 29109  1  0  0  0
 33 34  1  0  0  0
 33 66  1  0  0  0
 33 70  2  0  0  0
 34 36  1  0  0  0
 34 59  1  0  0  0
 34110  1  0  0  0
 35 44  2  0  0  0
 35 45  1  0  0  0
 35 68  1  0  0  0
 36 56  1  0  0  0
 36111  1  0  0  0
 37 39  1  0  0  0
 37 47  1  0  0  0
 37 66  1  0  0  0
 37112  1  0  0  0
 38 43  2  0  0  0
 38 46  1  0  0  0
 38 47  1  0  0  0
 39 64  1  0  0  0
 39 67  2  0  0  0
 40 52  1  0  0  0
 40 53  2  0  0  0
 40 58  1  0  0  0
 41113  1  0  0  0
 41114  1  0  0  0
 41115  1  0  0  0
 41 48  1  0  0  0
 42 43  1  0  0  0
 42 66  1  0  0  0
 42116  1  0  0  0
 42117  1  0  0  0
 43 44  1  0  0  0
 44118  1  0  0  0
 45 46  2  0  0  0
 45119  1  0  0  0
 46120  1  0  0  0
 47121  1  0  0  0
 47122  1  0  0  0
 48 56  1  0  0  0
 48 65  1  0  0  0
 48123  1  0  0  0
 49 50  1  0  0  0
 49 53  1  0  0  0
 49 64  1  0  0  0
 49124  1  0  0  0
 50 51  1  0  0  0
 50125  1  0  0  0
 50126  1  0  0  0
 51 52  1  0  0  0
 51127  1  0  0  0
 51128  1  0  0  0
 52129  1  0  0  0
 52130  1  0  0  0
 53 54  1  0  0  0
 54 55  2  0  0  0
 54131  1  0  0  0
 55 57  1  0  0  0
 55132  1  0  0  0
 56 69  2  0  0  0
 57 58  2  0  0  0
 57133  1  0  0  0
 58134  1  0  0  0
 59 60  1  0  0  0
 59 61  1  0  0  0
 59 62  1  0  0  0
 60135  1  0  0  0
 60136  1  0  0  0
 60137  1  0  0  0
 61138  1  0  0  0
 61139  1  0  0  0
 61140  1  0  0  0
 62141  1  0  0  0
 62142  1  0  0  0
 62143  1  0  0  0
 63 65  1  0  0  0
 63144  1  0  0  0
 63145  1  0  0  0
 63146  1  0  0  0
 64147  1  0  0  0
 65148  1  0  0  0
 68 80  1  0  0  0
 71 72  2  0  0  0
 71 73  1  0  0  0
 71149  1  0  0  0
 72 86  1  0  0  0
 72150  1  0  0  0
 73 82  1  0  0  0
 73 85  2  0  0  0
 74151  1  0  0  0
 74152  1  0  0  0
 74153  1  0  0  0
 74 81  1  0  0  0
 75154  1  0  0  0
 75155  1  0  0  0
 75156  1  0  0  0
 75 82  1  0  0  0
 76 82  1  0  0  0
 76157  1  0  0  0
 76158  1  0  0  0
 76159  1  0  0  0
 77160  1  0  0  0
 77161  1  0  0  0
 77162  1  0  0  0
 77 83  1  0  0  0
 78 79  1  0  0  0
 78 80  1  0  0  0
 78163  1  0  0  0
 78164  1  0  0  0
 79 82  1  0  0  0
 79165  1  0  0  0
 79166  1  0  0  0
 80167  1  0  0  0
 80168  1  0  0  0
 81 83  1  0  0  0
 81 86  1  0  0  0
 81169  1  0  0  0
 83 84  1  0  0  0
 84 87  1  0  0  0
 84 88  1  0  0  0
 84 89  1  0  0  0
 85 86  1  0  0  0
M  ISO  4   1 100  68 101  80 101  83 100
M  END
> <chiral flag>
0

> <version>
0

> <s_m_source_file>
/data/baiqing/PycharmProjects/Reinvent-master-3.2/result/LINK_invent/BTK/process_docking_weight1_custom_sum_contain_oxygen_bond_distance_aromatic_linkinvent_7_9_3/rearranged_h_0072.sdf

> <i_m_source_file_index>
60

> <r_mmod_Potential_Energy-OPLS-2005>
141.28401184082

> <r_mmod_Stretch_Energy-OPLS-2005>
78.2003707885742

> <r_mmod_Bend_Energy-OPLS-2005>
183.250640869141

> <r_mmod_Torsional_Energy-OPLS-2005>
219.256011962891

> <r_mmod_Improper_Torsional_Energy-OPLS-2005>
3.73932766914368

> <r_mmod_Van_der_Waal_Energy-OPLS-2005>
161.348342895508

> <r_mmod_Electrostatic_Energy-OPLS-2005>
-346.586181640625

> <r_mmod_Solvation_Energy-OPLS-2005>
-185.896926879883

> <b_mmod_Minimization_Converged-OPLS-2005>
0

> <r_mmod_RMS_Derivative-OPLS-2005>
2.13658785820007

$$$$
61
                    3D
 Structure written by MMmdl.
172180  0  0  1  0            999 V2000
  -30.7441  -14.5316   20.6539 C   0  0  0  0  0  0
  -30.4274  -12.3700   19.4564 C   0  0  0  0  0  0
  -29.5186  -12.5365   18.2202 C   0  0  0  0  0  0
  -28.0344  -12.3715   18.5988 C   0  0  0  0  0  0
  -27.6571  -13.2170   19.8416 C   0  0  2  0  0  0
  -28.6838  -13.0115   20.9726 C   0  0  0  0  0  0
  -25.2585  -13.8185   20.5573 C   0  0  0  0  0  0
  -24.1860  -13.0429   20.9126 C   0  0  0  0  0  0
  -24.6441  -11.6914   20.8663 C   0  0  0  0  0  0
  -23.9107  -10.4296   21.0380 C   0  0  0  0  0  0
  -24.3677   -9.4220   21.9156 C   0  0  0  0  0  0
  -23.6351   -8.2253   22.0747 C   0  0  0  0  0  0
  -22.4306   -8.0305   21.3566 C   0  0  0  0  0  0
  -21.9950   -9.0252   20.4640 C   0  0  0  0  0  0
  -22.7282  -10.2125   20.3038 C   0  0  0  0  0  0
  -21.6851   -6.0788   22.5305 C   0  0  0  0  0  0
  -21.4008   -6.5674   23.8250 C   0  0  0  0  0  0
  -21.3650   -5.6814   24.9195 C   0  0  0  0  0  0
  -21.6038   -4.3077   24.7234 C   0  0  0  0  0  0
  -21.8824   -3.8190   23.4347 C   0  0  0  0  0  0
  -21.9196   -4.7017   22.3414 C   0  0  0  0  0  0
  -22.7867  -13.5208   21.1826 C   0  0  0  0  0  0
  -22.1653   -4.2209   21.0984 F   0  0  0  0  0  0
  -21.5619   -3.4547   25.7736 F   0  0  0  0  0  0
  -30.0240  -13.3696   20.4775 N   0  0  0  0  0  0
  -26.2994  -12.9367   20.3093 N   0  0  0  0  0  0
  -25.9345  -11.6523   20.5562 N   0  0  0  0  0  0
  -22.0512  -12.8190   22.0395 N   0  0  0  0  0  0
  -25.4284  -15.1902   20.4053 N   0  0  0  0  0  0
  -31.7853  -14.6714   20.0047 O   0  0  0  0  0  0
  -21.6646   -6.8924   21.4279 O   0  0  0  0  0  0
  -22.3505  -14.5473   20.6647 O   0  0  0  0  0  0
  -24.6210  -31.8645   23.2098 C   0  0  0  0  0  0
  -25.9079  -32.4800   23.8411 C   0  0  1  0  0  0
  -27.2112  -27.3753   20.0981 C   0  0  0  0  0  0
  -25.5931  -33.8600   24.2322 N   0  0  0  0  0  0
  -23.4110  -30.4924   21.5486 C   0  0  2  0  0  0
  -24.8561  -28.9629   20.1043 C   0  0  0  0  0  0
  -22.7433  -29.4655   22.4934 C   0  0  0  0  0  0
  -18.0273  -28.1401   22.8484 C   0  0  0  0  0  0
  -24.1498  -36.7297   23.2641 C   0  0  0  0  0  0
  -25.9494  -30.8117   21.3761 C   0  0  0  0  0  0
  -26.0240  -29.4476   20.7105 C   0  0  0  0  0  0
  -27.2093  -28.6621   20.7039 C   0  0  0  0  0  0
  -26.0331  -26.9428   19.4513 C   0  0  0  0  0  0
  -24.8597  -27.7132   19.4681 C   0  0  0  0  0  0
  -23.6208  -29.8330   20.1623 C   0  0  0  0  0  0
  -25.4123  -36.3097   24.0334 C   0  0  1  0  0  0
  -20.5876  -28.3696   23.1283 C   0  0  2  0  0  0
  -20.6770  -26.9422   22.5401 C   0  0  0  0  0  0
  -19.5740  -26.6395   21.5202 C   0  0  0  0  0  0
  -18.1921  -26.7951   22.1617 C   0  0  0  0  0  0
  -19.1531  -28.8859   23.2884 C   0  0  0  0  0  0
  -18.9463  -30.1465   23.8894 C   0  0  0  0  0  0
  -17.6464  -30.6599   24.0572 C   0  0  0  0  0  0
  -25.9049  -34.9463   23.5118 C   0  0  0  0  0  0
  -16.5351  -29.9098   23.6345 C   0  0  0  0  0  0
  -16.7262  -28.6522   23.0357 C   0  0  0  0  0  0
  -26.4498  -31.6607   25.0759 C   0  0  0  0  0  0
  -25.3751  -31.3698   26.1492 C   0  0  0  0  0  0
  -27.0365  -30.3047   24.6202 C   0  0  0  0  0  0
  -27.6060  -32.4360   25.7525 C   0  0  0  0  0  0
  -27.5585  -37.1801   24.8455 C   0  0  0  0  0  0
  -21.4158  -29.3055   22.3676 N   0  0  0  0  0  0
  -26.4297  -37.3790   23.9411 N   0  0  0  0  0  0
  -24.6786  -31.0718   22.1012 N   0  0  0  0  0  0
  -23.4172  -28.8176   23.2983 O   0  0  0  0  0  0
  -28.2984  -26.5105   20.1539 O   0  0  0  0  0  0
  -26.5594  -34.8910   22.4671 O   0  0  0  0  0  0
  -23.5388  -32.1410   23.7459 O   0  0  0  0  0  0
  -29.5615  -20.8697   20.6468 C   0  0  0  0  0  0
  -28.1778  -20.6331   19.0107 C   0  0  0  0  0  0
  -29.1983  -19.5283   20.5563 C   0  0  0  0  0  0
  -30.4175  -22.5418   17.2764 C   0  0  0  0  0  0
  -28.2417  -18.2974   22.4666 C   0  0  0  0  0  0
  -31.7626  -16.2722   22.1678 C   0  0  0  0  0  0
  -29.6026  -15.3616   22.8819 C   0  0  0  0  0  0
  -27.6630  -23.4486   18.4805 C   0  0  0  0  0  0
  -30.1802  -23.3828   18.5457 C   0  0  0  0  0  0
  -28.8994  -23.9678   20.6567 C   0  0  0  0  0  0
  -29.7400  -16.9645   20.8098 C   0  0  0  0  0  0
  -27.9747  -25.2367   20.7976 C   0  0  0  0  0  0
  -29.4515  -18.3563   21.5130 C   0  0  1  0  0  0
  -30.4003  -15.7596   21.6162 C   0  0  0  0  0  0
  -28.8892  -23.0688   19.3528 C   0  0  1  0  0  0
  -28.3047  -19.4014   19.4982 N   0  0  0  0  0  0
  -28.8523  -21.5983   19.6709 N   0  0  0  0  0  0
  -31.4718  -12.4602   19.1570 H   0  0  0  0  0  0
  -30.3435  -11.3619   19.8645 H   0  0  0  0  0  0
  -29.7957  -11.8212   17.4436 H   0  0  0  0  0  0
  -29.6806  -13.5273   17.7937 H   0  0  0  0  0  0
  -27.8511  -11.3139   18.7921 H   0  0  0  0  0  0
  -27.4071  -12.6376   17.7467 H   0  0  0  0  0  0
  -27.6935  -14.2602   19.5283 H   0  0  0  0  0  0
  -28.6779  -11.9666   21.2844 H   0  0  0  0  0  0
  -28.3463  -13.5494   21.8418 H   0  0  0  0  0  0
  -25.2839   -9.5686   22.4705 H   0  0  0  0  0  0
  -24.0071   -7.4653   22.7475 H   0  0  0  0  0  0
  -21.0886   -8.8782   19.8939 H   0  0  0  0  0  0
  -22.3766  -10.9670   19.6131 H   0  0  0  0  0  0
  -21.1989   -7.6180   23.9771 H   0  0  0  0  0  0
  -21.1443   -6.0530   25.9105 H   0  0  0  0  0  0
  -22.0607   -2.7657   23.2825 H   0  0  0  0  0  0
  -22.4155  -11.9895   22.4830 H   0  0  0  0  0  0
  -21.1101  -13.1169   22.2519 H   0  0  0  0  0  0
  -24.6644  -15.8474   20.5200 H   0  0  0  0  0  0
  -26.2890  -15.6349   20.1137 H   0  0  0  0  0  0
  -26.7146  -32.5500   23.1166 H   0  0  0  0  0  0
  -25.0109  -33.9786   25.0490 H   0  0  0  0  0  0
  -22.7027  -31.3127   21.4124 H   0  0  0  0  0  0
  -23.3767  -35.9616   23.3289 H   0  0  0  0  0  0
  -24.3579  -36.8940   22.2054 H   0  0  0  0  0  0
  -23.7236  -37.6488   23.6678 H   0  0  0  0  0  0
  -26.0826  -31.5849   20.6177 H   0  0  0  0  0  0
  -26.8291  -30.8501   22.0069 H   0  0  0  0  0  0
  -28.1043  -29.0208   21.1946 H   0  0  0  0  0  0
  -26.0051  -25.9895   18.9436 H   0  0  0  0  0  0
  -23.9655  -27.3405   18.9862 H   0  0  0  0  0  0
  -23.7258  -30.6103   19.4061 H   0  0  0  0  0  0
  -22.7440  -29.2557   19.8675 H   0  0  0  0  0  0
  -25.1301  -36.1952   25.0824 H   0  0  0  0  0  0
  -20.9978  -28.3283   24.1399 H   0  0  0  0  0  0
  -20.5675  -26.2308   23.3598 H   0  0  0  0  0  0
  -21.6642  -26.7460   22.1201 H   0  0  0  0  0  0
  -19.6908  -25.6299   21.1241 H   0  0  0  0  0  0
  -19.6693  -27.3189   20.6724 H   0  0  0  0  0  0
  -17.4199  -26.6706   21.4016 H   0  0  0  0  0  0
  -18.0311  -26.0093   22.9008 H   0  0  0  0  0  0
  -19.7934  -30.7289   24.2268 H   0  0  0  0  0  0
  -17.5017  -31.6282   24.5173 H   0  0  0  0  0  0
  -15.5352  -30.3005   23.7675 H   0  0  0  0  0  0
  -15.8664  -28.0840   22.7076 H   0  0  0  0  0  0
  -24.5938  -30.7036   25.7803 H   0  0  0  0  0  0
  -24.8927  -32.2844   26.4957 H   0  0  0  0  0  0
  -25.8110  -30.8848   27.0239 H   0  0  0  0  0  0
  -26.2936  -29.6764   24.1265 H   0  0  0  0  0  0
  -27.4111  -29.7339   25.4713 H   0  0  0  0  0  0
  -27.8789  -30.4347   23.9398 H   0  0  0  0  0  0
  -27.2664  -33.3666   26.2090 H   0  0  0  0  0  0
  -28.3871  -32.6917   25.0348 H   0  0  0  0  0  0
  -28.0725  -31.8496   26.5453 H   0  0  0  0  0  0
  -28.2578  -38.0127   24.7562 H   0  0  0  0  0  0
  -28.1125  -36.2664   24.6235 H   0  0  0  0  0  0
  -27.2304  -37.1380   25.8857 H   0  0  0  0  0  0
  -20.9314  -29.8790   21.6921 H   0  0  0  0  0  0
  -26.0177  -38.2860   24.1452 H   0  0  0  0  0  0
  -30.2124  -21.3678   21.3531 H   0  0  0  0  0  0
  -27.5503  -20.8219   18.1523 H   0  0  0  0  0  0
  -31.3608  -22.8181   16.8040 H   0  0  0  0  0  0
  -29.6345  -22.6950   16.5342 H   0  0  0  0  0  0
  -30.4720  -21.4748   17.4967 H   0  0  0  0  0  0
  -28.0624  -19.2758   22.9133 H   0  0  0  0  0  0
  -28.3632  -17.6097   23.2957 H   0  0  0  0  0  0
  -27.3355  -18.0145   21.9309 H   0  0  0  0  0  0
  -31.6511  -17.0223   22.9511 H   0  0  0  0  0  0
  -32.3773  -16.7285   21.3905 H   0  0  0  0  0  0
  -32.3453  -15.4572   22.6002 H   0  0  0  0  0  0
  -29.8087  -16.0251   23.7205 H   0  0  0  0  0  0
  -29.8670  -14.3678   23.2415 H   0  0  0  0  0  0
  -28.5260  -15.4128   22.7232 H   0  0  0  0  0  0
  -27.6852  -24.5021   18.2024 H   0  0  0  0  0  0
  -26.7231  -23.2587   19.0009 H   0  0  0  0  0  0
  -27.6212  -22.9026   17.5394 H   0  0  0  0  0  0
  -30.1856  -24.4396   18.2724 H   0  0  0  0  0  0
  -31.0462  -23.2448   19.1951 H   0  0  0  0  0  0
  -28.5709  -23.3200   21.4712 H   0  0  0  0  0  0
  -29.9171  -24.2368   20.9365 H   0  0  0  0  0  0
  -30.3989  -17.1800   19.9672 H   0  0  0  0  0  0
  -28.8171  -16.6196   20.3445 H   0  0  0  0  0  0
  -27.9434  -25.4715   21.8626 H   0  0  0  0  0  0
  -26.9573  -24.9104   20.5930 H   0  0  0  0  0  0
  -30.3254  -18.6169   22.1093 H   0  0  0  0  0  0
  1 25  1  0  0  0
  1 30  2  0  0  0
  1 84  1  0  0  0
  2  3  1  0  0  0
  2 25  1  0  0  0
  2 88  1  0  0  0
  2 89  1  0  0  0
  3  4  1  0  0  0
  3 90  1  0  0  0
  3 91  1  0  0  0
  4  5  1  0  0  0
  4 92  1  0  0  0
  4 93  1  0  0  0
  5  6  1  0  0  0
  5 26  1  0  0  0
  5 94  1  0  0  0
  6 25  1  0  0  0
  6 95  1  0  0  0
  6 96  1  0  0  0
  7  8  2  0  0  0
  7 26  1  0  0  0
  7 29  1  0  0  0
  8  9  1  0  0  0
  8 22  1  0  0  0
  9 10  1  0  0  0
  9 27  2  0  0  0
 10 11  2  0  0  0
 10 15  1  0  0  0
 11 12  1  0  0  0
 11 97  1  0  0  0
 12 13  2  0  0  0
 12 98  1  0  0  0
 13 14  1  0  0  0
 13 31  1  0  0  0
 14 15  2  0  0  0
 14 99  1  0  0  0
 15100  1  0  0  0
 16 17  2  0  0  0
 16 21  1  0  0  0
 16 31  1  0  0  0
 17 18  1  0  0  0
 17101  1  0  0  0
 18 19  2  0  0  0
 18102  1  0  0  0
 19 20  1  0  0  0
 19 24  1  0  0  0
 20 21  2  0  0  0
 20103  1  0  0  0
 21 23  1  0  0  0
 22 28  1  0  0  0
 22 32  2  0  0  0
 26 27  1  0  0  0
 28104  1  0  0  0
 28105  1  0  0  0
 29106  1  0  0  0
 29107  1  0  0  0
 33 34  1  0  0  0
 33 66  1  0  0  0
 33 70  2  0  0  0
 34 36  1  0  0  0
 34 59  1  0  0  0
 34108  1  0  0  0
 35 44  2  0  0  0
 35 45  1  0  0  0
 35 68  1  0  0  0
 36 56  1  0  0  0
 36109  1  0  0  0
 37 39  1  0  0  0
 37 47  1  0  0  0
 37 66  1  0  0  0
 37110  1  0  0  0
 38 43  2  0  0  0
 38 46  1  0  0  0
 38 47  1  0  0  0
 39 64  1  0  0  0
 39 67  2  0  0  0
 40 52  1  0  0  0
 40 53  2  0  0  0
 40 58  1  0  0  0
 41111  1  0  0  0
 41112  1  0  0  0
 41113  1  0  0  0
 41 48  1  0  0  0
 42 43  1  0  0  0
 42 66  1  0  0  0
 42114  1  0  0  0
 42115  1  0  0  0
 43 44  1  0  0  0
 44116  1  0  0  0
 45 46  2  0  0  0
 45117  1  0  0  0
 46118  1  0  0  0
 47119  1  0  0  0
 47120  1  0  0  0
 48 56  1  0  0  0
 48 65  1  0  0  0
 48121  1  0  0  0
 49 50  1  0  0  0
 49 53  1  0  0  0
 49 64  1  0  0  0
 49122  1  0  0  0
 50 51  1  0  0  0
 50123  1  0  0  0
 50124  1  0  0  0
 51 52  1  0  0  0
 51125  1  0  0  0
 51126  1  0  0  0
 52127  1  0  0  0
 52128  1  0  0  0
 53 54  1  0  0  0
 54 55  2  0  0  0
 54129  1  0  0  0
 55 57  1  0  0  0
 55130  1  0  0  0
 56 69  2  0  0  0
 57 58  2  0  0  0
 57131  1  0  0  0
 58132  1  0  0  0
 59 60  1  0  0  0
 59 61  1  0  0  0
 59 62  1  0  0  0
 60133  1  0  0  0
 60134  1  0  0  0
 60135  1  0  0  0
 61136  1  0  0  0
 61137  1  0  0  0
 61138  1  0  0  0
 62139  1  0  0  0
 62140  1  0  0  0
 62141  1  0  0  0
 63 65  1  0  0  0
 63142  1  0  0  0
 63143  1  0  0  0
 63144  1  0  0  0
 64145  1  0  0  0
 65146  1  0  0  0
 68 82  1  0  0  0
 71 73  2  0  0  0
 71 87  1  0  0  0
 71147  1  0  0  0
 72 86  2  0  0  0
 72 87  1  0  0  0
 72148  1  0  0  0
 73 83  1  0  0  0
 73 86  1  0  0  0
 74 79  1  0  0  0
 74149  1  0  0  0
 74150  1  0  0  0
 74151  1  0  0  0
 75152  1  0  0  0
 75153  1  0  0  0
 75154  1  0  0  0
 75 83  1  0  0  0
 76155  1  0  0  0
 76156  1  0  0  0
 76157  1  0  0  0
 76 84  1  0  0  0
 77 84  1  0  0  0
 77158  1  0  0  0
 77159  1  0  0  0
 77160  1  0  0  0
 78161  1  0  0  0
 78162  1  0  0  0
 78163  1  0  0  0
 78 85  1  0  0  0
 79 85  1  0  0  0
 79164  1  0  0  0
 79165  1  0  0  0
 80 82  1  0  0  0
 80 85  1  0  0  0
 80166  1  0  0  0
 80167  1  0  0  0
 81 83  1  0  0  0
 81 84  1  0  0  0
 81168  1  0  0  0
 81169  1  0  0  0
 82170  1  0  0  0
 82171  1  0  0  0
 83172  1  0  0  0
 85 87  1  0  0  0
M  ISO  4   1 100  68 101  82 101  84 100
M  END
> <chiral flag>
0

> <version>
0

> <s_m_source_file>
/data/baiqing/PycharmProjects/Reinvent-master-3.2/result/LINK_invent/BTK/process_docking_weight1_custom_sum_contain_oxygen_bond_distance_aromatic_linkinvent_7_9_3/rearranged_h_0072.sdf

> <i_m_source_file_index>
61

> <r_mmod_Potential_Energy-OPLS-2005>
149.307723999023

> <r_mmod_Stretch_Energy-OPLS-2005>
73.9417877197266

> <r_mmod_Bend_Energy-OPLS-2005>
171.644180297852

> <r_mmod_Torsional_Energy-OPLS-2005>
261.244476318359

> <r_mmod_Improper_Torsional_Energy-OPLS-2005>
2.80717372894287

> <r_mmod_Van_der_Waal_Energy-OPLS-2005>
150.46435546875

> <r_mmod_Electrostatic_Energy-OPLS-2005>
-354.176361083984

> <r_mmod_Solvation_Energy-OPLS-2005>
-185.125991821289

> <b_mmod_Minimization_Converged-OPLS-2005>
0

> <r_mmod_RMS_Derivative-OPLS-2005>
2.83919095993042

$$$$
62
                    3D
 Structure written by MMmdl.
172180  0  0  1  0            999 V2000
  -30.8274  -14.2883   20.7216 C   0  0  0  0  0  0
  -30.4066  -12.2695   19.3787 C   0  0  0  0  0  0
  -29.4754  -12.5228   18.1842 C   0  0  0  0  0  0
  -28.0048  -12.3640   18.6072 C   0  0  0  0  0  0
  -27.6636  -13.1941   19.8714 C   0  0  2  0  0  0
  -28.7026  -12.9513   20.9891 C   0  0  0  0  0  0
  -25.2630  -13.8132   20.5699 C   0  0  0  0  0  0
  -24.1841  -13.0418   20.9174 C   0  0  0  0  0  0
  -24.6375  -11.6884   20.8724 C   0  0  0  0  0  0
  -23.9031  -10.4273   21.0407 C   0  0  0  0  0  0
  -24.3579   -9.4190   21.9187 C   0  0  0  0  0  0
  -23.6255   -8.2221   22.0750 C   0  0  0  0  0  0
  -22.4240   -8.0263   21.3525 C   0  0  0  0  0  0
  -21.9877   -9.0248   20.4634 C   0  0  0  0  0  0
  -22.7208  -10.2129   20.3054 C   0  0  0  0  0  0
  -21.6836   -6.0722   22.5276 C   0  0  0  0  0  0
  -21.3998   -6.5624   23.8213 C   0  0  0  0  0  0
  -21.3666   -5.6779   24.9180 C   0  0  0  0  0  0
  -21.6053   -4.3043   24.7227 C   0  0  0  0  0  0
  -21.8814   -3.8134   23.4346 C   0  0  0  0  0  0
  -21.9177   -4.6950   22.3401 C   0  0  0  0  0  0
  -22.7869  -13.5243   21.1834 C   0  0  0  0  0  0
  -22.1648   -4.2140   21.0980 F   0  0  0  0  0  0
  -21.5643   -3.4524   25.7741 F   0  0  0  0  0  0
  -30.0536  -13.2070   20.4505 N   0  0  0  0  0  0
  -26.3034  -12.9265   20.3348 N   0  0  0  0  0  0
  -25.9290  -11.6433   20.5717 N   0  0  0  0  0  0
  -22.0497  -12.8260   22.0424 N   0  0  0  0  0  0
  -25.4408  -15.1844   20.4159 N   0  0  0  0  0  0
  -31.8166  -14.6036   20.0465 O   0  0  0  0  0  0
  -21.6597   -6.8869   21.4239 O   0  0  0  0  0  0
  -22.3554  -14.5519   20.6645 O   0  0  0  0  0  0
  -24.6063  -31.8692   23.2151 C   0  0  0  0  0  0
  -25.8997  -32.4824   23.8393 C   0  0  1  0  0  0
  -27.2339  -27.4855   20.0622 C   0  0  0  0  0  0
  -25.5887  -33.8621   24.2303 N   0  0  0  0  0  0
  -23.3883  -30.4973   21.5561 C   0  0  2  0  0  0
  -24.8320  -28.9744   20.1139 C   0  0  0  0  0  0
  -22.7329  -29.4671   22.5022 C   0  0  0  0  0  0
  -18.0272  -28.1346   22.8511 C   0  0  0  0  0  0
  -24.1478  -36.7308   23.2636 C   0  0  0  0  0  0
  -25.9139  -30.8487   21.3637 C   0  0  0  0  0  0
  -25.9902  -29.4885   20.7083 C   0  0  0  0  0  0
  -27.1879  -28.7476   20.6887 C   0  0  0  0  0  0
  -26.0575  -26.9914   19.4472 C   0  0  0  0  0  0
  -24.8577  -27.7192   19.4869 C   0  0  0  0  0  0
  -23.5904  -29.8316   20.1698 C   0  0  0  0  0  0
  -25.4111  -36.3102   24.0313 C   0  0  1  0  0  0
  -20.5841  -28.3638   23.1377 C   0  0  2  0  0  0
  -20.6770  -26.9385   22.5459 C   0  0  0  0  0  0
  -19.5776  -26.6400   21.5221 C   0  0  0  0  0  0
  -18.1941  -26.7914   22.1611 C   0  0  0  0  0  0
  -19.1503  -28.8816   23.2938 C   0  0  0  0  0  0
  -18.9422  -30.1449   23.8886 C   0  0  0  0  0  0
  -17.6416  -30.6576   24.0532 C   0  0  0  0  0  0
  -25.9031  -34.9468   23.5097 C   0  0  0  0  0  0
  -16.5316  -29.9046   23.6321 C   0  0  0  0  0  0
  -16.7259  -28.6470   23.0342 C   0  0  0  0  0  0
  -26.4449  -31.6617   25.0722 C   0  0  0  0  0  0
  -25.3755  -31.3742   26.1511 C   0  0  0  0  0  0
  -27.0287  -30.3064   24.6100 C   0  0  0  0  0  0
  -27.6012  -32.4329   25.7502 C   0  0  0  0  0  0
  -27.5566  -37.1814   24.8462 C   0  0  0  0  0  0
  -21.4064  -29.3010   22.3765 N   0  0  0  0  0  0
  -26.4286  -37.3787   23.9399 N   0  0  0  0  0  0
  -24.6546  -31.0830   22.1040 N   0  0  0  0  0  0
  -23.4131  -28.8202   23.3029 O   0  0  0  0  0  0
  -28.4282  -26.7962   20.0838 O   0  0  0  0  0  0
  -26.5580  -34.8913   22.4651 O   0  0  0  0  0  0
  -23.5271  -32.1426   23.7586 O   0  0  0  0  0  0
  -29.1850  -16.6603   20.7822 C   0  0  0  0  0  0
  -28.7309  -17.9796   20.7951 C   0  0  0  0  0  0
  -29.9255  -16.2002   21.8924 C   0  0  0  0  0  0
  -29.5715  -18.2441   22.8967 C   0  0  0  0  0  0
  -29.7320  -19.1306   24.1089 C   0  0  0  0  0  0
  -31.3557  -14.5088   23.0359 C   0  0  0  0  0  0
  -24.5975  -23.5757   21.1631 C   0  0  0  0  0  0
  -28.0591  -18.5883   19.5734 C   0  0  0  0  0  0
  -26.6583  -19.1766   19.8349 C   0  0  0  0  0  0
  -26.6933  -20.4649   20.6767 C   0  0  0  0  0  0
  -27.6308  -24.5578   20.7108 C   0  0  0  0  0  0
  -25.5193  -21.4232   20.4140 C   0  0  0  0  0  0
  -26.7722  -23.5012   19.9912 C   0  0  0  0  0  0
  -28.4313  -25.4222   19.7112 C   0  0  0  0  0  0
  -28.9555  -18.7755   21.8522 N   0  0  0  0  0  0
  -30.0639  -17.0139   22.9640 N   0  0  0  0  0  0
  -30.5441  -14.9118   21.8802 N   0  0  0  0  0  0
  -25.8290  -22.7902   20.8981 N   0  3  1  0  0  0
  -31.4508  -12.3560   19.0709 H   0  0  0  0  0  0
  -30.2898  -11.2462   19.7373 H   0  0  0  0  0  0
  -29.7109  -11.8322   17.3735 H   0  0  0  0  0  0
  -29.6382  -13.5281   17.7939 H   0  0  0  0  0  0
  -27.8260  -11.3039   18.7976 H   0  0  0  0  0  0
  -27.3471  -12.6421   17.7833 H   0  0  0  0  0  0
  -27.7109  -14.2433   19.5831 H   0  0  0  0  0  0
  -28.6490  -11.9184   21.3380 H   0  0  0  0  0  0
  -28.4519  -13.5662   21.8539 H   0  0  0  0  0  0
  -25.2732   -9.5648   22.4756 H   0  0  0  0  0  0
  -23.9950   -7.4609   22.7478 H   0  0  0  0  0  0
  -21.0801   -8.8782   19.8942 H   0  0  0  0  0  0
  -22.3676  -10.9660   19.6146 H   0  0  0  0  0  0
  -21.1978   -7.6129   23.9708 H   0  0  0  0  0  0
  -21.1509   -6.0517   25.9086 H   0  0  0  0  0  0
  -22.0588   -2.7591   23.2855 H   0  0  0  0  0  0
  -22.4055  -11.9895   22.4803 H   0  0  0  0  0  0
  -21.1114  -13.1293   22.2597 H   0  0  0  0  0  0
  -24.6841  -15.8453   20.5478 H   0  0  0  0  0  0
  -26.3057  -15.6226   20.1264 H   0  0  0  0  0  0
  -26.7062  -32.5545   23.1151 H   0  0  0  0  0  0
  -25.0089  -33.9774   25.0482 H   0  0  0  0  0  0
  -22.6768  -31.3148   21.4223 H   0  0  0  0  0  0
  -23.3706  -35.9667   23.3325 H   0  0  0  0  0  0
  -24.3583  -36.8906   22.2047 H   0  0  0  0  0  0
  -23.7255  -37.6530   23.6646 H   0  0  0  0  0  0
  -26.0211  -31.6223   20.6020 H   0  0  0  0  0  0
  -26.8011  -30.8965   21.9829 H   0  0  0  0  0  0
  -28.0802  -29.1447   21.1513 H   0  0  0  0  0  0
  -26.0377  -26.0602   18.9096 H   0  0  0  0  0  0
  -23.9685  -27.3235   19.0141 H   0  0  0  0  0  0
  -23.6826  -30.6044   19.4059 H   0  0  0  0  0  0
  -22.7155  -29.2441   19.8843 H   0  0  0  0  0  0
  -25.1290  -36.1949   25.0796 H   0  0  0  0  0  0
  -20.9956  -28.3215   24.1494 H   0  0  0  0  0  0
  -20.5659  -26.2237   23.3628 H   0  0  0  0  0  0
  -21.6653  -26.7424   22.1282 H   0  0  0  0  0  0
  -19.6958  -25.6344   21.1183 H   0  0  0  0  0  0
  -19.6729  -27.3261   20.6793 H   0  0  0  0  0  0
  -17.4233  -26.6704   21.3984 H   0  0  0  0  0  0
  -18.0317  -26.0034   22.8973 H   0  0  0  0  0  0
  -19.7897  -30.7295   24.2207 H   0  0  0  0  0  0
  -17.4945  -31.6269   24.5091 H   0  0  0  0  0  0
  -15.5304  -30.2923   23.7640 H   0  0  0  0  0  0
  -15.8665  -28.0804   22.7015 H   0  0  0  0  0  0
  -24.5889  -30.7112   25.7905 H   0  0  0  0  0  0
  -24.8991  -32.2915   26.4975 H   0  0  0  0  0  0
  -25.8152  -30.8927   27.0253 H   0  0  0  0  0  0
  -26.2849  -29.6845   24.1111 H   0  0  0  0  0  0
  -27.4029  -29.7287   25.4560 H   0  0  0  0  0  0
  -27.8670  -30.4384   23.9258 H   0  0  0  0  0  0
  -27.2601  -33.3582   26.2141 H   0  0  0  0  0  0
  -28.3813  -32.6960   25.0356 H   0  0  0  0  0  0
  -28.0679  -31.8422   26.5395 H   0  0  0  0  0  0
  -28.2593  -38.0099   24.7484 H   0  0  0  0  0  0
  -28.1048  -36.2632   24.6310 H   0  0  0  0  0  0
  -27.2287  -37.1485   25.8866 H   0  0  0  0  0  0
  -20.9186  -29.8691   21.6976 H   0  0  0  0  0  0
  -26.0156  -38.2841   24.1445 H   0  0  0  0  0  0
  -29.0253  -16.0672   19.8946 H   0  0  0  0  0  0
  -28.8106  -19.6816   24.2979 H   0  0  0  0  0  0
  -30.5307  -19.8523   23.9420 H   0  0  0  0  0  0
  -29.9677  -18.5494   25.0008 H   0  0  0  0  0  0
  -32.2247  -15.1621   23.1265 H   0  0  0  0  0  0
  -31.7220  -13.4833   22.9481 H   0  0  0  0  0  0
  -30.7766  -14.5676   23.9580 H   0  0  0  0  0  0
  -23.9390  -23.0509   21.8550 H   0  0  0  0  0  0
  -24.0396  -23.7431   20.2410 H   0  0  0  0  0  0
  -24.8200  -24.5474   21.6076 H   0  0  0  0  0  0
  -27.9724  -17.8214   18.8014 H   0  0  0  0  0  0
  -28.7189  -19.3476   19.1509 H   0  0  0  0  0  0
  -26.0105  -18.4323   20.2996 H   0  0  0  0  0  0
  -26.2206  -19.4036   18.8624 H   0  0  0  0  0  0
  -27.6423  -20.9637   20.4873 H   0  0  0  0  0  0
  -26.7190  -20.2128   21.7370 H   0  0  0  0  0  0
  -27.0046  -25.1890   21.3421 H   0  0  0  0  0  0
  -28.3296  -24.0714   21.3924 H   0  0  0  0  0  0
  -24.6413  -21.0277   20.9261 H   0  0  0  0  0  0
  -25.2633  -21.4642   19.3538 H   0  0  0  0  0  0
  -27.4543  -22.8185   19.4858 H   0  0  0  0  0  0
  -26.1975  -23.9373   19.1772 H   0  0  0  0  0  0
  -28.0878  -25.3097   18.6823 H   0  0  0  0  0  0
  -29.4676  -25.0847   19.6951 H   0  0  0  0  0  0
  -26.2862  -22.6677   21.7892 H   0  0  0  0  0  0
  1 25  1  0  0  0
  1 30  2  0  0  0
  1 87  1  0  0  0
  2  3  1  0  0  0
  2 25  1  0  0  0
  2 89  1  0  0  0
  2 90  1  0  0  0
  3  4  1  0  0  0
  3 91  1  0  0  0
  3 92  1  0  0  0
  4  5  1  0  0  0
  4 93  1  0  0  0
  4 94  1  0  0  0
  5  6  1  0  0  0
  5 26  1  0  0  0
  5 95  1  0  0  0
  6 25  1  0  0  0
  6 96  1  0  0  0
  6 97  1  0  0  0
  7  8  2  0  0  0
  7 26  1  0  0  0
  7 29  1  0  0  0
  8  9  1  0  0  0
  8 22  1  0  0  0
  9 10  1  0  0  0
  9 27  2  0  0  0
 10 11  2  0  0  0
 10 15  1  0  0  0
 11 12  1  0  0  0
 11 98  1  0  0  0
 12 13  2  0  0  0
 12 99  1  0  0  0
 13 14  1  0  0  0
 13 31  1  0  0  0
 14 15  2  0  0  0
 14100  1  0  0  0
 15101  1  0  0  0
 16 17  2  0  0  0
 16 21  1  0  0  0
 16 31  1  0  0  0
 17 18  1  0  0  0
 17102  1  0  0  0
 18 19  2  0  0  0
 18103  1  0  0  0
 19 20  1  0  0  0
 19 24  1  0  0  0
 20 21  2  0  0  0
 20104  1  0  0  0
 21 23  1  0  0  0
 22 28  1  0  0  0
 22 32  2  0  0  0
 26 27  1  0  0  0
 28105  1  0  0  0
 28106  1  0  0  0
 29107  1  0  0  0
 29108  1  0  0  0
 33 34  1  0  0  0
 33 66  1  0  0  0
 33 70  2  0  0  0
 34 36  1  0  0  0
 34 59  1  0  0  0
 34109  1  0  0  0
 35 44  2  0  0  0
 35 45  1  0  0  0
 35 68  1  0  0  0
 36 56  1  0  0  0
 36110  1  0  0  0
 37 39  1  0  0  0
 37 47  1  0  0  0
 37 66  1  0  0  0
 37111  1  0  0  0
 38 43  2  0  0  0
 38 46  1  0  0  0
 38 47  1  0  0  0
 39 64  1  0  0  0
 39 67  2  0  0  0
 40 52  1  0  0  0
 40 53  2  0  0  0
 40 58  1  0  0  0
 41112  1  0  0  0
 41113  1  0  0  0
 41114  1  0  0  0
 41 48  1  0  0  0
 42 43  1  0  0  0
 42 66  1  0  0  0
 42115  1  0  0  0
 42116  1  0  0  0
 43 44  1  0  0  0
 44117  1  0  0  0
 45 46  2  0  0  0
 45118  1  0  0  0
 46119  1  0  0  0
 47120  1  0  0  0
 47121  1  0  0  0
 48 56  1  0  0  0
 48 65  1  0  0  0
 48122  1  0  0  0
 49 50  1  0  0  0
 49 53  1  0  0  0
 49 64  1  0  0  0
 49123  1  0  0  0
 50 51  1  0  0  0
 50124  1  0  0  0
 50125  1  0  0  0
 51 52  1  0  0  0
 51126  1  0  0  0
 51127  1  0  0  0
 52128  1  0  0  0
 52129  1  0  0  0
 53 54  1  0  0  0
 54 55  2  0  0  0
 54130  1  0  0  0
 55 57  1  0  0  0
 55131  1  0  0  0
 56 69  2  0  0  0
 57 58  2  0  0  0
 57132  1  0  0  0
 58133  1  0  0  0
 59 60  1  0  0  0
 59 61  1  0  0  0
 59 62  1  0  0  0
 60134  1  0  0  0
 60135  1  0  0  0
 60136  1  0  0  0
 61137  1  0  0  0
 61138  1  0  0  0
 61139  1  0  0  0
 62140  1  0  0  0
 62141  1  0  0  0
 62142  1  0  0  0
 63 65  1  0  0  0
 63143  1  0  0  0
 63144  1  0  0  0
 63145  1  0  0  0
 64146  1  0  0  0
 65147  1  0  0  0
 68 84  1  0  0  0
 71 72  2  0  0  0
 71 73  1  0  0  0
 71148  1  0  0  0
 72 78  1  0  0  0
 72 85  1  0  0  0
 73 86  2  0  0  0
 73 87  1  0  0  0
 74 75  1  0  0  0
 74 85  2  0  0  0
 74 86  1  0  0  0
 75149  1  0  0  0
 75150  1  0  0  0
 75151  1  0  0  0
 76 87  1  0  0  0
 76152  1  0  0  0
 76153  1  0  0  0
 76154  1  0  0  0
 77155  1  0  0  0
 77156  1  0  0  0
 77157  1  0  0  0
 77 88  1  0  0  0
 78 79  1  0  0  0
 78158  1  0  0  0
 78159  1  0  0  0
 79 80  1  0  0  0
 79160  1  0  0  0
 79161  1  0  0  0
 80 82  1  0  0  0
 80162  1  0  0  0
 80163  1  0  0  0
 81 83  1  0  0  0
 81 84  1  0  0  0
 81164  1  0  0  0
 81165  1  0  0  0
 82 88  1  0  0  0
 82166  1  0  0  0
 82167  1  0  0  0
 83 88  1  0  0  0
 83168  1  0  0  0
 83169  1  0  0  0
 84170  1  0  0  0
 84171  1  0  0  0
 88172  1  0  0  0
M  CHG  1  88   1
M  ISO  4   1 100  68 101  84 101  87 100
M  END
> <chiral flag>
0

> <version>
0

> <s_m_source_file>
/data/baiqing/PycharmProjects/Reinvent-master-3.2/result/LINK_invent/BTK/process_docking_weight1_custom_sum_contain_oxygen_bond_distance_aromatic_linkinvent_7_9_3/rearranged_h_0072.sdf

> <i_m_source_file_index>
62

> <r_mmod_Potential_Energy-OPLS-2005>
-405.6025390625

> <r_mmod_Stretch_Energy-OPLS-2005>
32.6446189880371

> <r_mmod_Bend_Energy-OPLS-2005>
102.587142944336

> <r_mmod_Torsional_Energy-OPLS-2005>
279.868530273438

> <r_mmod_Improper_Torsional_Energy-OPLS-2005>
4.64610767364502

> <r_mmod_Van_der_Waal_Energy-OPLS-2005>
179.328338623047

> <r_mmod_Electrostatic_Energy-OPLS-2005>
-582.15478515625

> <r_mmod_Solvation_Energy-OPLS-2005>
-432.517608642578

> <b_mmod_Minimization_Converged-OPLS-2005>
0

> <r_mmod_RMS_Derivative-OPLS-2005>
2.82918238639832

$$$$
63
                    3D
 Structure written by MMmdl.
165173  0  0  1  0            999 V2000
  -30.6327  -14.7178   20.6210 C   0  0  0  0  0  0
  -30.4432  -12.4806   19.4613 C   0  0  0  0  0  0
  -29.5125  -12.5816   18.2276 C   0  0  0  0  0  0
  -28.0308  -12.3973   18.6190 C   0  0  0  0  0  0
  -27.6543  -13.2200   19.8763 C   0  0  2  0  0  0
  -28.7014  -12.9903   20.9827 C   0  0  0  0  0  0
  -25.2581  -13.8190   20.5721 C   0  0  0  0  0  0
  -24.1861  -13.0442   20.9205 C   0  0  0  0  0  0
  -24.6429  -11.6913   20.8728 C   0  0  0  0  0  0
  -23.9093  -10.4295   21.0388 C   0  0  0  0  0  0
  -24.3645   -9.4198   21.9171 C   0  0  0  0  0  0
  -23.6323   -8.2226   22.0738 C   0  0  0  0  0  0
  -22.4302   -8.0263   21.3527 C   0  0  0  0  0  0
  -21.9929   -9.0232   20.4635 C   0  0  0  0  0  0
  -22.7258  -10.2130   20.3045 C   0  0  0  0  0  0
  -21.6859   -6.0736   22.5274 C   0  0  0  0  0  0
  -21.4016   -6.5634   23.8212 C   0  0  0  0  0  0
  -21.3670   -5.6783   24.9174 C   0  0  0  0  0  0
  -21.6054   -4.3052   24.7218 C   0  0  0  0  0  0
  -21.8822   -3.8151   23.4337 C   0  0  0  0  0  0
  -21.9206   -4.6968   22.3399 C   0  0  0  0  0  0
  -22.7882  -13.5229   21.1860 C   0  0  0  0  0  0
  -22.1676   -4.2149   21.0981 F   0  0  0  0  0  0
  -21.5648   -3.4537   25.7742 F   0  0  0  0  0  0
  -29.9964  -13.4834   20.4727 N   0  0  0  0  0  0
  -26.2997  -12.9351   20.3361 N   0  0  0  0  0  0
  -25.9346  -11.6503   20.5716 N   0  0  0  0  0  0
  -22.0525  -12.8220   22.0424 N   0  0  0  0  0  0
  -25.4291  -15.1933   20.4165 N   0  0  0  0  0  0
  -31.7148  -14.8406   20.0312 O   0  0  0  0  0  0
  -21.6651   -6.8877   21.4233 O   0  0  0  0  0  0
  -22.3540  -14.5518   20.6704 O   0  0  0  0  0  0
  -24.6309  -31.8543   23.1942 C   0  0  0  0  0  0
  -25.9120  -32.4751   23.8307 C   0  0  1  0  0  0
  -27.2521  -27.2764   20.1161 C   0  0  0  0  0  0
  -25.5913  -33.8550   24.2227 N   0  0  0  0  0  0
  -23.4272  -30.4721   21.5400 C   0  0  2  0  0  0
  -24.8771  -28.9121   20.1154 C   0  0  0  0  0  0
  -22.7498  -29.4582   22.4938 C   0  0  0  0  0  0
  -18.0293  -28.1392   22.8484 C   0  0  0  0  0  0
  -24.1484  -36.7293   23.2643 C   0  0  0  0  0  0
  -25.9703  -30.7751   21.3661 C   0  0  0  0  0  0
  -26.0472  -29.3956   20.7100 C   0  0  0  0  0  0
  -27.2299  -28.5927   20.6908 C   0  0  0  0  0  0
  -26.0381  -26.8344   19.5438 C   0  0  0  0  0  0
  -24.8769  -27.6360   19.5269 C   0  0  0  0  0  0
  -23.6443  -29.7955   20.1608 C   0  0  0  0  0  0
  -25.4113  -36.3063   24.0315 C   0  0  1  0  0  0
  -20.5893  -28.3694   23.1289 C   0  0  2  0  0  0
  -20.6783  -26.9411   22.5420 C   0  0  0  0  0  0
  -19.5762  -26.6379   21.5222 C   0  0  0  0  0  0
  -18.1942  -26.7933   22.1622 C   0  0  0  0  0  0
  -19.1549  -28.8855   23.2883 C   0  0  0  0  0  0
  -18.9458  -30.1461   23.8896 C   0  0  0  0  0  0
  -17.6457  -30.6586   24.0554 C   0  0  0  0  0  0
  -25.9051  -34.9438   23.5082 C   0  0  0  0  0  0
  -16.5352  -29.9080   23.6336 C   0  0  0  0  0  0
  -16.7286  -28.6497   23.0354 C   0  0  0  0  0  0
  -26.4493  -31.6585   25.0704 C   0  0  0  0  0  0
  -25.3725  -31.3743   26.1436 C   0  0  0  0  0  0
  -27.0340  -30.3003   24.6181 C   0  0  0  0  0  0
  -27.6034  -32.4355   25.7502 C   0  0  0  0  0  0
  -27.5580  -37.1789   24.8459 C   0  0  0  0  0  0
  -21.4207  -29.3033   22.3672 N   0  0  0  0  0  0
  -26.4281  -37.3766   23.9410 N   0  0  0  0  0  0
  -24.6953  -31.0513   22.0903 N   0  0  0  0  0  0
  -23.4195  -28.8154   23.3051 O   0  0  0  0  0  0
  -28.4295  -26.4888   20.1742 O   0  0  0  0  0  0
  -26.5645  -34.8917   22.4660 O   0  0  0  0  0  0
  -23.5458  -32.1351   23.7235 O   0  0  0  0  0  0
  -30.1230  -18.7049   21.3943 C   0  0  0  0  0  0
  -29.8843  -17.4331   20.8705 C   0  0  0  0  0  0
  -31.4351  -16.2347   22.4487 C   0  0  0  0  0  0
  -28.0979  -24.8459   18.2407 C   0  0  0  0  0  0
  -30.2521  -25.3378   19.3553 C   0  0  0  0  0  0
  -29.1448  -22.3490   20.0414 C   0  0  0  0  0  0
  -28.6196  -23.8043   20.5505 C   0  0  0  0  0  0
  -29.0273  -21.0954   21.0421 C   0  0  0  0  0  0
  -28.9896  -15.6974   22.4801 C   0  0  0  0  0  0
  -30.1908  -16.0105   21.5387 C   0  0  2  0  0  0
  -28.7446  -25.1219   19.6149 C   0  0  0  0  0  0
  -29.0150  -17.6821   19.7945 N   0  0  0  0  0  0
  -28.7453  -18.9729   19.6776 N   0  0  0  0  0  0
  -29.3855  -19.6570   20.6663 N   0  0  0  0  0  0
  -28.5825  -16.7991   23.3825 N   0  3  0  0  0  0
  -31.4803  -12.6200   19.1551 H   0  0  0  0  0  0
  -30.4151  -11.4691   19.8696 H   0  0  0  0  0  0
  -29.7948  -11.8473   17.4715 H   0  0  0  0  0  0
  -29.6442  -13.5617   17.7627 H   0  0  0  0  0  0
  -27.8632  -11.3375   18.8046 H   0  0  0  0  0  0
  -27.3842  -12.6704   17.7836 H   0  0  0  0  0  0
  -27.6906  -14.2720   19.5939 H   0  0  0  0  0  0
  -28.7660  -11.9219   21.1883 H   0  0  0  0  0  0
  -28.3774  -13.3689   21.9376 H   0  0  0  0  0  0
  -25.2783   -9.5689   22.4756 H   0  0  0  0  0  0
  -24.0055   -7.4618   22.7453 H   0  0  0  0  0  0
  -21.0853   -8.8759   19.8927 H   0  0  0  0  0  0
  -22.3710  -10.9677   19.6166 H   0  0  0  0  0  0
  -21.1996   -7.6142   23.9716 H   0  0  0  0  0  0
  -21.1495   -6.0511   25.9085 H   0  0  0  0  0  0
  -22.0601   -2.7606   23.2832 H   0  0  0  0  0  0
  -22.4123  -11.9889   22.4834 H   0  0  0  0  0  0
  -21.1111  -13.1183   22.2570 H   0  0  0  0  0  0
  -24.6517  -15.8413   20.4917 H   0  0  0  0  0  0
  -26.2587  -15.6249   20.0280 H   0  0  0  0  0  0
  -26.7198  -32.5387   23.1064 H   0  0  0  0  0  0
  -25.0018  -33.9695   25.0348 H   0  0  0  0  0  0
  -22.7233  -31.2920   21.3897 H   0  0  0  0  0  0
  -23.3740  -35.9630   23.3290 H   0  0  0  0  0  0
  -24.3585  -36.8946   22.2064 H   0  0  0  0  0  0
  -23.7241  -37.6483   23.6698 H   0  0  0  0  0  0
  -26.1017  -31.5354   20.5941 H   0  0  0  0  0  0
  -26.8494  -30.8295   21.9965 H   0  0  0  0  0  0
  -28.1318  -28.9734   21.1488 H   0  0  0  0  0  0
  -25.9377  -25.8455   19.1376 H   0  0  0  0  0  0
  -23.9718  -27.2402   19.0875 H   0  0  0  0  0  0
  -23.7607  -30.5663   19.3989 H   0  0  0  0  0  0
  -22.7639  -29.2245   19.8621 H   0  0  0  0  0  0
  -25.1294  -36.1905   25.0805 H   0  0  0  0  0  0
  -20.9989  -28.3260   24.1409 H   0  0  0  0  0  0
  -20.5702  -26.2291   23.3618 H   0  0  0  0  0  0
  -21.6647  -26.7444   22.1199 H   0  0  0  0  0  0
  -19.6920  -25.6288   21.1267 H   0  0  0  0  0  0
  -19.6709  -27.3184   20.6748 H   0  0  0  0  0  0
  -17.4212  -26.6696   21.4021 H   0  0  0  0  0  0
  -18.0322  -26.0083   22.9021 H   0  0  0  0  0  0
  -19.7929  -30.7288   24.2263 H   0  0  0  0  0  0
  -17.5003  -31.6277   24.5146 H   0  0  0  0  0  0
  -15.5356  -30.2976   23.7648 H   0  0  0  0  0  0
  -15.8691  -28.0818   22.7071 H   0  0  0  0  0  0
  -24.5843  -30.7175   25.7754 H   0  0  0  0  0  0
  -24.8984  -32.2915   26.4932 H   0  0  0  0  0  0
  -25.8021  -30.8842   27.0178 H   0  0  0  0  0  0
  -26.2907  -29.6767   24.1191 H   0  0  0  0  0  0
  -27.4020  -29.7268   25.4702 H   0  0  0  0  0  0
  -27.8792  -30.4310   23.9417 H   0  0  0  0  0  0
  -27.2594  -33.3615   26.2132 H   0  0  0  0  0  0
  -28.3804  -32.6998   25.0321 H   0  0  0  0  0  0
  -28.0753  -31.8466   26.5379 H   0  0  0  0  0  0
  -28.2565  -38.0113   24.7513 H   0  0  0  0  0  0
  -28.1092  -36.2638   24.6254 H   0  0  0  0  0  0
  -27.2305  -37.1409   25.8862 H   0  0  0  0  0  0
  -20.9406  -29.8722   21.6850 H   0  0  0  0  0  0
  -26.0151  -38.2827   24.1435 H   0  0  0  0  0  0
  -30.6738  -19.0044   22.2791 H   0  0  0  0  0  0
  -31.2615  -16.9361   23.2622 H   0  0  0  0  0  0
  -32.2632  -16.6475   21.8677 H   0  0  0  0  0  0
  -31.7873  -15.3055   22.9000 H   0  0  0  0  0  0
  -28.7063  -24.1616   17.6498 H   0  0  0  0  0  0
  -27.9828  -25.7563   17.6519 H   0  0  0  0  0  0
  -27.1297  -24.3581   18.3353 H   0  0  0  0  0  0
  -30.4260  -26.1712   18.6754 H   0  0  0  0  0  0
  -30.7298  -24.4645   18.9084 H   0  0  0  0  0  0
  -30.7886  -25.5582   20.2794 H   0  0  0  0  0  0
  -30.1956  -22.4401   19.7681 H   0  0  0  0  0  0
  -28.6277  -22.0961   19.1151 H   0  0  0  0  0  0
  -29.1426  -24.0191   21.4842 H   0  0  0  0  0  0
  -27.5739  -23.6985   20.8365 H   0  0  0  0  0  0
  -27.9956  -21.0666   21.3943 H   0  0  0  0  0  0
  -29.6098  -21.3399   21.9316 H   0  0  0  0  0  0
  -29.2195  -14.8433   23.1183 H   0  0  0  0  0  0
  -28.1075  -15.4769   21.8767 H   0  0  0  0  0  0
  -29.2717  -16.9659   24.0939 H   0  0  0  0  0  0
  -27.7162  -16.5641   23.8376 H   0  0  0  0  0  0
  -28.4406  -17.6450   22.8534 H   0  0  0  0  0  0
  1 25  1  0  0  0
  1 30  2  0  0  0
  1 80  1  0  0  0
  2  3  1  0  0  0
  2 25  1  0  0  0
  2 86  1  0  0  0
  2 87  1  0  0  0
  3  4  1  0  0  0
  3 88  1  0  0  0
  3 89  1  0  0  0
  4  5  1  0  0  0
  4 90  1  0  0  0
  4 91  1  0  0  0
  5  6  1  0  0  0
  5 26  1  0  0  0
  5 92  1  0  0  0
  6 25  1  0  0  0
  6 93  1  0  0  0
  6 94  1  0  0  0
  7  8  2  0  0  0
  7 26  1  0  0  0
  7 29  1  0  0  0
  8  9  1  0  0  0
  8 22  1  0  0  0
  9 10  1  0  0  0
  9 27  2  0  0  0
 10 11  2  0  0  0
 10 15  1  0  0  0
 11 12  1  0  0  0
 11 95  1  0  0  0
 12 13  2  0  0  0
 12 96  1  0  0  0
 13 14  1  0  0  0
 13 31  1  0  0  0
 14 15  2  0  0  0
 14 97  1  0  0  0
 15 98  1  0  0  0
 16 17  2  0  0  0
 16 21  1  0  0  0
 16 31  1  0  0  0
 17 18  1  0  0  0
 17 99  1  0  0  0
 18 19  2  0  0  0
 18100  1  0  0  0
 19 20  1  0  0  0
 19 24  1  0  0  0
 20 21  2  0  0  0
 20101  1  0  0  0
 21 23  1  0  0  0
 22 28  1  0  0  0
 22 32  2  0  0  0
 26 27  1  0  0  0
 28102  1  0  0  0
 28103  1  0  0  0
 29104  1  0  0  0
 29105  1  0  0  0
 33 34  1  0  0  0
 33 66  1  0  0  0
 33 70  2  0  0  0
 34 36  1  0  0  0
 34 59  1  0  0  0
 34106  1  0  0  0
 35 44  2  0  0  0
 35 45  1  0  0  0
 35 68  1  0  0  0
 36 56  1  0  0  0
 36107  1  0  0  0
 37 39  1  0  0  0
 37 47  1  0  0  0
 37 66  1  0  0  0
 37108  1  0  0  0
 38 43  2  0  0  0
 38 46  1  0  0  0
 38 47  1  0  0  0
 39 64  1  0  0  0
 39 67  2  0  0  0
 40 52  1  0  0  0
 40 53  2  0  0  0
 40 58  1  0  0  0
 41109  1  0  0  0
 41110  1  0  0  0
 41111  1  0  0  0
 41 48  1  0  0  0
 42 43  1  0  0  0
 42 66  1  0  0  0
 42112  1  0  0  0
 42113  1  0  0  0
 43 44  1  0  0  0
 44114  1  0  0  0
 45 46  2  0  0  0
 45115  1  0  0  0
 46116  1  0  0  0
 47117  1  0  0  0
 47118  1  0  0  0
 48 56  1  0  0  0
 48 65  1  0  0  0
 48119  1  0  0  0
 49 50  1  0  0  0
 49 53  1  0  0  0
 49 64  1  0  0  0
 49120  1  0  0  0
 50 51  1  0  0  0
 50121  1  0  0  0
 50122  1  0  0  0
 51 52  1  0  0  0
 51123  1  0  0  0
 51124  1  0  0  0
 52125  1  0  0  0
 52126  1  0  0  0
 53 54  1  0  0  0
 54 55  2  0  0  0
 54127  1  0  0  0
 55 57  1  0  0  0
 55128  1  0  0  0
 56 69  2  0  0  0
 57 58  2  0  0  0
 57129  1  0  0  0
 58130  1  0  0  0
 59 60  1  0  0  0
 59 61  1  0  0  0
 59 62  1  0  0  0
 60131  1  0  0  0
 60132  1  0  0  0
 60133  1  0  0  0
 61134  1  0  0  0
 61135  1  0  0  0
 61136  1  0  0  0
 62137  1  0  0  0
 62138  1  0  0  0
 62139  1  0  0  0
 63 65  1  0  0  0
 63140  1  0  0  0
 63141  1  0  0  0
 63142  1  0  0  0
 64143  1  0  0  0
 65144  1  0  0  0
 68 81  1  0  0  0
 71 72  2  0  0  0
 71 84  1  0  0  0
 71145  1  0  0  0
 72 80  1  0  0  0
 72 82  1  0  0  0
 73146  1  0  0  0
 73147  1  0  0  0
 73148  1  0  0  0
 73 80  1  0  0  0
 74149  1  0  0  0
 74150  1  0  0  0
 74151  1  0  0  0
 74 81  1  0  0  0
 75 81  1  0  0  0
 75152  1  0  0  0
 75153  1  0  0  0
 75154  1  0  0  0
 76 77  1  0  0  0
 76 78  1  0  0  0
 76155  1  0  0  0
 76156  1  0  0  0
 77 81  1  0  0  0
 77157  1  0  0  0
 77158  1  0  0  0
 78 84  1  0  0  0
 78159  1  0  0  0
 78160  1  0  0  0
 79 80  1  0  0  0
 79 85  1  0  0  0
 79161  1  0  0  0
 79162  1  0  0  0
 82 83  2  0  0  0
 83 84  1  0  0  0
 85163  1  0  0  0
 85164  1  0  0  0
 85165  1  0  0  0
M  CHG  1  85   1
M  ISO  4   1 100  68 101  80 100  81 101
M  END
> <chiral flag>
0

> <version>
0

> <s_m_source_file>
/data/baiqing/PycharmProjects/Reinvent-master-3.2/result/LINK_invent/BTK/process_docking_weight1_custom_sum_contain_oxygen_bond_distance_aromatic_linkinvent_7_9_3/rearranged_h_0072.sdf

> <i_m_source_file_index>
63

> <r_mmod_Potential_Energy-OPLS-2005>
59.312614440918

> <r_mmod_Stretch_Energy-OPLS-2005>
143.016723632812

> <r_mmod_Bend_Energy-OPLS-2005>
259.788696289062

> <r_mmod_Torsional_Energy-OPLS-2005>
212.374786376953

> <r_mmod_Improper_Torsional_Energy-OPLS-2005>
6.49382734298706

> <r_mmod_Van_der_Waal_Energy-OPLS-2005>
132.850509643555

> <r_mmod_Electrostatic_Energy-OPLS-2005>
-258.890777587891

> <r_mmod_Solvation_Energy-OPLS-2005>
-499.198211669922

> <b_mmod_Minimization_Converged-OPLS-2005>
0

> <r_mmod_RMS_Derivative-OPLS-2005>
3.87488460540771

$$$$
64
                    3D
 Structure written by MMmdl.
168176  0  0  1  0            999 V2000
  -30.7169  -14.3799   20.6585 C   0  0  0  0  0  0
  -30.4294  -12.2866   19.3908 C   0  0  0  0  0  0
  -29.4955  -12.5442   18.1924 C   0  0  0  0  0  0
  -28.0135  -12.4097   18.6012 C   0  0  0  0  0  0
  -27.6727  -13.2013   19.8921 C   0  0  2  0  0  0
  -28.7101  -12.9004   20.9969 C   0  0  0  0  0  0
  -25.2619  -13.8144   20.5692 C   0  0  0  0  0  0
  -24.1856  -13.0428   20.9177 C   0  0  0  0  0  0
  -24.6402  -11.6902   20.8731 C   0  0  0  0  0  0
  -23.9060  -10.4286   21.0404 C   0  0  0  0  0  0
  -24.3609   -9.4199   21.9175 C   0  0  0  0  0  0
  -23.6280   -8.2242   22.0764 C   0  0  0  0  0  0
  -22.4259   -8.0273   21.3555 C   0  0  0  0  0  0
  -21.9895   -9.0249   20.4664 C   0  0  0  0  0  0
  -22.7232  -10.2120   20.3063 C   0  0  0  0  0  0
  -21.6831   -6.0722   22.5283 C   0  0  0  0  0  0
  -21.4005   -6.5631   23.8212 C   0  0  0  0  0  0
  -21.3672   -5.6787   24.9180 C   0  0  0  0  0  0
  -21.6061   -4.3051   24.7229 C   0  0  0  0  0  0
  -21.8815   -3.8139   23.4350 C   0  0  0  0  0  0
  -21.9180   -4.6956   22.3406 C   0  0  0  0  0  0
  -22.7879  -13.5258   21.1832 C   0  0  0  0  0  0
  -22.1647   -4.2142   21.0979 F   0  0  0  0  0  0
  -21.5639   -3.4537   25.7741 F   0  0  0  0  0  0
  -30.0529  -13.2126   20.4665 N   0  0  0  0  0  0
  -26.3074  -12.9312   20.3421 N   0  0  0  0  0  0
  -25.9330  -11.6474   20.5775 N   0  0  0  0  0  0
  -22.0497  -12.8266   22.0400 N   0  0  0  0  0  0
  -25.4325  -15.1860   20.4082 N   0  0  0  0  0  0
  -31.7613  -14.6844   20.0724 O   0  0  0  0  0  0
  -21.6635   -6.8865   21.4242 O   0  0  0  0  0  0
  -22.3588  -14.5564   20.6676 O   0  0  0  0  0  0
  -24.6114  -31.8704   23.2123 C   0  0  0  0  0  0
  -25.9036  -32.4824   23.8409 C   0  0  1  0  0  0
  -27.2375  -27.4641   20.0799 C   0  0  0  0  0  0
  -25.5914  -33.8626   24.2330 N   0  0  0  0  0  0
  -23.3955  -30.4949   21.5519 C   0  0  2  0  0  0
  -24.8373  -28.9577   20.1179 C   0  0  0  0  0  0
  -22.7388  -29.4682   22.5026 C   0  0  0  0  0  0
  -18.0274  -28.1378   22.8498 C   0  0  0  0  0  0
  -24.1485  -36.7309   23.2630 C   0  0  0  0  0  0
  -25.9226  -30.8387   21.3641 C   0  0  0  0  0  0
  -25.9955  -29.4773   20.7076 C   0  0  0  0  0  0
  -27.1949  -28.7378   20.6835 C   0  0  0  0  0  0
  -26.0561  -26.9418   19.5008 C   0  0  0  0  0  0
  -24.8608  -27.6863   19.5161 C   0  0  0  0  0  0
  -23.5984  -29.8215   20.1676 C   0  0  0  0  0  0
  -25.4115  -36.3110   24.0326 C   0  0  1  0  0  0
  -20.5856  -28.3657   23.1337 C   0  0  2  0  0  0
  -20.6771  -26.9413   22.5408 C   0  0  0  0  0  0
  -19.5754  -26.6398   21.5203 C   0  0  0  0  0  0
  -18.1934  -26.7927   22.1619 C   0  0  0  0  0  0
  -19.1516  -28.8837   23.2914 C   0  0  0  0  0  0
  -18.9445  -30.1444   23.8916 C   0  0  0  0  0  0
  -17.6449  -30.6578   24.0572 C   0  0  0  0  0  0
  -25.9044  -34.9473   23.5120 C   0  0  0  0  0  0
  -16.5341  -29.9079   23.6325 C   0  0  0  0  0  0
  -16.7267  -28.6497   23.0351 C   0  0  0  0  0  0
  -26.4474  -31.6613   25.0739 C   0  0  0  0  0  0
  -25.3741  -31.3727   26.1488 C   0  0  0  0  0  0
  -27.0295  -30.3049   24.6137 C   0  0  0  0  0  0
  -27.6049  -32.4343   25.7492 C   0  0  0  0  0  0
  -27.5584  -37.1810   24.8465 C   0  0  0  0  0  0
  -21.4128  -29.3019   22.3753 N   0  0  0  0  0  0
  -26.4299  -37.3794   23.9398 N   0  0  0  0  0  0
  -24.6605  -31.0834   22.0996 N   0  0  0  0  0  0
  -23.4179  -28.8233   23.3063 O   0  0  0  0  0  0
  -28.4504  -26.8121   20.0700 O   0  0  0  0  0  0
  -26.5596  -34.8920   22.4676 O   0  0  0  0  0  0
  -23.5320  -32.1463   23.7541 O   0  0  0  0  0  0
  -30.2099  -19.4858   22.6751 C   0  0  0  0  0  0
  -28.7343  -20.9795   22.2409 C   0  0  0  0  0  0
  -28.1842  -19.7563   21.9218 C   0  0  0  0  0  0
  -24.3882  -18.8907   21.9347 C   0  0  0  0  0  0
  -28.5974  -16.7797   23.5165 C   0  0  0  0  0  0
  -28.1090  -22.3448   22.1716 C   0  0  0  0  0  0
  -26.8133  -19.4601   21.3860 C   0  0  0  0  0  0
  -25.7279  -19.4072   22.4707 C   0  0  0  0  0  0
  -28.5811  -23.1563   20.9579 C   0  0  0  0  0  0
  -27.9731  -24.5693   20.9140 C   0  0  0  0  0  0
  -30.3256  -16.6537   21.6245 C   0  0  0  0  0  0
  -28.5226  -25.4242   19.7582 C   0  0  0  0  0  0
  -29.0397  -17.3334   22.1500 C   0  0  2  0  0  0
  -30.0346  -20.8020   22.7078 N   0  0  0  0  0  0
  -29.1546  -18.7904   22.2208 N   0  0  0  0  0  0
  -30.0988  -15.2211   21.4917 N   0  0  0  0  0  0
  -31.4728  -12.4041   19.0883 H   0  0  0  0  0  0
  -30.3319  -11.2549   19.7331 H   0  0  0  0  0  0
  -29.7271  -11.8536   17.3805 H   0  0  0  0  0  0
  -29.6797  -13.5466   17.8002 H   0  0  0  0  0  0
  -27.7929  -11.3515   18.7463 H   0  0  0  0  0  0
  -27.3748  -12.7439   17.7832 H   0  0  0  0  0  0
  -27.7393  -14.2635   19.6528 H   0  0  0  0  0  0
  -28.6711  -11.8445   21.2695 H   0  0  0  0  0  0
  -28.4612  -13.4324   21.9159 H   0  0  0  0  0  0
  -25.2746   -9.5665   22.4748 H   0  0  0  0  0  0
  -23.9976   -7.4642   22.7499 H   0  0  0  0  0  0
  -21.0814   -8.8780   19.8977 H   0  0  0  0  0  0
  -22.3690  -10.9663   19.6184 H   0  0  0  0  0  0
  -21.1980   -7.6134   23.9713 H   0  0  0  0  0  0
  -21.1520   -6.0514   25.9084 H   0  0  0  0  0  0
  -22.0587   -2.7606   23.2846 H   0  0  0  0  0  0
  -22.4035  -11.9901   22.4801 H   0  0  0  0  0  0
  -21.1142  -13.1367   22.2603 H   0  0  0  0  0  0
  -24.6626  -15.8376   20.5083 H   0  0  0  0  0  0
  -26.2863  -15.6242   20.0861 H   0  0  0  0  0  0
  -26.7102  -32.5516   23.1165 H   0  0  0  0  0  0
  -25.0110  -33.9796   25.0508 H   0  0  0  0  0  0
  -22.6808  -31.3098   21.4158 H   0  0  0  0  0  0
  -23.3740  -35.9647   23.3315 H   0  0  0  0  0  0
  -24.3571  -36.8903   22.2038 H   0  0  0  0  0  0
  -23.7244  -37.6522   23.6637 H   0  0  0  0  0  0
  -26.0482  -31.6100   20.6038 H   0  0  0  0  0  0
  -26.8052  -30.8787   21.9906 H   0  0  0  0  0  0
  -28.0933  -29.1446   21.1278 H   0  0  0  0  0  0
  -26.0380  -25.9716   19.0268 H   0  0  0  0  0  0
  -23.9669  -27.2789   19.0633 H   0  0  0  0  0  0
  -23.7001  -30.5928   19.4038 H   0  0  0  0  0  0
  -22.7229  -29.2377   19.8782 H   0  0  0  0  0  0
  -25.1290  -36.1969   25.0818 H   0  0  0  0  0  0
  -20.9944  -28.3217   24.1457 H   0  0  0  0  0  0
  -20.5703  -26.2264   23.3577 H   0  0  0  0  0  0
  -21.6648  -26.7487   22.1192 H   0  0  0  0  0  0
  -19.6927  -25.6316   21.1210 H   0  0  0  0  0  0
  -19.6680  -27.3227   20.6747 H   0  0  0  0  0  0
  -17.4209  -26.6672   21.4016 H   0  0  0  0  0  0
  -18.0342  -26.0056   22.9003 H   0  0  0  0  0  0
  -19.7920  -30.7253   24.2296 H   0  0  0  0  0  0
  -17.4999  -31.6252   24.5188 H   0  0  0  0  0  0
  -15.5343  -30.2985   23.7641 H   0  0  0  0  0  0
  -15.8665  -28.0815   22.7071 H   0  0  0  0  0  0
  -24.5894  -30.7104   25.7822 H   0  0  0  0  0  0
  -24.8965  -32.2889   26.4970 H   0  0  0  0  0  0
  -25.8093  -30.8862   27.0224 H   0  0  0  0  0  0
  -26.2847  -29.6828   24.1166 H   0  0  0  0  0  0
  -27.4014  -29.7279   25.4613 H   0  0  0  0  0  0
  -27.8708  -30.4350   23.9328 H   0  0  0  0  0  0
  -27.2667  -33.3621   26.2123 H   0  0  0  0  0  0
  -28.3832  -32.6953   25.0306 H   0  0  0  0  0  0
  -28.0764  -31.8450   26.5368 H   0  0  0  0  0  0
  -28.2613  -38.0098   24.7508 H   0  0  0  0  0  0
  -28.1068  -36.2627   24.6299 H   0  0  0  0  0  0
  -27.2296  -37.1474   25.8868 H   0  0  0  0  0  0
  -20.9306  -29.8703   21.6933 H   0  0  0  0  0  0
  -26.0182  -38.2868   24.1396 H   0  0  0  0  0  0
  -31.1248  -19.0171   23.0090 H   0  0  0  0  0  0
  -23.6317  -18.8946   22.7190 H   0  0  0  0  0  0
  -24.4751  -17.8678   21.5651 H   0  0  0  0  0  0
  -24.0263  -19.5147   21.1174 H   0  0  0  0  0  0
  -28.4094  -15.7060   23.4916 H   0  0  0  0  0  0
  -27.6751  -17.2541   23.8463 H   0  0  0  0  0  0
  -29.3515  -16.9677   24.2817 H   0  0  0  0  0  0
  -28.3384  -22.8974   23.0843 H   0  0  0  0  0  0
  -27.0233  -22.2609   22.1456 H   0  0  0  0  0  0
  -26.8116  -18.5294   20.8236 H   0  0  0  0  0  0
  -26.5476  -20.2234   20.6544 H   0  0  0  0  0  0
  -26.0429  -18.7592   23.2870 H   0  0  0  0  0  0
  -25.5956  -20.3995   22.9042 H   0  0  0  0  0  0
  -28.3443  -22.6144   20.0411 H   0  0  0  0  0  0
  -29.6681  -23.2389   21.0006 H   0  0  0  0  0  0
  -28.1917  -25.0692   21.8584 H   0  0  0  0  0  0
  -26.8849  -24.5108   20.8473 H   0  0  0  0  0  0
  -31.1736  -16.8175   22.2897 H   0  0  0  0  0  0
  -30.5895  -17.0711   20.6503 H   0  0  0  0  0  0
  -28.0591  -25.1814   18.8021 H   0  0  0  0  0  0
  -29.5849  -25.2118   19.6307 H   0  0  0  0  0  0
  -28.2586  -17.0939   21.4290 H   0  0  0  0  0  0
  -29.2844  -14.8535   21.9593 H   0  0  0  0  0  0
  1 25  1  0  0  0
  1 30  2  0  0  0
  1 86  1  0  0  0
  2  3  1  0  0  0
  2 25  1  0  0  0
  2 87  1  0  0  0
  2 88  1  0  0  0
  3  4  1  0  0  0
  3 89  1  0  0  0
  3 90  1  0  0  0
  4  5  1  0  0  0
  4 91  1  0  0  0
  4 92  1  0  0  0
  5  6  1  0  0  0
  5 26  1  0  0  0
  5 93  1  0  0  0
  6 25  1  0  0  0
  6 94  1  0  0  0
  6 95  1  0  0  0
  7  8  2  0  0  0
  7 26  1  0  0  0
  7 29  1  0  0  0
  8  9  1  0  0  0
  8 22  1  0  0  0
  9 10  1  0  0  0
  9 27  2  0  0  0
 10 11  2  0  0  0
 10 15  1  0  0  0
 11 12  1  0  0  0
 11 96  1  0  0  0
 12 13  2  0  0  0
 12 97  1  0  0  0
 13 14  1  0  0  0
 13 31  1  0  0  0
 14 15  2  0  0  0
 14 98  1  0  0  0
 15 99  1  0  0  0
 16 17  2  0  0  0
 16 21  1  0  0  0
 16 31  1  0  0  0
 17 18  1  0  0  0
 17100  1  0  0  0
 18 19  2  0  0  0
 18101  1  0  0  0
 19 20  1  0  0  0
 19 24  1  0  0  0
 20 21  2  0  0  0
 20102  1  0  0  0
 21 23  1  0  0  0
 22 28  1  0  0  0
 22 32  2  0  0  0
 26 27  1  0  0  0
 28103  1  0  0  0
 28104  1  0  0  0
 29105  1  0  0  0
 29106  1  0  0  0
 33 34  1  0  0  0
 33 66  1  0  0  0
 33 70  2  0  0  0
 34 36  1  0  0  0
 34 59  1  0  0  0
 34107  1  0  0  0
 35 44  2  0  0  0
 35 45  1  0  0  0
 35 68  1  0  0  0
 36 56  1  0  0  0
 36108  1  0  0  0
 37 39  1  0  0  0
 37 47  1  0  0  0
 37 66  1  0  0  0
 37109  1  0  0  0
 38 43  2  0  0  0
 38 46  1  0  0  0
 38 47  1  0  0  0
 39 64  1  0  0  0
 39 67  2  0  0  0
 40 52  1  0  0  0
 40 53  2  0  0  0
 40 58  1  0  0  0
 41110  1  0  0  0
 41111  1  0  0  0
 41112  1  0  0  0
 41 48  1  0  0  0
 42 43  1  0  0  0
 42 66  1  0  0  0
 42113  1  0  0  0
 42114  1  0  0  0
 43 44  1  0  0  0
 44115  1  0  0  0
 45 46  2  0  0  0
 45116  1  0  0  0
 46117  1  0  0  0
 47118  1  0  0  0
 47119  1  0  0  0
 48 56  1  0  0  0
 48 65  1  0  0  0
 48120  1  0  0  0
 49 50  1  0  0  0
 49 53  1  0  0  0
 49 64  1  0  0  0
 49121  1  0  0  0
 50 51  1  0  0  0
 50122  1  0  0  0
 50123  1  0  0  0
 51 52  1  0  0  0
 51124  1  0  0  0
 51125  1  0  0  0
 52126  1  0  0  0
 52127  1  0  0  0
 53 54  1  0  0  0
 54 55  2  0  0  0
 54128  1  0  0  0
 55 57  1  0  0  0
 55129  1  0  0  0
 56 69  2  0  0  0
 57 58  2  0  0  0
 57130  1  0  0  0
 58131  1  0  0  0
 59 60  1  0  0  0
 59 61  1  0  0  0
 59 62  1  0  0  0
 60132  1  0  0  0
 60133  1  0  0  0
 60134  1  0  0  0
 61135  1  0  0  0
 61136  1  0  0  0
 61137  1  0  0  0
 62138  1  0  0  0
 62139  1  0  0  0
 62140  1  0  0  0
 63 65  1  0  0  0
 63141  1  0  0  0
 63142  1  0  0  0
 63143  1  0  0  0
 64144  1  0  0  0
 65145  1  0  0  0
 68 82  1  0  0  0
 71 84  2  0  0  0
 71 85  1  0  0  0
 71146  1  0  0  0
 72 73  2  0  0  0
 72 76  1  0  0  0
 72 84  1  0  0  0
 73 77  1  0  0  0
 73 85  1  0  0  0
 74 78  1  0  0  0
 74147  1  0  0  0
 74148  1  0  0  0
 74149  1  0  0  0
 75150  1  0  0  0
 75151  1  0  0  0
 75152  1  0  0  0
 75 83  1  0  0  0
 76 79  1  0  0  0
 76153  1  0  0  0
 76154  1  0  0  0
 77 78  1  0  0  0
 77155  1  0  0  0
 77156  1  0  0  0
 78157  1  0  0  0
 78158  1  0  0  0
 79 80  1  0  0  0
 79159  1  0  0  0
 79160  1  0  0  0
 80 82  1  0  0  0
 80161  1  0  0  0
 80162  1  0  0  0
 81 83  1  0  0  0
 81 86  1  0  0  0
 81163  1  0  0  0
 81164  1  0  0  0
 82165  1  0  0  0
 82166  1  0  0  0
 83 85  1  0  0  0
 83167  1  0  0  0
 86168  1  0  0  0
M  ISO  4   1 100  68 101  82 101  86 100
M  END
> <chiral flag>
0

> <version>
0

> <s_m_source_file>
/data/baiqing/PycharmProjects/Reinvent-master-3.2/result/LINK_invent/BTK/process_docking_weight1_custom_sum_contain_oxygen_bond_distance_aromatic_linkinvent_7_9_3/rearranged_h_0072.sdf

> <i_m_source_file_index>
64

> <r_mmod_Potential_Energy-OPLS-2005>
-128.581130981445

> <r_mmod_Stretch_Energy-OPLS-2005>
31.8987007141113

> <r_mmod_Bend_Energy-OPLS-2005>
105.304763793945

> <r_mmod_Torsional_Energy-OPLS-2005>
216.343978881836

> <r_mmod_Improper_Torsional_Energy-OPLS-2005>
2.93658065795898

> <r_mmod_Van_der_Waal_Energy-OPLS-2005>
122.181915283203

> <r_mmod_Electrostatic_Energy-OPLS-2005>
-397.733184814453

> <r_mmod_Solvation_Energy-OPLS-2005>
-218.060562133789

> <b_mmod_Minimization_Converged-OPLS-2005>
0

> <r_mmod_RMS_Derivative-OPLS-2005>
2.44970369338989

$$$$
65
                    3D
 Structure written by MMmdl.
156164  0  0  1  0            999 V2000
  -30.6516  -14.7793   20.2930 C   0  0  0  0  0  0
  -30.4296  -12.4447   19.4862 C   0  0  0  0  0  0
  -29.5104  -12.3899   18.2476 C   0  0  0  0  0  0
  -28.0321  -12.2399   18.6727 C   0  0  0  0  0  0
  -27.6176  -13.1555   19.8550 C   0  0  2  0  0  0
  -28.6907  -13.2566   20.9593 C   0  0  0  0  0  0
  -25.2483  -13.7903   20.5873 C   0  0  0  0  0  0
  -24.1730  -13.0282   20.9369 C   0  0  0  0  0  0
  -24.6248  -11.6738   20.8909 C   0  0  0  0  0  0
  -23.8932  -10.4192   21.0513 C   0  0  0  0  0  0
  -24.3501   -9.4113   21.9290 C   0  0  0  0  0  0
  -23.6202   -8.2144   22.0789 C   0  0  0  0  0  0
  -22.4204   -8.0194   21.3543 C   0  0  0  0  0  0
  -21.9828   -9.0172   20.4646 C   0  0  0  0  0  0
  -22.7138  -10.2073   20.3113 C   0  0  0  0  0  0
  -21.6812   -6.0663   22.5290 C   0  0  0  0  0  0
  -21.3998   -6.5588   23.8229 C   0  0  0  0  0  0
  -21.3694   -5.6757   24.9204 C   0  0  0  0  0  0
  -21.6060   -4.3017   24.7252 C   0  0  0  0  0  0
  -21.8793   -3.8088   23.4373 C   0  0  0  0  0  0
  -21.9156   -4.6890   22.3417 C   0  0  0  0  0  0
  -22.7761  -13.5158   21.1941 C   0  0  0  0  0  0
  -22.1628   -4.2086   21.0996 F   0  0  0  0  0  0
  -21.5664   -3.4510   25.7768 F   0  0  0  0  0  0
  -29.9768  -13.5756   20.3212 N   0  0  0  0  0  0
  -26.2847  -12.8946   20.3563 N   0  0  0  0  0  0
  -25.9166  -11.6193   20.5996 N   0  0  0  0  0  0
  -22.0293  -12.8285   22.0502 N   0  0  0  0  0  0
  -25.4158  -15.1638   20.4184 N   0  0  0  0  0  0
  -31.8745  -14.7342   20.4459 O   0  0  0  0  0  0
  -21.6593   -6.8782   21.4244 O   0  0  0  0  0  0
  -22.3542  -14.5473   20.6661 O   0  0  0  0  0  0
  -24.6282  -31.8579   23.1992 C   0  0  0  0  0  0
  -25.9119  -32.4774   23.8340 C   0  0  1  0  0  0
  -27.2308  -27.3094   20.1162 C   0  0  0  0  0  0
  -25.5953  -33.8571   24.2316 N   0  0  0  0  0  0
  -23.4236  -30.4792   21.5399 C   0  0  2  0  0  0
  -24.8698  -28.9188   20.1171 C   0  0  0  0  0  0
  -22.7478  -29.4632   22.4906 C   0  0  0  0  0  0
  -18.0299  -28.1375   22.8485 C   0  0  0  0  0  0
  -24.1481  -36.7272   23.2641 C   0  0  0  0  0  0
  -25.9642  -30.7847   21.3674 C   0  0  0  0  0  0
  -26.0400  -29.4076   20.7143 C   0  0  0  0  0  0
  -27.2260  -28.6144   20.6995 C   0  0  0  0  0  0
  -26.0402  -26.8659   19.5044 C   0  0  0  0  0  0
  -24.8706  -27.6540   19.5037 C   0  0  0  0  0  0
  -23.6397  -29.8046   20.1594 C   0  0  0  0  0  0
  -25.4106  -36.3094   24.0354 C   0  0  1  0  0  0
  -20.5892  -28.3711   23.1254 C   0  0  2  0  0  0
  -20.6782  -26.9419   22.5400 C   0  0  0  0  0  0
  -19.5760  -26.6378   21.5193 C   0  0  0  0  0  0
  -18.1940  -26.7929   22.1611 C   0  0  0  0  0  0
  -19.1547  -28.8850   23.2875 C   0  0  0  0  0  0
  -18.9469  -30.1443   23.8904 C   0  0  0  0  0  0
  -17.6468  -30.6572   24.0560 C   0  0  0  0  0  0
  -25.9048  -34.9453   23.5135 C   0  0  0  0  0  0
  -16.5354  -29.9070   23.6320 C   0  0  0  0  0  0
  -16.7282  -28.6485   23.0355 C   0  0  0  0  0  0
  -26.4527  -31.6578   25.0702 C   0  0  0  0  0  0
  -25.3787  -31.3673   26.1443 C   0  0  0  0  0  0
  -27.0403  -30.3032   24.6132 C   0  0  0  0  0  0
  -27.6110  -32.4313   25.7454 C   0  0  0  0  0  0
  -27.5589  -37.1783   24.8478 C   0  0  0  0  0  0
  -21.4188  -29.3081   22.3656 N   0  0  0  0  0  0
  -26.4291  -37.3783   23.9441 N   0  0  0  0  0  0
  -24.6916  -31.0575   22.0933 N   0  0  0  0  0  0
  -23.4194  -28.8174   23.2997 O   0  0  0  0  0  0
  -28.3605  -26.4802   20.0954 O   0  0  0  0  0  0
  -26.5586  -34.8919   22.4682 O   0  0  0  0  0  0
  -23.5442  -32.1383   23.7321 O   0  0  0  0  0  0
  -30.2019  -18.7417   19.3822 C   0  0  0  0  0  0
  -30.0598  -17.5656   20.1013 C   0  0  0  0  0  0
  -28.7928  -15.9899   18.7763 C   0  0  0  0  0  0
  -31.1507  -16.1828   18.2928 C   0  0  0  0  0  0
  -28.8230  -22.3955   20.4869 C   0  0  0  0  0  0
  -28.6562  -23.8264   19.7602 C   0  0  0  0  0  0
  -29.5506  -21.2392   19.6571 C   0  0  0  0  0  0
  -28.2536  -25.1028   20.6375 C   0  0  0  0  0  0
  -30.1466  -16.1108   19.4792 C   0  0  0  0  0  0
  -29.4545  -17.9783   21.3053 N   0  0  0  0  0  0
  -29.2680  -19.2932   21.3182 N   0  0  0  0  0  0
  -29.6723  -19.7997   20.1208 N   0  0  0  0  0  0
  -31.4737  -12.5520   19.1893 H   0  0  0  0  0  0
  -30.3671  -11.5105   20.0481 H   0  0  0  0  0  0
  -29.7895  -11.5313   17.6388 H   0  0  0  0  0  0
  -29.6643  -13.2602   17.6115 H   0  0  0  0  0  0
  -27.8936  -11.1989   18.9629 H   0  0  0  0  0  0
  -27.3776  -12.4096   17.8210 H   0  0  0  0  0  0
  -27.4865  -14.0988   19.3900 H   0  0  0  0  0  0
  -28.7678  -12.3229   21.5187 H   0  0  0  0  0  0
  -28.4258  -14.0304   21.6814 H   0  0  0  0  0  0
  -25.2614   -9.5586   22.4923 H   0  0  0  0  0  0
  -23.9883   -7.4505   22.7495 H   0  0  0  0  0  0
  -21.0775   -8.8686   19.8914 H   0  0  0  0  0  0
  -22.3614  -10.9637   19.6230 H   0  0  0  0  0  0
  -21.2004   -7.6092   23.9723 H   0  0  0  0  0  0
  -21.1583   -6.0498   25.9124 H   0  0  0  0  0  0
  -22.0545   -2.7538   23.2897 H   0  0  0  0  0  0
  -22.3748  -12.0032   22.5174 H   0  0  0  0  0  0
  -21.0863  -13.1384   22.2474 H   0  0  0  0  0  0
  -24.6272  -15.7946   20.5062 H   0  0  0  0  0  0
  -26.2565  -15.6201   20.0906 H   0  0  0  0  0  0
  -26.7194  -32.5448   23.1085 H   0  0  0  0  0  0
  -25.0232  -33.9705   25.0556 H   0  0  0  0  0  0
  -22.7229  -31.3014   21.3914 H   0  0  0  0  0  0
  -23.3774  -35.9571   23.3299 H   0  0  0  0  0  0
  -24.3577  -36.8879   22.2060 H   0  0  0  0  0  0
  -23.7177  -37.6455   23.6636 H   0  0  0  0  0  0
  -26.0923  -31.5383   20.5908 H   0  0  0  0  0  0
  -26.8468  -30.8410   21.9945 H   0  0  0  0  0  0
  -28.1298  -28.9844   21.1582 H   0  0  0  0  0  0
  -26.0151  -25.8970   19.0236 H   0  0  0  0  0  0
  -23.9735  -27.2769   19.0334 H   0  0  0  0  0  0
  -23.7626  -30.5747   19.3982 H   0  0  0  0  0  0
  -22.7592  -29.2365   19.8597 H   0  0  0  0  0  0
  -25.1267  -36.1969   25.0845 H   0  0  0  0  0  0
  -21.0021  -28.3292   24.1358 H   0  0  0  0  0  0
  -20.5666  -26.2325   23.3614 H   0  0  0  0  0  0
  -21.6654  -26.7421   22.1197 H   0  0  0  0  0  0
  -19.6923  -25.6282   21.1235 H   0  0  0  0  0  0
  -19.6689  -27.3182   20.6717 H   0  0  0  0  0  0
  -17.4214  -26.6695   21.4001 H   0  0  0  0  0  0
  -18.0320  -26.0038   22.8988 H   0  0  0  0  0  0
  -19.7941  -30.7249   24.2296 H   0  0  0  0  0  0
  -17.5014  -31.6243   24.5177 H   0  0  0  0  0  0
  -15.5360  -30.2980   23.7605 H   0  0  0  0  0  0
  -15.8688  -28.0779   22.7092 H   0  0  0  0  0  0
  -24.5930  -30.7075   25.7757 H   0  0  0  0  0  0
  -24.9006  -32.2817   26.4966 H   0  0  0  0  0  0
  -25.8109  -30.8764   27.0171 H   0  0  0  0  0  0
  -26.2971  -29.6716   24.1257 H   0  0  0  0  0  0
  -27.4283  -29.7337   25.4587 H   0  0  0  0  0  0
  -27.8745  -30.4383   23.9241 H   0  0  0  0  0  0
  -27.2748  -33.3601   26.2067 H   0  0  0  0  0  0
  -28.3862  -32.6895   25.0231 H   0  0  0  0  0  0
  -28.0850  -31.8424   26.5318 H   0  0  0  0  0  0
  -28.2608  -38.0085   24.7557 H   0  0  0  0  0  0
  -28.1079  -36.2619   24.6259 H   0  0  0  0  0  0
  -27.2306  -37.1381   25.8878 H   0  0  0  0  0  0
  -20.9369  -29.8832   21.6879 H   0  0  0  0  0  0
  -26.0192  -38.2863   24.1450 H   0  0  0  0  0  0
  -30.5378  -18.8985   18.3664 H   0  0  0  0  0  0
  -28.5935  -16.8475   18.1325 H   0  0  0  0  0  0
  -27.9914  -16.0262   19.5079 H   0  0  0  0  0  0
  -28.7328  -15.1317   18.1146 H   0  0  0  0  0  0
  -30.8215  -16.8378   17.4879 H   0  0  0  0  0  0
  -31.2924  -15.2040   17.8304 H   0  0  0  0  0  0
  -32.1275  -16.5419   18.6203 H   0  0  0  0  0  0
  -29.3676  -22.5310   21.4204 H   0  0  0  0  0  0
  -27.8339  -22.0429   20.7794 H   0  0  0  0  0  0
  -27.9044  -23.7177   18.9754 H   0  0  0  0  0  0
  -29.5819  -24.0503   19.2313 H   0  0  0  0  0  0
  -30.5680  -21.5754   19.4475 H   0  0  0  0  0  0
  -29.0657  -21.1943   18.6808 H   0  0  0  0  0  0
  -28.9259  -25.1034   21.4955 H   0  0  0  0  0  0
  -27.2618  -24.9409   21.0573 H   0  0  0  0  0  0
  1 25  1  0  0  0
  1 30  2  0  0  0
  1 79  1  0  0  0
  2  3  1  0  0  0
  2 25  1  0  0  0
  2 83  1  0  0  0
  2 84  1  0  0  0
  3  4  1  0  0  0
  3 85  1  0  0  0
  3 86  1  0  0  0
  4  5  1  0  0  0
  4 87  1  0  0  0
  4 88  1  0  0  0
  5  6  1  0  0  0
  5 26  1  0  0  0
  5 89  1  0  0  0
  6 25  1  0  0  0
  6 90  1  0  0  0
  6 91  1  0  0  0
  7  8  2  0  0  0
  7 26  1  0  0  0
  7 29  1  0  0  0
  8  9  1  0  0  0
  8 22  1  0  0  0
  9 10  1  0  0  0
  9 27  2  0  0  0
 10 11  2  0  0  0
 10 15  1  0  0  0
 11 12  1  0  0  0
 11 92  1  0  0  0
 12 13  2  0  0  0
 12 93  1  0  0  0
 13 14  1  0  0  0
 13 31  1  0  0  0
 14 15  2  0  0  0
 14 94  1  0  0  0
 15 95  1  0  0  0
 16 17  2  0  0  0
 16 21  1  0  0  0
 16 31  1  0  0  0
 17 18  1  0  0  0
 17 96  1  0  0  0
 18 19  2  0  0  0
 18 97  1  0  0  0
 19 20  1  0  0  0
 19 24  1  0  0  0
 20 21  2  0  0  0
 20 98  1  0  0  0
 21 23  1  0  0  0
 22 28  1  0  0  0
 22 32  2  0  0  0
 26 27  1  0  0  0
 28 99  1  0  0  0
 28100  1  0  0  0
 29101  1  0  0  0
 29102  1  0  0  0
 33 34  1  0  0  0
 33 66  1  0  0  0
 33 70  2  0  0  0
 34 36  1  0  0  0
 34 59  1  0  0  0
 34103  1  0  0  0
 35 44  2  0  0  0
 35 45  1  0  0  0
 35 68  1  0  0  0
 36 56  1  0  0  0
 36104  1  0  0  0
 37 39  1  0  0  0
 37 47  1  0  0  0
 37 66  1  0  0  0
 37105  1  0  0  0
 38 43  2  0  0  0
 38 46  1  0  0  0
 38 47  1  0  0  0
 39 64  1  0  0  0
 39 67  2  0  0  0
 40 52  1  0  0  0
 40 53  2  0  0  0
 40 58  1  0  0  0
 41106  1  0  0  0
 41107  1  0  0  0
 41108  1  0  0  0
 41 48  1  0  0  0
 42 43  1  0  0  0
 42 66  1  0  0  0
 42109  1  0  0  0
 42110  1  0  0  0
 43 44  1  0  0  0
 44111  1  0  0  0
 45 46  2  0  0  0
 45112  1  0  0  0
 46113  1  0  0  0
 47114  1  0  0  0
 47115  1  0  0  0
 48 56  1  0  0  0
 48 65  1  0  0  0
 48116  1  0  0  0
 49 50  1  0  0  0
 49 53  1  0  0  0
 49 64  1  0  0  0
 49117  1  0  0  0
 50 51  1  0  0  0
 50118  1  0  0  0
 50119  1  0  0  0
 51 52  1  0  0  0
 51120  1  0  0  0
 51121  1  0  0  0
 52122  1  0  0  0
 52123  1  0  0  0
 53 54  1  0  0  0
 54 55  2  0  0  0
 54124  1  0  0  0
 55 57  1  0  0  0
 55125  1  0  0  0
 56 69  2  0  0  0
 57 58  2  0  0  0
 57126  1  0  0  0
 58127  1  0  0  0
 59 60  1  0  0  0
 59 61  1  0  0  0
 59 62  1  0  0  0
 60128  1  0  0  0
 60129  1  0  0  0
 60130  1  0  0  0
 61131  1  0  0  0
 61132  1  0  0  0
 61133  1  0  0  0
 62134  1  0  0  0
 62135  1  0  0  0
 62136  1  0  0  0
 63 65  1  0  0  0
 63137  1  0  0  0
 63138  1  0  0  0
 63139  1  0  0  0
 64140  1  0  0  0
 65141  1  0  0  0
 68 78  1  0  0  0
 71 72  2  0  0  0
 71 82  1  0  0  0
 71142  1  0  0  0
 72 79  1  0  0  0
 72 80  1  0  0  0
 73143  1  0  0  0
 73144  1  0  0  0
 73145  1  0  0  0
 73 79  1  0  0  0
 74 79  1  0  0  0
 74146  1  0  0  0
 74147  1  0  0  0
 74148  1  0  0  0
 75 76  1  0  0  0
 75 77  1  0  0  0
 75149  1  0  0  0
 75150  1  0  0  0
 76 78  1  0  0  0
 76151  1  0  0  0
 76152  1  0  0  0
 77 82  1  0  0  0
 77153  1  0  0  0
 77154  1  0  0  0
 78155  1  0  0  0
 78156  1  0  0  0
 80 81  2  0  0  0
 81 82  1  0  0  0
M  ISO  4   1 100  68 101  78 101  79 100
M  END
> <chiral flag>
0

> <version>
0

> <s_m_source_file>
/data/baiqing/PycharmProjects/Reinvent-master-3.2/result/LINK_invent/BTK/process_docking_weight1_custom_sum_contain_oxygen_bond_distance_aromatic_linkinvent_7_9_3/rearranged_h_0072.sdf

> <i_m_source_file_index>
65

> <r_mmod_Potential_Energy-OPLS-2005>
365.531219482422

> <r_mmod_Stretch_Energy-OPLS-2005>
107.216682434082

> <r_mmod_Bend_Energy-OPLS-2005>
218.393127441406

> <r_mmod_Torsional_Energy-OPLS-2005>
262.238159179688

> <r_mmod_Improper_Torsional_Energy-OPLS-2005>
22.6155586242676

> <r_mmod_Van_der_Waal_Energy-OPLS-2005>
135.252395629883

> <r_mmod_Electrostatic_Energy-OPLS-2005>
-286.72900390625

> <r_mmod_Solvation_Energy-OPLS-2005>
-204.297348022461

> <b_mmod_Minimization_Converged-OPLS-2005>
0

> <r_mmod_RMS_Derivative-OPLS-2005>
5.26841831207275

$$$$
66
                    3D
 Structure written by MMmdl.
163171  0  0  1  0            999 V2000
  -30.7519  -14.4642   20.6782 C   0  0  0  0  0  0
  -30.4120  -12.3375   19.4323 C   0  0  0  0  0  0
  -29.4951  -12.5366   18.2088 C   0  0  0  0  0  0
  -28.0142  -12.3975   18.6008 C   0  0  0  0  0  0
  -27.6594  -13.2177   19.8655 C   0  0  2  0  0  0
  -28.6915  -12.9800   20.9834 C   0  0  0  0  0  0
  -25.2602  -13.8184   20.5671 C   0  0  0  0  0  0
  -24.1846  -13.0451   20.9124 C   0  0  0  0  0  0
  -24.6409  -11.6912   20.8674 C   0  0  0  0  0  0
  -23.9076  -10.4288   21.0380 C   0  0  0  0  0  0
  -24.3636   -9.4209   21.9161 C   0  0  0  0  0  0
  -23.6313   -8.2243   22.0742 C   0  0  0  0  0  0
  -22.4272   -8.0292   21.3565 C   0  0  0  0  0  0
  -21.9919   -9.0256   20.4645 C   0  0  0  0  0  0
  -22.7245  -10.2132   20.3039 C   0  0  0  0  0  0
  -21.6855   -6.0741   22.5281 C   0  0  0  0  0  0
  -21.4019   -6.5653   23.8222 C   0  0  0  0  0  0
  -21.3661   -5.6809   24.9187 C   0  0  0  0  0  0
  -21.6046   -4.3071   24.7233 C   0  0  0  0  0  0
  -21.8821   -3.8161   23.4359 C   0  0  0  0  0  0
  -21.9196   -4.6974   22.3411 C   0  0  0  0  0  0
  -22.7867  -13.5226   21.1843 C   0  0  0  0  0  0
  -22.1665   -4.2159   21.0997 F   0  0  0  0  0  0
  -21.5631   -3.4569   25.7756 F   0  0  0  0  0  0
  -30.0255  -13.3197   20.4684 N   0  0  0  0  0  0
  -26.3020  -12.9385   20.3274 N   0  0  0  0  0  0
  -25.9331  -11.6530   20.5646 N   0  0  0  0  0  0
  -22.0552  -12.8176   22.0407 N   0  0  0  0  0  0
  -25.4388  -15.1909   20.4199 N   0  0  0  0  0  0
  -31.7883  -14.6494   20.0263 O   0  0  0  0  0  0
  -21.6637   -6.8893   21.4250 O   0  0  0  0  0  0
  -22.3512  -14.5537   20.6740 O   0  0  0  0  0  0
  -24.6150  -31.8647   23.2050 C   0  0  0  0  0  0
  -25.9038  -32.4805   23.8366 C   0  0  1  0  0  0
  -27.2436  -27.3967   20.1007 C   0  0  0  0  0  0
  -25.5890  -33.8601   24.2281 N   0  0  0  0  0  0
  -23.4065  -30.4845   21.5450 C   0  0  2  0  0  0
  -24.8551  -28.9442   20.1134 C   0  0  0  0  0  0
  -22.7418  -29.4626   22.4958 C   0  0  0  0  0  0
  -18.0273  -28.1363   22.8489 C   0  0  0  0  0  0
  -24.1499  -36.7307   23.2639 C   0  0  0  0  0  0
  -25.9378  -30.8177   21.3667 C   0  0  0  0  0  0
  -26.0143  -29.4489   20.7140 C   0  0  0  0  0  0
  -27.2050  -28.6808   20.7055 C   0  0  0  0  0  0
  -26.0572  -26.9120   19.4999 C   0  0  0  0  0  0
  -24.8740  -27.6776   19.5034 C   0  0  0  0  0  0
  -23.6158  -29.8112   20.1618 C   0  0  0  0  0  0
  -25.4123  -36.3092   24.0319 C   0  0  1  0  0  0
  -20.5863  -28.3647   23.1302 C   0  0  2  0  0  0
  -20.6756  -26.9382   22.5402 C   0  0  0  0  0  0
  -19.5733  -26.6374   21.5198 C   0  0  0  0  0  0
  -18.1917  -26.7911   22.1618 C   0  0  0  0  0  0
  -19.1525  -28.8824   23.2895 C   0  0  0  0  0  0
  -18.9448  -30.1437   23.8898 C   0  0  0  0  0  0
  -17.6454  -30.6583   24.0547 C   0  0  0  0  0  0
  -25.9046  -34.9462   23.5101 C   0  0  0  0  0  0
  -16.5346  -29.9079   23.6324 C   0  0  0  0  0  0
  -16.7264  -28.6490   23.0349 C   0  0  0  0  0  0
  -26.4450  -31.6607   25.0720 C   0  0  0  0  0  0
  -25.3691  -31.3738   26.1449 C   0  0  0  0  0  0
  -27.0269  -30.3040   24.6121 C   0  0  0  0  0  0
  -27.6004  -32.4332   25.7504 C   0  0  0  0  0  0
  -27.5582  -37.1814   24.8455 C   0  0  0  0  0  0
  -21.4135  -29.3024   22.3719 N   0  0  0  0  0  0
  -26.4300  -37.3782   23.9393 N   0  0  0  0  0  0
  -24.6715  -31.0719   22.0971 N   0  0  0  0  0  0
  -23.4184  -28.8163   23.3004 O   0  0  0  0  0  0
  -28.4368  -26.6838   20.1404 O   0  0  0  0  0  0
  -26.5617  -34.8924   22.4666 O   0  0  0  0  0  0
  -23.5337  -32.1399   23.7423 O   0  0  0  0  0  0
  -30.4327  -18.0497   20.7222 C   0  0  0  0  0  0
  -28.3016  -18.3028   20.4411 C   0  0  0  0  0  0
  -29.7958  -16.8739   21.0918 C   0  0  0  0  0  0
  -30.4809  -14.0352   23.8099 C   0  0  0  0  0  0
  -29.1409  -22.8550   19.7156 C   0  0  0  0  0  0
  -29.1426  -21.5244   20.5406 C   0  0  0  0  0  0
  -28.6778  -24.1635   20.4370 C   0  0  0  0  0  0
  -29.6753  -20.3035   19.7235 C   0  0  0  0  0  0
  -28.6136  -25.4036   19.4869 C   0  0  0  0  0  0
  -30.4087  -15.6089   21.7095 C   0  0  1  0  0  0
  -29.8406  -15.2693   23.1295 C   0  0  2  0  0  0
  -28.4213  -17.0535   20.9047 N   0  0  0  0  0  0
  -29.4622  -18.9630   20.3009 N   0  0  0  0  0  0
  -29.9481  -16.4362   24.0359 N   0  3  0  0  0  0
  -31.4571  -12.4219   19.1317 H   0  0  0  0  0  0
  -30.3153  -11.3234   19.8232 H   0  0  0  0  0  0
  -29.7424  -11.8141   17.4297 H   0  0  0  0  0  0
  -29.6726  -13.5244   17.7807 H   0  0  0  0  0  0
  -27.8043  -11.3417   18.7683 H   0  0  0  0  0  0
  -27.3811  -12.7014   17.7661 H   0  0  0  0  0  0
  -27.7080  -14.2720   19.5892 H   0  0  0  0  0  0
  -28.6730  -11.9327   21.2894 H   0  0  0  0  0  0
  -28.3929  -13.5315   21.8591 H   0  0  0  0  0  0
  -25.2789   -9.5681   22.4712 H   0  0  0  0  0  0
  -24.0046   -7.4631   22.7428 H   0  0  0  0  0  0
  -21.0870   -8.8765   19.8923 H   0  0  0  0  0  0
  -22.3723  -10.9669   19.6132 H   0  0  0  0  0  0
  -21.2009   -7.6162   23.9737 H   0  0  0  0  0  0
  -21.1481   -6.0532   25.9090 H   0  0  0  0  0  0
  -22.0588   -2.7621   23.2860 H   0  0  0  0  0  0
  -22.4234  -11.9860   22.4779 H   0  0  0  0  0  0
  -21.1154  -13.1151   22.2636 H   0  0  0  0  0  0
  -24.6979  -15.8637   20.5772 H   0  0  0  0  0  0
  -26.3339  -15.6259   20.2246 H   0  0  0  0  0  0
  -26.7108  -32.5500   23.1131 H   0  0  0  0  0  0
  -25.0017  -33.9778   25.0406 H   0  0  0  0  0  0
  -22.6953  -31.3002   21.4005 H   0  0  0  0  0  0
  -23.3757  -35.9647   23.3307 H   0  0  0  0  0  0
  -24.3579  -36.8924   22.2052 H   0  0  0  0  0  0
  -23.7270  -37.6515   23.6661 H   0  0  0  0  0  0
  -26.0599  -31.5823   20.5985 H   0  0  0  0  0  0
  -26.8212  -30.8663   21.9905 H   0  0  0  0  0  0
  -28.1001  -29.0640   21.1765 H   0  0  0  0  0  0
  -26.0087  -25.9408   19.0332 H   0  0  0  0  0  0
  -23.9816  -27.2814   19.0389 H   0  0  0  0  0  0
  -23.7191  -30.5804   19.3954 H   0  0  0  0  0  0
  -22.7413  -29.2251   19.8720 H   0  0  0  0  0  0
  -25.1309  -36.1948   25.0813 H   0  0  0  0  0  0
  -20.9962  -28.3213   24.1415 H   0  0  0  0  0  0
  -20.5641  -26.2256   23.3586 H   0  0  0  0  0  0
  -21.6624  -26.7403   22.1202 H   0  0  0  0  0  0
  -19.6893  -25.6285   21.1226 H   0  0  0  0  0  0
  -19.6679  -27.3183   20.6729 H   0  0  0  0  0  0
  -17.4176  -26.6645   21.4033 H   0  0  0  0  0  0
  -18.0333  -26.0057   22.9017 H   0  0  0  0  0  0
  -19.7920  -30.7247   24.2268 H   0  0  0  0  0  0
  -17.5006  -31.6262   24.5140 H   0  0  0  0  0  0
  -15.5347  -30.2977   23.7644 H   0  0  0  0  0  0
  -15.8660  -28.0814   22.7062 H   0  0  0  0  0  0
  -24.5839  -30.7134   25.7772 H   0  0  0  0  0  0
  -24.8925  -32.2909   26.4914 H   0  0  0  0  0  0
  -25.8014  -30.8872   27.0199 H   0  0  0  0  0  0
  -26.2832  -29.6853   24.1094 H   0  0  0  0  0  0
  -27.3925  -29.7239   25.4603 H   0  0  0  0  0  0
  -27.8718  -30.4347   23.9356 H   0  0  0  0  0  0
  -27.2599  -33.3606   26.2122 H   0  0  0  0  0  0
  -28.3811  -32.6939   25.0347 H   0  0  0  0  0  0
  -28.0675  -31.8436   26.5400 H   0  0  0  0  0  0
  -28.2589  -38.0123   24.7496 H   0  0  0  0  0  0
  -28.1091  -36.2643   24.6290 H   0  0  0  0  0  0
  -27.2283  -37.1467   25.8855 H   0  0  0  0  0  0
  -20.9295  -29.8779   21.6966 H   0  0  0  0  0  0
  -26.0180  -38.2858   24.1388 H   0  0  0  0  0  0
  -31.4854  -18.3019   20.7228 H   0  0  0  0  0  0
  -27.3488  -18.7462   20.1815 H   0  0  0  0  0  0
  -30.3396  -13.1231   23.2317 H   0  0  0  0  0  0
  -30.0312  -13.8545   24.7877 H   0  0  0  0  0  0
  -31.5534  -14.1632   23.9601 H   0  0  0  0  0  0
  -28.5091  -22.7065   18.8388 H   0  0  0  0  0  0
  -30.1479  -23.0182   19.3242 H   0  0  0  0  0  0
  -28.1301  -21.3227   20.8929 H   0  0  0  0  0  0
  -29.7621  -21.6432   21.4313 H   0  0  0  0  0  0
  -29.3709  -24.3781   21.2504 H   0  0  0  0  0  0
  -27.7031  -24.0107   20.9033 H   0  0  0  0  0  0
  -30.7445  -20.4253   19.5421 H   0  0  0  0  0  0
  -29.2077  -20.2970   18.7378 H   0  0  0  0  0  0
  -27.9160  -25.2314   18.6705 H   0  0  0  0  0  0
  -29.5816  -25.4745   18.9894 H   0  0  0  0  0  0
  -31.4234  -15.9085   21.9718 H   0  0  0  0  0  0
  -28.7640  -15.1211   23.0628 H   0  0  0  0  0  0
  -30.8953  -16.7627   24.1330 H   0  0  0  0  0  0
  -29.5937  -16.2108   24.9488 H   0  0  0  0  0  0
  -29.3874  -17.1878   23.6721 H   0  0  0  0  0  0
  1 25  1  0  0  0
  1 30  2  0  0  0
  1 80  1  0  0  0
  2  3  1  0  0  0
  2 25  1  0  0  0
  2 85  1  0  0  0
  2 86  1  0  0  0
  3  4  1  0  0  0
  3 87  1  0  0  0
  3 88  1  0  0  0
  4  5  1  0  0  0
  4 89  1  0  0  0
  4 90  1  0  0  0
  5  6  1  0  0  0
  5 26  1  0  0  0
  5 91  1  0  0  0
  6 25  1  0  0  0
  6 92  1  0  0  0
  6 93  1  0  0  0
  7  8  2  0  0  0
  7 26  1  0  0  0
  7 29  1  0  0  0
  8  9  1  0  0  0
  8 22  1  0  0  0
  9 10  1  0  0  0
  9 27  2  0  0  0
 10 11  2  0  0  0
 10 15  1  0  0  0
 11 12  1  0  0  0
 11 94  1  0  0  0
 12 13  2  0  0  0
 12 95  1  0  0  0
 13 14  1  0  0  0
 13 31  1  0  0  0
 14 15  2  0  0  0
 14 96  1  0  0  0
 15 97  1  0  0  0
 16 17  2  0  0  0
 16 21  1  0  0  0
 16 31  1  0  0  0
 17 18  1  0  0  0
 17 98  1  0  0  0
 18 19  2  0  0  0
 18 99  1  0  0  0
 19 20  1  0  0  0
 19 24  1  0  0  0
 20 21  2  0  0  0
 20100  1  0  0  0
 21 23  1  0  0  0
 22 28  1  0  0  0
 22 32  2  0  0  0
 26 27  1  0  0  0
 28101  1  0  0  0
 28102  1  0  0  0
 29103  1  0  0  0
 29104  1  0  0  0
 33 34  1  0  0  0
 33 66  1  0  0  0
 33 70  2  0  0  0
 34 36  1  0  0  0
 34 59  1  0  0  0
 34105  1  0  0  0
 35 44  2  0  0  0
 35 45  1  0  0  0
 35 68  1  0  0  0
 36 56  1  0  0  0
 36106  1  0  0  0
 37 39  1  0  0  0
 37 47  1  0  0  0
 37 66  1  0  0  0
 37107  1  0  0  0
 38 43  2  0  0  0
 38 46  1  0  0  0
 38 47  1  0  0  0
 39 64  1  0  0  0
 39 67  2  0  0  0
 40 52  1  0  0  0
 40 53  2  0  0  0
 40 58  1  0  0  0
 41108  1  0  0  0
 41109  1  0  0  0
 41110  1  0  0  0
 41 48  1  0  0  0
 42 43  1  0  0  0
 42 66  1  0  0  0
 42111  1  0  0  0
 42112  1  0  0  0
 43 44  1  0  0  0
 44113  1  0  0  0
 45 46  2  0  0  0
 45114  1  0  0  0
 46115  1  0  0  0
 47116  1  0  0  0
 47117  1  0  0  0
 48 56  1  0  0  0
 48 65  1  0  0  0
 48118  1  0  0  0
 49 50  1  0  0  0
 49 53  1  0  0  0
 49 64  1  0  0  0
 49119  1  0  0  0
 50 51  1  0  0  0
 50120  1  0  0  0
 50121  1  0  0  0
 51 52  1  0  0  0
 51122  1  0  0  0
 51123  1  0  0  0
 52124  1  0  0  0
 52125  1  0  0  0
 53 54  1  0  0  0
 54 55  2  0  0  0
 54126  1  0  0  0
 55 57  1  0  0  0
 55127  1  0  0  0
 56 69  2  0  0  0
 57 58  2  0  0  0
 57128  1  0  0  0
 58129  1  0  0  0
 59 60  1  0  0  0
 59 61  1  0  0  0
 59 62  1  0  0  0
 60130  1  0  0  0
 60131  1  0  0  0
 60132  1  0  0  0
 61133  1  0  0  0
 61134  1  0  0  0
 61135  1  0  0  0
 62136  1  0  0  0
 62137  1  0  0  0
 62138  1  0  0  0
 63 65  1  0  0  0
 63139  1  0  0  0
 63140  1  0  0  0
 63141  1  0  0  0
 64142  1  0  0  0
 65143  1  0  0  0
 68 79  1  0  0  0
 71 73  2  0  0  0
 71 83  1  0  0  0
 71144  1  0  0  0
 72 82  2  0  0  0
 72 83  1  0  0  0
 72145  1  0  0  0
 73 80  1  0  0  0
 73 82  1  0  0  0
 74146  1  0  0  0
 74147  1  0  0  0
 74148  1  0  0  0
 74 81  1  0  0  0
 75 76  1  0  0  0
 75 77  1  0  0  0
 75149  1  0  0  0
 75150  1  0  0  0
 76 78  1  0  0  0
 76151  1  0  0  0
 76152  1  0  0  0
 77 79  1  0  0  0
 77153  1  0  0  0
 77154  1  0  0  0
 78 83  1  0  0  0
 78155  1  0  0  0
 78156  1  0  0  0
 79157  1  0  0  0
 79158  1  0  0  0
 80 81  1  0  0  0
 80159  1  0  0  0
 81 84  1  0  0  0
 81160  1  0  0  0
 84161  1  0  0  0
 84162  1  0  0  0
 84163  1  0  0  0
M  CHG  1  84   1
M  ISO  4   1 100  68 101  79 101  80 100
M  END
> <chiral flag>
0

> <version>
0

> <s_m_source_file>
/data/baiqing/PycharmProjects/Reinvent-master-3.2/result/LINK_invent/BTK/process_docking_weight1_custom_sum_contain_oxygen_bond_distance_aromatic_linkinvent_7_9_3/rearranged_h_0072.sdf

> <i_m_source_file_index>
66

> <r_mmod_Potential_Energy-OPLS-2005>
-110.214233398438

> <r_mmod_Stretch_Energy-OPLS-2005>
52.1698684692383

> <r_mmod_Bend_Energy-OPLS-2005>
159.398620605469

> <r_mmod_Torsional_Energy-OPLS-2005>
184.756149291992

> <r_mmod_Improper_Torsional_Energy-OPLS-2005>
2.05125641822815

> <r_mmod_Van_der_Waal_Energy-OPLS-2005>
118.366287231445

> <r_mmod_Electrostatic_Energy-OPLS-2005>
-173.876754760742

> <r_mmod_Solvation_Energy-OPLS-2005>
-467.967987060547

> <b_mmod_Minimization_Converged-OPLS-2005>
0

> <r_mmod_RMS_Derivative-OPLS-2005>
3.45974326133728

$$$$
67
                    3D
 Structure written by MMmdl.
173181  0  0  1  0            999 V2000
  -30.6465  -14.8230   20.2385 C   0  0  0  0  0  0
  -30.4458  -12.4678   19.4853 C   0  0  0  0  0  0
  -29.5266  -12.3200   18.2576 C   0  0  0  0  0  0
  -28.0360  -12.2306   18.6677 C   0  0  0  0  0  0
  -27.6093  -13.1959   19.8136 C   0  0  2  0  0  0
  -28.6811  -13.3092   20.9138 C   0  0  0  0  0  0
  -25.2490  -13.8070   20.5769 C   0  0  0  0  0  0
  -24.1766  -13.0404   20.9296 C   0  0  0  0  0  0
  -24.6319  -11.6861   20.8883 C   0  0  0  0  0  0
  -23.9015  -10.4270   21.0465 C   0  0  0  0  0  0
  -24.3601   -9.4174   21.9219 C   0  0  0  0  0  0
  -23.6284   -8.2208   22.0754 C   0  0  0  0  0  0
  -22.4265   -8.0269   21.3544 C   0  0  0  0  0  0
  -21.9892   -9.0254   20.4651 C   0  0  0  0  0  0
  -22.7213  -10.2129   20.3069 C   0  0  0  0  0  0
  -21.6839   -6.0732   22.5286 C   0  0  0  0  0  0
  -21.4016   -6.5632   23.8221 C   0  0  0  0  0  0
  -21.3639   -5.6779   24.9171 C   0  0  0  0  0  0
  -21.6021   -4.3049   24.7219 C   0  0  0  0  0  0
  -21.8835   -3.8146   23.4342 C   0  0  0  0  0  0
  -21.9186   -4.6964   22.3393 C   0  0  0  0  0  0
  -22.7793  -13.5235   21.1859 C   0  0  0  0  0  0
  -22.1664   -4.2155   21.0974 F   0  0  0  0  0  0
  -21.5596   -3.4524   25.7725 F   0  0  0  0  0  0
  -29.9651  -13.6213   20.2714 N   0  0  0  0  0  0
  -26.2832  -12.9170   20.3338 N   0  0  0  0  0  0
  -25.9236  -11.6400   20.5946 N   0  0  0  0  0  0
  -22.0408  -12.8277   22.0409 N   0  0  0  0  0  0
  -25.4202  -15.1815   20.4064 N   0  0  0  0  0  0
  -31.8614  -14.7526   20.4201 O   0  0  0  0  0  0
  -21.6636   -6.8878   21.4240 O   0  0  0  0  0  0
  -22.3531  -14.5533   20.6629 O   0  0  0  0  0  0
  -24.6257  -31.8591   23.2004 C   0  0  0  0  0  0
  -25.9121  -32.4770   23.8323 C   0  0  1  0  0  0
  -27.2270  -27.3084   20.1227 C   0  0  0  0  0  0
  -25.5958  -33.8573   24.2283 N   0  0  0  0  0  0
  -23.4190  -30.4798   21.5401 C   0  0  2  0  0  0
  -24.8656  -28.9295   20.1079 C   0  0  0  0  0  0
  -22.7461  -29.4631   22.4926 C   0  0  0  0  0  0
  -18.0290  -28.1375   22.8477 C   0  0  0  0  0  0
  -24.1491  -36.7281   23.2644 C   0  0  0  0  0  0
  -25.9575  -30.7853   21.3720 C   0  0  0  0  0  0
  -26.0296  -29.4112   20.7157 C   0  0  0  0  0  0
  -27.2097  -28.6111   20.7122 C   0  0  0  0  0  0
  -26.0423  -26.8763   19.4892 C   0  0  0  0  0  0
  -24.8755  -27.6675   19.4872 C   0  0  0  0  0  0
  -23.6317  -29.8090   20.1561 C   0  0  0  0  0  0
  -25.4118  -36.3085   24.0336 C   0  0  1  0  0  0
  -20.5888  -28.3684   23.1283 C   0  0  2  0  0  0
  -20.6790  -26.9442   22.5347 C   0  0  0  0  0  0
  -19.5756  -26.6435   21.5170 C   0  0  0  0  0  0
  -18.1949  -26.7926   22.1601 C   0  0  0  0  0  0
  -19.1529  -28.8836   23.2878 C   0  0  0  0  0  0
  -18.9459  -30.1432   23.8917 C   0  0  0  0  0  0
  -17.6462  -30.6577   24.0563 C   0  0  0  0  0  0
  -25.9071  -34.9461   23.5112 C   0  0  0  0  0  0
  -16.5346  -29.9094   23.6315 C   0  0  0  0  0  0
  -16.7275  -28.6499   23.0351 C   0  0  0  0  0  0
  -26.4500  -31.6580   25.0700 C   0  0  0  0  0  0
  -25.3733  -31.3728   26.1441 C   0  0  0  0  0  0
  -27.0362  -30.3004   24.6181 C   0  0  0  0  0  0
  -27.6078  -32.4293   25.7470 C   0  0  0  0  0  0
  -27.5586  -37.1799   24.8477 C   0  0  0  0  0  0
  -21.4177  -29.3064   22.3676 N   0  0  0  0  0  0
  -26.4303  -37.3770   23.9410 N   0  0  0  0  0  0
  -24.6849  -31.0621   22.0930 N   0  0  0  0  0  0
  -23.4177  -28.8192   23.3024 O   0  0  0  0  0  0
  -28.3738  -26.5014   20.1997 O   0  0  0  0  0  0
  -26.5613  -34.8925   22.4662 O   0  0  0  0  0  0
  -23.5415  -32.1381   23.7344 O   0  0  0  0  0  0
  -29.8157  -19.0480   21.9320 C   0  0  0  0  0  0
  -29.1963  -19.6967   20.8872 C   0  0  0  0  0  0
  -29.8291  -17.5473   20.2588 C   0  0  0  0  0  0
  -27.0628  -19.4944   16.7390 C   0  0  0  0  0  0
  -28.9849  -15.9271   18.4977 C   0  0  0  0  0  0
  -31.3604  -16.5722   18.5606 C   0  0  0  0  0  0
  -28.7246  -24.2343   22.0781 C   0  0  0  0  0  0
  -26.6776  -23.6349   20.7782 C   0  0  0  0  0  0
  -28.4342  -21.0734   20.9418 C   0  0  0  0  0  0
  -27.3602  -19.0368   18.1729 C   0  0  0  0  0  0
  -28.9069  -22.4398   20.2396 C   0  0  0  0  0  0
  -28.8723  -19.0972   18.4614 C   0  0  0  0  0  0
  -28.4704  -25.0989   19.7146 C   0  0  0  0  0  0
  -30.1490  -16.2022   19.4714 C   0  0  0  0  0  0
  -28.2045  -23.8396   20.6841 C   0  0  0  0  0  0
  -29.2823  -18.7589   19.8436 N   0  0  0  0  0  0
  -30.1851  -17.7860   21.5241 N   0  3  0  0  0  0
  -31.4809  -12.6010   19.1571 H   0  0  0  0  0  0
  -30.4398  -11.5668   20.0995 H   0  0  0  0  0  0
  -29.8046  -11.4064   17.7291 H   0  0  0  0  0  0
  -29.7100  -13.1105   17.5333 H   0  0  0  0  0  0
  -27.8739  -11.2031   18.9970 H   0  0  0  0  0  0
  -27.4005  -12.3607   17.7912 H   0  0  0  0  0  0
  -27.4810  -14.1630   19.3635 H   0  0  0  0  0  0
  -28.7528  -12.3789   21.4763 H   0  0  0  0  0  0
  -28.4175  -14.0923   21.6248 H   0  0  0  0  0  0
  -25.2738   -9.5659   22.4802 H   0  0  0  0  0  0
  -23.9980   -7.4597   22.7475 H   0  0  0  0  0  0
  -21.0801   -8.8809   19.8977 H   0  0  0  0  0  0
  -22.3694  -10.9701   19.6181 H   0  0  0  0  0  0
  -21.2055   -7.6150   23.9757 H   0  0  0  0  0  0
  -21.1420   -6.0484   25.9083 H   0  0  0  0  0  0
  -22.0636   -2.7613   23.2839 H   0  0  0  0  0  0
  -22.4039  -11.9987   22.4886 H   0  0  0  0  0  0
  -21.1017  -13.1332   22.2591 H   0  0  0  0  0  0
  -24.6517  -15.8341   20.5089 H   0  0  0  0  0  0
  -26.2511  -15.6168   20.0319 H   0  0  0  0  0  0
  -26.7188  -32.5431   23.1060 H   0  0  0  0  0  0
  -25.0116  -33.9675   25.0446 H   0  0  0  0  0  0
  -22.7136  -31.2990   21.3948 H   0  0  0  0  0  0
  -23.3765  -35.9609   23.3320 H   0  0  0  0  0  0
  -24.3591  -36.8870   22.2060 H   0  0  0  0  0  0
  -23.7222  -37.6480   23.6643 H   0  0  0  0  0  0
  -26.0956  -31.5503   20.6070 H   0  0  0  0  0  0
  -26.8361  -30.8311   22.0043 H   0  0  0  0  0  0
  -28.1053  -28.9782   21.1946 H   0  0  0  0  0  0
  -25.9899  -25.9102   19.0119 H   0  0  0  0  0  0
  -23.9829  -27.2918   19.0092 H   0  0  0  0  0  0
  -23.7482  -30.5836   19.3960 H   0  0  0  0  0  0
  -22.7515  -29.2357   19.8600 H   0  0  0  0  0  0
  -25.1285  -36.1950   25.0822 H   0  0  0  0  0  0
  -20.9963  -28.3246   24.1411 H   0  0  0  0  0  0
  -20.5775  -26.2282   23.3503 H   0  0  0  0  0  0
  -21.6631  -26.7556   22.1039 H   0  0  0  0  0  0
  -19.6961  -25.6379   21.1132 H   0  0  0  0  0  0
  -19.6669  -27.3311   20.6746 H   0  0  0  0  0  0
  -17.4220  -26.6660   21.4008 H   0  0  0  0  0  0
  -18.0400  -26.0047   22.8976 H   0  0  0  0  0  0
  -19.7947  -30.7206   24.2325 H   0  0  0  0  0  0
  -17.5021  -31.6265   24.5143 H   0  0  0  0  0  0
  -15.5344  -30.2987   23.7627 H   0  0  0  0  0  0
  -15.8668  -28.0810   22.7105 H   0  0  0  0  0  0
  -24.5925  -30.7045   25.7789 H   0  0  0  0  0  0
  -24.8896  -32.2888   26.4842 H   0  0  0  0  0  0
  -25.8054  -30.8934   27.0239 H   0  0  0  0  0  0
  -26.2955  -29.6735   24.1196 H   0  0  0  0  0  0
  -27.4057  -29.7281   25.4707 H   0  0  0  0  0  0
  -27.8819  -30.4302   23.9422 H   0  0  0  0  0  0
  -27.2731  -33.3610   26.2055 H   0  0  0  0  0  0
  -28.3894  -32.6812   25.0287 H   0  0  0  0  0  0
  -28.0751  -31.8393   26.5373 H   0  0  0  0  0  0
  -28.2612  -38.0089   24.7506 H   0  0  0  0  0  0
  -28.1055  -36.2614   24.6313 H   0  0  0  0  0  0
  -27.2298  -37.1472   25.8877 H   0  0  0  0  0  0
  -20.9369  -29.8773   21.6864 H   0  0  0  0  0  0
  -26.0193  -38.2848   24.1392 H   0  0  0  0  0  0
  -29.9844  -19.3803   22.9460 H   0  0  0  0  0  0
  -27.4008  -20.5191   16.5687 H   0  0  0  0  0  0
  -25.9955  -19.4438   16.5235 H   0  0  0  0  0  0
  -27.5685  -18.8571   16.0123 H   0  0  0  0  0  0
  -28.9668  -14.9076   18.1617 H   0  0  0  0  0  0
  -29.0520  -16.4640   17.5558 H   0  0  0  0  0  0
  -28.0230  -16.1756   18.9445 H   0  0  0  0  0  0
  -31.1679  -17.3835   17.8630 H   0  0  0  0  0  0
  -31.6814  -15.7279   17.9471 H   0  0  0  0  0  0
  -32.2191  -16.8957   19.1516 H   0  0  0  0  0  0
  -28.4921  -23.4845   22.8319 H   0  0  0  0  0  0
  -28.2804  -25.1733   22.4160 H   0  0  0  0  0  0
  -29.8052  -24.3725   22.0696 H   0  0  0  0  0  0
  -26.2615  -23.3546   19.8117 H   0  0  0  0  0  0
  -26.1698  -24.5446   21.1016 H   0  0  0  0  0  0
  -26.4037  -22.8592   21.4908 H   0  0  0  0  0  0
  -28.3571  -21.2982   22.0068 H   0  0  0  0  0  0
  -27.4035  -20.8828   20.6518 H   0  0  0  0  0  0
  -26.9764  -18.0264   18.3036 H   0  0  0  0  0  0
  -26.8003  -19.6590   18.8696 H   0  0  0  0  0  0
  -28.7814  -22.3226   19.1644 H   0  0  0  0  0  0
  -29.9833  -22.5393   20.3895 H   0  0  0  0  0  0
  -29.2286  -20.1105   18.2742 H   0  0  0  0  0  0
  -29.4148  -18.4960   17.7454 H   0  0  0  0  0  0
  -27.9245  -24.9770   18.7791 H   0  0  0  0  0  0
  -29.5141  -25.0199   19.4062 H   0  0  0  0  0  0
  -30.6819  -17.1259   22.1084 H   0  0  0  0  0  0
  1 25  1  0  0  0
  1 30  2  0  0  0
  1 84  1  0  0  0
  2  3  1  0  0  0
  2 25  1  0  0  0
  2 88  1  0  0  0
  2 89  1  0  0  0
  3  4  1  0  0  0
  3 90  1  0  0  0
  3 91  1  0  0  0
  4  5  1  0  0  0
  4 92  1  0  0  0
  4 93  1  0  0  0
  5  6  1  0  0  0
  5 26  1  0  0  0
  5 94  1  0  0  0
  6 25  1  0  0  0
  6 95  1  0  0  0
  6 96  1  0  0  0
  7  8  2  0  0  0
  7 26  1  0  0  0
  7 29  1  0  0  0
  8  9  1  0  0  0
  8 22  1  0  0  0
  9 10  1  0  0  0
  9 27  2  0  0  0
 10 11  2  0  0  0
 10 15  1  0  0  0
 11 12  1  0  0  0
 11 97  1  0  0  0
 12 13  2  0  0  0
 12 98  1  0  0  0
 13 14  1  0  0  0
 13 31  1  0  0  0
 14 15  2  0  0  0
 14 99  1  0  0  0
 15100  1  0  0  0
 16 17  2  0  0  0
 16 21  1  0  0  0
 16 31  1  0  0  0
 17 18  1  0  0  0
 17101  1  0  0  0
 18 19  2  0  0  0
 18102  1  0  0  0
 19 20  1  0  0  0
 19 24  1  0  0  0
 20 21  2  0  0  0
 20103  1  0  0  0
 21 23  1  0  0  0
 22 28  1  0  0  0
 22 32  2  0  0  0
 26 27  1  0  0  0
 28104  1  0  0  0
 28105  1  0  0  0
 29106  1  0  0  0
 29107  1  0  0  0
 33 34  1  0  0  0
 33 66  1  0  0  0
 33 70  2  0  0  0
 34 36  1  0  0  0
 34 59  1  0  0  0
 34108  1  0  0  0
 35 44  2  0  0  0
 35 45  1  0  0  0
 35 68  1  0  0  0
 36 56  1  0  0  0
 36109  1  0  0  0
 37 39  1  0  0  0
 37 47  1  0  0  0
 37 66  1  0  0  0
 37110  1  0  0  0
 38 43  2  0  0  0
 38 46  1  0  0  0
 38 47  1  0  0  0
 39 64  1  0  0  0
 39 67  2  0  0  0
 40 52  1  0  0  0
 40 53  2  0  0  0
 40 58  1  0  0  0
 41111  1  0  0  0
 41112  1  0  0  0
 41113  1  0  0  0
 41 48  1  0  0  0
 42 43  1  0  0  0
 42 66  1  0  0  0
 42114  1  0  0  0
 42115  1  0  0  0
 43 44  1  0  0  0
 44116  1  0  0  0
 45 46  2  0  0  0
 45117  1  0  0  0
 46118  1  0  0  0
 47119  1  0  0  0
 47120  1  0  0  0
 48 56  1  0  0  0
 48 65  1  0  0  0
 48121  1  0  0  0
 49 50  1  0  0  0
 49 53  1  0  0  0
 49 64  1  0  0  0
 49122  1  0  0  0
 50 51  1  0  0  0
 50123  1  0  0  0
 50124  1  0  0  0
 51 52  1  0  0  0
 51125  1  0  0  0
 51126  1  0  0  0
 52127  1  0  0  0
 52128  1  0  0  0
 53 54  1  0  0  0
 54 55  2  0  0  0
 54129  1  0  0  0
 55 57  1  0  0  0
 55130  1  0  0  0
 56 69  2  0  0  0
 57 58  2  0  0  0
 57131  1  0  0  0
 58132  1  0  0  0
 59 60  1  0  0  0
 59 61  1  0  0  0
 59 62  1  0  0  0
 60133  1  0  0  0
 60134  1  0  0  0
 60135  1  0  0  0
 61136  1  0  0  0
 61137  1  0  0  0
 61138  1  0  0  0
 62139  1  0  0  0
 62140  1  0  0  0
 62141  1  0  0  0
 63 65  1  0  0  0
 63142  1  0  0  0
 63143  1  0  0  0
 63144  1  0  0  0
 64145  1  0  0  0
 65146  1  0  0  0
 68 83  1  0  0  0
 71 72  2  0  0  0
 71 87  1  0  0  0
 71147  1  0  0  0
 72 79  1  0  0  0
 72 86  1  0  0  0
 73 84  1  0  0  0
 73 86  1  0  0  0
 73 87  2  0  0  0
 74 80  1  0  0  0
 74148  1  0  0  0
 74149  1  0  0  0
 74150  1  0  0  0
 75151  1  0  0  0
 75152  1  0  0  0
 75153  1  0  0  0
 75 84  1  0  0  0
 76 84  1  0  0  0
 76154  1  0  0  0
 76155  1  0  0  0
 76156  1  0  0  0
 77157  1  0  0  0
 77158  1  0  0  0
 77159  1  0  0  0
 77 85  1  0  0  0
 78 85  1  0  0  0
 78160  1  0  0  0
 78161  1  0  0  0
 78162  1  0  0  0
 79 81  1  0  0  0
 79163  1  0  0  0
 79164  1  0  0  0
 80 82  1  0  0  0
 80165  1  0  0  0
 80166  1  0  0  0
 81 85  1  0  0  0
 81167  1  0  0  0
 81168  1  0  0  0
 82 86  1  0  0  0
 82169  1  0  0  0
 82170  1  0  0  0
 83 85  1  0  0  0
 83171  1  0  0  0
 83172  1  0  0  0
 87173  1  0  0  0
M  CHG  1  87   1
M  ISO  4   1 100  68 101  83 101  84 100
M  END
> <chiral flag>
0

> <version>
0

> <s_m_source_file>
/data/baiqing/PycharmProjects/Reinvent-master-3.2/result/LINK_invent/BTK/process_docking_weight1_custom_sum_contain_oxygen_bond_distance_aromatic_linkinvent_7_9_3/rearranged_h_0072.sdf

> <i_m_source_file_index>
67

> <r_mmod_Potential_Energy-OPLS-2005>
375.294799804688

> <r_mmod_Stretch_Energy-OPLS-2005>
130.949722290039

> <r_mmod_Bend_Energy-OPLS-2005>
225.745071411133

> <r_mmod_Torsional_Energy-OPLS-2005>
278.056701660156

> <r_mmod_Improper_Torsional_Energy-OPLS-2005>
16.400053024292

> <r_mmod_Van_der_Waal_Energy-OPLS-2005>
133.067535400391

> <r_mmod_Electrostatic_Energy-OPLS-2005>
-155.636199951172

> <r_mmod_Solvation_Energy-OPLS-2005>
-384.379913330078

> <b_mmod_Minimization_Converged-OPLS-2005>
0

> <r_mmod_RMS_Derivative-OPLS-2005>
4.81996870040894

$$$$
68
                    3D
 Structure written by MMmdl.
161169  0  0  1  0            999 V2000
  -30.2303  -14.1826   20.9772 C   0  0  0  0  0  0
  -30.6433  -12.4128   19.2124 C   0  0  0  0  0  0
  -29.6713  -12.5938   17.9868 C   0  0  0  0  0  0
  -28.1448  -12.4786   18.2693 C   0  0  0  0  0  0
  -27.9077  -13.1727   19.5852 C   0  0  2  0  0  0
  -28.7993  -12.3358   20.5497 C   0  0  0  0  0  0
  -25.1558  -14.1791   20.0244 C   0  0  0  0  0  0
  -24.1531  -13.4007   20.9757 C   0  0  0  0  0  0
  -24.7790  -12.0048   21.4677 C   0  0  0  0  0  0
  -23.9903  -10.6386   21.4180 C   0  0  0  0  0  0
  -24.4311   -9.4921   22.1219 C   0  0  0  0  0  0
  -23.7095   -8.2651   22.1337 C   0  0  0  0  0  0
  -22.5118   -8.0979   21.3996 C   0  0  0  0  0  0
  -22.1133   -9.1676   20.5782 C   0  0  0  0  0  0
  -22.8327  -10.3936   20.5887 C   0  0  0  0  0  0
  -21.7151   -6.1067   22.5140 C   0  0  0  0  0  0
  -21.4194   -6.5850   23.8114 C   0  0  0  0  0  0
  -21.3682   -5.6942   24.9047 C   0  0  0  0  0  0
  -21.6002   -4.3198   24.7084 C   0  0  0  0  0  0
  -21.8749   -3.8348   23.4183 C   0  0  0  0  0  0
  -21.9249   -4.7220   22.3266 C   0  0  0  0  0  0
  -22.7156  -13.7232   21.1864 C   0  0  0  0  0  0
  -22.1726   -4.2356   21.0866 F   0  0  0  0  0  0
  -21.5556   -3.4648   25.7584 F   0  0  0  0  0  0
  -30.0510  -12.9649   20.4369 N   0  0  0  0  0  0
  -26.6109  -13.1724   20.0439 N   0  0  0  0  0  0
  -26.2268  -11.9245   21.0288 N   0  0  0  0  0  0
  -22.0217  -12.9676   22.0361 N   0  0  0  0  0  0
  -25.0642  -15.3869   19.4084 N   0  0  0  0  0  0
  -31.2340  -14.8380   20.6095 O   0  0  0  0  0  0
  -21.7441   -6.9444   21.4167 O   0  0  0  0  0  0
  -22.2113  -14.6776   20.6155 O   0  0  0  0  0  0
  -24.6470  -31.8428   23.1923 C   0  0  0  0  0  0
  -25.9242  -32.4683   23.8289 C   0  0  1  0  0  0
  -27.0503  -27.0065   20.2476 C   0  0  0  0  0  0
  -25.5980  -33.8498   24.2187 N   0  0  0  0  0  0
  -23.4465  -30.4759   21.5374 C   0  0  2  0  0  0
  -24.8760  -28.9098   20.0915 C   0  0  0  0  0  0
  -22.7577  -29.4562   22.4802 C   0  0  0  0  0  0
  -18.0315  -28.1404   22.8472 C   0  0  0  0  0  0
  -24.1493  -36.7242   23.2640 C   0  0  0  0  0  0
  -26.0108  -30.6810   21.4118 C   0  0  0  0  0  0
  -26.0528  -29.2883   20.7516 C   0  0  0  0  0  0
  -27.1552  -28.3477   20.8165 C   0  0  0  0  0  0
  -25.9145  -26.7992   19.4470 C   0  0  0  0  0  0
  -24.8326  -27.6927   19.4043 C   0  0  0  0  0  0
  -23.6710  -29.8322   20.1454 C   0  0  0  0  0  0
  -25.4134  -36.3029   24.0308 C   0  0  1  0  0  0
  -20.5932  -28.3739   23.1208 C   0  0  2  0  0  0
  -20.6799  -26.9432   22.5397 C   0  0  0  0  0  0
  -19.5762  -26.6377   21.5216 C   0  0  0  0  0  0
  -18.1946  -26.7942   22.1629 C   0  0  0  0  0  0
  -19.1571  -28.8890   23.2835 C   0  0  0  0  0  0
  -18.9482  -30.1487   23.8861 C   0  0  0  0  0  0
  -17.6475  -30.6594   24.0561 C   0  0  0  0  0  0
  -25.9090  -34.9404   23.5054 C   0  0  0  0  0  0
  -16.5370  -29.9076   23.6345 C   0  0  0  0  0  0
  -16.7300  -28.6501   23.0357 C   0  0  0  0  0  0
  -26.4536  -31.6578   25.0759 C   0  0  0  0  0  0
  -25.3683  -31.3792   26.1426 C   0  0  0  0  0  0
  -27.0419  -30.2957   24.6428 C   0  0  0  0  0  0
  -27.6063  -32.4359   25.7527 C   0  0  0  0  0  0
  -27.5580  -37.1786   24.8463 C   0  0  0  0  0  0
  -21.4269  -29.3055   22.3560 N   0  0  0  0  0  0
  -26.4291  -37.3747   23.9404 N   0  0  0  0  0  0
  -24.7218  -31.0246   22.0992 N   0  0  0  0  0  0
  -23.4226  -28.8090   23.2936 O   0  0  0  0  0  0
  -27.8750  -25.8387   20.4894 O   0  0  0  0  0  0
  -26.5674  -34.8894   22.4632 O   0  0  0  0  0  0
  -23.5587  -32.1337   23.7128 O   0  0  0  0  0  0
  -26.1072  -17.1253   22.3326 C   0  0  0  0  0  0
  -26.4230  -15.8445   21.7512 C   0  0  0  0  0  0
  -24.8923  -12.1505   19.1573 C   0  0  0  0  0  0
  -25.4477  -13.9786   23.3864 C   0  0  0  0  0  0
  -26.9546  -21.2546   20.9056 C   0  0  0  0  0  0
  -27.5529  -22.8607   21.2320 C   0  0  0  0  0  0
  -26.9504  -19.8610   21.9385 C   0  0  0  0  0  0
  -27.8378  -14.0204   22.5075 C   0  0  0  0  0  0
  -27.2638  -24.3539   20.3964 C   0  0  0  0  0  0
  -26.1876  -14.0845   21.9913 C   0  0  0  0  0  0
  -27.2778  -16.3530   20.7206 N   0  0  0  0  0  0
  -27.4241  -17.6696   20.6552 N   0  0  0  0  0  0
  -26.7154  -18.2795   21.6326 N   0  0  0  0  0  0
  -29.1684  -14.5997   21.8235 N   0  0  0  0  0  0
  -31.6020  -12.8878   18.9964 H   0  0  0  0  0  0
  -30.8781  -11.3568   19.3618 H   0  0  0  0  0  0
  -29.9543  -11.9151   17.1813 H   0  0  0  0  0  0
  -29.8480  -13.5938   17.5884 H   0  0  0  0  0  0
  -27.8213  -11.4364   18.2928 H   0  0  0  0  0  0
  -27.5784  -12.9560   17.4695 H   0  0  0  0  0  0
  -28.1636  -14.2225   19.4503 H   0  0  0  0  0  0
  -28.8450  -11.3002   20.2015 H   0  0  0  0  0  0
  -28.5659  -12.0468   21.5559 H   0  0  0  0  0  0
  -25.3310   -9.5709   22.7154 H   0  0  0  0  0  0
  -24.0890   -7.4515   22.7360 H   0  0  0  0  0  0
  -21.2284   -9.0733   19.9639 H   0  0  0  0  0  0
  -22.4342  -11.1837   19.9735 H   0  0  0  0  0  0
  -21.2350   -7.6371   23.9704 H   0  0  0  0  0  0
  -21.1482   -6.0663   25.8953 H   0  0  0  0  0  0
  -22.0425   -2.7798   23.2630 H   0  0  0  0  0  0
  -22.4371  -12.1781   22.5059 H   0  0  0  0  0  0
  -21.0481  -13.1771   22.2065 H   0  0  0  0  0  0
  -24.2707  -15.9477   19.6937 H   0  0  0  0  0  0
  -25.9361  -15.9067   19.5228 H   0  0  0  0  0  0
  -26.7284  -32.5230   23.0983 H   0  0  0  0  0  0
  -25.0118  -33.9607   25.0328 H   0  0  0  0  0  0
  -22.7513  -31.3067   21.3980 H   0  0  0  0  0  0
  -23.3772  -35.9553   23.3289 H   0  0  0  0  0  0
  -24.3578  -36.8894   22.2055 H   0  0  0  0  0  0
  -23.7220  -37.6421   23.6692 H   0  0  0  0  0  0
  -26.1937  -31.4310   20.6412 H   0  0  0  0  0  0
  -26.8741  -30.7154   22.0641 H   0  0  0  0  0  0
  -28.0263  -28.5979   21.4053 H   0  0  0  0  0  0
  -25.7896  -25.8714   18.9099 H   0  0  0  0  0  0
  -23.9465  -27.4181   18.8483 H   0  0  0  0  0  0
  -23.8274  -30.6194   19.4079 H   0  0  0  0  0  0
  -22.7769  -29.2985   19.8184 H   0  0  0  0  0  0
  -25.1321  -36.1858   25.0799 H   0  0  0  0  0  0
  -21.0037  -28.3350   24.1325 H   0  0  0  0  0  0
  -20.5710  -26.2348   23.3626 H   0  0  0  0  0  0
  -21.6660  -26.7436   22.1181 H   0  0  0  0  0  0
  -19.6914  -25.6274   21.1269 H   0  0  0  0  0  0
  -19.6700  -27.3170   20.6730 H   0  0  0  0  0  0
  -17.4215  -26.6693   21.4035 H   0  0  0  0  0  0
  -18.0342  -26.0097   22.9037 H   0  0  0  0  0  0
  -19.7957  -30.7318   24.2210 H   0  0  0  0  0  0
  -17.5025  -31.6272   24.5171 H   0  0  0  0  0  0
  -15.5368  -30.2962   23.7690 H   0  0  0  0  0  0
  -15.8704  -28.0811   22.7080 H   0  0  0  0  0  0
  -24.5875  -30.7134   25.7727 H   0  0  0  0  0  0
  -24.8850  -32.2979   26.4760 H   0  0  0  0  0  0
  -25.7923  -30.9012   27.0263 H   0  0  0  0  0  0
  -26.3061  -29.6650   24.1430 H   0  0  0  0  0  0
  -27.3968  -29.7300   25.5051 H   0  0  0  0  0  0
  -27.9005  -30.4158   23.9819 H   0  0  0  0  0  0
  -27.2669  -33.3694   26.2023 H   0  0  0  0  0  0
  -28.3909  -32.6867   25.0376 H   0  0  0  0  0  0
  -28.0696  -31.8541   26.5502 H   0  0  0  0  0  0
  -28.2584  -38.0097   24.7536 H   0  0  0  0  0  0
  -28.1094  -36.2630   24.6270 H   0  0  0  0  0  0
  -27.2300  -37.1404   25.8864 H   0  0  0  0  0  0
  -20.9473  -29.8784   21.6757 H   0  0  0  0  0  0
  -26.0160  -38.2812   24.1414 H   0  0  0  0  0  0
  -25.5264  -17.3127   23.2263 H   0  0  0  0  0  0
  -23.8448  -12.3027   18.8726 H   0  0  0  0  0  0
  -25.0423  -11.0640   19.1436 H   0  0  0  0  0  0
  -25.3546  -12.4091   18.1953 H   0  0  0  0  0  0
  -24.4210  -14.3394   23.3505 H   0  0  0  0  0  0
  -25.9182  -14.5930   24.1541 H   0  0  0  0  0  0
  -25.4414  -12.9622   23.7793 H   0  0  0  0  0  0
  -27.4500  -20.9430   19.9857 H   0  0  0  0  0  0
  -25.9141  -21.3865   20.6081 H   0  0  0  0  0  0
  -28.6376  -22.7560   21.2673 H   0  0  0  0  0  0
  -27.2787  -23.0636   22.2669 H   0  0  0  0  0  0
  -26.2699  -20.0976   22.7558 H   0  0  0  0  0  0
  -27.9335  -19.8833   22.4090 H   0  0  0  0  0  0
  -28.0225  -13.1132   23.0804 H   0  0  0  0  0  0
  -27.8720  -14.7028   23.3571 H   0  0  0  0  0  0
  -26.1927  -24.4783   20.5501 H   0  0  0  0  0  0
  -27.3640  -24.1090   19.3384 H   0  0  0  0  0  0
  -29.3007  -15.5678   22.0798 H   0  0  0  0  0  0
  1 25  1  0  0  0
  1 30  2  0  0  0
  1 84  1  0  0  0
  2  3  1  0  0  0
  2 25  1  0  0  0
  2 85  1  0  0  0
  2 86  1  0  0  0
  3  4  1  0  0  0
  3 87  1  0  0  0
  3 88  1  0  0  0
  4  5  1  0  0  0
  4 89  1  0  0  0
  4 90  1  0  0  0
  5  6  1  0  0  0
  5 26  1  0  0  0
  5 91  1  0  0  0
  6 25  1  0  0  0
  6 92  1  0  0  0
  6 93  1  0  0  0
  7  8  2  0  0  0
  7 26  1  0  0  0
  7 29  1  0  0  0
  8  9  1  0  0  0
  8 22  1  0  0  0
  9 10  1  0  0  0
  9 27  2  0  0  0
 10 11  2  0  0  0
 10 15  1  0  0  0
 11 12  1  0  0  0
 11 94  1  0  0  0
 12 13  2  0  0  0
 12 95  1  0  0  0
 13 14  1  0  0  0
 13 31  1  0  0  0
 14 15  2  0  0  0
 14 96  1  0  0  0
 15 97  1  0  0  0
 16 17  2  0  0  0
 16 21  1  0  0  0
 16 31  1  0  0  0
 17 18  1  0  0  0
 17 98  1  0  0  0
 18 19  2  0  0  0
 18 99  1  0  0  0
 19 20  1  0  0  0
 19 24  1  0  0  0
 20 21  2  0  0  0
 20100  1  0  0  0
 21 23  1  0  0  0
 22 28  1  0  0  0
 22 32  2  0  0  0
 26 27  1  0  0  0
 28101  1  0  0  0
 28102  1  0  0  0
 29103  1  0  0  0
 29104  1  0  0  0
 33 34  1  0  0  0
 33 66  1  0  0  0
 33 70  2  0  0  0
 34 36  1  0  0  0
 34 59  1  0  0  0
 34105  1  0  0  0
 35 44  2  0  0  0
 35 45  1  0  0  0
 35 68  1  0  0  0
 36 56  1  0  0  0
 36106  1  0  0  0
 37 39  1  0  0  0
 37 47  1  0  0  0
 37 66  1  0  0  0
 37107  1  0  0  0
 38 43  2  0  0  0
 38 46  1  0  0  0
 38 47  1  0  0  0
 39 64  1  0  0  0
 39 67  2  0  0  0
 40 52  1  0  0  0
 40 53  2  0  0  0
 40 58  1  0  0  0
 41108  1  0  0  0
 41109  1  0  0  0
 41110  1  0  0  0
 41 48  1  0  0  0
 42 43  1  0  0  0
 42 66  1  0  0  0
 42111  1  0  0  0
 42112  1  0  0  0
 43 44  1  0  0  0
 44113  1  0  0  0
 45 46  2  0  0  0
 45114  1  0  0  0
 46115  1  0  0  0
 47116  1  0  0  0
 47117  1  0  0  0
 48 56  1  0  0  0
 48 65  1  0  0  0
 48118  1  0  0  0
 49 50  1  0  0  0
 49 53  1  0  0  0
 49 64  1  0  0  0
 49119  1  0  0  0
 50 51  1  0  0  0
 50120  1  0  0  0
 50121  1  0  0  0
 51 52  1  0  0  0
 51122  1  0  0  0
 51123  1  0  0  0
 52124  1  0  0  0
 52125  1  0  0  0
 53 54  1  0  0  0
 54 55  2  0  0  0
 54126  1  0  0  0
 55 57  1  0  0  0
 55127  1  0  0  0
 56 69  2  0  0  0
 57 58  2  0  0  0
 57128  1  0  0  0
 58129  1  0  0  0
 59 60  1  0  0  0
 59 61  1  0  0  0
 59 62  1  0  0  0
 60130  1  0  0  0
 60131  1  0  0  0
 60132  1  0  0  0
 61133  1  0  0  0
 61134  1  0  0  0
 61135  1  0  0  0
 62136  1  0  0  0
 62137  1  0  0  0
 62138  1  0  0  0
 63 65  1  0  0  0
 63139  1  0  0  0
 63140  1  0  0  0
 63141  1  0  0  0
 64142  1  0  0  0
 65143  1  0  0  0
 68 79  1  0  0  0
 71 72  2  0  0  0
 71 83  1  0  0  0
 71144  1  0  0  0
 72 80  1  0  0  0
 72 81  1  0  0  0
 73145  1  0  0  0
 73146  1  0  0  0
 73147  1  0  0  0
 73 80  1  0  0  0
 74 80  1  0  0  0
 74148  1  0  0  0
 74149  1  0  0  0
 74150  1  0  0  0
 75 76  1  0  0  0
 75 77  1  0  0  0
 75151  1  0  0  0
 75152  1  0  0  0
 76 79  1  0  0  0
 76153  1  0  0  0
 76154  1  0  0  0
 77 83  1  0  0  0
 77155  1  0  0  0
 77156  1  0  0  0
 78 80  1  0  0  0
 78 84  1  0  0  0
 78157  1  0  0  0
 78158  1  0  0  0
 79159  1  0  0  0
 79160  1  0  0  0
 81 82  2  0  0  0
 82 83  1  0  0  0
 84161  1  0  0  0
M  ISO  4   1 100  68 101  79 101  84 100
M  END
> <chiral flag>
0

> <version>
0

> <s_m_source_file>
/data/baiqing/PycharmProjects/Reinvent-master-3.2/result/LINK_invent/BTK/process_docking_weight1_custom_sum_contain_oxygen_bond_distance_aromatic_linkinvent_7_9_3/rearranged_h_0072.sdf

> <i_m_source_file_index>
68

> <r_mmod_Potential_Energy-OPLS-2005>
9657.345703125

> <r_mmod_Stretch_Energy-OPLS-2005>
6363.26708984375

> <r_mmod_Bend_Energy-OPLS-2005>
600.66259765625

> <r_mmod_Torsional_Energy-OPLS-2005>
330.195770263672

> <r_mmod_Improper_Torsional_Energy-OPLS-2005>
26.5530376434326

> <r_mmod_Van_der_Waal_Energy-OPLS-2005>
2222.4169921875

> <r_mmod_Electrostatic_Energy-OPLS-2005>
-445.744812011719

> <r_mmod_Solvation_Energy-OPLS-2005>
-208.010971069336

> <b_mmod_Minimization_Converged-OPLS-2005>
0

> <r_mmod_RMS_Derivative-OPLS-2005>
2.37577438354492

$$$$
69
                    3D
 Structure written by MMmdl.
162170  0  0  1  0            999 V2000
  -30.6712  -14.5847   20.4258 C   0  0  0  0  0  0
  -30.4262  -12.3322   19.4390 C   0  0  0  0  0  0
  -29.4946  -12.4164   18.2113 C   0  0  0  0  0  0
  -28.0136  -12.3071   18.6369 C   0  0  0  0  0  0
  -27.6409  -13.1925   19.8592 C   0  0  2  0  0  0
  -28.7036  -13.0972   20.9761 C   0  0  0  0  0  0
  -25.2560  -13.8092   20.5755 C   0  0  0  0  0  0
  -24.1799  -13.0397   20.9226 C   0  0  0  0  0  0
  -24.6342  -11.6859   20.8791 C   0  0  0  0  0  0
  -23.9013  -10.4260   21.0439 C   0  0  0  0  0  0
  -24.3575   -9.4176   21.9210 C   0  0  0  0  0  0
  -23.6261   -8.2212   22.0766 C   0  0  0  0  0  0
  -22.4248   -8.0258   21.3548 C   0  0  0  0  0  0
  -21.9877   -9.0229   20.4654 C   0  0  0  0  0  0
  -22.7197  -10.2111   20.3075 C   0  0  0  0  0  0
  -21.6837   -6.0717   22.5274 C   0  0  0  0  0  0
  -21.3997   -6.5626   23.8205 C   0  0  0  0  0  0
  -21.3654   -5.6788   24.9176 C   0  0  0  0  0  0
  -21.6045   -4.3051   24.7231 C   0  0  0  0  0  0
  -21.8822   -3.8135   23.4356 C   0  0  0  0  0  0
  -21.9189   -4.6946   22.3406 C   0  0  0  0  0  0
  -22.7828  -13.5223   21.1851 C   0  0  0  0  0  0
  -22.1663   -4.2132   21.0985 F   0  0  0  0  0  0
  -21.5633   -3.4538   25.7746 F   0  0  0  0  0  0
  -30.0131  -13.3890   20.3758 N   0  0  0  0  0  0
  -26.2948  -12.9206   20.3424 N   0  0  0  0  0  0
  -25.9269  -11.6394   20.5870 N   0  0  0  0  0  0
  -22.0448  -12.8235   22.0402 N   0  0  0  0  0  0
  -25.4308  -15.1816   20.4177 N   0  0  0  0  0  0
  -31.8835  -14.6764   20.2189 O   0  0  0  0  0  0
  -21.6618   -6.8853   21.4234 O   0  0  0  0  0  0
  -22.3543  -14.5535   20.6691 O   0  0  0  0  0  0
  -24.6177  -31.8642   23.2073 C   0  0  0  0  0  0
  -25.9058  -32.4790   23.8379 C   0  0  1  0  0  0
  -27.2274  -27.3826   20.1099 C   0  0  0  0  0  0
  -25.5897  -33.8591   24.2303 N   0  0  0  0  0  0
  -23.4078  -30.4892   21.5473 C   0  0  2  0  0  0
  -24.8543  -28.9513   20.1111 C   0  0  0  0  0  0
  -22.7431  -29.4641   22.4955 C   0  0  0  0  0  0
  -18.0276  -28.1354   22.8490 C   0  0  0  0  0  0
  -24.1482  -36.7314   23.2638 C   0  0  0  0  0  0
  -25.9420  -30.8143   21.3699 C   0  0  0  0  0  0
  -26.0182  -29.4466   20.7140 C   0  0  0  0  0  0
  -27.2057  -28.6708   20.7085 C   0  0  0  0  0  0
  -26.0438  -26.9245   19.4829 C   0  0  0  0  0  0
  -24.8652  -27.6924   19.4901 C   0  0  0  0  0  0
  -23.6187  -29.8228   20.1618 C   0  0  0  0  0  0
  -25.4099  -36.3089   24.0333 C   0  0  1  0  0  0
  -20.5875  -28.3657   23.1295 C   0  0  2  0  0  0
  -20.6764  -26.9389   22.5403 C   0  0  0  0  0  0
  -19.5741  -26.6378   21.5195 C   0  0  0  0  0  0
  -18.1918  -26.7896   22.1617 C   0  0  0  0  0  0
  -19.1530  -28.8821   23.2885 C   0  0  0  0  0  0
  -18.9466  -30.1427   23.8895 C   0  0  0  0  0  0
  -17.6470  -30.6571   24.0555 C   0  0  0  0  0  0
  -25.9042  -34.9458   23.5123 C   0  0  0  0  0  0
  -16.5357  -29.9074   23.6321 C   0  0  0  0  0  0
  -16.7267  -28.6485   23.0351 C   0  0  0  0  0  0
  -26.4475  -31.6581   25.0727 C   0  0  0  0  0  0
  -25.3731  -31.3710   26.1471 C   0  0  0  0  0  0
  -27.0327  -30.3015   24.6160 C   0  0  0  0  0  0
  -27.6045  -32.4314   25.7488 C   0  0  0  0  0  0
  -27.5576  -37.1792   24.8453 C   0  0  0  0  0  0
  -21.4154  -29.3025   22.3696 N   0  0  0  0  0  0
  -26.4276  -37.3782   23.9421 N   0  0  0  0  0  0
  -24.6738  -31.0721   22.0980 N   0  0  0  0  0  0
  -23.4186  -28.8187   23.3010 O   0  0  0  0  0  0
  -28.3732  -26.5948   20.1606 O   0  0  0  0  0  0
  -26.5624  -34.8922   22.4696 O   0  0  0  0  0  0
  -23.5364  -32.1415   23.7447 O   0  0  0  0  0  0
  -29.6740  -22.4085   18.3157 C   0  0  0  0  0  0
  -29.4147  -21.8966   19.6200 C   0  0  0  0  0  0
  -29.4535  -20.5152   19.4505 C   0  0  0  0  0  0
  -29.6274  -19.0880   17.3154 C   0  0  0  0  0  0
  -29.3471  -16.0734   19.0704 C   0  0  0  0  0  0
  -29.1417  -22.7668   20.8474 C   0  0  0  0  0  0
  -29.2404  -19.3208   20.3870 C   0  0  0  0  0  0
  -29.3652  -24.3182   20.6822 C   0  0  0  0  0  0
  -30.4341  -18.3130   20.5725 C   0  0  0  0  0  0
  -30.1300  -16.9107   21.2502 C   0  0  0  0  0  0
  -28.2013  -25.1522   20.0622 C   0  0  0  0  0  0
  -29.8013  -21.4664   17.4064 N   0  0  0  0  0  0
  -29.6344  -20.3163   18.0852 N   0  0  0  0  0  0
  -29.8936  -15.7124   20.3833 N   0  0  0  0  0  0
  -31.4689  -12.4316   19.1302 H   0  0  0  0  0  0
  -30.3429  -11.3536   19.9151 H   0  0  0  0  0  0
  -29.7305  -11.6104   17.5152 H   0  0  0  0  0  0
  -29.6731  -13.3340   17.6538 H   0  0  0  0  0  0
  -27.8363  -11.2608   18.8861 H   0  0  0  0  0  0
  -27.3577  -12.5289   17.7939 H   0  0  0  0  0  0
  -27.6087  -14.2135   19.5054 H   0  0  0  0  0  0
  -28.7101  -12.1018   21.4235 H   0  0  0  0  0  0
  -28.4828  -13.7988   21.7827 H   0  0  0  0  0  0
  -25.2713   -9.5652   22.4797 H   0  0  0  0  0  0
  -23.9963   -7.4597   22.7487 H   0  0  0  0  0  0
  -21.0806   -8.8746   19.8959 H   0  0  0  0  0  0
  -22.3654  -10.9659   19.6194 H   0  0  0  0  0  0
  -21.1979   -7.6131   23.9698 H   0  0  0  0  0  0
  -21.1476   -6.0524   25.9075 H   0  0  0  0  0  0
  -22.0608   -2.7596   23.2864 H   0  0  0  0  0  0
  -22.4039  -11.9883   22.4792 H   0  0  0  0  0  0
  -21.1080  -13.1291   22.2609 H   0  0  0  0  0  0
  -24.6702  -15.8420   20.5339 H   0  0  0  0  0  0
  -26.3001  -15.6202   20.1411 H   0  0  0  0  0  0
  -26.7121  -32.5486   23.1136 H   0  0  0  0  0  0
  -24.9965  -33.9737   25.0390 H   0  0  0  0  0  0
  -22.6975  -31.3061   21.4058 H   0  0  0  0  0  0
  -23.3738  -35.9649   23.3271 H   0  0  0  0  0  0
  -24.3579  -36.8972   22.2059 H   0  0  0  0  0  0
  -23.7244  -37.6511   23.6683 H   0  0  0  0  0  0
  -26.0657  -31.5801   20.6028 H   0  0  0  0  0  0
  -26.8244  -30.8615   21.9963 H   0  0  0  0  0  0
  -28.0970  -29.0428   21.1937 H   0  0  0  0  0  0
  -26.0087  -25.9651   18.9875 H   0  0  0  0  0  0
  -23.9718  -27.3086   19.0162 H   0  0  0  0  0  0
  -23.7278  -30.5970   19.4012 H   0  0  0  0  0  0
  -22.7418  -29.2447   19.8664 H   0  0  0  0  0  0
  -25.1265  -36.1935   25.0822 H   0  0  0  0  0  0
  -20.9959  -28.3224   24.1423 H   0  0  0  0  0  0
  -20.5647  -26.2270   23.3598 H   0  0  0  0  0  0
  -21.6634  -26.7408   22.1209 H   0  0  0  0  0  0
  -19.6909  -25.6294   21.1210 H   0  0  0  0  0  0
  -19.6677  -27.3204   20.6732 H   0  0  0  0  0  0
  -17.4186  -26.6645   21.4022 H   0  0  0  0  0  0
  -18.0329  -26.0026   22.9010 H   0  0  0  0  0  0
  -19.7954  -30.7227   24.2278 H   0  0  0  0  0  0
  -17.5037  -31.6253   24.5152 H   0  0  0  0  0  0
  -15.5358  -30.2978   23.7650 H   0  0  0  0  0  0
  -15.8665  -28.0804   22.7071 H   0  0  0  0  0  0
  -24.5889  -30.7072   25.7810 H   0  0  0  0  0  0
  -24.8934  -32.2872   26.4925 H   0  0  0  0  0  0
  -25.8063  -30.8868   27.0230 H   0  0  0  0  0  0
  -26.2899  -29.6755   24.1198 H   0  0  0  0  0  0
  -27.4053  -29.7278   25.4656 H   0  0  0  0  0  0
  -27.8749  -30.4317   23.9358 H   0  0  0  0  0  0
  -27.2658  -33.3607   26.2085 H   0  0  0  0  0  0
  -28.3839  -32.6888   25.0301 H   0  0  0  0  0  0
  -28.0727  -31.8426   26.5389 H   0  0  0  0  0  0
  -28.2551  -38.0129   24.7538 H   0  0  0  0  0  0
  -28.1111  -36.2660   24.6208 H   0  0  0  0  0  0
  -27.2306  -37.1358   25.8857 H   0  0  0  0  0  0
  -20.9318  -29.8776   21.6942 H   0  0  0  0  0  0
  -26.0155  -38.2848   24.1455 H   0  0  0  0  0  0
  -29.7441  -23.4385   17.9961 H   0  0  0  0  0  0
  -28.8331  -18.4354   17.6713 H   0  0  0  0  0  0
  -30.5919  -18.5891   17.3986 H   0  0  0  0  0  0
  -29.4349  -19.2951   16.2621 H   0  0  0  0  0  0
  -28.4456  -16.6747   19.1748 H   0  0  0  0  0  0
  -29.0891  -15.2223   18.4507 H   0  0  0  0  0  0
  -30.0842  -16.6092   18.4793 H   0  0  0  0  0  0
  -29.7838  -22.4303   21.6624 H   0  0  0  0  0  0
  -28.1275  -22.5998   21.2120 H   0  0  0  0  0  0
  -28.3679  -18.7733   20.0326 H   0  0  0  0  0  0
  -28.9497  -19.6900   21.3703 H   0  0  0  0  0  0
  -30.3031  -24.5218   20.1649 H   0  0  0  0  0  0
  -29.5074  -24.7164   21.6875 H   0  0  0  0  0  0
  -31.1634  -18.8264   21.1998 H   0  0  0  0  0  0
  -30.9736  -18.1702   19.6396 H   0  0  0  0  0  0
  -29.2709  -17.0142   21.9152 H   0  0  0  0  0  0
  -30.9641  -16.6778   21.9168 H   0  0  0  0  0  0
  -27.2866  -24.8538   20.5778 H   0  0  0  0  0  0
  -28.0773  -24.8841   19.0127 H   0  0  0  0  0  0
  1 25  1  0  0  0
  1 30  2  0  0  0
  1 84  1  0  0  0
  2  3  1  0  0  0
  2 25  1  0  0  0
  2 85  1  0  0  0
  2 86  1  0  0  0
  3  4  1  0  0  0
  3 87  1  0  0  0
  3 88  1  0  0  0
  4  5  1  0  0  0
  4 89  1  0  0  0
  4 90  1  0  0  0
  5  6  1  0  0  0
  5 26  1  0  0  0
  5 91  1  0  0  0
  6 25  1  0  0  0
  6 92  1  0  0  0
  6 93  1  0  0  0
  7  8  2  0  0  0
  7 26  1  0  0  0
  7 29  1  0  0  0
  8  9  1  0  0  0
  8 22  1  0  0  0
  9 10  1  0  0  0
  9 27  2  0  0  0
 10 11  2  0  0  0
 10 15  1  0  0  0
 11 12  1  0  0  0
 11 94  1  0  0  0
 12 13  2  0  0  0
 12 95  1  0  0  0
 13 14  1  0  0  0
 13 31  1  0  0  0
 14 15  2  0  0  0
 14 96  1  0  0  0
 15 97  1  0  0  0
 16 17  2  0  0  0
 16 21  1  0  0  0
 16 31  1  0  0  0
 17 18  1  0  0  0
 17 98  1  0  0  0
 18 19  2  0  0  0
 18 99  1  0  0  0
 19 20  1  0  0  0
 19 24  1  0  0  0
 20 21  2  0  0  0
 20100  1  0  0  0
 21 23  1  0  0  0
 22 28  1  0  0  0
 22 32  2  0  0  0
 26 27  1  0  0  0
 28101  1  0  0  0
 28102  1  0  0  0
 29103  1  0  0  0
 29104  1  0  0  0
 33 34  1  0  0  0
 33 66  1  0  0  0
 33 70  2  0  0  0
 34 36  1  0  0  0
 34 59  1  0  0  0
 34105  1  0  0  0
 35 44  2  0  0  0
 35 45  1  0  0  0
 35 68  1  0  0  0
 36 56  1  0  0  0
 36106  1  0  0  0
 37 39  1  0  0  0
 37 47  1  0  0  0
 37 66  1  0  0  0
 37107  1  0  0  0
 38 43  2  0  0  0
 38 46  1  0  0  0
 38 47  1  0  0  0
 39 64  1  0  0  0
 39 67  2  0  0  0
 40 52  1  0  0  0
 40 53  2  0  0  0
 40 58  1  0  0  0
 41108  1  0  0  0
 41109  1  0  0  0
 41110  1  0  0  0
 41 48  1  0  0  0
 42 43  1  0  0  0
 42 66  1  0  0  0
 42111  1  0  0  0
 42112  1  0  0  0
 43 44  1  0  0  0
 44113  1  0  0  0
 45 46  2  0  0  0
 45114  1  0  0  0
 46115  1  0  0  0
 47116  1  0  0  0
 47117  1  0  0  0
 48 56  1  0  0  0
 48 65  1  0  0  0
 48118  1  0  0  0
 49 50  1  0  0  0
 49 53  1  0  0  0
 49 64  1  0  0  0
 49119  1  0  0  0
 50 51  1  0  0  0
 50120  1  0  0  0
 50121  1  0  0  0
 51 52  1  0  0  0
 51122  1  0  0  0
 51123  1  0  0  0
 52124  1  0  0  0
 52125  1  0  0  0
 53 54  1  0  0  0
 54 55  2  0  0  0
 54126  1  0  0  0
 55 57  1  0  0  0
 55127  1  0  0  0
 56 69  2  0  0  0
 57 58  2  0  0  0
 57128  1  0  0  0
 58129  1  0  0  0
 59 60  1  0  0  0
 59 61  1  0  0  0
 59 62  1  0  0  0
 60130  1  0  0  0
 60131  1  0  0  0
 60132  1  0  0  0
 61133  1  0  0  0
 61134  1  0  0  0
 61135  1  0  0  0
 62136  1  0  0  0
 62137  1  0  0  0
 62138  1  0  0  0
 63 65  1  0  0  0
 63139  1  0  0  0
 63140  1  0  0  0
 63141  1  0  0  0
 64142  1  0  0  0
 65143  1  0  0  0
 68 81  1  0  0  0
 71 72  1  0  0  0
 71 82  2  0  0  0
 71144  1  0  0  0
 72 73  2  0  0  0
 72 76  1  0  0  0
 73 77  1  0  0  0
 73 83  1  0  0  0
 74 83  1  0  0  0
 74145  1  0  0  0
 74146  1  0  0  0
 74147  1  0  0  0
 75 84  1  0  0  0
 75148  1  0  0  0
 75149  1  0  0  0
 75150  1  0  0  0
 76 78  1  0  0  0
 76151  1  0  0  0
 76152  1  0  0  0
 77 79  1  0  0  0
 77153  1  0  0  0
 77154  1  0  0  0
 78 81  1  0  0  0
 78155  1  0  0  0
 78156  1  0  0  0
 79 80  1  0  0  0
 79157  1  0  0  0
 79158  1  0  0  0
 80 84  1  0  0  0
 80159  1  0  0  0
 80160  1  0  0  0
 81161  1  0  0  0
 81162  1  0  0  0
 82 83  1  0  0  0
M  ISO  4   1 100  68 101  81 101  84 100
M  END
> <chiral flag>
0

> <version>
0

> <s_m_source_file>
/data/baiqing/PycharmProjects/Reinvent-master-3.2/result/LINK_invent/BTK/process_docking_weight1_custom_sum_contain_oxygen_bond_distance_aromatic_linkinvent_7_9_3/rearranged_h_0072.sdf

> <i_m_source_file_index>
69

> <r_mmod_Potential_Energy-OPLS-2005>
179.362213134766

> <r_mmod_Stretch_Energy-OPLS-2005>
56.178035736084

> <r_mmod_Bend_Energy-OPLS-2005>
121.720985412598

> <r_mmod_Torsional_Energy-OPLS-2005>
322.387969970703

> <r_mmod_Improper_Torsional_Energy-OPLS-2005>
10.6654863357544

> <r_mmod_Van_der_Waal_Energy-OPLS-2005>
132.648788452148

> <r_mmod_Electrostatic_Energy-OPLS-2005>
-288.813873291016

> <r_mmod_Solvation_Energy-OPLS-2005>
-214.534530639648

> <b_mmod_Minimization_Converged-OPLS-2005>
0

> <r_mmod_RMS_Derivative-OPLS-2005>
1.4484338760376

$$$$
70
                    3D
 Structure written by MMmdl.
158166  0  0  1  0            999 V2000
  -30.7844  -14.3878   20.6241 C   0  0  0  0  0  0
  -30.3923  -12.2782   19.4188 C   0  0  0  0  0  0
  -29.4797  -12.4920   18.1957 C   0  0  0  0  0  0
  -28.0046  -12.3381   18.6035 C   0  0  0  0  0  0
  -27.6547  -13.1893   19.8512 C   0  0  2  0  0  0
  -28.6853  -12.9843   20.9841 C   0  0  0  0  0  0
  -25.2596  -13.8120   20.5595 C   0  0  0  0  0  0
  -24.1873  -13.0422   20.9145 C   0  0  0  0  0  0
  -24.6423  -11.6874   20.8789 C   0  0  0  0  0  0
  -23.9080  -10.4285   21.0484 C   0  0  0  0  0  0
  -24.3611   -9.4156   21.9220 C   0  0  0  0  0  0
  -23.6259   -8.2216   22.0779 C   0  0  0  0  0  0
  -22.4245   -8.0285   21.3557 C   0  0  0  0  0  0
  -21.9926   -9.0297   20.4675 C   0  0  0  0  0  0
  -22.7280  -10.2149   20.3101 C   0  0  0  0  0  0
  -21.6827   -6.0751   22.5334 C   0  0  0  0  0  0
  -21.3994   -6.5663   23.8272 C   0  0  0  0  0  0
  -21.3646   -5.6822   24.9233 C   0  0  0  0  0  0
  -21.6014   -4.3084   24.7290 C   0  0  0  0  0  0
  -21.8789   -3.8161   23.4417 C   0  0  0  0  0  0
  -21.9171   -4.6974   22.3456 C   0  0  0  0  0  0
  -22.7909  -13.5253   21.1812 C   0  0  0  0  0  0
  -22.1639   -4.2148   21.1043 F   0  0  0  0  0  0
  -21.5611   -3.4568   25.7797 F   0  0  0  0  0  0
  -30.0302  -13.2669   20.4488 N   0  0  0  0  0  0
  -26.2979  -12.9251   20.3205 N   0  0  0  0  0  0
  -25.9322  -11.6441   20.5752 N   0  0  0  0  0  0
  -22.0567  -12.8276   22.0373 N   0  0  0  0  0  0
  -25.4352  -15.1836   20.3994 N   0  0  0  0  0  0
  -31.8492  -14.5551   20.0152 O   0  0  0  0  0  0
  -21.6577   -6.8900   21.4294 O   0  0  0  0  0  0
  -22.3612  -14.5572   20.6660 O   0  0  0  0  0  0
  -24.6222  -31.8618   23.2038 C   0  0  0  0  0  0
  -25.9097  -32.4800   23.8323 C   0  0  1  0  0  0
  -27.2359  -27.3956   20.0914 C   0  0  0  0  0  0
  -25.5931  -33.8602   24.2259 N   0  0  0  0  0  0
  -23.4075  -30.4866   21.5503 C   0  0  2  0  0  0
  -24.8448  -28.9421   20.1175 C   0  0  0  0  0  0
  -22.7433  -29.4650   22.5019 C   0  0  0  0  0  0
  -18.0266  -28.1381   22.8466 C   0  0  0  0  0  0
  -24.1499  -36.7320   23.2622 C   0  0  0  0  0  0
  -25.9379  -30.8113   21.3598 C   0  0  0  0  0  0
  -26.0077  -29.4423   20.7155 C   0  0  0  0  0  0
  -27.1950  -28.6718   20.7060 C   0  0  0  0  0  0
  -26.0417  -26.9072   19.5044 C   0  0  0  0  0  0
  -24.8607  -27.6728   19.5143 C   0  0  0  0  0  0
  -23.6093  -29.8161   20.1664 C   0  0  0  0  0  0
  -25.4117  -36.3123   24.0314 C   0  0  1  0  0  0
  -20.5869  -28.3653   23.1304 C   0  0  2  0  0  0
  -20.6748  -26.9374   22.5420 C   0  0  0  0  0  0
  -19.5747  -26.6367   21.5197 C   0  0  0  0  0  0
  -18.1912  -26.7913   22.1603 C   0  0  0  0  0  0
  -19.1528  -28.8808   23.2868 C   0  0  0  0  0  0
  -18.9473  -30.1422   23.8869 C   0  0  0  0  0  0
  -17.6497  -30.6567   24.0565 C   0  0  0  0  0  0
  -25.9041  -34.9484   23.5097 C   0  0  0  0  0  0
  -16.5363  -29.9107   23.6344 C   0  0  0  0  0  0
  -16.7271  -28.6525   23.0341 C   0  0  0  0  0  0
  -26.4463  -31.6597   25.0688 C   0  0  0  0  0  0
  -25.3540  -31.3366   26.1141 C   0  0  0  0  0  0
  -27.0656  -30.3215   24.6057 C   0  0  0  0  0  0
  -27.5791  -32.4499   25.7701 C   0  0  0  0  0  0
  -27.5568  -37.1818   24.8459 C   0  0  0  0  0  0
  -21.4163  -29.3032   22.3714 N   0  0  0  0  0  0
  -26.4290  -37.3812   23.9398 N   0  0  0  0  0  0
  -24.6757  -31.0720   22.0950 N   0  0  0  0  0  0
  -23.4168  -28.8149   23.3075 O   0  0  0  0  0  0
  -28.4237  -26.6774   20.1342 O   0  0  0  0  0  0
  -26.5627  -34.8929   22.4668 O   0  0  0  0  0  0
  -23.5399  -32.1398   23.7416 O   0  0  0  0  0  0
  -29.9336  -22.0632   19.8163 C   0  0  0  0  0  0
  -28.4494  -23.7659   21.3121 C   0  0  0  0  0  0
  -28.9461  -24.1666   20.0347 C   0  0  0  0  0  0
  -29.3974  -21.6520   21.0627 C   0  0  0  0  0  0
  -27.6309  -24.6718   22.2130 C   0  0  0  0  0  0
  -30.0351  -15.2771   22.7655 C   0  0  0  0  0  0
  -28.6345  -25.5053   19.3168 C   0  0  0  0  0  0
  -29.7728  -17.9526   21.4613 C   0  0  0  0  0  0
  -30.5504  -16.7847   20.8099 C   0  0  0  0  0  0
  -30.0794  -19.3342   20.8287 C   0  0  0  0  0  0
  -29.7050  -23.3018   19.3077 N   0  0  0  0  0  0
  -28.6793  -22.5236   21.8133 N   0  0  0  0  0  0
  -30.2500  -15.4218   21.3166 N   0  0  0  0  0  0
  -29.4963  -20.3831   21.6111 O   0  0  0  0  0  0
  -31.4418  -12.3090   19.1216 H   0  0  0  0  0  0
  -30.2429  -11.2772   19.8245 H   0  0  0  0  0  0
  -29.7333  -11.7763   17.4129 H   0  0  0  0  0  0
  -29.6362  -13.4845   17.7701 H   0  0  0  0  0  0
  -27.8312  -11.2802   18.8057 H   0  0  0  0  0  0
  -27.3428  -12.5889   17.7733 H   0  0  0  0  0  0
  -27.6978  -14.2320   19.5348 H   0  0  0  0  0  0
  -28.6554  -11.9572   21.3543 H   0  0  0  0  0  0
  -28.4093  -13.5979   21.8348 H   0  0  0  0  0  0
  -25.2777   -9.5555   22.4775 H   0  0  0  0  0  0
  -23.9928   -7.4595   22.7514 H   0  0  0  0  0  0
  -21.0851   -8.8871   19.8990 H   0  0  0  0  0  0
  -22.3819  -10.9700   19.6195 H   0  0  0  0  0  0
  -21.1989   -7.6170   23.9778 H   0  0  0  0  0  0
  -21.1478   -6.0566   25.9136 H   0  0  0  0  0  0
  -22.0565   -2.7624   23.2965 H   0  0  0  0  0  0
  -22.4163  -11.9902   22.4684 H   0  0  0  0  0  0
  -21.1210  -13.1361   22.2631 H   0  0  0  0  0  0
  -24.6592  -15.8278   20.4991 H   0  0  0  0  0  0
  -26.2866  -15.6285   20.0841 H   0  0  0  0  0  0
  -26.7140  -32.5512   23.1059 H   0  0  0  0  0  0
  -25.0062  -33.9758   25.0385 H   0  0  0  0  0  0
  -22.7011  -31.3064   21.4164 H   0  0  0  0  0  0
  -23.3747  -35.9686   23.3313 H   0  0  0  0  0  0
  -24.3575  -36.8908   22.2024 H   0  0  0  0  0  0
  -23.7251  -37.6521   23.6617 H   0  0  0  0  0  0
  -26.0349  -31.5557   20.5705 H   0  0  0  0  0  0
  -26.8321  -30.8770   21.9684 H   0  0  0  0  0  0
  -28.0851  -29.0470   21.1880 H   0  0  0  0  0  0
  -25.9802  -25.9235   19.0631 H   0  0  0  0  0  0
  -23.9668  -27.2715   19.0564 H   0  0  0  0  0  0
  -23.7159  -30.5927   19.4104 H   0  0  0  0  0  0
  -22.7292  -29.2454   19.8652 H   0  0  0  0  0  0
  -25.1285  -36.1969   25.0805 H   0  0  0  0  0  0
  -20.9903  -28.3192   24.1471 H   0  0  0  0  0  0
  -20.5578  -26.2258   23.3614 H   0  0  0  0  0  0
  -21.6622  -26.7394   22.1251 H   0  0  0  0  0  0
  -19.6905  -25.6284   21.1212 H   0  0  0  0  0  0
  -19.6688  -27.3179   20.6734 H   0  0  0  0  0  0
  -17.4169  -26.6621   21.4025 H   0  0  0  0  0  0
  -18.0321  -26.0050   22.8992 H   0  0  0  0  0  0
  -19.7958  -30.7216   24.2202 H   0  0  0  0  0  0
  -17.5094  -31.6259   24.5172 H   0  0  0  0  0  0
  -15.5373  -30.3032   23.7686 H   0  0  0  0  0  0
  -15.8663  -28.0870   22.7087 H   0  0  0  0  0  0
  -24.6673  -30.5726   25.7466 H   0  0  0  0  0  0
  -25.7840  -30.9503   27.0383 H   0  0  0  0  0  0
  -24.7566  -32.2092   26.3721 H   0  0  0  0  0  0
  -26.3524  -29.6940   24.0712 H   0  0  0  0  0  0
  -27.4264  -29.7404   25.4561 H   0  0  0  0  0  0
  -27.9217  -30.4873   23.9533 H   0  0  0  0  0  0
  -27.1960  -33.3307   26.2844 H   0  0  0  0  0  0
  -28.3252  -32.7965   25.0525 H   0  0  0  0  0  0
  -28.0888  -31.8420   26.5207 H   0  0  0  0  0  0
  -28.2603  -38.0092   24.7493 H   0  0  0  0  0  0
  -28.1020  -36.2612   24.6306 H   0  0  0  0  0  0
  -27.2288  -37.1512   25.8862 H   0  0  0  0  0  0
  -20.9309  -29.8813   21.6982 H   0  0  0  0  0  0
  -26.0169  -38.2890   24.1401 H   0  0  0  0  0  0
  -30.5302  -21.4002   19.2060 H   0  0  0  0  0  0
  -26.8260  -25.1549   21.6607 H   0  0  0  0  0  0
  -28.2651  -25.4411   22.6507 H   0  0  0  0  0  0
  -27.1715  -24.1141   23.0311 H   0  0  0  0  0  0
  -30.5941  -16.0102   23.3462 H   0  0  0  0  0  0
  -28.9753  -15.3958   22.9859 H   0  0  0  0  0  0
  -30.3522  -14.3008   23.1459 H   0  0  0  0  0  0
  -27.8852  -25.3350   18.5471 H   0  0  0  0  0  0
  -29.5182  -25.7368   18.7223 H   0  0  0  0  0  0
  -28.7049  -17.7395   21.3861 H   0  0  0  0  0  0
  -30.0145  -18.0007   22.5203 H   0  0  0  0  0  0
  -31.6219  -16.9802   20.8816 H   0  0  0  0  0  0
  -30.3191  -16.7880   19.7416 H   0  0  0  0  0  0
  -29.6793  -19.3492   19.8146 H   0  0  0  0  0  0
  -31.1569  -19.5004   20.7574 H   0  0  0  0  0  0
  1 25  1  0  0  0
  1 30  2  0  0  0
  1 83  1  0  0  0
  2  3  1  0  0  0
  2 25  1  0  0  0
  2 85  1  0  0  0
  2 86  1  0  0  0
  3  4  1  0  0  0
  3 87  1  0  0  0
  3 88  1  0  0  0
  4  5  1  0  0  0
  4 89  1  0  0  0
  4 90  1  0  0  0
  5  6  1  0  0  0
  5 26  1  0  0  0
  5 91  1  0  0  0
  6 25  1  0  0  0
  6 92  1  0  0  0
  6 93  1  0  0  0
  7  8  2  0  0  0
  7 26  1  0  0  0
  7 29  1  0  0  0
  8  9  1  0  0  0
  8 22  1  0  0  0
  9 10  1  0  0  0
  9 27  2  0  0  0
 10 11  2  0  0  0
 10 15  1  0  0  0
 11 12  1  0  0  0
 11 94  1  0  0  0
 12 13  2  0  0  0
 12 95  1  0  0  0
 13 14  1  0  0  0
 13 31  1  0  0  0
 14 15  2  0  0  0
 14 96  1  0  0  0
 15 97  1  0  0  0
 16 17  2  0  0  0
 16 21  1  0  0  0
 16 31  1  0  0  0
 17 18  1  0  0  0
 17 98  1  0  0  0
 18 19  2  0  0  0
 18 99  1  0  0  0
 19 20  1  0  0  0
 19 24  1  0  0  0
 20 21  2  0  0  0
 20100  1  0  0  0
 21 23  1  0  0  0
 22 28  1  0  0  0
 22 32  2  0  0  0
 26 27  1  0  0  0
 28101  1  0  0  0
 28102  1  0  0  0
 29103  1  0  0  0
 29104  1  0  0  0
 33 34  1  0  0  0
 33 66  1  0  0  0
 33 70  2  0  0  0
 34 36  1  0  0  0
 34 59  1  0  0  0
 34105  1  0  0  0
 35 44  2  0  0  0
 35 45  1  0  0  0
 35 68  1  0  0  0
 36 56  1  0  0  0
 36106  1  0  0  0
 37 39  1  0  0  0
 37 47  1  0  0  0
 37 66  1  0  0  0
 37107  1  0  0  0
 38 43  2  0  0  0
 38 46  1  0  0  0
 38 47  1  0  0  0
 39 64  1  0  0  0
 39 67  2  0  0  0
 40 52  1  0  0  0
 40 53  2  0  0  0
 40 58  1  0  0  0
 41108  1  0  0  0
 41109  1  0  0  0
 41110  1  0  0  0
 41 48  1  0  0  0
 42 43  1  0  0  0
 42 66  1  0  0  0
 42111  1  0  0  0
 42112  1  0  0  0
 43 44  1  0  0  0
 44113  1  0  0  0
 45 46  2  0  0  0
 45114  1  0  0  0
 46115  1  0  0  0
 47116  1  0  0  0
 47117  1  0  0  0
 48 56  1  0  0  0
 48 65  1  0  0  0
 48118  1  0  0  0
 49 50  1  0  0  0
 49 53  1  0  0  0
 49 64  1  0  0  0
 49119  1  0  0  0
 50 51  1  0  0  0
 50120  1  0  0  0
 50121  1  0  0  0
 51 52  1  0  0  0
 51122  1  0  0  0
 51123  1  0  0  0
 52124  1  0  0  0
 52125  1  0  0  0
 53 54  1  0  0  0
 54 55  2  0  0  0
 54126  1  0  0  0
 55 57  1  0  0  0
 55127  1  0  0  0
 56 69  2  0  0  0
 57 58  2  0  0  0
 57128  1  0  0  0
 58129  1  0  0  0
 59 60  1  0  0  0
 59 61  1  0  0  0
 59 62  1  0  0  0
 60130  1  0  0  0
 60131  1  0  0  0
 60132  1  0  0  0
 61133  1  0  0  0
 61134  1  0  0  0
 61135  1  0  0  0
 62136  1  0  0  0
 62137  1  0  0  0
 62138  1  0  0  0
 63 65  1  0  0  0
 63139  1  0  0  0
 63140  1  0  0  0
 63141  1  0  0  0
 64142  1  0  0  0
 65143  1  0  0  0
 68 77  1  0  0  0
 71 74  2  0  0  0
 71 81  1  0  0  0
 71144  1  0  0  0
 72 73  1  0  0  0
 72 75  1  0  0  0
 72 82  2  0  0  0
 73 77  1  0  0  0
 73 81  2  0  0  0
 74 82  1  0  0  0
 74 84  1  0  0  0
 75145  1  0  0  0
 75146  1  0  0  0
 75147  1  0  0  0
 76 83  1  0  0  0
 76148  1  0  0  0
 76149  1  0  0  0
 76150  1  0  0  0
 77151  1  0  0  0
 77152  1  0  0  0
 78 79  1  0  0  0
 78 80  1  0  0  0
 78153  1  0  0  0
 78154  1  0  0  0
 79 83  1  0  0  0
 79155  1  0  0  0
 79156  1  0  0  0
 80 84  1  0  0  0
 80157  1  0  0  0
 80158  1  0  0  0
M  ISO  4   1 100  68 101  77 101  83 100
M  END
> <chiral flag>
0

> <version>
0

> <s_m_source_file>
/data/baiqing/PycharmProjects/Reinvent-master-3.2/result/LINK_invent/BTK/process_docking_weight1_custom_sum_contain_oxygen_bond_distance_aromatic_linkinvent_7_9_3/rearranged_h_0072.sdf

> <i_m_source_file_index>
70

> <r_mmod_Potential_Energy-OPLS-2005>
234.102996826172

> <r_mmod_Stretch_Energy-OPLS-2005>
46.1479568481445

> <r_mmod_Bend_Energy-OPLS-2005>
133.251388549805

> <r_mmod_Torsional_Energy-OPLS-2005>
275.889038085938

> <r_mmod_Improper_Torsional_Energy-OPLS-2005>
6.85745716094971

> <r_mmod_Van_der_Waal_Energy-OPLS-2005>
170.67366027832

> <r_mmod_Electrostatic_Energy-OPLS-2005>
-208.953308105469

> <r_mmod_Solvation_Energy-OPLS-2005>
-204.802139282227

> <b_mmod_Minimization_Converged-OPLS-2005>
0

> <r_mmod_RMS_Derivative-OPLS-2005>
6.73701000213623

$$$$
71
                    3D
 Structure written by MMmdl.
162170  0  0  1  0            999 V2000
  -30.7358  -14.4321   20.6746 C   0  0  0  0  0  0
  -30.4244  -12.3181   19.4149 C   0  0  0  0  0  0
  -29.4898  -12.5078   18.2037 C   0  0  0  0  0  0
  -28.0139  -12.3528   18.6149 C   0  0  0  0  0  0
  -27.6623  -13.1932   19.8690 C   0  0  2  0  0  0
  -28.6988  -12.9616   20.9897 C   0  0  0  0  0  0
  -25.2603  -13.8127   20.5626 C   0  0  0  0  0  0
  -24.1859  -13.0434   20.9149 C   0  0  0  0  0  0
  -24.6396  -11.6888   20.8721 C   0  0  0  0  0  0
  -23.9051  -10.4291   21.0409 C   0  0  0  0  0  0
  -24.3606   -9.4204   21.9184 C   0  0  0  0  0  0
  -23.6285   -8.2238   22.0758 C   0  0  0  0  0  0
  -22.4265   -8.0277   21.3549 C   0  0  0  0  0  0
  -21.9900   -9.0254   20.4654 C   0  0  0  0  0  0
  -22.7221  -10.2134   20.3065 C   0  0  0  0  0  0
  -21.6854   -6.0729   22.5281 C   0  0  0  0  0  0
  -21.4021   -6.5640   23.8213 C   0  0  0  0  0  0
  -21.3655   -5.6788   24.9173 C   0  0  0  0  0  0
  -21.6048   -4.3054   24.7222 C   0  0  0  0  0  0
  -21.8816   -3.8143   23.4344 C   0  0  0  0  0  0
  -21.9194   -4.6959   22.3400 C   0  0  0  0  0  0
  -22.7879  -13.5246   21.1807 C   0  0  0  0  0  0
  -22.1659   -4.2147   21.0976 F   0  0  0  0  0  0
  -21.5623   -3.4539   25.7734 F   0  0  0  0  0  0
  -30.0349  -13.2824   20.4589 N   0  0  0  0  0  0
  -26.3030  -12.9272   20.3330 N   0  0  0  0  0  0
  -25.9318  -11.6446   20.5751 N   0  0  0  0  0  0
  -22.0518  -12.8278   22.0383 N   0  0  0  0  0  0
  -25.4316  -15.1839   20.3973 N   0  0  0  0  0  0
  -31.7812  -14.6686   20.0582 O   0  0  0  0  0  0
  -21.6638   -6.8871   21.4238 O   0  0  0  0  0  0
  -22.3559  -14.5539   20.6627 O   0  0  0  0  0  0
  -24.6167  -31.8696   23.2120 C   0  0  0  0  0  0
  -25.9064  -32.4833   23.8393 C   0  0  1  0  0  0
  -27.2327  -27.4347   20.0718 C   0  0  0  0  0  0
  -25.5939  -33.8622   24.2344 N   0  0  0  0  0  0
  -23.4027  -30.4956   21.5552 C   0  0  2  0  0  0
  -24.8445  -28.9648   20.1202 C   0  0  0  0  0  0
  -22.7412  -29.4670   22.5007 C   0  0  0  0  0  0
  -18.0265  -28.1410   22.8483 C   0  0  0  0  0  0
  -24.1469  -36.7278   23.2637 C   0  0  0  0  0  0
  -25.9332  -30.8367   21.3623 C   0  0  0  0  0  0
  -26.0097  -29.4711   20.7072 C   0  0  0  0  0  0
  -27.2061  -28.7144   20.6765 C   0  0  0  0  0  0
  -26.0359  -26.9441   19.4919 C   0  0  0  0  0  0
  -24.8516  -27.7007   19.5137 C   0  0  0  0  0  0
  -23.6093  -29.8321   20.1697 C   0  0  0  0  0  0
  -25.4104  -36.3109   24.0342 C   0  0  1  0  0  0
  -20.5855  -28.3687   23.1319 C   0  0  2  0  0  0
  -20.6764  -26.9421   22.5428 C   0  0  0  0  0  0
  -19.5751  -26.6407   21.5215 C   0  0  0  0  0  0
  -18.1917  -26.7951   22.1614 C   0  0  0  0  0  0
  -19.1519  -28.8868   23.2899 C   0  0  0  0  0  0
  -18.9452  -30.1466   23.8914 C   0  0  0  0  0  0
  -17.6461  -30.6611   24.0572 C   0  0  0  0  0  0
  -25.9049  -34.9479   23.5141 C   0  0  0  0  0  0
  -16.5348  -29.9123   23.6336 C   0  0  0  0  0  0
  -16.7256  -28.6548   23.0343 C   0  0  0  0  0  0
  -26.4509  -31.6608   25.0708 C   0  0  0  0  0  0
  -25.3757  -31.3681   26.1440 C   0  0  0  0  0  0
  -27.0362  -30.3067   24.6072 C   0  0  0  0  0  0
  -27.6127  -32.4301   25.7448 C   0  0  0  0  0  0
  -27.5564  -37.1783   24.8477 C   0  0  0  0  0  0
  -21.4144  -29.3036   22.3717 N   0  0  0  0  0  0
  -26.4288  -37.3798   23.9417 N   0  0  0  0  0  0
  -24.6696  -31.0792   22.1023 N   0  0  0  0  0  0
  -23.4176  -28.8177   23.3031 O   0  0  0  0  0  0
  -28.4140  -26.7108   20.0587 O   0  0  0  0  0  0
  -26.5586  -34.8918   22.4688 O   0  0  0  0  0  0
  -23.5359  -32.1449   23.7527 O   0  0  0  0  0  0
  -29.9262  -19.0655   21.3921 C   0  0  0  0  0  0
  -29.9130  -17.8651   20.7307 C   0  0  0  0  0  0
  -28.1100  -16.7919   22.0981 C   0  0  0  0  0  0
  -31.4712  -16.0940   22.4784 C   0  0  0  0  0  0
  -29.5767  -23.0519   19.6747 C   0  0  0  0  0  0
  -30.9415  -22.3205   19.7287 C   0  0  0  0  0  0
  -29.6796  -24.5869   19.8796 C   0  0  0  0  0  0
  -31.1169  -21.2654   20.8520 C   0  0  0  0  0  0
  -28.3305  -25.3157   19.7279 C   0  0  0  0  0  0
  -29.2821  -16.5434   21.1286 C   0  0  2  0  0  0
  -30.2680  -15.4791   21.7271 C   0  0  1  0  0  0
  -30.5939  -18.0388   19.5253 N   0  0  0  0  0  0
  -31.0437  -19.2568   19.4490 N   0  0  0  0  0  0
  -30.6391  -19.9125   20.5649 N   0  0  0  0  0  0
  -31.4657  -12.4272   19.1060 H   0  0  0  0  0  0
  -30.3443  -11.3000   19.7991 H   0  0  0  0  0  0
  -29.7339  -11.7832   17.4261 H   0  0  0  0  0  0
  -29.6490  -13.4937   17.7654 H   0  0  0  0  0  0
  -27.8304  -11.2957   18.8135 H   0  0  0  0  0  0
  -27.3609  -12.6213   17.7825 H   0  0  0  0  0  0
  -27.7099  -14.2395   19.5719 H   0  0  0  0  0  0
  -28.6794  -11.9186   21.3083 H   0  0  0  0  0  0
  -28.4118  -13.5249   21.8725 H   0  0  0  0  0  0
  -25.2752   -9.5680   22.4755 H   0  0  0  0  0  0
  -23.9996   -7.4632   22.7487 H   0  0  0  0  0  0
  -21.0826   -8.8771   19.8968 H   0  0  0  0  0  0
  -22.3678  -10.9671   19.6180 H   0  0  0  0  0  0
  -21.2022   -7.6154   23.9715 H   0  0  0  0  0  0
  -21.1477   -6.0522   25.9076 H   0  0  0  0  0  0
  -22.0601   -2.7610   23.2843 H   0  0  0  0  0  0
  -22.4127  -11.9964   22.4819 H   0  0  0  0  0  0
  -21.1145  -13.1333   22.2587 H   0  0  0  0  0  0
  -24.6636  -15.8359   20.5124 H   0  0  0  0  0  0
  -26.2833  -15.6249   20.0784 H   0  0  0  0  0  0
  -26.7120  -32.5542   23.1142 H   0  0  0  0  0  0
  -25.0097  -33.9770   25.0497 H   0  0  0  0  0  0
  -22.6931  -31.3137   21.4161 H   0  0  0  0  0  0
  -23.3759  -35.9581   23.3342 H   0  0  0  0  0  0
  -24.3542  -36.8849   22.2038 H   0  0  0  0  0  0
  -23.7184  -37.6477   23.6630 H   0  0  0  0  0  0
  -26.0395  -31.6025   20.5930 H   0  0  0  0  0  0
  -26.8254  -30.8954   21.9731 H   0  0  0  0  0  0
  -28.1114  -29.1061   21.1182 H   0  0  0  0  0  0
  -25.9839  -25.9797   19.0106 H   0  0  0  0  0  0
  -23.9511  -27.3105   19.0583 H   0  0  0  0  0  0
  -23.7219  -30.6062   19.4104 H   0  0  0  0  0  0
  -22.7329  -29.2543   19.8708 H   0  0  0  0  0  0
  -25.1273  -36.1981   25.0832 H   0  0  0  0  0  0
  -20.9947  -28.3278   24.1441 H   0  0  0  0  0  0
  -20.5683  -26.2287   23.3610 H   0  0  0  0  0  0
  -21.6628  -26.7475   22.1201 H   0  0  0  0  0  0
  -19.6912  -25.6322   21.1230 H   0  0  0  0  0  0
  -19.6709  -27.3234   20.6757 H   0  0  0  0  0  0
  -17.4184  -26.6700   21.4018 H   0  0  0  0  0  0
  -18.0323  -26.0104   22.9022 H   0  0  0  0  0  0
  -19.7933  -30.7269   24.2305 H   0  0  0  0  0  0
  -17.5023  -31.6283   24.5180 H   0  0  0  0  0  0
  -15.5357  -30.3033   23.7668 H   0  0  0  0  0  0
  -15.8644  -28.0877   22.7061 H   0  0  0  0  0  0
  -24.5967  -30.7013   25.7728 H   0  0  0  0  0  0
  -24.8890  -32.2807   26.4889 H   0  0  0  0  0  0
  -25.8073  -30.8824   27.0200 H   0  0  0  0  0  0
  -26.2898  -29.6768   24.1214 H   0  0  0  0  0  0
  -27.4267  -29.7369   25.4518 H   0  0  0  0  0  0
  -27.8668  -30.4428   23.9136 H   0  0  0  0  0  0
  -27.2843  -33.3634   26.2039 H   0  0  0  0  0  0
  -28.3926  -32.6798   25.0237 H   0  0  0  0  0  0
  -28.0820  -31.8390   26.5329 H   0  0  0  0  0  0
  -28.2626  -38.0041   24.7539 H   0  0  0  0  0  0
  -28.1017  -36.2582   24.6326 H   0  0  0  0  0  0
  -27.2265  -37.1465   25.8873 H   0  0  0  0  0  0
  -20.9332  -29.8750   21.6909 H   0  0  0  0  0  0
  -26.0184  -38.2858   24.1492 H   0  0  0  0  0  0
  -29.5314  -19.3716   22.3527 H   0  0  0  0  0  0
  -27.3883  -17.4912   21.6750 H   0  0  0  0  0  0
  -28.4518  -17.2114   23.0441 H   0  0  0  0  0  0
  -27.5765  -15.8688   22.3223 H   0  0  0  0  0  0
  -31.1352  -16.7705   23.2659 H   0  0  0  0  0  0
  -32.1322  -16.6526   21.8150 H   0  0  0  0  0  0
  -32.0687  -15.3165   22.9576 H   0  0  0  0  0  0
  -29.1157  -22.8564   18.7046 H   0  0  0  0  0  0
  -28.8961  -22.6276   20.4143 H   0  0  0  0  0  0
  -31.7242  -23.0685   19.8639 H   0  0  0  0  0  0
  -31.1566  -21.8736   18.7579 H   0  0  0  0  0  0
  -30.3810  -25.0126   19.1590 H   0  0  0  0  0  0
  -30.0880  -24.7901   20.8697 H   0  0  0  0  0  0
  -30.6576  -21.6188   21.7743 H   0  0  0  0  0  0
  -32.1824  -21.1656   21.0691 H   0  0  0  0  0  0
  -27.9918  -25.1955   18.6976 H   0  0  0  0  0  0
  -27.5971  -24.8377   20.3781 H   0  0  0  0  0  0
  -28.8309  -16.1188   20.2303 H   0  0  0  0  0  0
  -29.7480  -14.9298   22.5051 H   0  0  0  0  0  0
  1 25  1  0  0  0
  1 30  2  0  0  0
  1 81  1  0  0  0
  2  3  1  0  0  0
  2 25  1  0  0  0
  2 85  1  0  0  0
  2 86  1  0  0  0
  3  4  1  0  0  0
  3 87  1  0  0  0
  3 88  1  0  0  0
  4  5  1  0  0  0
  4 89  1  0  0  0
  4 90  1  0  0  0
  5  6  1  0  0  0
  5 26  1  0  0  0
  5 91  1  0  0  0
  6 25  1  0  0  0
  6 92  1  0  0  0
  6 93  1  0  0  0
  7  8  2  0  0  0
  7 26  1  0  0  0
  7 29  1  0  0  0
  8  9  1  0  0  0
  8 22  1  0  0  0
  9 10  1  0  0  0
  9 27  2  0  0  0
 10 11  2  0  0  0
 10 15  1  0  0  0
 11 12  1  0  0  0
 11 94  1  0  0  0
 12 13  2  0  0  0
 12 95  1  0  0  0
 13 14  1  0  0  0
 13 31  1  0  0  0
 14 15  2  0  0  0
 14 96  1  0  0  0
 15 97  1  0  0  0
 16 17  2  0  0  0
 16 21  1  0  0  0
 16 31  1  0  0  0
 17 18  1  0  0  0
 17 98  1  0  0  0
 18 19  2  0  0  0
 18 99  1  0  0  0
 19 20  1  0  0  0
 19 24  1  0  0  0
 20 21  2  0  0  0
 20100  1  0  0  0
 21 23  1  0  0  0
 22 28  1  0  0  0
 22 32  2  0  0  0
 26 27  1  0  0  0
 28101  1  0  0  0
 28102  1  0  0  0
 29103  1  0  0  0
 29104  1  0  0  0
 33 34  1  0  0  0
 33 66  1  0  0  0
 33 70  2  0  0  0
 34 36  1  0  0  0
 34 59  1  0  0  0
 34105  1  0  0  0
 35 44  2  0  0  0
 35 45  1  0  0  0
 35 68  1  0  0  0
 36 56  1  0  0  0
 36106  1  0  0  0
 37 39  1  0  0  0
 37 47  1  0  0  0
 37 66  1  0  0  0
 37107  1  0  0  0
 38 43  2  0  0  0
 38 46  1  0  0  0
 38 47  1  0  0  0
 39 64  1  0  0  0
 39 67  2  0  0  0
 40 52  1  0  0  0
 40 53  2  0  0  0
 40 58  1  0  0  0
 41108  1  0  0  0
 41109  1  0  0  0
 41110  1  0  0  0
 41 48  1  0  0  0
 42 43  1  0  0  0
 42 66  1  0  0  0
 42111  1  0  0  0
 42112  1  0  0  0
 43 44  1  0  0  0
 44113  1  0  0  0
 45 46  2  0  0  0
 45114  1  0  0  0
 46115  1  0  0  0
 47116  1  0  0  0
 47117  1  0  0  0
 48 56  1  0  0  0
 48 65  1  0  0  0
 48118  1  0  0  0
 49 50  1  0  0  0
 49 53  1  0  0  0
 49 64  1  0  0  0
 49119  1  0  0  0
 50 51  1  0  0  0
 50120  1  0  0  0
 50121  1  0  0  0
 51 52  1  0  0  0
 51122  1  0  0  0
 51123  1  0  0  0
 52124  1  0  0  0
 52125  1  0  0  0
 53 54  1  0  0  0
 54 55  2  0  0  0
 54126  1  0  0  0
 55 57  1  0  0  0
 55127  1  0  0  0
 56 69  2  0  0  0
 57 58  2  0  0  0
 57128  1  0  0  0
 58129  1  0  0  0
 59 60  1  0  0  0
 59 61  1  0  0  0
 59 62  1  0  0  0
 60130  1  0  0  0
 60131  1  0  0  0
 60132  1  0  0  0
 61133  1  0  0  0
 61134  1  0  0  0
 61135  1  0  0  0
 62136  1  0  0  0
 62137  1  0  0  0
 62138  1  0  0  0
 63 65  1  0  0  0
 63139  1  0  0  0
 63140  1  0  0  0
 63141  1  0  0  0
 64142  1  0  0  0
 65143  1  0  0  0
 68 79  1  0  0  0
 71 72  2  0  0  0
 71 84  1  0  0  0
 71144  1  0  0  0
 72 80  1  0  0  0
 72 82  1  0  0  0
 73145  1  0  0  0
 73146  1  0  0  0
 73147  1  0  0  0
 73 80  1  0  0  0
 74148  1  0  0  0
 74149  1  0  0  0
 74150  1  0  0  0
 74 81  1  0  0  0
 75 76  1  0  0  0
 75 77  1  0  0  0
 75151  1  0  0  0
 75152  1  0  0  0
 76 78  1  0  0  0
 76153  1  0  0  0
 76154  1  0  0  0
 77 79  1  0  0  0
 77155  1  0  0  0
 77156  1  0  0  0
 78 84  1  0  0  0
 78157  1  0  0  0
 78158  1  0  0  0
 79159  1  0  0  0
 79160  1  0  0  0
 80 81  1  0  0  0
 80161  1  0  0  0
 81162  1  0  0  0
 82 83  2  0  0  0
 83 84  1  0  0  0
M  ISO  4   1 100  68 101  79 101  81 100
M  END
> <chiral flag>
0

> <version>
0

> <s_m_source_file>
/data/baiqing/PycharmProjects/Reinvent-master-3.2/result/LINK_invent/BTK/process_docking_weight1_custom_sum_contain_oxygen_bond_distance_aromatic_linkinvent_7_9_3/rearranged_h_0072.sdf

> <i_m_source_file_index>
71

> <r_mmod_Potential_Energy-OPLS-2005>
-62.8894882202148

> <r_mmod_Stretch_Energy-OPLS-2005>
38.7747268676758

> <r_mmod_Bend_Energy-OPLS-2005>
103.910530090332

> <r_mmod_Torsional_Energy-OPLS-2005>
195.900207519531

> <r_mmod_Improper_Torsional_Energy-OPLS-2005>
2.42173886299133

> <r_mmod_Van_der_Waal_Energy-OPLS-2005>
129.043594360352

> <r_mmod_Electrostatic_Energy-OPLS-2005>
-333.789154052734

> <r_mmod_Solvation_Energy-OPLS-2005>
-209.322830200195

> <b_mmod_Minimization_Converged-OPLS-2005>
0

> <r_mmod_RMS_Derivative-OPLS-2005>
2.56838250160217

$$$$
72
                    3D
 Structure written by MMmdl.
160168  0  0  1  0            999 V2000
  -30.5647  -14.9660   20.3714 C   0  0  0  0  0  0
  -30.4336  -12.5869   19.5062 C   0  0  0  0  0  0
  -29.5233  -12.5213   18.2586 C   0  0  0  0  0  0
  -28.0524  -12.3138   18.6682 C   0  0  0  0  0  0
  -27.6219  -13.2591   19.8204 C   0  0  2  0  0  0
  -28.6633  -13.3304   20.9551 C   0  0  0  0  0  0
  -25.2463  -13.8258   20.5731 C   0  0  0  0  0  0
  -24.1781  -13.0483   20.9194 C   0  0  0  0  0  0
  -24.6391  -11.6951   20.8728 C   0  0  0  0  0  0
  -23.9067  -10.4316   21.0394 C   0  0  0  0  0  0
  -24.3602   -9.4230   21.9180 C   0  0  0  0  0  0
  -23.6282   -8.2261   22.0760 C   0  0  0  0  0  0
  -22.4269   -8.0281   21.3543 C   0  0  0  0  0  0
  -21.9900   -9.0255   20.4642 C   0  0  0  0  0  0
  -22.7234  -10.2131   20.3047 C   0  0  0  0  0  0
  -21.6850   -6.0723   22.5276 C   0  0  0  0  0  0
  -21.4011   -6.5630   23.8203 C   0  0  0  0  0  0
  -21.3657   -5.6786   24.9170 C   0  0  0  0  0  0
  -21.6048   -4.3051   24.7224 C   0  0  0  0  0  0
  -21.8822   -3.8138   23.4348 C   0  0  0  0  0  0
  -21.9197   -4.6951   22.3401 C   0  0  0  0  0  0
  -22.7795  -13.5225   21.1869 C   0  0  0  0  0  0
  -22.1669   -4.2132   21.0979 F   0  0  0  0  0  0
  -21.5631   -3.4538   25.7737 F   0  0  0  0  0  0
  -29.9474  -13.7122   20.3600 N   0  0  0  0  0  0
  -26.2865  -12.9499   20.3205 N   0  0  0  0  0  0
  -25.9327  -11.6614   20.5722 N   0  0  0  0  0  0
  -22.0439  -12.8209   22.0398 N   0  0  0  0  0  0
  -25.4243  -15.1996   20.4254 N   0  0  0  0  0  0
  -31.7837  -14.9552   20.1631 O   0  0  0  0  0  0
  -21.6651   -6.8868   21.4230 O   0  0  0  0  0  0
  -22.3471  -14.5541   20.6724 O   0  0  0  0  0  0
  -24.6415  -31.8448   23.1840 C   0  0  0  0  0  0
  -25.9200  -32.4700   23.8209 C   0  0  1  0  0  0
  -27.2134  -27.1438   20.1396 C   0  0  0  0  0  0
  -25.5954  -33.8497   24.2164 N   0  0  0  0  0  0
  -23.4419  -30.4594   21.5358 C   0  0  2  0  0  0
  -24.8909  -28.8891   20.1040 C   0  0  0  0  0  0
  -22.7546  -29.4544   22.4922 C   0  0  0  0  0  0
  -18.0279  -28.1404   22.8462 C   0  0  0  0  0  0
  -24.1486  -36.7256   23.2628 C   0  0  0  0  0  0
  -25.9953  -30.7206   21.3767 C   0  0  0  0  0  0
  -26.0674  -29.3298   20.7227 C   0  0  0  0  0  0
  -27.2292  -28.4719   20.7259 C   0  0  0  0  0  0
  -26.0155  -26.8081   19.4686 C   0  0  0  0  0  0
  -24.8787  -27.6440   19.4575 C   0  0  0  0  0  0
  -23.6576  -29.7766   20.1594 C   0  0  0  0  0  0
  -25.4117  -36.3027   24.0301 C   0  0  1  0  0  0
  -20.5884  -28.3709   23.1252 C   0  0  2  0  0  0
  -20.6788  -26.9428   22.5384 C   0  0  0  0  0  0
  -19.5770  -26.6402   21.5188 C   0  0  0  0  0  0
  -18.1936  -26.7949   22.1586 C   0  0  0  0  0  0
  -19.1534  -28.8880   23.2835 C   0  0  0  0  0  0
  -18.9452  -30.1479   23.8854 C   0  0  0  0  0  0
  -17.6451  -30.6604   24.0548 C   0  0  0  0  0  0
  -25.9061  -34.9401   23.5037 C   0  0  0  0  0  0
  -16.5336  -29.9084   23.6364 C   0  0  0  0  0  0
  -16.7259  -28.6506   23.0372 C   0  0  0  0  0  0
  -26.4540  -31.6562   25.0630 C   0  0  0  0  0  0
  -25.3740  -31.3712   26.1323 C   0  0  0  0  0  0
  -27.0408  -30.2980   24.6163 C   0  0  0  0  0  0
  -27.6087  -32.4317   25.7398 C   0  0  0  0  0  0
  -27.5574  -37.1757   24.8464 C   0  0  0  0  0  0
  -21.4244  -29.3034   22.3655 N   0  0  0  0  0  0
  -26.4291  -37.3735   23.9401 N   0  0  0  0  0  0
  -24.7137  -31.0287   22.0878 N   0  0  0  0  0  0
  -23.4204  -28.8103   23.3066 O   0  0  0  0  0  0
  -28.2620  -26.1592   20.2244 O   0  0  0  0  0  0
  -26.5619  -34.8898   22.4603 O   0  0  0  0  0  0
  -23.5546  -32.1320   23.7076 O   0  0  0  0  0  0
  -30.3582  -17.7606   20.4924 C   0  0  0  0  0  0
  -28.2717  -18.0690   20.2623 C   0  0  0  0  0  0
  -29.8160  -16.4343   20.4144 C   0  0  0  0  0  0
  -28.9225  -21.6034   18.4699 C   0  0  0  0  0  0
  -27.1748  -21.4455   20.2201 C   0  0  0  0  0  0
  -28.9878  -23.3463   22.0013 C   0  0  0  0  0  0
  -30.3809  -23.7387   19.9944 C   0  0  0  0  0  0
  -29.5246  -20.4035   20.6633 C   0  0  0  0  0  0
  -27.9858  -24.6416   20.0217 C   0  0  0  0  0  0
  -28.6756  -21.7096   19.9884 C   0  0  0  0  0  0
  -28.9684  -23.3364   20.4623 C   0  0  0  0  0  0
  -28.4438  -16.7200   20.2469 N   0  0  0  0  0  0
  -29.3736  -18.8356   20.4169 N   0  0  0  0  0  0
  -31.4704  -12.7216   19.1925 H   0  0  0  0  0  0
  -30.4107  -11.6452   20.0565 H   0  0  0  0  0  0
  -29.8439  -11.7229   17.5876 H   0  0  0  0  0  0
  -29.6224  -13.4519   17.6988 H   0  0  0  0  0  0
  -27.9359  -11.2758   18.9807 H   0  0  0  0  0  0
  -27.3986  -12.4480   17.8049 H   0  0  0  0  0  0
  -27.5701  -14.2507   19.3688 H   0  0  0  0  0  0
  -28.7438  -12.3790   21.4814 H   0  0  0  0  0  0
  -28.3654  -14.0770   21.6931 H   0  0  0  0  0  0
  -25.2741   -9.5706   22.4762 H   0  0  0  0  0  0
  -23.9989   -7.4647   22.7484 H   0  0  0  0  0  0
  -21.0833   -8.8751   19.8943 H   0  0  0  0  0  0
  -22.3684  -10.9647   19.6140 H   0  0  0  0  0  0
  -21.2003   -7.6140   23.9689 H   0  0  0  0  0  0
  -21.1475   -6.0534   25.9068 H   0  0  0  0  0  0
  -22.0603   -2.7594   23.2867 H   0  0  0  0  0  0
  -22.4047  -11.9857   22.4772 H   0  0  0  0  0  0
  -21.1051  -13.1231   22.2594 H   0  0  0  0  0  0
  -24.6783  -15.8719   20.5595 H   0  0  0  0  0  0
  -26.3221  -15.6303   20.2210 H   0  0  0  0  0  0
  -26.7234  -32.5317   23.0902 H   0  0  0  0  0  0
  -25.0159  -33.9598   25.0354 H   0  0  0  0  0  0
  -22.7422  -31.2837   21.3793 H   0  0  0  0  0  0
  -23.3764  -35.9577   23.3277 H   0  0  0  0  0  0
  -24.3574  -36.8913   22.2048 H   0  0  0  0  0  0
  -23.7223  -37.6433   23.6686 H   0  0  0  0  0  0
  -26.1352  -31.4682   20.5936 H   0  0  0  0  0  0
  -26.8734  -30.7817   22.0088 H   0  0  0  0  0  0
  -28.1234  -28.8001   21.2350 H   0  0  0  0  0  0
  -25.9239  -25.8580   18.9629 H   0  0  0  0  0  0
  -23.9791  -27.3131   18.9573 H   0  0  0  0  0  0
  -23.7570  -30.5381   19.3858 H   0  0  0  0  0  0
  -22.7793  -29.1902   19.8816 H   0  0  0  0  0  0
  -25.1305  -36.1847   25.0794 H   0  0  0  0  0  0
  -20.9925  -28.3281   24.1391 H   0  0  0  0  0  0
  -20.5733  -26.2285   23.3564 H   0  0  0  0  0  0
  -21.6644  -26.7497   22.1134 H   0  0  0  0  0  0
  -19.6949  -25.6321   21.1200 H   0  0  0  0  0  0
  -19.6736  -27.3228   20.6736 H   0  0  0  0  0  0
  -17.4208  -26.6683   21.3978 H   0  0  0  0  0  0
  -18.0343  -26.0100   22.8990 H   0  0  0  0  0  0
  -19.7930  -30.7301   24.2210 H   0  0  0  0  0  0
  -17.5007  -31.6285   24.5153 H   0  0  0  0  0  0
  -15.5333  -30.2956   23.7771 H   0  0  0  0  0  0
  -15.8645  -28.0815   22.7141 H   0  0  0  0  0  0
  -24.6023  -30.6934   25.7658 H   0  0  0  0  0  0
  -24.8780  -32.2845   26.4603 H   0  0  0  0  0  0
  -25.8038  -30.9028   27.0183 H   0  0  0  0  0  0
  -26.3010  -29.6672   24.1214 H   0  0  0  0  0  0
  -27.4128  -29.7291   25.4690 H   0  0  0  0  0  0
  -27.8859  -30.4254   23.9398 H   0  0  0  0  0  0
  -27.2756  -33.3699   26.1846 H   0  0  0  0  0  0
  -28.3943  -32.6743   25.0231 H   0  0  0  0  0  0
  -28.0704  -31.8511   26.5391 H   0  0  0  0  0  0
  -28.2569  -38.0071   24.7522 H   0  0  0  0  0  0
  -28.1083  -36.2585   24.6300 H   0  0  0  0  0  0
  -27.2266  -37.1420   25.8859 H   0  0  0  0  0  0
  -20.9491  -29.8660   21.6733 H   0  0  0  0  0  0
  -26.0166  -38.2802   24.1433 H   0  0  0  0  0  0
  -31.3980  -18.0314   20.6136 H   0  0  0  0  0  0
  -27.2853  -18.5046   20.1907 H   0  0  0  0  0  0
  -28.6496  -20.6196   18.0867 H   0  0  0  0  0  0
  -29.9762  -21.7425   18.2286 H   0  0  0  0  0  0
  -28.3574  -22.3476   17.9063 H   0  0  0  0  0  0
  -26.8126  -20.5849   19.6603 H   0  0  0  0  0  0
  -26.5573  -22.2825   19.8967 H   0  0  0  0  0  0
  -26.9623  -21.2734   21.2746 H   0  0  0  0  0  0
  -29.2731  -24.3228   22.3920 H   0  0  0  0  0  0
  -29.7069  -22.6257   22.3888 H   0  0  0  0  0  0
  -28.0108  -23.1058   22.4197 H   0  0  0  0  0  0
  -30.6808  -24.7021   20.4089 H   0  0  0  0  0  0
  -30.4216  -23.8578   18.9136 H   0  0  0  0  0  0
  -31.1367  -23.0093   20.2841 H   0  0  0  0  0  0
  -29.3664  -20.4978   21.7357 H   0  0  0  0  0  0
  -30.5855  -20.6199   20.5357 H   0  0  0  0  0  0
  -27.0367  -24.4618   20.5298 H   0  0  0  0  0  0
  -27.7654  -24.5218   18.9615 H   0  0  0  0  0  0
  1 25  1  0  0  0
  1 30  2  0  0  0
  1 73  1  0  0  0
  2  3  1  0  0  0
  2 25  1  0  0  0
  2 84  1  0  0  0
  2 85  1  0  0  0
  3  4  1  0  0  0
  3 86  1  0  0  0
  3 87  1  0  0  0
  4  5  1  0  0  0
  4 88  1  0  0  0
  4 89  1  0  0  0
  5  6  1  0  0  0
  5 26  1  0  0  0
  5 90  1  0  0  0
  6 25  1  0  0  0
  6 91  1  0  0  0
  6 92  1  0  0  0
  7  8  2  0  0  0
  7 26  1  0  0  0
  7 29  1  0  0  0
  8  9  1  0  0  0
  8 22  1  0  0  0
  9 10  1  0  0  0
  9 27  2  0  0  0
 10 11  2  0  0  0
 10 15  1  0  0  0
 11 12  1  0  0  0
 11 93  1  0  0  0
 12 13  2  0  0  0
 12 94  1  0  0  0
 13 14  1  0  0  0
 13 31  1  0  0  0
 14 15  2  0  0  0
 14 95  1  0  0  0
 15 96  1  0  0  0
 16 17  2  0  0  0
 16 21  1  0  0  0
 16 31  1  0  0  0
 17 18  1  0  0  0
 17 97  1  0  0  0
 18 19  2  0  0  0
 18 98  1  0  0  0
 19 20  1  0  0  0
 19 24  1  0  0  0
 20 21  2  0  0  0
 20 99  1  0  0  0
 21 23  1  0  0  0
 22 28  1  0  0  0
 22 32  2  0  0  0
 26 27  1  0  0  0
 28100  1  0  0  0
 28101  1  0  0  0
 29102  1  0  0  0
 29103  1  0  0  0
 33 34  1  0  0  0
 33 66  1  0  0  0
 33 70  2  0  0  0
 34 36  1  0  0  0
 34 59  1  0  0  0
 34104  1  0  0  0
 35 44  2  0  0  0
 35 45  1  0  0  0
 35 68  1  0  0  0
 36 56  1  0  0  0
 36105  1  0  0  0
 37 39  1  0  0  0
 37 47  1  0  0  0
 37 66  1  0  0  0
 37106  1  0  0  0
 38 43  2  0  0  0
 38 46  1  0  0  0
 38 47  1  0  0  0
 39 64  1  0  0  0
 39 67  2  0  0  0
 40 52  1  0  0  0
 40 53  2  0  0  0
 40 58  1  0  0  0
 41107  1  0  0  0
 41108  1  0  0  0
 41109  1  0  0  0
 41 48  1  0  0  0
 42 43  1  0  0  0
 42 66  1  0  0  0
 42110  1  0  0  0
 42111  1  0  0  0
 43 44  1  0  0  0
 44112  1  0  0  0
 45 46  2  0  0  0
 45113  1  0  0  0
 46114  1  0  0  0
 47115  1  0  0  0
 47116  1  0  0  0
 48 56  1  0  0  0
 48 65  1  0  0  0
 48117  1  0  0  0
 49 50  1  0  0  0
 49 53  1  0  0  0
 49 64  1  0  0  0
 49118  1  0  0  0
 50 51  1  0  0  0
 50119  1  0  0  0
 50120  1  0  0  0
 51 52  1  0  0  0
 51121  1  0  0  0
 51122  1  0  0  0
 52123  1  0  0  0
 52124  1  0  0  0
 53 54  1  0  0  0
 54 55  2  0  0  0
 54125  1  0  0  0
 55 57  1  0  0  0
 55126  1  0  0  0
 56 69  2  0  0  0
 57 58  2  0  0  0
 57127  1  0  0  0
 58128  1  0  0  0
 59 60  1  0  0  0
 59 61  1  0  0  0
 59 62  1  0  0  0
 60129  1  0  0  0
 60130  1  0  0  0
 60131  1  0  0  0
 61132  1  0  0  0
 61133  1  0  0  0
 61134  1  0  0  0
 62135  1  0  0  0
 62136  1  0  0  0
 62137  1  0  0  0
 63 65  1  0  0  0
 63138  1  0  0  0
 63139  1  0  0  0
 63140  1  0  0  0
 64141  1  0  0  0
 65142  1  0  0  0
 68 79  1  0  0  0
 71 73  2  0  0  0
 71 83  1  0  0  0
 71143  1  0  0  0
 72 82  2  0  0  0
 72 83  1  0  0  0
 72144  1  0  0  0
 73 82  1  0  0  0
 74145  1  0  0  0
 74146  1  0  0  0
 74147  1  0  0  0
 74 80  1  0  0  0
 75 80  1  0  0  0
 75148  1  0  0  0
 75149  1  0  0  0
 75150  1  0  0  0
 76151  1  0  0  0
 76152  1  0  0  0
 76153  1  0  0  0
 76 81  1  0  0  0
 77 81  1  0  0  0
 77154  1  0  0  0
 77155  1  0  0  0
 77156  1  0  0  0
 78 80  1  0  0  0
 78 83  1  0  0  0
 78157  1  0  0  0
 78158  1  0  0  0
 79 81  1  0  0  0
 79159  1  0  0  0
 79160  1  0  0  0
 80 81  1  0  0  0
M  ISO  4   1 100  68 101  73 100  79 101
M  END
> <chiral flag>
0

> <version>
0

> <s_m_source_file>
/data/baiqing/PycharmProjects/Reinvent-master-3.2/result/LINK_invent/BTK/process_docking_weight1_custom_sum_contain_oxygen_bond_distance_aromatic_linkinvent_7_9_3/rearranged_h_0072.sdf

> <i_m_source_file_index>
72

> <r_mmod_Potential_Energy-OPLS-2005>
662.536071777344

> <r_mmod_Stretch_Energy-OPLS-2005>
284.080718994141

> <r_mmod_Bend_Energy-OPLS-2005>
277.594268798828

> <r_mmod_Torsional_Energy-OPLS-2005>
238.597534179688

> <r_mmod_Improper_Torsional_Energy-OPLS-2005>
5.40083074569702

> <r_mmod_Van_der_Waal_Energy-OPLS-2005>
109.573822021484

> <r_mmod_Electrostatic_Energy-OPLS-2005>
-268.128692626953

> <r_mmod_Solvation_Energy-OPLS-2005>
-182.579040527344

> <b_mmod_Minimization_Converged-OPLS-2005>
0

> <r_mmod_RMS_Derivative-OPLS-2005>
3.38561987876892

$$$$
73
                    3D
 Structure written by MMmdl.
166174  0  0  1  0            999 V2000
  -30.5030  -15.0037   20.4317 C   0  0  0  0  0  0
  -30.4447  -12.6285   19.5183 C   0  0  0  0  0  0
  -29.5349  -12.5439   18.2710 C   0  0  0  0  0  0
  -28.0666  -12.3192   18.6820 C   0  0  0  0  0  0
  -27.6304  -13.2537   19.8417 C   0  0  2  0  0  0
  -28.6635  -13.2964   20.9862 C   0  0  0  0  0  0
  -25.2450  -13.8207   20.5699 C   0  0  0  0  0  0
  -24.1778  -13.0433   20.9230 C   0  0  0  0  0  0
  -24.6411  -11.6925   20.8728 C   0  0  0  0  0  0
  -23.9107  -10.4301   21.0386 C   0  0  0  0  0  0
  -24.3658   -9.4219   21.9171 C   0  0  0  0  0  0
  -23.6317   -8.2263   22.0735 C   0  0  0  0  0  0
  -22.4289   -8.0306   21.3537 C   0  0  0  0  0  0
  -21.9942   -9.0284   20.4626 C   0  0  0  0  0  0
  -22.7279  -10.2156   20.3033 C   0  0  0  0  0  0
  -21.6861   -6.0760   22.5280 C   0  0  0  0  0  0
  -21.4037   -6.5655   23.8228 C   0  0  0  0  0  0
  -21.3644   -5.6783   24.9165 C   0  0  0  0  0  0
  -21.6046   -4.3044   24.7199 C   0  0  0  0  0  0
  -21.8823   -3.8163   23.4312 C   0  0  0  0  0  0
  -21.9195   -4.6994   22.3383 C   0  0  0  0  0  0
  -22.7807  -13.5214   21.1866 C   0  0  0  0  0  0
  -22.1660   -4.2196   21.0956 F   0  0  0  0  0  0
  -21.5608   -3.4519   25.7702 F   0  0  0  0  0  0
  -29.9336  -13.7283   20.3932 N   0  0  0  0  0  0
  -26.2879  -12.9463   20.3234 N   0  0  0  0  0  0
  -25.9340  -11.6580   20.5716 N   0  0  0  0  0  0
  -22.0440  -12.8222   22.0426 N   0  0  0  0  0  0
  -25.4090  -15.1939   20.4107 N   0  0  0  0  0  0
  -31.7039  -15.0757   20.1386 O   0  0  0  0  0  0
  -21.6632   -6.8911   21.4246 O   0  0  0  0  0  0
  -22.3503  -14.5522   20.6697 O   0  0  0  0  0  0
  -24.6485  -31.8378   23.1857 C   0  0  0  0  0  0
  -25.9255  -32.4651   23.8244 C   0  0  1  0  0  0
  -27.2085  -27.0726   20.1650 C   0  0  0  0  0  0
  -25.5991  -33.8463   24.2165 N   0  0  0  0  0  0
  -23.4545  -30.4584   21.5325 C   0  0  2  0  0  0
  -24.9049  -28.8770   20.1116 C   0  0  0  0  0  0
  -22.7585  -29.4517   22.4834 C   0  0  0  0  0  0
  -18.0302  -28.1415   22.8467 C   0  0  0  0  0  0
  -24.1492  -36.7232   23.2643 C   0  0  0  0  0  0
  -26.0154  -30.6925   21.3953 C   0  0  0  0  0  0
  -26.0861  -29.2976   20.7373 C   0  0  0  0  0  0
  -27.2395  -28.4140   20.7430 C   0  0  0  0  0  0
  -26.0044  -26.7753   19.4891 C   0  0  0  0  0  0
  -24.8826  -27.6328   19.4690 C   0  0  0  0  0  0
  -23.6849  -29.7891   20.1524 C   0  0  0  0  0  0
  -25.4130  -36.2992   24.0299 C   0  0  1  0  0  0
  -20.5914  -28.3739   23.1231 C   0  0  2  0  0  0
  -20.6787  -26.9444   22.5401 C   0  0  0  0  0  0
  -19.5762  -26.6388   21.5210 C   0  0  0  0  0  0
  -18.1945  -26.7949   22.1617 C   0  0  0  0  0  0
  -19.1560  -28.8899   23.2835 C   0  0  0  0  0  0
  -18.9477  -30.1488   23.8865 C   0  0  0  0  0  0
  -17.6471  -30.6609   24.0562 C   0  0  0  0  0  0
  -25.9085  -34.9377   23.5035 C   0  0  0  0  0  0
  -16.5367  -29.9096   23.6349 C   0  0  0  0  0  0
  -16.7287  -28.6518   23.0366 C   0  0  0  0  0  0
  -26.4560  -31.6547   25.0707 C   0  0  0  0  0  0
  -25.3728  -31.3776   26.1398 C   0  0  0  0  0  0
  -27.0433  -30.2922   24.6348 C   0  0  0  0  0  0
  -27.6061  -32.4333   25.7512 C   0  0  0  0  0  0
  -27.5570  -37.1769   24.8464 C   0  0  0  0  0  0
  -21.4275  -29.3037   22.3585 N   0  0  0  0  0  0
  -26.4283  -37.3711   23.9401 N   0  0  0  0  0  0
  -24.7263  -31.0186   22.0917 N   0  0  0  0  0  0
  -23.4210  -28.8063   23.3001 O   0  0  0  0  0  0
  -28.2361  -26.0406   20.2005 O   0  0  0  0  0  0
  -26.5665  -34.8897   22.4603 O   0  0  0  0  0  0
  -23.5599  -32.1286   23.7051 O   0  0  0  0  0  0
  -30.3175  -20.9095   19.3926 C   0  0  0  0  0  0
  -30.5724  -22.2212   18.9342 C   0  0  0  0  0  0
  -29.2602  -20.6629   20.2660 C   0  0  0  0  0  0
  -28.8055  -23.1342   20.1538 C   0  0  0  0  0  0
  -32.4500  -21.2315   17.4843 C   0  0  0  0  0  0
  -32.7322  -23.4650   18.5469 C   0  0  0  0  0  0
  -31.1006  -23.1309   16.6428 C   0  0  0  0  0  0
  -27.5705  -18.7192   20.1868 C   0  0  0  0  0  0
  -28.9047  -19.0749   22.2680 C   0  0  0  0  0  0
  -27.8865  -24.5095   20.4453 C   0  0  0  0  0  0
  -29.9776  -17.7470   20.3272 C   0  0  0  0  0  0
  -31.6985  -22.5109   17.9197 C   0  0  0  0  0  0
  -28.9634  -19.0768   20.7316 C   0  0  0  0  0  0
  -29.8366  -23.2930   19.3280 N   0  0  0  0  0  0
  -28.5100  -21.8303   20.6150 N   0  0  0  0  0  0
  -29.7088  -16.1866   20.5937 N   0  0  0  0  0  0
  -31.4787  -12.7936   19.2095 H   0  0  0  0  0  0
  -30.4475  -11.6816   20.0587 H   0  0  0  0  0  0
  -29.8695  -11.7440   17.6090 H   0  0  0  0  0  0
  -29.6187  -13.4681   17.6961 H   0  0  0  0  0  0
  -27.9638  -11.2796   18.9912 H   0  0  0  0  0  0
  -27.4099  -12.4431   17.8191 H   0  0  0  0  0  0
  -27.5917  -14.2545   19.4102 H   0  0  0  0  0  0
  -28.7608  -12.3254   21.4731 H   0  0  0  0  0  0
  -28.3470  -13.9981   21.7603 H   0  0  0  0  0  0
  -25.2805   -9.5689   22.4736 H   0  0  0  0  0  0
  -24.0017   -7.4647   22.7466 H   0  0  0  0  0  0
  -21.0860   -8.8825   19.8934 H   0  0  0  0  0  0
  -22.3744  -10.9706   19.6138 H   0  0  0  0  0  0
  -21.2060   -7.6166   23.9758 H   0  0  0  0  0  0
  -21.1443   -6.0487   25.9077 H   0  0  0  0  0  0
  -22.0612   -2.7633   23.2777 H   0  0  0  0  0  0
  -22.4037  -11.9916   22.4871 H   0  0  0  0  0  0
  -21.1048  -13.1251   22.2577 H   0  0  0  0  0  0
  -24.6315  -15.8377   20.5179 H   0  0  0  0  0  0
  -26.2350  -15.6344   20.0297 H   0  0  0  0  0  0
  -26.7305  -32.5235   23.0960 H   0  0  0  0  0  0
  -25.0114  -33.9563   25.0303 H   0  0  0  0  0  0
  -22.7584  -31.2856   21.3772 H   0  0  0  0  0  0
  -23.3750  -35.9563   23.3283 H   0  0  0  0  0  0
  -24.3586  -36.8897   22.2063 H   0  0  0  0  0  0
  -23.7278  -37.6429   23.6709 H   0  0  0  0  0  0
  -26.1810  -31.4468   20.6246 H   0  0  0  0  0  0
  -26.8812  -30.7422   22.0440 H   0  0  0  0  0  0
  -28.1390  -28.7335   21.2520 H   0  0  0  0  0  0
  -25.8970  -25.8373   18.9669 H   0  0  0  0  0  0
  -23.9859  -27.3110   18.9570 H   0  0  0  0  0  0
  -23.8285  -30.5654   19.3998 H   0  0  0  0  0  0
  -22.7958  -29.2378   19.8379 H   0  0  0  0  0  0
  -25.1326  -36.1779   25.0785 H   0  0  0  0  0  0
  -21.0006  -28.3334   24.1353 H   0  0  0  0  0  0
  -20.5711  -26.2335   23.3616 H   0  0  0  0  0  0
  -21.6657  -26.7458   22.1190 H   0  0  0  0  0  0
  -19.6938  -25.6286   21.1270 H   0  0  0  0  0  0
  -19.6733  -27.3173   20.6721 H   0  0  0  0  0  0
  -17.4215  -26.6691   21.4023 H   0  0  0  0  0  0
  -18.0362  -26.0115   22.9034 H   0  0  0  0  0  0
  -19.7951  -30.7310   24.2245 H   0  0  0  0  0  0
  -17.5024  -31.6301   24.5151 H   0  0  0  0  0  0
  -15.5366  -30.2984   23.7710 H   0  0  0  0  0  0
  -15.8681  -28.0829   22.7106 H   0  0  0  0  0  0
  -24.5896  -30.7137   25.7729 H   0  0  0  0  0  0
  -24.8941  -32.2973   26.4748 H   0  0  0  0  0  0
  -25.7995  -30.8995   27.0225 H   0  0  0  0  0  0
  -26.3068  -29.6631   24.1333 H   0  0  0  0  0  0
  -27.3990  -29.7246   25.4961 H   0  0  0  0  0  0
  -27.9000  -30.4131   23.9720 H   0  0  0  0  0  0
  -27.2626  -33.3657   26.2015 H   0  0  0  0  0  0
  -28.3926  -32.6874   25.0387 H   0  0  0  0  0  0
  -28.0673  -31.8518   26.5511 H   0  0  0  0  0  0
  -28.2556  -38.0085   24.7491 H   0  0  0  0  0  0
  -28.1092  -36.2612   24.6299 H   0  0  0  0  0  0
  -27.2285  -37.1418   25.8866 H   0  0  0  0  0  0
  -20.9497  -29.8718   21.6736 H   0  0  0  0  0  0
  -26.0128  -38.2760   24.1418 H   0  0  0  0  0  0
  -30.9058  -20.0670   19.0640 H   0  0  0  0  0  0
  -32.9307  -20.7365   18.3287 H   0  0  0  0  0  0
  -33.2299  -21.4560   16.7568 H   0  0  0  0  0  0
  -31.7790  -20.5088   17.0182 H   0  0  0  0  0  0
  -33.1616  -23.0302   19.4492 H   0  0  0  0  0  0
  -32.2836  -24.4180   18.8251 H   0  0  0  0  0  0
  -33.5496  -23.6822   17.8587 H   0  0  0  0  0  0
  -30.3444  -22.4725   16.2137 H   0  0  0  0  0  0
  -31.8624  -23.3021   15.8823 H   0  0  0  0  0  0
  -30.6202  -24.0885   16.8431 H   0  0  0  0  0  0
  -26.8198  -19.4363   20.5230 H   0  0  0  0  0  0
  -27.2486  -17.7308   20.5124 H   0  0  0  0  0  0
  -27.5640  -18.7265   19.0979 H   0  0  0  0  0  0
  -28.1736  -19.7962   22.6338 H   0  0  0  0  0  0
  -29.8725  -19.3469   22.6898 H   0  0  0  0  0  0
  -28.6314  -18.0956   22.6598 H   0  0  0  0  0  0
  -27.6336  -24.4555   21.5044 H   0  0  0  0  0  0
  -26.9483  -24.2916   19.9423 H   0  0  0  0  0  0
  -30.9578  -17.9597   20.7564 H   0  0  0  0  0  0
  -30.1346  -17.8072   19.2503 H   0  0  0  0  0  0
  -28.7501  -15.9771   20.8269 H   0  0  0  0  0  0
  1 25  1  0  0  0
  1 30  2  0  0  0
  1 86  1  0  0  0
  2  3  1  0  0  0
  2 25  1  0  0  0
  2 87  1  0  0  0
  2 88  1  0  0  0
  3  4  1  0  0  0
  3 89  1  0  0  0
  3 90  1  0  0  0
  4  5  1  0  0  0
  4 91  1  0  0  0
  4 92  1  0  0  0
  5  6  1  0  0  0
  5 26  1  0  0  0
  5 93  1  0  0  0
  6 25  1  0  0  0
  6 94  1  0  0  0
  6 95  1  0  0  0
  7  8  2  0  0  0
  7 26  1  0  0  0
  7 29  1  0  0  0
  8  9  1  0  0  0
  8 22  1  0  0  0
  9 10  1  0  0  0
  9 27  2  0  0  0
 10 11  2  0  0  0
 10 15  1  0  0  0
 11 12  1  0  0  0
 11 96  1  0  0  0
 12 13  2  0  0  0
 12 97  1  0  0  0
 13 14  1  0  0  0
 13 31  1  0  0  0
 14 15  2  0  0  0
 14 98  1  0  0  0
 15 99  1  0  0  0
 16 17  2  0  0  0
 16 21  1  0  0  0
 16 31  1  0  0  0
 17 18  1  0  0  0
 17100  1  0  0  0
 18 19  2  0  0  0
 18101  1  0  0  0
 19 20  1  0  0  0
 19 24  1  0  0  0
 20 21  2  0  0  0
 20102  1  0  0  0
 21 23  1  0  0  0
 22 28  1  0  0  0
 22 32  2  0  0  0
 26 27  1  0  0  0
 28103  1  0  0  0
 28104  1  0  0  0
 29105  1  0  0  0
 29106  1  0  0  0
 33 34  1  0  0  0
 33 66  1  0  0  0
 33 70  2  0  0  0
 34 36  1  0  0  0
 34 59  1  0  0  0
 34107  1  0  0  0
 35 44  2  0  0  0
 35 45  1  0  0  0
 35 68  1  0  0  0
 36 56  1  0  0  0
 36108  1  0  0  0
 37 39  1  0  0  0
 37 47  1  0  0  0
 37 66  1  0  0  0
 37109  1  0  0  0
 38 43  2  0  0  0
 38 46  1  0  0  0
 38 47  1  0  0  0
 39 64  1  0  0  0
 39 67  2  0  0  0
 40 52  1  0  0  0
 40 53  2  0  0  0
 40 58  1  0  0  0
 41110  1  0  0  0
 41111  1  0  0  0
 41112  1  0  0  0
 41 48  1  0  0  0
 42 43  1  0  0  0
 42 66  1  0  0  0
 42113  1  0  0  0
 42114  1  0  0  0
 43 44  1  0  0  0
 44115  1  0  0  0
 45 46  2  0  0  0
 45116  1  0  0  0
 46117  1  0  0  0
 47118  1  0  0  0
 47119  1  0  0  0
 48 56  1  0  0  0
 48 65  1  0  0  0
 48120  1  0  0  0
 49 50  1  0  0  0
 49 53  1  0  0  0
 49 64  1  0  0  0
 49121  1  0  0  0
 50 51  1  0  0  0
 50122  1  0  0  0
 50123  1  0  0  0
 51 52  1  0  0  0
 51124  1  0  0  0
 51125  1  0  0  0
 52126  1  0  0  0
 52127  1  0  0  0
 53 54  1  0  0  0
 54 55  2  0  0  0
 54128  1  0  0  0
 55 57  1  0  0  0
 55129  1  0  0  0
 56 69  2  0  0  0
 57 58  2  0  0  0
 57130  1  0  0  0
 58131  1  0  0  0
 59 60  1  0  0  0
 59 61  1  0  0  0
 59 62  1  0  0  0
 60132  1  0  0  0
 60133  1  0  0  0
 60134  1  0  0  0
 61135  1  0  0  0
 61136  1  0  0  0
 61137  1  0  0  0
 62138  1  0  0  0
 62139  1  0  0  0
 62140  1  0  0  0
 63 65  1  0  0  0
 63141  1  0  0  0
 63142  1  0  0  0
 63143  1  0  0  0
 64144  1  0  0  0
 65145  1  0  0  0
 68 80  1  0  0  0
 71 72  2  0  0  0
 71 73  1  0  0  0
 71146  1  0  0  0
 72 82  1  0  0  0
 72 84  1  0  0  0
 73 83  1  0  0  0
 73 85  2  0  0  0
 74 80  1  0  0  0
 74 84  2  0  0  0
 74 85  1  0  0  0
 75147  1  0  0  0
 75148  1  0  0  0
 75149  1  0  0  0
 75 82  1  0  0  0
 76 82  1  0  0  0
 76150  1  0  0  0
 76151  1  0  0  0
 76152  1  0  0  0
 77 82  1  0  0  0
 77153  1  0  0  0
 77154  1  0  0  0
 77155  1  0  0  0
 78156  1  0  0  0
 78157  1  0  0  0
 78158  1  0  0  0
 78 83  1  0  0  0
 79 83  1  0  0  0
 79159  1  0  0  0
 79160  1  0  0  0
 79161  1  0  0  0
 80162  1  0  0  0
 80163  1  0  0  0
 81 83  1  0  0  0
 81 86  1  0  0  0
 81164  1  0  0  0
 81165  1  0  0  0
 86166  1  0  0  0
M  ISO  4   1 100  68 101  80 101  86 100
M  END
> <chiral flag>
0

> <version>
0

> <s_m_source_file>
/data/baiqing/PycharmProjects/Reinvent-master-3.2/result/LINK_invent/BTK/process_docking_weight1_custom_sum_contain_oxygen_bond_distance_aromatic_linkinvent_7_9_3/rearranged_h_0072.sdf

> <i_m_source_file_index>
73

> <r_mmod_Potential_Energy-OPLS-2005>
130.199600219727

> <r_mmod_Stretch_Energy-OPLS-2005>
324.372711181641

> <r_mmod_Bend_Energy-OPLS-2005>
287.690368652344

> <r_mmod_Torsional_Energy-OPLS-2005>
203.040878295898

> <r_mmod_Improper_Torsional_Energy-OPLS-2005>
4.9888014793396

> <r_mmod_Van_der_Waal_Energy-OPLS-2005>
138.819412231445

> <r_mmod_Electrostatic_Energy-OPLS-2005>
-843.98828125

> <r_mmod_Solvation_Energy-OPLS-2005>
-228.146026611328

> <b_mmod_Minimization_Converged-OPLS-2005>
0

> <r_mmod_RMS_Derivative-OPLS-2005>
3.16908669471741

$$$$
74
                    3D
 Structure written by MMmdl.
164172  0  0  1  0            999 V2000
  -30.7035  -14.4860   20.4857 C   0  0  0  0  0  0
  -30.4157  -12.2812   19.4362 C   0  0  0  0  0  0
  -29.4902  -12.4391   18.2117 C   0  0  0  0  0  0
  -28.0101  -12.3232   18.6291 C   0  0  0  0  0  0
  -27.6502  -13.2045   19.8559 C   0  0  2  0  0  0
  -28.6975  -13.0459   20.9823 C   0  0  0  0  0  0
  -25.2550  -13.8143   20.5673 C   0  0  0  0  0  0
  -24.1811  -13.0436   20.9200 C   0  0  0  0  0  0
  -24.6367  -11.6897   20.8761 C   0  0  0  0  0  0
  -23.9043  -10.4286   21.0431 C   0  0  0  0  0  0
  -24.3603   -9.4186   21.9196 C   0  0  0  0  0  0
  -23.6291   -8.2211   22.0750 C   0  0  0  0  0  0
  -22.4264   -8.0263   21.3548 C   0  0  0  0  0  0
  -21.9907   -9.0228   20.4636 C   0  0  0  0  0  0
  -22.7232  -10.2114   20.3068 C   0  0  0  0  0  0
  -21.6824   -6.0730   22.5289 C   0  0  0  0  0  0
  -21.3989   -6.5636   23.8224 C   0  0  0  0  0  0
  -21.3668   -5.6792   24.9186 C   0  0  0  0  0  0
  -21.6055   -4.3056   24.7237 C   0  0  0  0  0  0
  -21.8811   -3.8150   23.4355 C   0  0  0  0  0  0
  -21.9171   -4.6962   22.3408 C   0  0  0  0  0  0
  -22.7831  -13.5226   21.1873 C   0  0  0  0  0  0
  -22.1644   -4.2152   21.0984 F   0  0  0  0  0  0
  -21.5646   -3.4543   25.7750 F   0  0  0  0  0  0
  -30.0248  -13.3101   20.4085 N   0  0  0  0  0  0
  -26.2970  -12.9312   20.3314 N   0  0  0  0  0  0
  -25.9294  -11.6474   20.5792 N   0  0  0  0  0  0
  -22.0467  -12.8223   22.0417 N   0  0  0  0  0  0
  -25.4316  -15.1858   20.4052 N   0  0  0  0  0  0
  -31.9013  -14.5896   20.2086 O   0  0  0  0  0  0
  -21.6622   -6.8872   21.4252 O   0  0  0  0  0  0
  -22.3503  -14.5519   20.6700 O   0  0  0  0  0  0
  -24.6135  -31.8665   23.2097 C   0  0  0  0  0  0
  -25.9036  -32.4831   23.8368 C   0  0  1  0  0  0
  -27.2351  -27.4484   20.0806 C   0  0  0  0  0  0
  -25.5889  -33.8634   24.2304 N   0  0  0  0  0  0
  -23.3975  -30.4922   21.5490 C   0  0  2  0  0  0
  -24.8428  -28.9593   20.1129 C   0  0  0  0  0  0
  -22.7398  -29.4652   22.4983 C   0  0  0  0  0  0
  -18.0229  -28.1353   22.8465 C   0  0  0  0  0  0
  -24.1487  -36.7333   23.2635 C   0  0  0  0  0  0
  -25.9257  -30.8394   21.3572 C   0  0  0  0  0  0
  -26.0015  -29.4725   20.7065 C   0  0  0  0  0  0
  -27.1975  -28.7259   20.6829 C   0  0  0  0  0  0
  -26.0493  -26.9390   19.4976 C   0  0  0  0  0  0
  -24.8600  -27.6923   19.5059 C   0  0  0  0  0  0
  -23.6086  -29.8291   20.1608 C   0  0  0  0  0  0
  -25.4109  -36.3122   24.0324 C   0  0  1  0  0  0
  -20.5834  -28.3598   23.1287 C   0  0  2  0  0  0
  -20.6716  -26.9363   22.5303 C   0  0  0  0  0  0
  -19.5679  -26.6371   21.5125 C   0  0  0  0  0  0
  -18.1878  -26.7915   22.1574 C   0  0  0  0  0  0
  -19.1490  -28.8783   23.2894 C   0  0  0  0  0  0
  -18.9430  -30.1398   23.8912 C   0  0  0  0  0  0
  -17.6434  -30.6558   24.0580 C   0  0  0  0  0  0
  -25.9025  -34.9490   23.5107 C   0  0  0  0  0  0
  -16.5309  -29.9067   23.6331 C   0  0  0  0  0  0
  -16.7222  -28.6520   23.0291 C   0  0  0  0  0  0
  -26.4481  -31.6623   25.0696 C   0  0  0  0  0  0
  -25.3743  -31.3692   26.1426 C   0  0  0  0  0  0
  -27.0280  -30.3061   24.6053 C   0  0  0  0  0  0
  -27.6071  -32.4314   25.7479 C   0  0  0  0  0  0
  -27.5576  -37.1827   24.8462 C   0  0  0  0  0  0
  -21.4130  -29.3002   22.3754 N   0  0  0  0  0  0
  -26.4297  -37.3807   23.9403 N   0  0  0  0  0  0
  -24.6639  -31.0790   22.0973 N   0  0  0  0  0  0
  -23.4221  -28.8215   23.3007 O   0  0  0  0  0  0
  -28.4397  -26.7755   20.0824 O   0  0  0  0  0  0
  -26.5596  -34.8934   22.4671 O   0  0  0  0  0  0
  -23.5330  -32.1401   23.7476 O   0  0  0  0  0  0
  -26.0581  -21.0781   22.8374 C   0  0  0  0  0  0
  -26.4291  -22.0614   21.9047 C   0  0  0  0  0  0
  -26.9258  -19.9973   23.0983 C   0  0  0  0  0  0
  -27.6665  -21.9459   21.2568 C   0  0  0  0  0  0
  -28.1665  -19.9670   22.4071 C   0  0  0  0  0  0
  -29.7544  -16.1853   19.1221 C   0  0  0  0  0  0
  -28.0845  -22.9619   20.2013 C   0  0  0  0  0  0
  -29.1953  -18.8435   22.5601 C   0  0  0  0  0  0
  -28.0518  -24.4241   20.6973 C   0  0  0  0  0  0
  -28.9848  -17.6916   21.5470 C   0  0  0  0  0  0
  -30.1407  -16.6532   21.4793 C   0  0  0  0  0  0
  -28.5194  -25.4247   19.6243 C   0  0  0  0  0  0
  -26.4743  -18.9498   24.1193 C   0  0  0  0  0  0
  -28.5190  -20.9270   21.5106 N   0  0  0  0  0  0
  -29.9251  -15.5986   20.4653 N   0  0  0  0  0  0
  -25.1523  -18.7947   24.0474 F   0  0  0  0  0  0
  -27.0111  -17.7445   23.9450 F   0  0  0  0  0  0
  -26.7811  -19.3804   25.3428 F   0  0  0  0  0  0
  -31.4603  -12.3661   19.1329 H   0  0  0  0  0  0
  -30.3107  -11.2883   19.8786 H   0  0  0  0  0  0
  -29.7218  -11.6761   17.4672 H   0  0  0  0  0  0
  -29.6671  -13.3966   17.7248 H   0  0  0  0  0  0
  -27.8219  -11.2742   18.8675 H   0  0  0  0  0  0
  -27.3594  -12.5619   17.7867 H   0  0  0  0  0  0
  -27.6721  -14.2390   19.5137 H   0  0  0  0  0  0
  -28.6636  -12.0350   21.3898 H   0  0  0  0  0  0
  -28.4819  -13.7220   21.8118 H   0  0  0  0  0  0
  -25.2739   -9.5640   22.4789 H   0  0  0  0  0  0
  -23.9982   -7.4575   22.7462 H   0  0  0  0  0  0
  -21.0837   -8.8756   19.8929 H   0  0  0  0  0  0
  -22.3704  -10.9658   19.6181 H   0  0  0  0  0  0
  -21.1971   -7.6143   23.9731 H   0  0  0  0  0  0
  -21.1508   -6.0522   25.9090 H   0  0  0  0  0  0
  -22.0584   -2.7617   23.2855 H   0  0  0  0  0  0
  -22.4060  -11.9884   22.4829 H   0  0  0  0  0  0
  -21.1079  -13.1252   22.2611 H   0  0  0  0  0  0
  -24.6768  -15.8540   20.5177 H   0  0  0  0  0  0
  -26.3020  -15.6142   20.1197 H   0  0  0  0  0  0
  -26.7103  -32.5576   23.1134 H   0  0  0  0  0  0
  -25.0039  -33.9792   25.0451 H   0  0  0  0  0  0
  -22.6820  -31.3055   21.4093 H   0  0  0  0  0  0
  -23.3740  -35.9678   23.3322 H   0  0  0  0  0  0
  -24.3570  -36.8931   22.2044 H   0  0  0  0  0  0
  -23.7261  -37.6550   23.6643 H   0  0  0  0  0  0
  -26.0273  -31.6060   20.5857 H   0  0  0  0  0  0
  -26.8187  -30.8953   21.9712 H   0  0  0  0  0  0
  -28.1010  -29.1262   21.1207 H   0  0  0  0  0  0
  -26.0218  -25.9717   19.0176 H   0  0  0  0  0  0
  -23.9675  -27.3011   19.0366 H   0  0  0  0  0  0
  -23.7301  -30.6067   19.4057 H   0  0  0  0  0  0
  -22.7302  -29.2584   19.8534 H   0  0  0  0  0  0
  -25.1297  -36.1965   25.0819 H   0  0  0  0  0  0
  -20.9954  -28.3033   24.1401 H   0  0  0  0  0  0
  -20.5650  -26.2229   23.3474 H   0  0  0  0  0  0
  -21.6570  -26.7367   22.1048 H   0  0  0  0  0  0
  -19.6786  -25.6247   21.1226 H   0  0  0  0  0  0
  -19.6593  -27.3150   20.6619 H   0  0  0  0  0  0
  -17.4163  -26.6685   21.3957 H   0  0  0  0  0  0
  -18.0303  -26.0030   22.8941 H   0  0  0  0  0  0
  -19.7944  -30.7175   24.2255 H   0  0  0  0  0  0
  -17.4965  -31.6243   24.5188 H   0  0  0  0  0  0
  -15.5310  -30.2964   23.7679 H   0  0  0  0  0  0
  -15.8584  -28.0931   22.6918 H   0  0  0  0  0  0
  -24.5938  -30.7022   25.7751 H   0  0  0  0  0  0
  -24.8901  -32.2811   26.4911 H   0  0  0  0  0  0
  -25.8088  -30.8839   27.0164 H   0  0  0  0  0  0
  -26.2767  -29.6848   24.1140 H   0  0  0  0  0  0
  -27.4075  -29.7294   25.4504 H   0  0  0  0  0  0
  -27.8626  -30.4396   23.9161 H   0  0  0  0  0  0
  -27.2717  -33.3599   26.2109 H   0  0  0  0  0  0
  -28.3884  -32.6873   25.0317 H   0  0  0  0  0  0
  -28.0737  -31.8383   26.5351 H   0  0  0  0  0  0
  -28.2606  -38.0113   24.7488 H   0  0  0  0  0  0
  -28.1049  -36.2632   24.6316 H   0  0  0  0  0  0
  -27.2272  -37.1522   25.8862 H   0  0  0  0  0  0
  -20.9266  -29.8792   21.7059 H   0  0  0  0  0  0
  -26.0176  -38.2876   24.1434 H   0  0  0  0  0  0
  -25.1007  -21.1544   23.3332 H   0  0  0  0  0  0
  -25.7586  -22.8796   21.6814 H   0  0  0  0  0  0
  -28.7175  -16.4768   18.9534 H   0  0  0  0  0  0
  -30.0229  -15.5026   18.3156 H   0  0  0  0  0  0
  -30.3824  -17.0681   18.9865 H   0  0  0  0  0  0
  -27.4182  -22.8489   19.3466 H   0  0  0  0  0  0
  -29.0852  -22.7229   19.8371 H   0  0  0  0  0  0
  -29.2248  -18.4739   23.5847 H   0  0  0  0  0  0
  -30.1804  -19.2804   22.3970 H   0  0  0  0  0  0
  -28.6843  -24.5211   21.5802 H   0  0  0  0  0  0
  -27.0430  -24.6837   21.0229 H   0  0  0  0  0  0
  -28.8621  -18.1592   20.5702 H   0  0  0  0  0  0
  -28.0459  -17.1802   21.7543 H   0  0  0  0  0  0
  -30.2660  -16.1894   22.4600 H   0  0  0  0  0  0
  -31.0831  -17.1623   21.2674 H   0  0  0  0  0  0
  -29.5680  -25.2238   19.4024 H   0  0  0  0  0  0
  -28.0004  -25.2859   18.6752 H   0  0  0  0  0  0
  1 25  1  0  0  0
  1 30  2  0  0  0
  1 85  1  0  0  0
  2  3  1  0  0  0
  2 25  1  0  0  0
  2 89  1  0  0  0
  2 90  1  0  0  0
  3  4  1  0  0  0
  3 91  1  0  0  0
  3 92  1  0  0  0
  4  5  1  0  0  0
  4 93  1  0  0  0
  4 94  1  0  0  0
  5  6  1  0  0  0
  5 26  1  0  0  0
  5 95  1  0  0  0
  6 25  1  0  0  0
  6 96  1  0  0  0
  6 97  1  0  0  0
  7  8  2  0  0  0
  7 26  1  0  0  0
  7 29  1  0  0  0
  8  9  1  0  0  0
  8 22  1  0  0  0
  9 10  1  0  0  0
  9 27  2  0  0  0
 10 11  2  0  0  0
 10 15  1  0  0  0
 11 12  1  0  0  0
 11 98  1  0  0  0
 12 13  2  0  0  0
 12 99  1  0  0  0
 13 14  1  0  0  0
 13 31  1  0  0  0
 14 15  2  0  0  0
 14100  1  0  0  0
 15101  1  0  0  0
 16 17  2  0  0  0
 16 21  1  0  0  0
 16 31  1  0  0  0
 17 18  1  0  0  0
 17102  1  0  0  0
 18 19  2  0  0  0
 18103  1  0  0  0
 19 20  1  0  0  0
 19 24  1  0  0  0
 20 21  2  0  0  0
 20104  1  0  0  0
 21 23  1  0  0  0
 22 28  1  0  0  0
 22 32  2  0  0  0
 26 27  1  0  0  0
 28105  1  0  0  0
 28106  1  0  0  0
 29107  1  0  0  0
 29108  1  0  0  0
 33 34  1  0  0  0
 33 66  1  0  0  0
 33 70  2  0  0  0
 34 36  1  0  0  0
 34 59  1  0  0  0
 34109  1  0  0  0
 35 44  2  0  0  0
 35 45  1  0  0  0
 35 68  1  0  0  0
 36 56  1  0  0  0
 36110  1  0  0  0
 37 39  1  0  0  0
 37 47  1  0  0  0
 37 66  1  0  0  0
 37111  1  0  0  0
 38 43  2  0  0  0
 38 46  1  0  0  0
 38 47  1  0  0  0
 39 64  1  0  0  0
 39 67  2  0  0  0
 40 52  1  0  0  0
 40 53  2  0  0  0
 40 58  1  0  0  0
 41112  1  0  0  0
 41113  1  0  0  0
 41114  1  0  0  0
 41 48  1  0  0  0
 42 43  1  0  0  0
 42 66  1  0  0  0
 42115  1  0  0  0
 42116  1  0  0  0
 43 44  1  0  0  0
 44117  1  0  0  0
 45 46  2  0  0  0
 45118  1  0  0  0
 46119  1  0  0  0
 47120  1  0  0  0
 47121  1  0  0  0
 48 56  1  0  0  0
 48 65  1  0  0  0
 48122  1  0  0  0
 49 50  1  0  0  0
 49 53  1  0  0  0
 49 64  1  0  0  0
 49123  1  0  0  0
 50 51  1  0  0  0
 50124  1  0  0  0
 50125  1  0  0  0
 51 52  1  0  0  0
 51126  1  0  0  0
 51127  1  0  0  0
 52128  1  0  0  0
 52129  1  0  0  0
 53 54  1  0  0  0
 54 55  2  0  0  0
 54130  1  0  0  0
 55 57  1  0  0  0
 55131  1  0  0  0
 56 69  2  0  0  0
 57 58  2  0  0  0
 57132  1  0  0  0
 58133  1  0  0  0
 59 60  1  0  0  0
 59 61  1  0  0  0
 59 62  1  0  0  0
 60134  1  0  0  0
 60135  1  0  0  0
 60136  1  0  0  0
 61137  1  0  0  0
 61138  1  0  0  0
 61139  1  0  0  0
 62140  1  0  0  0
 62141  1  0  0  0
 62142  1  0  0  0
 63 65  1  0  0  0
 63143  1  0  0  0
 63144  1  0  0  0
 63145  1  0  0  0
 64146  1  0  0  0
 65147  1  0  0  0
 68 82  1  0  0  0
 71 72  2  0  0  0
 71 73  1  0  0  0
 71148  1  0  0  0
 72 74  1  0  0  0
 72149  1  0  0  0
 73 75  2  0  0  0
 73 83  1  0  0  0
 74 77  1  0  0  0
 74 84  2  0  0  0
 75 78  1  0  0  0
 75 84  1  0  0  0
 76 85  1  0  0  0
 76150  1  0  0  0
 76151  1  0  0  0
 76152  1  0  0  0
 77 79  1  0  0  0
 77153  1  0  0  0
 77154  1  0  0  0
 78 80  1  0  0  0
 78155  1  0  0  0
 78156  1  0  0  0
 79 82  1  0  0  0
 79157  1  0  0  0
 79158  1  0  0  0
 80 81  1  0  0  0
 80159  1  0  0  0
 80160  1  0  0  0
 81 85  1  0  0  0
 81161  1  0  0  0
 81162  1  0  0  0
 82163  1  0  0  0
 82164  1  0  0  0
 83 86  1  0  0  0
 83 87  1  0  0  0
 83 88  1  0  0  0
M  ISO  4   1 100  68 101  82 101  85 100
M  END
> <chiral flag>
0

> <version>
0

> <s_m_source_file>
/data/baiqing/PycharmProjects/Reinvent-master-3.2/result/LINK_invent/BTK/process_docking_weight1_custom_sum_contain_oxygen_bond_distance_aromatic_linkinvent_7_9_3/rearranged_h_0072.sdf

> <i_m_source_file_index>
74

> <r_mmod_Potential_Energy-OPLS-2005>
-20.937385559082

> <r_mmod_Stretch_Energy-OPLS-2005>
38.682731628418

> <r_mmod_Bend_Energy-OPLS-2005>
110.831573486328

> <r_mmod_Torsional_Energy-OPLS-2005>
272.014709472656

> <r_mmod_Improper_Torsional_Energy-OPLS-2005>
15.7727737426758

> <r_mmod_Van_der_Waal_Energy-OPLS-2005>
158.61247253418

> <r_mmod_Electrostatic_Energy-OPLS-2005>
-443.663543701172

> <r_mmod_Solvation_Energy-OPLS-2005>
-194.697601318359

> <b_mmod_Minimization_Converged-OPLS-2005>
0

> <r_mmod_RMS_Derivative-OPLS-2005>
3.89024186134338

$$$$
75
                    3D
 Structure written by MMmdl.
166174  0  0  1  0            999 V2000
  -30.7487  -14.3997   20.5963 C   0  0  0  0  0  0
  -30.4045  -12.2933   19.3356 C   0  0  0  0  0  0
  -29.4583  -12.5291   18.1398 C   0  0  0  0  0  0
  -27.9826  -12.4061   18.5756 C   0  0  0  0  0  0
  -27.6608  -13.2065   19.8715 C   0  0  2  0  0  0
  -28.7235  -12.9379   20.9521 C   0  0  0  0  0  0
  -25.2652  -13.8166   20.5695 C   0  0  0  0  0  0
  -24.1830  -13.0432   20.9174 C   0  0  0  0  0  0
  -24.6365  -11.6937   20.8658 C   0  0  0  0  0  0
  -23.9006  -10.4326   21.0319 C   0  0  0  0  0  0
  -24.3562   -9.4282   21.9141 C   0  0  0  0  0  0
  -23.6252   -8.2315   22.0749 C   0  0  0  0  0  0
  -22.4260   -8.0292   21.3527 C   0  0  0  0  0  0
  -21.9853   -9.0248   20.4633 C   0  0  0  0  0  0
  -22.7161  -10.2151   20.3000 C   0  0  0  0  0  0
  -21.6855   -6.0697   22.5273 C   0  0  0  0  0  0
  -21.4034   -6.5606   23.8205 C   0  0  0  0  0  0
  -21.3667   -5.6763   24.9166 C   0  0  0  0  0  0
  -21.6018   -4.3021   24.7238 C   0  0  0  0  0  0
  -21.8819   -3.8118   23.4365 C   0  0  0  0  0  0
  -21.9204   -4.6917   22.3413 C   0  0  0  0  0  0
  -22.7876  -13.5306   21.1801 C   0  0  0  0  0  0
  -22.1670   -4.2085   21.1001 F   0  0  0  0  0  0
  -21.5629   -3.4529   25.7773 F   0  0  0  0  0  0
  -30.0326  -13.2665   20.3682 N   0  0  0  0  0  0
  -26.3059  -12.9330   20.3439 N   0  0  0  0  0  0
  -25.9305  -11.6485   20.5724 N   0  0  0  0  0  0
  -22.0446  -12.8295   22.0363 N   0  0  0  0  0  0
  -25.4442  -15.1865   20.4131 N   0  0  0  0  0  0
  -31.9086  -14.5510   20.2100 O   0  0  0  0  0  0
  -21.6649   -6.8873   21.4242 O   0  0  0  0  0  0
  -22.3596  -14.5572   20.6599 O   0  0  0  0  0  0
  -24.6135  -31.8790   23.2228 C   0  0  0  0  0  0
  -25.9060  -32.4887   23.8516 C   0  0  1  0  0  0
  -27.2079  -27.4874   20.0448 C   0  0  0  0  0  0
  -25.5991  -33.8691   24.2419 N   0  0  0  0  0  0
  -23.3904  -30.5200   21.5537 C   0  0  2  0  0  0
  -24.8364  -28.9941   20.1208 C   0  0  0  0  0  0
  -22.7384  -29.4716   22.4887 C   0  0  0  0  0  0
  -18.0258  -28.1542   22.8463 C   0  0  0  0  0  0
  -24.1509  -36.7336   23.2628 C   0  0  0  0  0  0
  -25.9290  -30.8534   21.3789 C   0  0  0  0  0  0
  -25.9996  -29.4937   20.7212 C   0  0  0  0  0  0
  -27.1916  -28.7422   20.6912 C   0  0  0  0  0  0
  -26.0326  -27.0105   19.4268 C   0  0  0  0  0  0
  -24.8397  -27.7472   19.4776 C   0  0  0  0  0  0
  -23.6099  -29.8742   20.1638 C   0  0  0  0  0  0
  -25.4137  -36.3163   24.0327 C   0  0  1  0  0  0
  -20.5900  -28.3793   23.1182 C   0  0  2  0  0  0
  -20.6704  -26.9539   22.5302 C   0  0  0  0  0  0
  -19.5671  -26.6556   21.5115 C   0  0  0  0  0  0
  -18.1855  -26.8042   22.1621 C   0  0  0  0  0  0
  -19.1564  -28.8983   23.2825 C   0  0  0  0  0  0
  -18.9525  -30.1571   23.8973 C   0  0  0  0  0  0
  -17.6475  -30.6592   24.0881 C   0  0  0  0  0  0
  -25.9051  -34.9534   23.5134 C   0  0  0  0  0  0
  -16.5336  -29.9197   23.6479 C   0  0  0  0  0  0
  -16.7275  -28.6657   23.0403 C   0  0  0  0  0  0
  -26.4525  -31.6594   25.0784 C   0  0  0  0  0  0
  -25.3750  -31.3689   26.1477 C   0  0  0  0  0  0
  -27.0370  -30.3053   24.6102 C   0  0  0  0  0  0
  -27.6134  -32.4298   25.7544 C   0  0  0  0  0  0
  -27.5582  -37.1850   24.8469 C   0  0  0  0  0  0
  -21.4163  -29.3058   22.3512 N   0  0  0  0  0  0
  -26.4324  -37.3826   23.9377 N   0  0  0  0  0  0
  -24.6605  -31.0966   22.1097 N   0  0  0  0  0  0
  -23.4166  -28.8297   23.2980 O   0  0  0  0  0  0
  -28.3599  -26.7453   20.0106 O   0  0  0  0  0  0
  -26.5588  -34.8949   22.4683 O   0  0  0  0  0  0
  -23.5272  -32.1435   23.7627 O   0  0  0  0  0  0
  -28.5291  -17.2522   23.8367 C   0  0  0  0  0  0
  -29.1638  -17.1373   22.5828 C   0  0  0  0  0  0
  -26.8588  -18.5318   22.8859 C   0  0  0  0  0  0
  -27.5561  -18.5083   21.6415 C   0  0  0  0  0  0
  -25.4909  -19.1762   23.0733 C   0  0  0  0  0  0
  -31.6735  -16.9535   22.3136 C   0  0  0  0  0  0
  -27.1193  -19.2406   20.3693 C   0  0  0  0  0  0
  -26.8651  -20.7643   20.5694 C   0  0  0  0  0  0
  -27.6277  -21.7009   19.5839 C   0  0  0  0  0  0
  -28.2263  -22.9506   20.2900 C   0  0  0  0  0  0
  -28.2019  -24.2832   19.5275 C   0  0  0  0  0  0
  -28.2188  -25.4427   20.5706 C   0  0  0  0  0  0
  -30.3358  -16.1937   22.3321 C   0  0  2  0  0  0
  -27.3712  -17.9361   23.9927 N   0  0  0  0  0  0
  -28.7047  -17.8086   21.4985 N   0  0  0  0  0  0
  -30.0555  -15.4292   21.1044 N   0  0  0  0  0  0
  -31.4501  -12.3802   19.0221 H   0  0  0  0  0  0
  -30.2809  -11.2678   19.7011 H   0  0  0  0  0  0
  -29.6574  -11.8117   17.3424 H   0  0  0  0  0  0
  -29.6331  -13.5177   17.7035 H   0  0  0  0  0  0
  -27.7600  -11.3516   18.7187 H   0  0  0  0  0  0
  -27.3244  -12.7433   17.7753 H   0  0  0  0  0  0
  -27.7169  -14.2608   19.6172 H   0  0  0  0  0  0
  -28.7125  -11.8808   21.2184 H   0  0  0  0  0  0
  -28.5206  -13.4814   21.8767 H   0  0  0  0  0  0
  -25.2683   -9.5752   22.4753 H   0  0  0  0  0  0
  -23.9910   -7.4708   22.7470 H   0  0  0  0  0  0
  -21.0794   -8.8718   19.8965 H   0  0  0  0  0  0
  -22.3542  -10.9655   19.6105 H   0  0  0  0  0  0
  -21.2044   -7.6124   23.9666 H   0  0  0  0  0  0
  -21.1472   -6.0527   25.9049 H   0  0  0  0  0  0
  -22.0589   -2.7581   23.2893 H   0  0  0  0  0  0
  -22.3995  -11.9978   22.4831 H   0  0  0  0  0  0
  -21.1028  -13.1336   22.2427 H   0  0  0  0  0  0
  -24.6814  -15.8471   20.4998 H   0  0  0  0  0  0
  -26.3231  -15.6216   20.1529 H   0  0  0  0  0  0
  -26.7127  -32.5603   23.1284 H   0  0  0  0  0  0
  -25.0268  -33.9836   25.0650 H   0  0  0  0  0  0
  -22.6774  -31.3420   21.4244 H   0  0  0  0  0  0
  -23.3757  -35.9663   23.3332 H   0  0  0  0  0  0
  -24.3576  -36.8920   22.2021 H   0  0  0  0  0  0
  -23.7252  -37.6559   23.6601 H   0  0  0  0  0  0
  -26.0560  -31.6214   20.6142 H   0  0  0  0  0  0
  -26.8097  -30.8906   22.0112 H   0  0  0  0  0  0
  -28.0906  -29.1152   21.1658 H   0  0  0  0  0  0
  -26.0441  -26.0886   18.8724 H   0  0  0  0  0  0
  -23.9418  -27.3785   18.9999 H   0  0  0  0  0  0
  -23.7614  -30.6675   19.4325 H   0  0  0  0  0  0
  -22.7277  -29.3281   19.8303 H   0  0  0  0  0  0
  -25.1309  -36.2059   25.0810 H   0  0  0  0  0  0
  -21.0075  -28.3405   24.1261 H   0  0  0  0  0  0
  -20.5627  -26.2372   23.3452 H   0  0  0  0  0  0
  -21.6644  -26.7683   22.1113 H   0  0  0  0  0  0
  -19.6730  -25.6530   21.0963 H   0  0  0  0  0  0
  -19.6328  -27.3437   20.6625 H   0  0  0  0  0  0
  -17.4095  -26.6838   21.4027 H   0  0  0  0  0  0
  -18.0213  -26.0154   22.9010 H   0  0  0  0  0  0
  -19.8074  -30.7325   24.2356 H   0  0  0  0  0  0
  -17.5104  -31.6199   24.5615 H   0  0  0  0  0  0
  -15.5355  -30.3229   23.7714 H   0  0  0  0  0  0
  -15.8645  -28.1130   22.6972 H   0  0  0  0  0  0
  -24.5910  -30.7118   25.7705 H   0  0  0  0  0  0
  -24.8925  -32.2843   26.4918 H   0  0  0  0  0  0
  -25.7987  -30.8748   27.0232 H   0  0  0  0  0  0
  -26.2860  -29.6836   24.1178 H   0  0  0  0  0  0
  -27.4247  -29.7300   25.4547 H   0  0  0  0  0  0
  -27.8689  -30.4489   23.9181 H   0  0  0  0  0  0
  -27.2790  -33.3603   26.2175 H   0  0  0  0  0  0
  -28.3885  -32.6872   25.0298 H   0  0  0  0  0  0
  -28.0863  -31.8364   26.5386 H   0  0  0  0  0  0
  -28.2677  -38.0093   24.7492 H   0  0  0  0  0  0
  -28.1041  -36.2641   24.6360 H   0  0  0  0  0  0
  -27.2288  -37.1540   25.8880 H   0  0  0  0  0  0
  -20.9307  -29.8898   21.6841 H   0  0  0  0  0  0
  -26.0244  -38.2924   24.1327 H   0  0  0  0  0  0
  -28.9129  -16.7130   24.6935 H   0  0  0  0  0  0
  -24.8018  -18.4676   23.5439 H   0  0  0  0  0  0
  -25.0460  -19.4969   22.1291 H   0  0  0  0  0  0
  -25.5671  -20.0379   23.7431 H   0  0  0  0  0  0
  -31.7998  -17.5503   23.2206 H   0  0  0  0  0  0
  -31.7471  -17.6337   21.4636 H   0  0  0  0  0  0
  -32.5128  -16.2697   22.2712 H   0  0  0  0  0  0
  -26.2771  -18.7170   19.9156 H   0  0  0  0  0  0
  -27.9188  -19.0851   19.6449 H   0  0  0  0  0  0
  -25.7891  -20.9720   20.5341 H   0  0  0  0  0  0
  -27.1411  -21.0204   21.5990 H   0  0  0  0  0  0
  -27.0119  -21.9715   18.7156 H   0  0  0  0  0  0
  -28.4463  -21.1475   19.1249 H   0  0  0  0  0  0
  -29.2495  -22.7408   20.6060 H   0  0  0  0  0  0
  -27.6850  -23.1310   21.2152 H   0  0  0  0  0  0
  -27.3180  -24.3231   18.8847 H   0  0  0  0  0  0
  -29.0569  -24.3519   18.8448 H   0  0  0  0  0  0
  -27.3357  -25.3950   21.2138 H   0  0  0  0  0  0
  -29.0396  -25.3278   21.2812 H   0  0  0  0  0  0
  -30.3846  -15.4893   23.1723 H   0  0  0  0  0  0
  -29.1455  -15.6204   20.6832 H   0  0  0  0  0  0
  1 25  1  0  0  0
  1 30  2  0  0  0
  1 86  1  0  0  0
  2  3  1  0  0  0
  2 25  1  0  0  0
  2 87  1  0  0  0
  2 88  1  0  0  0
  3  4  1  0  0  0
  3 89  1  0  0  0
  3 90  1  0  0  0
  4  5  1  0  0  0
  4 91  1  0  0  0
  4 92  1  0  0  0
  5  6  1  0  0  0
  5 26  1  0  0  0
  5 93  1  0  0  0
  6 25  1  0  0  0
  6 94  1  0  0  0
  6 95  1  0  0  0
  7  8  2  0  0  0
  7 26  1  0  0  0
  7 29  1  0  0  0
  8  9  1  0  0  0
  8 22  1  0  0  0
  9 10  1  0  0  0
  9 27  2  0  0  0
 10 11  2  0  0  0
 10 15  1  0  0  0
 11 12  1  0  0  0
 11 96  1  0  0  0
 12 13  2  0  0  0
 12 97  1  0  0  0
 13 14  1  0  0  0
 13 31  1  0  0  0
 14 15  2  0  0  0
 14 98  1  0  0  0
 15 99  1  0  0  0
 16 17  2  0  0  0
 16 21  1  0  0  0
 16 31  1  0  0  0
 17 18  1  0  0  0
 17100  1  0  0  0
 18 19  2  0  0  0
 18101  1  0  0  0
 19 20  1  0  0  0
 19 24  1  0  0  0
 20 21  2  0  0  0
 20102  1  0  0  0
 21 23  1  0  0  0
 22 28  1  0  0  0
 22 32  2  0  0  0
 26 27  1  0  0  0
 28103  1  0  0  0
 28104  1  0  0  0
 29105  1  0  0  0
 29106  1  0  0  0
 33 34  1  0  0  0
 33 66  1  0  0  0
 33 70  2  0  0  0
 34 36  1  0  0  0
 34 59  1  0  0  0
 34107  1  0  0  0
 35 44  2  0  0  0
 35 45  1  0  0  0
 35 68  1  0  0  0
 36 56  1  0  0  0
 36108  1  0  0  0
 37 39  1  0  0  0
 37 47  1  0  0  0
 37 66  1  0  0  0
 37109  1  0  0  0
 38 43  2  0  0  0
 38 46  1  0  0  0
 38 47  1  0  0  0
 39 64  1  0  0  0
 39 67  2  0  0  0
 40 52  1  0  0  0
 40 53  2  0  0  0
 40 58  1  0  0  0
 41110  1  0  0  0
 41111  1  0  0  0
 41112  1  0  0  0
 41 48  1  0  0  0
 42 43  1  0  0  0
 42 66  1  0  0  0
 42113  1  0  0  0
 42114  1  0  0  0
 43 44  1  0  0  0
 44115  1  0  0  0
 45 46  2  0  0  0
 45116  1  0  0  0
 46117  1  0  0  0
 47118  1  0  0  0
 47119  1  0  0  0
 48 56  1  0  0  0
 48 65  1  0  0  0
 48120  1  0  0  0
 49 50  1  0  0  0
 49 53  1  0  0  0
 49 64  1  0  0  0
 49121  1  0  0  0
 50 51  1  0  0  0
 50122  1  0  0  0
 50123  1  0  0  0
 51 52  1  0  0  0
 51124  1  0  0  0
 51125  1  0  0  0
 52126  1  0  0  0
 52127  1  0  0  0
 53 54  1  0  0  0
 54 55  2  0  0  0
 54128  1  0  0  0
 55 57  1  0  0  0
 55129  1  0  0  0
 56 69  2  0  0  0
 57 58  2  0  0  0
 57130  1  0  0  0
 58131  1  0  0  0
 59 60  1  0  0  0
 59 61  1  0  0  0
 59 62  1  0  0  0
 60132  1  0  0  0
 60133  1  0  0  0
 60134  1  0  0  0
 61135  1  0  0  0
 61136  1  0  0  0
 61137  1  0  0  0
 62138  1  0  0  0
 62139  1  0  0  0
 62140  1  0  0  0
 63 65  1  0  0  0
 63141  1  0  0  0
 63142  1  0  0  0
 63143  1  0  0  0
 64144  1  0  0  0
 65145  1  0  0  0
 68 82  1  0  0  0
 71 72  2  0  0  0
 71 84  1  0  0  0
 71146  1  0  0  0
 72 83  1  0  0  0
 72 85  1  0  0  0
 73 74  1  0  0  0
 73 75  1  0  0  0
 73 84  2  0  0  0
 74 77  1  0  0  0
 74 85  2  0  0  0
 75147  1  0  0  0
 75148  1  0  0  0
 75149  1  0  0  0
 76150  1  0  0  0
 76151  1  0  0  0
 76152  1  0  0  0
 76 83  1  0  0  0
 77 78  1  0  0  0
 77153  1  0  0  0
 77154  1  0  0  0
 78 79  1  0  0  0
 78155  1  0  0  0
 78156  1  0  0  0
 79 80  1  0  0  0
 79157  1  0  0  0
 79158  1  0  0  0
 80 81  1  0  0  0
 80159  1  0  0  0
 80160  1  0  0  0
 81 82  1  0  0  0
 81161  1  0  0  0
 81162  1  0  0  0
 82163  1  0  0  0
 82164  1  0  0  0
 83 86  1  0  0  0
 83165  1  0  0  0
 86166  1  0  0  0
M  ISO  4   1 100  68 101  82 101  86 100
M  END
> <chiral flag>
0

> <version>
0

> <s_m_source_file>
/data/baiqing/PycharmProjects/Reinvent-master-3.2/result/LINK_invent/BTK/process_docking_weight1_custom_sum_contain_oxygen_bond_distance_aromatic_linkinvent_7_9_3/rearranged_h_0072.sdf

> <i_m_source_file_index>
75

> <r_mmod_Potential_Energy-OPLS-2005>
53.102180480957

> <r_mmod_Stretch_Energy-OPLS-2005>
39.9657402038574

> <r_mmod_Bend_Energy-OPLS-2005>
108.555801391602

> <r_mmod_Torsional_Energy-OPLS-2005>
293.197875976562

> <r_mmod_Improper_Torsional_Energy-OPLS-2005>
3.99207830429077

> <r_mmod_Van_der_Waal_Energy-OPLS-2005>
161.629638671875

> <r_mmod_Electrostatic_Energy-OPLS-2005>
-365.651031494141

> <r_mmod_Solvation_Energy-OPLS-2005>
-207.251708984375

> <b_mmod_Minimization_Converged-OPLS-2005>
0

> <r_mmod_RMS_Derivative-OPLS-2005>
14.274676322937

$$$$
76
                    3D
 Structure written by MMmdl.
172180  0  0  1  0            999 V2000
  -30.6321  -14.6218   20.4797 C   0  0  0  0  0  0
  -30.4333  -12.3808   19.4366 C   0  0  0  0  0  0
  -29.4987  -12.4597   18.2116 C   0  0  0  0  0  0
  -28.0203  -12.3300   18.6271 C   0  0  0  0  0  0
  -27.6449  -13.1985   19.8547 C   0  0  2  0  0  0
  -28.6962  -13.0878   20.9810 C   0  0  0  0  0  0
  -25.2463  -13.7822   20.5513 C   0  0  0  0  0  0
  -24.1776  -13.0200   20.9187 C   0  0  0  0  0  0
  -24.6379  -11.6710   20.8761 C   0  0  0  0  0  0
  -23.9028  -10.4172   21.0428 C   0  0  0  0  0  0
  -24.3601   -9.4126   21.9203 C   0  0  0  0  0  0
  -23.6270   -8.2185   22.0773 C   0  0  0  0  0  0
  -22.4255   -8.0239   21.3558 C   0  0  0  0  0  0
  -21.9880   -9.0203   20.4658 C   0  0  0  0  0  0
  -22.7216  -10.2063   20.3059 C   0  0  0  0  0  0
  -21.6836   -6.0694   22.5271 C   0  0  0  0  0  0
  -21.3996   -6.5603   23.8196 C   0  0  0  0  0  0
  -21.3648   -5.6767   24.9157 C   0  0  0  0  0  0
  -21.6049   -4.3031   24.7219 C   0  0  0  0  0  0
  -21.8842   -3.8118   23.4343 C   0  0  0  0  0  0
  -21.9198   -4.6927   22.3391 C   0  0  0  0  0  0
  -22.7835  -13.5087   21.1843 C   0  0  0  0  0  0
  -22.1663   -4.2119   21.0969 F   0  0  0  0  0  0
  -21.5634   -3.4518   25.7729 F   0  0  0  0  0  0
  -29.9992  -13.4129   20.3967 N   0  0  0  0  0  0
  -26.2962  -12.9095   20.3300 N   0  0  0  0  0  0
  -25.9329  -11.6283   20.5820 N   0  0  0  0  0  0
  -22.0439  -12.8130   22.0399 N   0  0  0  0  0  0
  -25.4010  -15.1387   20.3572 N   0  0  0  0  0  0
  -31.8268  -14.7361   20.1850 O   0  0  0  0  0  0
  -21.6626   -6.8840   21.4235 O   0  0  0  0  0  0
  -22.3567  -14.5430   20.6707 O   0  0  0  0  0  0
  -24.6160  -31.8650   23.2068 C   0  0  0  0  0  0
  -25.9038  -32.4820   23.8380 C   0  0  1  0  0  0
  -27.2413  -27.4169   20.1021 C   0  0  0  0  0  0
  -25.5881  -33.8613   24.2317 N   0  0  0  0  0  0
  -23.4069  -30.4863   21.5473 C   0  0  2  0  0  0
  -24.8556  -28.9429   20.1182 C   0  0  0  0  0  0
  -22.7435  -29.4639   22.4976 C   0  0  0  0  0  0
  -18.0279  -28.1372   22.8488 C   0  0  0  0  0  0
  -24.1486  -36.7336   23.2649 C   0  0  0  0  0  0
  -25.9354  -30.8260   21.3600 C   0  0  0  0  0  0
  -26.0163  -29.4550   20.7140 C   0  0  0  0  0  0
  -27.2131  -28.7010   20.6988 C   0  0  0  0  0  0
  -26.0638  -26.9160   19.5071 C   0  0  0  0  0  0
  -24.8759  -27.6733   19.5130 C   0  0  0  0  0  0
  -23.6192  -29.8148   20.1634 C   0  0  0  0  0  0
  -25.4106  -36.3118   24.0337 C   0  0  1  0  0  0
  -20.5876  -28.3655   23.1314 C   0  0  2  0  0  0
  -20.6757  -26.9389   22.5409 C   0  0  0  0  0  0
  -19.5742  -26.6370   21.5205 C   0  0  0  0  0  0
  -18.1926  -26.7915   22.1620 C   0  0  0  0  0  0
  -19.1529  -28.8822   23.2892 C   0  0  0  0  0  0
  -18.9461  -30.1428   23.8904 C   0  0  0  0  0  0
  -17.6468  -30.6571   24.0575 C   0  0  0  0  0  0
  -25.9022  -34.9484   23.5132 C   0  0  0  0  0  0
  -16.5359  -29.9087   23.6323 C   0  0  0  0  0  0
  -16.7269  -28.6507   23.0330 C   0  0  0  0  0  0
  -26.4444  -31.6598   25.0718 C   0  0  0  0  0  0
  -25.3708  -31.3696   26.1471 C   0  0  0  0  0  0
  -27.0295  -30.3069   24.6066 C   0  0  0  0  0  0
  -27.6033  -32.4296   25.7486 C   0  0  0  0  0  0
  -27.5575  -37.1828   24.8464 C   0  0  0  0  0  0
  -21.4152  -29.3035   22.3732 N   0  0  0  0  0  0
  -26.4295  -37.3796   23.9403 N   0  0  0  0  0  0
  -24.6716  -31.0727   22.0987 N   0  0  0  0  0  0
  -23.4205  -28.8190   23.3022 O   0  0  0  0  0  0
  -28.4024  -26.6697   20.0662 O   0  0  0  0  0  0
  -26.5593  -34.8939   22.4704 O   0  0  0  0  0  0
  -23.5336  -32.1395   23.7440 O   0  0  0  0  0  0
  -27.9941  -19.9635   20.5941 C   0  0  0  0  0  0
  -29.2983  -20.3641   20.5848 C   0  0  0  0  0  0
  -29.2017  -18.1631   21.1598 C   0  0  0  0  0  0
  -30.8525  -16.8081   22.5500 C   0  0  0  0  0  0
  -28.2133  -22.6715   22.0826 C   0  0  0  0  0  0
  -25.6716  -18.1590   20.1150 C   0  0  0  0  0  0
  -26.0769  -18.4171   22.5930 C   0  0  0  0  0  0
  -29.4895  -16.2630   19.1241 C   0  0  0  0  0  0
  -29.8692  -21.7343   20.2449 C   0  0  0  0  0  0
  -28.9110  -24.1931   20.1193 C   0  0  0  0  0  0
  -28.4017  -25.4671   20.8623 C   0  0  0  0  0  0
  -29.6461  -16.7339   21.5883 C   0  0  2  0  0  0
  -29.3123  -22.9833   21.0387 C   0  0  1  0  0  0
  -26.6856  -17.9491   21.2619 C   0  0  0  0  0  0
  -27.9469  -18.6538   20.9929 N   0  0  0  0  0  0
  -30.0127  -19.2204   20.9149 N   0  3  0  0  0  0
  -29.8184  -15.7364   20.4629 N   0  0  0  0  0  0
  -31.4673  -12.5137   19.1165 H   0  0  0  0  0  0
  -30.3896  -11.3913   19.8944 H   0  0  0  0  0  0
  -29.7481  -11.6644   17.5090 H   0  0  0  0  0  0
  -29.6646  -13.3925   17.6707 H   0  0  0  0  0  0
  -27.8316  -11.2780   18.8459 H   0  0  0  0  0  0
  -27.3765  -12.5850   17.7855 H   0  0  0  0  0  0
  -27.6420  -14.2289   19.5019 H   0  0  0  0  0  0
  -28.7193  -12.0808   21.4008 H   0  0  0  0  0  0
  -28.4586  -13.7604   21.8068 H   0  0  0  0  0  0
  -25.2754   -9.5602   22.4769 H   0  0  0  0  0  0
  -23.9976   -7.4576   22.7486 H   0  0  0  0  0  0
  -21.0818   -8.8721   19.8958 H   0  0  0  0  0  0
  -22.3706  -10.9615   19.6165 H   0  0  0  0  0  0
  -21.1965   -7.6112   23.9672 H   0  0  0  0  0  0
  -21.1451   -6.0501   25.9055 H   0  0  0  0  0  0
  -22.0644   -2.7583   23.2847 H   0  0  0  0  0  0
  -22.4004  -11.9805   22.4862 H   0  0  0  0  0  0
  -21.1087  -13.1230   22.2579 H   0  0  0  0  0  0
  -24.5986  -15.7574   20.3938 H   0  0  0  0  0  0
  -26.2076  -15.5553   19.9175 H   0  0  0  0  0  0
  -26.7128  -32.5514   23.1151 H   0  0  0  0  0  0
  -25.0035  -33.9779   25.0461 H   0  0  0  0  0  0
  -22.6980  -31.3041   21.4045 H   0  0  0  0  0  0
  -23.3738  -35.9676   23.3308 H   0  0  0  0  0  0
  -24.3602  -36.8948   22.2070 H   0  0  0  0  0  0
  -23.7238  -37.6546   23.6650 H   0  0  0  0  0  0
  -26.0357  -31.5821   20.5808 H   0  0  0  0  0  0
  -26.8286  -30.8922   21.9688 H   0  0  0  0  0  0
  -28.1100  -29.0955   21.1555 H   0  0  0  0  0  0
  -26.0677  -25.9414   19.0371 H   0  0  0  0  0  0
  -23.9843  -27.2769   19.0460 H   0  0  0  0  0  0
  -23.7327  -30.5868   19.4020 H   0  0  0  0  0  0
  -22.7420  -29.2366   19.8632 H   0  0  0  0  0  0
  -25.1275  -36.2011   25.0825 H   0  0  0  0  0  0
  -20.9952  -28.3200   24.1443 H   0  0  0  0  0  0
  -20.5656  -26.2268   23.3590 H   0  0  0  0  0  0
  -21.6633  -26.7418   22.1218 H   0  0  0  0  0  0
  -19.6912  -25.6279   21.1229 H   0  0  0  0  0  0
  -19.6689  -27.3189   20.6745 H   0  0  0  0  0  0
  -17.4200  -26.6657   21.4024 H   0  0  0  0  0  0
  -18.0332  -26.0041   22.9002 H   0  0  0  0  0  0
  -19.7943  -30.7227   24.2289 H   0  0  0  0  0  0
  -17.5035  -31.6261   24.5164 H   0  0  0  0  0  0
  -15.5361  -30.3008   23.7620 H   0  0  0  0  0  0
  -15.8669  -28.0839   22.7030 H   0  0  0  0  0  0
  -24.5884  -30.7035   25.7811 H   0  0  0  0  0  0
  -24.8885  -32.2844   26.4924 H   0  0  0  0  0  0
  -25.8056  -30.8868   27.0236 H   0  0  0  0  0  0
  -26.2848  -29.6844   24.1103 H   0  0  0  0  0  0
  -27.4104  -29.7288   25.4497 H   0  0  0  0  0  0
  -27.8639  -30.4449   23.9192 H   0  0  0  0  0  0
  -27.2683  -33.3600   26.2081 H   0  0  0  0  0  0
  -28.3833  -32.6849   25.0302 H   0  0  0  0  0  0
  -28.0700  -31.8400   26.5381 H   0  0  0  0  0  0
  -28.2599  -38.0123   24.7506 H   0  0  0  0  0  0
  -28.1059  -36.2658   24.6274 H   0  0  0  0  0  0
  -27.2301  -37.1465   25.8870 H   0  0  0  0  0  0
  -20.9315  -29.8821   21.7012 H   0  0  0  0  0  0
  -26.0194  -38.2880   24.1389 H   0  0  0  0  0  0
  -27.1036  -20.5392   20.3868 H   0  0  0  0  0  0
  -31.1007  -15.8353   22.9758 H   0  0  0  0  0  0
  -30.6311  -17.4651   23.3911 H   0  0  0  0  0  0
  -31.7446  -17.1969   22.0626 H   0  0  0  0  0  0
  -28.4949  -21.8362   22.7242 H   0  0  0  0  0  0
  -27.2597  -22.4404   21.6119 H   0  0  0  0  0  0
  -28.0317  -23.5166   22.7447 H   0  0  0  0  0  0
  -24.7204  -17.6888   20.3601 H   0  0  0  0  0  0
  -26.0350  -17.7214   19.1850 H   0  0  0  0  0  0
  -25.4374  -19.2048   19.9234 H   0  0  0  0  0  0
  -25.1836  -17.8414   22.8357 H   0  0  0  0  0  0
  -25.7881  -19.4670   22.5479 H   0  0  0  0  0  0
  -26.7778  -18.3004   23.4190 H   0  0  0  0  0  0
  -28.4511  -16.5947   19.0696 H   0  0  0  0  0  0
  -29.6113  -15.5199   18.3374 H   0  0  0  0  0  0
  -30.1367  -17.0986   18.8533 H   0  0  0  0  0  0
  -29.6850  -21.8940   19.1813 H   0  0  0  0  0  0
  -30.9560  -21.6972   20.3377 H   0  0  0  0  0  0
  -29.7820  -24.4726   19.5244 H   0  0  0  0  0  0
  -28.1557  -23.8787   19.3989 H   0  0  0  0  0  0
  -29.0511  -25.6627   21.7147 H   0  0  0  0  0  0
  -27.4114  -25.2701   21.2782 H   0  0  0  0  0  0
  -28.8252  -16.3567   22.1950 H   0  0  0  0  0  0
  -30.1602  -23.3325   21.6294 H   0  0  0  0  0  0
  -26.9155  -16.8919   21.3500 H   0  0  0  0  0  0
  -31.0231  -19.1740   20.9872 H   0  0  0  0  0  0
  1 25  1  0  0  0
  1 30  2  0  0  0
  1 87  1  0  0  0
  2  3  1  0  0  0
  2 25  1  0  0  0
  2 88  1  0  0  0
  2 89  1  0  0  0
  3  4  1  0  0  0
  3 90  1  0  0  0
  3 91  1  0  0  0
  4  5  1  0  0  0
  4 92  1  0  0  0
  4 93  1  0  0  0
  5  6  1  0  0  0
  5 26  1  0  0  0
  5 94  1  0  0  0
  6 25  1  0  0  0
  6 95  1  0  0  0
  6 96  1  0  0  0
  7  8  2  0  0  0
  7 26  1  0  0  0
  7 29  1  0  0  0
  8  9  1  0  0  0
  8 22  1  0  0  0
  9 10  1  0  0  0
  9 27  2  0  0  0
 10 11  2  0  0  0
 10 15  1  0  0  0
 11 12  1  0  0  0
 11 97  1  0  0  0
 12 13  2  0  0  0
 12 98  1  0  0  0
 13 14  1  0  0  0
 13 31  1  0  0  0
 14 15  2  0  0  0
 14 99  1  0  0  0
 15100  1  0  0  0
 16 17  2  0  0  0
 16 21  1  0  0  0
 16 31  1  0  0  0
 17 18  1  0  0  0
 17101  1  0  0  0
 18 19  2  0  0  0
 18102  1  0  0  0
 19 20  1  0  0  0
 19 24  1  0  0  0
 20 21  2  0  0  0
 20103  1  0  0  0
 21 23  1  0  0  0
 22 28  1  0  0  0
 22 32  2  0  0  0
 26 27  1  0  0  0
 28104  1  0  0  0
 28105  1  0  0  0
 29106  1  0  0  0
 29107  1  0  0  0
 33 34  1  0  0  0
 33 66  1  0  0  0
 33 70  2  0  0  0
 34 36  1  0  0  0
 34 59  1  0  0  0
 34108  1  0  0  0
 35 44  2  0  0  0
 35 45  1  0  0  0
 35 68  1  0  0  0
 36 56  1  0  0  0
 36109  1  0  0  0
 37 39  1  0  0  0
 37 47  1  0  0  0
 37 66  1  0  0  0
 37110  1  0  0  0
 38 43  2  0  0  0
 38 46  1  0  0  0
 38 47  1  0  0  0
 39 64  1  0  0  0
 39 67  2  0  0  0
 40 52  1  0  0  0
 40 53  2  0  0  0
 40 58  1  0  0  0
 41111  1  0  0  0
 41112  1  0  0  0
 41113  1  0  0  0
 41 48  1  0  0  0
 42 43  1  0  0  0
 42 66  1  0  0  0
 42114  1  0  0  0
 42115  1  0  0  0
 43 44  1  0  0  0
 44116  1  0  0  0
 45 46  2  0  0  0
 45117  1  0  0  0
 46118  1  0  0  0
 47119  1  0  0  0
 47120  1  0  0  0
 48 56  1  0  0  0
 48 65  1  0  0  0
 48121  1  0  0  0
 49 50  1  0  0  0
 49 53  1  0  0  0
 49 64  1  0  0  0
 49122  1  0  0  0
 50 51  1  0  0  0
 50123  1  0  0  0
 50124  1  0  0  0
 51 52  1  0  0  0
 51125  1  0  0  0
 51126  1  0  0  0
 52127  1  0  0  0
 52128  1  0  0  0
 53 54  1  0  0  0
 54 55  2  0  0  0
 54129  1  0  0  0
 55 57  1  0  0  0
 55130  1  0  0  0
 56 69  2  0  0  0
 57 58  2  0  0  0
 57131  1  0  0  0
 58132  1  0  0  0
 59 60  1  0  0  0
 59 61  1  0  0  0
 59 62  1  0  0  0
 60133  1  0  0  0
 60134  1  0  0  0
 60135  1  0  0  0
 61136  1  0  0  0
 61137  1  0  0  0
 61138  1  0  0  0
 62139  1  0  0  0
 62140  1  0  0  0
 62141  1  0  0  0
 63 65  1  0  0  0
 63142  1  0  0  0
 63143  1  0  0  0
 63144  1  0  0  0
 64145  1  0  0  0
 65146  1  0  0  0
 68 81  1  0  0  0
 71 72  2  0  0  0
 71 85  1  0  0  0
 71147  1  0  0  0
 72 79  1  0  0  0
 72 86  1  0  0  0
 73 82  1  0  0  0
 73 85  1  0  0  0
 73 86  2  0  0  0
 74148  1  0  0  0
 74149  1  0  0  0
 74150  1  0  0  0
 74 82  1  0  0  0
 75151  1  0  0  0
 75152  1  0  0  0
 75153  1  0  0  0
 75 83  1  0  0  0
 76154  1  0  0  0
 76155  1  0  0  0
 76156  1  0  0  0
 76 84  1  0  0  0
 77 84  1  0  0  0
 77157  1  0  0  0
 77158  1  0  0  0
 77159  1  0  0  0
 78 87  1  0  0  0
 78160  1  0  0  0
 78161  1  0  0  0
 78162  1  0  0  0
 79 83  1  0  0  0
 79163  1  0  0  0
 79164  1  0  0  0
 80 81  1  0  0  0
 80 83  1  0  0  0
 80165  1  0  0  0
 80166  1  0  0  0
 81167  1  0  0  0
 81168  1  0  0  0
 82 87  1  0  0  0
 82169  1  0  0  0
 83170  1  0  0  0
 84 85  1  0  0  0
 84171  1  0  0  0
 86172  1  0  0  0
M  CHG  1  86   1
M  ISO  4   1 100  68 101  81 101  87 100
M  END
> <chiral flag>
0

> <version>
0

> <s_m_source_file>
/data/baiqing/PycharmProjects/Reinvent-master-3.2/result/LINK_invent/BTK/process_docking_weight1_custom_sum_contain_oxygen_bond_distance_aromatic_linkinvent_7_9_3/rearranged_h_0072.sdf

> <i_m_source_file_index>
76

> <r_mmod_Potential_Energy-OPLS-2005>
202.84521484375

> <r_mmod_Stretch_Energy-OPLS-2005>
59.3350715637207

> <r_mmod_Bend_Energy-OPLS-2005>
121.744148254395

> <r_mmod_Torsional_Energy-OPLS-2005>
360.357269287109

> <r_mmod_Improper_Torsional_Energy-OPLS-2005>
14.9942455291748

> <r_mmod_Van_der_Waal_Energy-OPLS-2005>
129.08056640625

> <r_mmod_Electrostatic_Energy-OPLS-2005>
-133.724060058594

> <r_mmod_Solvation_Energy-OPLS-2005>
-382.626678466797

> <b_mmod_Minimization_Converged-OPLS-2005>
0

> <r_mmod_RMS_Derivative-OPLS-2005>
3.70224905014038

$$$$
77
                    3D
 Structure written by MMmdl.
164172  0  0  1  0            999 V2000
  -30.7461  -14.4798   20.7033 C   0  0  0  0  0  0
  -30.4366  -12.3334   19.4770 C   0  0  0  0  0  0
  -29.5229  -12.5308   18.2508 C   0  0  0  0  0  0
  -28.0403  -12.3927   18.6399 C   0  0  0  0  0  0
  -27.6810  -13.2075   19.9109 C   0  0  2  0  0  0
  -28.7212  -12.9604   21.0366 C   0  0  0  0  0  0
  -25.2712  -13.8171   20.5746 C   0  0  0  0  0  0
  -24.1893  -13.0470   20.9200 C   0  0  0  0  0  0
  -24.6409  -11.6941   20.8726 C   0  0  0  0  0  0
  -23.9058  -10.4319   21.0368 C   0  0  0  0  0  0
  -24.3609   -9.4227   21.9128 C   0  0  0  0  0  0
  -23.6280   -8.2270   22.0694 C   0  0  0  0  0  0
  -22.4233   -8.0306   21.3532 C   0  0  0  0  0  0
  -21.9906   -9.0286   20.4639 C   0  0  0  0  0  0
  -22.7228  -10.2156   20.3028 C   0  0  0  0  0  0
  -21.6838   -6.0773   22.5288 C   0  0  0  0  0  0
  -21.4026   -6.5684   23.8226 C   0  0  0  0  0  0
  -21.3666   -5.6817   24.9181 C   0  0  0  0  0  0
  -21.6018   -4.3078   24.7212 C   0  0  0  0  0  0
  -21.8821   -3.8180   23.4334 C   0  0  0  0  0  0
  -21.9198   -4.7010   22.3398 C   0  0  0  0  0  0
  -22.7934  -13.5305   21.1904 C   0  0  0  0  0  0
  -22.1660   -4.2199   21.0973 F   0  0  0  0  0  0
  -21.5617   -3.4574   25.7736 F   0  0  0  0  0  0
  -30.0450  -13.3147   20.5110 N   0  0  0  0  0  0
  -26.3124  -12.9304   20.3512 N   0  0  0  0  0  0
  -25.9337  -11.6480   20.5755 N   0  0  0  0  0  0
  -22.0570  -12.8205   22.0399 N   0  0  0  0  0  0
  -25.4624  -15.1844   20.4265 N   0  0  0  0  0  0
  -31.7564  -14.6828   20.0169 O   0  0  0  0  0  0
  -21.6606   -6.8895   21.4222 O   0  0  0  0  0  0
  -22.3614  -14.5638   20.6843 O   0  0  0  0  0  0
  -24.6154  -31.8587   23.2067 C   0  0  0  0  0  0
  -25.9035  -32.4755   23.8393 C   0  0  1  0  0  0
  -27.2289  -27.3703   20.1346 C   0  0  0  0  0  0
  -25.5913  -33.8564   24.2321 N   0  0  0  0  0  0
  -23.4114  -30.4800   21.5429 C   0  0  2  0  0  0
  -24.8682  -28.9405   20.1131 C   0  0  0  0  0  0
  -22.7404  -29.4615   22.4950 C   0  0  0  0  0  0
  -18.0275  -28.1370   22.8480 C   0  0  0  0  0  0
  -24.1484  -36.7257   23.2647 C   0  0  0  0  0  0
  -25.9493  -30.8016   21.3838 C   0  0  0  0  0  0
  -26.0260  -29.4340   20.7275 C   0  0  0  0  0  0
  -27.2093  -28.6511   20.7431 C   0  0  0  0  0  0
  -26.0649  -26.9236   19.4772 C   0  0  0  0  0  0
  -24.8830  -27.6848   19.4881 C   0  0  0  0  0  0
  -23.6281  -29.8043   20.1625 C   0  0  0  0  0  0
  -25.4119  -36.3066   24.0357 C   0  0  1  0  0  0
  -20.5858  -28.3695   23.1284 C   0  0  2  0  0  0
  -20.6779  -26.9417   22.5438 C   0  0  0  0  0  0
  -19.5744  -26.6341   21.5268 C   0  0  0  0  0  0
  -18.1917  -26.7887   22.1648 C   0  0  0  0  0  0
  -19.1528  -28.8863   23.2855 C   0  0  0  0  0  0
  -18.9410  -30.1465   23.8869 C   0  0  0  0  0  0
  -17.6402  -30.6584   24.0516 C   0  0  0  0  0  0
  -25.9042  -34.9436   23.5128 C   0  0  0  0  0  0
  -16.5301  -29.9053   23.6320 C   0  0  0  0  0  0
  -16.7252  -28.6472   23.0350 C   0  0  0  0  0  0
  -26.4477  -31.6561   25.0743 C   0  0  0  0  0  0
  -25.3770  -31.3667   26.1511 C   0  0  0  0  0  0
  -27.0335  -30.2994   24.6225 C   0  0  0  0  0  0
  -27.6044  -32.4316   25.7476 C   0  0  0  0  0  0
  -27.5568  -37.1792   24.8474 C   0  0  0  0  0  0
  -21.4144  -29.3019   22.3688 N   0  0  0  0  0  0
  -26.4294  -37.3768   23.9394 N   0  0  0  0  0  0
  -24.6759  -31.0628   22.1011 N   0  0  0  0  0  0
  -23.4089  -28.8213   23.3075 O   0  0  0  0  0  0
  -28.3457  -26.5486   20.1810 O   0  0  0  0  0  0
  -26.5571  -34.8867   22.4661 O   0  0  0  0  0  0
  -23.5341  -32.1418   23.7428 O   0  0  0  0  0  0
  -28.5040  -20.1774   22.4180 C   0  0  0  0  0  0
  -28.6269  -19.1281   20.3042 C   0  0  0  0  0  0
  -28.6038  -18.9615   21.7023 C   0  0  0  0  0  0
  -28.4628  -21.4276   20.4842 C   0  0  0  0  0  0
  -27.3209  -17.3633   23.2195 C   0  0  0  0  0  0
  -31.5119  -16.6835   21.7252 C   0  0  0  0  0  0
  -30.5107  -14.9349   23.2079 C   0  0  0  0  0  0
  -28.1562  -22.7506   19.7357 C   0  0  0  0  0  0
  -28.9450  -24.0629   20.0694 C   0  0  0  0  0  0
  -29.0032  -16.2986   21.5808 C   0  0  0  0  0  0
  -28.1192  -25.2115   20.7306 C   0  0  0  0  0  0
  -28.6379  -17.5857   22.4335 C   0  0  1  0  0  0
  -30.4003  -15.5843   21.8022 C   0  0  0  0  0  0
  -28.4157  -21.3914   21.8138 N   0  0  0  0  0  0
  -28.5650  -20.3436   19.7169 N   0  0  0  0  0  0
  -30.3342  -11.3232   19.8755 H   0  0  0  0  0  0
  -31.4879  -12.4151   19.1924 H   0  0  0  0  0  0
  -29.7845  -11.8201   17.4672 H   0  0  0  0  0  0
  -29.6941  -13.5274   17.8445 H   0  0  0  0  0  0
  -27.8307  -11.3360   18.8065 H   0  0  0  0  0  0
  -27.4096  -12.6896   17.8022 H   0  0  0  0  0  0
  -27.7330  -14.2602   19.6362 H   0  0  0  0  0  0
  -28.7135  -11.9040   21.3120 H   0  0  0  0  0  0
  -28.4676  -13.4704   21.9614 H   0  0  0  0  0  0
  -25.2748   -9.5710   22.4710 H   0  0  0  0  0  0
  -24.0046   -7.4633   22.7353 H   0  0  0  0  0  0
  -21.0864   -8.8762   19.8927 H   0  0  0  0  0  0
  -22.3641  -10.9687   19.6164 H   0  0  0  0  0  0
  -21.2001   -7.6185   23.9760 H   0  0  0  0  0  0
  -21.1477   -6.0530   25.9092 H   0  0  0  0  0  0
  -22.0578   -2.7658   23.2785 H   0  0  0  0  0  0
  -22.4168  -11.9813   22.4658 H   0  0  0  0  0  0
  -21.1226  -13.1219   22.2708 H   0  0  0  0  0  0
  -24.7329  -15.8709   20.5690 H   0  0  0  0  0  0
  -26.3464  -15.5989   20.1587 H   0  0  0  0  0  0
  -26.7105  -32.5424   23.1145 H   0  0  0  0  0  0
  -25.0139  -33.9744   25.0527 H   0  0  0  0  0  0
  -22.7038  -31.3024   21.3976 H   0  0  0  0  0  0
  -23.3743  -35.9572   23.3336 H   0  0  0  0  0  0
  -24.3592  -36.8833   22.2043 H   0  0  0  0  0  0
  -23.7247  -37.6488   23.6636 H   0  0  0  0  0  0
  -26.0998  -31.5723   20.6295 H   0  0  0  0  0  0
  -26.8161  -30.8279   22.0321 H   0  0  0  0  0  0
  -28.0906  -29.0109   21.2558 H   0  0  0  0  0  0
  -26.0693  -25.9696   18.9692 H   0  0  0  0  0  0
  -23.9925  -27.3010   19.0097 H   0  0  0  0  0  0
  -23.7257  -30.5728   19.3957 H   0  0  0  0  0  0
  -22.7565  -29.2152   19.8712 H   0  0  0  0  0  0
  -25.1288  -36.1927   25.0860 H   0  0  0  0  0  0
  -20.9929  -28.3278   24.1394 H   0  0  0  0  0  0
  -20.5722  -26.2303   23.3632 H   0  0  0  0  0  0
  -21.6629  -26.7467   22.1194 H   0  0  0  0  0  0
  -19.6927  -25.6227   21.1320 H   0  0  0  0  0  0
  -19.6647  -27.3087   20.6758 H   0  0  0  0  0  0
  -17.4187  -26.6587   21.4030 H   0  0  0  0  0  0
  -18.0345  -26.0059   22.9107 H   0  0  0  0  0  0
  -19.7888  -30.7314   24.2199 H   0  0  0  0  0  0
  -17.4929  -31.6267   24.5078 H   0  0  0  0  0  0
  -15.5289  -30.2927   23.7645 H   0  0  0  0  0  0
  -15.8656  -28.0785   22.7063 H   0  0  0  0  0  0
  -24.5982  -30.6948   25.7896 H   0  0  0  0  0  0
  -24.8914  -32.2798   26.4957 H   0  0  0  0  0  0
  -25.8185  -30.8897   27.0279 H   0  0  0  0  0  0
  -26.2958  -29.6771   24.1176 H   0  0  0  0  0  0
  -27.3944  -29.7230   25.4750 H   0  0  0  0  0  0
  -27.8841  -30.4273   23.9532 H   0  0  0  0  0  0
  -27.2682  -33.3649   26.2020 H   0  0  0  0  0  0
  -28.3852  -32.6858   25.0282 H   0  0  0  0  0  0
  -28.0713  -31.8475   26.5423 H   0  0  0  0  0  0
  -28.2618  -38.0060   24.7479 H   0  0  0  0  0  0
  -28.1046  -36.2593   24.6360 H   0  0  0  0  0  0
  -27.2272  -37.1502   25.8882 H   0  0  0  0  0  0
  -20.9293  -29.8639   21.6829 H   0  0  0  0  0  0
  -26.0164  -38.2840   24.1402 H   0  0  0  0  0  0
  -28.4431  -20.1619   23.4994 H   0  0  0  0  0  0
  -28.6664  -18.2939   19.6205 H   0  0  0  0  0  0
  -26.4561  -17.3253   22.5565 H   0  0  0  0  0  0
  -27.1367  -18.1333   23.9695 H   0  0  0  0  0  0
  -27.3432  -16.4189   23.7668 H   0  0  0  0  0  0
  -31.3881  -17.5038   22.4285 H   0  0  0  0  0  0
  -31.5745  -17.1407   20.7382 H   0  0  0  0  0  0
  -32.4994  -16.2733   21.9485 H   0  0  0  0  0  0
  -31.2680  -14.1508   23.2210 H   0  0  0  0  0  0
  -30.7981  -15.6543   23.9805 H   0  0  0  0  0  0
  -29.5805  -14.4808   23.5473 H   0  0  0  0  0  0
  -27.0810  -22.9317   19.7405 H   0  0  0  0  0  0
  -28.3867  -22.5431   18.6900 H   0  0  0  0  0  0
  -29.3037  -24.4626   19.1192 H   0  0  0  0  0  0
  -29.8415  -23.8186   20.6407 H   0  0  0  0  0  0
  -28.8444  -16.4582   20.5194 H   0  0  0  0  0  0
  -28.2369  -15.5629   21.8148 H   0  0  0  0  0  0
  -28.3652  -25.2462   21.7930 H   0  0  0  0  0  0
  -27.0642  -24.9338   20.7033 H   0  0  0  0  0  0
  -29.3875  -17.6808   23.2190 H   0  0  0  0  0  0
  1 25  1  0  0  0
  1 30  2  0  0  0
  1 83  1  0  0  0
  2  3  1  0  0  0
  2 25  1  0  0  0
  2 86  1  0  0  0
  2 87  1  0  0  0
  3  4  1  0  0  0
  3 88  1  0  0  0
  3 89  1  0  0  0
  4  5  1  0  0  0
  4 90  1  0  0  0
  4 91  1  0  0  0
  5  6  1  0  0  0
  5 26  1  0  0  0
  5 92  1  0  0  0
  6 25  1  0  0  0
  6 93  1  0  0  0
  6 94  1  0  0  0
  7  8  2  0  0  0
  7 26  1  0  0  0
  7 29  1  0  0  0
  8  9  1  0  0  0
  8 22  1  0  0  0
  9 10  1  0  0  0
  9 27  2  0  0  0
 10 11  2  0  0  0
 10 15  1  0  0  0
 11 12  1  0  0  0
 11 95  1  0  0  0
 12 13  2  0  0  0
 12 96  1  0  0  0
 13 14  1  0  0  0
 13 31  1  0  0  0
 14 15  2  0  0  0
 14 97  1  0  0  0
 15 98  1  0  0  0
 16 17  2  0  0  0
 16 21  1  0  0  0
 16 31  1  0  0  0
 17 18  1  0  0  0
 17 99  1  0  0  0
 18 19  2  0  0  0
 18100  1  0  0  0
 19 20  1  0  0  0
 19 24  1  0  0  0
 20 21  2  0  0  0
 20101  1  0  0  0
 21 23  1  0  0  0
 22 28  1  0  0  0
 22 32  2  0  0  0
 26 27  1  0  0  0
 28102  1  0  0  0
 28103  1  0  0  0
 29104  1  0  0  0
 29105  1  0  0  0
 33 34  1  0  0  0
 33 66  1  0  0  0
 33 70  2  0  0  0
 34 36  1  0  0  0
 34 59  1  0  0  0
 34106  1  0  0  0
 35 44  2  0  0  0
 35 45  1  0  0  0
 35 68  1  0  0  0
 36 56  1  0  0  0
 36107  1  0  0  0
 37 39  1  0  0  0
 37 47  1  0  0  0
 37 66  1  0  0  0
 37108  1  0  0  0
 38 43  2  0  0  0
 38 46  1  0  0  0
 38 47  1  0  0  0
 39 64  1  0  0  0
 39 67  2  0  0  0
 40 52  1  0  0  0
 40 53  2  0  0  0
 40 58  1  0  0  0
 41109  1  0  0  0
 41110  1  0  0  0
 41111  1  0  0  0
 41 48  1  0  0  0
 42 43  1  0  0  0
 42 66  1  0  0  0
 42112  1  0  0  0
 42113  1  0  0  0
 43 44  1  0  0  0
 44114  1  0  0  0
 45 46  2  0  0  0
 45115  1  0  0  0
 46116  1  0  0  0
 47117  1  0  0  0
 47118  1  0  0  0
 48 56  1  0  0  0
 48 65  1  0  0  0
 48119  1  0  0  0
 49 50  1  0  0  0
 49 53  1  0  0  0
 49 64  1  0  0  0
 49120  1  0  0  0
 50 51  1  0  0  0
 50121  1  0  0  0
 50122  1  0  0  0
 51 52  1  0  0  0
 51123  1  0  0  0
 51124  1  0  0  0
 52125  1  0  0  0
 52126  1  0  0  0
 53 54  1  0  0  0
 54 55  2  0  0  0
 54127  1  0  0  0
 55 57  1  0  0  0
 55128  1  0  0  0
 56 69  2  0  0  0
 57 58  2  0  0  0
 57129  1  0  0  0
 58130  1  0  0  0
 59 60  1  0  0  0
 59 61  1  0  0  0
 59 62  1  0  0  0
 60131  1  0  0  0
 60132  1  0  0  0
 60133  1  0  0  0
 61134  1  0  0  0
 61135  1  0  0  0
 61136  1  0  0  0
 62137  1  0  0  0
 62138  1  0  0  0
 62139  1  0  0  0
 63 65  1  0  0  0
 63140  1  0  0  0
 63141  1  0  0  0
 63142  1  0  0  0
 64143  1  0  0  0
 65144  1  0  0  0
 68 81  1  0  0  0
 71 73  2  0  0  0
 71 84  1  0  0  0
 71145  1  0  0  0
 72 73  1  0  0  0
 72 85  2  0  0  0
 72146  1  0  0  0
 73 82  1  0  0  0
 74 78  1  0  0  0
 74 84  2  0  0  0
 74 85  1  0  0  0
 75147  1  0  0  0
 75148  1  0  0  0
 75149  1  0  0  0
 75 82  1  0  0  0
 76150  1  0  0  0
 76151  1  0  0  0
 76152  1  0  0  0
 76 83  1  0  0  0
 77 83  1  0  0  0
 77153  1  0  0  0
 77154  1  0  0  0
 77155  1  0  0  0
 78 79  1  0  0  0
 78156  1  0  0  0
 78157  1  0  0  0
 79 81  1  0  0  0
 79158  1  0  0  0
 79159  1  0  0  0
 80 82  1  0  0  0
 80 83  1  0  0  0
 80160  1  0  0  0
 80161  1  0  0  0
 81162  1  0  0  0
 81163  1  0  0  0
 82164  1  0  0  0
M  ISO  4   1 100  68 101  81 101  83 100
M  END
> <chiral flag>
0

> <version>
0

> <s_m_source_file>
/data/baiqing/PycharmProjects/Reinvent-master-3.2/result/LINK_invent/BTK/process_docking_weight1_custom_sum_contain_oxygen_bond_distance_aromatic_linkinvent_7_9_3/rearranged_h_0072.sdf

> <i_m_source_file_index>
77

> <r_mmod_Potential_Energy-OPLS-2005>
-279.208587646484

> <r_mmod_Stretch_Energy-OPLS-2005>
64.5045471191406

> <r_mmod_Bend_Energy-OPLS-2005>
141.451202392578

> <r_mmod_Torsional_Energy-OPLS-2005>
240.752944946289

> <r_mmod_Improper_Torsional_Energy-OPLS-2005>
2.75322604179382

> <r_mmod_Van_der_Waal_Energy-OPLS-2005>
165.735061645508

> <r_mmod_Electrostatic_Energy-OPLS-2005>
-715.585998535156

> <r_mmod_Solvation_Energy-OPLS-2005>
-202.643646240234

> <b_mmod_Minimization_Converged-OPLS-2005>
0

> <r_mmod_RMS_Derivative-OPLS-2005>
8.02429294586182

$$$$
78
                    3D
 Structure written by MMmdl.
168177  0  0  1  0            999 V2000
  -30.7179  -14.5367   20.5316 C   0  0  0  0  0  0
  -30.4152  -12.3306   19.4672 C   0  0  0  0  0  0
  -29.4857  -12.4854   18.2416 C   0  0  0  0  0  0
  -28.0168  -12.3317   18.6656 C   0  0  0  0  0  0
  -27.6543  -13.2235   19.8806 C   0  0  2  0  0  0
  -28.6981  -13.0779   21.0102 C   0  0  0  0  0  0
  -25.2559  -13.8182   20.5803 C   0  0  0  0  0  0
  -24.1820  -13.0405   20.9152 C   0  0  0  0  0  0
  -24.6418  -11.6869   20.8747 C   0  0  0  0  0  0
  -23.9119  -10.4263   21.0377 C   0  0  0  0  0  0
  -24.3662   -9.4201   21.9183 C   0  0  0  0  0  0
  -23.6324   -8.2254   22.0783 C   0  0  0  0  0  0
  -22.4261   -8.0334   21.3592 C   0  0  0  0  0  0
  -21.9903   -9.0266   20.4650 C   0  0  0  0  0  0
  -22.7288  -10.2094   20.3020 C   0  0  0  0  0  0
  -21.6869   -6.0757   22.5307 C   0  0  0  0  0  0
  -21.4021   -6.5633   23.8262 C   0  0  0  0  0  0
  -21.3662   -5.6771   24.9210 C   0  0  0  0  0  0
  -21.6040   -4.3038   24.7212 C   0  0  0  0  0  0
  -21.8822   -3.8153   23.4346 C   0  0  0  0  0  0
  -21.9199   -4.6973   22.3416 C   0  0  0  0  0  0
  -22.7829  -13.5139   21.1813 C   0  0  0  0  0  0
  -22.1633   -4.2188   21.0984 F   0  0  0  0  0  0
  -21.5663   -3.4496   25.7705 F   0  0  0  0  0  0
  -30.0279  -13.3593   20.4481 N   0  0  0  0  0  0
  -26.3005  -12.9384   20.3490 N   0  0  0  0  0  0
  -25.9387  -11.6520   20.5896 N   0  0  0  0  0  0
  -22.0547  -12.7997   22.0333 N   0  0  0  0  0  0
  -25.4341  -15.1896   20.4454 N   0  0  0  0  0  0
  -31.8383  -14.6608   20.0254 O   0  0  0  0  0  0
  -21.6649   -6.8896   21.4300 O   0  0  0  0  0  0
  -22.3498  -14.5476   20.6747 O   0  0  0  0  0  0
  -24.6176  -31.8660   23.2061 C   0  0  0  0  0  0
  -25.9039  -32.4820   23.8406 C   0  0  1  0  0  0
  -27.2519  -27.3775   20.1152 C   0  0  0  0  0  0
  -25.5862  -33.8621   24.2310 N   0  0  0  0  0  0
  -23.4149  -30.4844   21.5466 C   0  0  2  0  0  0
  -24.8677  -28.9462   20.1207 C   0  0  0  0  0  0
  -22.7451  -29.4642   22.4991 C   0  0  0  0  0  0
  -18.0264  -28.1376   22.8471 C   0  0  0  0  0  0
  -24.1479  -36.7299   23.2652 C   0  0  0  0  0  0
  -25.9507  -30.8137   21.3751 C   0  0  0  0  0  0
  -26.0305  -29.4467   20.7157 C   0  0  0  0  0  0
  -27.2224  -28.6756   20.7009 C   0  0  0  0  0  0
  -26.0600  -26.9194   19.4971 C   0  0  0  0  0  0
  -24.8826  -27.6867   19.5037 C   0  0  0  0  0  0
  -23.6306  -29.8125   20.1663 C   0  0  0  0  0  0
  -25.4114  -36.3130   24.0354 C   0  0  1  0  0  0
  -20.5859  -28.3693   23.1263 C   0  0  2  0  0  0
  -20.6768  -26.9416   22.5387 C   0  0  0  0  0  0
  -19.5751  -26.6370   21.5186 C   0  0  0  0  0  0
  -18.1929  -26.7913   22.1605 C   0  0  0  0  0  0
  -19.1517  -28.8851   23.2863 C   0  0  0  0  0  0
  -18.9450  -30.1444   23.8899 C   0  0  0  0  0  0
  -17.6461  -30.6598   24.0551 C   0  0  0  0  0  0
  -25.9030  -34.9489   23.5139 C   0  0  0  0  0  0
  -16.5355  -29.9092   23.6314 C   0  0  0  0  0  0
  -16.7250  -28.6485   23.0372 C   0  0  0  0  0  0
  -26.4437  -31.6655   25.0776 C   0  0  0  0  0  0
  -25.3665  -31.3786   26.1493 C   0  0  0  0  0  0
  -27.0293  -30.3085   24.6256 C   0  0  0  0  0  0
  -27.5989  -32.4410   25.7527 C   0  0  0  0  0  0
  -27.5580  -37.1822   24.8478 C   0  0  0  0  0  0
  -21.4188  -29.3041   22.3678 N   0  0  0  0  0  0
  -26.4302  -37.3803   23.9400 N   0  0  0  0  0  0
  -24.6786  -31.0705   22.0992 N   0  0  0  0  0  0
  -23.4170  -28.8175   23.3066 O   0  0  0  0  0  0
  -28.4312  -26.6268   20.1746 O   0  0  0  0  0  0
  -26.5613  -34.8932   22.4711 O   0  0  0  0  0  0
  -23.5336  -32.1439   23.7369 O   0  0  0  0  0  0
  -30.0053  -16.9924   20.3192 C   0  0  0  0  0  0
  -29.4820  -18.2522   22.2968 C   0  0  0  0  0  0
  -29.6957  -18.2491   20.9070 C   0  0  0  0  0  0
  -30.0990  -15.8091   21.1137 C   0  0  0  0  0  0
  -29.5759  -17.0445   23.0187 C   0  0  0  0  0  0
  -27.0083  -22.4773   20.9780 C   0  0  0  0  0  0
  -28.3919  -22.7542   20.7926 C   0  0  0  0  0  0
  -27.3465  -20.2454   20.4579 C   0  0  0  0  0  0
  -28.7563  -20.4497   20.4067 C   0  0  0  0  0  0
  -29.3703  -17.0357   24.5190 C   0  0  0  0  0  0
  -25.7290  -23.2006   23.0000 C   0  0  0  0  0  0
  -25.9905  -18.9706   18.7341 C   0  0  0  0  0  0
  -25.9957  -23.4773   21.5151 C   0  0  0  0  0  0
  -28.9317  -24.2078   20.9403 C   0  0  0  0  0  0
  -26.6547  -18.9356   20.1181 C   0  0  0  0  0  0
  -28.4881  -25.2088   19.8134 C   0  0  0  0  0  0
  -29.8841  -15.8601   22.4515 N   0  0  0  0  0  0
  -26.4946  -21.2456   20.7690 N   0  0  0  0  0  0
  -29.2633  -21.7251   20.5113 N   0  0  0  0  0  0
  -29.6705  -19.4252   20.1518 O   0  0  0  0  0  0
  -31.4610  -12.4018   19.1618 H   0  0  0  0  0  0
  -30.3113  -11.3401   19.9124 H   0  0  0  0  0  0
  -29.7289  -11.7401   17.4895 H   0  0  0  0  0  0
  -29.6332  -13.4632   17.7845 H   0  0  0  0  0  0
  -27.8586  -11.2848   18.9272 H   0  0  0  0  0  0
  -27.3471  -12.5348   17.8270 H   0  0  0  0  0  0
  -27.6793  -14.2566   19.5287 H   0  0  0  0  0  0
  -28.6811  -12.0621   21.4053 H   0  0  0  0  0  0
  -28.4524  -13.7223   21.8537 H   0  0  0  0  0  0
  -25.2812   -9.5658   22.4710 H   0  0  0  0  0  0
  -24.0069   -7.4634   22.7441 H   0  0  0  0  0  0
  -21.0906   -8.8786   19.8873 H   0  0  0  0  0  0
  -22.3883  -10.9617   19.6055 H   0  0  0  0  0  0
  -21.2031   -7.6136   23.9798 H   0  0  0  0  0  0
  -21.1474   -6.0474   25.9130 H   0  0  0  0  0  0
  -22.0577   -2.7606   23.2849 H   0  0  0  0  0  0
  -22.4339  -11.9674   22.4574 H   0  0  0  0  0  0
  -21.1139  -13.0832   22.2606 H   0  0  0  0  0  0
  -24.7149  -15.8509   20.7095 H   0  0  0  0  0  0
  -26.3513  -15.6030   20.3493 H   0  0  0  0  0  0
  -26.7113  -32.5501   23.1170 H   0  0  0  0  0  0
  -25.0005  -33.9808   25.0453 H   0  0  0  0  0  0
  -22.7080  -31.3010   21.3970 H   0  0  0  0  0  0
  -23.3761  -35.9606   23.3342 H   0  0  0  0  0  0
  -24.3547  -36.8877   22.2050 H   0  0  0  0  0  0
  -23.7188  -37.6500   23.6639 H   0  0  0  0  0  0
  -26.0896  -31.5868   20.6170 H   0  0  0  0  0  0
  -26.8255  -30.8487   22.0142 H   0  0  0  0  0  0
  -28.1189  -29.0736   21.1534 H   0  0  0  0  0  0
  -25.9827  -25.9744   18.9916 H   0  0  0  0  0  0
  -23.9916  -27.3011   19.0325 H   0  0  0  0  0  0
  -23.7446  -30.5819   19.4000 H   0  0  0  0  0  0
  -22.7615  -29.2285   19.8634 H   0  0  0  0  0  0
  -25.1290  -36.2030   25.0847 H   0  0  0  0  0  0
  -20.9921  -28.3249   24.1415 H   0  0  0  0  0  0
  -20.5635  -26.2325   23.3598 H   0  0  0  0  0  0
  -21.6642  -26.7458   22.1216 H   0  0  0  0  0  0
  -19.6931  -25.6266   21.1262 H   0  0  0  0  0  0
  -19.6678  -27.3139   20.6685 H   0  0  0  0  0  0
  -17.4190  -26.6620   21.4018 H   0  0  0  0  0  0
  -18.0363  -26.0062   22.9016 H   0  0  0  0  0  0
  -19.7947  -30.7220   24.2307 H   0  0  0  0  0  0
  -17.5045  -31.6278   24.5138 H   0  0  0  0  0  0
  -15.5363  -30.3019   23.7651 H   0  0  0  0  0  0
  -15.8651  -28.0799   22.7166 H   0  0  0  0  0  0
  -24.5809  -30.7182   25.7786 H   0  0  0  0  0  0
  -24.8885  -32.2962   26.4955 H   0  0  0  0  0  0
  -25.7955  -30.8911   27.0264 H   0  0  0  0  0  0
  -26.2885  -29.6828   24.1255 H   0  0  0  0  0  0
  -27.3953  -29.7344   25.4790 H   0  0  0  0  0  0
  -27.8777  -30.4365   23.9521 H   0  0  0  0  0  0
  -27.2590  -33.3704   26.2125 H   0  0  0  0  0  0
  -28.3773  -32.7012   25.0336 H   0  0  0  0  0  0
  -28.0716  -31.8562   26.5439 H   0  0  0  0  0  0
  -28.2654  -38.0067   24.7494 H   0  0  0  0  0  0
  -28.1031  -36.2605   24.6377 H   0  0  0  0  0  0
  -27.2293  -37.1556   25.8882 H   0  0  0  0  0  0
  -20.9390  -29.8780   21.6880 H   0  0  0  0  0  0
  -26.0225  -38.2903   24.1338 H   0  0  0  0  0  0
  -30.2340  -16.9398   19.2649 H   0  0  0  0  0  0
  -29.2611  -19.1719   22.8171 H   0  0  0  0  0  0
  -28.8336  -16.1433   24.8413 H   0  0  0  0  0  0
  -28.7969  -17.9070   24.8372 H   0  0  0  0  0  0
  -30.3317  -17.0537   25.0278 H   0  0  0  0  0  0
  -25.0506  -23.9418   23.4227 H   0  0  0  0  0  0
  -25.2805  -22.2158   23.1433 H   0  0  0  0  0  0
  -26.6538  -23.2302   23.5775 H   0  0  0  0  0  0
  -25.5188  -18.0135   18.5239 H   0  0  0  0  0  0
  -26.7296  -19.1594   17.9528 H   0  0  0  0  0  0
  -25.2276  -19.7484   18.6714 H   0  0  0  0  0  0
  -25.0632  -23.3941   20.9526 H   0  0  0  0  0  0
  -26.3267  -24.5039   21.3939 H   0  0  0  0  0  0
  -30.0212  -24.1849   21.0138 H   0  0  0  0  0  0
  -28.6049  -24.5934   21.9050 H   0  0  0  0  0  0
  -25.9171  -18.7233   20.8924 H   0  0  0  0  0  0
  -27.3413  -18.0978   20.1304 H   0  0  0  0  0  0
  -27.5557  -24.8340   19.4089 H   0  0  0  0  0  0
  -29.1986  -25.1274   18.9873 H   0  0  0  0  0  0
  1 25  1  0  0  0
  1 30  2  0  0  0
  1 74  1  0  0  0
  2  3  1  0  0  0
  2 25  1  0  0  0
  2 91  1  0  0  0
  2 92  1  0  0  0
  3  4  1  0  0  0
  3 93  1  0  0  0
  3 94  1  0  0  0
  4  5  1  0  0  0
  4 95  1  0  0  0
  4 96  1  0  0  0
  5  6  1  0  0  0
  5 26  1  0  0  0
  5 97  1  0  0  0
  6 25  1  0  0  0
  6 98  1  0  0  0
  6 99  1  0  0  0
  7  8  2  0  0  0
  7 26  1  0  0  0
  7 29  1  0  0  0
  8  9  1  0  0  0
  8 22  1  0  0  0
  9 10  1  0  0  0
  9 27  2  0  0  0
 10 11  2  0  0  0
 10 15  1  0  0  0
 11 12  1  0  0  0
 11100  1  0  0  0
 12 13  2  0  0  0
 12101  1  0  0  0
 13 14  1  0  0  0
 13 31  1  0  0  0
 14 15  2  0  0  0
 14102  1  0  0  0
 15103  1  0  0  0
 16 17  2  0  0  0
 16 21  1  0  0  0
 16 31  1  0  0  0
 17 18  1  0  0  0
 17104  1  0  0  0
 18 19  2  0  0  0
 18105  1  0  0  0
 19 20  1  0  0  0
 19 24  1  0  0  0
 20 21  2  0  0  0
 20106  1  0  0  0
 21 23  1  0  0  0
 22 28  1  0  0  0
 22 32  2  0  0  0
 26 27  1  0  0  0
 28107  1  0  0  0
 28108  1  0  0  0
 29109  1  0  0  0
 29110  1  0  0  0
 33 34  1  0  0  0
 33 66  1  0  0  0
 33 70  2  0  0  0
 34 36  1  0  0  0
 34 59  1  0  0  0
 34111  1  0  0  0
 35 44  2  0  0  0
 35 45  1  0  0  0
 35 68  1  0  0  0
 36 56  1  0  0  0
 36112  1  0  0  0
 37 39  1  0  0  0
 37 47  1  0  0  0
 37 66  1  0  0  0
 37113  1  0  0  0
 38 43  2  0  0  0
 38 46  1  0  0  0
 38 47  1  0  0  0
 39 64  1  0  0  0
 39 67  2  0  0  0
 40 52  1  0  0  0
 40 53  2  0  0  0
 40 58  1  0  0  0
 41114  1  0  0  0
 41115  1  0  0  0
 41116  1  0  0  0
 41 48  1  0  0  0
 42 43  1  0  0  0
 42 66  1  0  0  0
 42117  1  0  0  0
 42118  1  0  0  0
 43 44  1  0  0  0
 44119  1  0  0  0
 45 46  2  0  0  0
 45120  1  0  0  0
 46121  1  0  0  0
 47122  1  0  0  0
 47123  1  0  0  0
 48 56  1  0  0  0
 48 65  1  0  0  0
 48124  1  0  0  0
 49 50  1  0  0  0
 49 53  1  0  0  0
 49 64  1  0  0  0
 49125  1  0  0  0
 50 51  1  0  0  0
 50126  1  0  0  0
 50127  1  0  0  0
 51 52  1  0  0  0
 51128  1  0  0  0
 51129  1  0  0  0
 52130  1  0  0  0
 52131  1  0  0  0
 53 54  1  0  0  0
 54 55  2  0  0  0
 54132  1  0  0  0
 55 57  1  0  0  0
 55133  1  0  0  0
 56 69  2  0  0  0
 57 58  2  0  0  0
 57134  1  0  0  0
 58135  1  0  0  0
 59 60  1  0  0  0
 59 61  1  0  0  0
 59 62  1  0  0  0
 60136  1  0  0  0
 60137  1  0  0  0
 60138  1  0  0  0
 61139  1  0  0  0
 61140  1  0  0  0
 61141  1  0  0  0
 62142  1  0  0  0
 62143  1  0  0  0
 62144  1  0  0  0
 63 65  1  0  0  0
 63145  1  0  0  0
 63146  1  0  0  0
 63147  1  0  0  0
 64148  1  0  0  0
 65149  1  0  0  0
 68 86  1  0  0  0
 71 73  2  0  0  0
 71 74  1  0  0  0
 71150  1  0  0  0
 72 73  1  0  0  0
 72 75  2  0  0  0
 72151  1  0  0  0
 73 90  1  0  0  0
 74 87  2  0  0  0
 75 80  1  0  0  0
 75 87  1  0  0  0
 76 77  2  0  0  0
 76 83  1  0  0  0
 76 88  1  0  0  0
 77 84  1  0  0  0
 77 89  1  0  0  0
 78 79  1  0  0  0
 78 85  1  0  0  0
 78 88  2  0  0  0
 79 89  2  0  0  0
 79 90  1  0  0  0
 80152  1  0  0  0
 80153  1  0  0  0
 80154  1  0  0  0
 81 83  1  0  0  0
 81155  1  0  0  0
 81156  1  0  0  0
 81157  1  0  0  0
 82 85  1  0  0  0
 82158  1  0  0  0
 82159  1  0  0  0
 82160  1  0  0  0
 83161  1  0  0  0
 83162  1  0  0  0
 84 86  1  0  0  0
 84163  1  0  0  0
 84164  1  0  0  0
 85165  1  0  0  0
 85166  1  0  0  0
 86167  1  0  0  0
 86168  1  0  0  0
M  ISO  4   1 100  68 101  74 100  86 101
M  END
> <chiral flag>
0

> <version>
0

> <s_m_source_file>
/data/baiqing/PycharmProjects/Reinvent-master-3.2/result/LINK_invent/BTK/process_docking_weight1_custom_sum_contain_oxygen_bond_distance_aromatic_linkinvent_7_9_3/rearranged_h_0072.sdf

> <i_m_source_file_index>
78

> <r_mmod_Potential_Energy-OPLS-2005>
26.1218376159668

> <r_mmod_Stretch_Energy-OPLS-2005>
62.8326721191406

> <r_mmod_Bend_Energy-OPLS-2005>
130.450332641602

> <r_mmod_Torsional_Energy-OPLS-2005>
203.869552612305

> <r_mmod_Improper_Torsional_Energy-OPLS-2005>
5.89707374572754

> <r_mmod_Van_der_Waal_Energy-OPLS-2005>
164.240646362305

> <r_mmod_Electrostatic_Energy-OPLS-2005>
-365.412445068359

> <r_mmod_Solvation_Energy-OPLS-2005>
-201.728134155273

> <b_mmod_Minimization_Converged-OPLS-2005>
0

> <r_mmod_RMS_Derivative-OPLS-2005>
6.49495792388916

$$$$
79
                    3D
 Structure written by MMmdl.
170178  0  0  1  0            999 V2000
  -30.6087  -14.7007   20.5448 C   0  0  0  0  0  0
  -30.4454  -12.4425   19.4555 C   0  0  0  0  0  0
  -29.5113  -12.5208   18.2259 C   0  0  0  0  0  0
  -28.0369  -12.3292   18.6367 C   0  0  0  0  0  0
  -27.6491  -13.2065   19.8534 C   0  0  2  0  0  0
  -28.6941  -13.0783   20.9832 C   0  0  0  0  0  0
  -25.2583  -13.8137   20.5690 C   0  0  0  0  0  0
  -24.1826  -13.0421   20.9156 C   0  0  0  0  0  0
  -24.6379  -11.6885   20.8713 C   0  0  0  0  0  0
  -23.9046  -10.4279   21.0397 C   0  0  0  0  0  0
  -24.3605   -9.4202   21.9179 C   0  0  0  0  0  0
  -23.6283   -8.2237   22.0754 C   0  0  0  0  0  0
  -22.4264   -8.0274   21.3546 C   0  0  0  0  0  0
  -21.9894   -9.0244   20.4646 C   0  0  0  0  0  0
  -22.7219  -10.2122   20.3051 C   0  0  0  0  0  0
  -21.6850   -6.0731   22.5279 C   0  0  0  0  0  0
  -21.4010   -6.5636   23.8212 C   0  0  0  0  0  0
  -21.3660   -5.6791   24.9175 C   0  0  0  0  0  0
  -21.6045   -4.3053   24.7227 C   0  0  0  0  0  0
  -21.8819   -3.8144   23.4348 C   0  0  0  0  0  0
  -21.9192   -4.6960   22.3404 C   0  0  0  0  0  0
  -22.7860  -13.5230   21.1844 C   0  0  0  0  0  0
  -22.1664   -4.2147   21.0982 F   0  0  0  0  0  0
  -21.5632   -3.4536   25.7741 F   0  0  0  0  0  0
  -30.0004  -13.4660   20.4296 N   0  0  0  0  0  0
  -26.2975  -12.9284   20.3278 N   0  0  0  0  0  0
  -25.9300  -11.6450   20.5714 N   0  0  0  0  0  0
  -22.0510  -12.8219   22.0406 N   0  0  0  0  0  0
  -25.4381  -15.1854   20.4209 N   0  0  0  0  0  0
  -31.7564  -14.8403   20.1066 O   0  0  0  0  0  0
  -21.6633   -6.8871   21.4240 O   0  0  0  0  0  0
  -22.3538  -14.5539   20.6703 O   0  0  0  0  0  0
  -24.6273  -31.8589   23.2017 C   0  0  0  0  0  0
  -25.9115  -32.4771   23.8349 C   0  0  1  0  0  0
  -27.2216  -27.2878   20.1358 C   0  0  0  0  0  0
  -25.5928  -33.8573   24.2272 N   0  0  0  0  0  0
  -23.4220  -30.4813   21.5450 C   0  0  2  0  0  0
  -24.8687  -28.9262   20.1213 C   0  0  0  0  0  0
  -22.7478  -29.4620   22.4941 C   0  0  0  0  0  0
  -18.0287  -28.1382   22.8488 C   0  0  0  0  0  0
  -24.1490  -36.7292   23.2638 C   0  0  0  0  0  0
  -25.9652  -30.7774   21.3800 C   0  0  0  0  0  0
  -26.0369  -29.3984   20.7324 C   0  0  0  0  0  0
  -27.2157  -28.5908   20.7304 C   0  0  0  0  0  0
  -26.0399  -26.8887   19.4787 C   0  0  0  0  0  0
  -24.8722  -27.6750   19.4869 C   0  0  0  0  0  0
  -23.6397  -29.8121   20.1627 C   0  0  0  0  0  0
  -25.4116  -36.3082   24.0327 C   0  0  1  0  0  0
  -20.5888  -28.3689   23.1282 C   0  0  2  0  0  0
  -20.6776  -26.9411   22.5410 C   0  0  0  0  0  0
  -19.5752  -26.6383   21.5212 C   0  0  0  0  0  0
  -18.1932  -26.7926   22.1625 C   0  0  0  0  0  0
  -19.1539  -28.8852   23.2879 C   0  0  0  0  0  0
  -18.9461  -30.1456   23.8895 C   0  0  0  0  0  0
  -17.6461  -30.6585   24.0565 C   0  0  0  0  0  0
  -25.9054  -34.9450   23.5101 C   0  0  0  0  0  0
  -16.5352  -29.9083   23.6330 C   0  0  0  0  0  0
  -16.7273  -28.6501   23.0352 C   0  0  0  0  0  0
  -26.4497  -31.6583   25.0722 C   0  0  0  0  0  0
  -25.3726  -31.3719   26.1442 C   0  0  0  0  0  0
  -27.0346  -30.3005   24.6191 C   0  0  0  0  0  0
  -27.6058  -32.4321   25.7492 C   0  0  0  0  0  0
  -27.5579  -37.1803   24.8465 C   0  0  0  0  0  0
  -21.4191  -29.3044   22.3679 N   0  0  0  0  0  0
  -26.4293  -37.3777   23.9407 N   0  0  0  0  0  0
  -24.6901  -31.0575   22.0984 N   0  0  0  0  0  0
  -23.4193  -28.8158   23.3026 O   0  0  0  0  0  0
  -28.3660  -26.4732   20.0751 O   0  0  0  0  0  0
  -26.5623  -34.8918   22.4669 O   0  0  0  0  0  0
  -23.5434  -32.1401   23.7332 O   0  0  0  0  0  0
  -29.9839  -22.1427   20.6502 C   0  0  0  0  0  0
  -28.6897  -22.3562   20.2221 C   0  0  0  0  0  0
  -29.1873  -20.0697   20.2718 C   0  0  0  0  0  0
  -26.5654  -20.7569   18.1007 C   0  0  0  0  0  0
  -28.8612  -18.0806   18.6603 C   0  0  0  0  0  0
  -26.4638  -23.6145   20.3147 C   0  0  0  0  0  0
  -28.1520  -23.9924   18.4056 C   0  0  0  0  0  0
  -30.0147  -15.9353   22.6923 C   0  0  0  0  0  0
  -30.2611  -17.5027   20.6786 C   0  0  0  0  0  0
  -26.8646  -20.5868   19.6009 C   0  0  0  0  0  0
  -28.4684  -25.0893   20.6496 C   0  0  0  0  0  0
  -29.1109  -18.4882   20.1276 C   0  0  1  0  0  0
  -27.9515  -23.7412   19.9144 C   0  0  0  0  0  0
  -29.8670  -15.9977   21.1590 C   0  0  1  0  0  0
  -28.2228  -21.0234   20.0163 N   0  0  0  0  0  0
  -30.2473  -20.7861   20.6595 N   0  3  0  0  0  0
  -28.5605  -15.8933   20.9183 F   0  0  0  0  0  0
  -31.4820  -12.5858   19.1471 H   0  0  0  0  0  0
  -30.4068  -11.4484   19.9042 H   0  0  0  0  0  0
  -29.7945  -11.7694   17.4879 H   0  0  0  0  0  0
  -29.6320  -13.4893   17.7381 H   0  0  0  0  0  0
  -27.8928  -11.2759   18.8806 H   0  0  0  0  0  0
  -27.3785  -12.5392   17.7931 H   0  0  0  0  0  0
  -27.6549  -14.2309   19.4854 H   0  0  0  0  0  0
  -28.7305  -12.0524   21.3529 H   0  0  0  0  0  0
  -28.4089  -13.6822   21.8424 H   0  0  0  0  0  0
  -25.2756   -9.5678   22.4745 H   0  0  0  0  0  0
  -23.9996   -7.4627   22.7471 H   0  0  0  0  0  0
  -21.0827   -8.8755   19.8950 H   0  0  0  0  0  0
  -22.3679  -10.9658   19.6155 H   0  0  0  0  0  0
  -21.1994   -7.6144   23.9711 H   0  0  0  0  0  0
  -21.1488   -6.0524   25.9078 H   0  0  0  0  0  0
  -22.0598   -2.7607   23.2849 H   0  0  0  0  0  0
  -22.4128  -11.9871   22.4775 H   0  0  0  0  0  0
  -21.1133  -13.1246   22.2628 H   0  0  0  0  0  0
  -24.6950  -15.8562   20.5788 H   0  0  0  0  0  0
  -26.3372  -15.6158   20.2383 H   0  0  0  0  0  0
  -26.7179  -32.5436   23.1090 H   0  0  0  0  0  0
  -25.0076  -33.9718   25.0417 H   0  0  0  0  0  0
  -22.7169  -31.3022   21.3989 H   0  0  0  0  0  0
  -23.3752  -35.9625   23.3302 H   0  0  0  0  0  0
  -24.3577  -36.8915   22.2052 H   0  0  0  0  0  0
  -23.7246  -37.6495   23.6663 H   0  0  0  0  0  0
  -26.0984  -31.5341   20.6060 H   0  0  0  0  0  0
  -26.8456  -30.8308   22.0085 H   0  0  0  0  0  0
  -28.1178  -28.9571   21.2002 H   0  0  0  0  0  0
  -26.0035  -25.9621   18.9312 H   0  0  0  0  0  0
  -23.9836  -27.3150   18.9866 H   0  0  0  0  0  0
  -23.7654  -30.5861   19.4051 H   0  0  0  0  0  0
  -22.7589  -29.2441   19.8579 H   0  0  0  0  0  0
  -25.1296  -36.1934   25.0820 H   0  0  0  0  0  0
  -20.9977  -28.3263   24.1404 H   0  0  0  0  0  0
  -20.5678  -26.2297   23.3609 H   0  0  0  0  0  0
  -21.6644  -26.7442   22.1201 H   0  0  0  0  0  0
  -19.6915  -25.6293   21.1242 H   0  0  0  0  0  0
  -19.6688  -27.3195   20.6743 H   0  0  0  0  0  0
  -17.4200  -26.6674   21.4028 H   0  0  0  0  0  0
  -18.0334  -26.0064   22.9019 H   0  0  0  0  0  0
  -19.7936  -30.7276   24.2261 H   0  0  0  0  0  0
  -17.5014  -31.6265   24.5166 H   0  0  0  0  0  0
  -15.5353  -30.2986   23.7656 H   0  0  0  0  0  0
  -15.8672  -28.0823   22.7064 H   0  0  0  0  0  0
  -24.5907  -30.7063   25.7761 H   0  0  0  0  0  0
  -24.8904  -32.2882   26.4861 H   0  0  0  0  0  0
  -25.8043  -30.8897   27.0222 H   0  0  0  0  0  0
  -26.2922  -29.6747   24.1220 H   0  0  0  0  0  0
  -27.4041  -29.7269   25.4702 H   0  0  0  0  0  0
  -27.8795  -30.4280   23.9419 H   0  0  0  0  0  0
  -27.2671  -33.3626   26.2059 H   0  0  0  0  0  0
  -28.3872  -32.6873   25.0320 H   0  0  0  0  0  0
  -28.0720  -31.8450   26.5415 H   0  0  0  0  0  0
  -28.2600  -38.0097   24.7511 H   0  0  0  0  0  0
  -28.1075  -36.2630   24.6297 H   0  0  0  0  0  0
  -27.2295  -37.1456   25.8867 H   0  0  0  0  0  0
  -20.9371  -29.8768   21.6887 H   0  0  0  0  0  0
  -26.0175  -38.2854   24.1402 H   0  0  0  0  0  0
  -30.7486  -22.8584   20.9179 H   0  0  0  0  0  0
  -25.7777  -20.0689   17.7928 H   0  0  0  0  0  0
  -27.4404  -20.5539   17.4831 H   0  0  0  0  0  0
  -26.2067  -21.7533   17.8573 H   0  0  0  0  0  0
  -27.9136  -18.4410   18.2723 H   0  0  0  0  0  0
  -28.8361  -16.9967   18.5469 H   0  0  0  0  0  0
  -29.6520  -18.4558   18.0100 H   0  0  0  0  0  0
  -25.8571  -23.1314   19.5539 H   0  0  0  0  0  0
  -25.9879  -24.5673   20.5143 H   0  0  0  0  0  0
  -26.3619  -23.0677   21.2525 H   0  0  0  0  0  0
  -27.8247  -23.1609   17.7899 H   0  0  0  0  0  0
  -29.2087  -24.1432   18.1839 H   0  0  0  0  0  0
  -27.6316  -24.8791   18.0521 H   0  0  0  0  0  0
  -29.3805  -16.6767   23.1786 H   0  0  0  0  0  0
  -31.0438  -16.1304   22.9950 H   0  0  0  0  0  0
  -29.7424  -14.9621   23.0990 H   0  0  0  0  0  0
  -30.7180  -18.0045   21.5312 H   0  0  0  0  0  0
  -31.0687  -17.4524   19.9476 H   0  0  0  0  0  0
  -26.7316  -19.5404   19.8612 H   0  0  0  0  0  0
  -26.1188  -21.0723   20.2228 H   0  0  0  0  0  0
  -29.5454  -24.9700   20.7627 H   0  0  0  0  0  0
  -28.0991  -25.1122   21.6760 H   0  0  0  0  0  0
  -28.2269  -18.2451   20.7153 H   0  0  0  0  0  0
  -31.1415  -20.3854   20.9146 H   0  0  0  0  0  0
  1 25  1  0  0  0
  1 30  2  0  0  0
  1 84  1  0  0  0
  2  3  1  0  0  0
  2 25  1  0  0  0
  2 88  1  0  0  0
  2 89  1  0  0  0
  3  4  1  0  0  0
  3 90  1  0  0  0
  3 91  1  0  0  0
  4  5  1  0  0  0
  4 92  1  0  0  0
  4 93  1  0  0  0
  5  6  1  0  0  0
  5 26  1  0  0  0
  5 94  1  0  0  0
  6 25  1  0  0  0
  6 95  1  0  0  0
  6 96  1  0  0  0
  7  8  2  0  0  0
  7 26  1  0  0  0
  7 29  1  0  0  0
  8  9  1  0  0  0
  8 22  1  0  0  0
  9 10  1  0  0  0
  9 27  2  0  0  0
 10 11  2  0  0  0
 10 15  1  0  0  0
 11 12  1  0  0  0
 11 97  1  0  0  0
 12 13  2  0  0  0
 12 98  1  0  0  0
 13 14  1  0  0  0
 13 31  1  0  0  0
 14 15  2  0  0  0
 14 99  1  0  0  0
 15100  1  0  0  0
 16 17  2  0  0  0
 16 21  1  0  0  0
 16 31  1  0  0  0
 17 18  1  0  0  0
 17101  1  0  0  0
 18 19  2  0  0  0
 18102  1  0  0  0
 19 20  1  0  0  0
 19 24  1  0  0  0
 20 21  2  0  0  0
 20103  1  0  0  0
 21 23  1  0  0  0
 22 28  1  0  0  0
 22 32  2  0  0  0
 26 27  1  0  0  0
 28104  1  0  0  0
 28105  1  0  0  0
 29106  1  0  0  0
 29107  1  0  0  0
 33 34  1  0  0  0
 33 66  1  0  0  0
 33 70  2  0  0  0
 34 36  1  0  0  0
 34 59  1  0  0  0
 34108  1  0  0  0
 35 44  2  0  0  0
 35 45  1  0  0  0
 35 68  1  0  0  0
 36 56  1  0  0  0
 36109  1  0  0  0
 37 39  1  0  0  0
 37 47  1  0  0  0
 37 66  1  0  0  0
 37110  1  0  0  0
 38 43  2  0  0  0
 38 46  1  0  0  0
 38 47  1  0  0  0
 39 64  1  0  0  0
 39 67  2  0  0  0
 40 52  1  0  0  0
 40 53  2  0  0  0
 40 58  1  0  0  0
 41111  1  0  0  0
 41112  1  0  0  0
 41113  1  0  0  0
 41 48  1  0  0  0
 42 43  1  0  0  0
 42 66  1  0  0  0
 42114  1  0  0  0
 42115  1  0  0  0
 43 44  1  0  0  0
 44116  1  0  0  0
 45 46  2  0  0  0
 45117  1  0  0  0
 46118  1  0  0  0
 47119  1  0  0  0
 47120  1  0  0  0
 48 56  1  0  0  0
 48 65  1  0  0  0
 48121  1  0  0  0
 49 50  1  0  0  0
 49 53  1  0  0  0
 49 64  1  0  0  0
 49122  1  0  0  0
 50 51  1  0  0  0
 50123  1  0  0  0
 50124  1  0  0  0
 51 52  1  0  0  0
 51125  1  0  0  0
 51126  1  0  0  0
 52127  1  0  0  0
 52128  1  0  0  0
 53 54  1  0  0  0
 54 55  2  0  0  0
 54129  1  0  0  0
 55 57  1  0  0  0
 55130  1  0  0  0
 56 69  2  0  0  0
 57 58  2  0  0  0
 57131  1  0  0  0
 58132  1  0  0  0
 59 60  1  0  0  0
 59 61  1  0  0  0
 59 62  1  0  0  0
 60133  1  0  0  0
 60134  1  0  0  0
 60135  1  0  0  0
 61136  1  0  0  0
 61137  1  0  0  0
 61138  1  0  0  0
 62139  1  0  0  0
 62140  1  0  0  0
 62141  1  0  0  0
 63 65  1  0  0  0
 63142  1  0  0  0
 63143  1  0  0  0
 63144  1  0  0  0
 64145  1  0  0  0
 65146  1  0  0  0
 68 81  1  0  0  0
 71 72  2  0  0  0
 71 86  1  0  0  0
 71147  1  0  0  0
 72 83  1  0  0  0
 72 85  1  0  0  0
 73 82  1  0  0  0
 73 85  1  0  0  0
 73 86  2  0  0  0
 74 80  1  0  0  0
 74148  1  0  0  0
 74149  1  0  0  0
 74150  1  0  0  0
 75151  1  0  0  0
 75152  1  0  0  0
 75153  1  0  0  0
 75 82  1  0  0  0
 76154  1  0  0  0
 76155  1  0  0  0
 76156  1  0  0  0
 76 83  1  0  0  0
 77 83  1  0  0  0
 77157  1  0  0  0
 77158  1  0  0  0
 77159  1  0  0  0
 78160  1  0  0  0
 78161  1  0  0  0
 78162  1  0  0  0
 78 84  1  0  0  0
 79 82  1  0  0  0
 79 84  1  0  0  0
 79163  1  0  0  0
 79164  1  0  0  0
 80 85  1  0  0  0
 80165  1  0  0  0
 80166  1  0  0  0
 81 83  1  0  0  0
 81167  1  0  0  0
 81168  1  0  0  0
 82169  1  0  0  0
 84 87  1  0  0  0
 86170  1  0  0  0
M  CHG  1  86   1
M  ISO  4   1 100  68 101  81 101  84 100
M  END
> <chiral flag>
0

> <version>
0

> <s_m_source_file>
/data/baiqing/PycharmProjects/Reinvent-master-3.2/result/LINK_invent/BTK/process_docking_weight1_custom_sum_contain_oxygen_bond_distance_aromatic_linkinvent_7_9_3/rearranged_h_0072.sdf

> <i_m_source_file_index>
79

> <r_mmod_Potential_Energy-OPLS-2005>
232.714141845703

> <r_mmod_Stretch_Energy-OPLS-2005>
132.2490234375

> <r_mmod_Bend_Energy-OPLS-2005>
194.337463378906

> <r_mmod_Torsional_Energy-OPLS-2005>
267.780395507812

> <r_mmod_Improper_Torsional_Energy-OPLS-2005>
2.60931801795959

> <r_mmod_Van_der_Waal_Energy-OPLS-2005>
131.330230712891

> <r_mmod_Electrostatic_Energy-OPLS-2005>
-169.543869018555

> <r_mmod_Solvation_Energy-OPLS-2005>
-384.38623046875

> <b_mmod_Minimization_Converged-OPLS-2005>
0

> <r_mmod_RMS_Derivative-OPLS-2005>
0.543615758419037

$$$$
80
                    3D
 Structure written by MMmdl.
178186  0  0  1  0            999 V2000
  -30.7934  -14.6117   20.3030 C   0  0  0  0  0  0
  -30.4031  -12.3605   19.4328 C   0  0  0  0  0  0
  -29.4735  -12.4094   18.2086 C   0  0  0  0  0  0
  -28.0063  -12.2440   18.6474 C   0  0  0  0  0  0
  -27.6142  -13.1684   19.8256 C   0  0  2  0  0  0
  -28.7010  -13.2520   20.9267 C   0  0  0  0  0  0
  -25.2530  -13.7981   20.5838 C   0  0  0  0  0  0
  -24.1759  -13.0318   20.9319 C   0  0  0  0  0  0
  -24.6261  -11.6781   20.8834 C   0  0  0  0  0  0
  -23.8935  -10.4209   21.0457 C   0  0  0  0  0  0
  -24.3525   -9.4136   21.9217 C   0  0  0  0  0  0
  -23.6212   -8.2171   22.0765 C   0  0  0  0  0  0
  -22.4206   -8.0214   21.3547 C   0  0  0  0  0  0
  -21.9830   -9.0184   20.4653 C   0  0  0  0  0  0
  -22.7137  -10.2065   20.3080 C   0  0  0  0  0  0
  -21.6822   -6.0702   22.5289 C   0  0  0  0  0  0
  -21.3993   -6.5617   23.8222 C   0  0  0  0  0  0
  -21.3681   -5.6780   24.9192 C   0  0  0  0  0  0
  -21.6065   -4.3034   24.7251 C   0  0  0  0  0  0
  -21.8820   -3.8128   23.4368 C   0  0  0  0  0  0
  -21.9177   -4.6941   22.3415 C   0  0  0  0  0  0
  -22.7807  -13.5191   21.1932 C   0  0  0  0  0  0
  -22.1637   -4.2122   21.0992 F   0  0  0  0  0  0
  -21.5643   -3.4525   25.7764 F   0  0  0  0  0  0
  -30.0140  -13.4822   20.3019 N   0  0  0  0  0  0
  -26.2843  -12.9009   20.3427 N   0  0  0  0  0  0
  -25.9181  -11.6239   20.5935 N   0  0  0  0  0  0
  -22.0393  -12.8208   22.0462 N   0  0  0  0  0  0
  -25.4255  -15.1701   20.4242 N   0  0  0  0  0  0
  -32.0009  -14.4714   20.4239 O   0  0  0  0  0  0
  -21.6578   -6.8820   21.4240 O   0  0  0  0  0  0
  -22.3570  -14.5518   20.6728 O   0  0  0  0  0  0
  -24.6165  -31.8673   23.2084 C   0  0  0  0  0  0
  -25.9053  -32.4817   23.8376 C   0  0  1  0  0  0
  -27.2373  -27.4159   20.1059 C   0  0  0  0  0  0
  -25.5923  -33.8614   24.2309 N   0  0  0  0  0  0
  -23.4051  -30.4925   21.5469 C   0  0  2  0  0  0
  -24.8527  -28.9609   20.1077 C   0  0  0  0  0  0
  -22.7416  -29.4679   22.4956 C   0  0  0  0  0  0
  -18.0278  -28.1397   22.8504 C   0  0  0  0  0  0
  -24.1482  -36.7291   23.2641 C   0  0  0  0  0  0
  -25.9349  -30.8304   21.3627 C   0  0  0  0  0  0
  -26.0123  -29.4648   20.7083 C   0  0  0  0  0  0
  -27.2045  -28.7008   20.7017 C   0  0  0  0  0  0
  -26.0566  -26.9402   19.4857 C   0  0  0  0  0  0
  -24.8722  -27.7015   19.4875 C   0  0  0  0  0  0
  -23.6138  -29.8258   20.1602 C   0  0  0  0  0  0
  -25.4107  -36.3100   24.0341 C   0  0  1  0  0  0
  -20.5871  -28.3696   23.1306 C   0  0  2  0  0  0
  -20.6772  -26.9433   22.5415 C   0  0  0  0  0  0
  -19.5744  -26.6402   21.5223 C   0  0  0  0  0  0
  -18.1922  -26.7953   22.1625 C   0  0  0  0  0  0
  -19.1526  -28.8862   23.2908 C   0  0  0  0  0  0
  -18.9465  -30.1470   23.8921 C   0  0  0  0  0  0
  -17.6466  -30.6606   24.0577 C   0  0  0  0  0  0
  -25.9042  -34.9476   23.5111 C   0  0  0  0  0  0
  -16.5355  -29.9116   23.6334 C   0  0  0  0  0  0
  -16.7269  -28.6524   23.0362 C   0  0  0  0  0  0
  -26.4484  -31.6607   25.0704 C   0  0  0  0  0  0
  -25.3750  -31.3743   26.1450 C   0  0  0  0  0  0
  -27.0318  -30.3050   24.6088 C   0  0  0  0  0  0
  -27.6035  -32.4340   25.7481 C   0  0  0  0  0  0
  -27.5574  -37.1803   24.8473 C   0  0  0  0  0  0
  -21.4138  -29.3065   22.3695 N   0  0  0  0  0  0
  -26.4282  -37.3790   23.9421 N   0  0  0  0  0  0
  -24.6704  -31.0778   22.0975 N   0  0  0  0  0  0
  -23.4184  -28.8209   23.2989 O   0  0  0  0  0  0
  -28.4076  -26.6675   20.1553 O   0  0  0  0  0  0
  -26.5584  -34.8940   22.4660 O   0  0  0  0  0  0
  -23.5350  -32.1420   23.7482 O   0  0  0  0  0  0
  -29.8371  -18.2995   20.7165 C   0  0  0  0  0  0
  -30.6188  -19.4478   21.0231 C   0  0  0  0  0  0
  -30.7259  -17.2946   20.3829 C   0  0  0  0  0  0
  -34.0841  -18.1263   19.3530 C   0  0  0  0  0  0
  -31.1763  -16.0399   18.2542 C   0  0  0  0  0  0
  -28.9342  -16.0747   19.1590 C   0  0  0  0  0  0
  -31.8230  -22.0865   19.5386 C   0  0  0  0  0  0
  -29.9543  -20.7881   18.5591 C   0  0  0  0  0  0
  -30.7967  -25.1308   19.5769 C   0  0  0  0  0  0
  -29.7754  -24.3239   21.7458 C   0  0  0  0  0  0
  -30.1877  -20.9161   21.0946 C   0  0  0  0  0  0
  -29.3692  -22.9657   19.6049 C   0  0  0  0  0  0
  -33.3593  -17.3690   20.4793 C   0  0  0  0  0  0
  -28.3196  -25.2523   19.8817 C   0  0  0  0  0  0
  -30.4025  -15.9935   19.6044 C   0  0  0  0  0  0
  -30.3396  -21.7188   19.7416 C   0  0  0  0  0  0
  -29.5959  -24.4023   20.2190 C   0  0  0  0  0  0
  -31.8906  -19.1187   21.1218 N   0  0  0  0  0  0
  -31.9887  -17.8423   20.6736 N   0  0  0  0  0  0
  -31.4443  -12.4178   19.1108 H   0  0  0  0  0  0
  -30.3021  -11.4107   19.9613 H   0  0  0  0  0  0
  -29.7371  -11.6144   17.5098 H   0  0  0  0  0  0
  -29.5998  -13.3447   17.6657 H   0  0  0  0  0  0
  -27.8704  -11.2016   18.9345 H   0  0  0  0  0  0
  -27.3411  -12.4148   17.8001 H   0  0  0  0  0  0
  -27.4775  -14.1216   19.3605 H   0  0  0  0  0  0
  -28.7276  -12.3317   21.5101 H   0  0  0  0  0  0
  -28.4711  -14.0613   21.6215 H   0  0  0  0  0  0
  -25.2674   -9.5608   22.4796 H   0  0  0  0  0  0
  -23.9927   -7.4560   22.7478 H   0  0  0  0  0  0
  -21.0781   -8.8687   19.8949 H   0  0  0  0  0  0
  -22.3603  -10.9599   19.6188 H   0  0  0  0  0  0
  -21.1944   -7.6118   23.9716 H   0  0  0  0  0  0
  -21.1530   -6.0498   25.9099 H   0  0  0  0  0  0
  -22.0576   -2.7585   23.2865 H   0  0  0  0  0  0
  -22.3926  -11.9813   22.4816 H   0  0  0  0  0  0
  -21.1056  -13.1335   22.2731 H   0  0  0  0  0  0
  -24.6564  -15.8208   20.5439 H   0  0  0  0  0  0
  -26.2813  -15.6191   20.1227 H   0  0  0  0  0  0
  -26.7123  -32.5527   23.1136 H   0  0  0  0  0  0
  -25.0166  -33.9778   25.0521 H   0  0  0  0  0  0
  -22.6944  -31.3099   21.4082 H   0  0  0  0  0  0
  -23.3752  -35.9614   23.3315 H   0  0  0  0  0  0
  -24.3575  -36.8884   22.2052 H   0  0  0  0  0  0
  -23.7231  -37.6498   23.6640 H   0  0  0  0  0  0
  -26.0490  -31.5987   20.5965 H   0  0  0  0  0  0
  -26.8205  -30.8814   21.9842 H   0  0  0  0  0  0
  -28.0961  -29.0875   21.1748 H   0  0  0  0  0  0
  -26.0240  -25.9805   18.9921 H   0  0  0  0  0  0
  -23.9855  -27.3139   19.0055 H   0  0  0  0  0  0
  -23.7168  -30.5996   19.3991 H   0  0  0  0  0  0
  -22.7394  -29.2413   19.8665 H   0  0  0  0  0  0
  -25.1287  -36.1946   25.0832 H   0  0  0  0  0  0
  -20.9981  -28.3271   24.1419 H   0  0  0  0  0  0
  -20.5696  -26.2314   23.3609 H   0  0  0  0  0  0
  -21.6641  -26.7488   22.1191 H   0  0  0  0  0  0
  -19.6907  -25.6312   21.1256 H   0  0  0  0  0  0
  -19.6679  -27.3207   20.6747 H   0  0  0  0  0  0
  -17.4201  -26.6727   21.4018 H   0  0  0  0  0  0
  -18.0305  -26.0087   22.9007 H   0  0  0  0  0  0
  -19.7944  -30.7277   24.2294 H   0  0  0  0  0  0
  -17.5033  -31.6289   24.5175 H   0  0  0  0  0  0
  -15.5359  -30.3037   23.7652 H   0  0  0  0  0  0
  -15.8663  -28.0854   22.7074 H   0  0  0  0  0  0
  -24.5921  -30.7084   25.7806 H   0  0  0  0  0  0
  -24.8959  -32.2924   26.4860 H   0  0  0  0  0  0
  -25.8110  -30.8950   27.0227 H   0  0  0  0  0  0
  -26.2868  -29.6809   24.1141 H   0  0  0  0  0  0
  -27.4098  -29.7277   25.4539 H   0  0  0  0  0  0
  -27.8696  -30.4363   23.9230 H   0  0  0  0  0  0
  -27.2620  -33.3641   26.2037 H   0  0  0  0  0  0
  -28.3866  -32.6903   25.0332 H   0  0  0  0  0  0
  -28.0677  -31.8489   26.5429 H   0  0  0  0  0  0
  -28.2600  -38.0091   24.7515 H   0  0  0  0  0  0
  -28.1055  -36.2628   24.6293 H   0  0  0  0  0  0
  -27.2298  -37.1447   25.8876 H   0  0  0  0  0  0
  -20.9287  -29.8799   21.6939 H   0  0  0  0  0  0
  -26.0165  -38.2862   24.1424 H   0  0  0  0  0  0
  -28.7657  -18.2927   20.5751 H   0  0  0  0  0  0
  -35.0933  -17.7363   19.2069 H   0  0  0  0  0  0
  -34.1698  -19.1904   19.5812 H   0  0  0  0  0  0
  -33.5541  -18.0346   18.4038 H   0  0  0  0  0  0
  -30.9367  -16.9409   17.6885 H   0  0  0  0  0  0
  -30.9312  -15.1911   17.6173 H   0  0  0  0  0  0
  -32.2568  -16.0190   18.3733 H   0  0  0  0  0  0
  -28.7171  -15.3422   18.3869 H   0  0  0  0  0  0
  -28.7134  -17.0255   18.6762 H   0  0  0  0  0  0
  -28.2582  -15.9941   20.0093 H   0  0  0  0  0  0
  -32.4358  -21.1940   19.4019 H   0  0  0  0  0  0
  -32.2330  -22.6069   20.4041 H   0  0  0  0  0  0
  -31.9725  -22.7063   18.6539 H   0  0  0  0  0  0
  -30.6338  -19.9412   18.4479 H   0  0  0  0  0  0
  -29.9709  -21.3082   17.6011 H   0  0  0  0  0  0
  -28.9486  -20.3846   18.6907 H   0  0  0  0  0  0
  -31.7536  -24.6870   19.8383 H   0  0  0  0  0  0
  -30.8586  -26.1686   19.9071 H   0  0  0  0  0  0
  -30.7182  -25.1445   18.4890 H   0  0  0  0  0  0
  -30.7411  -23.8941   22.0134 H   0  0  0  0  0  0
  -29.0019  -23.7102   22.2070 H   0  0  0  0  0  0
  -29.7224  -25.3136   22.2024 H   0  0  0  0  0  0
  -30.7244  -21.4255   21.8960 H   0  0  0  0  0  0
  -29.1435  -20.9434   21.4038 H   0  0  0  0  0  0
  -28.3798  -22.6260   19.9158 H   0  0  0  0  0  0
  -29.2501  -23.1574   18.5379 H   0  0  0  0  0  0
  -33.9006  -17.4991   21.4163 H   0  0  0  0  0  0
  -33.3898  -16.3103   20.2674 H   0  0  0  0  0  0
  -27.4717  -24.8303   20.4257 H   0  0  0  0  0  0
  -28.0974  -25.1435   18.8194 H   0  0  0  0  0  0
  1 25  1  0  0  0
  1 30  2  0  0  0
  1 85  1  0  0  0
  2  3  1  0  0  0
  2 25  1  0  0  0
  2 90  1  0  0  0
  2 91  1  0  0  0
  3  4  1  0  0  0
  3 92  1  0  0  0
  3 93  1  0  0  0
  4  5  1  0  0  0
  4 94  1  0  0  0
  4 95  1  0  0  0
  5  6  1  0  0  0
  5 26  1  0  0  0
  5 96  1  0  0  0
  6 25  1  0  0  0
  6 97  1  0  0  0
  6 98  1  0  0  0
  7  8  2  0  0  0
  7 26  1  0  0  0
  7 29  1  0  0  0
  8  9  1  0  0  0
  8 22  1  0  0  0
  9 10  1  0  0  0
  9 27  2  0  0  0
 10 11  2  0  0  0
 10 15  1  0  0  0
 11 12  1  0  0  0
 11 99  1  0  0  0
 12 13  2  0  0  0
 12100  1  0  0  0
 13 14  1  0  0  0
 13 31  1  0  0  0
 14 15  2  0  0  0
 14101  1  0  0  0
 15102  1  0  0  0
 16 17  2  0  0  0
 16 21  1  0  0  0
 16 31  1  0  0  0
 17 18  1  0  0  0
 17103  1  0  0  0
 18 19  2  0  0  0
 18104  1  0  0  0
 19 20  1  0  0  0
 19 24  1  0  0  0
 20 21  2  0  0  0
 20105  1  0  0  0
 21 23  1  0  0  0
 22 28  1  0  0  0
 22 32  2  0  0  0
 26 27  1  0  0  0
 28106  1  0  0  0
 28107  1  0  0  0
 29108  1  0  0  0
 29109  1  0  0  0
 33 34  1  0  0  0
 33 66  1  0  0  0
 33 70  2  0  0  0
 34 36  1  0  0  0
 34 59  1  0  0  0
 34110  1  0  0  0
 35 44  2  0  0  0
 35 45  1  0  0  0
 35 68  1  0  0  0
 36 56  1  0  0  0
 36111  1  0  0  0
 37 39  1  0  0  0
 37 47  1  0  0  0
 37 66  1  0  0  0
 37112  1  0  0  0
 38 43  2  0  0  0
 38 46  1  0  0  0
 38 47  1  0  0  0
 39 64  1  0  0  0
 39 67  2  0  0  0
 40 52  1  0  0  0
 40 53  2  0  0  0
 40 58  1  0  0  0
 41113  1  0  0  0
 41114  1  0  0  0
 41115  1  0  0  0
 41 48  1  0  0  0
 42 43  1  0  0  0
 42 66  1  0  0  0
 42116  1  0  0  0
 42117  1  0  0  0
 43 44  1  0  0  0
 44118  1  0  0  0
 45 46  2  0  0  0
 45119  1  0  0  0
 46120  1  0  0  0
 47121  1  0  0  0
 47122  1  0  0  0
 48 56  1  0  0  0
 48 65  1  0  0  0
 48123  1  0  0  0
 49 50  1  0  0  0
 49 53  1  0  0  0
 49 64  1  0  0  0
 49124  1  0  0  0
 50 51  1  0  0  0
 50125  1  0  0  0
 50126  1  0  0  0
 51 52  1  0  0  0
 51127  1  0  0  0
 51128  1  0  0  0
 52129  1  0  0  0
 52130  1  0  0  0
 53 54  1  0  0  0
 54 55  2  0  0  0
 54131  1  0  0  0
 55 57  1  0  0  0
 55132  1  0  0  0
 56 69  2  0  0  0
 57 58  2  0  0  0
 57133  1  0  0  0
 58134  1  0  0  0
 59 60  1  0  0  0
 59 61  1  0  0  0
 59 62  1  0  0  0
 60135  1  0  0  0
 60136  1  0  0  0
 60137  1  0  0  0
 61138  1  0  0  0
 61139  1  0  0  0
 61140  1  0  0  0
 62141  1  0  0  0
 62142  1  0  0  0
 62143  1  0  0  0
 63 65  1  0  0  0
 63144  1  0  0  0
 63145  1  0  0  0
 63146  1  0  0  0
 64147  1  0  0  0
 65148  1  0  0  0
 68 84  1  0  0  0
 71 72  1  0  0  0
 71 73  2  0  0  0
 71149  1  0  0  0
 72 81  1  0  0  0
 72 88  2  0  0  0
 73 85  1  0  0  0
 73 89  1  0  0  0
 74 83  1  0  0  0
 74150  1  0  0  0
 74151  1  0  0  0
 74152  1  0  0  0
 75153  1  0  0  0
 75154  1  0  0  0
 75155  1  0  0  0
 75 85  1  0  0  0
 76 85  1  0  0  0
 76156  1  0  0  0
 76157  1  0  0  0
 76158  1  0  0  0
 77159  1  0  0  0
 77160  1  0  0  0
 77161  1  0  0  0
 77 86  1  0  0  0
 78 86  1  0  0  0
 78162  1  0  0  0
 78163  1  0  0  0
 78164  1  0  0  0
 79165  1  0  0  0
 79166  1  0  0  0
 79167  1  0  0  0
 79 87  1  0  0  0
 80 87  1  0  0  0
 80168  1  0  0  0
 80169  1  0  0  0
 80170  1  0  0  0
 81 86  1  0  0  0
 81171  1  0  0  0
 81172  1  0  0  0
 82 86  1  0  0  0
 82 87  1  0  0  0
 82173  1  0  0  0
 82174  1  0  0  0
 83 89  1  0  0  0
 83175  1  0  0  0
 83176  1  0  0  0
 84 87  1  0  0  0
 84177  1  0  0  0
 84178  1  0  0  0
 88 89  1  0  0  0
M  ISO  4   1 100  68 101  84 101  85 100
M  END
> <chiral flag>
0

> <version>
0

> <s_m_source_file>
/data/baiqing/PycharmProjects/Reinvent-master-3.2/result/LINK_invent/BTK/process_docking_weight1_custom_sum_contain_oxygen_bond_distance_aromatic_linkinvent_7_9_3/rearranged_h_0072.sdf

> <i_m_source_file_index>
80

> <r_mmod_Potential_Energy-OPLS-2005>
289.141448974609

> <r_mmod_Stretch_Energy-OPLS-2005>
63.1269416809082

> <r_mmod_Bend_Energy-OPLS-2005>
181.238067626953

> <r_mmod_Torsional_Energy-OPLS-2005>
276.462677001953

> <r_mmod_Improper_Torsional_Energy-OPLS-2005>
19.2164859771729

> <r_mmod_Van_der_Waal_Energy-OPLS-2005>
154.209396362305

> <r_mmod_Electrostatic_Energy-OPLS-2005>
-301.776275634766

> <r_mmod_Solvation_Energy-OPLS-2005>
-182.336181640625

> <b_mmod_Minimization_Converged-OPLS-2005>
0

> <r_mmod_RMS_Derivative-OPLS-2005>
3.05266785621643

$$$$
81
                    3D
 Structure written by MMmdl.
176184  0  0  1  0            999 V2000
  -30.6313  -14.6387   20.4770 C   0  0  0  0  0  0
  -30.4519  -12.3744   19.4837 C   0  0  0  0  0  0
  -29.5262  -12.4746   18.2452 C   0  0  0  0  0  0
  -28.0440  -12.2966   18.6482 C   0  0  0  0  0  0
  -27.6527  -13.1683   19.8697 C   0  0  2  0  0  0
  -28.7053  -13.0018   20.9915 C   0  0  0  0  0  0
  -25.2558  -13.7996   20.5594 C   0  0  0  0  0  0
  -24.1814  -13.0377   20.9181 C   0  0  0  0  0  0
  -24.6322  -11.6808   20.8829 C   0  0  0  0  0  0
  -23.9001  -10.4234   21.0499 C   0  0  0  0  0  0
  -24.3568   -9.4156   21.9245 C   0  0  0  0  0  0
  -23.6270   -8.2189   22.0774 C   0  0  0  0  0  0
  -22.4267   -8.0231   21.3544 C   0  0  0  0  0  0
  -21.9909   -9.0205   20.4665 C   0  0  0  0  0  0
  -22.7210  -10.2088   20.3124 C   0  0  0  0  0  0
  -21.6835   -6.0741   22.5265 C   0  0  0  0  0  0
  -21.3996   -6.5643   23.8182 C   0  0  0  0  0  0
  -21.3660   -5.6803   24.9145 C   0  0  0  0  0  0
  -21.6037   -4.3065   24.7203 C   0  0  0  0  0  0
  -21.8835   -3.8162   23.4336 C   0  0  0  0  0  0
  -21.9179   -4.6982   22.3405 C   0  0  0  0  0  0
  -22.7828  -13.5196   21.1823 C   0  0  0  0  0  0
  -22.1662   -4.2178   21.0975 F   0  0  0  0  0  0
  -21.5642   -3.4549   25.7738 F   0  0  0  0  0  0
  -30.0165  -13.4048   20.4507 N   0  0  0  0  0  0
  -26.2972  -12.9095   20.3364 N   0  0  0  0  0  0
  -25.9250  -11.6316   20.5908 N   0  0  0  0  0  0
  -22.0454  -12.8237   22.0392 N   0  0  0  0  0  0
  -25.4257  -15.1723   20.3918 N   0  0  0  0  0  0
  -31.8121  -14.7099   20.1232 O   0  0  0  0  0  0
  -21.6603   -6.8873   21.4236 O   0  0  0  0  0  0
  -22.3530  -14.5488   20.6626 O   0  0  0  0  0  0
  -24.6194  -31.8645   23.2110 C   0  0  0  0  0  0
  -25.9052  -32.4830   23.8428 C   0  0  1  0  0  0
  -27.2412  -27.3889   20.0808 C   0  0  0  0  0  0
  -25.5887  -33.8635   24.2358 N   0  0  0  0  0  0
  -23.4115  -30.4924   21.5505 C   0  0  2  0  0  0
  -24.8568  -28.9546   20.1112 C   0  0  0  0  0  0
  -22.7418  -29.4655   22.4948 C   0  0  0  0  0  0
  -18.0276  -28.1370   22.8496 C   0  0  0  0  0  0
  -24.1480  -36.7341   23.2635 C   0  0  0  0  0  0
  -25.9447  -30.8215   21.3639 C   0  0  0  0  0  0
  -26.0224  -29.4507   20.7058 C   0  0  0  0  0  0
  -27.2132  -28.6752   20.6883 C   0  0  0  0  0  0
  -26.0411  -26.9106   19.5057 C   0  0  0  0  0  0
  -24.8617  -27.6818   19.5154 C   0  0  0  0  0  0
  -23.6212  -29.8328   20.1625 C   0  0  0  0  0  0
  -25.4097  -36.3141   24.0348 C   0  0  1  0  0  0
  -20.5870  -28.3681   23.1299 C   0  0  2  0  0  0
  -20.6773  -26.9407   22.5422 C   0  0  0  0  0  0
  -19.5745  -26.6379   21.5222 C   0  0  0  0  0  0
  -18.1924  -26.7930   22.1617 C   0  0  0  0  0  0
  -19.1526  -28.8838   23.2901 C   0  0  0  0  0  0
  -18.9452  -30.1446   23.8930 C   0  0  0  0  0  0
  -17.6452  -30.6588   24.0574 C   0  0  0  0  0  0
  -25.9013  -34.9492   23.5144 C   0  0  0  0  0  0
  -16.5345  -29.9102   23.6314 C   0  0  0  0  0  0
  -16.7261  -28.6506   23.0348 C   0  0  0  0  0  0
  -26.4460  -31.6621   25.0774 C   0  0  0  0  0  0
  -25.3733  -31.3744   26.1537 C   0  0  0  0  0  0
  -27.0288  -30.3074   24.6142 C   0  0  0  0  0  0
  -27.6039  -32.4333   25.7535 C   0  0  0  0  0  0
  -27.5579  -37.1827   24.8457 C   0  0  0  0  0  0
  -21.4131  -29.3063   22.3705 N   0  0  0  0  0  0
  -26.4291  -37.3821   23.9413 N   0  0  0  0  0  0
  -24.6780  -31.0709   22.1021 N   0  0  0  0  0  0
  -23.4178  -28.8156   23.2965 O   0  0  0  0  0  0
  -28.4039  -26.6189   20.1139 O   0  0  0  0  0  0
  -26.5570  -34.8934   22.4708 O   0  0  0  0  0  0
  -23.5366  -32.1403   23.7473 O   0  0  0  0  0  0
  -31.9460  -17.2614   21.6066 C   0  0  0  0  0  0
  -30.6800  -17.3097   20.9811 C   0  0  0  0  0  0
  -31.9952  -19.5838   21.7898 C   0  0  0  0  0  0
  -30.7293  -19.6941   21.1251 C   0  0  0  0  0  0
  -32.7567  -20.7360   22.4196 C   0  0  0  0  0  0
  -31.7341  -22.2189   19.4463 C   0  0  0  0  0  0
  -29.2681  -16.3335   19.1907 C   0  0  0  0  0  0
  -28.7239  -15.9889   21.6810 C   0  0  0  0  0  0
  -29.0387  -23.4253   18.0201 C   0  0  0  0  0  0
  -27.4048  -23.6234   19.8894 C   0  0  0  0  0  0
  -29.8997  -23.7589   20.4327 C   0  0  0  0  0  0
  -28.6915  -25.6573   19.0633 C   0  0  0  0  0  0
  -29.9095  -21.0097   20.8490 C   0  0  2  0  0  0
  -30.6721  -22.3684   20.5578 C   0  0  1  0  0  0
  -29.8365  -16.0338   20.6077 C   0  0  0  0  0  0
  -28.7729  -24.1054   19.3806 C   0  0  0  0  0  0
  -32.5922  -18.3836   22.0018 N   0  0  0  0  0  0
  -30.0873  -18.5363   20.7695 N   0  0  0  0  0  0
  -28.9311  -21.1788   21.9345 N   0  3  0  0  0  0
  -31.5030  -12.4721   19.2030 H   0  0  0  0  0  0
  -30.3789  -11.3861   19.9383 H   0  0  0  0  0  0
  -29.8141  -11.7169   17.5145 H   0  0  0  0  0  0
  -29.6678  -13.4364   17.7523 H   0  0  0  0  0  0
  -27.9040  -11.2452   18.9020 H   0  0  0  0  0  0
  -27.3748  -12.4886   17.8119 H   0  0  0  0  0  0
  -27.6418  -14.1913   19.5213 H   0  0  0  0  0  0
  -28.7409  -11.9522   21.2920 H   0  0  0  0  0  0
  -28.4405  -13.5061   21.9135 H   0  0  0  0  0  0
  -25.2734   -9.5627   22.4794 H   0  0  0  0  0  0
  -23.9997   -7.4574   22.7478 H   0  0  0  0  0  0
  -21.0859   -8.8709   19.8959 H   0  0  0  0  0  0
  -22.3682  -10.9618   19.6221 H   0  0  0  0  0  0
  -21.1986   -7.6149   23.9710 H   0  0  0  0  0  0
  -21.1483   -6.0513   25.9049 H   0  0  0  0  0  0
  -22.0640   -2.7640   23.2790 H   0  0  0  0  0  0
  -22.4053  -11.9847   22.4663 H   0  0  0  0  0  0
  -21.1078  -13.1257   22.2683 H   0  0  0  0  0  0
  -24.6689  -15.8315   20.5469 H   0  0  0  0  0  0
  -26.2861  -15.6119   20.0944 H   0  0  0  0  0  0
  -26.7131  -32.5547   23.1191 H   0  0  0  0  0  0
  -25.0094  -33.9826   25.0542 H   0  0  0  0  0  0
  -22.7029  -31.3131   21.4158 H   0  0  0  0  0  0
  -23.3746  -35.9665   23.3284 H   0  0  0  0  0  0
  -24.3585  -36.8973   22.2051 H   0  0  0  0  0  0
  -23.7219  -37.6541   23.6650 H   0  0  0  0  0  0
  -26.0469  -31.5875   20.5947 H   0  0  0  0  0  0
  -26.8346  -30.8832   21.9775 H   0  0  0  0  0  0
  -28.1164  -29.0573   21.1442 H   0  0  0  0  0  0
  -25.9890  -25.9234   19.0783 H   0  0  0  0  0  0
  -23.9541  -27.2837   19.0797 H   0  0  0  0  0  0
  -23.7384  -30.6181   19.4140 H   0  0  0  0  0  0
  -22.7395  -29.2671   19.8562 H   0  0  0  0  0  0
  -25.1258  -36.2020   25.0844 H   0  0  0  0  0  0
  -20.9977  -28.3272   24.1406 H   0  0  0  0  0  0
  -20.5676  -26.2289   23.3617 H   0  0  0  0  0  0
  -21.6642  -26.7449   22.1217 H   0  0  0  0  0  0
  -19.6915  -25.6294   21.1247 H   0  0  0  0  0  0
  -19.6691  -27.3186   20.6755 H   0  0  0  0  0  0
  -17.4196  -26.6691   21.4012 H   0  0  0  0  0  0
  -18.0303  -26.0061   22.8992 H   0  0  0  0  0  0
  -19.7931  -30.7239   24.2314 H   0  0  0  0  0  0
  -17.5024  -31.6266   24.5161 H   0  0  0  0  0  0
  -15.5362  -30.3015   23.7627 H   0  0  0  0  0  0
  -15.8659  -28.0851   22.7045 H   0  0  0  0  0  0
  -24.5897  -30.7074   25.7914 H   0  0  0  0  0  0
  -24.8919  -32.2899   26.4986 H   0  0  0  0  0  0
  -25.8108  -30.8945   27.0298 H   0  0  0  0  0  0
  -26.2842  -29.6861   24.1148 H   0  0  0  0  0  0
  -27.4010  -29.7292   25.4603 H   0  0  0  0  0  0
  -27.8690  -30.4416   23.9332 H   0  0  0  0  0  0
  -27.2674  -33.3631   26.2126 H   0  0  0  0  0  0
  -28.3845  -32.6882   25.0362 H   0  0  0  0  0  0
  -28.0688  -31.8440   26.5441 H   0  0  0  0  0  0
  -28.2586  -38.0132   24.7524 H   0  0  0  0  0  0
  -28.1085  -36.2665   24.6248 H   0  0  0  0  0  0
  -27.2304  -37.1449   25.8864 H   0  0  0  0  0  0
  -20.9254  -29.8873   21.7029 H   0  0  0  0  0  0
  -26.0178  -38.2899   24.1445 H   0  0  0  0  0  0
  -32.4388  -16.3320   21.8293 H   0  0  0  0  0  0
  -33.1793  -21.4076   21.6738 H   0  0  0  0  0  0
  -33.5830  -20.3681   23.0325 H   0  0  0  0  0  0
  -32.1101  -21.2984   23.0913 H   0  0  0  0  0  0
  -32.3979  -23.0857   19.4066 H   0  0  0  0  0  0
  -31.2872  -22.1033   18.4601 H   0  0  0  0  0  0
  -32.3641  -21.3437   19.6004 H   0  0  0  0  0  0
  -28.3997  -16.9941   19.2188 H   0  0  0  0  0  0
  -28.9903  -15.4534   18.6176 H   0  0  0  0  0  0
  -30.0252  -16.8264   18.5772 H   0  0  0  0  0  0
  -28.3428  -16.9737   21.9366 H   0  0  0  0  0  0
  -29.0802  -15.5319   22.6069 H   0  0  0  0  0  0
  -27.8429  -15.4641   21.3419 H   0  0  0  0  0  0
  -28.9570  -22.3389   18.0613 H   0  0  0  0  0  0
  -30.0228  -23.6828   17.6257 H   0  0  0  0  0  0
  -28.3231  -23.7606   17.2689 H   0  0  0  0  0  0
  -27.3910  -22.5568   20.1049 H   0  0  0  0  0  0
  -26.6362  -23.7882   19.1331 H   0  0  0  0  0  0
  -27.1127  -24.1595   20.7932 H   0  0  0  0  0  0
  -30.6912  -24.4906   20.2633 H   0  0  0  0  0  0
  -29.5229  -24.0443   21.4133 H   0  0  0  0  0  0
  -28.0293  -25.8198   18.2131 H   0  0  0  0  0  0
  -29.6683  -25.9438   18.6735 H   0  0  0  0  0  0
  -29.3375  -20.7924   19.9442 H   0  0  0  0  0  0
  -31.2431  -22.5409   21.4682 H   0  0  0  0  0  0
  -29.3749  -21.4730   22.7856 H   0  0  0  0  0  0
  -28.4719  -20.2980   22.0936 H   0  0  0  0  0  0
  -28.2454  -21.8630   21.6752 H   0  0  0  0  0  0
  1 25  1  0  0  0
  1 30  2  0  0  0
  1 85  1  0  0  0
  2  3  1  0  0  0
  2 25  1  0  0  0
  2 90  1  0  0  0
  2 91  1  0  0  0
  3  4  1  0  0  0
  3 92  1  0  0  0
  3 93  1  0  0  0
  4  5  1  0  0  0
  4 94  1  0  0  0
  4 95  1  0  0  0
  5  6  1  0  0  0
  5 26  1  0  0  0
  5 96  1  0  0  0
  6 25  1  0  0  0
  6 97  1  0  0  0
  6 98  1  0  0  0
  7  8  2  0  0  0
  7 26  1  0  0  0
  7 29  1  0  0  0
  8  9  1  0  0  0
  8 22  1  0  0  0
  9 10  1  0  0  0
  9 27  2  0  0  0
 10 11  2  0  0  0
 10 15  1  0  0  0
 11 12  1  0  0  0
 11 99  1  0  0  0
 12 13  2  0  0  0
 12100  1  0  0  0
 13 14  1  0  0  0
 13 31  1  0  0  0
 14 15  2  0  0  0
 14101  1  0  0  0
 15102  1  0  0  0
 16 17  2  0  0  0
 16 21  1  0  0  0
 16 31  1  0  0  0
 17 18  1  0  0  0
 17103  1  0  0  0
 18 19  2  0  0  0
 18104  1  0  0  0
 19 20  1  0  0  0
 19 24  1  0  0  0
 20 21  2  0  0  0
 20105  1  0  0  0
 21 23  1  0  0  0
 22 28  1  0  0  0
 22 32  2  0  0  0
 26 27  1  0  0  0
 28106  1  0  0  0
 28107  1  0  0  0
 29108  1  0  0  0
 29109  1  0  0  0
 33 34  1  0  0  0
 33 66  1  0  0  0
 33 70  2  0  0  0
 34 36  1  0  0  0
 34 59  1  0  0  0
 34110  1  0  0  0
 35 44  2  0  0  0
 35 45  1  0  0  0
 35 68  1  0  0  0
 36 56  1  0  0  0
 36111  1  0  0  0
 37 39  1  0  0  0
 37 47  1  0  0  0
 37 66  1  0  0  0
 37112  1  0  0  0
 38 43  2  0  0  0
 38 46  1  0  0  0
 38 47  1  0  0  0
 39 64  1  0  0  0
 39 67  2  0  0  0
 40 52  1  0  0  0
 40 53  2  0  0  0
 40 58  1  0  0  0
 41113  1  0  0  0
 41114  1  0  0  0
 41115  1  0  0  0
 41 48  1  0  0  0
 42 43  1  0  0  0
 42 66  1  0  0  0
 42116  1  0  0  0
 42117  1  0  0  0
 43 44  1  0  0  0
 44118  1  0  0  0
 45 46  2  0  0  0
 45119  1  0  0  0
 46120  1  0  0  0
 47121  1  0  0  0
 47122  1  0  0  0
 48 56  1  0  0  0
 48 65  1  0  0  0
 48123  1  0  0  0
 49 50  1  0  0  0
 49 53  1  0  0  0
 49 64  1  0  0  0
 49124  1  0  0  0
 50 51  1  0  0  0
 50125  1  0  0  0
 50126  1  0  0  0
 51 52  1  0  0  0
 51127  1  0  0  0
 51128  1  0  0  0
 52129  1  0  0  0
 52130  1  0  0  0
 53 54  1  0  0  0
 54 55  2  0  0  0
 54131  1  0  0  0
 55 57  1  0  0  0
 55132  1  0  0  0
 56 69  2  0  0  0
 57 58  2  0  0  0
 57133  1  0  0  0
 58134  1  0  0  0
 59 60  1  0  0  0
 59 61  1  0  0  0
 59 62  1  0  0  0
 60135  1  0  0  0
 60136  1  0  0  0
 60137  1  0  0  0
 61138  1  0  0  0
 61139  1  0  0  0
 61140  1  0  0  0
 62141  1  0  0  0
 62142  1  0  0  0
 62143  1  0  0  0
 63 65  1  0  0  0
 63144  1  0  0  0
 63145  1  0  0  0
 63146  1  0  0  0
 64147  1  0  0  0
 65148  1  0  0  0
 68 82  1  0  0  0
 71 72  2  0  0  0
 71 87  1  0  0  0
 71149  1  0  0  0
 72 85  1  0  0  0
 72 88  1  0  0  0
 73 74  1  0  0  0
 73 75  1  0  0  0
 73 87  2  0  0  0
 74 83  1  0  0  0
 74 88  2  0  0  0
 75150  1  0  0  0
 75151  1  0  0  0
 75152  1  0  0  0
 76153  1  0  0  0
 76154  1  0  0  0
 76155  1  0  0  0
 76 84  1  0  0  0
 77156  1  0  0  0
 77157  1  0  0  0
 77158  1  0  0  0
 77 85  1  0  0  0
 78 85  1  0  0  0
 78159  1  0  0  0
 78160  1  0  0  0
 78161  1  0  0  0
 79162  1  0  0  0
 79163  1  0  0  0
 79164  1  0  0  0
 79 86  1  0  0  0
 80 86  1  0  0  0
 80165  1  0  0  0
 80166  1  0  0  0
 80167  1  0  0  0
 81 84  1  0  0  0
 81 86  1  0  0  0
 81168  1  0  0  0
 81169  1  0  0  0
 82 86  1  0  0  0
 82170  1  0  0  0
 82171  1  0  0  0
 83 84  1  0  0  0
 83 89  1  0  0  0
 83172  1  0  0  0
 84173  1  0  0  0
 89174  1  0  0  0
 89175  1  0  0  0
 89176  1  0  0  0
M  CHG  1  89   1
M  ISO  4   1 100  68 101  82 101  85 100
M  END
> <chiral flag>
0

> <version>
0

> <s_m_source_file>
/data/baiqing/PycharmProjects/Reinvent-master-3.2/result/LINK_invent/BTK/process_docking_weight1_custom_sum_contain_oxygen_bond_distance_aromatic_linkinvent_7_9_3/rearranged_h_0072.sdf

> <i_m_source_file_index>
81

> <r_mmod_Potential_Energy-OPLS-2005>
7.26613187789917

> <r_mmod_Stretch_Energy-OPLS-2005>
86.5383834838867

> <r_mmod_Bend_Energy-OPLS-2005>
205.372619628906

> <r_mmod_Torsional_Energy-OPLS-2005>
227.847351074219

> <r_mmod_Improper_Torsional_Energy-OPLS-2005>
8.26355838775635

> <r_mmod_Van_der_Waal_Energy-OPLS-2005>
176.229217529297

> <r_mmod_Electrostatic_Energy-OPLS-2005>
-270.261535644531

> <r_mmod_Solvation_Energy-OPLS-2005>
-462.426910400391

> <b_mmod_Minimization_Converged-OPLS-2005>
0

> <r_mmod_RMS_Derivative-OPLS-2005>
6.55597400665283

$$$$
82
                    3D
 Structure written by MMmdl.
164172  0  0  1  0            999 V2000
  -30.6700  -14.6890   20.5857 C   0  0  0  0  0  0
  -30.4238  -12.4522   19.4627 C   0  0  0  0  0  0
  -29.5028  -12.5594   18.2265 C   0  0  0  0  0  0
  -28.0254  -12.3796   18.6275 C   0  0  0  0  0  0
  -27.6501  -13.2284   19.8692 C   0  0  2  0  0  0
  -28.6935  -13.0566   20.9911 C   0  0  0  0  0  0
  -25.2532  -13.8194   20.5702 C   0  0  0  0  0  0
  -24.1819  -13.0446   20.9194 C   0  0  0  0  0  0
  -24.6396  -11.6918   20.8724 C   0  0  0  0  0  0
  -23.9074  -10.4298   21.0398 C   0  0  0  0  0  0
  -24.3618   -9.4220   21.9187 C   0  0  0  0  0  0
  -23.6306   -8.2249   22.0755 C   0  0  0  0  0  0
  -22.4291   -8.0279   21.3536 C   0  0  0  0  0  0
  -21.9918   -9.0259   20.4645 C   0  0  0  0  0  0
  -22.7235  -10.2142   20.3061 C   0  0  0  0  0  0
  -21.6864   -6.0739   22.5279 C   0  0  0  0  0  0
  -21.4015   -6.5642   23.8207 C   0  0  0  0  0  0
  -21.3654   -5.6789   24.9162 C   0  0  0  0  0  0
  -21.6052   -4.3054   24.7221 C   0  0  0  0  0  0
  -21.8843   -3.8147   23.4345 C   0  0  0  0  0  0
  -21.9213   -4.6967   22.3402 C   0  0  0  0  0  0
  -22.7838  -13.5222   21.1866 C   0  0  0  0  0  0
  -22.1686   -4.2154   21.0984 F   0  0  0  0  0  0
  -21.5626   -3.4542   25.7733 F   0  0  0  0  0  0
  -29.9982  -13.4794   20.4570 N   0  0  0  0  0  0
  -26.2968  -12.9400   20.3321 N   0  0  0  0  0  0
  -25.9323  -11.6536   20.5716 N   0  0  0  0  0  0
  -22.0488  -12.8192   22.0406 N   0  0  0  0  0  0
  -25.4213  -15.1926   20.4152 N   0  0  0  0  0  0
  -31.7840  -14.7502   20.0521 O   0  0  0  0  0  0
  -21.6649   -6.8878   21.4234 O   0  0  0  0  0  0
  -22.3514  -14.5536   20.6730 O   0  0  0  0  0  0
  -24.6264  -31.8600   23.1986 C   0  0  0  0  0  0
  -25.9104  -32.4765   23.8327 C   0  0  1  0  0  0
  -27.2059  -27.2801   20.1473 C   0  0  0  0  0  0
  -25.5915  -33.8572   24.2254 N   0  0  0  0  0  0
  -23.4238  -30.4827   21.5416 C   0  0  2  0  0  0
  -24.8713  -28.9363   20.1080 C   0  0  0  0  0  0
  -22.7497  -29.4631   22.4908 C   0  0  0  0  0  0
  -18.0306  -28.1392   22.8513 C   0  0  0  0  0  0
  -24.1520  -36.7320   23.2642 C   0  0  0  0  0  0
  -25.9682  -30.7752   21.3828 C   0  0  0  0  0  0
  -26.0385  -29.3988   20.7314 C   0  0  0  0  0  0
  -27.2092  -28.5777   20.7524 C   0  0  0  0  0  0
  -26.0413  -26.9089   19.4425 C   0  0  0  0  0  0
  -24.8750  -27.6961   19.4542 C   0  0  0  0  0  0
  -23.6395  -29.8181   20.1564 C   0  0  0  0  0  0
  -25.4130  -36.3078   24.0330 C   0  0  1  0  0  0
  -20.5913  -28.3704   23.1280 C   0  0  2  0  0  0
  -20.6801  -26.9423   22.5412 C   0  0  0  0  0  0
  -19.5759  -26.6392   21.5232 C   0  0  0  0  0  0
  -18.1940  -26.7940   22.1647 C   0  0  0  0  0  0
  -19.1564  -28.8867   23.2891 C   0  0  0  0  0  0
  -18.9479  -30.1474   23.8888 C   0  0  0  0  0  0
  -17.6475  -30.6597   24.0575 C   0  0  0  0  0  0
  -25.9066  -34.9448   23.5093 C   0  0  0  0  0  0
  -16.5369  -29.9089   23.6346 C   0  0  0  0  0  0
  -16.7292  -28.6514   23.0363 C   0  0  0  0  0  0
  -26.4474  -31.6576   25.0711 C   0  0  0  0  0  0
  -25.3677  -31.3723   26.1412 C   0  0  0  0  0  0
  -27.0325  -30.2991   24.6202 C   0  0  0  0  0  0
  -27.6021  -32.4320   25.7476 C   0  0  0  0  0  0
  -27.5600  -37.1802   24.8457 C   0  0  0  0  0  0
  -21.4212  -29.3041   22.3650 N   0  0  0  0  0  0
  -26.4319  -37.3757   23.9394 N   0  0  0  0  0  0
  -24.6910  -31.0584   22.0958 N   0  0  0  0  0  0
  -23.4221  -28.8188   23.3011 O   0  0  0  0  0  0
  -28.2827  -26.3706   20.1843 O   0  0  0  0  0  0
  -26.5657  -34.8921   22.4678 O   0  0  0  0  0  0
  -23.5416  -32.1432   23.7277 O   0  0  0  0  0  0
  -29.1648  -17.1245   19.1821 C   0  0  0  0  0  0
  -28.7104  -18.2581   18.4976 C   0  0  0  0  0  0
  -29.7874  -17.3060   20.4249 C   0  0  0  0  0  0
  -29.4524  -19.6618   20.1584 C   0  0  0  0  0  0
  -31.4451  -16.4978   22.1622 C   0  0  0  0  0  0
  -29.0708  -15.8840   22.3669 C   0  0  0  0  0  0
  -28.7439  -25.3775   22.2977 C   0  0  0  0  0  0
  -26.7151  -24.5472   21.1167 C   0  0  0  0  0  0
  -29.8288  -21.1580   20.5098 C   0  0  0  0  0  0
  -28.7111  -22.2911   20.7177 C   0  0  0  0  0  0
  -29.0164  -23.8225   20.2884 C   0  0  0  0  0  0
  -30.2013  -16.0643   21.3371 C   0  0  0  0  0  0
  -28.1670  -25.0497   20.9080 C   0  0  0  0  0  0
  -28.8653  -19.5060   18.9784 N   0  0  0  0  0  0
  -29.8900  -18.6078   20.9009 N   0  0  0  0  0  0
  -31.4633  -12.5558   19.1513 H   0  0  0  0  0  0
  -30.3605  -11.4506   19.8926 H   0  0  0  0  0  0
  -29.7806  -11.8190   17.4763 H   0  0  0  0  0  0
  -29.6351  -13.5336   17.7550 H   0  0  0  0  0  0
  -27.8641  -11.3218   18.8354 H   0  0  0  0  0  0
  -27.3705  -12.6277   17.7913 H   0  0  0  0  0  0
  -27.6715  -14.2709   19.5534 H   0  0  0  0  0  0
  -28.7354  -12.0078   21.2906 H   0  0  0  0  0  0
  -28.3876  -13.5571   21.8994 H   0  0  0  0  0  0
  -25.2773   -9.5719   22.4733 H   0  0  0  0  0  0
  -24.0056   -7.4645   22.7451 H   0  0  0  0  0  0
  -21.0868   -8.8768   19.8924 H   0  0  0  0  0  0
  -22.3709  -10.9677   19.6160 H   0  0  0  0  0  0
  -21.1989   -7.6141   23.9711 H   0  0  0  0  0  0
  -21.1444   -6.0506   25.9065 H   0  0  0  0  0  0
  -22.0626   -2.7614   23.2836 H   0  0  0  0  0  0
  -22.4147  -11.9882   22.4806 H   0  0  0  0  0  0
  -21.1080  -13.1162   22.2581 H   0  0  0  0  0  0
  -24.6521  -15.8418   20.5393 H   0  0  0  0  0  0
  -26.2709  -15.6382   20.0939 H   0  0  0  0  0  0
  -26.7180  -32.5441   23.1075 H   0  0  0  0  0  0
  -24.9963  -33.9718   25.0332 H   0  0  0  0  0  0
  -22.7179  -31.3033   21.3975 H   0  0  0  0  0  0
  -23.3758  -35.9676   23.3288 H   0  0  0  0  0  0
  -24.3609  -36.8967   22.2057 H   0  0  0  0  0  0
  -23.7325  -37.6537   23.6691 H   0  0  0  0  0  0
  -26.1083  -31.5275   20.6055 H   0  0  0  0  0  0
  -26.8450  -30.8249   22.0166 H   0  0  0  0  0  0
  -28.0972  -28.9120   21.2687 H   0  0  0  0  0  0
  -26.0179  -25.9717   18.9055 H   0  0  0  0  0  0
  -23.9867  -27.3475   18.9462 H   0  0  0  0  0  0
  -23.7541  -30.5940   19.3982 H   0  0  0  0  0  0
  -22.7611  -29.2433   19.8578 H   0  0  0  0  0  0
  -25.1307  -36.1918   25.0824 H   0  0  0  0  0  0
  -21.0028  -28.3289   24.1396 H   0  0  0  0  0  0
  -20.5748  -26.2300   23.3616 H   0  0  0  0  0  0
  -21.6660  -26.7469   22.1175 H   0  0  0  0  0  0
  -19.6920  -25.6303   21.1259 H   0  0  0  0  0  0
  -19.6696  -27.3211   20.6771 H   0  0  0  0  0  0
  -17.4220  -26.6732   21.4035 H   0  0  0  0  0  0
  -18.0313  -26.0066   22.9022 H   0  0  0  0  0  0
  -19.7951  -30.7315   24.2241 H   0  0  0  0  0  0
  -17.5023  -31.6272   24.5177 H   0  0  0  0  0  0
  -15.5367  -30.2977   23.7683 H   0  0  0  0  0  0
  -15.8700  -28.0831   22.7061 H   0  0  0  0  0  0
  -24.5858  -30.7085   25.7709 H   0  0  0  0  0  0
  -24.8854  -32.2892   26.4807 H   0  0  0  0  0  0
  -25.7948  -30.8897   27.0210 H   0  0  0  0  0  0
  -26.2913  -29.6714   24.1245 H   0  0  0  0  0  0
  -27.4025  -29.7270   25.4716 H   0  0  0  0  0  0
  -27.8778  -30.4249   23.9434 H   0  0  0  0  0  0
  -27.2631  -33.3628   26.2033 H   0  0  0  0  0  0
  -28.3824  -32.6868   25.0294 H   0  0  0  0  0  0
  -28.0703  -31.8465   26.5400 H   0  0  0  0  0  0
  -28.2575  -38.0131   24.7504 H   0  0  0  0  0  0
  -28.1143  -36.2655   24.6277 H   0  0  0  0  0  0
  -27.2323  -37.1439   25.8862 H   0  0  0  0  0  0
  -20.9398  -29.8681   21.6786 H   0  0  0  0  0  0
  -26.0202  -38.2852   24.1316 H   0  0  0  0  0  0
  -29.0189  -16.1441   18.7490 H   0  0  0  0  0  0
  -28.2182  -18.1672   17.5401 H   0  0  0  0  0  0
  -31.2263  -17.3280   22.8358 H   0  0  0  0  0  0
  -32.2586  -16.8278   21.5154 H   0  0  0  0  0  0
  -31.8187  -15.6811   22.7806 H   0  0  0  0  0  0
  -28.9335  -16.7946   22.9509 H   0  0  0  0  0  0
  -29.2914  -15.0966   23.0854 H   0  0  0  0  0  0
  -28.1115  -15.6961   21.8878 H   0  0  0  0  0  0
  -28.1803  -26.1754   22.7841 H   0  0  0  0  0  0
  -29.7801  -25.7077   22.2294 H   0  0  0  0  0  0
  -28.7204  -24.5110   22.9583 H   0  0  0  0  0  0
  -26.6771  -23.7009   21.8022 H   0  0  0  0  0  0
  -26.2615  -24.2080   20.1864 H   0  0  0  0  0  0
  -26.0734  -25.3026   21.5679 H   0  0  0  0  0  0
  -30.4915  -21.4921   19.7109 H   0  0  0  0  0  0
  -30.4607  -21.1415   21.3980 H   0  0  0  0  0  0
  -28.4200  -22.2514   21.7669 H   0  0  0  0  0  0
  -27.8216  -21.9815   20.1687 H   0  0  0  0  0  0
  -28.9199  -23.8665   19.2037 H   0  0  0  0  0  0
  -30.0724  -24.0216   20.4721 H   0  0  0  0  0  0
  1 25  1  0  0  0
  1 30  2  0  0  0
  1 82  1  0  0  0
  2  3  1  0  0  0
  2 25  1  0  0  0
  2 86  1  0  0  0
  2 87  1  0  0  0
  3  4  1  0  0  0
  3 88  1  0  0  0
  3 89  1  0  0  0
  4  5  1  0  0  0
  4 90  1  0  0  0
  4 91  1  0  0  0
  5  6  1  0  0  0
  5 26  1  0  0  0
  5 92  1  0  0  0
  6 25  1  0  0  0
  6 93  1  0  0  0
  6 94  1  0  0  0
  7  8  2  0  0  0
  7 26  1  0  0  0
  7 29  1  0  0  0
  8  9  1  0  0  0
  8 22  1  0  0  0
  9 10  1  0  0  0
  9 27  2  0  0  0
 10 11  2  0  0  0
 10 15  1  0  0  0
 11 12  1  0  0  0
 11 95  1  0  0  0
 12 13  2  0  0  0
 12 96  1  0  0  0
 13 14  1  0  0  0
 13 31  1  0  0  0
 14 15  2  0  0  0
 14 97  1  0  0  0
 15 98  1  0  0  0
 16 17  2  0  0  0
 16 21  1  0  0  0
 16 31  1  0  0  0
 17 18  1  0  0  0
 17 99  1  0  0  0
 18 19  2  0  0  0
 18100  1  0  0  0
 19 20  1  0  0  0
 19 24  1  0  0  0
 20 21  2  0  0  0
 20101  1  0  0  0
 21 23  1  0  0  0
 22 28  1  0  0  0
 22 32  2  0  0  0
 26 27  1  0  0  0
 28102  1  0  0  0
 28103  1  0  0  0
 29104  1  0  0  0
 29105  1  0  0  0
 33 34  1  0  0  0
 33 66  1  0  0  0
 33 70  2  0  0  0
 34 36  1  0  0  0
 34 59  1  0  0  0
 34106  1  0  0  0
 35 44  2  0  0  0
 35 45  1  0  0  0
 35 68  1  0  0  0
 36 56  1  0  0  0
 36107  1  0  0  0
 37 39  1  0  0  0
 37 47  1  0  0  0
 37 66  1  0  0  0
 37108  1  0  0  0
 38 43  2  0  0  0
 38 46  1  0  0  0
 38 47  1  0  0  0
 39 64  1  0  0  0
 39 67  2  0  0  0
 40 52  1  0  0  0
 40 53  2  0  0  0
 40 58  1  0  0  0
 41109  1  0  0  0
 41110  1  0  0  0
 41111  1  0  0  0
 41 48  1  0  0  0
 42 43  1  0  0  0
 42 66  1  0  0  0
 42112  1  0  0  0
 42113  1  0  0  0
 43 44  1  0  0  0
 44114  1  0  0  0
 45 46  2  0  0  0
 45115  1  0  0  0
 46116  1  0  0  0
 47117  1  0  0  0
 47118  1  0  0  0
 48 56  1  0  0  0
 48 65  1  0  0  0
 48119  1  0  0  0
 49 50  1  0  0  0
 49 53  1  0  0  0
 49 64  1  0  0  0
 49120  1  0  0  0
 50 51  1  0  0  0
 50121  1  0  0  0
 50122  1  0  0  0
 51 52  1  0  0  0
 51123  1  0  0  0
 51124  1  0  0  0
 52125  1  0  0  0
 52126  1  0  0  0
 53 54  1  0  0  0
 54 55  2  0  0  0
 54127  1  0  0  0
 55 57  1  0  0  0
 55128  1  0  0  0
 56 69  2  0  0  0
 57 58  2  0  0  0
 57129  1  0  0  0
 58130  1  0  0  0
 59 60  1  0  0  0
 59 61  1  0  0  0
 59 62  1  0  0  0
 60131  1  0  0  0
 60132  1  0  0  0
 60133  1  0  0  0
 61134  1  0  0  0
 61135  1  0  0  0
 61136  1  0  0  0
 62137  1  0  0  0
 62138  1  0  0  0
 62139  1  0  0  0
 63 65  1  0  0  0
 63140  1  0  0  0
 63141  1  0  0  0
 63142  1  0  0  0
 64143  1  0  0  0
 65144  1  0  0  0
 68 83  1  0  0  0
 71 72  2  0  0  0
 71 73  1  0  0  0
 71145  1  0  0  0
 72 84  1  0  0  0
 72146  1  0  0  0
 73 82  1  0  0  0
 73 85  2  0  0  0
 74 79  1  0  0  0
 74 84  2  0  0  0
 74 85  1  0  0  0
 75147  1  0  0  0
 75148  1  0  0  0
 75149  1  0  0  0
 75 82  1  0  0  0
 76 82  1  0  0  0
 76150  1  0  0  0
 76151  1  0  0  0
 76152  1  0  0  0
 77153  1  0  0  0
 77154  1  0  0  0
 77155  1  0  0  0
 77 83  1  0  0  0
 78 83  1  0  0  0
 78156  1  0  0  0
 78157  1  0  0  0
 78158  1  0  0  0
 79 80  1  0  0  0
 79159  1  0  0  0
 79160  1  0  0  0
 80 81  1  0  0  0
 80161  1  0  0  0
 80162  1  0  0  0
 81 83  1  0  0  0
 81163  1  0  0  0
 81164  1  0  0  0
M  ISO  4   1 100  68 101  82 100  83 101
M  END
> <chiral flag>
0

> <version>
0

> <s_m_source_file>
/data/baiqing/PycharmProjects/Reinvent-master-3.2/result/LINK_invent/BTK/process_docking_weight1_custom_sum_contain_oxygen_bond_distance_aromatic_linkinvent_7_9_3/rearranged_h_0072.sdf

> <i_m_source_file_index>
82

> <r_mmod_Potential_Energy-OPLS-2005>
-143.266357421875

> <r_mmod_Stretch_Energy-OPLS-2005>
125.134788513184

> <r_mmod_Bend_Energy-OPLS-2005>
197.599792480469

> <r_mmod_Torsional_Energy-OPLS-2005>
207.236022949219

> <r_mmod_Improper_Torsional_Energy-OPLS-2005>
3.41159439086914

> <r_mmod_Van_der_Waal_Energy-OPLS-2005>
161.514572143555

> <r_mmod_Electrostatic_Energy-OPLS-2005>
-700.779907226562

> <r_mmod_Solvation_Energy-OPLS-2005>
-201.891143798828

> <b_mmod_Minimization_Converged-OPLS-2005>
0

> <r_mmod_RMS_Derivative-OPLS-2005>
2.6141345500946

$$$$
83
                    3D
 Structure written by MMmdl.
152160  0  0  1  0            999 V2000
  -30.5570  -14.7449   20.4900 C   0  0  0  0  0  0
  -30.4553  -12.4543   19.4645 C   0  0  0  0  0  0
  -29.5202  -12.5152   18.2319 C   0  0  0  0  0  0
  -28.0424  -12.3261   18.6359 C   0  0  0  0  0  0
  -27.6465  -13.2096   19.8460 C   0  0  2  0  0  0
  -28.6916  -13.1074   20.9789 C   0  0  0  0  0  0
  -25.2586  -13.8132   20.5676 C   0  0  0  0  0  0
  -24.1840  -13.0415   20.9183 C   0  0  0  0  0  0
  -24.6400  -11.6869   20.8728 C   0  0  0  0  0  0
  -23.9042  -10.4285   21.0420 C   0  0  0  0  0  0
  -24.3604   -9.4205   21.9204 C   0  0  0  0  0  0
  -23.6283   -8.2235   22.0763 C   0  0  0  0  0  0
  -22.4268   -8.0274   21.3538 C   0  0  0  0  0  0
  -21.9896   -9.0253   20.4645 C   0  0  0  0  0  0
  -22.7215  -10.2140   20.3068 C   0  0  0  0  0  0
  -21.6851   -6.0732   22.5281 C   0  0  0  0  0  0
  -21.4010   -6.5639   23.8212 C   0  0  0  0  0  0
  -21.3657   -5.6794   24.9175 C   0  0  0  0  0  0
  -21.6037   -4.3052   24.7225 C   0  0  0  0  0  0
  -21.8825   -3.8137   23.4350 C   0  0  0  0  0  0
  -21.9201   -4.6957   22.3405 C   0  0  0  0  0  0
  -22.7877  -13.5225   21.1844 C   0  0  0  0  0  0
  -22.1675   -4.2140   21.0981 F   0  0  0  0  0  0
  -21.5623   -3.4539   25.7738 F   0  0  0  0  0  0
  -30.0006  -13.4839   20.4251 N   0  0  0  0  0  0
  -26.2962  -12.9279   20.3221 N   0  0  0  0  0  0
  -25.9317  -11.6437   20.5701 N   0  0  0  0  0  0
  -22.0515  -12.8223   22.0401 N   0  0  0  0  0  0
  -25.4338  -15.1858   20.4130 N   0  0  0  0  0  0
  -31.7277  -14.9064   20.1207 O   0  0  0  0  0  0
  -21.6622   -6.8873   21.4241 O   0  0  0  0  0  0
  -22.3557  -14.5542   20.6706 O   0  0  0  0  0  0
  -24.6262  -31.8571   23.1985 C   0  0  0  0  0  0
  -25.9101  -32.4771   23.8324 C   0  0  1  0  0  0
  -27.2241  -27.2778   20.1423 C   0  0  0  0  0  0
  -25.5906  -33.8569   24.2263 N   0  0  0  0  0  0
  -23.4227  -30.4764   21.5430 C   0  0  2  0  0  0
  -24.8745  -28.9238   20.1124 C   0  0  0  0  0  0
  -22.7475  -29.4600   22.4942 C   0  0  0  0  0  0
  -18.0281  -28.1382   22.8506 C   0  0  0  0  0  0
  -24.1493  -36.7276   23.2642 C   0  0  0  0  0  0
  -25.9661  -30.7779   21.3745 C   0  0  0  0  0  0
  -26.0435  -29.3991   20.7217 C   0  0  0  0  0  0
  -27.2227  -28.5890   20.7239 C   0  0  0  0  0  0
  -26.0359  -26.8661   19.5031 C   0  0  0  0  0  0
  -24.8747  -27.6645   19.4920 C   0  0  0  0  0  0
  -23.6405  -29.8052   20.1607 C   0  0  0  0  0  0
  -25.4119  -36.3072   24.0330 C   0  0  1  0  0  0
  -20.5879  -28.3683   23.1299 C   0  0  2  0  0  0
  -20.6770  -26.9403   22.5433 C   0  0  0  0  0  0
  -19.5749  -26.6386   21.5233 C   0  0  0  0  0  0
  -18.1920  -26.7936   22.1630 C   0  0  0  0  0  0
  -19.1533  -28.8853   23.2896 C   0  0  0  0  0  0
  -18.9450  -30.1459   23.8904 C   0  0  0  0  0  0
  -17.6449  -30.6591   24.0564 C   0  0  0  0  0  0
  -25.9052  -34.9448   23.5104 C   0  0  0  0  0  0
  -16.5343  -29.9083   23.6332 C   0  0  0  0  0  0
  -16.7266  -28.6496   23.0364 C   0  0  0  0  0  0
  -26.4493  -31.6575   25.0692 C   0  0  0  0  0  0
  -25.3723  -31.3713   26.1415 C   0  0  0  0  0  0
  -27.0338  -30.2997   24.6156 C   0  0  0  0  0  0
  -27.6049  -32.4302   25.7468 C   0  0  0  0  0  0
  -27.5591  -37.1784   24.8454 C   0  0  0  0  0  0
  -21.4184  -29.3035   22.3689 N   0  0  0  0  0  0
  -26.4295  -37.3773   23.9413 N   0  0  0  0  0  0
  -24.6906  -31.0541   22.0958 N   0  0  0  0  0  0
  -23.4193  -28.8137   23.3026 O   0  0  0  0  0  0
  -28.3283  -26.3993   20.1589 O   0  0  0  0  0  0
  -26.5628  -34.8913   22.4677 O   0  0  0  0  0  0
  -23.5416  -32.1381   23.7290 O   0  0  0  0  0  0
  -30.0236  -17.5247   20.7459 C   0  0  0  0  0  0
  -28.9862  -20.8248   18.3768 C   0  0  0  0  0  0
  -29.6341  -16.0056   20.8800 C   0  0  0  0  0  0
  -28.8979  -23.7443   19.9208 C   0  0  0  0  0  0
  -28.8809  -22.2445   20.5619 C   0  0  0  0  0  0
  -28.1370  -24.9835   20.6265 C   0  0  0  0  0  0
  -29.6009  -21.0179   19.7764 C   0  0  1  0  0  0
  -30.8801  -18.1704   21.6020 N   0  0  0  0  0  0
  -29.3315  -18.4283   20.0104 N   0  0  0  0  0  0
  -30.7702  -19.4614   21.3976 N   0  0  0  0  0  0
  -29.8245  -19.6529   20.4438 N   0  0  0  0  0  0
  -31.4925  -12.6094   19.1609 H   0  0  0  0  0  0
  -30.4222  -11.4659   19.9262 H   0  0  0  0  0  0
  -29.8049  -11.7573   17.5015 H   0  0  0  0  0  0
  -29.6388  -13.4775   17.7331 H   0  0  0  0  0  0
  -27.8946  -11.2737   18.8809 H   0  0  0  0  0  0
  -27.3893  -12.5334   17.7872 H   0  0  0  0  0  0
  -27.6396  -14.2280   19.4643 H   0  0  0  0  0  0
  -28.7270  -12.0907   21.3720 H   0  0  0  0  0  0
  -28.4116  -13.7386   21.8230 H   0  0  0  0  0  0
  -25.2773   -9.5662   22.4753 H   0  0  0  0  0  0
  -23.9993   -7.4617   22.7484 H   0  0  0  0  0  0
  -21.0826   -8.8768   19.8956 H   0  0  0  0  0  0
  -22.3691  -10.9673   19.6154 H   0  0  0  0  0  0
  -21.2005   -7.6152   23.9703 H   0  0  0  0  0  0
  -21.1469   -6.0531   25.9076 H   0  0  0  0  0  0
  -22.0608   -2.7593   23.2852 H   0  0  0  0  0  0
  -22.4126  -11.9871   22.4759 H   0  0  0  0  0  0
  -21.1150  -13.1263   22.2631 H   0  0  0  0  0  0
  -24.6685  -15.8425   20.5250 H   0  0  0  0  0  0
  -26.2779  -15.6224   20.0671 H   0  0  0  0  0  0
  -26.7166  -32.5449   23.1062 H   0  0  0  0  0  0
  -25.0011  -33.9716   25.0379 H   0  0  0  0  0  0
  -22.7175  -31.2974   21.3957 H   0  0  0  0  0  0
  -23.3773  -35.9587   23.3277 H   0  0  0  0  0  0
  -24.3582  -36.8933   22.2064 H   0  0  0  0  0  0
  -23.7233  -37.6458   23.6690 H   0  0  0  0  0  0
  -26.0921  -31.5374   20.6016 H   0  0  0  0  0  0
  -26.8484  -30.8363   22.0003 H   0  0  0  0  0  0
  -28.1182  -28.9494   21.2099 H   0  0  0  0  0  0
  -25.9948  -25.9023   19.0157 H   0  0  0  0  0  0
  -23.9814  -27.2949   19.0080 H   0  0  0  0  0  0
  -23.7511  -30.5780   19.3997 H   0  0  0  0  0  0
  -22.7622  -29.2291   19.8642 H   0  0  0  0  0  0
  -25.1302  -36.1916   25.0821 H   0  0  0  0  0  0
  -20.9974  -28.3267   24.1419 H   0  0  0  0  0  0
  -20.5680  -26.2284   23.3634 H   0  0  0  0  0  0
  -21.6635  -26.7437   22.1227 H   0  0  0  0  0  0
  -19.6906  -25.6300   21.1252 H   0  0  0  0  0  0
  -19.6696  -27.3214   20.6779 H   0  0  0  0  0  0
  -17.4200  -26.6700   21.4020 H   0  0  0  0  0  0
  -18.0292  -26.0076   22.9020 H   0  0  0  0  0  0
  -19.7920  -30.7278   24.2282 H   0  0  0  0  0  0
  -17.4996  -31.6275   24.5160 H   0  0  0  0  0  0
  -15.5345  -30.2983   23.7658 H   0  0  0  0  0  0
  -15.8665  -28.0821   22.7077 H   0  0  0  0  0  0
  -24.5864  -30.7118   25.7720 H   0  0  0  0  0  0
  -24.8950  -32.2883   26.4871 H   0  0  0  0  0  0
  -25.8018  -30.8833   27.0173 H   0  0  0  0  0  0
  -26.2914  -29.6744   24.1182 H   0  0  0  0  0  0
  -27.4043  -29.7252   25.4658 H   0  0  0  0  0  0
  -27.8777  -30.4280   23.9373 H   0  0  0  0  0  0
  -27.2647  -33.3562   26.2108 H   0  0  0  0  0  0
  -28.3820  -32.6935   25.0283 H   0  0  0  0  0  0
  -28.0771  -31.8398   26.5331 H   0  0  0  0  0  0
  -28.2577  -38.0110   24.7535 H   0  0  0  0  0  0
  -28.1119  -36.2642   24.6233 H   0  0  0  0  0  0
  -27.2307  -37.1374   25.8854 H   0  0  0  0  0  0
  -20.9349  -29.8753   21.6903 H   0  0  0  0  0  0
  -26.0170  -38.2834   24.1449 H   0  0  0  0  0  0
  -29.0012  -21.7502   17.8019 H   0  0  0  0  0  0
  -27.9560  -20.4757   18.4384 H   0  0  0  0  0  0
  -29.5531  -20.0907   17.8029 H   0  0  0  0  0  0
  -28.7124  -15.8980   20.3158 H   0  0  0  0  0  0
  -29.3434  -15.8619   21.9203 H   0  0  0  0  0  0
  -28.4910  -23.6787   18.9127 H   0  0  0  0  0  0
  -29.9403  -24.0356   19.7901 H   0  0  0  0  0  0
  -27.8439  -21.9626   20.7443 H   0  0  0  0  0  0
  -29.3313  -22.3079   21.5537 H   0  0  0  0  0  0
  -28.4436  -24.9828   21.6725 H   0  0  0  0  0  0
  -27.0751  -24.7393   20.6616 H   0  0  0  0  0  0
  -30.6123  -21.3809   19.5913 H   0  0  0  0  0  0
  1 25  1  0  0  0
  1 30  2  0  0  0
  1 73  1  0  0  0
  2  3  1  0  0  0
  2 25  1  0  0  0
  2 82  1  0  0  0
  2 83  1  0  0  0
  3  4  1  0  0  0
  3 84  1  0  0  0
  3 85  1  0  0  0
  4  5  1  0  0  0
  4 86  1  0  0  0
  4 87  1  0  0  0
  5  6  1  0  0  0
  5 26  1  0  0  0
  5 88  1  0  0  0
  6 25  1  0  0  0
  6 89  1  0  0  0
  6 90  1  0  0  0
  7  8  2  0  0  0
  7 26  1  0  0  0
  7 29  1  0  0  0
  8  9  1  0  0  0
  8 22  1  0  0  0
  9 10  1  0  0  0
  9 27  2  0  0  0
 10 11  2  0  0  0
 10 15  1  0  0  0
 11 12  1  0  0  0
 11 91  1  0  0  0
 12 13  2  0  0  0
 12 92  1  0  0  0
 13 14  1  0  0  0
 13 31  1  0  0  0
 14 15  2  0  0  0
 14 93  1  0  0  0
 15 94  1  0  0  0
 16 17  2  0  0  0
 16 21  1  0  0  0
 16 31  1  0  0  0
 17 18  1  0  0  0
 17 95  1  0  0  0
 18 19  2  0  0  0
 18 96  1  0  0  0
 19 20  1  0  0  0
 19 24  1  0  0  0
 20 21  2  0  0  0
 20 97  1  0  0  0
 21 23  1  0  0  0
 22 28  1  0  0  0
 22 32  2  0  0  0
 26 27  1  0  0  0
 28 98  1  0  0  0
 28 99  1  0  0  0
 29100  1  0  0  0
 29101  1  0  0  0
 33 34  1  0  0  0
 33 66  1  0  0  0
 33 70  2  0  0  0
 34 36  1  0  0  0
 34 59  1  0  0  0
 34102  1  0  0  0
 35 44  2  0  0  0
 35 45  1  0  0  0
 35 68  1  0  0  0
 36 56  1  0  0  0
 36103  1  0  0  0
 37 39  1  0  0  0
 37 47  1  0  0  0
 37 66  1  0  0  0
 37104  1  0  0  0
 38 43  2  0  0  0
 38 46  1  0  0  0
 38 47  1  0  0  0
 39 64  1  0  0  0
 39 67  2  0  0  0
 40 52  1  0  0  0
 40 53  2  0  0  0
 40 58  1  0  0  0
 41105  1  0  0  0
 41106  1  0  0  0
 41107  1  0  0  0
 41 48  1  0  0  0
 42 43  1  0  0  0
 42 66  1  0  0  0
 42108  1  0  0  0
 42109  1  0  0  0
 43 44  1  0  0  0
 44110  1  0  0  0
 45 46  2  0  0  0
 45111  1  0  0  0
 46112  1  0  0  0
 47113  1  0  0  0
 47114  1  0  0  0
 48 56  1  0  0  0
 48 65  1  0  0  0
 48115  1  0  0  0
 49 50  1  0  0  0
 49 53  1  0  0  0
 49 64  1  0  0  0
 49116  1  0  0  0
 50 51  1  0  0  0
 50117  1  0  0  0
 50118  1  0  0  0
 51 52  1  0  0  0
 51119  1  0  0  0
 51120  1  0  0  0
 52121  1  0  0  0
 52122  1  0  0  0
 53 54  1  0  0  0
 54 55  2  0  0  0
 54123  1  0  0  0
 55 57  1  0  0  0
 55124  1  0  0  0
 56 69  2  0  0  0
 57 58  2  0  0  0
 57125  1  0  0  0
 58126  1  0  0  0
 59 60  1  0  0  0
 59 61  1  0  0  0
 59 62  1  0  0  0
 60127  1  0  0  0
 60128  1  0  0  0
 60129  1  0  0  0
 61130  1  0  0  0
 61131  1  0  0  0
 61132  1  0  0  0
 62133  1  0  0  0
 62134  1  0  0  0
 62135  1  0  0  0
 63 65  1  0  0  0
 63136  1  0  0  0
 63137  1  0  0  0
 63138  1  0  0  0
 64139  1  0  0  0
 65140  1  0  0  0
 68 76  1  0  0  0
 71 73  1  0  0  0
 71 78  1  0  0  0
 71 79  2  0  0  0
 72141  1  0  0  0
 72142  1  0  0  0
 72143  1  0  0  0
 72 77  1  0  0  0
 73144  1  0  0  0
 73145  1  0  0  0
 74 75  1  0  0  0
 74 76  1  0  0  0
 74146  1  0  0  0
 74147  1  0  0  0
 75 77  1  0  0  0
 75148  1  0  0  0
 75149  1  0  0  0
 76150  1  0  0  0
 76151  1  0  0  0
 77 81  1  0  0  0
 77152  1  0  0  0
 78 80  2  0  0  0
 79 81  1  0  0  0
 80 81  1  0  0  0
M  ISO  4   1 100  68 101  73 100  76 101
M  END
> <chiral flag>
0

> <version>
0

> <s_m_source_file>
/data/baiqing/PycharmProjects/Reinvent-master-3.2/result/LINK_invent/BTK/process_docking_weight1_custom_sum_contain_oxygen_bond_distance_aromatic_linkinvent_7_9_3/rearranged_h_0072.sdf

> <i_m_source_file_index>
83

> <r_mmod_Potential_Energy-OPLS-2005>
205.182189941406

> <r_mmod_Stretch_Energy-OPLS-2005>
121.998062133789

> <r_mmod_Bend_Energy-OPLS-2005>
174.655746459961

> <r_mmod_Torsional_Energy-OPLS-2005>
217.633529663086

> <r_mmod_Improper_Torsional_Energy-OPLS-2005>
7.16422557830811

> <r_mmod_Van_der_Waal_Energy-OPLS-2005>
114.843170166016

> <r_mmod_Electrostatic_Energy-OPLS-2005>
-291.234802246094

> <r_mmod_Solvation_Energy-OPLS-2005>
-218.369506835938

> <b_mmod_Minimization_Converged-OPLS-2005>
0

> <r_mmod_RMS_Derivative-OPLS-2005>
2.20266699790955

$$$$
84
                    3D
 Structure written by MMmdl.
157165  0  0  1  0            999 V2000
  -30.5140  -14.8805   20.4258 C   0  0  0  0  0  0
  -30.4538  -12.5405   19.4780 C   0  0  0  0  0  0
  -29.5282  -12.5291   18.2365 C   0  0  0  0  0  0
  -28.0526  -12.3295   18.6434 C   0  0  0  0  0  0
  -27.6372  -13.2313   19.8348 C   0  0  2  0  0  0
  -28.6812  -13.1908   20.9708 C   0  0  0  0  0  0
  -25.2528  -13.8183   20.5677 C   0  0  0  0  0  0
  -24.1825  -13.0458   20.9199 C   0  0  0  0  0  0
  -24.6403  -11.6929   20.8700 C   0  0  0  0  0  0
  -23.9086  -10.4311   21.0372 C   0  0  0  0  0  0
  -24.3631   -9.4235   21.9164 C   0  0  0  0  0  0
  -23.6306   -8.2273   22.0728 C   0  0  0  0  0  0
  -22.4282   -8.0318   21.3523 C   0  0  0  0  0  0
  -21.9926   -9.0290   20.4616 C   0  0  0  0  0  0
  -22.7252  -10.2164   20.3028 C   0  0  0  0  0  0
  -21.6866   -6.0774   22.5283 C   0  0  0  0  0  0
  -21.4018   -6.5659   23.8229 C   0  0  0  0  0  0
  -21.3639   -5.6783   24.9178 C   0  0  0  0  0  0
  -21.6040   -4.3052   24.7217 C   0  0  0  0  0  0
  -21.8823   -3.8167   23.4322 C   0  0  0  0  0  0
  -21.9197   -4.7009   22.3404 C   0  0  0  0  0  0
  -22.7847  -13.5246   21.1868 C   0  0  0  0  0  0
  -22.1670   -4.2199   21.0978 F   0  0  0  0  0  0
  -21.5605   -3.4516   25.7717 F   0  0  0  0  0  0
  -29.9674  -13.6045   20.3908 N   0  0  0  0  0  0
  -26.2923  -12.9378   20.3168 N   0  0  0  0  0  0
  -25.9314  -11.6524   20.5639 N   0  0  0  0  0  0
  -22.0488  -12.8253   22.0421 N   0  0  0  0  0  0
  -25.4211  -15.1928   20.4142 N   0  0  0  0  0  0
  -31.7184  -15.0151   20.1738 O   0  0  0  0  0  0
  -21.6630   -6.8928   21.4249 O   0  0  0  0  0  0
  -22.3538  -14.5569   20.6715 O   0  0  0  0  0  0
  -24.6384  -31.8477   23.1865 C   0  0  0  0  0  0
  -25.9165  -32.4699   23.8255 C   0  0  1  0  0  0
  -27.2125  -27.1658   20.1577 C   0  0  0  0  0  0
  -25.5937  -33.8499   24.2188 N   0  0  0  0  0  0
  -23.4394  -30.4617   21.5352 C   0  0  2  0  0  0
  -24.8892  -28.8909   20.1133 C   0  0  0  0  0  0
  -22.7539  -29.4530   22.4901 C   0  0  0  0  0  0
  -18.0325  -28.1309   22.8447 C   0  0  0  0  0  0
  -24.1486  -36.7261   23.2638 C   0  0  0  0  0  0
  -25.9917  -30.7317   21.3794 C   0  0  0  0  0  0
  -26.0653  -29.3431   20.7263 C   0  0  0  0  0  0
  -27.2322  -28.4962   20.7293 C   0  0  0  0  0  0
  -26.0167  -26.8047   19.5045 C   0  0  0  0  0  0
  -24.8766  -27.6338   19.4867 C   0  0  0  0  0  0
  -23.6638  -29.7860   20.1563 C   0  0  0  0  0  0
  -25.4111  -36.3030   24.0317 C   0  0  1  0  0  0
  -20.5905  -28.3685   23.1352 C   0  0  2  0  0  0
  -20.6830  -26.9385   22.5513 C   0  0  0  0  0  0
  -19.5923  -26.6404   21.5198 C   0  0  0  0  0  0
  -18.2026  -26.7902   22.1474 C   0  0  0  0  0  0
  -19.1541  -28.8800   23.2901 C   0  0  0  0  0  0
  -18.9404  -30.1398   23.8918 C   0  0  0  0  0  0
  -17.6387  -30.6503   24.0488 C   0  0  0  0  0  0
  -25.9068  -34.9408   23.5068 C   0  0  0  0  0  0
  -16.5316  -29.8975   23.6230 C   0  0  0  0  0  0
  -16.7304  -28.6381   23.0291 C   0  0  0  0  0  0
  -26.4496  -31.6565   25.0688 C   0  0  0  0  0  0
  -25.3658  -31.3816   26.1380 C   0  0  0  0  0  0
  -27.0358  -30.2953   24.6255 C   0  0  0  0  0  0
  -27.6028  -32.4316   25.7489 C   0  0  0  0  0  0
  -27.5574  -37.1795   24.8462 C   0  0  0  0  0  0
  -21.4216  -29.3073   22.3766 N   0  0  0  0  0  0
  -26.4280  -37.3729   23.9409 N   0  0  0  0  0  0
  -24.7090  -31.0339   22.0894 N   0  0  0  0  0  0
  -23.4228  -28.8015   23.2962 O   0  0  0  0  0  0
  -28.2750  -26.2078   20.1706 O   0  0  0  0  0  0
  -26.5635  -34.8905   22.4630 O   0  0  0  0  0  0
  -23.5521  -32.1347   23.7109 O   0  0  0  0  0  0
  -28.1326  -19.4484   19.7663 C   0  0  0  0  0  0
  -28.3973  -18.0325   19.7717 C   0  0  0  0  0  0
  -29.0077  -20.3703   20.4077 C   0  0  0  0  0  0
  -29.5613  -17.4620   20.3785 C   0  0  0  0  0  0
  -27.1309  -21.7515   21.4848 C   0  0  0  0  0  0
  -27.8051  -23.1148   18.6894 C   0  0  0  0  0  0
  -30.0928  -23.5331   19.6170 C   0  0  0  0  0  0
  -28.0515  -24.7566   20.6549 C   0  0  0  0  0  0
  -28.5350  -21.8866   20.8555 C   0  0  2  0  0  0
  -28.6127  -23.3212   19.9818 C   0  0  0  0  0  0
  -30.1388  -19.7725   20.9418 N   0  0  0  0  0  0
  -30.4128  -18.4152   20.9063 N   0  0  0  0  0  0
  -29.6051  -15.9520   20.5089 N   0  0  0  0  0  0
  -31.4869  -12.7203   19.1775 H   0  0  0  0  0  0
  -30.4436  -11.5717   19.9812 H   0  0  0  0  0  0
  -29.8346  -11.7459   17.5417 H   0  0  0  0  0  0
  -29.6351  -13.4725   17.6968 H   0  0  0  0  0  0
  -27.9214  -11.2813   18.9143 H   0  0  0  0  0  0
  -27.4021  -12.5064   17.7855 H   0  0  0  0  0  0
  -27.6119  -14.2454   19.4370 H   0  0  0  0  0  0
  -28.7491  -12.1886   21.3956 H   0  0  0  0  0  0
  -28.3906  -13.8498   21.7904 H   0  0  0  0  0  0
  -25.2777   -9.5729   22.4721 H   0  0  0  0  0  0
  -24.0015   -7.4670   22.7457 H   0  0  0  0  0  0
  -21.0846   -8.8839   19.8918 H   0  0  0  0  0  0
  -22.3722  -10.9723   19.6127 H   0  0  0  0  0  0
  -21.2012   -7.6158   23.9764 H   0  0  0  0  0  0
  -21.1430   -6.0488   25.9089 H   0  0  0  0  0  0
  -22.0606   -2.7636   23.2806 H   0  0  0  0  0  0
  -22.4061  -11.9904   22.4830 H   0  0  0  0  0  0
  -21.1093  -13.1298   22.2562 H   0  0  0  0  0  0
  -24.6478  -15.8388   20.5325 H   0  0  0  0  0  0
  -26.2549  -15.6411   20.0612 H   0  0  0  0  0  0
  -26.7220  -32.5306   23.0995 H   0  0  0  0  0  0
  -25.0074  -33.9597   25.0332 H   0  0  0  0  0  0
  -22.7376  -31.2830   21.3795 H   0  0  0  0  0  0
  -23.3736  -35.9610   23.3301 H   0  0  0  0  0  0
  -24.3566  -36.8885   22.2055 H   0  0  0  0  0  0
  -23.7276  -37.6473   23.6666 H   0  0  0  0  0  0
  -26.1324  -31.4853   20.6034 H   0  0  0  0  0  0
  -26.8682  -30.7859   22.0143 H   0  0  0  0  0  0
  -28.1320  -28.8390   21.2192 H   0  0  0  0  0  0
  -25.9539  -25.8446   19.0129 H   0  0  0  0  0  0
  -23.9820  -27.2804   18.9940 H   0  0  0  0  0  0
  -23.7859  -30.5559   19.3932 H   0  0  0  0  0  0
  -22.7827  -29.2165   19.8567 H   0  0  0  0  0  0
  -25.1303  -36.1865   25.0810 H   0  0  0  0  0  0
  -20.9941  -28.3254   24.1506 H   0  0  0  0  0  0
  -20.5602  -26.2288   23.3709 H   0  0  0  0  0  0
  -21.6733  -26.7362   22.1428 H   0  0  0  0  0  0
  -19.7138  -25.6359   21.1124 H   0  0  0  0  0  0
  -19.6983  -27.3309   20.6819 H   0  0  0  0  0  0
  -17.4428  -26.6794   21.3717 H   0  0  0  0  0  0
  -18.0292  -25.9928   22.8723 H   0  0  0  0  0  0
  -19.7839  -30.7229   24.2343 H   0  0  0  0  0  0
  -17.4881  -31.6213   24.5003 H   0  0  0  0  0  0
  -15.5284  -30.2839   23.7449 H   0  0  0  0  0  0
  -15.8761  -28.0640   22.6979 H   0  0  0  0  0  0
  -24.5822  -30.7170   25.7728 H   0  0  0  0  0  0
  -24.8851  -32.3026   26.4680 H   0  0  0  0  0  0
  -25.7887  -30.9093   27.0250 H   0  0  0  0  0  0
  -26.2990  -29.6687   24.1208 H   0  0  0  0  0  0
  -27.3932  -29.7235   25.4836 H   0  0  0  0  0  0
  -27.8907  -30.4201   23.9599 H   0  0  0  0  0  0
  -27.2612  -33.3621   26.2038 H   0  0  0  0  0  0
  -28.3860  -32.6863   25.0334 H   0  0  0  0  0  0
  -28.0660  -31.8452   26.5440 H   0  0  0  0  0  0
  -28.2583  -38.0098   24.7461 H   0  0  0  0  0  0
  -28.1082  -36.2617   24.6336 H   0  0  0  0  0  0
  -27.2282  -37.1497   25.8863 H   0  0  0  0  0  0
  -20.9360  -29.9020   21.7201 H   0  0  0  0  0  0
  -26.0157  -38.2805   24.1380 H   0  0  0  0  0  0
  -27.2031  -19.8038   19.3484 H   0  0  0  0  0  0
  -27.6483  -17.3847   19.3451 H   0  0  0  0  0  0
  -27.1159  -20.9717   22.2473 H   0  0  0  0  0  0
  -26.3830  -21.4792   20.7399 H   0  0  0  0  0  0
  -26.7992  -22.6706   21.9639 H   0  0  0  0  0  0
  -27.8798  -23.9834   18.0357 H   0  0  0  0  0  0
  -26.7463  -22.9615   18.9047 H   0  0  0  0  0  0
  -28.1528  -22.2453   18.1324 H   0  0  0  0  0  0
  -30.2408  -24.4181   18.9966 H   0  0  0  0  0  0
  -30.4872  -22.6788   19.0660 H   0  0  0  0  0  0
  -30.6982  -23.6554   20.5165 H   0  0  0  0  0  0
  -28.4481  -24.7696   21.6719 H   0  0  0  0  0  0
  -26.9799  -24.6329   20.8119 H   0  0  0  0  0  0
  -29.1926  -22.0809   21.7023 H   0  0  0  0  0  0
  -28.6775  -15.5744   20.5863 H   0  0  0  0  0  0
  1 25  1  0  0  0
  1 30  2  0  0  0
  1 83  1  0  0  0
  2  3  1  0  0  0
  2 25  1  0  0  0
  2 84  1  0  0  0
  2 85  1  0  0  0
  3  4  1  0  0  0
  3 86  1  0  0  0
  3 87  1  0  0  0
  4  5  1  0  0  0
  4 88  1  0  0  0
  4 89  1  0  0  0
  5  6  1  0  0  0
  5 26  1  0  0  0
  5 90  1  0  0  0
  6 25  1  0  0  0
  6 91  1  0  0  0
  6 92  1  0  0  0
  7  8  2  0  0  0
  7 26  1  0  0  0
  7 29  1  0  0  0
  8  9  1  0  0  0
  8 22  1  0  0  0
  9 10  1  0  0  0
  9 27  2  0  0  0
 10 11  2  0  0  0
 10 15  1  0  0  0
 11 12  1  0  0  0
 11 93  1  0  0  0
 12 13  2  0  0  0
 12 94  1  0  0  0
 13 14  1  0  0  0
 13 31  1  0  0  0
 14 15  2  0  0  0
 14 95  1  0  0  0
 15 96  1  0  0  0
 16 17  2  0  0  0
 16 21  1  0  0  0
 16 31  1  0  0  0
 17 18  1  0  0  0
 17 97  1  0  0  0
 18 19  2  0  0  0
 18 98  1  0  0  0
 19 20  1  0  0  0
 19 24  1  0  0  0
 20 21  2  0  0  0
 20 99  1  0  0  0
 21 23  1  0  0  0
 22 28  1  0  0  0
 22 32  2  0  0  0
 26 27  1  0  0  0
 28100  1  0  0  0
 28101  1  0  0  0
 29102  1  0  0  0
 29103  1  0  0  0
 33 34  1  0  0  0
 33 66  1  0  0  0
 33 70  2  0  0  0
 34 36  1  0  0  0
 34 59  1  0  0  0
 34104  1  0  0  0
 35 44  2  0  0  0
 35 45  1  0  0  0
 35 68  1  0  0  0
 36 56  1  0  0  0
 36105  1  0  0  0
 37 39  1  0  0  0
 37 47  1  0  0  0
 37 66  1  0  0  0
 37106  1  0  0  0
 38 43  2  0  0  0
 38 46  1  0  0  0
 38 47  1  0  0  0
 39 64  1  0  0  0
 39 67  2  0  0  0
 40 52  1  0  0  0
 40 53  2  0  0  0
 40 58  1  0  0  0
 41107  1  0  0  0
 41108  1  0  0  0
 41109  1  0  0  0
 41 48  1  0  0  0
 42 43  1  0  0  0
 42 66  1  0  0  0
 42110  1  0  0  0
 42111  1  0  0  0
 43 44  1  0  0  0
 44112  1  0  0  0
 45 46  2  0  0  0
 45113  1  0  0  0
 46114  1  0  0  0
 47115  1  0  0  0
 47116  1  0  0  0
 48 56  1  0  0  0
 48 65  1  0  0  0
 48117  1  0  0  0
 49 50  1  0  0  0
 49 53  1  0  0  0
 49 64  1  0  0  0
 49118  1  0  0  0
 50 51  1  0  0  0
 50119  1  0  0  0
 50120  1  0  0  0
 51 52  1  0  0  0
 51121  1  0  0  0
 51122  1  0  0  0
 52123  1  0  0  0
 52124  1  0  0  0
 53 54  1  0  0  0
 54 55  2  0  0  0
 54125  1  0  0  0
 55 57  1  0  0  0
 55126  1  0  0  0
 56 69  2  0  0  0
 57 58  2  0  0  0
 57127  1  0  0  0
 58128  1  0  0  0
 59 60  1  0  0  0
 59 61  1  0  0  0
 59 62  1  0  0  0
 60129  1  0  0  0
 60130  1  0  0  0
 60131  1  0  0  0
 61132  1  0  0  0
 61133  1  0  0  0
 61134  1  0  0  0
 62135  1  0  0  0
 62136  1  0  0  0
 62137  1  0  0  0
 63 65  1  0  0  0
 63138  1  0  0  0
 63139  1  0  0  0
 63140  1  0  0  0
 64141  1  0  0  0
 65142  1  0  0  0
 68 78  1  0  0  0
 71 72  2  0  0  0
 71 73  1  0  0  0
 71143  1  0  0  0
 72 74  1  0  0  0
 72144  1  0  0  0
 73 79  1  0  0  0
 73 81  2  0  0  0
 74 82  2  0  0  0
 74 83  1  0  0  0
 75145  1  0  0  0
 75146  1  0  0  0
 75147  1  0  0  0
 75 79  1  0  0  0
 76148  1  0  0  0
 76149  1  0  0  0
 76150  1  0  0  0
 76 80  1  0  0  0
 77 80  1  0  0  0
 77151  1  0  0  0
 77152  1  0  0  0
 77153  1  0  0  0
 78 80  1  0  0  0
 78154  1  0  0  0
 78155  1  0  0  0
 79 80  1  0  0  0
 79156  1  0  0  0
 81 82  1  0  0  0
 83157  1  0  0  0
M  ISO  4   1 100  68 101  78 101  83 100
M  END
> <chiral flag>
0

> <version>
0

> <s_m_source_file>
/data/baiqing/PycharmProjects/Reinvent-master-3.2/result/LINK_invent/BTK/process_docking_weight1_custom_sum_contain_oxygen_bond_distance_aromatic_linkinvent_7_9_3/rearranged_h_0072.sdf

> <i_m_source_file_index>
84

> <r_mmod_Potential_Energy-OPLS-2005>
402.323883056641

> <r_mmod_Stretch_Energy-OPLS-2005>
210.838531494141

> <r_mmod_Bend_Energy-OPLS-2005>
262.522094726562

> <r_mmod_Torsional_Energy-OPLS-2005>
255.496322631836

> <r_mmod_Improper_Torsional_Energy-OPLS-2005>
9.42623615264893

> <r_mmod_Van_der_Waal_Energy-OPLS-2005>
125.205841064453

> <r_mmod_Electrostatic_Energy-OPLS-2005>
-376.191467285156

> <r_mmod_Solvation_Energy-OPLS-2005>
-241.394317626953

> <b_mmod_Minimization_Converged-OPLS-2005>
0

> <r_mmod_RMS_Derivative-OPLS-2005>
3.66877627372742

$$$$
85
                    3D
 Structure written by MMmdl.
168176  0  0  1  0            999 V2000
  -30.7100  -14.4548   20.5933 C   0  0  0  0  0  0
  -30.4193  -12.3050   19.4175 C   0  0  0  0  0  0
  -29.4921  -12.5116   18.2034 C   0  0  0  0  0  0
  -28.0132  -12.3737   18.6159 C   0  0  0  0  0  0
  -27.6615  -13.2089   19.8766 C   0  0  2  0  0  0
  -28.7018  -12.9799   20.9960 C   0  0  0  0  0  0
  -25.2596  -13.8167   20.5707 C   0  0  0  0  0  0
  -24.1839  -13.0436   20.9184 C   0  0  0  0  0  0
  -24.6391  -11.6903   20.8720 C   0  0  0  0  0  0
  -23.9050  -10.4290   21.0390 C   0  0  0  0  0  0
  -24.3598   -9.4205   21.9170 C   0  0  0  0  0  0
  -23.6274   -8.2239   22.0752 C   0  0  0  0  0  0
  -22.4256   -8.0272   21.3541 C   0  0  0  0  0  0
  -21.9889   -9.0249   20.4647 C   0  0  0  0  0  0
  -22.7218  -10.2129   20.3047 C   0  0  0  0  0  0
  -21.6850   -6.0723   22.5271 C   0  0  0  0  0  0
  -21.4024   -6.5634   23.8206 C   0  0  0  0  0  0
  -21.3663   -5.6789   24.9169 C   0  0  0  0  0  0
  -21.6041   -4.3051   24.7220 C   0  0  0  0  0  0
  -21.8819   -3.8138   23.4344 C   0  0  0  0  0  0
  -21.9195   -4.6951   22.3400 C   0  0  0  0  0  0
  -22.7863  -13.5241   21.1844 C   0  0  0  0  0  0
  -22.1659   -4.2140   21.0976 F   0  0  0  0  0  0
  -21.5621   -3.4535   25.7733 F   0  0  0  0  0  0
  -30.0333  -13.2849   20.4451 N   0  0  0  0  0  0
  -26.3023  -12.9340   20.3375 N   0  0  0  0  0  0
  -25.9317  -11.6492   20.5748 N   0  0  0  0  0  0
  -22.0493  -12.8239   22.0400 N   0  0  0  0  0  0
  -25.4340  -15.1881   20.4181 N   0  0  0  0  0  0
  -31.8327  -14.6406   20.1148 O   0  0  0  0  0  0
  -21.6623   -6.8864   21.4232 O   0  0  0  0  0  0
  -22.3550  -14.5541   20.6685 O   0  0  0  0  0  0
  -24.6143  -31.8680   23.2084 C   0  0  0  0  0  0
  -25.9040  -32.4819   23.8380 C   0  0  1  0  0  0
  -27.2308  -27.4236   20.0987 C   0  0  0  0  0  0
  -25.5895  -33.8616   24.2322 N   0  0  0  0  0  0
  -23.4022  -30.4913   21.5492 C   0  0  2  0  0  0
  -24.8458  -28.9535   20.1146 C   0  0  0  0  0  0
  -22.7404  -29.4666   22.4977 C   0  0  0  0  0  0
  -18.0292  -28.1345   22.8499 C   0  0  0  0  0  0
  -24.1488  -36.7305   23.2637 C   0  0  0  0  0  0
  -25.9306  -30.8299   21.3627 C   0  0  0  0  0  0
  -26.0054  -29.4636   20.7101 C   0  0  0  0  0  0
  -27.1991  -28.7072   20.6944 C   0  0  0  0  0  0
  -26.0491  -26.9285   19.5007 C   0  0  0  0  0  0
  -24.8627  -27.6861   19.5070 C   0  0  0  0  0  0
  -23.6101  -29.8220   20.1640 C   0  0  0  0  0  0
  -25.4110  -36.3104   24.0342 C   0  0  1  0  0  0
  -20.5879  -28.3653   23.1298 C   0  0  2  0  0  0
  -20.6787  -26.9381   22.5383 C   0  0  0  0  0  0
  -19.5734  -26.6343   21.5209 C   0  0  0  0  0  0
  -18.1938  -26.7872   22.1663 C   0  0  0  0  0  0
  -19.1536  -28.8818   23.2892 C   0  0  0  0  0  0
  -18.9463  -30.1417   23.8907 C   0  0  0  0  0  0
  -17.6459  -30.6548   24.0567 C   0  0  0  0  0  0
  -25.9039  -34.9473   23.5124 C   0  0  0  0  0  0
  -16.5355  -29.9046   23.6337 C   0  0  0  0  0  0
  -16.7284  -28.6464   23.0367 C   0  0  0  0  0  0
  -26.4468  -31.6597   25.0707 C   0  0  0  0  0  0
  -25.3739  -31.3708   26.1462 C   0  0  0  0  0  0
  -27.0300  -30.3036   24.6082 C   0  0  0  0  0  0
  -27.6038  -32.4318   25.7470 C   0  0  0  0  0  0
  -27.5581  -37.1806   24.8463 C   0  0  0  0  0  0
  -21.4132  -29.3041   22.3712 N   0  0  0  0  0  0
  -26.4291  -37.3788   23.9413 N   0  0  0  0  0  0
  -24.6672  -31.0771   22.0992 N   0  0  0  0  0  0
  -23.4177  -28.8223   23.3029 O   0  0  0  0  0  0
  -28.4184  -26.7170   20.1202 O   0  0  0  0  0  0
  -26.5595  -34.8921   22.4684 O   0  0  0  0  0  0
  -23.5335  -32.1442   23.7466 O   0  0  0  0  0  0
  -27.6045  -22.2508   19.5667 C   0  0  0  0  0  0
  -28.2052  -21.9123   21.6361 C   0  0  0  0  0  0
  -27.9028  -22.9422   20.7762 C   0  0  0  0  0  0
  -28.4535  -24.8180   22.3889 C   0  0  0  0  0  0
  -26.7344  -19.0506   22.2026 C   0  0  0  0  0  0
  -30.8219  -19.1341   20.3255 C   0  0  0  0  0  0
  -30.0869  -17.2671   18.8610 C   0  0  0  0  0  0
  -28.4475  -18.2007   20.5269 C   0  0  0  0  0  0
  -30.4955  -16.8457   21.3438 C   0  0  0  0  0  0
  -28.4317  -25.2962   19.8815 C   0  0  0  0  0  0
  -27.8209  -24.4486   21.0349 C   0  0  1  0  0  0
  -28.0888  -19.3430   21.5363 C   0  0  1  0  0  0
  -29.9523  -17.8594   20.2820 C   0  0  0  0  0  0
  -27.6684  -20.9310   19.6903 N   0  0  0  0  0  0
  -28.0519  -20.7067   20.9695 N   0  0  0  0  0  0
  -30.0298  -15.4547   21.1854 N   0  0  0  0  0  0
  -31.4645  -12.4007   19.1163 H   0  0  0  0  0  0
  -30.3150  -11.2916   19.8086 H   0  0  0  0  0  0
  -29.7329  -11.7897   17.4222 H   0  0  0  0  0  0
  -29.6631  -13.4991   17.7719 H   0  0  0  0  0  0
  -27.8208  -11.3176   18.8074 H   0  0  0  0  0  0
  -27.3633  -12.6544   17.7865 H   0  0  0  0  0  0
  -27.7083  -14.2588   19.5870 H   0  0  0  0  0  0
  -28.6763  -11.9410   21.3279 H   0  0  0  0  0  0
  -28.4646  -13.5729   21.8803 H   0  0  0  0  0  0
  -25.2741   -9.5679   22.4748 H   0  0  0  0  0  0
  -23.9978   -7.4628   22.7472 H   0  0  0  0  0  0
  -21.0820   -8.8756   19.8961 H   0  0  0  0  0  0
  -22.3660  -10.9655   19.6154 H   0  0  0  0  0  0
  -21.2018   -7.6144   23.9709 H   0  0  0  0  0  0
  -21.1494   -6.0519   25.9076 H   0  0  0  0  0  0
  -22.0600   -2.7600   23.2840 H   0  0  0  0  0  0
  -22.4102  -11.9906   22.4811 H   0  0  0  0  0  0
  -21.1116  -13.1285   22.2591 H   0  0  0  0  0  0
  -24.6759  -15.8482   20.5528 H   0  0  0  0  0  0
  -26.2942  -15.6281   20.1187 H   0  0  0  0  0  0
  -26.7110  -32.5518   23.1138 H   0  0  0  0  0  0
  -25.0064  -33.9784   25.0477 H   0  0  0  0  0  0
  -22.6908  -31.3076   21.4105 H   0  0  0  0  0  0
  -23.3743  -35.9642   23.3311 H   0  0  0  0  0  0
  -24.3577  -36.8906   22.2046 H   0  0  0  0  0  0
  -23.7256  -37.6518   23.6646 H   0  0  0  0  0  0
  -26.0447  -31.5960   20.5941 H   0  0  0  0  0  0
  -26.8183  -30.8796   21.9824 H   0  0  0  0  0  0
  -28.0971  -29.1012   21.1494 H   0  0  0  0  0  0
  -26.0181  -25.9622   19.0223 H   0  0  0  0  0  0
  -23.9702  -27.2860   19.0455 H   0  0  0  0  0  0
  -23.7189  -30.5952   19.4026 H   0  0  0  0  0  0
  -22.7338  -29.2407   19.8718 H   0  0  0  0  0  0
  -25.1287  -36.1961   25.0837 H   0  0  0  0  0  0
  -20.9974  -28.3221   24.1413 H   0  0  0  0  0  0
  -21.6638  -26.7454   22.1110 H   0  0  0  0  0  0
  -20.5731  -26.2253   23.3586 H   0  0  0  0  0  0
  -19.6871  -25.6243   21.1253 H   0  0  0  0  0  0
  -19.6647  -27.3147   20.6737 H   0  0  0  0  0  0
  -17.4174  -26.6598   21.4104 H   0  0  0  0  0  0
  -18.0384  -26.0024   22.9085 H   0  0  0  0  0  0
  -19.7928  -30.7230   24.2289 H   0  0  0  0  0  0
  -17.5014  -31.6225   24.5165 H   0  0  0  0  0  0
  -15.5352  -30.2940   23.7648 H   0  0  0  0  0  0
  -15.8695  -28.0776   22.7083 H   0  0  0  0  0  0
  -24.5892  -30.7080   25.7788 H   0  0  0  0  0  0
  -24.8954  -32.2873   26.4921 H   0  0  0  0  0  0
  -25.8088  -30.8852   27.0213 H   0  0  0  0  0  0
  -26.2847  -29.6792   24.1139 H   0  0  0  0  0  0
  -27.4077  -29.7268   25.4537 H   0  0  0  0  0  0
  -27.8681  -30.4341   23.9232 H   0  0  0  0  0  0
  -27.2650  -33.3599   26.2088 H   0  0  0  0  0  0
  -28.3832  -32.6925   25.0293 H   0  0  0  0  0  0
  -28.0740  -31.8432   26.5358 H   0  0  0  0  0  0
  -28.2600  -38.0099   24.7511 H   0  0  0  0  0  0
  -28.1086  -36.2635   24.6300 H   0  0  0  0  0  0
  -27.2303  -37.1463   25.8866 H   0  0  0  0  0  0
  -20.9289  -29.8795   21.6957 H   0  0  0  0  0  0
  -26.0180  -38.2865   24.1408 H   0  0  0  0  0  0
  -27.3030  -22.6670   18.6148 H   0  0  0  0  0  0
  -28.4646  -21.9315   22.6852 H   0  0  0  0  0  0
  -27.9672  -24.2940   23.2121 H   0  0  0  0  0  0
  -28.3561  -25.8847   22.5901 H   0  0  0  0  0  0
  -29.5170  -24.5766   22.4131 H   0  0  0  0  0  0
  -26.7621  -18.1113   22.7557 H   0  0  0  0  0  0
  -25.9371  -18.9796   21.4626 H   0  0  0  0  0  0
  -26.4620  -19.8338   22.9107 H   0  0  0  0  0  0
  -30.4574  -19.8925   19.6312 H   0  0  0  0  0  0
  -31.8557  -18.9210   20.0514 H   0  0  0  0  0  0
  -30.8515  -19.5803   21.3194 H   0  0  0  0  0  0
  -29.8076  -17.9949   18.0977 H   0  0  0  0  0  0
  -29.4460  -16.3969   18.7166 H   0  0  0  0  0  0
  -31.1128  -16.9595   18.6523 H   0  0  0  0  0  0
  -27.9561  -18.4067   19.5758 H   0  0  0  0  0  0
  -27.9649  -17.2817   20.8615 H   0  0  0  0  0  0
  -30.2194  -17.1834   22.3435 H   0  0  0  0  0  0
  -31.5878  -16.8560   21.3354 H   0  0  0  0  0  0
  -27.9729  -25.0614   18.9219 H   0  0  0  0  0  0
  -29.4774  -25.0108   19.7665 H   0  0  0  0  0  0
  -26.7673  -24.7214   21.1044 H   0  0  0  0  0  0
  -28.8293  -19.3413   22.3372 H   0  0  0  0  0  0
  -29.1136  -15.2303   21.5431 H   0  0  0  0  0  0
  1 25  1  0  0  0
  1 30  2  0  0  0
  1 86  1  0  0  0
  2  3  1  0  0  0
  2 25  1  0  0  0
  2 87  1  0  0  0
  2 88  1  0  0  0
  3  4  1  0  0  0
  3 89  1  0  0  0
  3 90  1  0  0  0
  4  5  1  0  0  0
  4 91  1  0  0  0
  4 92  1  0  0  0
  5  6  1  0  0  0
  5 26  1  0  0  0
  5 93  1  0  0  0
  6 25  1  0  0  0
  6 94  1  0  0  0
  6 95  1  0  0  0
  7  8  2  0  0  0
  7 26  1  0  0  0
  7 29  1  0  0  0
  8  9  1  0  0  0
  8 22  1  0  0  0
  9 10  1  0  0  0
  9 27  2  0  0  0
 10 11  2  0  0  0
 10 15  1  0  0  0
 11 12  1  0  0  0
 11 96  1  0  0  0
 12 13  2  0  0  0
 12 97  1  0  0  0
 13 14  1  0  0  0
 13 31  1  0  0  0
 14 15  2  0  0  0
 14 98  1  0  0  0
 15 99  1  0  0  0
 16 17  2  0  0  0
 16 21  1  0  0  0
 16 31  1  0  0  0
 17 18  1  0  0  0
 17100  1  0  0  0
 18 19  2  0  0  0
 18101  1  0  0  0
 19 20  1  0  0  0
 19 24  1  0  0  0
 20 21  2  0  0  0
 20102  1  0  0  0
 21 23  1  0  0  0
 22 28  1  0  0  0
 22 32  2  0  0  0
 26 27  1  0  0  0
 28103  1  0  0  0
 28104  1  0  0  0
 29105  1  0  0  0
 29106  1  0  0  0
 33 34  1  0  0  0
 33 66  1  0  0  0
 33 70  2  0  0  0
 34 36  1  0  0  0
 34 59  1  0  0  0
 34107  1  0  0  0
 35 44  2  0  0  0
 35 45  1  0  0  0
 35 68  1  0  0  0
 36 56  1  0  0  0
 36108  1  0  0  0
 37 39  1  0  0  0
 37 47  1  0  0  0
 37 66  1  0  0  0
 37109  1  0  0  0
 38 43  2  0  0  0
 38 46  1  0  0  0
 38 47  1  0  0  0
 39 64  1  0  0  0
 39 67  2  0  0  0
 40 52  1  0  0  0
 40 53  2  0  0  0
 40 58  1  0  0  0
 41110  1  0  0  0
 41111  1  0  0  0
 41112  1  0  0  0
 41 48  1  0  0  0
 42 43  1  0  0  0
 42 66  1  0  0  0
 42113  1  0  0  0
 42114  1  0  0  0
 43 44  1  0  0  0
 44115  1  0  0  0
 45 46  2  0  0  0
 45116  1  0  0  0
 46117  1  0  0  0
 47118  1  0  0  0
 47119  1  0  0  0
 48 56  1  0  0  0
 48 65  1  0  0  0
 48120  1  0  0  0
 49 50  1  0  0  0
 49 53  1  0  0  0
 49 64  1  0  0  0
 49121  1  0  0  0
 50 51  1  0  0  0
 50122  1  0  0  0
 50123  1  0  0  0
 51 52  1  0  0  0
 51124  1  0  0  0
 51125  1  0  0  0
 52126  1  0  0  0
 52127  1  0  0  0
 53 54  1  0  0  0
 54 55  2  0  0  0
 54128  1  0  0  0
 55 57  1  0  0  0
 55129  1  0  0  0
 56 69  2  0  0  0
 57 58  2  0  0  0
 57130  1  0  0  0
 58131  1  0  0  0
 59 60  1  0  0  0
 59 61  1  0  0  0
 59 62  1  0  0  0
 60132  1  0  0  0
 60133  1  0  0  0
 60134  1  0  0  0
 61135  1  0  0  0
 61136  1  0  0  0
 61137  1  0  0  0
 62138  1  0  0  0
 62139  1  0  0  0
 62140  1  0  0  0
 63 65  1  0  0  0
 63141  1  0  0  0
 63142  1  0  0  0
 63143  1  0  0  0
 64144  1  0  0  0
 65145  1  0  0  0
 68 80  1  0  0  0
 71 73  1  0  0  0
 71 84  2  0  0  0
 71146  1  0  0  0
 72 73  2  0  0  0
 72 85  1  0  0  0
 72147  1  0  0  0
 73 81  1  0  0  0
 74148  1  0  0  0
 74149  1  0  0  0
 74150  1  0  0  0
 74 81  1  0  0  0
 75151  1  0  0  0
 75152  1  0  0  0
 75153  1  0  0  0
 75 82  1  0  0  0
 76154  1  0  0  0
 76155  1  0  0  0
 76156  1  0  0  0
 76 83  1  0  0  0
 77 83  1  0  0  0
 77157  1  0  0  0
 77158  1  0  0  0
 77159  1  0  0  0
 78 82  1  0  0  0
 78 83  1  0  0  0
 78160  1  0  0  0
 78161  1  0  0  0
 79 83  1  0  0  0
 79 86  1  0  0  0
 79162  1  0  0  0
 79163  1  0  0  0
 80 81  1  0  0  0
 80164  1  0  0  0
 80165  1  0  0  0
 81166  1  0  0  0
 82 85  1  0  0  0
 82167  1  0  0  0
 84 85  1  0  0  0
 86168  1  0  0  0
M  ISO  4   1 100  68 101  80 101  86 100
M  END
> <chiral flag>
0

> <version>
0

> <s_m_source_file>
/data/baiqing/PycharmProjects/Reinvent-master-3.2/result/LINK_invent/BTK/process_docking_weight1_custom_sum_contain_oxygen_bond_distance_aromatic_linkinvent_7_9_3/rearranged_h_0072.sdf

> <i_m_source_file_index>
85

> <r_mmod_Potential_Energy-OPLS-2005>
-99.2643127441406

> <r_mmod_Stretch_Energy-OPLS-2005>
41.1460914611816

> <r_mmod_Bend_Energy-OPLS-2005>
113.902160644531

> <r_mmod_Torsional_Energy-OPLS-2005>
237.384140014648

> <r_mmod_Improper_Torsional_Energy-OPLS-2005>
3.55120444297791

> <r_mmod_Van_der_Waal_Energy-OPLS-2005>
127.900733947754

> <r_mmod_Electrostatic_Energy-OPLS-2005>
-429.038726806641

> <r_mmod_Solvation_Energy-OPLS-2005>
-206.482772827148

> <b_mmod_Minimization_Converged-OPLS-2005>
0

> <r_mmod_RMS_Derivative-OPLS-2005>
1.70723021030426

$$$$
86
                    3D
 Structure written by MMmdl.
157165  0  0  1  0            999 V2000
  -30.3265  -15.6198   20.3423 C   0  0  0  0  0  0
  -30.4251  -13.0730   19.5537 C   0  0  0  0  0  0
  -29.5553  -12.6503   18.3367 C   0  0  0  0  0  0
  -28.1260  -12.3003   18.7750 C   0  0  0  0  0  0
  -27.5906  -13.3122   19.8106 C   0  0  2  0  0  0
  -28.6013  -13.6583   20.9268 C   0  0  0  0  0  0
  -25.2309  -13.8324   20.5837 C   0  0  0  0  0  0
  -24.1703  -13.0454   20.9326 C   0  0  0  0  0  0
  -24.6403  -11.6972   20.8793 C   0  0  0  0  0  0
  -23.9123  -10.4313   21.0427 C   0  0  0  0  0  0
  -24.3659   -9.4232   21.9208 C   0  0  0  0  0  0
  -23.6325   -8.2257   22.0768 C   0  0  0  0  0  0
  -22.4298   -8.0297   21.3566 C   0  0  0  0  0  0
  -21.9965   -9.0273   20.4656 C   0  0  0  0  0  0
  -22.7293  -10.2155   20.3072 C   0  0  0  0  0  0
  -21.6863   -6.0751   22.5285 C   0  0  0  0  0  0
  -21.4012   -6.5651   23.8210 C   0  0  0  0  0  0
  -21.3664   -5.6810   24.9177 C   0  0  0  0  0  0
  -21.6042   -4.3063   24.7232 C   0  0  0  0  0  0
  -21.8830   -3.8159   23.4352 C   0  0  0  0  0  0
  -21.9211   -4.6983   22.3411 C   0  0  0  0  0  0
  -22.7717  -13.5170   21.1968 C   0  0  0  0  0  0
  -22.1667   -4.2171   21.0995 F   0  0  0  0  0  0
  -21.5648   -3.4540   25.7744 F   0  0  0  0  0  0
  -29.7851  -14.2632   20.2750 N   0  0  0  0  0  0
  -26.2743  -12.9639   20.3230 N   0  0  0  0  0  0
  -25.9342  -11.6722   20.5719 N   0  0  0  0  0  0
  -22.0398  -12.8108   22.0506 N   0  0  0  0  0  0
  -25.3935  -15.2056   20.4276 N   0  0  0  0  0  0
  -31.5652  -15.4633   20.3501 O   0  0  0  0  0  0
  -21.6658   -6.8893   21.4242 O   0  0  0  0  0  0
  -22.3385  -14.5479   20.6826 O   0  0  0  0  0  0
  -24.6796  -31.8011   23.1539 C   0  0  0  0  0  0
  -25.9410  -32.4458   23.8067 C   0  0  1  0  0  0
  -27.2100  -26.7054   20.2274 C   0  0  0  0  0  0
  -25.6024  -33.8280   24.1986 N   0  0  0  0  0  0
  -23.5056  -30.4041   21.5075 C   0  0  2  0  0  0
  -24.9592  -28.7458   20.1209 C   0  0  0  0  0  0
  -22.7736  -29.4314   22.4703 C   0  0  0  0  0  0
  -18.0327  -28.1410   22.8441 C   0  0  0  0  0  0
  -24.1497  -36.7140   23.2652 C   0  0  0  0  0  0
  -26.0838  -30.5362   21.4147 C   0  0  0  0  0  0
  -26.1471  -29.0989   20.7715 C   0  0  0  0  0  0
  -27.2599  -28.1081   20.7890 C   0  0  0  0  0  0
  -25.9885  -26.5557   19.5248 C   0  0  0  0  0  0
  -24.9179  -27.4991   19.4731 C   0  0  0  0  0  0
  -23.7581  -29.7045   20.1417 C   0  0  0  0  0  0
  -25.4139  -36.2883   24.0289 C   0  0  1  0  0  0
  -20.5952  -28.3765   23.1144 C   0  0  2  0  0  0
  -20.6796  -26.9431   22.5397 C   0  0  0  0  0  0
  -19.5784  -26.6368   21.5203 C   0  0  0  0  0  0
  -18.1967  -26.7945   22.1593 C   0  0  0  0  0  0
  -19.1592  -28.8903   23.2770 C   0  0  0  0  0  0
  -18.9506  -30.1491   23.8811 C   0  0  0  0  0  0
  -17.6502  -30.6596   24.0551 C   0  0  0  0  0  0
  -25.9123  -34.9277   23.4962 C   0  0  0  0  0  0
  -16.5384  -29.9087   23.6352 C   0  0  0  0  0  0
  -16.7307  -28.6507   23.0371 C   0  0  0  0  0  0
  -26.4615  -31.6462   25.0661 C   0  0  0  0  0  0
  -25.3733  -31.3720   26.1309 C   0  0  0  0  0  0
  -27.0575  -30.2825   24.6515 C   0  0  0  0  0  0
  -27.6069  -32.4324   25.7471 C   0  0  0  0  0  0
  -27.5566  -37.1705   24.8458 C   0  0  0  0  0  0
  -21.4376  -29.3025   22.3455 N   0  0  0  0  0  0
  -26.4253  -37.3653   23.9424 N   0  0  0  0  0  0
  -24.7810  -30.9484   22.0787 N   0  0  0  0  0  0
  -23.4206  -28.7906   23.3027 O   0  0  0  0  0  0
  -28.1867  -25.5017   20.2610 O   0  0  0  0  0  0
  -26.5750  -34.8858   22.4573 O   0  0  0  0  0  0
  -23.5827  -32.1062   23.6522 O   0  0  0  0  0  0
  -27.8359  -19.3748   22.5872 C   0  0  0  0  0  0
  -27.9775  -20.5626   21.9330 C   0  0  0  0  0  0
  -29.0603  -18.8589   20.7973 C   0  0  0  0  0  0
  -30.9230  -17.9495   19.1886 C   0  0  0  0  0  0
  -28.6108  -17.0585   18.8997 C   0  0  0  0  0  0
  -30.3101  -22.4811   20.7278 C   0  0  0  0  0  0
  -29.0956  -21.9128   18.6331 C   0  0  0  0  0  0
  -27.9906  -23.7572   20.3889 C   0  0  0  0  0  0
  -29.7085  -17.3667   19.9373 C   0  0  0  0  0  0
  -28.9481  -22.0810   20.1495 C   0  0  0  0  0  0
  -28.4955  -18.3767   21.9066 N   0  0  0  0  0  0
  -28.7500  -20.4314   20.7752 N   0  0  0  0  0  0
  -31.4198  -13.3293   19.1856 H   0  0  0  0  0  0
  -30.5808  -12.2356   20.2364 H   0  0  0  0  0  0
  -30.0065  -11.8039   17.8167 H   0  0  0  0  0  0
  -29.5260  -13.4774   17.6246 H   0  0  0  0  0  0
  -28.1507  -11.3054   19.2215 H   0  0  0  0  0  0
  -27.4594  -12.2434   17.9160 H   0  0  0  0  0  0
  -27.4514  -14.2299   19.2381 H   0  0  0  0  0  0
  -28.8580  -12.7898   21.5362 H   0  0  0  0  0  0
  -28.1668  -14.3909   21.6093 H   0  0  0  0  0  0
  -25.2796   -9.5716   22.4794 H   0  0  0  0  0  0
  -24.0063   -7.4647   22.7471 H   0  0  0  0  0  0
  -21.0924   -8.8785   19.8926 H   0  0  0  0  0  0
  -22.3747  -10.9712   19.6194 H   0  0  0  0  0  0
  -21.1952   -7.6155   23.9718 H   0  0  0  0  0  0
  -21.1481   -6.0534   25.9090 H   0  0  0  0  0  0
  -22.0594   -2.7626   23.2842 H   0  0  0  0  0  0
  -22.4025  -11.9745   22.4851 H   0  0  0  0  0  0
  -21.1002  -13.1089   22.2720 H   0  0  0  0  0  0
  -24.6320  -15.8619   20.5625 H   0  0  0  0  0  0
  -26.2491  -15.6512   20.1224 H   0  0  0  0  0  0
  -26.7483  -32.4943   23.0767 H   0  0  0  0  0  0
  -25.0129  -33.9307   25.0116 H   0  0  0  0  0  0
  -22.8310  -31.2412   21.3212 H   0  0  0  0  0  0
  -23.3792  -35.9426   23.3206 H   0  0  0  0  0  0
  -24.3587  -36.8913   22.2089 H   0  0  0  0  0  0
  -23.7210  -37.6272   23.6792 H   0  0  0  0  0  0
  -26.2791  -31.2558   20.6185 H   0  0  0  0  0  0
  -26.9403  -30.6104   22.0713 H   0  0  0  0  0  0
  -28.1544  -28.3844   21.3285 H   0  0  0  0  0  0
  -25.8223  -25.6134   19.0233 H   0  0  0  0  0  0
  -24.0204  -27.2189   18.9388 H   0  0  0  0  0  0
  -23.9335  -30.4667   19.3821 H   0  0  0  0  0  0
  -22.8618  -29.1747   19.8143 H   0  0  0  0  0  0
  -25.1336  -36.1635   25.0773 H   0  0  0  0  0  0
  -21.0022  -28.3412   24.1271 H   0  0  0  0  0  0
  -20.5659  -26.2384   23.3658 H   0  0  0  0  0  0
  -21.6670  -26.7391   22.1229 H   0  0  0  0  0  0
  -19.6959  -25.6268   21.1284 H   0  0  0  0  0  0
  -19.6764  -27.3120   20.6700 H   0  0  0  0  0  0
  -17.4248  -26.6664   21.4003 H   0  0  0  0  0  0
  -18.0365  -26.0109   22.9000 H   0  0  0  0  0  0
  -19.7984  -30.7317   24.2158 H   0  0  0  0  0  0
  -17.5062  -31.6279   24.5159 H   0  0  0  0  0  0
  -15.5384  -30.2973   23.7728 H   0  0  0  0  0  0
  -15.8700  -28.0807   22.7138 H   0  0  0  0  0  0
  -24.5928  -30.7060   25.7608 H   0  0  0  0  0  0
  -24.8912  -32.2914   26.4633 H   0  0  0  0  0  0
  -25.7965  -30.8952   27.0158 H   0  0  0  0  0  0
  -26.3300  -29.6424   24.1513 H   0  0  0  0  0  0
  -27.4054  -29.7254   25.5219 H   0  0  0  0  0  0
  -27.9247  -30.3973   24.0012 H   0  0  0  0  0  0
  -27.2619  -33.3690   26.1839 H   0  0  0  0  0  0
  -28.3978  -32.6771   25.0379 H   0  0  0  0  0  0
  -28.0626  -31.8607   26.5553 H   0  0  0  0  0  0
  -28.2503  -38.0082   24.7602 H   0  0  0  0  0  0
  -28.1166  -36.2620   24.6182 H   0  0  0  0  0  0
  -27.2313  -37.1205   25.8868 H   0  0  0  0  0  0
  -20.9644  -29.8685   21.6542 H   0  0  0  0  0  0
  -26.0086  -38.2674   24.1538 H   0  0  0  0  0  0
  -27.3117  -19.1658   23.5118 H   0  0  0  0  0  0
  -27.5838  -21.5232   22.2301 H   0  0  0  0  0  0
  -30.6672  -18.8663   18.6573 H   0  0  0  0  0  0
  -31.3289  -17.2500   18.4554 H   0  0  0  0  0  0
  -31.7209  -18.1910   19.8933 H   0  0  0  0  0  0
  -28.4625  -17.8948   18.2157 H   0  0  0  0  0  0
  -27.6572  -16.8745   19.3943 H   0  0  0  0  0  0
  -28.8394  -16.1812   18.2932 H   0  0  0  0  0  0
  -30.6405  -23.4421   20.3341 H   0  0  0  0  0  0
  -31.0819  -21.7473   20.5030 H   0  0  0  0  0  0
  -30.2440  -22.5723   21.8137 H   0  0  0  0  0  0
  -29.4625  -22.8287   18.1703 H   0  0  0  0  0  0
  -28.1375  -21.6694   18.1776 H   0  0  0  0  0  0
  -29.7916  -21.1132   18.3760 H   0  0  0  0  0  0
  -27.6947  -23.7000   21.4355 H   0  0  0  0  0  0
  -27.0515  -23.5867   19.8615 H   0  0  0  0  0  0
  1 25  1  0  0  0
  1 30  2  0  0  0
  1 79  1  0  0  0
  2  3  1  0  0  0
  2 25  1  0  0  0
  2 83  1  0  0  0
  2 84  1  0  0  0
  3  4  1  0  0  0
  3 85  1  0  0  0
  3 86  1  0  0  0
  4  5  1  0  0  0
  4 87  1  0  0  0
  4 88  1  0  0  0
  5  6  1  0  0  0
  5 26  1  0  0  0
  5 89  1  0  0  0
  6 25  1  0  0  0
  6 90  1  0  0  0
  6 91  1  0  0  0
  7  8  2  0  0  0
  7 26  1  0  0  0
  7 29  1  0  0  0
  8  9  1  0  0  0
  8 22  1  0  0  0
  9 10  1  0  0  0
  9 27  2  0  0  0
 10 11  2  0  0  0
 10 15  1  0  0  0
 11 12  1  0  0  0
 11 92  1  0  0  0
 12 13  2  0  0  0
 12 93  1  0  0  0
 13 14  1  0  0  0
 13 31  1  0  0  0
 14 15  2  0  0  0
 14 94  1  0  0  0
 15 95  1  0  0  0
 16 17  2  0  0  0
 16 21  1  0  0  0
 16 31  1  0  0  0
 17 18  1  0  0  0
 17 96  1  0  0  0
 18 19  2  0  0  0
 18 97  1  0  0  0
 19 20  1  0  0  0
 19 24  1  0  0  0
 20 21  2  0  0  0
 20 98  1  0  0  0
 21 23  1  0  0  0
 22 28  1  0  0  0
 22 32  2  0  0  0
 26 27  1  0  0  0
 28 99  1  0  0  0
 28100  1  0  0  0
 29101  1  0  0  0
 29102  1  0  0  0
 33 34  1  0  0  0
 33 66  1  0  0  0
 33 70  2  0  0  0
 34 36  1  0  0  0
 34 59  1  0  0  0
 34103  1  0  0  0
 35 44  2  0  0  0
 35 45  1  0  0  0
 35 68  1  0  0  0
 36 56  1  0  0  0
 36104  1  0  0  0
 37 39  1  0  0  0
 37 47  1  0  0  0
 37 66  1  0  0  0
 37105  1  0  0  0
 38 43  2  0  0  0
 38 46  1  0  0  0
 38 47  1  0  0  0
 39 64  1  0  0  0
 39 67  2  0  0  0
 40 52  1  0  0  0
 40 53  2  0  0  0
 40 58  1  0  0  0
 41106  1  0  0  0
 41107  1  0  0  0
 41108  1  0  0  0
 41 48  1  0  0  0
 42 43  1  0  0  0
 42 66  1  0  0  0
 42109  1  0  0  0
 42110  1  0  0  0
 43 44  1  0  0  0
 44111  1  0  0  0
 45 46  2  0  0  0
 45112  1  0  0  0
 46113  1  0  0  0
 47114  1  0  0  0
 47115  1  0  0  0
 48 56  1  0  0  0
 48 65  1  0  0  0
 48116  1  0  0  0
 49 50  1  0  0  0
 49 53  1  0  0  0
 49 64  1  0  0  0
 49117  1  0  0  0
 50 51  1  0  0  0
 50118  1  0  0  0
 50119  1  0  0  0
 51 52  1  0  0  0
 51120  1  0  0  0
 51121  1  0  0  0
 52122  1  0  0  0
 52123  1  0  0  0
 53 54  1  0  0  0
 54 55  2  0  0  0
 54124  1  0  0  0
 55 57  1  0  0  0
 55125  1  0  0  0
 56 69  2  0  0  0
 57 58  2  0  0  0
 57126  1  0  0  0
 58127  1  0  0  0
 59 60  1  0  0  0
 59 61  1  0  0  0
 59 62  1  0  0  0
 60128  1  0  0  0
 60129  1  0  0  0
 60130  1  0  0  0
 61131  1  0  0  0
 61132  1  0  0  0
 61133  1  0  0  0
 62134  1  0  0  0
 62135  1  0  0  0
 62136  1  0  0  0
 63 65  1  0  0  0
 63137  1  0  0  0
 63138  1  0  0  0
 63139  1  0  0  0
 64140  1  0  0  0
 65141  1  0  0  0
 68 78  1  0  0  0
 71 72  2  0  0  0
 71 81  1  0  0  0
 71142  1  0  0  0
 72 82  1  0  0  0
 72143  1  0  0  0
 73 79  1  0  0  0
 73 81  2  0  0  0
 73 82  1  0  0  0
 74144  1  0  0  0
 74145  1  0  0  0
 74146  1  0  0  0
 74 79  1  0  0  0
 75 79  1  0  0  0
 75147  1  0  0  0
 75148  1  0  0  0
 75149  1  0  0  0
 76150  1  0  0  0
 76151  1  0  0  0
 76152  1  0  0  0
 76 80  1  0  0  0
 77 80  1  0  0  0
 77153  1  0  0  0
 77154  1  0  0  0
 77155  1  0  0  0
 78 80  1  0  0  0
 78156  1  0  0  0
 78157  1  0  0  0
 80 82  1  0  0  0
M  ISO  4   1 100  68 101  78 101  79 100
M  END
> <chiral flag>
0

> <version>
0

> <s_m_source_file>
/data/baiqing/PycharmProjects/Reinvent-master-3.2/result/LINK_invent/BTK/process_docking_weight1_custom_sum_contain_oxygen_bond_distance_aromatic_linkinvent_7_9_3/rearranged_h_0072.sdf

> <i_m_source_file_index>
86

> <r_mmod_Potential_Energy-OPLS-2005>
2739.81494140625

> <r_mmod_Stretch_Energy-OPLS-2005>
1176.41577148438

> <r_mmod_Bend_Energy-OPLS-2005>
785.939392089844

> <r_mmod_Torsional_Energy-OPLS-2005>
272.528076171875

> <r_mmod_Improper_Torsional_Energy-OPLS-2005>
16.3444366455078

> <r_mmod_Van_der_Waal_Energy-OPLS-2005>
100.111358642578

> <r_mmod_Electrostatic_Energy-OPLS-2005>
-287.887359619141

> <r_mmod_Solvation_Energy-OPLS-2005>
-199.389190673828

> <b_mmod_Minimization_Converged-OPLS-2005>
0

> <r_mmod_RMS_Derivative-OPLS-2005>
3.57071733474731

$$$$
87
                    3D
 Structure written by MMmdl.
181189  0  0  1  0            999 V2000
  -30.5438  -14.9574   20.5028 C   0  0  0  0  0  0
  -30.4421  -12.6068   19.5094 C   0  0  0  0  0  0
  -29.5265  -12.5746   18.2606 C   0  0  0  0  0  0
  -28.0533  -12.3501   18.6562 C   0  0  0  0  0  0
  -27.6357  -13.2456   19.8497 C   0  0  2  0  0  0
  -28.6753  -13.1751   20.9828 C   0  0  0  0  0  0
  -25.2443  -13.8219   20.5659 C   0  0  0  0  0  0
  -24.1762  -13.0435   20.9197 C   0  0  0  0  0  0
  -24.6389  -11.6929   20.8732 C   0  0  0  0  0  0
  -23.9080  -10.4291   21.0409 C   0  0  0  0  0  0
  -24.3628   -9.4199   21.9184 C   0  0  0  0  0  0
  -23.6298   -8.2234   22.0749 C   0  0  0  0  0  0
  -22.4281   -8.0275   21.3536 C   0  0  0  0  0  0
  -21.9922   -9.0249   20.4641 C   0  0  0  0  0  0
  -22.7254  -10.2127   20.3049 C   0  0  0  0  0  0
  -21.6848   -6.0744   22.5283 C   0  0  0  0  0  0
  -21.4016   -6.5647   23.8218 C   0  0  0  0  0  0
  -21.3651   -5.6799   24.9178 C   0  0  0  0  0  0
  -21.6044   -4.3064   24.7226 C   0  0  0  0  0  0
  -21.8817   -3.8153   23.4349 C   0  0  0  0  0  0
  -21.9181   -4.6972   22.3408 C   0  0  0  0  0  0
  -22.7779  -13.5193   21.1882 C   0  0  0  0  0  0
  -22.1648   -4.2162   21.0985 F   0  0  0  0  0  0
  -21.5624   -3.4548   25.7738 F   0  0  0  0  0  0
  -29.9516  -13.6788   20.4394 N   0  0  0  0  0  0
  -26.2883  -12.9448   20.3230 N   0  0  0  0  0  0
  -25.9314  -11.6583   20.5698 N   0  0  0  0  0  0
  -22.0441  -12.8164   22.0447 N   0  0  0  0  0  0
  -25.4093  -15.1940   20.4089 N   0  0  0  0  0  0
  -31.6773  -15.0019   20.0071 O   0  0  0  0  0  0
  -21.6630   -6.8881   21.4240 O   0  0  0  0  0  0
  -22.3445  -14.5487   20.6722 O   0  0  0  0  0  0
  -24.6433  -31.8422   23.1846 C   0  0  0  0  0  0
  -25.9204  -32.4675   23.8235 C   0  0  1  0  0  0
  -27.2225  -27.1307   20.1611 C   0  0  0  0  0  0
  -25.5950  -33.8483   24.2153 N   0  0  0  0  0  0
  -23.4459  -30.4592   21.5299 C   0  0  2  0  0  0
  -24.8964  -28.8733   20.1178 C   0  0  0  0  0  0
  -22.7561  -29.4559   22.4873 C   0  0  0  0  0  0
  -18.0304  -28.1400   22.8483 C   0  0  0  0  0  0
  -24.1492  -36.7266   23.2643 C   0  0  0  0  0  0
  -26.0004  -30.7134   21.3812 C   0  0  0  0  0  0
  -26.0721  -29.3209   20.7332 C   0  0  0  0  0  0
  -27.2378  -28.4660   20.7332 C   0  0  0  0  0  0
  -26.0238  -26.7795   19.5128 C   0  0  0  0  0  0
  -24.8847  -27.6164   19.4917 C   0  0  0  0  0  0
  -23.6713  -29.7752   20.1547 C   0  0  0  0  0  0
  -25.4124  -36.3029   24.0302 C   0  0  1  0  0  0
  -20.5915  -28.3735   23.1237 C   0  0  2  0  0  0
  -20.6805  -26.9435   22.5403 C   0  0  0  0  0  0
  -19.5771  -26.6394   21.5217 C   0  0  0  0  0  0
  -18.1948  -26.7948   22.1620 C   0  0  0  0  0  0
  -19.1560  -28.8880   23.2854 C   0  0  0  0  0  0
  -18.9475  -30.1483   23.8872 C   0  0  0  0  0  0
  -17.6472  -30.6597   24.0564 C   0  0  0  0  0  0
  -25.9068  -34.9400   23.5045 C   0  0  0  0  0  0
  -16.5361  -29.9092   23.6338 C   0  0  0  0  0  0
  -16.7291  -28.6506   23.0362 C   0  0  0  0  0  0
  -26.4522  -31.6552   25.0676 C   0  0  0  0  0  0
  -25.3690  -31.3728   26.1346 C   0  0  0  0  0  0
  -27.0389  -30.2948   24.6254 C   0  0  0  0  0  0
  -27.6047  -32.4329   25.7458 C   0  0  0  0  0  0
  -27.5577  -37.1782   24.8460 C   0  0  0  0  0  0
  -21.4251  -29.3064   22.3611 N   0  0  0  0  0  0
  -26.4293  -37.3735   23.9396 N   0  0  0  0  0  0
  -24.7164  -31.0277   22.0873 N   0  0  0  0  0  0
  -23.4209  -28.8120   23.3025 O   0  0  0  0  0  0
  -28.3196  -26.2004   20.1234 O   0  0  0  0  0  0
  -26.5662  -34.8911   22.4631 O   0  0  0  0  0  0
  -23.5552  -32.1314   23.7058 O   0  0  0  0  0  0
  -29.2805  -19.2105   21.3764 C   0  0  0  0  0  0
  -30.6029  -18.4971   19.4452 C   0  0  0  0  0  0
  -29.1940  -20.8452   18.6934 C   0  0  0  0  0  0
  -29.5750  -17.8899   20.4384 C   0  0  1  0  0  0
  -28.5589  -20.6581   21.0304 C   0  0  2  0  0  0
  -30.1672  -19.6017   18.3879 C   0  0  0  0  0  0
  -29.1303  -21.7804   19.9885 C   0  0  1  0  0  0
  -28.3283  -21.3412   22.3951 C   0  0  0  0  0  0
  -29.4780  -18.8303   17.2370 C   0  0  0  0  0  0
  -31.4821  -20.1588   17.7919 C   0  0  0  0  0  0
  -30.5598  -22.1735   20.4051 C   0  0  0  0  0  0
  -31.2192  -16.8050   22.1010 C   0  0  0  0  0  0
  -28.8857  -16.0906   22.2073 C   0  0  0  0  0  0
  -26.7596  -22.8753   19.6446 C   0  0  0  0  0  0
  -28.5926  -23.7976   18.2731 C   0  0  0  0  0  0
  -28.3201  -24.7050   20.5872 C   0  0  0  0  0  0
  -30.0138  -16.4089   21.2061 C   0  0  0  0  0  0
  -28.2553  -23.2668   19.6892 C   0  0  0  0  0  0
  -31.4754  -12.7593   19.1993 H   0  0  0  0  0  0
  -30.4474  -11.6345   20.0042 H   0  0  0  0  0  0
  -29.8538  -11.7988   17.5681 H   0  0  0  0  0  0
  -29.6195  -13.5198   17.7244 H   0  0  0  0  0  0
  -27.9367  -11.2989   18.9248 H   0  0  0  0  0  0
  -27.3981  -12.5226   17.8021 H   0  0  0  0  0  0
  -27.6244  -14.2698   19.4768 H   0  0  0  0  0  0
  -28.7799  -12.1447   21.3232 H   0  0  0  0  0  0
  -28.3177  -13.6894   21.8619 H   0  0  0  0  0  0
  -25.2773   -9.5675   22.4760 H   0  0  0  0  0  0
  -24.0009   -7.4627   22.7470 H   0  0  0  0  0  0
  -21.0848   -8.8760   19.8957 H   0  0  0  0  0  0
  -22.3703  -10.9656   19.6152 H   0  0  0  0  0  0
  -21.2017   -7.6157   23.9728 H   0  0  0  0  0  0
  -21.1469   -6.0528   25.9082 H   0  0  0  0  0  0
  -22.0601   -2.7617   23.2845 H   0  0  0  0  0  0
  -22.4066  -11.9829   22.4835 H   0  0  0  0  0  0
  -21.1052  -13.1162   22.2669 H   0  0  0  0  0  0
  -24.6465  -15.8500   20.5334 H   0  0  0  0  0  0
  -26.2630  -15.6366   20.0949 H   0  0  0  0  0  0
  -26.7269  -32.5278   23.0967 H   0  0  0  0  0  0
  -25.0073  -33.9588   25.0278 H   0  0  0  0  0  0
  -22.7475  -31.2826   21.3667 H   0  0  0  0  0  0
  -23.3753  -35.9598   23.3297 H   0  0  0  0  0  0
  -24.3573  -36.8918   22.2061 H   0  0  0  0  0  0
  -23.7250  -37.6458   23.6693 H   0  0  0  0  0  0
  -26.1491  -31.4591   20.6001 H   0  0  0  0  0  0
  -26.8754  -30.7720   22.0175 H   0  0  0  0  0  0
  -28.1413  -28.8117   21.2150 H   0  0  0  0  0  0
  -25.9643  -25.8304   19.0059 H   0  0  0  0  0  0
  -23.9912  -27.2719   18.9897 H   0  0  0  0  0  0
  -23.7989  -30.5377   19.3852 H   0  0  0  0  0  0
  -22.7880  -29.2068   19.8574 H   0  0  0  0  0  0
  -25.1311  -36.1859   25.0789 H   0  0  0  0  0  0
  -20.9999  -28.3351   24.1367 H   0  0  0  0  0  0
  -20.5724  -26.2342   23.3621 H   0  0  0  0  0  0
  -21.6666  -26.7468   22.1170 H   0  0  0  0  0  0
  -19.6929  -25.6299   21.1270 H   0  0  0  0  0  0
  -19.6725  -27.3189   20.6732 H   0  0  0  0  0  0
  -17.4225  -26.6711   21.4023 H   0  0  0  0  0  0
  -18.0336  -26.0082   22.9001 H   0  0  0  0  0  0
  -19.7940  -30.7311   24.2247 H   0  0  0  0  0  0
  -17.5011  -31.6276   24.5173 H   0  0  0  0  0  0
  -15.5356  -30.2974   23.7686 H   0  0  0  0  0  0
  -15.8693  -28.0819   22.7089 H   0  0  0  0  0  0
  -24.5892  -30.7060   25.7657 H   0  0  0  0  0  0
  -24.8834  -32.2889   26.4712 H   0  0  0  0  0  0
  -25.7946  -30.8939   27.0167 H   0  0  0  0  0  0
  -26.3000  -29.6645   24.1289 H   0  0  0  0  0  0
  -27.4044  -29.7271   25.4824 H   0  0  0  0  0  0
  -27.8887  -30.4194   23.9537 H   0  0  0  0  0  0
  -27.2657  -33.3678   26.1941 H   0  0  0  0  0  0
  -28.3901  -32.6819   25.0307 H   0  0  0  0  0  0
  -28.0657  -31.8503   26.5445 H   0  0  0  0  0  0
  -28.2578  -38.0097   24.7512 H   0  0  0  0  0  0
  -28.1102  -36.2622   24.6294 H   0  0  0  0  0  0
  -27.2290  -37.1434   25.8864 H   0  0  0  0  0  0
  -20.9472  -29.8757   21.6764 H   0  0  0  0  0  0
  -26.0167  -38.2810   24.1390 H   0  0  0  0  0  0
  -30.2171  -19.4643   21.8723 H   0  0  0  0  0  0
  -28.6581  -18.8355   22.1819 H   0  0  0  0  0  0
  -31.0485  -17.6627   18.9010 H   0  0  0  0  0  0
  -31.4386  -18.8930   20.0234 H   0  0  0  0  0  0
  -28.1753  -20.4932   18.5317 H   0  0  0  0  0  0
  -29.3640  -21.4816   17.8338 H   0  0  0  0  0  0
  -28.6622  -17.6751   19.8832 H   0  0  0  0  0  0
  -27.5633  -20.3900   20.6752 H   0  0  0  0  0  0
  -29.2713  -21.5062   22.9157 H   0  0  0  0  0  0
  -27.7021  -20.7309   23.0462 H   0  0  0  0  0  0
  -27.8388  -22.3079   22.3031 H   0  0  0  0  0  0
  -28.5543  -18.3553   17.5683 H   0  0  0  0  0  0
  -30.1145  -18.0459   16.8253 H   0  0  0  0  0  0
  -29.2221  -19.4939   16.4093 H   0  0  0  0  0  0
  -32.0468  -20.7435   18.5166 H   0  0  0  0  0  0
  -31.3050  -20.7994   16.9268 H   0  0  0  0  0  0
  -32.1387  -19.3551   17.4552 H   0  0  0  0  0  0
  -31.1779  -21.3012   20.6092 H   0  0  0  0  0  0
  -30.5632  -22.7759   21.3120 H   0  0  0  0  0  0
  -31.0564  -22.7523   19.6274 H   0  0  0  0  0  0
  -30.9628  -17.5724   22.8305 H   0  0  0  0  0  0
  -32.0494  -17.1857   21.5058 H   0  0  0  0  0  0
  -31.6006  -15.9575   22.6735 H   0  0  0  0  0  0
  -28.6787  -16.9046   22.8956 H   0  0  0  0  0  0
  -29.1678  -15.2704   22.8651 H   0  0  0  0  0  0
  -27.9494  -15.8617   21.7020 H   0  0  0  0  0  0
  -26.5781  -22.0363   18.9751 H   0  0  0  0  0  0
  -26.1318  -23.6909   19.2930 H   0  0  0  0  0  0
  -26.3792  -22.5900   20.6242 H   0  0  0  0  0  0
  -28.2109  -23.1600   17.4760 H   0  0  0  0  0  0
  -29.6646  -23.9279   18.1355 H   0  0  0  0  0  0
  -28.1302  -24.7659   18.0796 H   0  0  0  0  0  0
  -29.2724  -24.6485   21.1136 H   0  0  0  0  0  0
  -27.5887  -24.6303   21.3910 H   0  0  0  0  0  0
  1 25  1  0  0  0
  1 30  2  0  0  0
  1 87  1  0  0  0
  2  3  1  0  0  0
  2 25  1  0  0  0
  2 89  1  0  0  0
  2 90  1  0  0  0
  3  4  1  0  0  0
  3 91  1  0  0  0
  3 92  1  0  0  0
  4  5  1  0  0  0
  4 93  1  0  0  0
  4 94  1  0  0  0
  5  6  1  0  0  0
  5 26  1  0  0  0
  5 95  1  0  0  0
  6 25  1  0  0  0
  6 96  1  0  0  0
  6 97  1  0  0  0
  7  8  2  0  0  0
  7 26  1  0  0  0
  7 29  1  0  0  0
  8  9  1  0  0  0
  8 22  1  0  0  0
  9 10  1  0  0  0
  9 27  2  0  0  0
 10 11  2  0  0  0
 10 15  1  0  0  0
 11 12  1  0  0  0
 11 98  1  0  0  0
 12 13  2  0  0  0
 12 99  1  0  0  0
 13 14  1  0  0  0
 13 31  1  0  0  0
 14 15  2  0  0  0
 14100  1  0  0  0
 15101  1  0  0  0
 16 17  2  0  0  0
 16 21  1  0  0  0
 16 31  1  0  0  0
 17 18  1  0  0  0
 17102  1  0  0  0
 18 19  2  0  0  0
 18103  1  0  0  0
 19 20  1  0  0  0
 19 24  1  0  0  0
 20 21  2  0  0  0
 20104  1  0  0  0
 21 23  1  0  0  0
 22 28  1  0  0  0
 22 32  2  0  0  0
 26 27  1  0  0  0
 28105  1  0  0  0
 28106  1  0  0  0
 29107  1  0  0  0
 29108  1  0  0  0
 33 34  1  0  0  0
 33 66  1  0  0  0
 33 70  2  0  0  0
 34 36  1  0  0  0
 34 59  1  0  0  0
 34109  1  0  0  0
 35 44  2  0  0  0
 35 45  1  0  0  0
 35 68  1  0  0  0
 36 56  1  0  0  0
 36110  1  0  0  0
 37 39  1  0  0  0
 37 47  1  0  0  0
 37 66  1  0  0  0
 37111  1  0  0  0
 38 43  2  0  0  0
 38 46  1  0  0  0
 38 47  1  0  0  0
 39 64  1  0  0  0
 39 67  2  0  0  0
 40 52  1  0  0  0
 40 53  2  0  0  0
 40 58  1  0  0  0
 41112  1  0  0  0
 41113  1  0  0  0
 41114  1  0  0  0
 41 48  1  0  0  0
 42 43  1  0  0  0
 42 66  1  0  0  0
 42115  1  0  0  0
 42116  1  0  0  0
 43 44  1  0  0  0
 44117  1  0  0  0
 45 46  2  0  0  0
 45118  1  0  0  0
 46119  1  0  0  0
 47120  1  0  0  0
 47121  1  0  0  0
 48 56  1  0  0  0
 48 65  1  0  0  0
 48122  1  0  0  0
 49 50  1  0  0  0
 49 53  1  0  0  0
 49 64  1  0  0  0
 49123  1  0  0  0
 50 51  1  0  0  0
 50124  1  0  0  0
 50125  1  0  0  0
 51 52  1  0  0  0
 51126  1  0  0  0
 51127  1  0  0  0
 52128  1  0  0  0
 52129  1  0  0  0
 53 54  1  0  0  0
 54 55  2  0  0  0
 54130  1  0  0  0
 55 57  1  0  0  0
 55131  1  0  0  0
 56 69  2  0  0  0
 57 58  2  0  0  0
 57132  1  0  0  0
 58133  1  0  0  0
 59 60  1  0  0  0
 59 61  1  0  0  0
 59 62  1  0  0  0
 60134  1  0  0  0
 60135  1  0  0  0
 60136  1  0  0  0
 61137  1  0  0  0
 61138  1  0  0  0
 61139  1  0  0  0
 62140  1  0  0  0
 62141  1  0  0  0
 62142  1  0  0  0
 63 65  1  0  0  0
 63143  1  0  0  0
 63144  1  0  0  0
 63145  1  0  0  0
 64146  1  0  0  0
 65147  1  0  0  0
 68 86  1  0  0  0
 71 75  1  0  0  0
 71148  1  0  0  0
 71149  1  0  0  0
 71 74  1  0  0  0
 72 74  1  0  0  0
 72 76  1  0  0  0
 72150  1  0  0  0
 72151  1  0  0  0
 73 76  1  0  0  0
 73 77  1  0  0  0
 73152  1  0  0  0
 73153  1  0  0  0
 74 87  1  0  0  0
 74154  1  0  0  0
 75 77  1  0  0  0
 75 78  1  0  0  0
 75155  1  0  0  0
 76 79  1  0  0  0
 76 80  1  0  0  0
 77 81  1  0  0  0
 77 88  1  0  0  0
 78156  1  0  0  0
 78157  1  0  0  0
 78158  1  0  0  0
 79159  1  0  0  0
 79160  1  0  0  0
 79161  1  0  0  0
 80162  1  0  0  0
 80163  1  0  0  0
 80164  1  0  0  0
 81165  1  0  0  0
 81166  1  0  0  0
 81167  1  0  0  0
 82168  1  0  0  0
 82169  1  0  0  0
 82170  1  0  0  0
 82 87  1  0  0  0
 83 87  1  0  0  0
 83171  1  0  0  0
 83172  1  0  0  0
 83173  1  0  0  0
 84174  1  0  0  0
 84175  1  0  0  0
 84176  1  0  0  0
 84 88  1  0  0  0
 85 88  1  0  0  0
 85177  1  0  0  0
 85178  1  0  0  0
 85179  1  0  0  0
 86 88  1  0  0  0
 86180  1  0  0  0
 86181  1  0  0  0
M  ISO  4   1 100  68 101  86 101  87 100
M  END
> <chiral flag>
0

> <version>
0

> <s_m_source_file>
/data/baiqing/PycharmProjects/Reinvent-master-3.2/result/LINK_invent/BTK/process_docking_weight1_custom_sum_contain_oxygen_bond_distance_aromatic_linkinvent_7_9_3/rearranged_h_0072.sdf

> <i_m_source_file_index>
87

> <r_mmod_Potential_Energy-OPLS-2005>
891.312805175781

> <r_mmod_Stretch_Energy-OPLS-2005>
335.532379150391

> <r_mmod_Bend_Energy-OPLS-2005>
446.874572753906

> <r_mmod_Torsional_Energy-OPLS-2005>
286.358276367188

> <r_mmod_Improper_Torsional_Energy-OPLS-2005>
2.15964651107788

> <r_mmod_Van_der_Waal_Energy-OPLS-2005>
143.77311706543

> <r_mmod_Electrostatic_Energy-OPLS-2005>
-342.531494140625

> <r_mmod_Solvation_Energy-OPLS-2005>
-157.138824462891

> <b_mmod_Minimization_Converged-OPLS-2005>
0

> <r_mmod_RMS_Derivative-OPLS-2005>
2.28937125205994

$$$$
88
                    3D
 Structure written by MMmdl.
167175  0  0  1  0            999 V2000
  -30.6530  -14.6896   20.3855 C   0  0  0  0  0  0
  -30.4223  -12.4039   19.4688 C   0  0  0  0  0  0
  -29.5061  -12.4646   18.2286 C   0  0  0  0  0  0
  -28.0317  -12.3155   18.6481 C   0  0  0  0  0  0
  -27.6424  -13.2293   19.8410 C   0  0  2  0  0  0
  -28.6886  -13.1759   20.9742 C   0  0  0  0  0  0
  -25.2528  -13.8200   20.5695 C   0  0  0  0  0  0
  -24.1800  -13.0441   20.9195 C   0  0  0  0  0  0
  -24.6395  -11.6922   20.8741 C   0  0  0  0  0  0
  -23.9079  -10.4295   21.0413 C   0  0  0  0  0  0
  -24.3624   -9.4214   21.9196 C   0  0  0  0  0  0
  -23.6289   -8.2257   22.0781 C   0  0  0  0  0  0
  -22.4266   -8.0299   21.3571 C   0  0  0  0  0  0
  -21.9909   -9.0274   20.4672 C   0  0  0  0  0  0
  -22.7248  -10.2149   20.3077 C   0  0  0  0  0  0
  -21.6857   -6.0736   22.5271 C   0  0  0  0  0  0
  -21.4010   -6.5645   23.8201 C   0  0  0  0  0  0
  -21.3663   -5.6804   24.9160 C   0  0  0  0  0  0
  -21.6045   -4.3063   24.7219 C   0  0  0  0  0  0
  -21.8824   -3.8148   23.4342 C   0  0  0  0  0  0
  -21.9196   -4.6959   22.3395 C   0  0  0  0  0  0
  -22.7826  -13.5245   21.1837 C   0  0  0  0  0  0
  -22.1665   -4.2153   21.0968 F   0  0  0  0  0  0
  -21.5627   -3.4546   25.7732 F   0  0  0  0  0  0
  -29.9942  -13.4869   20.3798 N   0  0  0  0  0  0
  -26.2947  -12.9408   20.3248 N   0  0  0  0  0  0
  -25.9322  -11.6545   20.5711 N   0  0  0  0  0  0
  -22.0466  -12.8241   22.0388 N   0  0  0  0  0  0
  -25.4190  -15.1915   20.4137 N   0  0  0  0  0  0
  -31.8548  -14.7109   20.1224 O   0  0  0  0  0  0
  -21.6648   -6.8880   21.4236 O   0  0  0  0  0  0
  -22.3530  -14.5544   20.6677 O   0  0  0  0  0  0
  -24.6299  -31.8550   23.1982 C   0  0  0  0  0  0
  -25.9143  -32.4738   23.8313 C   0  0  1  0  0  0
  -27.2249  -27.2890   20.0987 C   0  0  0  0  0  0
  -25.5956  -33.8540   24.2242 N   0  0  0  0  0  0
  -23.4237  -30.4787   21.5409 C   0  0  2  0  0  0
  -24.8671  -28.9202   20.1094 C   0  0  0  0  0  0
  -22.7494  -29.4607   22.4921 C   0  0  0  0  0  0
  -18.0299  -28.1411   22.8474 C   0  0  0  0  0  0
  -24.1494  -36.7275   23.2635 C   0  0  0  0  0  0
  -25.9674  -30.7741   21.3732 C   0  0  0  0  0  0
  -26.0374  -29.3993   20.7111 C   0  0  0  0  0  0
  -27.2151  -28.5926   20.6965 C   0  0  0  0  0  0
  -26.0249  -26.8577   19.4939 C   0  0  0  0  0  0
  -24.8621  -27.6554   19.4969 C   0  0  0  0  0  0
  -23.6392  -29.8085   20.1571 C   0  0  0  0  0  0
  -25.4124  -36.3051   24.0312 C   0  0  1  0  0  0
  -20.5892  -28.3708   23.1288 C   0  0  2  0  0  0
  -20.6792  -26.9440   22.5420 C   0  0  0  0  0  0
  -19.5766  -26.6402   21.5226 C   0  0  0  0  0  0
  -18.1941  -26.7949   22.1624 C   0  0  0  0  0  0
  -19.1545  -28.8888   23.2867 C   0  0  0  0  0  0
  -18.9473  -30.1488   23.8890 C   0  0  0  0  0  0
  -17.6470  -30.6605   24.0578 C   0  0  0  0  0  0
  -25.9069  -34.9427   23.5073 C   0  0  0  0  0  0
  -16.5361  -29.9108   23.6335 C   0  0  0  0  0  0
  -16.7286  -28.6531   23.0344 C   0  0  0  0  0  0
  -26.4525  -31.6563   25.0717 C   0  0  0  0  0  0
  -25.3770  -31.3733   26.1459 C   0  0  0  0  0  0
  -27.0352  -30.2965   24.6204 C   0  0  0  0  0  0
  -27.6070  -32.4310   25.7502 C   0  0  0  0  0  0
  -27.5571  -37.1795   24.8461 C   0  0  0  0  0  0
  -21.4203  -29.3044   22.3665 N   0  0  0  0  0  0
  -26.4281  -37.3759   23.9409 N   0  0  0  0  0  0
  -24.6930  -31.0539   22.0934 N   0  0  0  0  0  0
  -23.4195  -28.8185   23.3036 O   0  0  0  0  0  0
  -28.3599  -26.4562   20.1592 O   0  0  0  0  0  0
  -26.5630  -34.8907   22.4638 O   0  0  0  0  0  0
  -23.5456  -32.1374   23.7295 O   0  0  0  0  0  0
  -29.4896  -19.7880   19.6819 C   0  0  0  0  0  0
  -28.1390  -20.7213   21.4296 C   0  0  0  0  0  0
  -28.8467  -20.9532   20.2331 C   0  0  0  0  0  0
  -29.4158  -18.4949   20.3130 C   0  0  0  0  0  0
  -28.0897  -19.4206   22.0011 C   0  0  0  0  0  0
  -31.7534  -17.6067   20.0067 C   0  0  0  0  0  0
  -28.3025  -18.4537   24.3139 C   0  0  0  0  0  0
  -26.1425  -18.1806   23.0180 C   0  0  0  0  0  0
  -26.7745  -20.3873   23.9887 C   0  0  0  0  0  0
  -28.9229  -22.3905   19.5648 C   0  0  0  0  0  0
  -28.3354  -23.7209   20.2697 C   0  0  0  0  0  0
  -28.4782  -25.1257   19.4884 C   0  0  0  0  0  0
  -30.2581  -17.2421   19.8450 C   0  0  2  0  0  0
  -27.3343  -19.1159   23.3107 C   0  0  0  0  0  0
  -28.7056  -18.3425   21.4457 N   0  0  0  0  0  0
  -29.9148  -15.8572   20.4023 N   0  0  0  0  0  0
  -31.4672  -12.4905   19.1641 H   0  0  0  0  0  0
  -30.3416  -11.4355   19.9657 H   0  0  0  0  0  0
  -29.7724  -11.6729   17.5269 H   0  0  0  0  0  0
  -29.6494  -13.4054   17.6934 H   0  0  0  0  0  0
  -27.8847  -11.2701   18.9235 H   0  0  0  0  0  0
  -27.3736  -12.5060   17.7996 H   0  0  0  0  0  0
  -27.6355  -14.2459   19.4480 H   0  0  0  0  0  0
  -28.7093  -12.1894   21.4399 H   0  0  0  0  0  0
  -28.4368  -13.8903   21.7594 H   0  0  0  0  0  0
  -25.2781   -9.5680   22.4757 H   0  0  0  0  0  0
  -24.0006   -7.4655   22.7507 H   0  0  0  0  0  0
  -21.0849   -8.8799   19.8976 H   0  0  0  0  0  0
  -22.3720  -10.9689   19.6189 H   0  0  0  0  0  0
  -21.1996   -7.6151   23.9698 H   0  0  0  0  0  0
  -21.1482   -6.0528   25.9065 H   0  0  0  0  0  0
  -22.0599   -2.7615   23.2829 H   0  0  0  0  0  0
  -22.4085  -11.9929   22.4805 H   0  0  0  0  0  0
  -21.1097  -13.1278   22.2591 H   0  0  0  0  0  0
  -24.6541  -15.8427   20.5510 H   0  0  0  0  0  0
  -26.2672  -15.6415   20.0958 H   0  0  0  0  0  0
  -26.7223  -32.5388   23.1051 H   0  0  0  0  0  0
  -25.0129  -33.9669   25.0400 H   0  0  0  0  0  0
  -22.7166  -31.2990   21.3936 H   0  0  0  0  0  0
  -23.3742  -35.9615   23.3285 H   0  0  0  0  0  0
  -24.3590  -36.8918   22.2055 H   0  0  0  0  0  0
  -23.7266  -37.6476   23.6674 H   0  0  0  0  0  0
  -26.1091  -31.5378   20.6070 H   0  0  0  0  0  0
  -26.8432  -30.8162   22.0102 H   0  0  0  0  0  0
  -28.1170  -28.9522   21.1708 H   0  0  0  0  0  0
  -25.9485  -25.8803   19.0438 H   0  0  0  0  0  0
  -23.9585  -27.2760   19.0409 H   0  0  0  0  0  0
  -23.7693  -30.5841   19.4002 H   0  0  0  0  0  0
  -22.7530  -29.2467   19.8524 H   0  0  0  0  0  0
  -25.1305  -36.1875   25.0797 H   0  0  0  0  0  0
  -20.9970  -28.3314   24.1411 H   0  0  0  0  0  0
  -20.5734  -26.2339   23.3626 H   0  0  0  0  0  0
  -21.6664  -26.7509   22.1203 H   0  0  0  0  0  0
  -19.6944  -25.6316   21.1267 H   0  0  0  0  0  0
  -19.6709  -27.3206   20.6752 H   0  0  0  0  0  0
  -17.4225  -26.6698   21.4017 H   0  0  0  0  0  0
  -18.0335  -26.0107   22.9038 H   0  0  0  0  0  0
  -19.7954  -30.7305   24.2236 H   0  0  0  0  0  0
  -17.5038  -31.6280   24.5201 H   0  0  0  0  0  0
  -15.5362  -30.3017   23.7676 H   0  0  0  0  0  0
  -15.8679  -28.0867   22.7036 H   0  0  0  0  0  0
  -24.5936  -30.7066   25.7840 H   0  0  0  0  0  0
  -24.8975  -32.2909   26.4872 H   0  0  0  0  0  0
  -25.8127  -30.8958   27.0239 H   0  0  0  0  0  0
  -26.2926  -29.6721   24.1223 H   0  0  0  0  0  0
  -27.4007  -29.7230   25.4730 H   0  0  0  0  0  0
  -27.8812  -30.4207   23.9443 H   0  0  0  0  0  0
  -27.2642  -33.3588   26.2074 H   0  0  0  0  0  0
  -28.3881  -32.6900   25.0353 H   0  0  0  0  0  0
  -28.0716  -31.8450   26.5429 H   0  0  0  0  0  0
  -28.2588  -38.0099   24.7507 H   0  0  0  0  0  0
  -28.1074  -36.2628   24.6272 H   0  0  0  0  0  0
  -27.2297  -37.1428   25.8869 H   0  0  0  0  0  0
  -20.9405  -29.8731   21.6825 H   0  0  0  0  0  0
  -26.0143  -38.2813   24.1435 H   0  0  0  0  0  0
  -30.0738  -19.8874   18.7779 H   0  0  0  0  0  0
  -27.6373  -21.5528   21.9001 H   0  0  0  0  0  0
  -31.9569  -18.6170   19.6516 H   0  0  0  0  0  0
  -32.0727  -17.5590   21.0479 H   0  0  0  0  0  0
  -32.4052  -16.9667   19.4123 H   0  0  0  0  0  0
  -28.6939  -17.5105   23.9342 H   0  0  0  0  0  0
  -27.8186  -18.2397   25.2667 H   0  0  0  0  0  0
  -29.1594  -19.0993   24.5116 H   0  0  0  0  0  0
  -26.4640  -17.2372   22.5761 H   0  0  0  0  0  0
  -25.4413  -18.6423   22.3214 H   0  0  0  0  0  0
  -25.5876  -17.9393   23.9236 H   0  0  0  0  0  0
  -27.5644  -21.0984   24.2340 H   0  0  0  0  0  0
  -26.2750  -20.1463   24.9279 H   0  0  0  0  0  0
  -26.0445  -20.8946   23.3575 H   0  0  0  0  0  0
  -28.4607  -22.2967   18.5798 H   0  0  0  0  0  0
  -29.9810  -22.5674   19.3686 H   0  0  0  0  0  0
  -28.8263  -23.8172   21.2373 H   0  0  0  0  0  0
  -27.2771  -23.5641   20.4804 H   0  0  0  0  0  0
  -27.8905  -25.0947   18.5712 H   0  0  0  0  0  0
  -29.5027  -25.1317   19.1163 H   0  0  0  0  0  0
  -30.0711  -17.1630   18.7726 H   0  0  0  0  0  0
  -28.9410  -15.7590   20.6466 H   0  0  0  0  0  0
  1 25  1  0  0  0
  1 30  2  0  0  0
  1 86  1  0  0  0
  2  3  1  0  0  0
  2 25  1  0  0  0
  2 87  1  0  0  0
  2 88  1  0  0  0
  3  4  1  0  0  0
  3 89  1  0  0  0
  3 90  1  0  0  0
  4  5  1  0  0  0
  4 91  1  0  0  0
  4 92  1  0  0  0
  5  6  1  0  0  0
  5 26  1  0  0  0
  5 93  1  0  0  0
  6 25  1  0  0  0
  6 94  1  0  0  0
  6 95  1  0  0  0
  7  8  2  0  0  0
  7 26  1  0  0  0
  7 29  1  0  0  0
  8  9  1  0  0  0
  8 22  1  0  0  0
  9 10  1  0  0  0
  9 27  2  0  0  0
 10 11  2  0  0  0
 10 15  1  0  0  0
 11 12  1  0  0  0
 11 96  1  0  0  0
 12 13  2  0  0  0
 12 97  1  0  0  0
 13 14  1  0  0  0
 13 31  1  0  0  0
 14 15  2  0  0  0
 14 98  1  0  0  0
 15 99  1  0  0  0
 16 17  2  0  0  0
 16 21  1  0  0  0
 16 31  1  0  0  0
 17 18  1  0  0  0
 17100  1  0  0  0
 18 19  2  0  0  0
 18101  1  0  0  0
 19 20  1  0  0  0
 19 24  1  0  0  0
 20 21  2  0  0  0
 20102  1  0  0  0
 21 23  1  0  0  0
 22 28  1  0  0  0
 22 32  2  0  0  0
 26 27  1  0  0  0
 28103  1  0  0  0
 28104  1  0  0  0
 29105  1  0  0  0
 29106  1  0  0  0
 33 34  1  0  0  0
 33 66  1  0  0  0
 33 70  2  0  0  0
 34 36  1  0  0  0
 34 59  1  0  0  0
 34107  1  0  0  0
 35 44  2  0  0  0
 35 45  1  0  0  0
 35 68  1  0  0  0
 36 56  1  0  0  0
 36108  1  0  0  0
 37 39  1  0  0  0
 37 47  1  0  0  0
 37 66  1  0  0  0
 37109  1  0  0  0
 38 43  2  0  0  0
 38 46  1  0  0  0
 38 47  1  0  0  0
 39 64  1  0  0  0
 39 67  2  0  0  0
 40 52  1  0  0  0
 40 53  2  0  0  0
 40 58  1  0  0  0
 41110  1  0  0  0
 41111  1  0  0  0
 41112  1  0  0  0
 41 48  1  0  0  0
 42 43  1  0  0  0
 42 66  1  0  0  0
 42113  1  0  0  0
 42114  1  0  0  0
 43 44  1  0  0  0
 44115  1  0  0  0
 45 46  2  0  0  0
 45116  1  0  0  0
 46117  1  0  0  0
 47118  1  0  0  0
 47119  1  0  0  0
 48 56  1  0  0  0
 48 65  1  0  0  0
 48120  1  0  0  0
 49 50  1  0  0  0
 49 53  1  0  0  0
 49 64  1  0  0  0
 49121  1  0  0  0
 50 51  1  0  0  0
 50122  1  0  0  0
 50123  1  0  0  0
 51 52  1  0  0  0
 51124  1  0  0  0
 51125  1  0  0  0
 52126  1  0  0  0
 52127  1  0  0  0
 53 54  1  0  0  0
 54 55  2  0  0  0
 54128  1  0  0  0
 55 57  1  0  0  0
 55129  1  0  0  0
 56 69  2  0  0  0
 57 58  2  0  0  0
 57130  1  0  0  0
 58131  1  0  0  0
 59 60  1  0  0  0
 59 61  1  0  0  0
 59 62  1  0  0  0
 60132  1  0  0  0
 60133  1  0  0  0
 60134  1  0  0  0
 61135  1  0  0  0
 61136  1  0  0  0
 61137  1  0  0  0
 62138  1  0  0  0
 62139  1  0  0  0
 62140  1  0  0  0
 63 65  1  0  0  0
 63141  1  0  0  0
 63142  1  0  0  0
 63143  1  0  0  0
 64144  1  0  0  0
 65145  1  0  0  0
 68 82  1  0  0  0
 71 73  2  0  0  0
 71 74  1  0  0  0
 71146  1  0  0  0
 72 73  1  0  0  0
 72 75  2  0  0  0
 72147  1  0  0  0
 73 80  1  0  0  0
 74 83  1  0  0  0
 74 85  2  0  0  0
 75 84  1  0  0  0
 75 85  1  0  0  0
 76148  1  0  0  0
 76149  1  0  0  0
 76150  1  0  0  0
 76 83  1  0  0  0
 77151  1  0  0  0
 77152  1  0  0  0
 77153  1  0  0  0
 77 84  1  0  0  0
 78 84  1  0  0  0
 78154  1  0  0  0
 78155  1  0  0  0
 78156  1  0  0  0
 79 84  1  0  0  0
 79157  1  0  0  0
 79158  1  0  0  0
 79159  1  0  0  0
 80 81  1  0  0  0
 80160  1  0  0  0
 80161  1  0  0  0
 81 82  1  0  0  0
 81162  1  0  0  0
 81163  1  0  0  0
 82164  1  0  0  0
 82165  1  0  0  0
 83 86  1  0  0  0
 83166  1  0  0  0
 86167  1  0  0  0
M  ISO  4   1 100  68 101  82 101  86 100
M  END
> <chiral flag>
0

> <version>
0

> <s_m_source_file>
/data/baiqing/PycharmProjects/Reinvent-master-3.2/result/LINK_invent/BTK/process_docking_weight1_custom_sum_contain_oxygen_bond_distance_aromatic_linkinvent_7_9_3/rearranged_h_0072.sdf

> <i_m_source_file_index>
88

> <r_mmod_Potential_Energy-OPLS-2005>
-202.761459350586

> <r_mmod_Stretch_Energy-OPLS-2005>
105.287582397461

> <r_mmod_Bend_Energy-OPLS-2005>
171.849319458008

> <r_mmod_Torsional_Energy-OPLS-2005>
188.798492431641

> <r_mmod_Improper_Torsional_Energy-OPLS-2005>
7.70758056640625

> <r_mmod_Van_der_Waal_Energy-OPLS-2005>
148.518936157227

> <r_mmod_Electrostatic_Energy-OPLS-2005>
-697.568908691406

> <r_mmod_Solvation_Energy-OPLS-2005>
-196.773818969727

> <b_mmod_Minimization_Converged-OPLS-2005>
0

> <r_mmod_RMS_Derivative-OPLS-2005>
3.34982657432556

$$$$
89
                    3D
 Structure written by MMmdl.
178186  0  0  1  0            999 V2000
  -30.6770  -14.5595   20.5667 C   0  0  0  0  0  0
  -30.4320  -12.3672   19.4253 C   0  0  0  0  0  0
  -29.5027  -12.5204   18.2044 C   0  0  0  0  0  0
  -28.0231  -12.3662   18.6141 C   0  0  0  0  0  0
  -27.6545  -13.2145   19.8623 C   0  0  2  0  0  0
  -28.7000  -13.0320   20.9831 C   0  0  0  0  0  0
  -25.2553  -13.8133   20.5670 C   0  0  0  0  0  0
  -24.1826  -13.0410   20.9190 C   0  0  0  0  0  0
  -24.6401  -11.6880   20.8723 C   0  0  0  0  0  0
  -23.9068  -10.4280   21.0406 C   0  0  0  0  0  0
  -24.3623   -9.4205   21.9185 C   0  0  0  0  0  0
  -23.6297   -8.2240   22.0761 C   0  0  0  0  0  0
  -22.4280   -8.0275   21.3550 C   0  0  0  0  0  0
  -21.9920   -9.0245   20.4647 C   0  0  0  0  0  0
  -22.7245  -10.2124   20.3043 C   0  0  0  0  0  0
  -21.6850   -6.0740   22.5287 C   0  0  0  0  0  0
  -21.3999   -6.5640   23.8221 C   0  0  0  0  0  0
  -21.3658   -5.6792   24.9182 C   0  0  0  0  0  0
  -21.6050   -4.3060   24.7232 C   0  0  0  0  0  0
  -21.8813   -3.8152   23.4357 C   0  0  0  0  0  0
  -21.9189   -4.6968   22.3412 C   0  0  0  0  0  0
  -22.7849  -13.5218   21.1837 C   0  0  0  0  0  0
  -22.1657   -4.2145   21.0996 F   0  0  0  0  0  0
  -21.5647   -3.4540   25.7751 F   0  0  0  0  0  0
  -30.0191  -13.3693   20.4220 N   0  0  0  0  0  0
  -26.2994  -12.9326   20.3296 N   0  0  0  0  0  0
  -25.9322  -11.6483   20.5723 N   0  0  0  0  0  0
  -22.0460  -12.8238   22.0402 N   0  0  0  0  0  0
  -25.4229  -15.1851   20.4100 N   0  0  0  0  0  0
  -31.8257  -14.7273   20.1500 O   0  0  0  0  0  0
  -21.6636   -6.8880   21.4254 O   0  0  0  0  0  0
  -22.3547  -14.5517   20.6661 O   0  0  0  0  0  0
  -24.6254  -31.8639   23.2088 C   0  0  0  0  0  0
  -25.9111  -32.4798   23.8409 C   0  0  1  0  0  0
  -27.2231  -27.3552   20.0884 C   0  0  0  0  0  0
  -25.5936  -33.8606   24.2324 N   0  0  0  0  0  0
  -23.4167  -30.4909   21.5534 C   0  0  2  0  0  0
  -24.8587  -28.9577   20.1119 C   0  0  0  0  0  0
  -22.7469  -29.4645   22.4980 C   0  0  0  0  0  0
  -18.0275  -28.1381   22.8490 C   0  0  0  0  0  0
  -24.1487  -36.7306   23.2638 C   0  0  0  0  0  0
  -25.9589  -30.7993   21.3812 C   0  0  0  0  0  0
  -26.0296  -29.4347   20.7147 C   0  0  0  0  0  0
  -27.2142  -28.6434   20.6978 C   0  0  0  0  0  0
  -26.0247  -26.9339   19.4572 C   0  0  0  0  0  0
  -24.8557  -27.7094   19.4800 C   0  0  0  0  0  0
  -23.6281  -29.8348   20.1663 C   0  0  0  0  0  0
  -25.4114  -36.3113   24.0339 C   0  0  1  0  0  0
  -20.5881  -28.3675   23.1297 C   0  0  2  0  0  0
  -20.6770  -26.9401   22.5411 C   0  0  0  0  0  0
  -19.5746  -26.6374   21.5212 C   0  0  0  0  0  0
  -18.1924  -26.7926   22.1618 C   0  0  0  0  0  0
  -19.1532  -28.8841   23.2886 C   0  0  0  0  0  0
  -18.9452  -30.1450   23.8900 C   0  0  0  0  0  0
  -17.6455  -30.6581   24.0560 C   0  0  0  0  0  0
  -25.9048  -34.9475   23.5136 C   0  0  0  0  0  0
  -16.5344  -29.9081   23.6333 C   0  0  0  0  0  0
  -16.7263  -28.6497   23.0355 C   0  0  0  0  0  0
  -26.4477  -31.6616   25.0788 C   0  0  0  0  0  0
  -25.3711  -31.3743   26.1512 C   0  0  0  0  0  0
  -27.0312  -30.3044   24.6255 C   0  0  0  0  0  0
  -27.6043  -32.4345   25.7562 C   0  0  0  0  0  0
  -27.5590  -37.1817   24.8462 C   0  0  0  0  0  0
  -21.4182  -29.3039   22.3706 N   0  0  0  0  0  0
  -26.4302  -37.3805   23.9406 N   0  0  0  0  0  0
  -24.6856  -31.0676   22.1038 N   0  0  0  0  0  0
  -23.4199  -28.8173   23.3043 O   0  0  0  0  0  0
  -28.3477  -26.5171   20.1324 O   0  0  0  0  0  0
  -26.5609  -34.8922   22.4692 O   0  0  0  0  0  0
  -23.5421  -32.1430   23.7423 O   0  0  0  0  0  0
  -31.7833  -18.6509   20.5236 C   0  0  0  0  0  0
  -31.5608  -19.9117   19.9143 C   0  0  0  0  0  0
  -30.5814  -18.1118   20.8758 C   0  0  0  0  0  0
  -30.2138  -20.1736   19.8209 C   0  0  0  0  0  0
  -29.3494  -19.9137   16.9314 C   0  0  0  0  0  0
  -30.3341  -23.2938   17.3520 C   0  0  0  0  0  0
  -27.6193  -17.7788   19.6099 C   0  0  0  0  0  0
  -31.4851  -16.6186   22.7495 C   0  0  0  0  0  0
  -27.1562  -22.3549   19.8896 C   0  0  0  0  0  0
  -28.6605  -20.8752   17.9261 C   0  0  0  0  0  0
  -30.7004  -22.2281   18.4080 C   0  0  0  0  0  0
  -29.1128  -23.9622   20.3176 C   0  0  0  0  0  0
  -28.1799  -18.8037   20.6080 C   0  0  0  0  0  0
  -28.1100  -25.0963   19.8466 C   0  0  0  0  0  0
  -30.3417  -16.8559   21.7426 C   0  0  2  0  0  0
  -28.7013  -22.4141   20.0814 C   0  0  2  0  0  0
  -29.5454  -21.4159   19.1037 C   0  0  0  0  0  0
  -29.6038  -19.0335   20.4279 N   0  0  0  0  0  0
  -29.9468  -15.5687   21.1059 N   0  0  0  0  0  0
  -31.4752  -12.4881   19.1283 H   0  0  0  0  0  0
  -30.3543  -11.3622   19.8443 H   0  0  0  0  0  0
  -29.7602  -11.7837   17.4432 H   0  0  0  0  0  0
  -29.6566  -13.4986   17.7451 H   0  0  0  0  0  0
  -27.8500  -11.3097   18.8209 H   0  0  0  0  0  0
  -27.3697  -12.6227   17.7795 H   0  0  0  0  0  0
  -27.6832  -14.2578   19.5486 H   0  0  0  0  0  0
  -28.7032  -11.9979   21.3304 H   0  0  0  0  0  0
  -28.4498  -13.6373   21.8552 H   0  0  0  0  0  0
  -25.2764   -9.5686   22.4758 H   0  0  0  0  0  0
  -24.0005   -7.4638   22.7488 H   0  0  0  0  0  0
  -21.0843   -8.8755   19.8956 H   0  0  0  0  0  0
  -22.3702  -10.9659   19.6143 H   0  0  0  0  0  0
  -21.1967   -7.6137   23.9726 H   0  0  0  0  0  0
  -21.1492   -6.0519   25.9089 H   0  0  0  0  0  0
  -22.0590   -2.7609   23.2856 H   0  0  0  0  0  0
  -22.4032  -11.9913   22.4843 H   0  0  0  0  0  0
  -21.1060  -13.1275   22.2511 H   0  0  0  0  0  0
  -24.6469  -15.8311   20.5079 H   0  0  0  0  0  0
  -26.2653  -15.6293   20.0717 H   0  0  0  0  0  0
  -26.7186  -32.5449   23.1165 H   0  0  0  0  0  0
  -25.0081  -33.9758   25.0471 H   0  0  0  0  0  0
  -22.7112  -31.3128   21.4159 H   0  0  0  0  0  0
  -23.3764  -35.9623   23.3292 H   0  0  0  0  0  0
  -24.3577  -36.8931   22.2050 H   0  0  0  0  0  0
  -23.7201  -37.6500   23.6644 H   0  0  0  0  0  0
  -26.1014  -31.5690   20.6214 H   0  0  0  0  0  0
  -26.8349  -30.8340   22.0169 H   0  0  0  0  0  0
  -28.1130  -29.0039   21.1787 H   0  0  0  0  0  0
  -25.9467  -25.9896   18.9409 H   0  0  0  0  0  0
  -23.9578  -27.3390   19.0030 H   0  0  0  0  0  0
  -23.7502  -30.6147   19.4144 H   0  0  0  0  0  0
  -22.7468  -29.2683   19.8593 H   0  0  0  0  0  0
  -25.1291  -36.1996   25.0835 H   0  0  0  0  0  0
  -20.9961  -28.3222   24.1421 H   0  0  0  0  0  0
  -20.5676  -26.2275   23.3599 H   0  0  0  0  0  0
  -21.6637  -26.7443   22.1194 H   0  0  0  0  0  0
  -19.6904  -25.6280   21.1242 H   0  0  0  0  0  0
  -19.6692  -27.3177   20.6737 H   0  0  0  0  0  0
  -17.4202  -26.6686   21.4011 H   0  0  0  0  0  0
  -18.0315  -26.0061   22.9003 H   0  0  0  0  0  0
  -19.7928  -30.7265   24.2271 H   0  0  0  0  0  0
  -17.5007  -31.6264   24.5155 H   0  0  0  0  0  0
  -15.5345  -30.2982   23.7661 H   0  0  0  0  0  0
  -15.8660  -28.0809   22.7085 H   0  0  0  0  0  0
  -24.5877  -30.7109   25.7835 H   0  0  0  0  0  0
  -24.8906  -32.2897   26.4978 H   0  0  0  0  0  0
  -25.8033  -30.8889   27.0276 H   0  0  0  0  0  0
  -26.2893  -29.6815   24.1247 H   0  0  0  0  0  0
  -27.3955  -29.7291   25.4779 H   0  0  0  0  0  0
  -27.8794  -30.4328   23.9526 H   0  0  0  0  0  0
  -27.2653  -33.3636   26.2159 H   0  0  0  0  0  0
  -28.3845  -32.6922   25.0390 H   0  0  0  0  0  0
  -28.0719  -31.8461   26.5467 H   0  0  0  0  0  0
  -28.2612  -38.0117   24.7535 H   0  0  0  0  0  0
  -28.1089  -36.2653   24.6268 H   0  0  0  0  0  0
  -27.2308  -37.1442   25.8866 H   0  0  0  0  0  0
  -20.9356  -29.8793   21.6944 H   0  0  0  0  0  0
  -26.0199  -38.2894   24.1404 H   0  0  0  0  0  0
  -32.7468  -18.2052   20.7326 H   0  0  0  0  0  0
  -32.3510  -20.5561   19.5584 H   0  0  0  0  0  0
  -28.6353  -19.5534   16.1915 H   0  0  0  0  0  0
  -29.7651  -19.0382   17.4298 H   0  0  0  0  0  0
  -30.1565  -20.3943   16.3815 H   0  0  0  0  0  0
  -31.2124  -23.8855   17.0936 H   0  0  0  0  0  0
  -29.5690  -23.9845   17.6894 H   0  0  0  0  0  0
  -29.9793  -22.8458   16.4236 H   0  0  0  0  0  0
  -26.5416  -17.6778   19.7289 H   0  0  0  0  0  0
  -28.0600  -16.7959   19.7511 H   0  0  0  0  0  0
  -27.8080  -18.0663   18.5768 H   0  0  0  0  0  0
  -31.6592  -17.5053   23.3596 H   0  0  0  0  0  0
  -32.4232  -16.3702   22.2533 H   0  0  0  0  0  0
  -31.2496  -15.8012   23.4303 H   0  0  0  0  0  0
  -26.6417  -22.8143   20.7337 H   0  0  0  0  0  0
  -26.7204  -21.3673   19.8162 H   0  0  0  0  0  0
  -26.8476  -22.8729   18.9813 H   0  0  0  0  0  0
  -27.8054  -20.3280   18.3074 H   0  0  0  0  0  0
  -28.2227  -21.7033   17.3696 H   0  0  0  0  0  0
  -31.3509  -22.6672   19.1628 H   0  0  0  0  0  0
  -31.3554  -21.5418   17.8712 H   0  0  0  0  0  0
  -29.1966  -24.0902   21.3967 H   0  0  0  0  0  0
  -30.1131  -24.2014   19.9675 H   0  0  0  0  0  0
  -27.9927  -18.4808   21.6297 H   0  0  0  0  0  0
  -27.6601  -19.7425   20.5310 H   0  0  0  0  0  0
  -27.1722  -24.8622   20.3442 H   0  0  0  0  0  0
  -27.9415  -24.9995   18.7744 H   0  0  0  0  0  0
  -29.4876  -17.0778   22.3810 H   0  0  0  0  0  0
  -28.8623  -21.9684   21.0649 H   0  0  0  0  0  0
  -28.9895  -15.3096   21.2873 H   0  0  0  0  0  0
  1 25  1  0  0  0
  1 30  2  0  0  0
  1 89  1  0  0  0
  2  3  1  0  0  0
  2 25  1  0  0  0
  2 90  1  0  0  0
  2 91  1  0  0  0
  3  4  1  0  0  0
  3 92  1  0  0  0
  3 93  1  0  0  0
  4  5  1  0  0  0
  4 94  1  0  0  0
  4 95  1  0  0  0
  5  6  1  0  0  0
  5 26  1  0  0  0
  5 96  1  0  0  0
  6 25  1  0  0  0
  6 97  1  0  0  0
  6 98  1  0  0  0
  7  8  2  0  0  0
  7 26  1  0  0  0
  7 29  1  0  0  0
  8  9  1  0  0  0
  8 22  1  0  0  0
  9 10  1  0  0  0
  9 27  2  0  0  0
 10 11  2  0  0  0
 10 15  1  0  0  0
 11 12  1  0  0  0
 11 99  1  0  0  0
 12 13  2  0  0  0
 12100  1  0  0  0
 13 14  1  0  0  0
 13 31  1  0  0  0
 14 15  2  0  0  0
 14101  1  0  0  0
 15102  1  0  0  0
 16 17  2  0  0  0
 16 21  1  0  0  0
 16 31  1  0  0  0
 17 18  1  0  0  0
 17103  1  0  0  0
 18 19  2  0  0  0
 18104  1  0  0  0
 19 20  1  0  0  0
 19 24  1  0  0  0
 20 21  2  0  0  0
 20105  1  0  0  0
 21 23  1  0  0  0
 22 28  1  0  0  0
 22 32  2  0  0  0
 26 27  1  0  0  0
 28106  1  0  0  0
 28107  1  0  0  0
 29108  1  0  0  0
 29109  1  0  0  0
 33 34  1  0  0  0
 33 66  1  0  0  0
 33 70  2  0  0  0
 34 36  1  0  0  0
 34 59  1  0  0  0
 34110  1  0  0  0
 35 44  2  0  0  0
 35 45  1  0  0  0
 35 68  1  0  0  0
 36 56  1  0  0  0
 36111  1  0  0  0
 37 39  1  0  0  0
 37 47  1  0  0  0
 37 66  1  0  0  0
 37112  1  0  0  0
 38 43  2  0  0  0
 38 46  1  0  0  0
 38 47  1  0  0  0
 39 64  1  0  0  0
 39 67  2  0  0  0
 40 52  1  0  0  0
 40 53  2  0  0  0
 40 58  1  0  0  0
 41113  1  0  0  0
 41114  1  0  0  0
 41115  1  0  0  0
 41 48  1  0  0  0
 42 43  1  0  0  0
 42 66  1  0  0  0
 42116  1  0  0  0
 42117  1  0  0  0
 43 44  1  0  0  0
 44118  1  0  0  0
 45 46  2  0  0  0
 45119  1  0  0  0
 46120  1  0  0  0
 47121  1  0  0  0
 47122  1  0  0  0
 48 56  1  0  0  0
 48 65  1  0  0  0
 48123  1  0  0  0
 49 50  1  0  0  0
 49 53  1  0  0  0
 49 64  1  0  0  0
 49124  1  0  0  0
 50 51  1  0  0  0
 50125  1  0  0  0
 50126  1  0  0  0
 51 52  1  0  0  0
 51127  1  0  0  0
 51128  1  0  0  0
 52129  1  0  0  0
 52130  1  0  0  0
 53 54  1  0  0  0
 54 55  2  0  0  0
 54131  1  0  0  0
 55 57  1  0  0  0
 55132  1  0  0  0
 56 69  2  0  0  0
 57 58  2  0  0  0
 57133  1  0  0  0
 58134  1  0  0  0
 59 60  1  0  0  0
 59 61  1  0  0  0
 59 62  1  0  0  0
 60135  1  0  0  0
 60136  1  0  0  0
 60137  1  0  0  0
 61138  1  0  0  0
 61139  1  0  0  0
 61140  1  0  0  0
 62141  1  0  0  0
 62142  1  0  0  0
 62143  1  0  0  0
 63 65  1  0  0  0
 63144  1  0  0  0
 63145  1  0  0  0
 63146  1  0  0  0
 64147  1  0  0  0
 65148  1  0  0  0
 68 84  1  0  0  0
 71 72  1  0  0  0
 71 73  2  0  0  0
 71149  1  0  0  0
 72 74  2  0  0  0
 72150  1  0  0  0
 73 85  1  0  0  0
 73 88  1  0  0  0
 74 87  1  0  0  0
 74 88  1  0  0  0
 75 80  1  0  0  0
 75151  1  0  0  0
 75152  1  0  0  0
 75153  1  0  0  0
 76 81  1  0  0  0
 76154  1  0  0  0
 76155  1  0  0  0
 76156  1  0  0  0
 77 83  1  0  0  0
 77157  1  0  0  0
 77158  1  0  0  0
 77159  1  0  0  0
 78160  1  0  0  0
 78161  1  0  0  0
 78162  1  0  0  0
 78 85  1  0  0  0
 79163  1  0  0  0
 79164  1  0  0  0
 79165  1  0  0  0
 79 86  1  0  0  0
 80166  1  0  0  0
 80167  1  0  0  0
 80 87  1  0  0  0
 81 87  1  0  0  0
 81168  1  0  0  0
 81169  1  0  0  0
 82 84  1  0  0  0
 82 86  1  0  0  0
 82170  1  0  0  0
 82171  1  0  0  0
 83 88  1  0  0  0
 83172  1  0  0  0
 83173  1  0  0  0
 84174  1  0  0  0
 84175  1  0  0  0
 85 89  1  0  0  0
 85176  1  0  0  0
 86 87  1  0  0  0
 86177  1  0  0  0
 89178  1  0  0  0
M  ISO  4   1 100  68 101  84 101  89 100
M  END
> <chiral flag>
0

> <version>
0

> <s_m_source_file>
/data/baiqing/PycharmProjects/Reinvent-master-3.2/result/LINK_invent/BTK/process_docking_weight1_custom_sum_contain_oxygen_bond_distance_aromatic_linkinvent_7_9_3/rearranged_h_0072.sdf

> <i_m_source_file_index>
89

> <r_mmod_Potential_Energy-OPLS-2005>
113.711372375488

> <r_mmod_Stretch_Energy-OPLS-2005>
95.6409912109375

> <r_mmod_Bend_Energy-OPLS-2005>
185.053817749023

> <r_mmod_Torsional_Energy-OPLS-2005>
265.654754638672

> <r_mmod_Improper_Torsional_Energy-OPLS-2005>
3.75341939926147

> <r_mmod_Van_der_Waal_Energy-OPLS-2005>
160.923095703125

> <r_mmod_Electrostatic_Energy-OPLS-2005>
-429.891815185547

> <r_mmod_Solvation_Energy-OPLS-2005>
-199.245513916016

> <b_mmod_Minimization_Converged-OPLS-2005>
0

> <r_mmod_RMS_Derivative-OPLS-2005>
2.49616622924805

$$$$
90
                    3D
 Structure written by MMmdl.
161169  0  0  1  0            999 V2000
  -30.6317  -14.8218   20.5281 C   0  0  0  0  0  0
  -30.4267  -12.5167   19.4831 C   0  0  0  0  0  0
  -29.5104  -12.5560   18.2373 C   0  0  0  0  0  0
  -28.0361  -12.3569   18.6376 C   0  0  0  0  0  0
  -27.6457  -13.2319   19.8565 C   0  0  2  0  0  0
  -28.6901  -13.1264   20.9852 C   0  0  0  0  0  0
  -25.2567  -13.8188   20.5708 C   0  0  0  0  0  0
  -24.1842  -13.0427   20.9187 C   0  0  0  0  0  0
  -24.6433  -11.6915   20.8732 C   0  0  0  0  0  0
  -23.9100  -10.4295   21.0416 C   0  0  0  0  0  0
  -24.3650   -9.4220   21.9199 C   0  0  0  0  0  0
  -23.6330   -8.2252   22.0764 C   0  0  0  0  0  0
  -22.4311   -8.0292   21.3552 C   0  0  0  0  0  0
  -21.9947   -9.0262   20.4655 C   0  0  0  0  0  0
  -22.7272  -10.2141   20.3069 C   0  0  0  0  0  0
  -21.6860   -6.0761   22.5286 C   0  0  0  0  0  0
  -21.4004   -6.5657   23.8220 C   0  0  0  0  0  0
  -21.3676   -5.6806   24.9182 C   0  0  0  0  0  0
  -21.6056   -4.3068   24.7220 C   0  0  0  0  0  0
  -21.8815   -3.8166   23.4337 C   0  0  0  0  0  0
  -21.9194   -4.6990   22.3400 C   0  0  0  0  0  0
  -22.7878  -13.5245   21.1844 C   0  0  0  0  0  0
  -22.1672   -4.2186   21.0975 F   0  0  0  0  0  0
  -21.5641   -3.4545   25.7726 F   0  0  0  0  0  0
  -29.9824  -13.5813   20.4381 N   0  0  0  0  0  0
  -26.2978  -12.9376   20.3306 N   0  0  0  0  0  0
  -25.9365  -11.6514   20.5733 N   0  0  0  0  0  0
  -22.0523  -12.8219   22.0387 N   0  0  0  0  0  0
  -25.4259  -15.1913   20.4214 N   0  0  0  0  0  0
  -31.7352  -14.8614   19.9684 O   0  0  0  0  0  0
  -21.6660   -6.8900   21.4250 O   0  0  0  0  0  0
  -22.3574  -14.5567   20.6728 O   0  0  0  0  0  0
  -24.6413  -31.8480   23.1923 C   0  0  0  0  0  0
  -25.9216  -32.4692   23.8295 C   0  0  1  0  0  0
  -27.2176  -27.1912   20.1352 C   0  0  0  0  0  0
  -25.5993  -33.8499   24.2203 N   0  0  0  0  0  0
  -23.4415  -30.4735   21.5344 C   0  0  2  0  0  0
  -24.8921  -28.9154   20.1013 C   0  0  0  0  0  0
  -22.7563  -29.4569   22.4828 C   0  0  0  0  0  0
  -18.0314  -28.1352   22.8498 C   0  0  0  0  0  0
  -24.1496  -36.7239   23.2644 C   0  0  0  0  0  0
  -25.9978  -30.7388   21.3873 C   0  0  0  0  0  0
  -26.0678  -29.3610   20.7185 C   0  0  0  0  0  0
  -27.2344  -28.5155   20.7160 C   0  0  0  0  0  0
  -26.0145  -26.8367   19.4822 C   0  0  0  0  0  0
  -24.8770  -27.6668   19.4647 C   0  0  0  0  0  0
  -23.6656  -29.8098   20.1503 C   0  0  0  0  0  0
  -25.4134  -36.3017   24.0304 C   0  0  1  0  0  0
  -20.5940  -28.3685   23.1233 C   0  0  2  0  0  0
  -20.6795  -26.9378   22.5403 C   0  0  0  0  0  0
  -19.5752  -26.6349   21.5215 C   0  0  0  0  0  0
  -18.1941  -26.7901   22.1636 C   0  0  0  0  0  0
  -19.1577  -28.8840   23.2867 C   0  0  0  0  0  0
  -18.9479  -30.1444   23.8884 C   0  0  0  0  0  0
  -17.6472  -30.6561   24.0549 C   0  0  0  0  0  0
  -25.9089  -34.9391   23.5047 C   0  0  0  0  0  0
  -16.5369  -29.9041   23.6328 C   0  0  0  0  0  0
  -16.7301  -28.6455   23.0364 C   0  0  0  0  0  0
  -26.4547  -31.6567   25.0741 C   0  0  0  0  0  0
  -25.3737  -31.3744   26.1442 C   0  0  0  0  0  0
  -27.0402  -30.2954   24.6332 C   0  0  0  0  0  0
  -27.6080  -32.4343   25.7519 C   0  0  0  0  0  0
  -27.5560  -37.1771   24.8460 C   0  0  0  0  0  0
  -21.4262  -29.3024   22.3601 N   0  0  0  0  0  0
  -26.4284  -37.3733   23.9398 N   0  0  0  0  0  0
  -24.7121  -31.0406   22.0920 N   0  0  0  0  0  0
  -23.4235  -28.8095   23.2942 O   0  0  0  0  0  0
  -28.2779  -26.2318   20.2196 O   0  0  0  0  0  0
  -26.5643  -34.8875   22.4608 O   0  0  0  0  0  0
  -23.5549  -32.1321   23.7190 O   0  0  0  0  0  0
  -28.2650  -19.5231   21.0445 C   0  0  0  0  0  0
  -29.0182  -20.4378   20.2614 C   0  0  0  0  0  0
  -30.1438  -19.7514   19.7026 C   0  0  0  0  0  0
  -29.6714  -17.6231   20.7020 C   0  0  0  0  0  0
  -32.4041  -20.8463   19.6248 C   0  0  0  0  0  0
  -31.5346  -16.6354   22.0512 C   0  0  0  0  0  0
  -29.3030  -15.8444   22.5544 C   0  0  0  0  0  0
  -28.4461  -21.9233   19.8769 C   0  0  0  0  0  0
  -31.1420  -20.4871   18.8296 C   0  0  0  0  0  0
  -28.9119  -23.4247   20.3879 C   0  0  0  0  0  0
  -28.0037  -24.7438   19.9572 C   0  0  0  0  0  0
  -30.2122  -16.2063   21.3540 C   0  0  0  0  0  0
  -28.5871  -18.2047   21.2544 N   0  0  0  0  0  0
  -30.4483  -18.4159   19.9292 N   0  0  0  0  0  0
  -31.4713  -12.6143   19.1857 H   0  0  0  0  0  0
  -30.3691  -11.5317   19.9477 H   0  0  0  0  0  0
  -29.8094  -11.7925   17.5180 H   0  0  0  0  0  0
  -29.6267  -13.5153   17.7306 H   0  0  0  0  0  0
  -27.8946  -11.3006   18.8728 H   0  0  0  0  0  0
  -27.3800  -12.5728   17.7925 H   0  0  0  0  0  0
  -27.6493  -14.2642   19.5087 H   0  0  0  0  0  0
  -28.7639  -12.0922   21.3264 H   0  0  0  0  0  0
  -28.3524  -13.6565   21.8627 H   0  0  0  0  0  0
  -25.2790   -9.5710   22.4778 H   0  0  0  0  0  0
  -24.0063   -7.4638   22.7472 H   0  0  0  0  0  0
  -21.0894   -8.8776   19.8936 H   0  0  0  0  0  0
  -22.3744  -10.9692   19.6185 H   0  0  0  0  0  0
  -21.1972   -7.6157   23.9732 H   0  0  0  0  0  0
  -21.1521   -6.0534   25.9095 H   0  0  0  0  0  0
  -22.0575   -2.7631   23.2817 H   0  0  0  0  0  0
  -22.4159  -11.9903   22.4777 H   0  0  0  0  0  0
  -21.1145  -13.1248   22.2568 H   0  0  0  0  0  0
  -24.6593  -15.8413   20.5542 H   0  0  0  0  0  0
  -26.2879  -15.6491   20.1501 H   0  0  0  0  0  0
  -26.7289  -32.5300   23.1032 H   0  0  0  0  0  0
  -25.0196  -33.9629   25.0387 H   0  0  0  0  0  0
  -22.7414  -31.2988   21.3827 H   0  0  0  0  0  0
  -23.3756  -35.9569   23.3304 H   0  0  0  0  0  0
  -24.3593  -36.8885   22.2062 H   0  0  0  0  0  0
  -23.7236  -37.6428   23.6689 H   0  0  0  0  0  0
  -26.1664  -31.5030   20.6280 H   0  0  0  0  0  0
  -26.8646  -30.7740   22.0356 H   0  0  0  0  0  0
  -28.1357  -28.8554   21.2071 H   0  0  0  0  0  0
  -25.9100  -25.8788   18.9956 H   0  0  0  0  0  0
  -23.9804  -27.3257   18.9648 H   0  0  0  0  0  0
  -23.7858  -30.5858   19.3921 H   0  0  0  0  0  0
  -22.7852  -29.2424   19.8455 H   0  0  0  0  0  0
  -25.1315  -36.1854   25.0792 H   0  0  0  0  0  0
  -21.0064  -28.3266   24.1339 H   0  0  0  0  0  0
  -20.5690  -26.2274   23.3616 H   0  0  0  0  0  0
  -21.6652  -26.7367   22.1183 H   0  0  0  0  0  0
  -19.6899  -25.6259   21.1230 H   0  0  0  0  0  0
  -19.6687  -27.3184   20.6764 H   0  0  0  0  0  0
  -17.4210  -26.6683   21.4032 H   0  0  0  0  0  0
  -18.0321  -26.0030   22.9017 H   0  0  0  0  0  0
  -19.7952  -30.7271   24.2238 H   0  0  0  0  0  0
  -17.5009  -31.6253   24.5124 H   0  0  0  0  0  0
  -15.5359  -30.2916   23.7647 H   0  0  0  0  0  0
  -15.8712  -28.0753   22.7073 H   0  0  0  0  0  0
  -24.5936  -30.7067   25.7770 H   0  0  0  0  0  0
  -24.8905  -32.2913   26.4826 H   0  0  0  0  0  0
  -25.8046  -30.8955   27.0244 H   0  0  0  0  0  0
  -26.3001  -29.6661   24.1375 H   0  0  0  0  0  0
  -27.4028  -29.7288   25.4923 H   0  0  0  0  0  0
  -27.8913  -30.4164   23.9628 H   0  0  0  0  0  0
  -27.2685  -33.3693   26.1991 H   0  0  0  0  0  0
  -28.3945  -32.6831   25.0377 H   0  0  0  0  0  0
  -28.0675  -31.8528   26.5524 H   0  0  0  0  0  0
  -28.2565  -38.0079   24.7531 H   0  0  0  0  0  0
  -28.1059  -36.2603   24.6273 H   0  0  0  0  0  0
  -27.2268  -37.1419   25.8860 H   0  0  0  0  0  0
  -20.9436  -29.8763   21.6834 H   0  0  0  0  0  0
  -26.0140  -38.2786   24.1438 H   0  0  0  0  0  0
  -27.3466  -19.8501   21.5099 H   0  0  0  0  0  0
  -32.1494  -21.3865   20.5378 H   0  0  0  0  0  0
  -33.0743  -21.4719   19.0370 H   0  0  0  0  0  0
  -32.9477  -19.9462   19.9131 H   0  0  0  0  0  0
  -31.3812  -17.4679   22.7377 H   0  0  0  0  0  0
  -32.2716  -16.9776   21.3226 H   0  0  0  0  0  0
  -31.9931  -15.8222   22.6137 H   0  0  0  0  0  0
  -29.3128  -16.6288   23.3123 H   0  0  0  0  0  0
  -29.6299  -14.9380   23.0640 H   0  0  0  0  0  0
  -28.2630  -15.7354   22.2485 H   0  0  0  0  0  0
  -27.3789  -21.8709   20.1024 H   0  0  0  0  0  0
  -28.4656  -21.9670   18.7878 H   0  0  0  0  0  0
  -30.6862  -21.3859   18.4168 H   0  0  0  0  0  0
  -31.4035  -19.8644   17.9720 H   0  0  0  0  0  0
  -29.9375  -23.5876   20.0563 H   0  0  0  0  0  0
  -28.9661  -23.4135   21.4758 H   0  0  0  0  0  0
  -27.0219  -24.5316   20.3830 H   0  0  0  0  0  0
  -27.8797  -24.6684   18.8767 H   0  0  0  0  0  0
  1 25  1  0  0  0
  1 30  2  0  0  0
  1 82  1  0  0  0
  2  3  1  0  0  0
  2 25  1  0  0  0
  2 85  1  0  0  0
  2 86  1  0  0  0
  3  4  1  0  0  0
  3 87  1  0  0  0
  3 88  1  0  0  0
  4  5  1  0  0  0
  4 89  1  0  0  0
  4 90  1  0  0  0
  5  6  1  0  0  0
  5 26  1  0  0  0
  5 91  1  0  0  0
  6 25  1  0  0  0
  6 92  1  0  0  0
  6 93  1  0  0  0
  7  8  2  0  0  0
  7 26  1  0  0  0
  7 29  1  0  0  0
  8  9  1  0  0  0
  8 22  1  0  0  0
  9 10  1  0  0  0
  9 27  2  0  0  0
 10 11  2  0  0  0
 10 15  1  0  0  0
 11 12  1  0  0  0
 11 94  1  0  0  0
 12 13  2  0  0  0
 12 95  1  0  0  0
 13 14  1  0  0  0
 13 31  1  0  0  0
 14 15  2  0  0  0
 14 96  1  0  0  0
 15 97  1  0  0  0
 16 17  2  0  0  0
 16 21  1  0  0  0
 16 31  1  0  0  0
 17 18  1  0  0  0
 17 98  1  0  0  0
 18 19  2  0  0  0
 18 99  1  0  0  0
 19 20  1  0  0  0
 19 24  1  0  0  0
 20 21  2  0  0  0
 20100  1  0  0  0
 21 23  1  0  0  0
 22 28  1  0  0  0
 22 32  2  0  0  0
 26 27  1  0  0  0
 28101  1  0  0  0
 28102  1  0  0  0
 29103  1  0  0  0
 29104  1  0  0  0
 33 34  1  0  0  0
 33 66  1  0  0  0
 33 70  2  0  0  0
 34 36  1  0  0  0
 34 59  1  0  0  0
 34105  1  0  0  0
 35 44  2  0  0  0
 35 45  1  0  0  0
 35 68  1  0  0  0
 36 56  1  0  0  0
 36106  1  0  0  0
 37 39  1  0  0  0
 37 47  1  0  0  0
 37 66  1  0  0  0
 37107  1  0  0  0
 38 43  2  0  0  0
 38 46  1  0  0  0
 38 47  1  0  0  0
 39 64  1  0  0  0
 39 67  2  0  0  0
 40 52  1  0  0  0
 40 53  2  0  0  0
 40 58  1  0  0  0
 41108  1  0  0  0
 41109  1  0  0  0
 41110  1  0  0  0
 41 48  1  0  0  0
 42 43  1  0  0  0
 42 66  1  0  0  0
 42111  1  0  0  0
 42112  1  0  0  0
 43 44  1  0  0  0
 44113  1  0  0  0
 45 46  2  0  0  0
 45114  1  0  0  0
 46115  1  0  0  0
 47116  1  0  0  0
 47117  1  0  0  0
 48 56  1  0  0  0
 48 65  1  0  0  0
 48118  1  0  0  0
 49 50  1  0  0  0
 49 53  1  0  0  0
 49 64  1  0  0  0
 49119  1  0  0  0
 50 51  1  0  0  0
 50120  1  0  0  0
 50121  1  0  0  0
 51 52  1  0  0  0
 51122  1  0  0  0
 51123  1  0  0  0
 52124  1  0  0  0
 52125  1  0  0  0
 53 54  1  0  0  0
 54 55  2  0  0  0
 54126  1  0  0  0
 55 57  1  0  0  0
 55127  1  0  0  0
 56 69  2  0  0  0
 57 58  2  0  0  0
 57128  1  0  0  0
 58129  1  0  0  0
 59 60  1  0  0  0
 59 61  1  0  0  0
 59 62  1  0  0  0
 60130  1  0  0  0
 60131  1  0  0  0
 60132  1  0  0  0
 61133  1  0  0  0
 61134  1  0  0  0
 61135  1  0  0  0
 62136  1  0  0  0
 62137  1  0  0  0
 62138  1  0  0  0
 63 65  1  0  0  0
 63139  1  0  0  0
 63140  1  0  0  0
 63141  1  0  0  0
 64142  1  0  0  0
 65143  1  0  0  0
 68 81  1  0  0  0
 71 72  2  0  0  0
 71 83  1  0  0  0
 71144  1  0  0  0
 72 73  1  0  0  0
 72 78  1  0  0  0
 73 79  1  0  0  0
 73 84  2  0  0  0
 74 82  1  0  0  0
 74 83  2  0  0  0
 74 84  1  0  0  0
 75 79  1  0  0  0
 75145  1  0  0  0
 75146  1  0  0  0
 75147  1  0  0  0
 76148  1  0  0  0
 76149  1  0  0  0
 76150  1  0  0  0
 76 82  1  0  0  0
 77 82  1  0  0  0
 77151  1  0  0  0
 77152  1  0  0  0
 77153  1  0  0  0
 78 80  1  0  0  0
 78154  1  0  0  0
 78155  1  0  0  0
 79156  1  0  0  0
 79157  1  0  0  0
 80 81  1  0  0  0
 80158  1  0  0  0
 80159  1  0  0  0
 81160  1  0  0  0
 81161  1  0  0  0
M  ISO  4   1 100  68 101  81 101  82 100
M  END
> <chiral flag>
0

> <version>
0

> <s_m_source_file>
/data/baiqing/PycharmProjects/Reinvent-master-3.2/result/LINK_invent/BTK/process_docking_weight1_custom_sum_contain_oxygen_bond_distance_aromatic_linkinvent_7_9_3/rearranged_h_0072.sdf

> <i_m_source_file_index>
90

> <r_mmod_Potential_Energy-OPLS-2005>
124.587562561035

> <r_mmod_Stretch_Energy-OPLS-2005>
206.140640258789

> <r_mmod_Bend_Energy-OPLS-2005>
291.098388671875

> <r_mmod_Torsional_Energy-OPLS-2005>
181.207672119141

> <r_mmod_Improper_Torsional_Energy-OPLS-2005>
7.73998403549194

> <r_mmod_Van_der_Waal_Energy-OPLS-2005>
162.942443847656

> <r_mmod_Electrostatic_Energy-OPLS-2005>
-641.240356445312

> <r_mmod_Solvation_Energy-OPLS-2005>
-203.915954589844

> <b_mmod_Minimization_Converged-OPLS-2005>
0

> <r_mmod_RMS_Derivative-OPLS-2005>
3.08513689041138

$$$$
91
                    3D
 Structure written by MMmdl.
159167  0  0  1  0            999 V2000
  -30.6773  -14.5348   20.5708 C   0  0  0  0  0  0
  -30.4261  -12.3482   19.4383 C   0  0  0  0  0  0
  -29.5031  -12.5168   18.2152 C   0  0  0  0  0  0
  -28.0219  -12.3732   18.6189 C   0  0  0  0  0  0
  -27.6559  -13.2182   19.8691 C   0  0  2  0  0  0
  -28.6948  -13.0318   20.9957 C   0  0  0  0  0  0
  -25.2554  -13.8191   20.5675 C   0  0  0  0  0  0
  -24.1820  -13.0442   20.9183 C   0  0  0  0  0  0
  -24.6391  -11.6914   20.8736 C   0  0  0  0  0  0
  -23.9058  -10.4285   21.0395 C   0  0  0  0  0  0
  -24.3604   -9.4210   21.9179 C   0  0  0  0  0  0
  -23.6281   -8.2245   22.0739 C   0  0  0  0  0  0
  -22.4265   -8.0271   21.3529 C   0  0  0  0  0  0
  -21.9900   -9.0242   20.4638 C   0  0  0  0  0  0
  -22.7225  -10.2127   20.3051 C   0  0  0  0  0  0
  -21.6860   -6.0718   22.5262 C   0  0  0  0  0  0
  -21.4019   -6.5624   23.8195 C   0  0  0  0  0  0
  -21.3669   -5.6781   24.9161 C   0  0  0  0  0  0
  -21.6053   -4.3038   24.7222 C   0  0  0  0  0  0
  -21.8823   -3.8125   23.4343 C   0  0  0  0  0  0
  -21.9195   -4.6942   22.3395 C   0  0  0  0  0  0
  -22.7836  -13.5222   21.1845 C   0  0  0  0  0  0
  -22.1662   -4.2124   21.0973 F   0  0  0  0  0  0
  -21.5632   -3.4523   25.7744 F   0  0  0  0  0  0
  -30.0186  -13.3482   20.4401 N   0  0  0  0  0  0
  -26.2990  -12.9370   20.3319 N   0  0  0  0  0  0
  -25.9326  -11.6518   20.5737 N   0  0  0  0  0  0
  -22.0478  -12.8229   22.0418 N   0  0  0  0  0  0
  -25.4256  -15.1905   20.4077 N   0  0  0  0  0  0
  -31.8179  -14.7067   20.1331 O   0  0  0  0  0  0
  -21.6635   -6.8861   21.4224 O   0  0  0  0  0  0
  -22.3526  -14.5520   20.6679 O   0  0  0  0  0  0
  -24.6203  -31.8650   23.2059 C   0  0  0  0  0  0
  -25.9084  -32.4800   23.8362 C   0  0  1  0  0  0
  -27.2209  -27.3736   20.1223 C   0  0  0  0  0  0
  -25.5928  -33.8598   24.2299 N   0  0  0  0  0  0
  -23.4088  -30.4887   21.5489 C   0  0  2  0  0  0
  -24.8538  -28.9477   20.1188 C   0  0  0  0  0  0
  -22.7441  -29.4645   22.4973 C   0  0  0  0  0  0
  -18.0298  -28.1344   22.8491 C   0  0  0  0  0  0
  -24.1497  -36.7313   23.2632 C   0  0  0  0  0  0
  -25.9431  -30.8116   21.3689 C   0  0  0  0  0  0
  -26.0162  -29.4382   20.7262 C   0  0  0  0  0  0
  -27.2031  -28.6595   20.7244 C   0  0  0  0  0  0
  -26.0493  -26.9326   19.4714 C   0  0  0  0  0  0
  -24.8678  -27.6949   19.4868 C   0  0  0  0  0  0
  -23.6200  -29.8218   20.1640 C   0  0  0  0  0  0
  -25.4114  -36.3090   24.0326 C   0  0  1  0  0  0
  -20.5887  -28.3673   23.1331 C   0  0  2  0  0  0
  -20.6798  -26.9414   22.5426 C   0  0  0  0  0  0
  -19.5797  -26.6396   21.5205 C   0  0  0  0  0  0
  -18.1971  -26.7886   22.1627 C   0  0  0  0  0  0
  -19.1533  -28.8821   23.2902 C   0  0  0  0  0  0
  -18.9440  -30.1437   23.8885 C   0  0  0  0  0  0
  -17.6428  -30.6572   24.0533 C   0  0  0  0  0  0
  -25.9040  -34.9464   23.5099 C   0  0  0  0  0  0
  -16.5331  -29.9054   23.6290 C   0  0  0  0  0  0
  -16.7272  -28.6465   23.0322 C   0  0  0  0  0  0
  -26.4494  -31.6573   25.0694 C   0  0  0  0  0  0
  -25.3749  -31.3688   26.1434 C   0  0  0  0  0  0
  -27.0302  -30.3001   24.6061 C   0  0  0  0  0  0
  -27.6063  -32.4286   25.7468 C   0  0  0  0  0  0
  -27.5580  -37.1812   24.8461 C   0  0  0  0  0  0
  -21.4159  -29.3059   22.3748 N   0  0  0  0  0  0
  -26.4292  -37.3783   23.9397 N   0  0  0  0  0  0
  -24.6757  -31.0707   22.0986 N   0  0  0  0  0  0
  -23.4204  -28.8174   23.3017 O   0  0  0  0  0  0
  -28.3829  -26.6195   20.0527 O   0  0  0  0  0  0
  -26.5605  -34.8927   22.4665 O   0  0  0  0  0  0
  -23.5387  -32.1427   23.7428 O   0  0  0  0  0  0
  -27.7004  -21.6727   19.4880 C   0  0  0  0  0  0
  -28.9289  -22.0258   21.2459 C   0  0  0  0  0  0
  -28.0764  -22.7031   20.4021 C   0  0  0  0  0  0
  -26.2975  -24.2009   21.3102 C   0  0  0  0  0  0
  -29.6775  -19.6380   22.9979 C   0  0  0  0  0  0
  -29.4022  -18.0959   20.9691 C   0  0  0  0  0  0
  -30.4217  -16.9556   21.3395 C   0  0  0  0  0  0
  -28.5143  -25.3210   20.7163 C   0  0  0  0  0  0
  -27.5266  -24.1469   20.3813 C   0  0  1  0  0  0
  -29.7703  -19.5557   21.4619 C   0  0  1  0  0  0
  -28.2466  -20.4909   19.7527 N   0  0  0  0  0  0
  -28.9843  -20.6768   20.8693 N   0  0  0  0  0  0
  -29.9586  -15.5651   21.0848 N   0  0  0  0  0  0
  -31.4697  -12.4560   19.1399 H   0  0  0  0  0  0
  -30.3361  -11.3433   19.8549 H   0  0  0  0  0  0
  -29.7546  -11.7832   17.4478 H   0  0  0  0  0  0
  -29.6680  -13.4968   17.7648 H   0  0  0  0  0  0
  -27.8352  -11.3182   18.8172 H   0  0  0  0  0  0
  -27.3778  -12.6443   17.7826 H   0  0  0  0  0  0
  -27.6890  -14.2631   19.5602 H   0  0  0  0  0  0
  -28.6841  -12.0050   21.3640 H   0  0  0  0  0  0
  -28.4461  -13.6532   21.8567 H   0  0  0  0  0  0
  -25.2750   -9.5685   22.4756 H   0  0  0  0  0  0
  -23.9986   -7.4639   22.7462 H   0  0  0  0  0  0
  -21.0827   -8.8757   19.8958 H   0  0  0  0  0  0
  -22.3667  -10.9657   19.6155 H   0  0  0  0  0  0
  -21.2010   -7.6133   23.9688 H   0  0  0  0  0  0
  -21.1495   -6.0513   25.9063 H   0  0  0  0  0  0
  -22.0602   -2.7588   23.2846 H   0  0  0  0  0  0
  -22.4086  -11.9906   22.4844 H   0  0  0  0  0  0
  -21.1092  -13.1248   22.2604 H   0  0  0  0  0  0
  -24.6551  -15.8428   20.5041 H   0  0  0  0  0  0
  -26.2759  -15.6284   20.0769 H   0  0  0  0  0  0
  -26.7151  -32.5508   23.1119 H   0  0  0  0  0  0
  -25.0089  -33.9744   25.0454 H   0  0  0  0  0  0
  -22.6985  -31.3058   21.4075 H   0  0  0  0  0  0
  -23.3745  -35.9663   23.3292 H   0  0  0  0  0  0
  -24.3591  -36.8922   22.2044 H   0  0  0  0  0  0
  -23.7262  -37.6525   23.6648 H   0  0  0  0  0  0
  -26.0572  -31.5695   20.5930 H   0  0  0  0  0  0
  -26.8331  -30.8702   21.9837 H   0  0  0  0  0  0
  -28.1033  -29.0362   21.1886 H   0  0  0  0  0  0
  -26.0344  -25.9994   18.9344 H   0  0  0  0  0  0
  -23.9824  -27.3199   18.9913 H   0  0  0  0  0  0
  -23.7365  -30.5972   19.4066 H   0  0  0  0  0  0
  -22.7421  -29.2449   19.8642 H   0  0  0  0  0  0
  -25.1292  -36.1938   25.0818 H   0  0  0  0  0  0
  -20.9976  -28.3220   24.1454 H   0  0  0  0  0  0
  -20.5678  -26.2293   23.3618 H   0  0  0  0  0  0
  -21.6683  -26.7431   22.1249 H   0  0  0  0  0  0
  -19.7017  -25.6332   21.1202 H   0  0  0  0  0  0
  -19.6711  -27.3260   20.6772 H   0  0  0  0  0  0
  -17.4243  -26.6592   21.4040 H   0  0  0  0  0  0
  -18.0380  -26.0036   22.9035 H   0  0  0  0  0  0
  -19.7908  -30.7253   24.2247 H   0  0  0  0  0  0
  -17.4977  -31.6263   24.5097 H   0  0  0  0  0  0
  -15.5322  -30.2944   23.7583 H   0  0  0  0  0  0
  -15.8686  -28.0765   22.7030 H   0  0  0  0  0  0
  -24.5947  -30.6996   25.7778 H   0  0  0  0  0  0
  -24.8925  -32.2848   26.4853 H   0  0  0  0  0  0
  -25.8117  -30.8889   27.0200 H   0  0  0  0  0  0
  -26.2826  -29.6774   24.1118 H   0  0  0  0  0  0
  -27.4065  -29.7210   25.4503 H   0  0  0  0  0  0
  -27.8680  -30.4293   23.9202 H   0  0  0  0  0  0
  -27.2673  -33.3579   26.2056 H   0  0  0  0  0  0
  -28.3886  -32.6836   25.0307 H   0  0  0  0  0  0
  -28.0712  -31.8388   26.5373 H   0  0  0  0  0  0
  -28.2598  -38.0110   24.7503 H   0  0  0  0  0  0
  -28.1073  -36.2635   24.6295 H   0  0  0  0  0  0
  -27.2298  -37.1476   25.8866 H   0  0  0  0  0  0
  -20.9303  -29.8857   21.7044 H   0  0  0  0  0  0
  -26.0171  -38.2856   24.1402 H   0  0  0  0  0  0
  -27.0216  -21.7444   18.6490 H   0  0  0  0  0  0
  -29.4734  -22.3853   22.1077 H   0  0  0  0  0  0
  -25.4910  -23.5708   20.9351 H   0  0  0  0  0  0
  -25.8970  -25.2070   21.4208 H   0  0  0  0  0  0
  -26.5539  -23.8595   22.3141 H   0  0  0  0  0  0
  -30.2921  -18.8844   23.4873 H   0  0  0  0  0  0
  -28.6496  -19.4972   23.3363 H   0  0  0  0  0  0
  -30.0189  -20.5990   23.3803 H   0  0  0  0  0  0
  -28.4170  -17.8372   21.3573 H   0  0  0  0  0  0
  -29.3045  -18.0954   19.8836 H   0  0  0  0  0  0
  -30.6661  -17.0021   22.3997 H   0  0  0  0  0  0
  -31.3594  -17.1401   20.8141 H   0  0  0  0  0  0
  -29.5129  -24.9869   20.4300 H   0  0  0  0  0  0
  -28.5724  -25.4698   21.7961 H   0  0  0  0  0  0
  -27.1943  -24.3211   19.3607 H   0  0  0  0  0  0
  -30.8071  -19.7425   21.1790 H   0  0  0  0  0  0
  -29.0229  -15.3354   21.3841 H   0  0  0  0  0  0
  1 25  1  0  0  0
  1 30  2  0  0  0
  1 83  1  0  0  0
  2  3  1  0  0  0
  2 25  1  0  0  0
  2 84  1  0  0  0
  2 85  1  0  0  0
  3  4  1  0  0  0
  3 86  1  0  0  0
  3 87  1  0  0  0
  4  5  1  0  0  0
  4 88  1  0  0  0
  4 89  1  0  0  0
  5  6  1  0  0  0
  5 26  1  0  0  0
  5 90  1  0  0  0
  6 25  1  0  0  0
  6 91  1  0  0  0
  6 92  1  0  0  0
  7  8  2  0  0  0
  7 26  1  0  0  0
  7 29  1  0  0  0
  8  9  1  0  0  0
  8 22  1  0  0  0
  9 10  1  0  0  0
  9 27  2  0  0  0
 10 11  2  0  0  0
 10 15  1  0  0  0
 11 12  1  0  0  0
 11 93  1  0  0  0
 12 13  2  0  0  0
 12 94  1  0  0  0
 13 14  1  0  0  0
 13 31  1  0  0  0
 14 15  2  0  0  0
 14 95  1  0  0  0
 15 96  1  0  0  0
 16 17  2  0  0  0
 16 21  1  0  0  0
 16 31  1  0  0  0
 17 18  1  0  0  0
 17 97  1  0  0  0
 18 19  2  0  0  0
 18 98  1  0  0  0
 19 20  1  0  0  0
 19 24  1  0  0  0
 20 21  2  0  0  0
 20 99  1  0  0  0
 21 23  1  0  0  0
 22 28  1  0  0  0
 22 32  2  0  0  0
 26 27  1  0  0  0
 28100  1  0  0  0
 28101  1  0  0  0
 29102  1  0  0  0
 29103  1  0  0  0
 33 34  1  0  0  0
 33 66  1  0  0  0
 33 70  2  0  0  0
 34 36  1  0  0  0
 34 59  1  0  0  0
 34104  1  0  0  0
 35 44  2  0  0  0
 35 45  1  0  0  0
 35 68  1  0  0  0
 36 56  1  0  0  0
 36105  1  0  0  0
 37 39  1  0  0  0
 37 47  1  0  0  0
 37 66  1  0  0  0
 37106  1  0  0  0
 38 43  2  0  0  0
 38 46  1  0  0  0
 38 47  1  0  0  0
 39 64  1  0  0  0
 39 67  2  0  0  0
 40 52  1  0  0  0
 40 53  2  0  0  0
 40 58  1  0  0  0
 41107  1  0  0  0
 41108  1  0  0  0
 41109  1  0  0  0
 41 48  1  0  0  0
 42 43  1  0  0  0
 42 66  1  0  0  0
 42110  1  0  0  0
 42111  1  0  0  0
 43 44  1  0  0  0
 44112  1  0  0  0
 45 46  2  0  0  0
 45113  1  0  0  0
 46114  1  0  0  0
 47115  1  0  0  0
 47116  1  0  0  0
 48 56  1  0  0  0
 48 65  1  0  0  0
 48117  1  0  0  0
 49 50  1  0  0  0
 49 53  1  0  0  0
 49 64  1  0  0  0
 49118  1  0  0  0
 50 51  1  0  0  0
 50119  1  0  0  0
 50120  1  0  0  0
 51 52  1  0  0  0
 51121  1  0  0  0
 51122  1  0  0  0
 52123  1  0  0  0
 52124  1  0  0  0
 53 54  1  0  0  0
 54 55  2  0  0  0
 54125  1  0  0  0
 55 57  1  0  0  0
 55126  1  0  0  0
 56 69  2  0  0  0
 57 58  2  0  0  0
 57127  1  0  0  0
 58128  1  0  0  0
 59 60  1  0  0  0
 59 61  1  0  0  0
 59 62  1  0  0  0
 60129  1  0  0  0
 60130  1  0  0  0
 60131  1  0  0  0
 61132  1  0  0  0
 61133  1  0  0  0
 61134  1  0  0  0
 62135  1  0  0  0
 62136  1  0  0  0
 62137  1  0  0  0
 63 65  1  0  0  0
 63138  1  0  0  0
 63139  1  0  0  0
 63140  1  0  0  0
 64141  1  0  0  0
 65142  1  0  0  0
 68 78  1  0  0  0
 71 73  1  0  0  0
 71 81  2  0  0  0
 71143  1  0  0  0
 72 73  2  0  0  0
 72 82  1  0  0  0
 72144  1  0  0  0
 73 79  1  0  0  0
 74145  1  0  0  0
 74146  1  0  0  0
 74147  1  0  0  0
 74 79  1  0  0  0
 75148  1  0  0  0
 75149  1  0  0  0
 75150  1  0  0  0
 75 80  1  0  0  0
 76 77  1  0  0  0
 76 80  1  0  0  0
 76151  1  0  0  0
 76152  1  0  0  0
 77 83  1  0  0  0
 77153  1  0  0  0
 77154  1  0  0  0
 78 79  1  0  0  0
 78155  1  0  0  0
 78156  1  0  0  0
 79157  1  0  0  0
 80 82  1  0  0  0
 80158  1  0  0  0
 81 82  1  0  0  0
 83159  1  0  0  0
M  ISO  4   1 100  68 101  78 101  83 100
M  END
> <chiral flag>
0

> <version>
0

> <s_m_source_file>
/data/baiqing/PycharmProjects/Reinvent-master-3.2/result/LINK_invent/BTK/process_docking_weight1_custom_sum_contain_oxygen_bond_distance_aromatic_linkinvent_7_9_3/rearranged_h_0072.sdf

> <i_m_source_file_index>
91

> <r_mmod_Potential_Energy-OPLS-2005>
-17.2699966430664

> <r_mmod_Stretch_Energy-OPLS-2005>
53.268497467041

> <r_mmod_Bend_Energy-OPLS-2005>
128.661071777344

> <r_mmod_Torsional_Energy-OPLS-2005>
244.327362060547

> <r_mmod_Improper_Torsional_Energy-OPLS-2005>
3.83918166160583

> <r_mmod_Van_der_Waal_Energy-OPLS-2005>
125.720268249512

> <r_mmod_Electrostatic_Energy-OPLS-2005>
-378.323181152344

> <r_mmod_Solvation_Energy-OPLS-2005>
-216.219848632812

> <b_mmod_Minimization_Converged-OPLS-2005>
0

> <r_mmod_RMS_Derivative-OPLS-2005>
2.33694982528687

$$$$
92
                    3D
 Structure written by MMmdl.
161169  0  0  1  0            999 V2000
  -30.5100  -15.0788   20.3657 C   0  0  0  0  0  0
  -30.4231  -12.6600   19.5385 C   0  0  0  0  0  0
  -29.5290  -12.5702   18.2829 C   0  0  0  0  0  0
  -28.0663  -12.3235   18.6885 C   0  0  0  0  0  0
  -27.6186  -13.2697   19.8349 C   0  0  2  0  0  0
  -28.6525  -13.3658   20.9784 C   0  0  0  0  0  0
  -25.2340  -13.8250   20.5670 C   0  0  0  0  0  0
  -24.1724  -13.0451   20.9203 C   0  0  0  0  0  0
  -24.6405  -11.6954   20.8775 C   0  0  0  0  0  0
  -23.9131  -10.4321   21.0411 C   0  0  0  0  0  0
  -24.3671   -9.4221   21.9175 C   0  0  0  0  0  0
  -23.6329   -8.2278   22.0743 C   0  0  0  0  0  0
  -22.4309   -8.0320   21.3561 C   0  0  0  0  0  0
  -21.9976   -9.0289   20.4642 C   0  0  0  0  0  0
  -22.7323  -10.2155   20.3041 C   0  0  0  0  0  0
  -21.6863   -6.0766   22.5300 C   0  0  0  0  0  0
  -21.4047   -6.5660   23.8236 C   0  0  0  0  0  0
  -21.3677   -5.6801   24.9193 C   0  0  0  0  0  0
  -21.6043   -4.3062   24.7236 C   0  0  0  0  0  0
  -21.8797   -3.8163   23.4346 C   0  0  0  0  0  0
  -21.9187   -4.6997   22.3412 C   0  0  0  0  0  0
  -22.7732  -13.5187   21.1873 C   0  0  0  0  0  0
  -22.1627   -4.2175   21.0988 F   0  0  0  0  0  0
  -21.5635   -3.4537   25.7737 F   0  0  0  0  0  0
  -29.9200  -13.7992   20.3767 N   0  0  0  0  0  0
  -26.2822  -12.9560   20.3229 N   0  0  0  0  0  0
  -25.9338  -11.6676   20.5758 N   0  0  0  0  0  0
  -22.0412  -12.8190   22.0437 N   0  0  0  0  0  0
  -25.3927  -15.2018   20.4054 N   0  0  0  0  0  0
  -31.7086  -15.0736   20.0673 O   0  0  0  0  0  0
  -21.6654   -6.8927   21.4268 O   0  0  0  0  0  0
  -22.3403  -14.5481   20.6661 O   0  0  0  0  0  0
  -24.6518  -31.8346   23.1784 C   0  0  0  0  0  0
  -25.9286  -32.4619   23.8204 C   0  0  1  0  0  0
  -27.2041  -27.0329   20.1887 C   0  0  0  0  0  0
  -25.6086  -33.8431   24.2167 N   0  0  0  0  0  0
  -23.4543  -30.4487   21.5272 C   0  0  2  0  0  0
  -24.8959  -28.8404   20.1179 C   0  0  0  0  0  0
  -22.7614  -29.4503   22.4861 C   0  0  0  0  0  0
  -18.0294  -28.1435   22.8414 C   0  0  0  0  0  0
  -24.1530  -36.7171   23.2617 C   0  0  0  0  0  0
  -26.0101  -30.6796   21.3763 C   0  0  0  0  0  0
  -26.0764  -29.2742   20.7323 C   0  0  0  0  0  0
  -27.2225  -28.3856   20.7515 C   0  0  0  0  0  0
  -25.9945  -26.7076   19.5422 C   0  0  0  0  0  0
  -24.8681  -27.5668   19.5192 C   0  0  0  0  0  0
  -23.6840  -29.7651   20.1496 C   0  0  0  0  0  0
  -25.4172  -36.2979   24.0285 C   0  0  1  0  0  0
  -20.5913  -28.3765   23.1206 C   0  0  2  0  0  0
  -20.6801  -26.9479   22.5382 C   0  0  0  0  0  0
  -19.5788  -26.6440   21.5175 C   0  0  0  0  0  0
  -18.1954  -26.7973   22.1563 C   0  0  0  0  0  0
  -19.1552  -28.8924   23.2797 C   0  0  0  0  0  0
  -18.9485  -30.1518   23.8833 C   0  0  0  0  0  0
  -17.6480  -30.6611   24.0584 C   0  0  0  0  0  0
  -25.9128  -34.9353   23.5015 C   0  0  0  0  0  0
  -16.5371  -29.9102   23.6355 C   0  0  0  0  0  0
  -16.7279  -28.6550   23.0302 C   0  0  0  0  0  0
  -26.4567  -31.6472   25.0649 C   0  0  0  0  0  0
  -25.3692  -31.3685   26.1326 C   0  0  0  0  0  0
  -27.0426  -30.2894   24.6148 C   0  0  0  0  0  0
  -27.6174  -32.4128   25.7423 C   0  0  0  0  0  0
  -27.5586  -37.1764   24.8481 C   0  0  0  0  0  0
  -21.4295  -29.3072   22.3605 N   0  0  0  0  0  0
  -26.4315  -37.3726   23.9397 N   0  0  0  0  0  0
  -24.7271  -31.0108   22.0847 N   0  0  0  0  0  0
  -23.4207  -28.8056   23.3052 O   0  0  0  0  0  0
  -28.2564  -26.0347   20.3560 O   0  0  0  0  0  0
  -26.5661  -34.8856   22.4572 O   0  0  0  0  0  0
  -23.5630  -32.1271   23.6994 O   0  0  0  0  0  0
  -29.2944  -19.3072   20.4799 C   0  0  0  0  0  0
  -28.8562  -20.9973   21.7729 C   0  0  0  0  0  0
  -28.5853  -21.7894   23.0142 C   0  0  0  0  0  0
  -31.4589  -18.1485   19.7176 C   0  0  0  0  0  0
  -26.6914  -22.6044   19.3091 C   0  0  0  0  0  0
  -29.9540  -24.3734   20.4395 C   0  0  0  0  0  0
  -28.6191  -24.6789   18.3443 C   0  0  0  0  0  0
  -29.9626  -17.8550   19.9498 C   0  0  2  0  0  0
  -27.8686  -22.9578   20.2376 C   0  0  1  0  0  0
  -28.5282  -24.5247   19.8757 C   0  0  0  0  0  0
  -29.2708  -19.6994   21.7995 N   0  0  0  0  0  0
  -28.9169  -20.4105   19.6990 N   0  0  0  0  0  0
  -28.6239  -21.5401   20.5541 N   0  0  0  0  0  0
  -29.7681  -16.3253   20.4751 N   0  0  0  0  0  0
  -31.4631  -12.7926   19.2430 H   0  0  0  0  0  0
  -30.3997  -11.7209   20.0971 H   0  0  0  0  0  0
  -29.8832  -11.7887   17.6078 H   0  0  0  0  0  0
  -29.5964  -13.5107   17.7300 H   0  0  0  0  0  0
  -27.9849  -11.2847   19.0109 H   0  0  0  0  0  0
  -27.4103  -12.4256   17.8223 H   0  0  0  0  0  0
  -27.5634  -14.2591   19.3765 H   0  0  0  0  0  0
  -28.7611  -12.4106   21.4955 H   0  0  0  0  0  0
  -28.3250  -14.0920   21.7248 H   0  0  0  0  0  0
  -25.2844   -9.5691   22.4732 H   0  0  0  0  0  0
  -24.0043   -7.4679   22.7482 H   0  0  0  0  0  0
  -21.0909   -8.8850   19.8949 H   0  0  0  0  0  0
  -22.3834  -10.9682   19.6129 H   0  0  0  0  0  0
  -21.2044   -7.6163   23.9773 H   0  0  0  0  0  0
  -21.1522   -6.0516   25.9105 H   0  0  0  0  0  0
  -22.0548   -2.7627   23.2842 H   0  0  0  0  0  0
  -22.4026  -11.9863   22.4877 H   0  0  0  0  0  0
  -21.1013  -13.1189   22.2630 H   0  0  0  0  0  0
  -24.6084  -15.8404   20.4902 H   0  0  0  0  0  0
  -26.2400  -15.6630   20.1010 H   0  0  0  0  0  0
  -26.7325  -32.5182   23.0888 H   0  0  0  0  0  0
  -25.0485  -33.9587   25.0478 H   0  0  0  0  0  0
  -22.7620  -31.2781   21.3686 H   0  0  0  0  0  0
  -23.3814  -35.9479   23.3260 H   0  0  0  0  0  0
  -24.3605  -36.8804   22.2033 H   0  0  0  0  0  0
  -23.7240  -37.6340   23.6656 H   0  0  0  0  0  0
  -26.1521  -31.4117   20.5814 H   0  0  0  0  0  0
  -26.8876  -30.7542   22.0080 H   0  0  0  0  0  0
  -28.1111  -28.7146   21.2715 H   0  0  0  0  0  0
  -25.8799  -25.7203   19.1204 H   0  0  0  0  0  0
  -23.9478  -27.2022   19.0836 H   0  0  0  0  0  0
  -23.8570  -30.5342   19.3964 H   0  0  0  0  0  0
  -22.7896  -29.2328   19.8220 H   0  0  0  0  0  0
  -25.1364  -36.1802   25.0768 H   0  0  0  0  0  0
  -20.9953  -28.3364   24.1349 H   0  0  0  0  0  0
  -20.5714  -26.2404   23.3607 H   0  0  0  0  0  0
  -21.6671  -26.7527   22.1192 H   0  0  0  0  0  0
  -19.6973  -25.6360   21.1192 H   0  0  0  0  0  0
  -19.6714  -27.3255   20.6701 H   0  0  0  0  0  0
  -17.4255  -26.6689   21.3940 H   0  0  0  0  0  0
  -18.0357  -26.0144   22.8985 H   0  0  0  0  0  0
  -19.7981  -30.7346   24.2150 H   0  0  0  0  0  0
  -17.5055  -31.6254   24.5252 H   0  0  0  0  0  0
  -15.5378  -30.2989   23.7772 H   0  0  0  0  0  0
  -15.8666  -28.0905   22.6974 H   0  0  0  0  0  0
  -24.6009  -30.6848   25.7683 H   0  0  0  0  0  0
  -24.8698  -32.2856   26.4497 H   0  0  0  0  0  0
  -25.7984  -30.9106   27.0253 H   0  0  0  0  0  0
  -26.3047  -29.6620   24.1156 H   0  0  0  0  0  0
  -27.4140  -29.7169   25.4658 H   0  0  0  0  0  0
  -27.8889  -30.4206   23.9390 H   0  0  0  0  0  0
  -27.2948  -33.3550   26.1851 H   0  0  0  0  0  0
  -28.4110  -32.6406   25.0282 H   0  0  0  0  0  0
  -28.0650  -31.8227   26.5439 H   0  0  0  0  0  0
  -28.2645  -38.0044   24.7571 H   0  0  0  0  0  0
  -28.1063  -36.2582   24.6312 H   0  0  0  0  0  0
  -27.2273  -37.1379   25.8879 H   0  0  0  0  0  0
  -20.9575  -29.8798   21.6750 H   0  0  0  0  0  0
  -26.0150  -38.2762   24.1460 H   0  0  0  0  0  0
  -29.0264  -22.7850   22.9351 H   0  0  0  0  0  0
  -28.9935  -21.2969   23.8976 H   0  0  0  0  0  0
  -27.5101  -21.8965   23.1596 H   0  0  0  0  0  0
  -31.9523  -17.3690   19.1393 H   0  0  0  0  0  0
  -31.9947  -18.2630   20.6601 H   0  0  0  0  0  0
  -31.5954  -19.0748   19.1547 H   0  0  0  0  0  0
  -27.0042  -22.5333   18.2692 H   0  0  0  0  0  0
  -25.8761  -23.3232   19.3825 H   0  0  0  0  0  0
  -26.2754  -21.6279   19.5666 H   0  0  0  0  0  0
  -30.4401  -23.4444   20.1353 H   0  0  0  0  0  0
  -29.9306  -24.3584   21.5258 H   0  0  0  0  0  0
  -30.6014  -25.1978   20.1456 H   0  0  0  0  0  0
  -29.3769  -25.4068   18.0596 H   0  0  0  0  0  0
  -27.6737  -25.0241   17.9236 H   0  0  0  0  0  0
  -28.8614  -23.7374   17.8497 H   0  0  0  0  0  0
  -29.5575  -17.7636   18.9402 H   0  0  0  0  0  0
  -27.3770  -23.1683   21.1875 H   0  0  0  0  0  0
  -28.8354  -16.1905   20.8315 H   0  0  0  0  0  0
  1 25  1  0  0  0
  1 30  2  0  0  0
  1 84  1  0  0  0
  2  3  1  0  0  0
  2 25  1  0  0  0
  2 85  1  0  0  0
  2 86  1  0  0  0
  3  4  1  0  0  0
  3 87  1  0  0  0
  3 88  1  0  0  0
  4  5  1  0  0  0
  4 89  1  0  0  0
  4 90  1  0  0  0
  5  6  1  0  0  0
  5 26  1  0  0  0
  5 91  1  0  0  0
  6 25  1  0  0  0
  6 92  1  0  0  0
  6 93  1  0  0  0
  7  8  2  0  0  0
  7 26  1  0  0  0
  7 29  1  0  0  0
  8  9  1  0  0  0
  8 22  1  0  0  0
  9 10  1  0  0  0
  9 27  2  0  0  0
 10 11  2  0  0  0
 10 15  1  0  0  0
 11 12  1  0  0  0
 11 94  1  0  0  0
 12 13  2  0  0  0
 12 95  1  0  0  0
 13 14  1  0  0  0
 13 31  1  0  0  0
 14 15  2  0  0  0
 14 96  1  0  0  0
 15 97  1  0  0  0
 16 17  2  0  0  0
 16 21  1  0  0  0
 16 31  1  0  0  0
 17 18  1  0  0  0
 17 98  1  0  0  0
 18 19  2  0  0  0
 18 99  1  0  0  0
 19 20  1  0  0  0
 19 24  1  0  0  0
 20 21  2  0  0  0
 20100  1  0  0  0
 21 23  1  0  0  0
 22 28  1  0  0  0
 22 32  2  0  0  0
 26 27  1  0  0  0
 28101  1  0  0  0
 28102  1  0  0  0
 29103  1  0  0  0
 29104  1  0  0  0
 33 34  1  0  0  0
 33 66  1  0  0  0
 33 70  2  0  0  0
 34 36  1  0  0  0
 34 59  1  0  0  0
 34105  1  0  0  0
 35 44  2  0  0  0
 35 45  1  0  0  0
 35 68  1  0  0  0
 36 56  1  0  0  0
 36106  1  0  0  0
 37 39  1  0  0  0
 37 47  1  0  0  0
 37 66  1  0  0  0
 37107  1  0  0  0
 38 43  2  0  0  0
 38 46  1  0  0  0
 38 47  1  0  0  0
 39 64  1  0  0  0
 39 67  2  0  0  0
 40 52  1  0  0  0
 40 53  2  0  0  0
 40 58  1  0  0  0
 41108  1  0  0  0
 41109  1  0  0  0
 41110  1  0  0  0
 41 48  1  0  0  0
 42 43  1  0  0  0
 42 66  1  0  0  0
 42111  1  0  0  0
 42112  1  0  0  0
 43 44  1  0  0  0
 44113  1  0  0  0
 45 46  2  0  0  0
 45114  1  0  0  0
 46115  1  0  0  0
 47116  1  0  0  0
 47117  1  0  0  0
 48 56  1  0  0  0
 48 65  1  0  0  0
 48118  1  0  0  0
 49 50  1  0  0  0
 49 53  1  0  0  0
 49 64  1  0  0  0
 49119  1  0  0  0
 50 51  1  0  0  0
 50120  1  0  0  0
 50121  1  0  0  0
 51 52  1  0  0  0
 51122  1  0  0  0
 51123  1  0  0  0
 52124  1  0  0  0
 52125  1  0  0  0
 53 54  1  0  0  0
 54 55  2  0  0  0
 54126  1  0  0  0
 55 57  1  0  0  0
 55127  1  0  0  0
 56 69  2  0  0  0
 57 58  2  0  0  0
 57128  1  0  0  0
 58129  1  0  0  0
 59 60  1  0  0  0
 59 61  1  0  0  0
 59 62  1  0  0  0
 60130  1  0  0  0
 60131  1  0  0  0
 60132  1  0  0  0
 61133  1  0  0  0
 61134  1  0  0  0
 61135  1  0  0  0
 62136  1  0  0  0
 62137  1  0  0  0
 62138  1  0  0  0
 63 65  1  0  0  0
 63139  1  0  0  0
 63140  1  0  0  0
 63141  1  0  0  0
 64142  1  0  0  0
 65143  1  0  0  0
 68 80  1  0  0  0
 71 78  1  0  0  0
 71 81  1  0  0  0
 71 82  2  0  0  0
 72 73  1  0  0  0
 72 81  2  0  0  0
 72 83  1  0  0  0
 73144  1  0  0  0
 73145  1  0  0  0
 73146  1  0  0  0
 74147  1  0  0  0
 74148  1  0  0  0
 74149  1  0  0  0
 74 78  1  0  0  0
 75150  1  0  0  0
 75151  1  0  0  0
 75152  1  0  0  0
 75 79  1  0  0  0
 76153  1  0  0  0
 76154  1  0  0  0
 76155  1  0  0  0
 76 80  1  0  0  0
 77 80  1  0  0  0
 77156  1  0  0  0
 77157  1  0  0  0
 77158  1  0  0  0
 78 84  1  0  0  0
 78159  1  0  0  0
 79 80  1  0  0  0
 79 83  1  0  0  0
 79160  1  0  0  0
 82 83  1  0  0  0
 84161  1  0  0  0
M  ISO  4   1 100  68 101  80 101  84 100
M  END
> <chiral flag>
0

> <version>
0

> <s_m_source_file>
/data/baiqing/PycharmProjects/Reinvent-master-3.2/result/LINK_invent/BTK/process_docking_weight1_custom_sum_contain_oxygen_bond_distance_aromatic_linkinvent_7_9_3/rearranged_h_0072.sdf

> <i_m_source_file_index>
92

> <r_mmod_Potential_Energy-OPLS-2005>
720.186950683594

> <r_mmod_Stretch_Energy-OPLS-2005>
388.739349365234

> <r_mmod_Bend_Energy-OPLS-2005>
421.563812255859

> <r_mmod_Torsional_Energy-OPLS-2005>
215.80876159668

> <r_mmod_Improper_Torsional_Energy-OPLS-2005>
8.52039337158203

> <r_mmod_Van_der_Waal_Energy-OPLS-2005>
108.757545471191

> <r_mmod_Electrostatic_Energy-OPLS-2005>
-494.680541992188

> <r_mmod_Solvation_Energy-OPLS-2005>
-223.44157409668

> <b_mmod_Minimization_Converged-OPLS-2005>
0

> <r_mmod_RMS_Derivative-OPLS-2005>
5.95904874801636

$$$$
93
                    3D
 Structure written by MMmdl.
170178  0  0  1  0            999 V2000
  -30.7201  -14.6036   20.2655 C   0  0  0  0  0  0
  -30.4142  -12.3275   19.4460 C   0  0  0  0  0  0
  -29.4731  -12.2825   18.2265 C   0  0  0  0  0  0
  -27.9915  -12.2797   18.6458 C   0  0  0  0  0  0
  -27.6283  -13.2068   19.8402 C   0  0  2  0  0  0
  -28.7027  -13.2008   20.9396 C   0  0  0  0  0  0
  -25.2515  -13.8140   20.5783 C   0  0  0  0  0  0
  -24.1759  -13.0431   20.9251 C   0  0  0  0  0  0
  -24.6340  -11.6897   20.8877 C   0  0  0  0  0  0
  -23.9011  -10.4290   21.0528 C   0  0  0  0  0  0
  -24.3594   -9.4148   21.9244 C   0  0  0  0  0  0
  -23.6291   -8.2159   22.0742 C   0  0  0  0  0  0
  -22.4279   -8.0250   21.3520 C   0  0  0  0  0  0
  -21.9924   -9.0220   20.4623 C   0  0  0  0  0  0
  -22.7225  -10.2121   20.3099 C   0  0  0  0  0  0
  -21.6784   -6.0767   22.5283 C   0  0  0  0  0  0
  -21.4002   -6.5655   23.8250 C   0  0  0  0  0  0
  -21.3673   -5.6798   24.9194 C   0  0  0  0  0  0
  -21.6026   -4.3059   24.7235 C   0  0  0  0  0  0
  -21.8806   -3.8179   23.4343 C   0  0  0  0  0  0
  -21.9180   -4.6998   22.3417 C   0  0  0  0  0  0
  -22.7781  -13.5245   21.1828 C   0  0  0  0  0  0
  -22.1622   -4.2216   21.0978 F   0  0  0  0  0  0
  -21.5647   -3.4524   25.7734 F   0  0  0  0  0  0
  -29.9991  -13.4462   20.2992 N   0  0  0  0  0  0
  -26.2910  -12.9269   20.3449 N   0  0  0  0  0  0
  -25.9285  -11.6461   20.5997 N   0  0  0  0  0  0
  -22.0357  -12.8294   22.0395 N   0  0  0  0  0  0
  -25.4300  -15.1846   20.4184 N   0  0  0  0  0  0
  -31.9399  -14.5282   20.4060 O   0  0  0  0  0  0
  -21.6555   -6.8897   21.4265 O   0  0  0  0  0  0
  -22.3481  -14.5525   20.6640 O   0  0  0  0  0  0
  -24.6106  -31.8696   23.2117 C   0  0  0  0  0  0
  -25.8981  -32.4849   23.8419 C   0  0  1  0  0  0
  -27.2318  -27.4423   20.0952 C   0  0  0  0  0  0
  -25.5874  -33.8649   24.2362 N   0  0  0  0  0  0
  -23.3943  -30.4920   21.5539 C   0  0  2  0  0  0
  -24.8389  -28.9563   20.1115 C   0  0  0  0  0  0
  -22.7403  -29.4629   22.5046 C   0  0  0  0  0  0
  -18.0258  -28.1363   22.8500 C   0  0  0  0  0  0
  -24.1476  -36.7340   23.2642 C   0  0  0  0  0  0
  -25.9190  -30.8352   21.3582 C   0  0  0  0  0  0
  -25.9920  -29.4636   20.7202 C   0  0  0  0  0  0
  -27.1820  -28.7067   20.7226 C   0  0  0  0  0  0
  -26.0590  -26.9407   19.4822 C   0  0  0  0  0  0
  -24.8659  -27.6906   19.4923 C   0  0  0  0  0  0
  -23.6010  -29.8264   20.1646 C   0  0  0  0  0  0
  -25.4096  -36.3151   24.0348 C   0  0  1  0  0  0
  -20.5842  -28.3617   23.1373 C   0  0  2  0  0  0
  -20.6776  -26.9368   22.5440 C   0  0  0  0  0  0
  -19.5767  -26.6356   21.5222 C   0  0  0  0  0  0
  -18.1934  -26.7899   22.1620 C   0  0  0  0  0  0
  -19.1510  -28.8810   23.2912 C   0  0  0  0  0  0
  -18.9429  -30.1428   23.8914 C   0  0  0  0  0  0
  -17.6438  -30.6571   24.0553 C   0  0  0  0  0  0
  -25.9018  -34.9496   23.5145 C   0  0  0  0  0  0
  -16.5330  -29.9071   23.6331 C   0  0  0  0  0  0
  -16.7247  -28.6481   23.0351 C   0  0  0  0  0  0
  -26.4426  -31.6625   25.0734 C   0  0  0  0  0  0
  -25.3757  -31.3698   26.1549 C   0  0  0  0  0  0
  -27.0235  -30.3104   24.5999 C   0  0  0  0  0  0
  -27.6018  -32.4359   25.7497 C   0  0  0  0  0  0
  -27.5574  -37.1826   24.8468 C   0  0  0  0  0  0
  -21.4136  -29.2992   22.3820 N   0  0  0  0  0  0
  -26.4290  -37.3829   23.9418 N   0  0  0  0  0  0
  -24.6602  -31.0818   22.1010 N   0  0  0  0  0  0
  -23.4196  -28.8192   23.3083 O   0  0  0  0  0  0
  -28.4395  -26.7776   20.1199 O   0  0  0  0  0  0
  -26.5579  -34.8938   22.4705 O   0  0  0  0  0  0
  -23.5296  -32.1426   23.7521 O   0  0  0  0  0  0
  -29.6865  -17.3185   21.7343 C   0  0  0  0  0  0
  -29.5052  -18.6658   21.8889 C   0  0  0  0  0  0
  -29.4942  -17.0159   20.3520 C   0  0  0  0  0  0
  -28.8060  -18.1039   19.8445 C   0  0  0  0  0  0
  -28.0745  -18.3417   18.5569 C   0  0  0  0  0  0
  -29.6100  -15.6696   18.1354 C   0  0  0  0  0  0
  -31.5080  -16.7367   19.1166 C   0  0  0  0  0  0
  -26.9000  -21.3027   20.3550 C   0  0  0  0  0  0
  -28.5190  -21.9087   22.1750 C   0  0  0  0  0  0
  -28.0924  -24.3197   20.2810 C   0  0  0  0  0  0
  -28.7705  -22.9854   19.8822 C   0  0  0  0  0  0
  -29.3500  -20.5696   20.2075 C   0  0  0  0  0  0
  -28.6216  -25.5204   19.4668 C   0  0  0  0  0  0
  -30.2294  -15.9397   19.5280 C   0  0  0  0  0  0
  -28.3640  -21.6892   20.6603 C   0  0  0  0  0  0
  -29.1548  -19.1796   20.6550 N   0  0  0  0  0  0
  -31.4467  -12.4251   19.1084 H   0  0  0  0  0  0
  -30.3771  -11.4000   20.0175 H   0  0  0  0  0  0
  -29.6789  -11.3742   17.6578 H   0  0  0  0  0  0
  -29.6732  -13.0719   17.5152 H   0  0  0  0  0  0
  -27.7604  -11.2468   18.9069 H   0  0  0  0  0  0
  -27.3624  -12.5206   17.7890 H   0  0  0  0  0  0
  -27.5769  -14.2159   19.4641 H   0  0  0  0  0  0
  -28.7120  -12.2467   21.4701 H   0  0  0  0  0  0
  -28.4936  -13.9773   21.6777 H   0  0  0  0  0  0
  -25.2730   -9.5588   22.4844 H   0  0  0  0  0  0
  -23.9971   -7.4552   22.7467 H   0  0  0  0  0  0
  -21.0833   -8.8749   19.8960 H   0  0  0  0  0  0
  -22.3681  -10.9673   19.6233 H   0  0  0  0  0  0
  -21.1961   -7.6162   23.9765 H   0  0  0  0  0  0
  -21.1510   -6.0514   25.9091 H   0  0  0  0  0  0
  -22.0589   -2.7634   23.2806 H   0  0  0  0  0  0
  -22.3895  -11.9992   22.4884 H   0  0  0  0  0  0
  -21.0973  -13.1375   22.2519 H   0  0  0  0  0  0
  -24.6835  -15.8584   20.5506 H   0  0  0  0  0  0
  -26.3150  -15.6146   20.1756 H   0  0  0  0  0  0
  -26.7062  -32.5573   23.1202 H   0  0  0  0  0  0
  -25.0109  -33.9841   25.0561 H   0  0  0  0  0  0
  -22.6765  -31.3045   21.4204 H   0  0  0  0  0  0
  -23.3738  -35.9674   23.3338 H   0  0  0  0  0  0
  -24.3568  -36.8922   22.2053 H   0  0  0  0  0  0
  -23.7216  -37.6546   23.6633 H   0  0  0  0  0  0
  -26.0062  -31.5872   20.5727 H   0  0  0  0  0  0
  -26.8164  -30.9104   21.9606 H   0  0  0  0  0  0
  -28.0673  -29.0909   21.2077 H   0  0  0  0  0  0
  -26.0494  -25.9787   18.9914 H   0  0  0  0  0  0
  -23.9768  -27.2979   19.0156 H   0  0  0  0  0  0
  -23.7124  -30.6052   19.4093 H   0  0  0  0  0  0
  -22.7220  -29.2517   19.8680 H   0  0  0  0  0  0
  -25.1263  -36.2030   25.0841 H   0  0  0  0  0  0
  -20.9875  -28.3147   24.1506 H   0  0  0  0  0  0
  -20.5715  -26.2202   23.3592 H   0  0  0  0  0  0
  -21.6656  -26.7476   22.1220 H   0  0  0  0  0  0
  -19.6951  -25.6273   21.1241 H   0  0  0  0  0  0
  -19.6730  -27.3184   20.6768 H   0  0  0  0  0  0
  -17.4223  -26.6651   21.4006 H   0  0  0  0  0  0
  -18.0322  -26.0033   22.9014 H   0  0  0  0  0  0
  -19.7905  -30.7242   24.2304 H   0  0  0  0  0  0
  -17.4986  -31.6259   24.5143 H   0  0  0  0  0  0
  -15.5334  -30.2977   23.7642 H   0  0  0  0  0  0
  -15.8649  -28.0798   22.7068 H   0  0  0  0  0  0
  -24.5916  -30.7034   25.7950 H   0  0  0  0  0  0
  -24.8964  -32.2835   26.5072 H   0  0  0  0  0  0
  -25.8185  -30.8864   27.0266 H   0  0  0  0  0  0
  -26.2710  -29.6924   24.1100 H   0  0  0  0  0  0
  -27.4122  -29.7278   25.4352 H   0  0  0  0  0  0
  -27.8494  -30.4512   23.9033 H   0  0  0  0  0  0
  -27.2614  -33.3644   26.2097 H   0  0  0  0  0  0
  -28.3798  -32.6953   25.0311 H   0  0  0  0  0  0
  -28.0707  -31.8487   26.5395 H   0  0  0  0  0  0
  -28.2617  -38.0103   24.7507 H   0  0  0  0  0  0
  -28.1039  -36.2634   24.6300 H   0  0  0  0  0  0
  -27.2299  -37.1501   25.8874 H   0  0  0  0  0  0
  -20.9290  -29.8705   21.7059 H   0  0  0  0  0  0
  -26.0189  -38.2911   24.1423 H   0  0  0  0  0  0
  -30.1432  -16.6876   22.4824 H   0  0  0  0  0  0
  -29.7430  -19.3153   22.7223 H   0  0  0  0  0  0
  -27.4810  -17.4683   18.2825 H   0  0  0  0  0  0
  -28.7335  -18.5909   17.7285 H   0  0  0  0  0  0
  -27.3656  -19.1583   18.6631 H   0  0  0  0  0  0
  -28.5893  -15.3141   18.1358 H   0  0  0  0  0  0
  -29.6065  -16.5578   17.5087 H   0  0  0  0  0  0
  -30.2408  -14.9941   17.5684 H   0  0  0  0  0  0
  -31.2647  -17.6707   18.6090 H   0  0  0  0  0  0
  -32.1457  -16.1718   18.4363 H   0  0  0  0  0  0
  -32.1175  -17.0161   19.9751 H   0  0  0  0  0  0
  -26.2021  -22.0052   20.8147 H   0  0  0  0  0  0
  -26.6644  -20.3140   20.7549 H   0  0  0  0  0  0
  -26.6969  -21.2807   19.2829 H   0  0  0  0  0  0
  -27.9613  -22.7729   22.5268 H   0  0  0  0  0  0
  -29.5631  -22.0521   22.4511 H   0  0  0  0  0  0
  -28.1415  -21.0530   22.7332 H   0  0  0  0  0  0
  -28.2994  -24.5439   21.3246 H   0  0  0  0  0  0
  -27.0111  -24.2260   20.1820 H   0  0  0  0  0  0
  -29.8458  -23.1273   20.0008 H   0  0  0  0  0  0
  -28.6299  -22.8318   18.8091 H   0  0  0  0  0  0
  -30.3599  -20.8430   20.5243 H   0  0  0  0  0  0
  -29.4287  -20.5633   19.1179 H   0  0  0  0  0  0
  -28.2460  -25.5251   18.4454 H   0  0  0  0  0  0
  -29.7043  -25.4210   19.3786 H   0  0  0  0  0  0
  1 25  1  0  0  0
  1 30  2  0  0  0
  1 84  1  0  0  0
  2  3  1  0  0  0
  2 25  1  0  0  0
  2 87  1  0  0  0
  2 88  1  0  0  0
  3  4  1  0  0  0
  3 89  1  0  0  0
  3 90  1  0  0  0
  4  5  1  0  0  0
  4 91  1  0  0  0
  4 92  1  0  0  0
  5  6  1  0  0  0
  5 26  1  0  0  0
  5 93  1  0  0  0
  6 25  1  0  0  0
  6 94  1  0  0  0
  6 95  1  0  0  0
  7  8  2  0  0  0
  7 26  1  0  0  0
  7 29  1  0  0  0
  8  9  1  0  0  0
  8 22  1  0  0  0
  9 10  1  0  0  0
  9 27  2  0  0  0
 10 11  2  0  0  0
 10 15  1  0  0  0
 11 12  1  0  0  0
 11 96  1  0  0  0
 12 13  2  0  0  0
 12 97  1  0  0  0
 13 14  1  0  0  0
 13 31  1  0  0  0
 14 15  2  0  0  0
 14 98  1  0  0  0
 15 99  1  0  0  0
 16 17  2  0  0  0
 16 21  1  0  0  0
 16 31  1  0  0  0
 17 18  1  0  0  0
 17100  1  0  0  0
 18 19  2  0  0  0
 18101  1  0  0  0
 19 20  1  0  0  0
 19 24  1  0  0  0
 20 21  2  0  0  0
 20102  1  0  0  0
 21 23  1  0  0  0
 22 28  1  0  0  0
 22 32  2  0  0  0
 26 27  1  0  0  0
 28103  1  0  0  0
 28104  1  0  0  0
 29105  1  0  0  0
 29106  1  0  0  0
 33 34  1  0  0  0
 33 66  1  0  0  0
 33 70  2  0  0  0
 34 36  1  0  0  0
 34 59  1  0  0  0
 34107  1  0  0  0
 35 44  2  0  0  0
 35 45  1  0  0  0
 35 68  1  0  0  0
 36 56  1  0  0  0
 36108  1  0  0  0
 37 39  1  0  0  0
 37 47  1  0  0  0
 37 66  1  0  0  0
 37109  1  0  0  0
 38 43  2  0  0  0
 38 46  1  0  0  0
 38 47  1  0  0  0
 39 64  1  0  0  0
 39 67  2  0  0  0
 40 52  1  0  0  0
 40 53  2  0  0  0
 40 58  1  0  0  0
 41110  1  0  0  0
 41111  1  0  0  0
 41112  1  0  0  0
 41 48  1  0  0  0
 42 43  1  0  0  0
 42 66  1  0  0  0
 42113  1  0  0  0
 42114  1  0  0  0
 43 44  1  0  0  0
 44115  1  0  0  0
 45 46  2  0  0  0
 45116  1  0  0  0
 46117  1  0  0  0
 47118  1  0  0  0
 47119  1  0  0  0
 48 56  1  0  0  0
 48 65  1  0  0  0
 48120  1  0  0  0
 49 50  1  0  0  0
 49 53  1  0  0  0
 49 64  1  0  0  0
 49121  1  0  0  0
 50 51  1  0  0  0
 50122  1  0  0  0
 50123  1  0  0  0
 51 52  1  0  0  0
 51124  1  0  0  0
 51125  1  0  0  0
 52126  1  0  0  0
 52127  1  0  0  0
 53 54  1  0  0  0
 54 55  2  0  0  0
 54128  1  0  0  0
 55 57  1  0  0  0
 55129  1  0  0  0
 56 69  2  0  0  0
 57 58  2  0  0  0
 57130  1  0  0  0
 58131  1  0  0  0
 59 60  1  0  0  0
 59 61  1  0  0  0
 59 62  1  0  0  0
 60132  1  0  0  0
 60133  1  0  0  0
 60134  1  0  0  0
 61135  1  0  0  0
 61136  1  0  0  0
 61137  1  0  0  0
 62138  1  0  0  0
 62139  1  0  0  0
 62140  1  0  0  0
 63 65  1  0  0  0
 63141  1  0  0  0
 63142  1  0  0  0
 63143  1  0  0  0
 64144  1  0  0  0
 65145  1  0  0  0
 68 83  1  0  0  0
 71 72  2  0  0  0
 71 73  1  0  0  0
 71146  1  0  0  0
 72 86  1  0  0  0
 72147  1  0  0  0
 73 74  2  0  0  0
 73 84  1  0  0  0
 74 75  1  0  0  0
 74 86  1  0  0  0
 75148  1  0  0  0
 75149  1  0  0  0
 75150  1  0  0  0
 76151  1  0  0  0
 76152  1  0  0  0
 76153  1  0  0  0
 76 84  1  0  0  0
 77 84  1  0  0  0
 77154  1  0  0  0
 77155  1  0  0  0
 77156  1  0  0  0
 78157  1  0  0  0
 78158  1  0  0  0
 78159  1  0  0  0
 78 85  1  0  0  0
 79 85  1  0  0  0
 79160  1  0  0  0
 79161  1  0  0  0
 79162  1  0  0  0
 80 81  1  0  0  0
 80 83  1  0  0  0
 80163  1  0  0  0
 80164  1  0  0  0
 81 85  1  0  0  0
 81165  1  0  0  0
 81166  1  0  0  0
 82 85  1  0  0  0
 82 86  1  0  0  0
 82167  1  0  0  0
 82168  1  0  0  0
 83169  1  0  0  0
 83170  1  0  0  0
M  ISO  4   1 100  68 101  83 101  84 100
M  END
> <chiral flag>
0

> <version>
0

> <s_m_source_file>
/data/baiqing/PycharmProjects/Reinvent-master-3.2/result/LINK_invent/BTK/process_docking_weight1_custom_sum_contain_oxygen_bond_distance_aromatic_linkinvent_7_9_3/rearranged_h_0072.sdf

> <i_m_source_file_index>
93

> <r_mmod_Potential_Energy-OPLS-2005>
312.946319580078

> <r_mmod_Stretch_Energy-OPLS-2005>
48.0645790100098

> <r_mmod_Bend_Energy-OPLS-2005>
172.004165649414

> <r_mmod_Torsional_Energy-OPLS-2005>
324.580200195312

> <r_mmod_Improper_Torsional_Energy-OPLS-2005>
22.8853244781494

> <r_mmod_Van_der_Waal_Energy-OPLS-2005>
146.573455810547

> <r_mmod_Electrostatic_Energy-OPLS-2005>
-297.826904296875

> <r_mmod_Solvation_Energy-OPLS-2005>
-175.243560791016

> <b_mmod_Minimization_Converged-OPLS-2005>
0

> <r_mmod_RMS_Derivative-OPLS-2005>
6.06892490386963

$$$$
94
                    3D
 Structure written by MMmdl.
160168  0  0  1  0            999 V2000
  -30.7256  -14.4148   20.6030 C   0  0  0  0  0  0
  -30.4212  -12.2751   19.4160 C   0  0  0  0  0  0
  -29.4884  -12.4943   18.2036 C   0  0  0  0  0  0
  -28.0093  -12.3630   18.6179 C   0  0  0  0  0  0
  -27.6671  -13.1959   19.8813 C   0  0  2  0  0  0
  -28.7075  -12.9512   20.9974 C   0  0  0  0  0  0
  -25.2667  -13.8125   20.5734 C   0  0  0  0  0  0
  -24.1898  -13.0455   20.9222 C   0  0  0  0  0  0
  -24.6385  -11.6886   20.8740 C   0  0  0  0  0  0
  -23.9052  -10.4292   21.0409 C   0  0  0  0  0  0
  -24.3616   -9.4190   21.9166 C   0  0  0  0  0  0
  -23.6297   -8.2226   22.0715 C   0  0  0  0  0  0
  -22.4259   -8.0294   21.3545 C   0  0  0  0  0  0
  -21.9929   -9.0253   20.4620 C   0  0  0  0  0  0
  -22.7252  -10.2128   20.3033 C   0  0  0  0  0  0
  -21.6838   -6.0750   22.5273 C   0  0  0  0  0  0
  -21.4002   -6.5651   23.8215 C   0  0  0  0  0  0
  -21.3668   -5.6802   24.9176 C   0  0  0  0  0  0
  -21.6040   -4.3068   24.7210 C   0  0  0  0  0  0
  -21.8818   -3.8168   23.4329 C   0  0  0  0  0  0
  -21.9195   -4.6984   22.3390 C   0  0  0  0  0  0
  -22.7933  -13.5252   21.1914 C   0  0  0  0  0  0
  -22.1667   -4.2191   21.0963 F   0  0  0  0  0  0
  -21.5647   -3.4533   25.7707 F   0  0  0  0  0  0
  -30.0499  -13.2434   20.4559 N   0  0  0  0  0  0
  -26.3066  -12.9267   20.3416 N   0  0  0  0  0  0
  -25.9304  -11.6429   20.5765 N   0  0  0  0  0  0
  -22.0563  -12.8225   22.0421 N   0  0  0  0  0  0
  -25.4491  -15.1831   20.4054 N   0  0  0  0  0  0
  -31.7953  -14.6652   20.0363 O   0  0  0  0  0  0
  -21.6626   -6.8893   21.4229 O   0  0  0  0  0  0
  -22.3632  -14.5564   20.6751 O   0  0  0  0  0  0
  -24.6100  -31.8706   23.2231 C   0  0  0  0  0  0
  -25.8994  -32.4868   23.8469 C   0  0  1  0  0  0
  -27.2075  -27.4412   20.0604 C   0  0  0  0  0  0
  -25.5867  -33.8674   24.2411 N   0  0  0  0  0  0
  -23.3950  -30.5028   21.5656 C   0  0  2  0  0  0
  -24.8339  -28.9855   20.1161 C   0  0  0  0  0  0
  -22.7378  -29.4623   22.5031 C   0  0  0  0  0  0
  -18.0238  -28.1350   22.8518 C   0  0  0  0  0  0
  -24.1483  -36.7315   23.2643 C   0  0  0  0  0  0
  -25.9279  -30.8418   21.3748 C   0  0  0  0  0  0
  -25.9985  -29.4787   20.7147 C   0  0  0  0  0  0
  -27.1843  -28.7085   20.6932 C   0  0  0  0  0  0
  -26.0161  -26.9707   19.4560 C   0  0  0  0  0  0
  -24.8366  -27.7314   19.4919 C   0  0  0  0  0  0
  -23.6000  -29.8549   20.1736 C   0  0  0  0  0  0
  -25.4101  -36.3150   24.0356 C   0  0  1  0  0  0
  -20.5833  -28.3587   23.1369 C   0  0  2  0  0  0
  -20.6747  -26.9326   22.5448 C   0  0  0  0  0  0
  -19.5715  -26.6361   21.5251 C   0  0  0  0  0  0
  -18.1884  -26.7893   22.1647 C   0  0  0  0  0  0
  -19.1496  -28.8783   23.2942 C   0  0  0  0  0  0
  -18.9431  -30.1403   23.8925 C   0  0  0  0  0  0
  -17.6443  -30.6576   24.0546 C   0  0  0  0  0  0
  -25.9009  -34.9502   23.5177 C   0  0  0  0  0  0
  -16.5325  -29.9073   23.6336 C   0  0  0  0  0  0
  -16.7226  -28.6486   23.0357 C   0  0  0  0  0  0
  -26.4464  -31.6623   25.0759 C   0  0  0  0  0  0
  -25.3770  -31.3723   26.1538 C   0  0  0  0  0  0
  -27.0279  -30.3071   24.6086 C   0  0  0  0  0  0
  -27.6033  -32.4323   25.7517 C   0  0  0  0  0  0
  -27.5576  -37.1820   24.8457 C   0  0  0  0  0  0
  -21.4099  -29.2979   22.3792 N   0  0  0  0  0  0
  -26.4294  -37.3823   23.9406 N   0  0  0  0  0  0
  -24.6636  -31.0822   22.1133 N   0  0  0  0  0  0
  -23.4189  -28.8095   23.2985 O   0  0  0  0  0  0
  -28.4003  -26.7432   20.0586 O   0  0  0  0  0  0
  -26.5548  -34.8922   22.4728 O   0  0  0  0  0  0
  -23.5291  -32.1424   23.7653 O   0  0  0  0  0  0
  -31.0302  -22.3476   21.7123 C   0  0  0  0  0  0
  -29.9432  -22.0918   20.8555 C   0  0  0  0  0  0
  -29.6193  -20.0231   21.8712 C   0  0  0  0  0  0
  -30.7004  -20.3038   22.7707 C   0  0  0  0  0  0
  -29.4959  -23.1168   19.8251 C   0  0  0  0  0  0
  -28.7569  -18.7523   21.8764 C   0  0  0  0  0  0
  -29.2409  -24.5165   20.4164 C   0  0  0  0  0  0
  -29.1986  -17.6209   20.9174 C   0  0  0  0  0  0
  -30.3851  -16.7647   21.4212 C   0  0  0  0  0  0
  -28.5040  -25.4489   19.4497 C   0  0  0  0  0  0
  -31.2096  -19.3696   23.8819 C   0  0  0  0  0  0
  -31.4092  -21.4613   22.6565 N   0  0  0  0  0  0
  -29.2485  -20.9290   20.9248 N   0  0  0  0  0  0
  -30.0895  -15.3342   21.3437 N   0  0  0  0  0  0
  -31.7347  -20.0852   24.8805 F   0  0  0  0  0  0
  -30.2607  -18.6034   24.4172 F   0  0  0  0  0  0
  -32.1797  -18.5901   23.4029 F   0  0  0  0  0  0
  -31.4702  -12.3658   19.1259 H   0  0  0  0  0  0
  -30.3066  -11.2633   19.8057 H   0  0  0  0  0  0
  -29.7091  -11.7646   17.4262 H   0  0  0  0  0  0
  -29.6658  -13.4773   17.7614 H   0  0  0  0  0  0
  -27.8171  -11.3063   18.8120 H   0  0  0  0  0  0
  -27.3491  -12.6478   17.7961 H   0  0  0  0  0  0
  -27.7201  -14.2454   19.5954 H   0  0  0  0  0  0
  -28.6695  -11.9091   21.3147 H   0  0  0  0  0  0
  -28.4598  -13.5228   21.8930 H   0  0  0  0  0  0
  -25.2754   -9.5654   22.4759 H   0  0  0  0  0  0
  -24.0022   -7.4579   22.7379 H   0  0  0  0  0  0
  -21.0911   -8.8771   19.8873 H   0  0  0  0  0  0
  -22.3737  -10.9686   19.6163 H   0  0  0  0  0  0
  -21.1963   -7.6147   23.9749 H   0  0  0  0  0  0
  -21.1504   -6.0508   25.9099 H   0  0  0  0  0  0
  -22.0578   -2.7626   23.2792 H   0  0  0  0  0  0
  -22.4222  -11.9913   22.4847 H   0  0  0  0  0  0
  -21.1130  -13.1197   22.2495 H   0  0  0  0  0  0
  -24.6803  -15.8431   20.4502 H   0  0  0  0  0  0
  -26.2894  -15.5860   20.0102 H   0  0  0  0  0  0
  -26.7040  -32.5606   23.1213 H   0  0  0  0  0  0
  -25.0070  -33.9869   25.0590 H   0  0  0  0  0  0
  -22.6785  -31.3185   21.4425 H   0  0  0  0  0  0
  -23.3768  -35.9630   23.3334 H   0  0  0  0  0  0
  -24.3590  -36.8889   22.2054 H   0  0  0  0  0  0
  -23.7212  -37.6524   23.6618 H   0  0  0  0  0  0
  -26.0340  -31.6176   20.6136 H   0  0  0  0  0  0
  -26.8179  -30.8932   21.9898 H   0  0  0  0  0  0
  -28.0858  -29.0865   21.1564 H   0  0  0  0  0  0
  -25.9419  -26.0355   18.9261 H   0  0  0  0  0  0
  -23.9357  -27.3549   19.0261 H   0  0  0  0  0  0
  -23.7090  -30.6422   19.4261 H   0  0  0  0  0  0
  -22.7212  -29.2807   19.8732 H   0  0  0  0  0  0
  -25.1291  -36.2059   25.0856 H   0  0  0  0  0  0
  -20.9929  -28.3149   24.1485 H   0  0  0  0  0  0
  -20.5683  -26.2165   23.3613 H   0  0  0  0  0  0
  -21.6610  -26.7393   22.1204 H   0  0  0  0  0  0
  -19.6861  -25.6296   21.1209 H   0  0  0  0  0  0
  -19.6675  -27.3236   20.6838 H   0  0  0  0  0  0
  -17.4160  -26.6640   21.4035 H   0  0  0  0  0  0
  -18.0244  -26.0039   22.9040 H   0  0  0  0  0  0
  -19.7914  -30.7206   24.2311 H   0  0  0  0  0  0
  -17.4998  -31.6271   24.5107 H   0  0  0  0  0  0
  -15.5315  -30.2976   23.7679 H   0  0  0  0  0  0
  -15.8617  -28.0832   22.7060 H   0  0  0  0  0  0
  -24.5900  -30.7096   25.7918 H   0  0  0  0  0  0
  -24.9009  -32.2884   26.5032 H   0  0  0  0  0  0
  -25.8159  -30.8872   27.0262 H   0  0  0  0  0  0
  -26.2817  -29.6857   24.1106 H   0  0  0  0  0  0
  -27.4035  -29.7273   25.4525 H   0  0  0  0  0  0
  -27.8660  -30.4413   23.9241 H   0  0  0  0  0  0
  -27.2634  -33.3583   26.2170 H   0  0  0  0  0  0
  -28.3813  -32.6947   25.0337 H   0  0  0  0  0  0
  -28.0719  -31.8393   26.5381 H   0  0  0  0  0  0
  -28.2615  -38.0102   24.7527 H   0  0  0  0  0  0
  -28.1049  -36.2634   24.6282 H   0  0  0  0  0  0
  -27.2264  -37.1472   25.8850 H   0  0  0  0  0  0
  -20.9205  -29.8795   21.7138 H   0  0  0  0  0  0
  -26.0196  -38.2894   24.1470 H   0  0  0  0  0  0
  -31.5808  -23.2757   21.6506 H   0  0  0  0  0  0
  -28.5877  -22.7493   19.3479 H   0  0  0  0  0  0
  -30.2494  -23.1874   19.0428 H   0  0  0  0  0  0
  -27.7543  -19.0493   21.5593 H   0  0  0  0  0  0
  -28.5939  -18.3661   22.8788 H   0  0  0  0  0  0
  -30.1866  -24.9760   20.6990 H   0  0  0  0  0  0
  -28.6461  -24.4135   21.3264 H   0  0  0  0  0  0
  -28.3343  -16.9672   20.7680 H   0  0  0  0  0  0
  -29.4130  -18.0321   19.9281 H   0  0  0  0  0  0
  -31.2872  -17.0276   20.8633 H   0  0  0  0  0  0
  -30.5992  -16.9669   22.4664 H   0  0  0  0  0  0
  -27.5731  -24.9533   19.2000 H   0  0  0  0  0  0
  -29.0533  -25.5530   18.5124 H   0  0  0  0  0  0
  -29.2731  -15.0163   21.8481 H   0  0  0  0  0  0
  1 25  1  0  0  0
  1 30  2  0  0  0
  1 84  1  0  0  0
  2  3  1  0  0  0
  2 25  1  0  0  0
  2 88  1  0  0  0
  2 89  1  0  0  0
  3  4  1  0  0  0
  3 90  1  0  0  0
  3 91  1  0  0  0
  4  5  1  0  0  0
  4 92  1  0  0  0
  4 93  1  0  0  0
  5  6  1  0  0  0
  5 26  1  0  0  0
  5 94  1  0  0  0
  6 25  1  0  0  0
  6 95  1  0  0  0
  6 96  1  0  0  0
  7  8  2  0  0  0
  7 26  1  0  0  0
  7 29  1  0  0  0
  8  9  1  0  0  0
  8 22  1  0  0  0
  9 10  1  0  0  0
  9 27  2  0  0  0
 10 11  2  0  0  0
 10 15  1  0  0  0
 11 12  1  0  0  0
 11 97  1  0  0  0
 12 13  2  0  0  0
 12 98  1  0  0  0
 13 14  1  0  0  0
 13 31  1  0  0  0
 14 15  2  0  0  0
 14 99  1  0  0  0
 15100  1  0  0  0
 16 17  2  0  0  0
 16 21  1  0  0  0
 16 31  1  0  0  0
 17 18  1  0  0  0
 17101  1  0  0  0
 18 19  2  0  0  0
 18102  1  0  0  0
 19 20  1  0  0  0
 19 24  1  0  0  0
 20 21  2  0  0  0
 20103  1  0  0  0
 21 23  1  0  0  0
 22 28  1  0  0  0
 22 32  2  0  0  0
 26 27  1  0  0  0
 28104  1  0  0  0
 28105  1  0  0  0
 29106  1  0  0  0
 29107  1  0  0  0
 33 34  1  0  0  0
 33 66  1  0  0  0
 33 70  2  0  0  0
 34 36  1  0  0  0
 34 59  1  0  0  0
 34108  1  0  0  0
 35 44  2  0  0  0
 35 45  1  0  0  0
 35 68  1  0  0  0
 36 56  1  0  0  0
 36109  1  0  0  0
 37 39  1  0  0  0
 37 47  1  0  0  0
 37 66  1  0  0  0
 37110  1  0  0  0
 38 43  2  0  0  0
 38 46  1  0  0  0
 38 47  1  0  0  0
 39 64  1  0  0  0
 39 67  2  0  0  0
 40 52  1  0  0  0
 40 53  2  0  0  0
 40 58  1  0  0  0
 41111  1  0  0  0
 41112  1  0  0  0
 41113  1  0  0  0
 41 48  1  0  0  0
 42 43  1  0  0  0
 42 66  1  0  0  0
 42114  1  0  0  0
 42115  1  0  0  0
 43 44  1  0  0  0
 44116  1  0  0  0
 45 46  2  0  0  0
 45117  1  0  0  0
 46118  1  0  0  0
 47119  1  0  0  0
 47120  1  0  0  0
 48 56  1  0  0  0
 48 65  1  0  0  0
 48121  1  0  0  0
 49 50  1  0  0  0
 49 53  1  0  0  0
 49 64  1  0  0  0
 49122  1  0  0  0
 50 51  1  0  0  0
 50123  1  0  0  0
 50124  1  0  0  0
 51 52  1  0  0  0
 51125  1  0  0  0
 51126  1  0  0  0
 52127  1  0  0  0
 52128  1  0  0  0
 53 54  1  0  0  0
 54 55  2  0  0  0
 54129  1  0  0  0
 55 57  1  0  0  0
 55130  1  0  0  0
 56 69  2  0  0  0
 57 58  2  0  0  0
 57131  1  0  0  0
 58132  1  0  0  0
 59 60  1  0  0  0
 59 61  1  0  0  0
 59 62  1  0  0  0
 60133  1  0  0  0
 60134  1  0  0  0
 60135  1  0  0  0
 61136  1  0  0  0
 61137  1  0  0  0
 61138  1  0  0  0
 62139  1  0  0  0
 62140  1  0  0  0
 62141  1  0  0  0
 63 65  1  0  0  0
 63142  1  0  0  0
 63143  1  0  0  0
 63144  1  0  0  0
 64145  1  0  0  0
 65146  1  0  0  0
 68 80  1  0  0  0
 71 72  2  0  0  0
 71 82  1  0  0  0
 71147  1  0  0  0
 72 75  1  0  0  0
 72 83  1  0  0  0
 73 74  1  0  0  0
 73 76  1  0  0  0
 73 83  2  0  0  0
 74 81  1  0  0  0
 74 82  2  0  0  0
 75 77  1  0  0  0
 75148  1  0  0  0
 75149  1  0  0  0
 76 78  1  0  0  0
 76150  1  0  0  0
 76151  1  0  0  0
 77 80  1  0  0  0
 77152  1  0  0  0
 77153  1  0  0  0
 78 79  1  0  0  0
 78154  1  0  0  0
 78155  1  0  0  0
 79 84  1  0  0  0
 79156  1  0  0  0
 79157  1  0  0  0
 80158  1  0  0  0
 80159  1  0  0  0
 81 85  1  0  0  0
 81 86  1  0  0  0
 81 87  1  0  0  0
 84160  1  0  0  0
M  ISO  4   1 100  68 101  80 101  84 100
M  END
> <chiral flag>
0

> <version>
0

> <s_m_source_file>
/data/baiqing/PycharmProjects/Reinvent-master-3.2/result/LINK_invent/BTK/process_docking_weight1_custom_sum_contain_oxygen_bond_distance_aromatic_linkinvent_7_9_3/rearranged_h_0072.sdf

> <i_m_source_file_index>
94

> <r_mmod_Potential_Energy-OPLS-2005>
76.005256652832

> <r_mmod_Stretch_Energy-OPLS-2005>
39.450439453125

> <r_mmod_Bend_Energy-OPLS-2005>
113.670707702637

> <r_mmod_Torsional_Energy-OPLS-2005>
201.374664306641

> <r_mmod_Improper_Torsional_Energy-OPLS-2005>
3.16364574432373

> <r_mmod_Van_der_Waal_Energy-OPLS-2005>
168.098739624023

> <r_mmod_Electrostatic_Energy-OPLS-2005>
-244.318603515625

> <r_mmod_Solvation_Energy-OPLS-2005>
-215.989730834961

> <b_mmod_Minimization_Converged-OPLS-2005>
0

> <r_mmod_RMS_Derivative-OPLS-2005>
4.86110305786133

$$$$
95
                    3D
 Structure written by MMmdl.
173181  0  0  1  0            999 V2000
  -30.6576  -14.7133   20.6105 C   0  0  0  0  0  0
  -30.4557  -12.4900   19.4521 C   0  0  0  0  0  0
  -29.5002  -12.5852   18.2379 C   0  0  0  0  0  0
  -28.0258  -12.3881   18.6486 C   0  0  0  0  0  0
  -27.6561  -13.2195   19.8999 C   0  0  2  0  0  0
  -28.7179  -12.9918   20.9937 C   0  0  0  0  0  0
  -25.2550  -13.8130   20.5830 C   0  0  0  0  0  0
  -24.1817  -13.0393   20.9316 C   0  0  0  0  0  0
  -24.6385  -11.6887   20.8789 C   0  0  0  0  0  0
  -23.9103  -10.4257   21.0435 C   0  0  0  0  0  0
  -24.3622   -9.4146   21.9203 C   0  0  0  0  0  0
  -23.6252   -8.2215   22.0781 C   0  0  0  0  0  0
  -22.4248   -8.0251   21.3557 C   0  0  0  0  0  0
  -21.9943   -9.0259   20.4652 C   0  0  0  0  0  0
  -22.7268  -10.2136   20.3096 C   0  0  0  0  0  0
  -21.6802   -6.0713   22.5271 C   0  0  0  0  0  0
  -21.3933   -6.5601   23.8221 C   0  0  0  0  0  0
  -21.3723   -5.6751   24.9197 C   0  0  0  0  0  0
  -21.6089   -4.3025   24.7238 C   0  0  0  0  0  0
  -21.8791   -3.8119   23.4349 C   0  0  0  0  0  0
  -21.9175   -4.6928   22.3401 C   0  0  0  0  0  0
  -22.7815  -13.5192   21.1958 C   0  0  0  0  0  0
  -22.1650   -4.2142   21.0973 F   0  0  0  0  0  0
  -21.5759   -3.4527   25.7767 F   0  0  0  0  0  0
  -30.0120  -13.4826   20.4727 N   0  0  0  0  0  0
  -26.2997  -12.9331   20.3543 N   0  0  0  0  0  0
  -25.9320  -11.6479   20.5807 N   0  0  0  0  0  0
  -22.0356  -12.8122   22.0411 N   0  0  0  0  0  0
  -25.4241  -15.1844   20.4221 N   0  0  0  0  0  0
  -31.7390  -14.8368   20.0282 O   0  0  0  0  0  0
  -21.6602   -6.8853   21.4229 O   0  0  0  0  0  0
  -22.3576  -14.5517   20.6844 O   0  0  0  0  0  0
  -24.6304  -31.8580   23.1937 C   0  0  0  0  0  0
  -25.9158  -32.4752   23.8304 C   0  0  1  0  0  0
  -27.2328  -27.2868   20.1292 C   0  0  0  0  0  0
  -25.5955  -33.8550   24.2226 N   0  0  0  0  0  0
  -23.4241  -30.4796   21.5362 C   0  0  2  0  0  0
  -24.8747  -28.9226   20.1136 C   0  0  0  0  0  0
  -22.7488  -29.4640   22.4867 C   0  0  0  0  0  0
  -18.0293  -28.1408   22.8455 C   0  0  0  0  0  0
  -24.1510  -36.7286   23.2627 C   0  0  0  0  0  0
  -25.9692  -30.7741   21.3738 C   0  0  0  0  0  0
  -26.0430  -29.3986   20.7208 C   0  0  0  0  0  0
  -27.2231  -28.5921   20.7203 C   0  0  0  0  0  0
  -26.0385  -26.8686   19.4960 C   0  0  0  0  0  0
  -24.8742  -27.6620   19.4954 C   0  0  0  0  0  0
  -23.6441  -29.8084   20.1548 C   0  0  0  0  0  0
  -25.4130  -36.3057   24.0315 C   0  0  1  0  0  0
  -20.5909  -28.3739   23.1230 C   0  0  2  0  0  0
  -20.6781  -26.9440   22.5390 C   0  0  0  0  0  0
  -19.5769  -26.6397   21.5181 C   0  0  0  0  0  0
  -18.1949  -26.7936   22.1598 C   0  0  0  0  0  0
  -19.1551  -28.8882   23.2853 C   0  0  0  0  0  0
  -18.9467  -30.1462   23.8906 C   0  0  0  0  0  0
  -17.6476  -30.6603   24.0552 C   0  0  0  0  0  0
  -25.9065  -34.9437   23.5063 C   0  0  0  0  0  0
  -16.5366  -29.9104   23.6330 C   0  0  0  0  0  0
  -16.7279  -28.6523   23.0346 C   0  0  0  0  0  0
  -26.4518  -31.6574   25.0704 C   0  0  0  0  0  0
  -25.3719  -31.3796   26.1418 C   0  0  0  0  0  0
  -27.0309  -30.2962   24.6196 C   0  0  0  0  0  0
  -27.6074  -32.4324   25.7482 C   0  0  0  0  0  0
  -27.5591  -37.1795   24.8455 C   0  0  0  0  0  0
  -21.4202  -29.3096   22.3624 N   0  0  0  0  0  0
  -26.4299  -37.3759   23.9397 N   0  0  0  0  0  0
  -24.6928  -31.0563   22.0904 N   0  0  0  0  0  0
  -23.4182  -28.8181   23.2968 O   0  0  0  0  0  0
  -28.3525  -26.4308   20.2013 O   0  0  0  0  0  0
  -26.5631  -34.8928   22.4624 O   0  0  0  0  0  0
  -23.5469  -32.1391   23.7259 O   0  0  0  0  0  0
  -29.4261  -19.1643   19.3955 C   0  0  0  0  0  0
  -29.9127  -19.7578   20.5289 C   0  0  0  0  0  0
  -30.0523  -17.4376   20.7163 C   0  0  0  0  0  0
  -25.4855  -16.3601   16.7263 C   0  0  0  0  0  0
  -31.3784  -16.1952   22.4814 C   0  0  0  0  0  0
  -30.0716  -21.2678   20.9102 C   0  0  0  0  0  0
  -26.9189  -16.0928   17.1859 C   0  0  0  0  0  0
  -29.0068  -22.3408   20.3603 C   0  0  0  0  0  0
  -27.5178  -17.2112   18.0523 C   0  0  0  0  0  0
  -29.2457  -23.9229   20.5793 C   0  0  0  0  0  0
  -28.9481  -16.8628   18.5235 C   0  0  0  0  0  0
  -28.8998  -15.7913   22.3047 C   0  0  0  0  0  0
  -28.1775  -24.9669   19.9946 C   0  0  0  0  0  0
  -30.2019  -16.0327   21.4686 C   0  0  1  0  0  0
  -29.4631  -17.7856   19.5432 N   0  0  0  0  0  0
  -30.3453  -18.6554   21.2781 N   0  3  0  0  0  0
  -28.4165  -16.9025   23.1596 N   0  3  0  0  0  0
  -31.4821  -12.6536   19.1192 H   0  0  0  0  0  0
  -30.4706  -11.4792   19.8672 H   0  0  0  0  0  0
  -29.7678  -11.8537   17.4781 H   0  0  0  0  0  0
  -29.6227  -13.5590   17.7656 H   0  0  0  0  0  0
  -27.8735  -11.3295   18.8666 H   0  0  0  0  0  0
  -27.3608  -12.6314   17.8222 H   0  0  0  0  0  0
  -27.6775  -14.2689   19.6255 H   0  0  0  0  0  0
  -28.7864  -11.9193   21.1813 H   0  0  0  0  0  0
  -28.4060  -13.3612   21.9584 H   0  0  0  0  0  0
  -25.2720   -9.5659   22.4871 H   0  0  0  0  0  0
  -23.9927   -7.4631   22.7566 H   0  0  0  0  0  0
  -21.0901   -8.8793   19.8911 H   0  0  0  0  0  0
  -22.3750  -10.9718   19.6225 H   0  0  0  0  0  0
  -21.1797   -7.6099   23.9719 H   0  0  0  0  0  0
  -21.1652   -6.0490   25.9129 H   0  0  0  0  0  0
  -22.0493   -2.7577   23.2847 H   0  0  0  0  0  0
  -22.3843  -11.9718   22.4738 H   0  0  0  0  0  0
  -21.0914  -13.1112   22.2513 H   0  0  0  0  0  0
  -26.1726  -15.5408   19.8486 H   0  0  0  0  0  0
  -24.5902  -15.7627   20.3741 H   0  0  0  0  0  0
  -26.7216  -32.5396   23.1020 H   0  0  0  0  0  0
  -25.0145  -33.9674   25.0407 H   0  0  0  0  0  0
  -22.7226  -31.3013   21.3831 H   0  0  0  0  0  0
  -23.3760  -35.9629   23.3283 H   0  0  0  0  0  0
  -24.3595  -36.8913   22.2042 H   0  0  0  0  0  0
  -23.7290  -37.6500   23.6656 H   0  0  0  0  0  0
  -26.1104  -31.5302   20.6013 H   0  0  0  0  0  0
  -26.8446  -30.8215   22.0099 H   0  0  0  0  0  0
  -28.1143  -28.9451   21.2189 H   0  0  0  0  0  0
  -25.9702  -25.9024   19.0156 H   0  0  0  0  0  0
  -23.9758  -27.2804   19.0315 H   0  0  0  0  0  0
  -23.7726  -30.5786   19.3945 H   0  0  0  0  0  0
  -22.7639  -29.2417   19.8486 H   0  0  0  0  0  0
  -25.1301  -36.1889   25.0809 H   0  0  0  0  0  0
  -20.9990  -28.3341   24.1355 H   0  0  0  0  0  0
  -20.5663  -26.2350   23.3615 H   0  0  0  0  0  0
  -21.6651  -26.7467   22.1197 H   0  0  0  0  0  0
  -19.6954  -25.6301   21.1242 H   0  0  0  0  0  0
  -19.6712  -27.3180   20.6697 H   0  0  0  0  0  0
  -17.4205  -26.6657   21.4020 H   0  0  0  0  0  0
  -18.0382  -26.0079   22.9013 H   0  0  0  0  0  0
  -19.7955  -30.7247   24.2295 H   0  0  0  0  0  0
  -17.5049  -31.6270   24.5159 H   0  0  0  0  0  0
  -15.5374  -30.3018   23.7645 H   0  0  0  0  0  0
  -15.8675  -28.0837   22.7083 H   0  0  0  0  0  0
  -24.5884  -30.7125   25.7789 H   0  0  0  0  0  0
  -24.8907  -32.2993   26.4771 H   0  0  0  0  0  0
  -25.8029  -30.9051   27.0232 H   0  0  0  0  0  0
  -26.2866  -29.6745   24.1196 H   0  0  0  0  0  0
  -27.3915  -29.7227   25.4741 H   0  0  0  0  0  0
  -27.8796  -30.4173   23.9456 H   0  0  0  0  0  0
  -27.2659  -33.3615   26.2056 H   0  0  0  0  0  0
  -28.3897  -32.6897   25.0326 H   0  0  0  0  0  0
  -28.0706  -31.8433   26.5398 H   0  0  0  0  0  0
  -28.2595  -38.0111   24.7482 H   0  0  0  0  0  0
  -28.1108  -36.2630   24.6281 H   0  0  0  0  0  0
  -27.2298  -37.1430   25.8859 H   0  0  0  0  0  0
  -20.9404  -29.8809   21.6807 H   0  0  0  0  0  0
  -26.0178  -38.2832   24.1401 H   0  0  0  0  0  0
  -29.0403  -19.6305   18.4995 H   0  0  0  0  0  0
  -25.0402  -15.4411   16.3410 H   0  0  0  0  0  0
  -25.4515  -17.1013   15.9269 H   0  0  0  0  0  0
  -24.8559  -16.7071   17.5478 H   0  0  0  0  0  0
  -31.2043  -16.9496   23.2450 H   0  0  0  0  0  0
  -32.2969  -16.4969   21.9708 H   0  0  0  0  0  0
  -31.6043  -15.2666   23.0108 H   0  0  0  0  0  0
  -31.0669  -21.5726   20.5843 H   0  0  0  0  0  0
  -30.0879  -21.3298   22.0000 H   0  0  0  0  0  0
  -27.5525  -15.9123   16.3176 H   0  0  0  0  0  0
  -26.9138  -15.1684   17.7568 H   0  0  0  0  0  0
  -28.0451  -22.0882   20.8073 H   0  0  0  0  0  0
  -28.8810  -22.1772   19.2910 H   0  0  0  0  0  0
  -26.8690  -17.3934   18.9108 H   0  0  0  0  0  0
  -27.5275  -18.1400   17.4825 H   0  0  0  0  0  0
  -30.2234  -24.1764   20.1652 H   0  0  0  0  0  0
  -29.3269  -24.1102   21.6497 H   0  0  0  0  0  0
  -29.6404  -16.8819   17.6810 H   0  0  0  0  0  0
  -28.9625  -15.8554   18.9093 H   0  0  0  0  0  0
  -29.0627  -14.9649   22.9965 H   0  0  0  0  0  0
  -28.0761  -15.5388   21.6431 H   0  0  0  0  0  0
  -27.2096  -24.6725   20.4034 H   0  0  0  0  0  0
  -28.1139  -24.7981   18.9188 H   0  0  0  0  0  0
  -30.8705  -18.7546   22.1412 H   0  0  0  0  0  0
  -29.0577  -17.1102   23.9076 H   0  0  0  0  0  0
  -27.5517  -16.6153   23.5895 H   0  0  0  0  0  0
  -28.2095  -17.7421   22.6465 H   0  0  0  0  0  0
  1 25  1  0  0  0
  1 30  2  0  0  0
  1 84  1  0  0  0
  2  3  1  0  0  0
  2 25  1  0  0  0
  2 88  1  0  0  0
  2 89  1  0  0  0
  3  4  1  0  0  0
  3 90  1  0  0  0
  3 91  1  0  0  0
  4  5  1  0  0  0
  4 92  1  0  0  0
  4 93  1  0  0  0
  5  6  1  0  0  0
  5 26  1  0  0  0
  5 94  1  0  0  0
  6 25  1  0  0  0
  6 95  1  0  0  0
  6 96  1  0  0  0
  7  8  2  0  0  0
  7 26  1  0  0  0
  7 29  1  0  0  0
  8  9  1  0  0  0
  8 22  1  0  0  0
  9 10  1  0  0  0
  9 27  2  0  0  0
 10 11  2  0  0  0
 10 15  1  0  0  0
 11 12  1  0  0  0
 11 97  1  0  0  0
 12 13  2  0  0  0
 12 98  1  0  0  0
 13 14  1  0  0  0
 13 31  1  0  0  0
 14 15  2  0  0  0
 14 99  1  0  0  0
 15100  1  0  0  0
 16 17  2  0  0  0
 16 21  1  0  0  0
 16 31  1  0  0  0
 17 18  1  0  0  0
 17101  1  0  0  0
 18 19  2  0  0  0
 18102  1  0  0  0
 19 20  1  0  0  0
 19 24  1  0  0  0
 20 21  2  0  0  0
 20103  1  0  0  0
 21 23  1  0  0  0
 22 28  1  0  0  0
 22 32  2  0  0  0
 26 27  1  0  0  0
 28104  1  0  0  0
 28105  1  0  0  0
 29106  1  0  0  0
 29107  1  0  0  0
 33 34  1  0  0  0
 33 66  1  0  0  0
 33 70  2  0  0  0
 34 36  1  0  0  0
 34 59  1  0  0  0
 34108  1  0  0  0
 35 44  2  0  0  0
 35 45  1  0  0  0
 35 68  1  0  0  0
 36 56  1  0  0  0
 36109  1  0  0  0
 37 39  1  0  0  0
 37 47  1  0  0  0
 37 66  1  0  0  0
 37110  1  0  0  0
 38 43  2  0  0  0
 38 46  1  0  0  0
 38 47  1  0  0  0
 39 64  1  0  0  0
 39 67  2  0  0  0
 40 52  1  0  0  0
 40 53  2  0  0  0
 40 58  1  0  0  0
 41111  1  0  0  0
 41112  1  0  0  0
 41113  1  0  0  0
 41 48  1  0  0  0
 42 43  1  0  0  0
 42 66  1  0  0  0
 42114  1  0  0  0
 42115  1  0  0  0
 43 44  1  0  0  0
 44116  1  0  0  0
 45 46  2  0  0  0
 45117  1  0  0  0
 46118  1  0  0  0
 47119  1  0  0  0
 47120  1  0  0  0
 48 56  1  0  0  0
 48 65  1  0  0  0
 48121  1  0  0  0
 49 50  1  0  0  0
 49 53  1  0  0  0
 49 64  1  0  0  0
 49122  1  0  0  0
 50 51  1  0  0  0
 50123  1  0  0  0
 50124  1  0  0  0
 51 52  1  0  0  0
 51125  1  0  0  0
 51126  1  0  0  0
 52127  1  0  0  0
 52128  1  0  0  0
 53 54  1  0  0  0
 54 55  2  0  0  0
 54129  1  0  0  0
 55 57  1  0  0  0
 55130  1  0  0  0
 56 69  2  0  0  0
 57 58  2  0  0  0
 57131  1  0  0  0
 58132  1  0  0  0
 59 60  1  0  0  0
 59 61  1  0  0  0
 59 62  1  0  0  0
 60133  1  0  0  0
 60134  1  0  0  0
 60135  1  0  0  0
 61136  1  0  0  0
 61137  1  0  0  0
 61138  1  0  0  0
 62139  1  0  0  0
 62140  1  0  0  0
 62141  1  0  0  0
 63 65  1  0  0  0
 63142  1  0  0  0
 63143  1  0  0  0
 63144  1  0  0  0
 64145  1  0  0  0
 65146  1  0  0  0
 68 83  1  0  0  0
 71 72  2  0  0  0
 71 85  1  0  0  0
 71147  1  0  0  0
 72 76  1  0  0  0
 72 86  1  0  0  0
 73 84  1  0  0  0
 73 85  1  0  0  0
 73 86  2  0  0  0
 74 77  1  0  0  0
 74148  1  0  0  0
 74149  1  0  0  0
 74150  1  0  0  0
 75151  1  0  0  0
 75152  1  0  0  0
 75153  1  0  0  0
 75 84  1  0  0  0
 76 78  1  0  0  0
 76154  1  0  0  0
 76155  1  0  0  0
 77 79  1  0  0  0
 77156  1  0  0  0
 77157  1  0  0  0
 78 80  1  0  0  0
 78158  1  0  0  0
 78159  1  0  0  0
 79 81  1  0  0  0
 79160  1  0  0  0
 79161  1  0  0  0
 80 83  1  0  0  0
 80162  1  0  0  0
 80163  1  0  0  0
 81 85  1  0  0  0
 81164  1  0  0  0
 81165  1  0  0  0
 82 84  1  0  0  0
 82 87  1  0  0  0
 82166  1  0  0  0
 82167  1  0  0  0
 83168  1  0  0  0
 83169  1  0  0  0
 86170  1  0  0  0
 87171  1  0  0  0
 87172  1  0  0  0
 87173  1  0  0  0
M  CHG  2  86   1  87   1
M  ISO  4   1 100  68 101  83 101  84 100
M  END
> <chiral flag>
0

> <version>
0

> <s_m_source_file>
/data/baiqing/PycharmProjects/Reinvent-master-3.2/result/LINK_invent/BTK/process_docking_weight1_custom_sum_contain_oxygen_bond_distance_aromatic_linkinvent_7_9_3/rearranged_h_0072.sdf

> <i_m_source_file_index>
95

> <r_mmod_Potential_Energy-OPLS-2005>
-38.1841621398926

> <r_mmod_Stretch_Energy-OPLS-2005>
128.063705444336

> <r_mmod_Bend_Energy-OPLS-2005>
195.466262817383

> <r_mmod_Torsional_Energy-OPLS-2005>
234.712936401367

> <r_mmod_Improper_Torsional_Energy-OPLS-2005>
5.49283742904663

> <r_mmod_Van_der_Waal_Energy-OPLS-2005>
118.238174438477

> <r_mmod_Electrostatic_Energy-OPLS-2005>
201.985778808594

> <r_mmod_Solvation_Energy-OPLS-2005>
-986.8564453125

> <b_mmod_Minimization_Converged-OPLS-2005>
0

> <r_mmod_RMS_Derivative-OPLS-2005>
6.30003547668457

$$$$
96
                    3D
 Structure written by MMmdl.
172180  0  0  1  0            999 V2000
  -30.1935  -14.4790   19.7021 C   0  0  0  0  0  0
  -30.4316  -12.1327   19.4218 C   0  0  0  0  0  0
  -29.3624  -11.8486   18.3529 C   0  0  0  0  0  0
  -27.9660  -11.6026   19.0344 C   0  0  0  0  0  0
  -27.6246  -12.6439   20.1294 C   0  0  2  0  0  0
  -28.8070  -12.9606   21.0608 C   0  0  0  0  0  0
  -24.6214  -14.4982   20.5814 C   0  0  0  0  0  0
  -24.0402  -14.0538   20.8153 C   0  0  0  0  0  0
  -25.3880  -12.1812   20.8446 C   0  0  0  0  0  0
  -24.7502  -10.4311   20.7969 C   0  0  0  0  0  0
  -24.7289   -9.5319   21.9424 C   0  0  0  0  0  0
  -23.8288   -8.4096   22.1896 C   0  0  0  0  0  0
  -22.6914   -8.1178   21.3886 C   0  0  0  0  0  0
  -22.5543   -8.9882   20.3094 C   0  0  0  0  0  0
  -23.5888   -9.9400   20.0103 C   0  0  0  0  0  0
  -21.7668   -6.1477   22.5441 C   0  0  0  0  0  0
  -21.4552   -6.5969   23.8425 C   0  0  0  0  0  0
  -21.3856   -5.6902   24.9218 C   0  0  0  0  0  0
  -21.6043   -4.3180   24.7092 C   0  0  0  0  0  0
  -21.8739   -3.8501   23.4095 C   0  0  0  0  0  0
  -21.9450   -4.7550   22.3315 C   0  0  0  0  0  0
  -22.4579  -14.4329   20.9854 C   0  0  0  0  0  0
  -22.1836   -4.2696   21.0871 F   0  0  0  0  0  0
  -21.5485   -3.4521   25.7511 F   0  0  0  0  0  0
  -29.9427  -13.2585   20.1956 N   0  0  0  0  0  0
  -26.0488  -12.8919   20.7478 N   0  0  0  0  0  0
  -26.3330  -11.9340   21.5242 N   0  0  0  0  0  0
  -21.6755  -13.9182   21.9650 N   0  0  0  0  0  0
  -24.5226  -15.8947   20.1844 N   0  0  0  0  0  0
  -31.3279  -14.9576   19.9011 O   0  0  0  0  0  0
  -21.7969   -7.0419   21.4882 O   0  0  0  0  0  0
  -21.9152  -15.1397   20.1803 O   0  0  0  0  0  0
  -24.6746  -31.8148   23.1658 C   0  0  0  0  0  0
  -25.9400  -32.4522   23.8137 C   0  0  1  0  0  0
  -26.9383  -26.6660   20.3929 C   0  0  0  0  0  0
  -25.6029  -33.8353   24.2012 N   0  0  0  0  0  0
  -23.4823  -30.4400   21.5202 C   0  0  2  0  0  0
  -24.8950  -28.8045   20.1055 C   0  0  0  0  0  0
  -22.7675  -29.4428   22.4719 C   0  0  0  0  0  0
  -18.0321  -28.1432   22.8442 C   0  0  0  0  0  0
  -24.1479  -36.7187   23.2646 C   0  0  0  0  0  0
  -26.0552  -30.5437   21.4318 C   0  0  0  0  0  0
  -26.0695  -29.1129   20.8006 C   0  0  0  0  0  0
  -27.1077  -28.0654   20.9075 C   0  0  0  0  0  0
  -25.8149  -26.5837   19.5526 C   0  0  0  0  0  0
  -24.8187  -27.5810   19.4284 C   0  0  0  0  0  0
  -23.7193  -29.7809   20.1340 C   0  0  0  0  0  0
  -25.4131  -36.2943   24.0289 C   0  0  1  0  0  0
  -20.5945  -28.3796   23.1135 C   0  0  2  0  0  0
  -20.6808  -26.9471   22.5389 C   0  0  0  0  0  0
  -19.5785  -26.6377   21.5206 C   0  0  0  0  0  0
  -18.1960  -26.7956   22.1611 C   0  0  0  0  0  0
  -19.1586  -28.8929   23.2770 C   0  0  0  0  0  0
  -18.9505  -30.1509   23.8821 C   0  0  0  0  0  0
  -17.6502  -30.6619   24.0552 C   0  0  0  0  0  0
  -25.9124  -34.9333   23.4986 C   0  0  0  0  0  0
  -16.5385  -29.9103   23.6358 C   0  0  0  0  0  0
  -16.7301  -28.6525   23.0363 C   0  0  0  0  0  0
  -26.4577  -31.6538   25.0746 C   0  0  0  0  0  0
  -25.3647  -31.3871   26.1366 C   0  0  0  0  0  0
  -27.0498  -30.2878   24.6635 C   0  0  0  0  0  0
  -27.6031  -32.4386   25.7556 C   0  0  0  0  0  0
  -27.5569  -37.1746   24.8464 C   0  0  0  0  0  0
  -21.4346  -29.3061   22.3466 N   0  0  0  0  0  0
  -26.4263  -37.3702   23.9425 N   0  0  0  0  0  0
  -24.7617  -30.9681   22.0893 N   0  0  0  0  0  0
  -23.4168  -28.8011   23.3016 O   0  0  0  0  0  0
  -27.6766  -25.3505   20.5894 O   0  0  0  0  0  0
  -26.5744  -34.8881   22.4589 O   0  0  0  0  0  0
  -23.5811  -32.1238   23.6671 O   0  0  0  0  0  0
  -24.7770  -13.4195   22.8008 C   0  0  0  0  0  0
  -26.2884  -14.8423   22.0104 C   0  0  0  0  0  0
  -23.8752  -12.5180   19.2676 C   0  0  0  0  0  0
  -25.6171  -13.7964   18.7135 C   0  0  0  0  0  0
  -24.4541  -13.4595   24.2769 C   0  0  0  0  0  0
  -21.3863  -12.0985   18.6776 C   0  0  0  0  0  0
  -28.8762  -14.8958   16.3333 C   0  0  0  0  0  0
  -22.8323  -12.2495   18.1730 C   0  0  0  0  0  0
  -26.5936  -16.6203   22.4123 C   0  0  0  0  0  0
  -26.6161  -14.0445   17.5013 C   0  0  0  0  0  0
  -26.6875  -18.3183   21.4863 C   0  0  0  0  0  0
  -26.9085  -20.2160   21.8109 C   0  0  0  0  0  0
  -27.1936  -21.8968   20.8964 C   0  0  0  0  0  0
  -27.1197  -23.8006   21.1787 C   0  0  0  0  0  0
  -28.1343  -14.8591   17.6912 C   0  0  1  0  0  0
  -23.3732  -12.1844   21.5854 N   0  0  0  0  0  0
  -26.7201  -14.9150   20.0655 N   0  0  0  0  0  0
  -29.1860  -15.0835   18.9000 N   0  0  0  0  0  0
  -31.3994  -12.3354   18.9581 H   0  0  0  0  0  0
  -30.5790  -11.2723   20.0792 H   0  0  0  0  0  0
  -29.6445  -10.9536   17.7981 H   0  0  0  0  0  0
  -29.3296  -12.6236   17.6067 H   0  0  0  0  0  0
  -28.0152  -10.6405   19.5469 H   0  0  0  0  0  0
  -27.1737  -11.4600   18.3047 H   0  0  0  0  0  0
  -27.8247  -13.2412   19.3161 H   0  0  0  0  0  0
  -29.0258  -12.1158   21.7112 H   0  0  0  0  0  0
  -28.6118  -13.8209   21.6965 H   0  0  0  0  0  0
  -25.4373   -9.7473   22.7311 H   0  0  0  0  0  0
  -24.0053   -7.8055   23.0670 H   0  0  0  0  0  0
  -21.7680   -8.8082   19.5902 H   0  0  0  0  0  0
  -23.5357  -10.1977   18.9888 H   0  0  0  0  0  0
  -21.2785   -7.6471   24.0086 H   0  0  0  0  0  0
  -21.1656   -6.0532   25.9117 H   0  0  0  0  0  0
  -22.0211   -2.7938   23.2419 H   0  0  0  0  0  0
  -22.0958  -13.1156   22.4293 H   0  0  0  0  0  0
  -20.6807  -14.0865   21.9928 H   0  0  0  0  0  0
  -23.6864  -16.2368   19.7272 H   0  0  0  0  0  0
  -25.4175  -16.1596   19.7762 H   0  0  0  0  0  0
  -26.7460  -32.4932   23.0822 H   0  0  0  0  0  0
  -25.0113  -33.9413   25.0121 H   0  0  0  0  0  0
  -22.8046  -31.2808   21.3633 H   0  0  0  0  0  0
  -23.3776  -35.9483   23.3259 H   0  0  0  0  0  0
  -24.3552  -36.8899   22.2072 H   0  0  0  0  0  0
  -23.7184  -37.6336   23.6744 H   0  0  0  0  0  0
  -26.2683  -31.2497   20.6282 H   0  0  0  0  0  0
  -26.9134  -30.5875   22.0881 H   0  0  0  0  0  0
  -27.9758  -28.2771   21.5144 H   0  0  0  0  0  0
  -25.6169  -25.6410   19.0605 H   0  0  0  0  0  0
  -23.9407  -27.3623   18.8331 H   0  0  0  0  0  0
  -23.9124  -30.5589   19.3935 H   0  0  0  0  0  0
  -22.8111  -29.2773   19.7976 H   0  0  0  0  0  0
  -25.1319  -36.1742   25.0779 H   0  0  0  0  0  0
  -21.0012  -28.3436   24.1262 H   0  0  0  0  0  0
  -20.5697  -26.2431   23.3651 H   0  0  0  0  0  0
  -21.6674  -26.7454   22.1191 H   0  0  0  0  0  0
  -19.6965  -25.6258   21.1303 H   0  0  0  0  0  0
  -19.6732  -27.3130   20.6686 H   0  0  0  0  0  0
  -17.4230  -26.6659   21.4016 H   0  0  0  0  0  0
  -18.0382  -26.0118   22.9033 H   0  0  0  0  0  0
  -19.7986  -30.7337   24.2153 H   0  0  0  0  0  0
  -17.5068  -31.6291   24.5187 H   0  0  0  0  0  0
  -15.5390  -30.2998   23.7741 H   0  0  0  0  0  0
  -15.8685  -28.0832   22.7130 H   0  0  0  0  0  0
  -24.5821  -30.7232   25.7681 H   0  0  0  0  0  0
  -24.8844  -32.3107   26.4606 H   0  0  0  0  0  0
  -25.7807  -30.9150   27.0273 H   0  0  0  0  0  0
  -26.3205  -29.6497   24.1633 H   0  0  0  0  0  0
  -27.3937  -29.7323   25.5370 H   0  0  0  0  0  0
  -27.9188  -30.4024   24.0152 H   0  0  0  0  0  0
  -27.2577  -33.3749   26.1956 H   0  0  0  0  0  0
  -28.3931  -32.6853   25.0450 H   0  0  0  0  0  0
  -28.0606  -31.8644   26.5623 H   0  0  0  0  0  0
  -28.2538  -38.0085   24.7558 H   0  0  0  0  0  0
  -28.1105  -36.2617   24.6227 H   0  0  0  0  0  0
  -27.2299  -37.1318   25.8864 H   0  0  0  0  0  0
  -20.9632  -29.8728   21.6555 H   0  0  0  0  0  0
  -26.0111  -38.2758   24.1448 H   0  0  0  0  0  0
  -24.8481  -14.3765   24.7164 H   0  0  0  0  0  0
  -24.9130  -12.6058   24.7774 H   0  0  0  0  0  0
  -23.3751  -13.4207   24.4389 H   0  0  0  0  0  0
  -20.6969  -11.7747   17.8935 H   0  0  0  0  0  0
  -21.0100  -13.0430   19.0567 H   0  0  0  0  0  0
  -21.3100  -11.3838   19.4945 H   0  0  0  0  0  0
  -28.2176  -15.2848   15.5549 H   0  0  0  0  0  0
  -29.2110  -13.9227   15.9741 H   0  0  0  0  0  0
  -29.7487  -15.5513   16.3605 H   0  0  0  0  0  0
  -22.8675  -13.1160   17.5178 H   0  0  0  0  0  0
  -23.1371  -11.4325   17.5191 H   0  0  0  0  0  0
  -27.5537  -16.5461   22.9264 H   0  0  0  0  0  0
  -25.8796  -16.7943   23.2173 H   0  0  0  0  0  0
  -26.0362  -14.6161   16.7785 H   0  0  0  0  0  0
  -26.7755  -13.0918   16.9981 H   0  0  0  0  0  0
  -25.7553  -18.3118   20.9226 H   0  0  0  0  0  0
  -27.4428  -18.1137   20.7276 H   0  0  0  0  0  0
  -27.7463  -20.2193   22.5107 H   0  0  0  0  0  0
  -26.0583  -20.4420   22.4545 H   0  0  0  0  0  0
  -26.5720  -21.7942   20.0080 H   0  0  0  0  0  0
  -28.2036  -21.7752   20.5071 H   0  0  0  0  0  0
  -27.4883  -23.8788   22.2037 H   0  0  0  0  0  0
  -26.0527  -23.9880   21.2947 H   0  0  0  0  0  0
  -27.7319  -15.8731   17.7454 H   0  0  0  0  0  0
  -29.3398  -16.0791   18.9731 H   0  0  0  0  0  0
  1 25  1  0  0  0
  1 30  2  0  0  0
  1 88  1  0  0  0
  2  3  1  0  0  0
  2 25  1  0  0  0
  2 89  1  0  0  0
  2 90  1  0  0  0
  3  4  1  0  0  0
  3 91  1  0  0  0
  3 92  1  0  0  0
  4  5  1  0  0  0
  4 93  1  0  0  0
  4 94  1  0  0  0
  5  6  1  0  0  0
  5 26  1  0  0  0
  5 95  1  0  0  0
  6 25  1  0  0  0
  6 96  1  0  0  0
  6 97  1  0  0  0
  7  8  2  0  0  0
  7 26  1  0  0  0
  7 29  1  0  0  0
  8  9  1  0  0  0
  8 22  1  0  0  0
  9 10  1  0  0  0
  9 27  2  0  0  0
 10 11  2  0  0  0
 10 15  1  0  0  0
 11 12  1  0  0  0
 11 98  1  0  0  0
 12 13  2  0  0  0
 12 99  1  0  0  0
 13 14  1  0  0  0
 13 31  1  0  0  0
 14 15  2  0  0  0
 14100  1  0  0  0
 15101  1  0  0  0
 16 17  2  0  0  0
 16 21  1  0  0  0
 16 31  1  0  0  0
 17 18  1  0  0  0
 17102  1  0  0  0
 18 19  2  0  0  0
 18103  1  0  0  0
 19 20  1  0  0  0
 19 24  1  0  0  0
 20 21  2  0  0  0
 20104  1  0  0  0
 21 23  1  0  0  0
 22 28  1  0  0  0
 22 32  2  0  0  0
 26 27  1  0  0  0
 28105  1  0  0  0
 28106  1  0  0  0
 29107  1  0  0  0
 29108  1  0  0  0
 33 34  1  0  0  0
 33 66  1  0  0  0
 33 70  2  0  0  0
 34 36  1  0  0  0
 34 59  1  0  0  0
 34109  1  0  0  0
 35 44  2  0  0  0
 35 45  1  0  0  0
 35 68  1  0  0  0
 36 56  1  0  0  0
 36110  1  0  0  0
 37 39  1  0  0  0
 37 47  1  0  0  0
 37 66  1  0  0  0
 37111  1  0  0  0
 38 43  2  0  0  0
 38 46  1  0  0  0
 38 47  1  0  0  0
 39 64  1  0  0  0
 39 67  2  0  0  0
 40 52  1  0  0  0
 40 53  2  0  0  0
 40 58  1  0  0  0
 41112  1  0  0  0
 41113  1  0  0  0
 41114  1  0  0  0
 41 48  1  0  0  0
 42 43  1  0  0  0
 42 66  1  0  0  0
 42115  1  0  0  0
 42116  1  0  0  0
 43 44  1  0  0  0
 44117  1  0  0  0
 45 46  2  0  0  0
 45118  1  0  0  0
 46119  1  0  0  0
 47120  1  0  0  0
 47121  1  0  0  0
 48 56  1  0  0  0
 48 65  1  0  0  0
 48122  1  0  0  0
 49 50  1  0  0  0
 49 53  1  0  0  0
 49 64  1  0  0  0
 49123  1  0  0  0
 50 51  1  0  0  0
 50124  1  0  0  0
 50125  1  0  0  0
 51 52  1  0  0  0
 51126  1  0  0  0
 51127  1  0  0  0
 52128  1  0  0  0
 52129  1  0  0  0
 53 54  1  0  0  0
 54 55  2  0  0  0
 54130  1  0  0  0
 55 57  1  0  0  0
 55131  1  0  0  0
 56 69  2  0  0  0
 57 58  2  0  0  0
 57132  1  0  0  0
 58133  1  0  0  0
 59 60  1  0  0  0
 59 61  1  0  0  0
 59 62  1  0  0  0
 60134  1  0  0  0
 60135  1  0  0  0
 60136  1  0  0  0
 61137  1  0  0  0
 61138  1  0  0  0
 61139  1  0  0  0
 62140  1  0  0  0
 62141  1  0  0  0
 62142  1  0  0  0
 63 65  1  0  0  0
 63143  1  0  0  0
 63144  1  0  0  0
 63145  1  0  0  0
 64146  1  0  0  0
 65147  1  0  0  0
 68 84  1  0  0  0
 71 72  2  0  0  0
 71 75  1  0  0  0
 71 86  1  0  0  0
 72 79  1  0  0  0
 72 87  1  0  0  0
 73 74  1  0  0  0
 73 78  1  0  0  0
 73 86  2  0  0  0
 74 80  1  0  0  0
 74 87  2  0  0  0
 75148  1  0  0  0
 75149  1  0  0  0
 75150  1  0  0  0
 76 78  1  0  0  0
 76151  1  0  0  0
 76152  1  0  0  0
 76153  1  0  0  0
 77154  1  0  0  0
 77155  1  0  0  0
 77156  1  0  0  0
 77 85  1  0  0  0
 78157  1  0  0  0
 78158  1  0  0  0
 79 81  1  0  0  0
 79159  1  0  0  0
 79160  1  0  0  0
 80 85  1  0  0  0
 80161  1  0  0  0
 80162  1  0  0  0
 81 82  1  0  0  0
 81163  1  0  0  0
 81164  1  0  0  0
 82 83  1  0  0  0
 82165  1  0  0  0
 82166  1  0  0  0
 83 84  1  0  0  0
 83167  1  0  0  0
 83168  1  0  0  0
 84169  1  0  0  0
 84170  1  0  0  0
 85 88  1  0  0  0
 85171  1  0  0  0
 88172  1  0  0  0
M  ISO  4   1 100  68 101  84 101  88 100
M  END
> <chiral flag>
0

> <version>
0

> <s_m_source_file>
/data/baiqing/PycharmProjects/Reinvent-master-3.2/result/LINK_invent/BTK/process_docking_weight1_custom_sum_contain_oxygen_bond_distance_aromatic_linkinvent_7_9_3/rearranged_h_0072.sdf

> <i_m_source_file_index>
96

> <r_mmod_Potential_Energy-OPLS-2005>
22230.3984375

> <r_mmod_Stretch_Energy-OPLS-2005>
13645.7294921875

> <r_mmod_Bend_Energy-OPLS-2005>
1674.54663085938

> <r_mmod_Torsional_Energy-OPLS-2005>
649.156005859375

> <r_mmod_Improper_Torsional_Energy-OPLS-2005>
49.4943809509277

> <r_mmod_Van_der_Waal_Energy-OPLS-2005>
4870.1513671875

> <r_mmod_Electrostatic_Energy-OPLS-2005>
-402.865356445312

> <r_mmod_Solvation_Energy-OPLS-2005>
-186.249145507812

> <b_mmod_Minimization_Converged-OPLS-2005>
0

> <r_mmod_RMS_Derivative-OPLS-2005>
11.2705869674683

$$$$
