0
                    3D
 Structure written by MMmdl.
174184  0  0  1  0            999 V2000
  -30.6937  -14.6227   20.5138 C   0  0  0  0  0  0
  -30.4147  -12.3966   19.4465 C   0  0  0  0  0  0
  -29.4960  -12.5291   18.2167 C   0  0  0  0  0  0
  -28.0196  -12.3747   18.6305 C   0  0  0  0  0  0
  -27.6506  -13.2312   19.8743 C   0  0  2  0  0  0
  -28.7026  -13.0787   20.9944 C   0  0  0  0  0  0
  -25.2543  -13.8196   20.5751 C   0  0  0  0  0  0
  -24.1820  -13.0436   20.9205 C   0  0  0  0  0  0
  -24.6396  -11.6913   20.8743 C   0  0  0  0  0  0
  -23.9057  -10.4292   21.0423 C   0  0  0  0  0  0
  -24.3605   -9.4200   21.9208 C   0  0  0  0  0  0
  -23.6294   -8.2242   22.0750 C   0  0  0  0  0  0
  -22.4270   -8.0283   21.3540 C   0  0  0  0  0  0
  -21.9908   -9.0255   20.4646 C   0  0  0  0  0  0
  -22.7243  -10.2139   20.3059 C   0  0  0  0  0  0
  -21.6848   -6.0737   22.5279 C   0  0  0  0  0  0
  -21.4007   -6.5625   23.8214 C   0  0  0  0  0  0
  -21.3660   -5.6773   24.9179 C   0  0  0  0  0  0
  -21.6054   -4.3043   24.7229 C   0  0  0  0  0  0
  -21.8813   -3.8141   23.4343 C   0  0  0  0  0  0
  -21.9198   -4.6963   22.3405 C   0  0  0  0  0  0
  -22.7843  -13.5237   21.1861 C   0  0  0  0  0  0
  -22.1686   -4.2150   21.0989 F   0  0  0  0  0  0
  -21.5619   -3.4524   25.7739 F   0  0  0  0  0  0
  -29.9973  -13.4416   20.4106 N   0  0  0  0  0  0
  -26.2993  -12.9395   20.3415 N   0  0  0  0  0  0
  -25.9330  -11.6536   20.5778 N   0  0  0  0  0  0
  -22.0465  -12.8232   22.0381 N   0  0  0  0  0  0
  -25.4219  -15.1913   20.4185 N   0  0  0  0  0  0
  -31.8872  -14.6269   20.1905 O   0  0  0  0  0  0
  -21.6628   -6.8883   21.4243 O   0  0  0  0  0  0
  -22.3561  -14.5559   20.6701 O   0  0  0  0  0  0
  -24.6259  -31.8604   23.2015 C   0  0  0  0  0  0
  -25.9109  -32.4787   23.8355 C   0  0  1  0  0  0
  -27.2255  -27.3281   20.1409 C   0  0  0  0  0  0
  -25.5928  -33.8577   24.2283 N   0  0  0  0  0  0
  -23.4193  -30.4835   21.5423 C   0  0  2  0  0  0
  -24.8664  -28.9339   20.1111 C   0  0  0  0  0  0
  -22.7480  -29.4629   22.4918 C   0  0  0  0  0  0
  -18.0288  -28.1393   22.8475 C   0  0  0  0  0  0
  -24.1472  -36.7281   23.2628 C   0  0  0  0  0  0
  -25.9570  -30.7954   21.3677 C   0  0  0  0  0  0
  -26.0325  -29.4224   20.7152 C   0  0  0  0  0  0
  -27.2162  -28.6322   20.7168 C   0  0  0  0  0  0
  -26.0430  -26.8839   19.5107 C   0  0  0  0  0  0
  -24.8734  -27.6706   19.4966 C   0  0  0  0  0  0
  -23.6360  -29.8160   20.1568 C   0  0  0  0  0  0
  -25.4078  -36.3073   24.0348 C   0  0  1  0  0  0
  -20.5890  -28.3691   23.1284 C   0  0  2  0  0  0
  -20.6768  -26.9416   22.5400 C   0  0  0  0  0  0
  -19.5750  -26.6395   21.5191 C   0  0  0  0  0  0
  -18.1933  -26.7940   22.1609 C   0  0  0  0  0  0
  -19.1539  -28.8859   23.2870 C   0  0  0  0  0  0
  -18.9457  -30.1453   23.8888 C   0  0  0  0  0  0
  -17.6460  -30.6596   24.0565 C   0  0  0  0  0  0
  -25.9053  -34.9466   23.5121 C   0  0  0  0  0  0
  -16.5351  -29.9097   23.6336 C   0  0  0  0  0  0
  -16.7277  -28.6516   23.0349 C   0  0  0  0  0  0
  -26.4492  -31.6586   25.0729 C   0  0  0  0  0  0
  -25.3747  -31.3722   26.1473 C   0  0  0  0  0  0
  -27.0315  -30.3016   24.6153 C   0  0  0  0  0  0
  -27.6077  -32.4300   25.7491 C   0  0  0  0  0  0
  -27.5603  -37.1732   24.8419 C   0  0  0  0  0  0
  -21.4192  -29.3042   22.3676 N   0  0  0  0  0  0
  -26.4224  -37.3809   23.9503 N   0  0  0  0  0  0
  -24.6863  -31.0641   22.0944 N   0  0  0  0  0  0
  -23.4219  -28.8163   23.2988 O   0  0  0  0  0  0
  -28.3442  -26.4930   20.2162 O   0  0  0  0  0  0
  -26.5620  -34.8951   22.4681 O   0  0  0  0  0  0
  -23.5421  -32.1383   23.7351 O   0  0  0  0  0  0
  -28.9406  -20.9786   22.5305 C   0  0  0  0  0  0
  -29.3603  -21.4339   20.4108 C   0  0  0  0  0  0
  -29.3037  -20.3653   21.2949 C   0  0  0  0  0  0
  -28.8998  -22.3462   22.3995 C   0  0  0  0  0  0
  -28.6744  -17.8093   21.6906 C   0  0  0  0  0  0
  -29.9677  -18.3426   19.7126 C   0  0  0  0  0  0
  -28.4873  -24.2233   19.2074 C   0  0  0  0  0  0
  -29.1368  -16.3008   21.6397 C   0  0  0  0  0  0
  -30.6638  -16.9496   19.7489 C   0  0  0  0  0  0
  -29.6717  -18.8488   21.1276 C   0  0  0  0  0  0
  -28.1029  -25.0481   20.4133 C   0  0  1  0  0  0
  -29.3073  -24.0493   20.4731 C   0  0  2  0  0  0
  -31.8673  -23.5683   20.5138 C   0  0  0  0  0  0
  -30.0290  -24.6939   25.1596 C   0  0  0  0  0  0
  -28.7438  -23.3745   23.4821 C   0  0  0  0  0  0
  -30.7296  -24.6007   20.6073 C   0  0  0  0  0  0
  -29.1289  -22.6671   21.0618 N   0  0  0  0  0  0
  -30.0210  -15.8421   20.5261 N   0  0  0  0  0  0
  -30.0606  -23.7347   24.0391 N   0  3  0  0  0  0
  -31.4600  -12.4818   19.1442 H   0  0  0  0  0  0
  -30.3233  -11.4027   19.8878 H   0  0  0  0  0  0
  -29.7550  -11.7879   17.4607 H   0  0  0  0  0  0
  -29.6498  -13.5054   17.7540 H   0  0  0  0  0  0
  -27.8438  -11.3190   18.8443 H   0  0  0  0  0  0
  -27.3673  -12.6305   17.7960 H   0  0  0  0  0  0
  -27.6694  -14.2706   19.5475 H   0  0  0  0  0  0
  -28.7282  -12.0509   21.3582 H   0  0  0  0  0  0
  -28.4686  -13.6701   21.8769 H   0  0  0  0  0  0
  -25.2749   -9.5686   22.4794 H   0  0  0  0  0  0
  -24.0001   -7.4615   22.7447 H   0  0  0  0  0  0
  -21.0839   -8.8775   19.8964 H   0  0  0  0  0  0
  -22.3699  -10.9667   19.6154 H   0  0  0  0  0  0
  -21.1984   -7.6131   23.9716 H   0  0  0  0  0  0
  -21.1499   -6.0508   25.9080 H   0  0  0  0  0  0
  -22.0589   -2.7609   23.2831 H   0  0  0  0  0  0
  -22.4046  -11.9870   22.4774 H   0  0  0  0  0  0
  -21.1092  -13.1296   22.2587 H   0  0  0  0  0  0
  -24.6515  -15.8393   20.5341 H   0  0  0  0  0  0
  -26.2772  -15.6367   20.1081 H   0  0  0  0  0  0
  -26.7170  -32.5465   23.1099 H   0  0  0  0  0  0
  -25.0090  -33.9712   25.0440 H   0  0  0  0  0  0
  -22.7112  -31.3021   21.3960 H   0  0  0  0  0  0
  -23.3807  -35.9535   23.3136 H   0  0  0  0  0  0
  -24.3604  -36.9038   22.2076 H   0  0  0  0  0  0
  -23.7116  -37.6391   23.6738 H   0  0  0  0  0  0
  -26.0816  -31.5505   20.5910 H   0  0  0  0  0  0
  -26.8415  -30.8515   21.9906 H   0  0  0  0  0  0
  -28.1103  -28.9966   21.2031 H   0  0  0  0  0  0
  -26.0088  -25.9100   19.0422 H   0  0  0  0  0  0
  -23.9806  -27.2879   19.0209 H   0  0  0  0  0  0
  -23.7643  -30.5895   19.3976 H   0  0  0  0  0  0
  -22.7545  -29.2491   19.8520 H   0  0  0  0  0  0
  -25.1211  -36.1894   25.0825 H   0  0  0  0  0  0
  -20.9990  -28.3264   24.1405 H   0  0  0  0  0  0
  -20.5645  -26.2307   23.3601 H   0  0  0  0  0  0
  -21.6641  -26.7444   22.1217 H   0  0  0  0  0  0
  -19.6919  -25.6298   21.1240 H   0  0  0  0  0  0
  -19.6706  -27.3181   20.6703 H   0  0  0  0  0  0
  -17.4207  -26.6680   21.4008 H   0  0  0  0  0  0
  -18.0344  -26.0092   22.9014 H   0  0  0  0  0  0
  -19.7925  -30.7244   24.2298 H   0  0  0  0  0  0
  -17.5022  -31.6274   24.5167 H   0  0  0  0  0  0
  -15.5352  -30.2992   23.7660 H   0  0  0  0  0  0
  -15.8679  -28.0838   22.7071 H   0  0  0  0  0  0
  -24.5867  -30.7134   25.7788 H   0  0  0  0  0  0
  -24.9007  -32.2899   26.4975 H   0  0  0  0  0  0
  -25.8091  -30.8822   27.0205 H   0  0  0  0  0  0
  -26.2855  -29.6781   24.1216 H   0  0  0  0  0  0
  -27.4039  -29.7258   25.4634 H   0  0  0  0  0  0
  -27.8720  -30.4283   23.9330 H   0  0  0  0  0  0
  -27.2721  -33.3617   26.2061 H   0  0  0  0  0  0
  -28.3903  -32.6825   25.0327 H   0  0  0  0  0  0
  -28.0741  -31.8423   26.5410 H   0  0  0  0  0  0
  -28.2416  -38.0230   24.7784 H   0  0  0  0  0  0
  -28.1284  -36.2790   24.5803 H   0  0  0  0  0  0
  -27.2413  -37.0859   25.8819 H   0  0  0  0  0  0
  -20.9387  -29.8751   21.6860 H   0  0  0  0  0  0
  -26.0093  -38.2833   24.1693 H   0  0  0  0  0  0
  -28.8176  -20.4618   23.4728 H   0  0  0  0  0  0
  -29.6288  -21.4456   19.3639 H   0  0  0  0  0  0
  -28.4317  -18.0591   22.7248 H   0  0  0  0  0  0
  -27.7334  -17.9058   21.1493 H   0  0  0  0  0  0
  -29.0560  -18.3027   19.1176 H   0  0  0  0  0  0
  -30.6311  -19.0457   19.2053 H   0  0  0  0  0  0
  -28.9633  -24.7275   18.3695 H   0  0  0  0  0  0
  -27.7991  -23.4278   18.9281 H   0  0  0  0  0  0
  -28.2196  -15.7179   21.6286 H   0  0  0  0  0  0
  -29.6468  -16.0664   22.5765 H   0  0  0  0  0  0
  -31.6591  -17.1135   20.1686 H   0  0  0  0  0  0
  -30.8272  -16.6133   18.7242 H   0  0  0  0  0  0
  -30.5926  -18.7432   21.7050 H   0  0  0  0  0  0
  -27.1988  -24.8022   20.9688 H   0  0  0  0  0  0
  -32.8388  -24.0636   20.4928 H   0  0  0  0  0  0
  -31.7890  -22.9711   19.6059 H   0  0  0  0  0  0
  -31.8716  -22.8885   21.3663 H   0  0  0  0  0  0
  -31.0470  -24.9395   25.4650 H   0  0  0  0  0  0
  -29.5133  -24.2731   26.0227 H   0  0  0  0  0  0
  -29.5278  -25.6208   24.8799 H   0  0  0  0  0  0
  -28.1203  -22.9733   24.2827 H   0  0  0  0  0  0
  -28.2320  -24.2628   23.1142 H   0  0  0  0  0  0
  -30.8059  -25.1321   21.5560 H   0  0  0  0  0  0
  -30.8754  -25.3567   19.8349 H   0  0  0  0  0  0
  -30.5081  -22.8888   24.3530 H   0  0  0  0  0  0
  -30.6230  -24.1221   23.3011 H   0  0  0  0  0  0
  1 25  1  0  0  0
  1 30  2  0  0  0
  1 88  1  0  0  0
  2  3  1  0  0  0
  2 25  1  0  0  0
  2 90  1  0  0  0
  2 91  1  0  0  0
  3  4  1  0  0  0
  3 92  1  0  0  0
  3 93  1  0  0  0
  4  5  1  0  0  0
  4 94  1  0  0  0
  4 95  1  0  0  0
  5  6  1  0  0  0
  5 26  1  0  0  0
  5 96  1  0  0  0
  6 25  1  0  0  0
  6 97  1  0  0  0
  6 98  1  0  0  0
  7  8  2  0  0  0
  7 26  1  0  0  0
  7 29  1  0  0  0
  8  9  1  0  0  0
  8 22  1  0  0  0
  9 10  1  0  0  0
  9 27  2  0  0  0
 10 11  2  0  0  0
 10 15  1  0  0  0
 11 12  1  0  0  0
 11 99  1  0  0  0
 12 13  2  0  0  0
 12100  1  0  0  0
 13 14  1  0  0  0
 13 31  1  0  0  0
 14 15  2  0  0  0
 14101  1  0  0  0
 15102  1  0  0  0
 16 17  2  0  0  0
 16 21  1  0  0  0
 16 31  1  0  0  0
 17 18  1  0  0  0
 17103  1  0  0  0
 18 19  2  0  0  0
 18104  1  0  0  0
 19 20  1  0  0  0
 19 24  1  0  0  0
 20 21  2  0  0  0
 20105  1  0  0  0
 21 23  1  0  0  0
 22 28  1  0  0  0
 22 32  2  0  0  0
 26 27  1  0  0  0
 28106  1  0  0  0
 28107  1  0  0  0
 29108  1  0  0  0
 29109  1  0  0  0
 33 34  1  0  0  0
 33 66  1  0  0  0
 33 70  2  0  0  0
 34 36  1  0  0  0
 34 59  1  0  0  0
 34110  1  0  0  0
 35 44  2  0  0  0
 35 45  1  0  0  0
 35 68  1  0  0  0
 36 56  1  0  0  0
 36111  1  0  0  0
 37 39  1  0  0  0
 37 47  1  0  0  0
 37 66  1  0  0  0
 37112  1  0  0  0
 38 43  2  0  0  0
 38 46  1  0  0  0
 38 47  1  0  0  0
 39 64  1  0  0  0
 39 67  2  0  0  0
 40 52  1  0  0  0
 40 53  2  0  0  0
 40 58  1  0  0  0
 41113  1  0  0  0
 41114  1  0  0  0
 41115  1  0  0  0
 41 48  1  0  0  0
 42 43  1  0  0  0
 42 66  1  0  0  0
 42116  1  0  0  0
 42117  1  0  0  0
 43 44  1  0  0  0
 44118  1  0  0  0
 45 46  2  0  0  0
 45119  1  0  0  0
 46120  1  0  0  0
 47121  1  0  0  0
 47122  1  0  0  0
 48 56  1  0  0  0
 48 65  1  0  0  0
 48123  1  0  0  0
 49 50  1  0  0  0
 49 53  1  0  0  0
 49 64  1  0  0  0
 49124  1  0  0  0
 50 51  1  0  0  0
 50125  1  0  0  0
 50126  1  0  0  0
 51 52  1  0  0  0
 51127  1  0  0  0
 51128  1  0  0  0
 52129  1  0  0  0
 52130  1  0  0  0
 53 54  1  0  0  0
 54 55  2  0  0  0
 54131  1  0  0  0
 55 57  1  0  0  0
 55132  1  0  0  0
 56 69  2  0  0  0
 57 58  2  0  0  0
 57133  1  0  0  0
 58134  1  0  0  0
 59 60  1  0  0  0
 59 61  1  0  0  0
 59 62  1  0  0  0
 60135  1  0  0  0
 60136  1  0  0  0
 60137  1  0  0  0
 61138  1  0  0  0
 61139  1  0  0  0
 61140  1  0  0  0
 62141  1  0  0  0
 62142  1  0  0  0
 62143  1  0  0  0
 63 65  1  0  0  0
 63144  1  0  0  0
 63145  1  0  0  0
 63146  1  0  0  0
 64147  1  0  0  0
 65148  1  0  0  0
 68 81  1  0  0  0
 71 73  1  0  0  0
 71 74  2  0  0  0
 71149  1  0  0  0
 72 73  2  0  0  0
 72 87  1  0  0  0
 72150  1  0  0  0
 73 80  1  0  0  0
 74 85  1  0  0  0
 74 87  1  0  0  0
 75 78  1  0  0  0
 75 80  1  0  0  0
 75151  1  0  0  0
 75152  1  0  0  0
 76 79  1  0  0  0
 76 80  1  0  0  0
 76153  1  0  0  0
 76154  1  0  0  0
 77 81  1  0  0  0
 77 82  1  0  0  0
 77155  1  0  0  0
 77156  1  0  0  0
 78 88  1  0  0  0
 78157  1  0  0  0
 78158  1  0  0  0
 79 88  1  0  0  0
 79159  1  0  0  0
 79160  1  0  0  0
 80161  1  0  0  0
 81 82  1  0  0  0
 81162  1  0  0  0
 82 86  1  0  0  0
 82 87  1  0  0  0
 83 86  1  0  0  0
 83163  1  0  0  0
 83164  1  0  0  0
 83165  1  0  0  0
 84 89  1  0  0  0
 84166  1  0  0  0
 84167  1  0  0  0
 84168  1  0  0  0
 85 89  1  0  0  0
 85169  1  0  0  0
 85170  1  0  0  0
 86171  1  0  0  0
 86172  1  0  0  0
 89173  1  0  0  0
 89174  1  0  0  0
M  CHG  1  89   1
M  ISO  4   1 100  68 101  81 101  88 100
M  END
> <chiral flag>
0

> <version>
0

> <s_m_source_file>
/data/baiqing/PycharmProjects/Reinvent-master-3.2/result/LINK_invent/BTK/process_docking_weight1_custom_sum_contain_oxygen_bond_distance_aromatic_linkinvent_7_9_3/rearranged_h_0175.sdf

> <i_m_source_file_index>
1

> <r_mmod_Potential_Energy-OPLS-2005>
143.599136352539

> <r_mmod_Stretch_Energy-OPLS-2005>
79.8588180541992

> <r_mmod_Bend_Energy-OPLS-2005>
169.352310180664

> <r_mmod_Torsional_Energy-OPLS-2005>
396.067047119141

> <r_mmod_Improper_Torsional_Energy-OPLS-2005>
17.185640335083

> <r_mmod_Van_der_Waal_Energy-OPLS-2005>
117.623100280762

> <r_mmod_Electrostatic_Energy-OPLS-2005>
-246.003021240234

> <r_mmod_Solvation_Energy-OPLS-2005>
-438.3466796875

> <b_mmod_Minimization_Converged-OPLS-2005>
0

> <r_mmod_RMS_Derivative-OPLS-2005>
3.34211564064026

$$$$
1
                    3D
 Structure written by MMmdl.
164173  0  0  1  0            999 V2000
  -30.7079  -14.5156   20.6018 C   0  0  0  0  0  0
  -30.4237  -12.3449   19.4314 C   0  0  0  0  0  0
  -29.4909  -12.4756   18.2103 C   0  0  0  0  0  0
  -28.0213  -12.3123   18.6400 C   0  0  0  0  0  0
  -27.6523  -13.2035   19.8539 C   0  0  2  0  0  0
  -28.6894  -13.0442   20.9856 C   0  0  0  0  0  0
  -25.2540  -13.8136   20.5662 C   0  0  0  0  0  0
  -24.1783  -13.0432   20.9166 C   0  0  0  0  0  0
  -24.6326  -11.6891   20.8689 C   0  0  0  0  0  0
  -23.8982  -10.4283   21.0413 C   0  0  0  0  0  0
  -24.3583   -9.4204   21.9164 C   0  0  0  0  0  0
  -23.6287   -8.2230   22.0741 C   0  0  0  0  0  0
  -22.4252   -8.0263   21.3560 C   0  0  0  0  0  0
  -21.9846   -9.0236   20.4689 C   0  0  0  0  0  0
  -22.7151  -10.2125   20.3089 C   0  0  0  0  0  0
  -21.6853   -6.0723   22.5270 C   0  0  0  0  0  0
  -21.4033   -6.5632   23.8208 C   0  0  0  0  0  0
  -21.3656   -5.6781   24.9159 C   0  0  0  0  0  0
  -21.6036   -4.3038   24.7229 C   0  0  0  0  0  0
  -21.8808   -3.8132   23.4343 C   0  0  0  0  0  0
  -21.9191   -4.6945   22.3400 C   0  0  0  0  0  0
  -22.7810  -13.5256   21.1853 C   0  0  0  0  0  0
  -22.1660   -4.2136   21.0972 F   0  0  0  0  0  0
  -21.5624   -3.4526   25.7737 F   0  0  0  0  0  0
  -30.0156  -13.3526   20.4249 N   0  0  0  0  0  0
  -26.2944  -12.9313   20.3250 N   0  0  0  0  0  0
  -25.9241  -11.6472   20.5693 N   0  0  0  0  0  0
  -22.0466  -12.8290   22.0453 N   0  0  0  0  0  0
  -25.4252  -15.1861   20.4147 N   0  0  0  0  0  0
  -31.8438  -14.6861   20.1538 O   0  0  0  0  0  0
  -21.6626   -6.8856   21.4235 O   0  0  0  0  0  0
  -22.3482  -14.5553   20.6669 O   0  0  0  0  0  0
  -24.6125  -31.8698   23.2134 C   0  0  0  0  0  0
  -25.8992  -32.4853   23.8438 C   0  0  1  0  0  0
  -27.2148  -27.4029   20.1087 C   0  0  0  0  0  0
  -25.5805  -33.8648   24.2315 N   0  0  0  0  0  0
  -23.4039  -30.4982   21.5518 C   0  0  2  0  0  0
  -24.8438  -28.9616   20.1194 C   0  0  0  0  0  0
  -22.7396  -29.4674   22.4952 C   0  0  0  0  0  0
  -18.0284  -28.1383   22.8490 C   0  0  0  0  0  0
  -24.1452  -36.7338   23.2660 C   0  0  0  0  0  0
  -25.9398  -30.8197   21.3840 C   0  0  0  0  0  0
  -26.0093  -29.4585   20.7153 C   0  0  0  0  0  0
  -27.1955  -28.6859   20.7045 C   0  0  0  0  0  0
  -26.0230  -26.9216   19.5157 C   0  0  0  0  0  0
  -24.8411  -27.6868   19.5288 C   0  0  0  0  0  0
  -23.6161  -29.8435   20.1646 C   0  0  0  0  0  0
  -25.4079  -36.3144   24.0346 C   0  0  1  0  0  0
  -20.5871  -28.3674   23.1311 C   0  0  2  0  0  0
  -20.6753  -26.9388   22.5471 C   0  0  0  0  0  0
  -19.5758  -26.6391   21.5232 C   0  0  0  0  0  0
  -18.1918  -26.7941   22.1600 C   0  0  0  0  0  0
  -19.1529  -28.8832   23.2913 C   0  0  0  0  0  0
  -18.9458  -30.1429   23.8949 C   0  0  0  0  0  0
  -17.6462  -30.6575   24.0596 C   0  0  0  0  0  0
  -25.9009  -34.9507   23.5141 C   0  0  0  0  0  0
  -16.5357  -29.9100   23.6324 C   0  0  0  0  0  0
  -16.7276  -28.6519   23.0335 C   0  0  0  0  0  0
  -26.4373  -31.6689   25.0816 C   0  0  0  0  0  0
  -25.3585  -31.4006   26.1577 C   0  0  0  0  0  0
  -27.0175  -30.3055   24.6370 C   0  0  0  0  0  0
  -27.5964  -32.4460   25.7489 C   0  0  0  0  0  0
  -27.5585  -37.1805   24.8416 C   0  0  0  0  0  0
  -21.4126  -29.3027   22.3664 N   0  0  0  0  0  0
  -26.4268  -37.3817   23.9407 N   0  0  0  0  0  0
  -24.6702  -31.0761   22.1073 N   0  0  0  0  0  0
  -23.4166  -28.8229   23.2997 O   0  0  0  0  0  0
  -28.3840  -26.6560   20.1419 O   0  0  0  0  0  0
  -26.5625  -34.8937   22.4737 O   0  0  0  0  0  0
  -23.5292  -32.1488   23.7463 O   0  0  0  0  0  0
  -31.5212  -18.7037   20.7745 C   0  0  0  0  0  0
  -30.5025  -18.0829   21.5237 C   0  0  0  0  0  0
  -29.4666  -18.9523   21.9402 C   0  0  0  0  0  0
  -30.5018  -20.7579   20.9490 C   0  0  0  0  0  0
  -29.5152  -22.9570   19.8725 C   0  0  0  0  0  0
  -30.4789  -23.1124   22.0478 C   0  0  0  0  0  0
  -30.5697  -22.2872   20.7596 C   0  0  1  0  0  0
  -29.5919  -24.4635   20.2544 C   0  0  1  0  0  0
  -28.3497  -18.5265   22.8698 C   0  0  0  0  0  0
  -31.4363  -25.3422   21.6656 C   0  0  0  0  0  0
  -30.6709  -16.6186   22.0056 C   0  0  0  0  0  0
  -28.2377  -25.2210   20.1499 C   0  0  0  0  0  0
  -31.5215  -20.0288   20.5031 N   0  0  0  0  0  0
  -29.4656  -20.2667   21.6203 N   0  0  0  0  0  0
  -30.0506  -15.5062   21.2504 N   0  0  0  0  0  0
  -30.2108  -24.5115   21.6155 N   0  3  2  0  0  0
  -31.4672  -12.4516   19.1323 H   0  0  0  0  0  0
  -30.3420  -11.3494   19.8706 H   0  0  0  0  0  0
  -29.7422  -11.7219   17.4613 H   0  0  0  0  0  0
  -29.6303  -13.4423   17.7230 H   0  0  0  0  0  0
  -27.8798  -11.2640   18.9094 H   0  0  0  0  0  0
  -27.3491  -12.5035   17.8040 H   0  0  0  0  0  0
  -27.6818  -14.2360   19.5023 H   0  0  0  0  0  0
  -28.6792  -12.0257   21.3778 H   0  0  0  0  0  0
  -28.4279  -13.6790   21.8334 H   0  0  0  0  0  0
  -25.2753   -9.5676   22.4682 H   0  0  0  0  0  0
  -24.0022   -7.4608   22.7407 H   0  0  0  0  0  0
  -21.0769   -8.8738   19.9020 H   0  0  0  0  0  0
  -22.3572  -10.9664   19.6195 H   0  0  0  0  0  0
  -21.2050   -7.6146   23.9704 H   0  0  0  0  0  0
  -21.1487   -6.0518   25.9063 H   0  0  0  0  0  0
  -22.0596   -2.7596   23.2828 H   0  0  0  0  0  0
  -22.4128  -12.0032   22.4950 H   0  0  0  0  0  0
  -21.1101  -13.1346   22.2709 H   0  0  0  0  0  0
  -24.6524  -15.8336   20.5334 H   0  0  0  0  0  0
  -26.2755  -15.6328   20.0957 H   0  0  0  0  0  0
  -26.7073  -32.5542   23.1215 H   0  0  0  0  0  0
  -24.9755  -33.9835   25.0314 H   0  0  0  0  0  0
  -22.6948  -31.3183   21.4189 H   0  0  0  0  0  0
  -23.3713  -35.9674   23.3341 H   0  0  0  0  0  0
  -24.3532  -36.8952   22.2075 H   0  0  0  0  0  0
  -23.7215  -37.6531   23.6691 H   0  0  0  0  0  0
  -26.0759  -31.5988   20.6339 H   0  0  0  0  0  0
  -26.8156  -30.8491   22.0220 H   0  0  0  0  0  0
  -28.0938  -29.0497   21.1803 H   0  0  0  0  0  0
  -25.9720  -25.9520   19.0429 H   0  0  0  0  0  0
  -23.9285  -27.2922   19.1043 H   0  0  0  0  0  0
  -23.7432  -30.6312   19.4193 H   0  0  0  0  0  0
  -22.7335  -29.2826   19.8509 H   0  0  0  0  0  0
  -25.1257  -36.2016   25.0838 H   0  0  0  0  0  0
  -20.9997  -28.3297   24.1415 H   0  0  0  0  0  0
  -20.5583  -26.2303   23.3690 H   0  0  0  0  0  0
  -21.6644  -26.7374   22.1333 H   0  0  0  0  0  0
  -19.6924  -25.6310   21.1233 H   0  0  0  0  0  0
  -19.6728  -27.3229   20.6785 H   0  0  0  0  0  0
  -17.4218  -26.6746   21.3965 H   0  0  0  0  0  0
  -18.0259  -26.0065   22.8961 H   0  0  0  0  0  0
  -19.7937  -30.7217   24.2366 H   0  0  0  0  0  0
  -17.5025  -31.6245   24.5226 H   0  0  0  0  0  0
  -15.5360  -30.3014   23.7612 H   0  0  0  0  0  0
  -15.8682  -28.0860   22.7000 H   0  0  0  0  0  0
  -24.5754  -30.7296   25.8030 H   0  0  0  0  0  0
  -24.8754  -32.3255   26.4747 H   0  0  0  0  0  0
  -25.7872  -30.9440   27.0510 H   0  0  0  0  0  0
  -26.2832  -29.6919   24.1145 H   0  0  0  0  0  0
  -27.3477  -29.7227   25.4981 H   0  0  0  0  0  0
  -27.8855  -30.4233   23.9890 H   0  0  0  0  0  0
  -27.2524  -33.3677   26.2191 H   0  0  0  0  0  0
  -28.3604  -32.7205   25.0207 H   0  0  0  0  0  0
  -28.0842  -31.8581   26.5268 H   0  0  0  0  0  0
  -28.2624  -38.0073   24.7410 H   0  0  0  0  0  0
  -28.1043  -36.2611   24.6228 H   0  0  0  0  0  0
  -27.2356  -37.1486   25.8834 H   0  0  0  0  0  0
  -20.9264  -29.8723   21.6877 H   0  0  0  0  0  0
  -26.0170  -38.2892   24.1417 H   0  0  0  0  0  0
  -32.3901  -18.1463   20.4565 H   0  0  0  0  0  0
  -28.5337  -22.5361   20.1005 H   0  0  0  0  0  0
  -29.7128  -22.7937   18.8136 H   0  0  0  0  0  0
  -31.3766  -23.0107   22.6603 H   0  0  0  0  0  0
  -29.6371  -22.7665   22.6514 H   0  0  0  0  0  0
  -31.5445  -22.5102   20.3159 H   0  0  0  0  0  0
  -30.2620  -24.9392   19.5344 H   0  0  0  0  0  0
  -27.6227  -17.9005   22.3524 H   0  0  0  0  0  0
  -27.8253  -19.3930   23.2771 H   0  0  0  0  0  0
  -28.7489  -17.9785   23.7210 H   0  0  0  0  0  0
  -31.7689  -25.4588   22.6981 H   0  0  0  0  0  0
  -31.2632  -26.3356   21.2521 H   0  0  0  0  0  0
  -32.2438  -24.8717   21.0995 H   0  0  0  0  0  0
  -30.2920  -16.5434   23.0255 H   0  0  0  0  0  0
  -31.7404  -16.4247   22.1156 H   0  0  0  0  0  0
  -27.5523  -24.9151   20.9443 H   0  0  0  0  0  0
  -27.7926  -24.9119   19.2070 H   0  0  0  0  0  0
  -29.0860  -15.2993   21.4634 H   0  0  0  0  0  0
  -29.5586  -24.9258   22.2692 H   0  0  0  0  0  0
  1 25  1  0  0  0
  1 30  2  0  0  0
  1 85  1  0  0  0
  2  3  1  0  0  0
  2 25  1  0  0  0
  2 87  1  0  0  0
  2 88  1  0  0  0
  3  4  1  0  0  0
  3 89  1  0  0  0
  3 90  1  0  0  0
  4  5  1  0  0  0
  4 91  1  0  0  0
  4 92  1  0  0  0
  5  6  1  0  0  0
  5 26  1  0  0  0
  5 93  1  0  0  0
  6 25  1  0  0  0
  6 94  1  0  0  0
  6 95  1  0  0  0
  7  8  2  0  0  0
  7 26  1  0  0  0
  7 29  1  0  0  0
  8  9  1  0  0  0
  8 22  1  0  0  0
  9 10  1  0  0  0
  9 27  2  0  0  0
 10 11  2  0  0  0
 10 15  1  0  0  0
 11 12  1  0  0  0
 11 96  1  0  0  0
 12 13  2  0  0  0
 12 97  1  0  0  0
 13 14  1  0  0  0
 13 31  1  0  0  0
 14 15  2  0  0  0
 14 98  1  0  0  0
 15 99  1  0  0  0
 16 17  2  0  0  0
 16 21  1  0  0  0
 16 31  1  0  0  0
 17 18  1  0  0  0
 17100  1  0  0  0
 18 19  2  0  0  0
 18101  1  0  0  0
 19 20  1  0  0  0
 19 24  1  0  0  0
 20 21  2  0  0  0
 20102  1  0  0  0
 21 23  1  0  0  0
 22 28  1  0  0  0
 22 32  2  0  0  0
 26 27  1  0  0  0
 28103  1  0  0  0
 28104  1  0  0  0
 29105  1  0  0  0
 29106  1  0  0  0
 33 34  1  0  0  0
 33 66  1  0  0  0
 33 70  2  0  0  0
 34 36  1  0  0  0
 34 59  1  0  0  0
 34107  1  0  0  0
 35 44  2  0  0  0
 35 45  1  0  0  0
 35 68  1  0  0  0
 36 56  1  0  0  0
 36108  1  0  0  0
 37 39  1  0  0  0
 37 47  1  0  0  0
 37 66  1  0  0  0
 37109  1  0  0  0
 38 43  2  0  0  0
 38 46  1  0  0  0
 38 47  1  0  0  0
 39 64  1  0  0  0
 39 67  2  0  0  0
 40 52  1  0  0  0
 40 53  2  0  0  0
 40 58  1  0  0  0
 41110  1  0  0  0
 41111  1  0  0  0
 41112  1  0  0  0
 41 48  1  0  0  0
 42 43  1  0  0  0
 42 66  1  0  0  0
 42113  1  0  0  0
 42114  1  0  0  0
 43 44  1  0  0  0
 44115  1  0  0  0
 45 46  2  0  0  0
 45116  1  0  0  0
 46117  1  0  0  0
 47118  1  0  0  0
 47119  1  0  0  0
 48 56  1  0  0  0
 48 65  1  0  0  0
 48120  1  0  0  0
 49 50  1  0  0  0
 49 53  1  0  0  0
 49 64  1  0  0  0
 49121  1  0  0  0
 50 51  1  0  0  0
 50122  1  0  0  0
 50123  1  0  0  0
 51 52  1  0  0  0
 51124  1  0  0  0
 51125  1  0  0  0
 52126  1  0  0  0
 52127  1  0  0  0
 53 54  1  0  0  0
 54 55  2  0  0  0
 54128  1  0  0  0
 55 57  1  0  0  0
 55129  1  0  0  0
 56 69  2  0  0  0
 57 58  2  0  0  0
 57130  1  0  0  0
 58131  1  0  0  0
 59 60  1  0  0  0
 59 61  1  0  0  0
 59 62  1  0  0  0
 60132  1  0  0  0
 60133  1  0  0  0
 60134  1  0  0  0
 61135  1  0  0  0
 61136  1  0  0  0
 61137  1  0  0  0
 62138  1  0  0  0
 62139  1  0  0  0
 62140  1  0  0  0
 63 65  1  0  0  0
 63141  1  0  0  0
 63142  1  0  0  0
 63143  1  0  0  0
 64144  1  0  0  0
 65145  1  0  0  0
 68 82  1  0  0  0
 71 72  2  0  0  0
 71 83  1  0  0  0
 71146  1  0  0  0
 72 73  1  0  0  0
 72 81  1  0  0  0
 73 79  1  0  0  0
 73 84  2  0  0  0
 74 83  2  0  0  0
 74 84  1  0  0  0
 74 77  1  0  0  0
 75 77  1  0  0  0
 75 78  1  0  0  0
 75147  1  0  0  0
 75148  1  0  0  0
 76 77  1  0  0  0
 76 86  1  0  0  0
 76149  1  0  0  0
 76150  1  0  0  0
 77151  1  0  0  0
 78 82  1  0  0  0
 78 86  1  0  0  0
 78152  1  0  0  0
 79153  1  0  0  0
 79154  1  0  0  0
 79155  1  0  0  0
 80156  1  0  0  0
 80157  1  0  0  0
 80158  1  0  0  0
 80 86  1  0  0  0
 81 85  1  0  0  0
 81159  1  0  0  0
 81160  1  0  0  0
 82161  1  0  0  0
 82162  1  0  0  0
 85163  1  0  0  0
 86164  1  0  0  0
M  CHG  1  86   1
M  ISO  4   1 100  68 101  82 101  85 100
M  END
> <chiral flag>
0

> <version>
0

> <s_m_source_file>
/data/baiqing/PycharmProjects/Reinvent-master-3.2/result/LINK_invent/BTK/process_docking_weight1_custom_sum_contain_oxygen_bond_distance_aromatic_linkinvent_7_9_3/rearranged_h_0175.sdf

> <i_m_source_file_index>
2

> <r_mmod_Potential_Energy-OPLS-2005>
-424.728973388672

> <r_mmod_Stretch_Energy-OPLS-2005>
42.5277862548828

> <r_mmod_Bend_Energy-OPLS-2005>
135.252029418945

> <r_mmod_Torsional_Energy-OPLS-2005>
263.759643554688

> <r_mmod_Improper_Torsional_Energy-OPLS-2005>
4.21032619476318

> <r_mmod_Van_der_Waal_Energy-OPLS-2005>
158.28630065918

> <r_mmod_Electrostatic_Energy-OPLS-2005>
-612.501342773438

> <r_mmod_Solvation_Energy-OPLS-2005>
-439.169250488281

> <b_mmod_Minimization_Converged-OPLS-2005>
0

> <r_mmod_RMS_Derivative-OPLS-2005>
5.46545124053955

$$$$
2
                    3D
 Structure written by MMmdl.
170180  0  0  1  0            999 V2000
  -30.6268  -14.6855   20.4614 C   0  0  0  0  0  0
  -30.4289  -12.4107   19.4723 C   0  0  0  0  0  0
  -29.5072  -12.4989   18.2351 C   0  0  0  0  0  0
  -28.0324  -12.3334   18.6500 C   0  0  0  0  0  0
  -27.6475  -13.2256   19.8600 C   0  0  2  0  0  0
  -28.6934  -13.1267   20.9953 C   0  0  0  0  0  0
  -25.2527  -13.8188   20.5709 C   0  0  0  0  0  0
  -24.1807  -13.0438   20.9203 C   0  0  0  0  0  0
  -24.6387  -11.6906   20.8752 C   0  0  0  0  0  0
  -23.9059  -10.4288   21.0406 C   0  0  0  0  0  0
  -24.3611   -9.4202   21.9178 C   0  0  0  0  0  0
  -23.6291   -8.2238   22.0752 C   0  0  0  0  0  0
  -22.4274   -8.0278   21.3543 C   0  0  0  0  0  0
  -21.9907   -9.0242   20.4636 C   0  0  0  0  0  0
  -22.7234  -10.2129   20.3049 C   0  0  0  0  0  0
  -21.6845   -6.0730   22.5276 C   0  0  0  0  0  0
  -21.4000   -6.5633   23.8208 C   0  0  0  0  0  0
  -21.3664   -5.6790   24.9173 C   0  0  0  0  0  0
  -21.6055   -4.3056   24.7222 C   0  0  0  0  0  0
  -21.8820   -3.8141   23.4342 C   0  0  0  0  0  0
  -21.9188   -4.6956   22.3399 C   0  0  0  0  0  0
  -22.7832  -13.5217   21.1867 C   0  0  0  0  0  0
  -22.1661   -4.2139   21.0975 F   0  0  0  0  0  0
  -21.5636   -3.4541   25.7737 F   0  0  0  0  0  0
  -30.0029  -13.4615   20.4210 N   0  0  0  0  0  0
  -26.2960  -12.9381   20.3333 N   0  0  0  0  0  0
  -25.9321  -11.6528   20.5781 N   0  0  0  0  0  0
  -22.0481  -12.8191   22.0421 N   0  0  0  0  0  0
  -25.4226  -15.1909   20.4110 N   0  0  0  0  0  0
  -31.8000  -14.8001   20.0972 O   0  0  0  0  0  0
  -21.6639   -6.8878   21.4239 O   0  0  0  0  0  0
  -22.3502  -14.5519   20.6720 O   0  0  0  0  0  0
  -24.6279  -31.8541   23.1980 C   0  0  0  0  0  0
  -25.9112  -32.4721   23.8315 C   0  0  1  0  0  0
  -27.2379  -27.2772   20.1345 C   0  0  0  0  0  0
  -25.5900  -33.8525   24.2235 N   0  0  0  0  0  0
  -23.4234  -30.4720   21.5427 C   0  0  2  0  0  0
  -24.8732  -28.9127   20.1179 C   0  0  0  0  0  0
  -22.7455  -29.4588   22.4968 C   0  0  0  0  0  0
  -18.0275  -28.1374   22.8477 C   0  0  0  0  0  0
  -24.1488  -36.7274   23.2644 C   0  0  0  0  0  0
  -25.9651  -30.7732   21.3739 C   0  0  0  0  0  0
  -26.0399  -29.3945   20.7215 C   0  0  0  0  0  0
  -27.2185  -28.5885   20.7162 C   0  0  0  0  0  0
  -26.0423  -26.8443   19.5231 C   0  0  0  0  0  0
  -24.8792  -27.6445   19.5104 C   0  0  0  0  0  0
  -23.6391  -29.7937   20.1629 C   0  0  0  0  0  0
  -25.4105  -36.3034   24.0322 C   0  0  1  0  0  0
  -20.5865  -28.3676   23.1299 C   0  0  2  0  0  0
  -20.6753  -26.9404   22.5415 C   0  0  0  0  0  0
  -19.5728  -26.6387   21.5202 C   0  0  0  0  0  0
  -18.1916  -26.7918   22.1611 C   0  0  0  0  0  0
  -19.1525  -28.8848   23.2872 C   0  0  0  0  0  0
  -18.9446  -30.1455   23.8881 C   0  0  0  0  0  0
  -17.6448  -30.6576   24.0562 C   0  0  0  0  0  0
  -25.9051  -34.9408   23.5086 C   0  0  0  0  0  0
  -16.5342  -29.9077   23.6339 C   0  0  0  0  0  0
  -16.7262  -28.6501   23.0350 C   0  0  0  0  0  0
  -26.4499  -31.6543   25.0701 C   0  0  0  0  0  0
  -25.3735  -31.3636   26.1426 C   0  0  0  0  0  0
  -27.0385  -30.2973   24.6179 C   0  0  0  0  0  0
  -27.6063  -32.4291   25.7448 C   0  0  0  0  0  0
  -27.5582  -37.1749   24.8443 C   0  0  0  0  0  0
  -21.4174  -29.3019   22.3683 N   0  0  0  0  0  0
  -26.4263  -37.3746   23.9432 N   0  0  0  0  0  0
  -24.6908  -31.0515   22.0947 N   0  0  0  0  0  0
  -23.4166  -28.8176   23.3090 O   0  0  0  0  0  0
  -28.4113  -26.4973   20.1694 O   0  0  0  0  0  0
  -26.5636  -34.8885   22.4664 O   0  0  0  0  0  0
  -23.5435  -32.1366   23.7280 O   0  0  0  0  0  0
  -28.8610  -19.6342   23.0344 C   0  0  0  0  0  0
  -28.6720  -20.8887   22.4190 C   0  0  0  0  0  0
  -28.8852  -21.0500   21.0124 C   0  0  0  0  0  0
  -29.2857  -18.4838   22.3580 C   0  0  0  0  0  0
  -29.3756  -19.8433   20.3205 C   0  0  0  0  0  0
  -29.5596  -18.5366   20.9702 C   0  0  0  0  0  0
  -29.1433  -22.9563   23.9960 C   0  0  0  0  0  0
  -28.3766  -21.9784   24.8394 C   0  0  0  0  0  0
  -28.6980  -22.8275   18.8630 C   0  0  0  0  0  0
  -28.1617  -24.2745   18.6563 C   0  0  0  0  0  0
  -28.5729  -23.8917   21.0215 C   0  0  0  0  0  0
  -28.1798  -21.9917   23.3289 C   0  0  0  0  0  0
  -28.3979  -22.4522   20.3368 C   0  0  2  0  0  0
  -28.6079  -25.0270   19.9195 C   0  0  2  0  0  0
  -29.4425  -17.2237   23.1968 C   0  0  0  0  0  0
  -29.7270  -19.9356   18.8404 C   0  0  0  0  0  0
  -30.0976  -17.2264   20.2180 C   0  0  0  0  0  0
  -29.8448  -15.7983   20.6777 N   0  0  0  0  0  0
  -31.4726  -12.5173   19.1723 H   0  0  0  0  0  0
  -30.3516  -11.4267   19.9381 H   0  0  0  0  0  0
  -29.7754  -11.7328   17.5067 H   0  0  0  0  0  0
  -29.6457  -13.4589   17.7360 H   0  0  0  0  0  0
  -27.8825  -11.2842   18.9089 H   0  0  0  0  0  0
  -27.3733  -12.5330   17.8054 H   0  0  0  0  0  0
  -27.6535  -14.2520   19.4937 H   0  0  0  0  0  0
  -28.7111  -12.1197   21.4159 H   0  0  0  0  0  0
  -28.4398  -13.7955   21.8190 H   0  0  0  0  0  0
  -25.2756   -9.5673   22.4760 H   0  0  0  0  0  0
  -23.9990   -7.4627   22.7477 H   0  0  0  0  0  0
  -21.0845   -8.8763   19.8941 H   0  0  0  0  0  0
  -22.3695  -10.9663   19.6164 H   0  0  0  0  0  0
  -21.1991   -7.6144   23.9705 H   0  0  0  0  0  0
  -21.1491   -6.0524   25.9077 H   0  0  0  0  0  0
  -22.0599   -2.7601   23.2848 H   0  0  0  0  0  0
  -22.4104  -11.9854   22.4793 H   0  0  0  0  0  0
  -21.1099  -13.1201   22.2634 H   0  0  0  0  0  0
  -24.6546  -15.8451   20.5190 H   0  0  0  0  0  0
  -26.2708  -15.6321   20.0793 H   0  0  0  0  0  0
  -26.7182  -32.5374   23.1063 H   0  0  0  0  0  0
  -24.9953  -33.9646   25.0315 H   0  0  0  0  0  0
  -22.7193  -31.2928   21.3935 H   0  0  0  0  0  0
  -23.3749  -35.9607   23.3240 H   0  0  0  0  0  0
  -24.3599  -36.8974   22.2077 H   0  0  0  0  0  0
  -23.7236  -37.6443   23.6730 H   0  0  0  0  0  0
  -26.0956  -31.5336   20.6020 H   0  0  0  0  0  0
  -26.8447  -30.8274   22.0050 H   0  0  0  0  0  0
  -28.1172  -28.9578   21.1922 H   0  0  0  0  0  0
  -25.9802  -25.8772   19.0608 H   0  0  0  0  0  0
  -23.9827  -27.2665   19.0392 H   0  0  0  0  0  0
  -23.7503  -30.5613   19.3965 H   0  0  0  0  0  0
  -22.7604  -29.2165   19.8693 H   0  0  0  0  0  0
  -25.1281  -36.1853   25.0808 H   0  0  0  0  0  0
  -20.9936  -28.3250   24.1431 H   0  0  0  0  0  0
  -20.5648  -26.2281   23.3609 H   0  0  0  0  0  0
  -21.6625  -26.7428   22.1228 H   0  0  0  0  0  0
  -19.6896  -25.6307   21.1223 H   0  0  0  0  0  0
  -19.6673  -27.3195   20.6736 H   0  0  0  0  0  0
  -17.4187  -26.6666   21.4014 H   0  0  0  0  0  0
  -18.0311  -26.0054   22.9005 H   0  0  0  0  0  0
  -19.7933  -30.7262   24.2239 H   0  0  0  0  0  0
  -17.5017  -31.6255   24.5163 H   0  0  0  0  0  0
  -15.5334  -30.2980   23.7687 H   0  0  0  0  0  0
  -15.8661  -28.0827   22.7081 H   0  0  0  0  0  0
  -24.5948  -30.6945   25.7738 H   0  0  0  0  0  0
  -24.8882  -32.2777   26.4858 H   0  0  0  0  0  0
  -25.8087  -30.8811   27.0195 H   0  0  0  0  0  0
  -26.2988  -29.6638   24.1274 H   0  0  0  0  0  0
  -27.4171  -29.7280   25.4679 H   0  0  0  0  0  0
  -27.8801  -30.4253   23.9365 H   0  0  0  0  0  0
  -27.2711  -33.3647   26.1929 H   0  0  0  0  0  0
  -28.3902  -32.6750   25.0271 H   0  0  0  0  0  0
  -28.0696  -31.8470   26.5418 H   0  0  0  0  0  0
  -28.2503  -38.0136   24.7622 H   0  0  0  0  0  0
  -28.1174  -36.2680   24.6114 H   0  0  0  0  0  0
  -27.2315  -37.1190   25.8836 H   0  0  0  0  0  0
  -20.9380  -29.8727   21.6871 H   0  0  0  0  0  0
  -26.0126  -38.2789   24.1528 H   0  0  0  0  0  0
  -28.6503  -19.5291   24.0870 H   0  0  0  0  0  0
  -30.2098  -22.7731   23.8709 H   0  0  0  0  0  0
  -28.8571  -24.0012   24.0971 H   0  0  0  0  0  0
  -27.5719  -22.3804   25.4521 H   0  0  0  0  0  0
  -28.9876  -21.2206   25.3256 H   0  0  0  0  0  0
  -29.7729  -22.8434   18.6865 H   0  0  0  0  0  0
  -28.2368  -22.1469   18.1472 H   0  0  0  0  0  0
  -27.0799  -24.2167   18.5719 H   0  0  0  0  0  0
  -28.5471  -24.7292   17.7442 H   0  0  0  0  0  0
  -29.5139  -23.9305   21.5702 H   0  0  0  0  0  0
  -27.7674  -24.0961   21.7252 H   0  0  0  0  0  0
  -27.2070  -22.3493   22.9985 H   0  0  0  0  0  0
  -27.3167  -22.3010   20.3335 H   0  0  0  0  0  0
  -29.6816  -25.0927   19.7347 H   0  0  0  0  0  0
  -29.2836  -17.4148   24.2584 H   0  0  0  0  0  0
  -30.4436  -16.8029   23.1002 H   0  0  0  0  0  0
  -28.7042  -16.4772   22.9048 H   0  0  0  0  0  0
  -30.3704  -20.7908   18.6539 H   0  0  0  0  0  0
  -28.8271  -20.0077   18.2316 H   0  0  0  0  0  0
  -30.3029  -19.0946   18.4649 H   0  0  0  0  0  0
  -31.1727  -17.3604   20.0851 H   0  0  0  0  0  0
  -29.6673  -17.2271   19.2170 H   0  0  0  0  0  0
  -28.9043  -15.6079   20.9841 H   0  0  0  0  0  0
  1 25  1  0  0  0
  1 30  2  0  0  0
  1 88  1  0  0  0
  2  3  1  0  0  0
  2 25  1  0  0  0
  2 89  1  0  0  0
  2 90  1  0  0  0
  3  4  1  0  0  0
  3 91  1  0  0  0
  3 92  1  0  0  0
  4  5  1  0  0  0
  4 93  1  0  0  0
  4 94  1  0  0  0
  5  6  1  0  0  0
  5 26  1  0  0  0
  5 95  1  0  0  0
  6 25  1  0  0  0
  6 96  1  0  0  0
  6 97  1  0  0  0
  7  8  2  0  0  0
  7 26  1  0  0  0
  7 29  1  0  0  0
  8  9  1  0  0  0
  8 22  1  0  0  0
  9 10  1  0  0  0
  9 27  2  0  0  0
 10 11  2  0  0  0
 10 15  1  0  0  0
 11 12  1  0  0  0
 11 98  1  0  0  0
 12 13  2  0  0  0
 12 99  1  0  0  0
 13 14  1  0  0  0
 13 31  1  0  0  0
 14 15  2  0  0  0
 14100  1  0  0  0
 15101  1  0  0  0
 16 17  2  0  0  0
 16 21  1  0  0  0
 16 31  1  0  0  0
 17 18  1  0  0  0
 17102  1  0  0  0
 18 19  2  0  0  0
 18103  1  0  0  0
 19 20  1  0  0  0
 19 24  1  0  0  0
 20 21  2  0  0  0
 20104  1  0  0  0
 21 23  1  0  0  0
 22 28  1  0  0  0
 22 32  2  0  0  0
 26 27  1  0  0  0
 28105  1  0  0  0
 28106  1  0  0  0
 29107  1  0  0  0
 29108  1  0  0  0
 33 34  1  0  0  0
 33 66  1  0  0  0
 33 70  2  0  0  0
 34 36  1  0  0  0
 34 59  1  0  0  0
 34109  1  0  0  0
 35 44  2  0  0  0
 35 45  1  0  0  0
 35 68  1  0  0  0
 36 56  1  0  0  0
 36110  1  0  0  0
 37 39  1  0  0  0
 37 47  1  0  0  0
 37 66  1  0  0  0
 37111  1  0  0  0
 38 43  2  0  0  0
 38 46  1  0  0  0
 38 47  1  0  0  0
 39 64  1  0  0  0
 39 67  2  0  0  0
 40 52  1  0  0  0
 40 53  2  0  0  0
 40 58  1  0  0  0
 41112  1  0  0  0
 41113  1  0  0  0
 41114  1  0  0  0
 41 48  1  0  0  0
 42 43  1  0  0  0
 42 66  1  0  0  0
 42115  1  0  0  0
 42116  1  0  0  0
 43 44  1  0  0  0
 44117  1  0  0  0
 45 46  2  0  0  0
 45118  1  0  0  0
 46119  1  0  0  0
 47120  1  0  0  0
 47121  1  0  0  0
 48 56  1  0  0  0
 48 65  1  0  0  0
 48122  1  0  0  0
 49 50  1  0  0  0
 49 53  1  0  0  0
 49 64  1  0  0  0
 49123  1  0  0  0
 50 51  1  0  0  0
 50124  1  0  0  0
 50125  1  0  0  0
 51 52  1  0  0  0
 51126  1  0  0  0
 51127  1  0  0  0
 52128  1  0  0  0
 52129  1  0  0  0
 53 54  1  0  0  0
 54 55  2  0  0  0
 54130  1  0  0  0
 55 57  1  0  0  0
 55131  1  0  0  0
 56 69  2  0  0  0
 57 58  2  0  0  0
 57132  1  0  0  0
 58133  1  0  0  0
 59 60  1  0  0  0
 59 61  1  0  0  0
 59 62  1  0  0  0
 60134  1  0  0  0
 60135  1  0  0  0
 60136  1  0  0  0
 61137  1  0  0  0
 61138  1  0  0  0
 61139  1  0  0  0
 62140  1  0  0  0
 62141  1  0  0  0
 62142  1  0  0  0
 63 65  1  0  0  0
 63143  1  0  0  0
 63144  1  0  0  0
 63145  1  0  0  0
 64146  1  0  0  0
 65147  1  0  0  0
 68 84  1  0  0  0
 71 72  2  0  0  0
 71 74  1  0  0  0
 71148  1  0  0  0
 72 73  1  0  0  0
 72 82  1  0  0  0
 73 75  2  0  0  0
 73 83  1  0  0  0
 74 76  2  0  0  0
 74 85  1  0  0  0
 75 76  1  0  0  0
 75 86  1  0  0  0
 76 87  1  0  0  0
 77 78  1  0  0  0
 77 82  1  0  0  0
 77149  1  0  0  0
 77150  1  0  0  0
 78 82  1  0  0  0
 78151  1  0  0  0
 78152  1  0  0  0
 79 80  1  0  0  0
 79 83  1  0  0  0
 79153  1  0  0  0
 79154  1  0  0  0
 80 84  1  0  0  0
 80155  1  0  0  0
 80156  1  0  0  0
 81 83  1  0  0  0
 81 84  1  0  0  0
 81157  1  0  0  0
 81158  1  0  0  0
 82159  1  0  0  0
 83160  1  0  0  0
 84161  1  0  0  0
 85162  1  0  0  0
 85163  1  0  0  0
 85164  1  0  0  0
 86165  1  0  0  0
 86166  1  0  0  0
 86167  1  0  0  0
 87 88  1  0  0  0
 87168  1  0  0  0
 87169  1  0  0  0
 88170  1  0  0  0
M  ISO  4   1 100  68 101  84 101  88 100
M  END
> <chiral flag>
0

> <version>
0

> <s_m_source_file>
/data/baiqing/PycharmProjects/Reinvent-master-3.2/result/LINK_invent/BTK/process_docking_weight1_custom_sum_contain_oxygen_bond_distance_aromatic_linkinvent_7_9_3/rearranged_h_0175.sdf

> <i_m_source_file_index>
3

> <r_mmod_Potential_Energy-OPLS-2005>
264.809997558594

> <r_mmod_Stretch_Energy-OPLS-2005>
130.052230834961

> <r_mmod_Bend_Energy-OPLS-2005>
283.358947753906

> <r_mmod_Torsional_Energy-OPLS-2005>
266.390380859375

> <r_mmod_Improper_Torsional_Energy-OPLS-2005>
7.05076026916504

> <r_mmod_Van_der_Waal_Energy-OPLS-2005>
159.018829345703

> <r_mmod_Electrostatic_Energy-OPLS-2005>
-440.442932128906

> <r_mmod_Solvation_Energy-OPLS-2005>
-201.693313598633

> <b_mmod_Minimization_Converged-OPLS-2005>
0

> <r_mmod_RMS_Derivative-OPLS-2005>
2.34078359603882

$$$$
3
                    3D
 Structure written by MMmdl.
163173  0  0  1  0            999 V2000
  -30.6406  -14.6706   20.4544 C   0  0  0  0  0  0
  -30.4208  -12.4008   19.4746 C   0  0  0  0  0  0
  -29.5034  -12.4921   18.2350 C   0  0  0  0  0  0
  -28.0265  -12.3368   18.6461 C   0  0  0  0  0  0
  -27.6439  -13.2285   19.8581 C   0  0  2  0  0  0
  -28.6880  -13.1358   20.9939 C   0  0  0  0  0  0
  -25.2510  -13.8204   20.5702 C   0  0  0  0  0  0
  -24.1794  -13.0444   20.9197 C   0  0  0  0  0  0
  -24.6378  -11.6918   20.8752 C   0  0  0  0  0  0
  -23.9060  -10.4296   21.0408 C   0  0  0  0  0  0
  -24.3612   -9.4211   21.9185 C   0  0  0  0  0  0
  -23.6288   -8.2249   22.0758 C   0  0  0  0  0  0
  -22.4271   -8.0285   21.3548 C   0  0  0  0  0  0
  -21.9904   -9.0256   20.4649 C   0  0  0  0  0  0
  -22.7232  -10.2134   20.3058 C   0  0  0  0  0  0
  -21.6855   -6.0734   22.5270 C   0  0  0  0  0  0
  -21.4013   -6.5637   23.8204 C   0  0  0  0  0  0
  -21.3657   -5.6792   24.9170 C   0  0  0  0  0  0
  -21.6040   -4.3054   24.7220 C   0  0  0  0  0  0
  -21.8824   -3.8144   23.4343 C   0  0  0  0  0  0
  -21.9189   -4.6960   22.3396 C   0  0  0  0  0  0
  -22.7813  -13.5225   21.1858 C   0  0  0  0  0  0
  -22.1662   -4.2144   21.0975 F   0  0  0  0  0  0
  -21.5625   -3.4537   25.7738 F   0  0  0  0  0  0
  -29.9980  -13.4591   20.4179 N   0  0  0  0  0  0
  -26.2938  -12.9404   20.3320 N   0  0  0  0  0  0
  -25.9314  -11.6544   20.5778 N   0  0  0  0  0  0
  -22.0468  -12.8219   22.0425 N   0  0  0  0  0  0
  -25.4194  -15.1931   20.4122 N   0  0  0  0  0  0
  -31.8217  -14.7570   20.1081 O   0  0  0  0  0  0
  -21.6637   -6.8877   21.4236 O   0  0  0  0  0  0
  -22.3493  -14.5526   20.6703 O   0  0  0  0  0  0
  -24.6266  -31.8579   23.2004 C   0  0  0  0  0  0
  -25.9106  -32.4774   23.8338 C   0  0  1  0  0  0
  -27.2184  -27.3040   20.1283 C   0  0  0  0  0  0
  -25.5914  -33.8567   24.2264 N   0  0  0  0  0  0
  -23.4215  -30.4799   21.5445 C   0  0  2  0  0  0
  -24.8687  -28.9306   20.1122 C   0  0  0  0  0  0
  -22.7482  -29.4601   22.4937 C   0  0  0  0  0  0
  -18.0288  -28.1366   22.8486 C   0  0  0  0  0  0
  -24.1488  -36.7283   23.2644 C   0  0  0  0  0  0
  -25.9630  -30.7840   21.3736 C   0  0  0  0  0  0
  -26.0398  -29.4096   20.7170 C   0  0  0  0  0  0
  -27.2218  -28.6091   20.7123 C   0  0  0  0  0  0
  -26.0300  -26.8768   19.5007 C   0  0  0  0  0  0
  -24.8657  -27.6686   19.4949 C   0  0  0  0  0  0
  -23.6373  -29.8133   20.1605 C   0  0  0  0  0  0
  -25.4114  -36.3073   24.0331 C   0  0  1  0  0  0
  -20.5886  -28.3669   23.1284 C   0  0  2  0  0  0
  -20.6780  -26.9391   22.5415 C   0  0  0  0  0  0
  -19.5756  -26.6362   21.5219 C   0  0  0  0  0  0
  -18.1928  -26.7912   22.1625 C   0  0  0  0  0  0
  -19.1540  -28.8838   23.2871 C   0  0  0  0  0  0
  -18.9471  -30.1440   23.8892 C   0  0  0  0  0  0
  -17.6470  -30.6577   24.0558 C   0  0  0  0  0  0
  -25.9054  -34.9448   23.5098 C   0  0  0  0  0  0
  -16.5359  -29.9072   23.6337 C   0  0  0  0  0  0
  -16.7277  -28.6484   23.0370 C   0  0  0  0  0  0
  -26.4483  -31.6597   25.0723 C   0  0  0  0  0  0
  -25.3719  -31.3731   26.1459 C   0  0  0  0  0  0
  -27.0350  -30.3033   24.6180 C   0  0  0  0  0  0
  -27.6025  -32.4356   25.7505 C   0  0  0  0  0  0
  -27.5574  -37.1789   24.8468 C   0  0  0  0  0  0
  -21.4195  -29.3021   22.3687 N   0  0  0  0  0  0
  -26.4287  -37.3769   23.9412 N   0  0  0  0  0  0
  -24.6895  -31.0570   22.0967 N   0  0  0  0  0  0
  -23.4197  -28.8145   23.3024 O   0  0  0  0  0  0
  -28.3071  -26.4208   20.1552 O   0  0  0  0  0  0
  -26.5623  -34.8917   22.4667 O   0  0  0  0  0  0
  -23.5434  -32.1397   23.7325 O   0  0  0  0  0  0
  -28.7368  -19.2905   19.7278 C   0  0  0  0  0  0
  -30.0846  -20.4014   21.8816 C   0  0  0  0  0  0
  -28.4873  -20.6414   20.1140 C   0  0  0  0  0  0
  -29.1574  -21.2003   21.1802 C   0  0  0  0  0  0
  -29.7044  -18.5326   20.4622 C   0  0  0  0  0  0
  -27.0472  -22.1529   21.1496 C   0  0  0  0  0  0
  -28.0067  -23.0061   19.2010 C   0  0  0  0  0  0
  -28.4914  -22.5656   21.5049 C   0  0  2  0  0  0
  -27.4027  -21.6574   19.7382 C   0  0  1  0  0  0
  -28.7216  -23.7095   20.4181 C   0  0  1  0  0  0
  -26.2368  -21.0766   18.9290 C   0  0  0  0  0  0
  -30.2247  -23.9010   20.1437 C   0  0  0  0  0  0
  -30.2430  -17.1351   19.9708 C   0  0  0  0  0  0
  -28.0828  -25.1314   20.8618 C   0  0  0  0  0  0
  -30.3525  -19.1070   21.5189 N   0  0  0  0  0  0
  -29.8869  -15.8107   20.6047 N   0  0  0  0  0  0
  -31.4662  -12.4957   19.1779 H   0  0  0  0  0  0
  -30.3345  -11.4201   19.9448 H   0  0  0  0  0  0
  -29.7704  -11.7217   17.5100 H   0  0  0  0  0  0
  -29.6485  -13.4503   17.7331 H   0  0  0  0  0  0
  -27.8666  -11.2873   18.8962 H   0  0  0  0  0  0
  -27.3727  -12.5484   17.7992 H   0  0  0  0  0  0
  -27.6476  -14.2549   19.4905 H   0  0  0  0  0  0
  -28.7026  -12.1334   21.4253 H   0  0  0  0  0  0
  -28.4397  -13.8165   21.8096 H   0  0  0  0  0  0
  -25.2755   -9.5685   22.4765 H   0  0  0  0  0  0
  -23.9984   -7.4644   22.7493 H   0  0  0  0  0  0
  -21.0827   -8.8775   19.8970 H   0  0  0  0  0  0
  -22.3681  -10.9673   19.6173 H   0  0  0  0  0  0
  -21.2017   -7.6147   23.9706 H   0  0  0  0  0  0
  -21.1473   -6.0524   25.9070 H   0  0  0  0  0  0
  -22.0607   -2.7604   23.2843 H   0  0  0  0  0  0
  -22.4089  -11.9873   22.4797 H   0  0  0  0  0  0
  -21.1100  -13.1257   22.2673 H   0  0  0  0  0  0
  -24.6502  -15.8451   20.5239 H   0  0  0  0  0  0
  -26.2662  -15.6360   20.0796 H   0  0  0  0  0  0
  -26.7166  -32.5442   23.1078 H   0  0  0  0  0  0
  -25.0059  -33.9709   25.0409 H   0  0  0  0  0  0
  -22.7158  -31.3006   21.4003 H   0  0  0  0  0  0
  -23.3752  -35.9613   23.3313 H   0  0  0  0  0  0
  -24.3568  -36.8907   22.2055 H   0  0  0  0  0  0
  -23.7239  -37.6481   23.6676 H   0  0  0  0  0  0
  -26.0962  -31.5463   20.6043 H   0  0  0  0  0  0
  -26.8411  -30.8318   22.0059 H   0  0  0  0  0  0
  -28.1213  -28.9688   21.1936 H   0  0  0  0  0  0
  -25.9955  -25.9035   19.0316 H   0  0  0  0  0  0
  -23.9680  -27.2948   19.0199 H   0  0  0  0  0  0
  -23.7587  -30.5911   19.4051 H   0  0  0  0  0  0
  -22.7565  -29.2441   19.8584 H   0  0  0  0  0  0
  -25.1291  -36.1922   25.0822 H   0  0  0  0  0  0
  -20.9967  -28.3250   24.1409 H   0  0  0  0  0  0
  -20.5700  -26.2272   23.3613 H   0  0  0  0  0  0
  -21.6644  -26.7432   22.1193 H   0  0  0  0  0  0
  -19.6925  -25.6269   21.1252 H   0  0  0  0  0  0
  -19.6708  -27.3176   20.6748 H   0  0  0  0  0  0
  -17.4205  -26.6668   21.4020 H   0  0  0  0  0  0
  -18.0308  -26.0051   22.9017 H   0  0  0  0  0  0
  -19.7953  -30.7233   24.2278 H   0  0  0  0  0  0
  -17.5040  -31.6273   24.5127 H   0  0  0  0  0  0
  -15.5364  -30.2974   23.7666 H   0  0  0  0  0  0
  -15.8678  -28.0798   22.7109 H   0  0  0  0  0  0
  -24.5890  -30.7083   25.7785 H   0  0  0  0  0  0
  -24.8917  -32.2902   26.4891 H   0  0  0  0  0  0
  -25.8043  -30.8911   27.0240 H   0  0  0  0  0  0
  -26.2936  -29.6765   24.1214 H   0  0  0  0  0  0
  -27.4073  -29.7300   25.4675 H   0  0  0  0  0  0
  -27.8785  -30.4329   23.9393 H   0  0  0  0  0  0
  -27.2607  -33.3655   26.2067 H   0  0  0  0  0  0
  -28.3843  -32.6926   25.0344 H   0  0  0  0  0  0
  -28.0692  -31.8510   26.5450 H   0  0  0  0  0  0
  -28.2581  -38.0095   24.7517 H   0  0  0  0  0  0
  -28.1074  -36.2618   24.6294 H   0  0  0  0  0  0
  -27.2287  -37.1444   25.8870 H   0  0  0  0  0  0
  -20.9378  -29.8742   21.6901 H   0  0  0  0  0  0
  -26.0173  -38.2841   24.1429 H   0  0  0  0  0  0
  -28.2056  -18.8480   18.8956 H   0  0  0  0  0  0
  -30.5807  -20.7718   22.7659 H   0  0  0  0  0  0
  -26.3118  -22.9562   21.1675 H   0  0  0  0  0  0
  -26.6702  -21.3522   21.7905 H   0  0  0  0  0  0
  -27.2125  -23.6510   18.8233 H   0  0  0  0  0  0
  -28.6811  -22.8217   18.3652 H   0  0  0  0  0  0
  -28.6269  -22.8821   22.5403 H   0  0  0  0  0  0
  -25.7678  -20.2490   19.4618 H   0  0  0  0  0  0
  -26.5761  -20.6994   17.9640 H   0  0  0  0  0  0
  -25.4700  -21.8285   18.7437 H   0  0  0  0  0  0
  -30.6957  -22.9826   19.7913 H   0  0  0  0  0  0
  -30.7512  -24.2174   21.0453 H   0  0  0  0  0  0
  -30.3907  -24.6641   19.3824 H   0  0  0  0  0  0
  -31.3297  -17.2303   19.9554 H   0  0  0  0  0  0
  -29.9652  -17.0469   18.9190 H   0  0  0  0  0  0
  -28.4597  -25.3261   21.8664 H   0  0  0  0  0  0
  -27.0159  -24.9921   21.0209 H   0  0  0  0  0  0
  -28.9296  -15.7015   20.9004 H   0  0  0  0  0  0
  1 25  1  0  0  0
  1 30  2  0  0  0
  1 86  1  0  0  0
  2  3  1  0  0  0
  2 25  1  0  0  0
  2 87  1  0  0  0
  2 88  1  0  0  0
  3  4  1  0  0  0
  3 89  1  0  0  0
  3 90  1  0  0  0
  4  5  1  0  0  0
  4 91  1  0  0  0
  4 92  1  0  0  0
  5  6  1  0  0  0
  5 26  1  0  0  0
  5 93  1  0  0  0
  6 25  1  0  0  0
  6 94  1  0  0  0
  6 95  1  0  0  0
  7  8  2  0  0  0
  7 26  1  0  0  0
  7 29  1  0  0  0
  8  9  1  0  0  0
  8 22  1  0  0  0
  9 10  1  0  0  0
  9 27  2  0  0  0
 10 11  2  0  0  0
 10 15  1  0  0  0
 11 12  1  0  0  0
 11 96  1  0  0  0
 12 13  2  0  0  0
 12 97  1  0  0  0
 13 14  1  0  0  0
 13 31  1  0  0  0
 14 15  2  0  0  0
 14 98  1  0  0  0
 15 99  1  0  0  0
 16 17  2  0  0  0
 16 21  1  0  0  0
 16 31  1  0  0  0
 17 18  1  0  0  0
 17100  1  0  0  0
 18 19  2  0  0  0
 18101  1  0  0  0
 19 20  1  0  0  0
 19 24  1  0  0  0
 20 21  2  0  0  0
 20102  1  0  0  0
 21 23  1  0  0  0
 22 28  1  0  0  0
 22 32  2  0  0  0
 26 27  1  0  0  0
 28103  1  0  0  0
 28104  1  0  0  0
 29105  1  0  0  0
 29106  1  0  0  0
 33 34  1  0  0  0
 33 66  1  0  0  0
 33 70  2  0  0  0
 34 36  1  0  0  0
 34 59  1  0  0  0
 34107  1  0  0  0
 35 44  2  0  0  0
 35 45  1  0  0  0
 35 68  1  0  0  0
 36 56  1  0  0  0
 36108  1  0  0  0
 37 39  1  0  0  0
 37 47  1  0  0  0
 37 66  1  0  0  0
 37109  1  0  0  0
 38 43  2  0  0  0
 38 46  1  0  0  0
 38 47  1  0  0  0
 39 64  1  0  0  0
 39 67  2  0  0  0
 40 52  1  0  0  0
 40 53  2  0  0  0
 40 58  1  0  0  0
 41110  1  0  0  0
 41111  1  0  0  0
 41112  1  0  0  0
 41 48  1  0  0  0
 42 43  1  0  0  0
 42 66  1  0  0  0
 42113  1  0  0  0
 42114  1  0  0  0
 43 44  1  0  0  0
 44115  1  0  0  0
 45 46  2  0  0  0
 45116  1  0  0  0
 46117  1  0  0  0
 47118  1  0  0  0
 47119  1  0  0  0
 48 56  1  0  0  0
 48 65  1  0  0  0
 48120  1  0  0  0
 49 50  1  0  0  0
 49 53  1  0  0  0
 49 64  1  0  0  0
 49121  1  0  0  0
 50 51  1  0  0  0
 50122  1  0  0  0
 50123  1  0  0  0
 51 52  1  0  0  0
 51124  1  0  0  0
 51125  1  0  0  0
 52126  1  0  0  0
 52127  1  0  0  0
 53 54  1  0  0  0
 54 55  2  0  0  0
 54128  1  0  0  0
 55 57  1  0  0  0
 55129  1  0  0  0
 56 69  2  0  0  0
 57 58  2  0  0  0
 57130  1  0  0  0
 58131  1  0  0  0
 59 60  1  0  0  0
 59 61  1  0  0  0
 59 62  1  0  0  0
 60132  1  0  0  0
 60133  1  0  0  0
 60134  1  0  0  0
 61135  1  0  0  0
 61136  1  0  0  0
 61137  1  0  0  0
 62138  1  0  0  0
 62139  1  0  0  0
 62140  1  0  0  0
 63 65  1  0  0  0
 63141  1  0  0  0
 63142  1  0  0  0
 63143  1  0  0  0
 64144  1  0  0  0
 65145  1  0  0  0
 68 84  1  0  0  0
 71 73  2  0  0  0
 71 75  1  0  0  0
 71146  1  0  0  0
 72 74  2  0  0  0
 72 85  1  0  0  0
 72147  1  0  0  0
 73 74  1  0  0  0
 73 79  1  0  0  0
 74 78  1  0  0  0
 75 83  1  0  0  0
 75 85  2  0  0  0
 76 78  1  0  0  0
 76 79  1  0  0  0
 76148  1  0  0  0
 76149  1  0  0  0
 77 79  1  0  0  0
 77 80  1  0  0  0
 77150  1  0  0  0
 77151  1  0  0  0
 78 80  1  0  0  0
 78152  1  0  0  0
 79 81  1  0  0  0
 80 82  1  0  0  0
 80 84  1  0  0  0
 81153  1  0  0  0
 81154  1  0  0  0
 81155  1  0  0  0
 82156  1  0  0  0
 82157  1  0  0  0
 82158  1  0  0  0
 83 86  1  0  0  0
 83159  1  0  0  0
 83160  1  0  0  0
 84161  1  0  0  0
 84162  1  0  0  0
 86163  1  0  0  0
M  ISO  4   1 100  68 101  84 101  86 100
M  END
> <chiral flag>
0

> <version>
0

> <s_m_source_file>
/data/baiqing/PycharmProjects/Reinvent-master-3.2/result/LINK_invent/BTK/process_docking_weight1_custom_sum_contain_oxygen_bond_distance_aromatic_linkinvent_7_9_3/rearranged_h_0175.sdf

> <i_m_source_file_index>
4

> <r_mmod_Potential_Energy-OPLS-2005>
40.226749420166

> <r_mmod_Stretch_Energy-OPLS-2005>
90.5835876464844

> <r_mmod_Bend_Energy-OPLS-2005>
310.003692626953

> <r_mmod_Torsional_Energy-OPLS-2005>
297.280853271484

> <r_mmod_Improper_Torsional_Energy-OPLS-2005>
11.4143285751343

> <r_mmod_Van_der_Waal_Energy-OPLS-2005>
142.995315551758

> <r_mmod_Electrostatic_Energy-OPLS-2005>
-651.749450683594

> <r_mmod_Solvation_Energy-OPLS-2005>
-221.061706542969

> <b_mmod_Minimization_Converged-OPLS-2005>
0

> <r_mmod_RMS_Derivative-OPLS-2005>
1.70123553276062

$$$$
4
                    3D
 Structure written by MMmdl.
154163  0  0  1  0            999 V2000
  -30.5909  -14.8846   20.4617 C   0  0  0  0  0  0
  -30.4370  -12.5580   19.4794 C   0  0  0  0  0  0
  -29.5119  -12.5365   18.2399 C   0  0  0  0  0  0
  -28.0387  -12.3454   18.6507 C   0  0  0  0  0  0
  -27.6348  -13.2441   19.8486 C   0  0  2  0  0  0
  -28.6868  -13.1983   20.9781 C   0  0  0  0  0  0
  -25.2419  -13.8188   20.5638 C   0  0  0  0  0  0
  -24.1761  -13.0420   20.9220 C   0  0  0  0  0  0
  -24.6399  -11.6915   20.8776 C   0  0  0  0  0  0
  -23.9093  -10.4288   21.0418 C   0  0  0  0  0  0
  -24.3642   -9.4204   21.9194 C   0  0  0  0  0  0
  -23.6310   -8.2246   22.0765 C   0  0  0  0  0  0
  -22.4289   -8.0292   21.3551 C   0  0  0  0  0  0
  -21.9937   -9.0265   20.4645 C   0  0  0  0  0  0
  -22.7273  -10.2139   20.3062 C   0  0  0  0  0  0
  -21.6854   -6.0747   22.5288 C   0  0  0  0  0  0
  -21.4018   -6.5646   23.8221 C   0  0  0  0  0  0
  -21.3659   -5.6797   24.9182 C   0  0  0  0  0  0
  -21.6047   -4.3060   24.7226 C   0  0  0  0  0  0
  -21.8820   -3.8156   23.4346 C   0  0  0  0  0  0
  -21.9194   -4.6974   22.3408 C   0  0  0  0  0  0
  -22.7778  -13.5194   21.1871 C   0  0  0  0  0  0
  -22.1662   -4.2163   21.0984 F   0  0  0  0  0  0
  -21.5631   -3.4538   25.7733 F   0  0  0  0  0  0
  -29.9597  -13.6405   20.3888 N   0  0  0  0  0  0
  -26.2905  -12.9449   20.3288 N   0  0  0  0  0  0
  -25.9341  -11.6579   20.5789 N   0  0  0  0  0  0
  -22.0433  -12.8184   22.0425 N   0  0  0  0  0  0
  -25.3941  -15.1900   20.3888 N   0  0  0  0  0  0
  -31.7792  -14.9234   20.1223 O   0  0  0  0  0  0
  -21.6646   -6.8892   21.4251 O   0  0  0  0  0  0
  -22.3458  -14.5499   20.6718 O   0  0  0  0  0  0
  -24.6409  -31.8511   23.1934 C   0  0  0  0  0  0
  -25.9198  -32.4734   23.8318 C   0  0  1  0  0  0
  -27.2073  -27.1716   20.1345 C   0  0  0  0  0  0
  -25.5969  -33.8542   24.2246 N   0  0  0  0  0  0
  -23.4418  -30.4732   21.5401 C   0  0  2  0  0  0
  -24.8895  -28.9181   20.1060 C   0  0  0  0  0  0
  -22.7563  -29.4576   22.4886 C   0  0  0  0  0  0
  -18.0307  -28.1380   22.8487 C   0  0  0  0  0  0
  -24.1489  -36.7268   23.2640 C   0  0  0  0  0  0
  -25.9975  -30.7343   21.3893 C   0  0  0  0  0  0
  -26.0677  -29.3504   20.7284 C   0  0  0  0  0  0
  -27.2286  -28.4915   20.7332 C   0  0  0  0  0  0
  -26.0056  -26.8544   19.4534 C   0  0  0  0  0  0
  -24.8704  -27.6820   19.4524 C   0  0  0  0  0  0
  -23.6636  -29.8118   20.1565 C   0  0  0  0  0  0
  -25.4123  -36.3063   24.0322 C   0  0  1  0  0  0
  -20.5917  -28.3711   23.1244 C   0  0  2  0  0  0
  -20.6782  -26.9419   22.5401 C   0  0  0  0  0  0
  -19.5749  -26.6373   21.5214 C   0  0  0  0  0  0
  -18.1934  -26.7923   22.1629 C   0  0  0  0  0  0
  -19.1560  -28.8865   23.2850 C   0  0  0  0  0  0
  -18.9473  -30.1464   23.8865 C   0  0  0  0  0  0
  -17.6470  -30.6582   24.0554 C   0  0  0  0  0  0
  -25.9069  -34.9432   23.5085 C   0  0  0  0  0  0
  -16.5364  -29.9075   23.6333 C   0  0  0  0  0  0
  -16.7292  -28.6486   23.0371 C   0  0  0  0  0  0
  -26.4527  -31.6566   25.0726 C   0  0  0  0  0  0
  -25.3723  -31.3743   26.1425 C   0  0  0  0  0  0
  -27.0377  -30.2972   24.6253 C   0  0  0  0  0  0
  -27.6072  -32.4310   25.7506 C   0  0  0  0  0  0
  -27.5580  -37.1803   24.8470 C   0  0  0  0  0  0
  -21.4257  -29.3051   22.3629 N   0  0  0  0  0  0
  -26.4302  -37.3765   23.9393 N   0  0  0  0  0  0
  -24.7129  -31.0397   22.0956 N   0  0  0  0  0  0
  -23.4222  -28.8124   23.3022 O   0  0  0  0  0  0
  -28.2322  -26.1634   20.2267 O   0  0  0  0  0  0
  -26.5639  -34.8916   22.4655 O   0  0  0  0  0  0
  -23.5535  -32.1381   23.7167 O   0  0  0  0  0  0
  -28.5237  -21.0394   21.4549 C   0  0  0  0  0  0
  -28.2551  -22.4611   21.3757 C   0  0  0  0  0  0
  -29.2152  -22.5111   19.2216 C   0  0  0  0  0  0
  -29.1185  -20.2543   20.4094 C   0  0  0  0  0  0
  -28.5519  -23.2769   20.2375 C   0  0  0  0  0  0
  -29.4848  -21.0841   19.2943 C   0  0  0  0  0  0
  -28.4935  -17.9111   21.6320 C   0  0  0  0  0  0
  -28.7221  -16.3726   21.4687 C   0  0  0  0  0  0
  -30.2856  -17.5386   20.1587 C   0  0  0  0  0  0
  -29.0913  -18.6066   20.4047 C   0  0  2  0  0  0
  -27.8131  -24.7077   19.9492 C   0  0  0  0  0  0
  -29.8778  -16.1130   20.5926 N   0  0  0  0  0  0
  -30.1886  -20.3345   17.9078 Cl  0  0  0  0  0  0
  -31.4684  -12.7094   19.1577 H   0  0  0  0  0  0
  -30.4308  -11.5912   19.9863 H   0  0  0  0  0  0
  -29.8142  -11.7470   17.5498 H   0  0  0  0  0  0
  -29.6188  -13.4754   17.6939 H   0  0  0  0  0  0
  -27.8998  -11.2957   18.9109 H   0  0  0  0  0  0
  -27.3842  -12.5406   17.8000 H   0  0  0  0  0  0
  -27.6164  -14.2609   19.4564 H   0  0  0  0  0  0
  -28.7721  -12.1860   21.3769 H   0  0  0  0  0  0
  -28.3914  -13.8106   21.8270 H   0  0  0  0  0  0
  -25.2789   -9.5675   22.4767 H   0  0  0  0  0  0
  -24.0007   -7.4639   22.7484 H   0  0  0  0  0  0
  -21.0874   -8.8800   19.8941 H   0  0  0  0  0  0
  -22.3745  -10.9687   19.6174 H   0  0  0  0  0  0
  -21.2017   -7.6155   23.9729 H   0  0  0  0  0  0
  -21.1474   -6.0522   25.9082 H   0  0  0  0  0  0
  -22.0593   -2.7620   23.2840 H   0  0  0  0  0  0
  -22.4063  -11.9845   22.4810 H   0  0  0  0  0  0
  -21.1050  -13.1205   22.2623 H   0  0  0  0  0  0
  -24.6120  -15.8294   20.4810 H   0  0  0  0  0  0
  -26.2214  -15.6320   20.0109 H   0  0  0  0  0  0
  -26.7269  -32.5361   23.1055 H   0  0  0  0  0  0
  -25.0131  -33.9664   25.0405 H   0  0  0  0  0  0
  -22.7406  -31.2969   21.3929 H   0  0  0  0  0  0
  -23.3757  -35.9597   23.3321 H   0  0  0  0  0  0
  -24.3565  -36.8880   22.2050 H   0  0  0  0  0  0
  -23.7240  -37.6470   23.6660 H   0  0  0  0  0  0
  -26.1472  -31.4887   20.6158 H   0  0  0  0  0  0
  -26.8715  -30.7869   22.0265 H   0  0  0  0  0  0
  -28.1212  -28.8115   21.2519 H   0  0  0  0  0  0
  -25.8822  -25.9233   18.9246 H   0  0  0  0  0  0
  -23.9760  -27.3496   18.9435 H   0  0  0  0  0  0
  -23.7884  -30.5898   19.4022 H   0  0  0  0  0  0
  -22.7798  -29.2475   19.8522 H   0  0  0  0  0  0
  -25.1308  -36.1917   25.0818 H   0  0  0  0  0  0
  -21.0002  -28.3292   24.1367 H   0  0  0  0  0  0
  -20.5681  -26.2325   23.3613 H   0  0  0  0  0  0
  -21.6646  -26.7423   22.1196 H   0  0  0  0  0  0
  -19.6902  -25.6283   21.1246 H   0  0  0  0  0  0
  -19.6668  -27.3174   20.6736 H   0  0  0  0  0  0
  -17.4204  -26.6687   21.4030 H   0  0  0  0  0  0
  -18.0318  -26.0062   22.9017 H   0  0  0  0  0  0
  -19.7948  -30.7290   24.2210 H   0  0  0  0  0  0
  -17.5025  -31.6257   24.5169 H   0  0  0  0  0  0
  -15.5362  -30.2969   23.7651 H   0  0  0  0  0  0
  -15.8699  -28.0785   22.7111 H   0  0  0  0  0  0
  -24.5892  -30.7103   25.7749 H   0  0  0  0  0  0
  -24.8914  -32.2921   26.4823 H   0  0  0  0  0  0
  -25.8009  -30.8929   27.0225 H   0  0  0  0  0  0
  -26.2983  -29.6706   24.1249 H   0  0  0  0  0  0
  -27.4017  -29.7246   25.4795 H   0  0  0  0  0  0
  -27.8887  -30.4232   23.9553 H   0  0  0  0  0  0
  -27.2696  -33.3653   26.2006 H   0  0  0  0  0  0
  -28.3923  -32.6792   25.0351 H   0  0  0  0  0  0
  -28.0685  -31.8469   26.5478 H   0  0  0  0  0  0
  -28.2607  -38.0093   24.7506 H   0  0  0  0  0  0
  -28.1070  -36.2619   24.6327 H   0  0  0  0  0  0
  -27.2285  -37.1489   25.8873 H   0  0  0  0  0  0
  -20.9456  -29.8784   21.6830 H   0  0  0  0  0  0
  -26.0179  -38.2847   24.1371 H   0  0  0  0  0  0
  -28.1632  -20.5265   22.3350 H   0  0  0  0  0  0
  -27.7004  -22.9109   22.1876 H   0  0  0  0  0  0
  -29.4400  -23.0133   18.2914 H   0  0  0  0  0  0
  -29.0139  -18.2505   22.5283 H   0  0  0  0  0  0
  -27.4372  -18.1501   21.7625 H   0  0  0  0  0  0
  -27.8396  -15.9317   21.0168 H   0  0  0  0  0  0
  -28.8611  -15.9116   22.4473 H   0  0  0  0  0  0
  -31.1624  -17.8233   20.7417 H   0  0  0  0  0  0
  -30.5901  -17.5377   19.1114 H   0  0  0  0  0  0
  -28.3900  -18.4040   19.5932 H   0  0  0  0  0  0
  -26.8547  -24.5780   20.4555 H   0  0  0  0  0  0
  -27.5977  -24.6652   18.8817 H   0  0  0  0  0  0
  1 25  1  0  0  0
  1 30  2  0  0  0
  1 82  1  0  0  0
  2  3  1  0  0  0
  2 25  1  0  0  0
  2 84  1  0  0  0
  2 85  1  0  0  0
  3  4  1  0  0  0
  3 86  1  0  0  0
  3 87  1  0  0  0
  4  5  1  0  0  0
  4 88  1  0  0  0
  4 89  1  0  0  0
  5  6  1  0  0  0
  5 26  1  0  0  0
  5 90  1  0  0  0
  6 25  1  0  0  0
  6 91  1  0  0  0
  6 92  1  0  0  0
  7  8  2  0  0  0
  7 26  1  0  0  0
  7 29  1  0  0  0
  8  9  1  0  0  0
  8 22  1  0  0  0
  9 10  1  0  0  0
  9 27  2  0  0  0
 10 11  2  0  0  0
 10 15  1  0  0  0
 11 12  1  0  0  0
 11 93  1  0  0  0
 12 13  2  0  0  0
 12 94  1  0  0  0
 13 14  1  0  0  0
 13 31  1  0  0  0
 14 15  2  0  0  0
 14 95  1  0  0  0
 15 96  1  0  0  0
 16 17  2  0  0  0
 16 21  1  0  0  0
 16 31  1  0  0  0
 17 18  1  0  0  0
 17 97  1  0  0  0
 18 19  2  0  0  0
 18 98  1  0  0  0
 19 20  1  0  0  0
 19 24  1  0  0  0
 20 21  2  0  0  0
 20 99  1  0  0  0
 21 23  1  0  0  0
 22 28  1  0  0  0
 22 32  2  0  0  0
 26 27  1  0  0  0
 28100  1  0  0  0
 28101  1  0  0  0
 29102  1  0  0  0
 29103  1  0  0  0
 33 34  1  0  0  0
 33 66  1  0  0  0
 33 70  2  0  0  0
 34 36  1  0  0  0
 34 59  1  0  0  0
 34104  1  0  0  0
 35 44  2  0  0  0
 35 45  1  0  0  0
 35 68  1  0  0  0
 36 56  1  0  0  0
 36105  1  0  0  0
 37 39  1  0  0  0
 37 47  1  0  0  0
 37 66  1  0  0  0
 37106  1  0  0  0
 38 43  2  0  0  0
 38 46  1  0  0  0
 38 47  1  0  0  0
 39 64  1  0  0  0
 39 67  2  0  0  0
 40 52  1  0  0  0
 40 53  2  0  0  0
 40 58  1  0  0  0
 41107  1  0  0  0
 41108  1  0  0  0
 41109  1  0  0  0
 41 48  1  0  0  0
 42 43  1  0  0  0
 42 66  1  0  0  0
 42110  1  0  0  0
 42111  1  0  0  0
 43 44  1  0  0  0
 44112  1  0  0  0
 45 46  2  0  0  0
 45113  1  0  0  0
 46114  1  0  0  0
 47115  1  0  0  0
 47116  1  0  0  0
 48 56  1  0  0  0
 48 65  1  0  0  0
 48117  1  0  0  0
 49 50  1  0  0  0
 49 53  1  0  0  0
 49 64  1  0  0  0
 49118  1  0  0  0
 50 51  1  0  0  0
 50119  1  0  0  0
 50120  1  0  0  0
 51 52  1  0  0  0
 51121  1  0  0  0
 51122  1  0  0  0
 52123  1  0  0  0
 52124  1  0  0  0
 53 54  1  0  0  0
 54 55  2  0  0  0
 54125  1  0  0  0
 55 57  1  0  0  0
 55126  1  0  0  0
 56 69  2  0  0  0
 57 58  2  0  0  0
 57127  1  0  0  0
 58128  1  0  0  0
 59 60  1  0  0  0
 59 61  1  0  0  0
 59 62  1  0  0  0
 60129  1  0  0  0
 60130  1  0  0  0
 60131  1  0  0  0
 61132  1  0  0  0
 61133  1  0  0  0
 61134  1  0  0  0
 62135  1  0  0  0
 62136  1  0  0  0
 62137  1  0  0  0
 63 65  1  0  0  0
 63138  1  0  0  0
 63139  1  0  0  0
 63140  1  0  0  0
 64141  1  0  0  0
 65142  1  0  0  0
 68 81  1  0  0  0
 71 72  2  0  0  0
 71 74  1  0  0  0
 71143  1  0  0  0
 72 75  1  0  0  0
 72144  1  0  0  0
 73 75  2  0  0  0
 73 76  1  0  0  0
 73145  1  0  0  0
 74 76  2  0  0  0
 74 80  1  0  0  0
 75 81  1  0  0  0
 76 83  1  0  0  0
 77 78  1  0  0  0
 77 80  1  0  0  0
 77146  1  0  0  0
 77147  1  0  0  0
 78 82  1  0  0  0
 78148  1  0  0  0
 78149  1  0  0  0
 79 80  1  0  0  0
 79 82  1  0  0  0
 79150  1  0  0  0
 79151  1  0  0  0
 80152  1  0  0  0
 81153  1  0  0  0
 81154  1  0  0  0
M  ISO  4   1 100  68 101  81 101  82 100
M  END
> <chiral flag>
0

> <version>
0

> <s_m_source_file>
/data/baiqing/PycharmProjects/Reinvent-master-3.2/result/LINK_invent/BTK/process_docking_weight1_custom_sum_contain_oxygen_bond_distance_aromatic_linkinvent_7_9_3/rearranged_h_0175.sdf

> <i_m_source_file_index>
5

> <r_mmod_Potential_Energy-OPLS-2005>
623.863159179688

> <r_mmod_Stretch_Energy-OPLS-2005>
190.829467773438

> <r_mmod_Bend_Energy-OPLS-2005>
278.519622802734

> <r_mmod_Torsional_Energy-OPLS-2005>
329.731475830078

> <r_mmod_Improper_Torsional_Energy-OPLS-2005>
14.9751586914062

> <r_mmod_Van_der_Waal_Energy-OPLS-2005>
139.678237915039

> <r_mmod_Electrostatic_Energy-OPLS-2005>
-283.123046875

> <r_mmod_Solvation_Energy-OPLS-2005>
-202.333938598633

> <b_mmod_Minimization_Converged-OPLS-2005>
0

> <r_mmod_RMS_Derivative-OPLS-2005>
1.50381195545197

$$$$
5
                    3D
 Structure written by MMmdl.
173184  0  0  1  0            999 V2000
  -30.5558  -15.0879   20.4382 C   0  0  0  0  0  0
  -30.4342  -12.6861   19.5534 C   0  0  0  0  0  0
  -29.5383  -12.5620   18.3008 C   0  0  0  0  0  0
  -28.0784  -12.3120   18.7130 C   0  0  0  0  0  0
  -27.6235  -13.2723   19.8433 C   0  0  2  0  0  0
  -28.6559  -13.3845   20.9896 C   0  0  0  0  0  0
  -25.2396  -13.8258   20.5850 C   0  0  0  0  0  0
  -24.1759  -13.0462   20.9285 C   0  0  0  0  0  0
  -24.6410  -11.6932   20.8758 C   0  0  0  0  0  0
  -23.9088  -10.4300   21.0407 C   0  0  0  0  0  0
  -24.3626   -9.4200   21.9179 C   0  0  0  0  0  0
  -23.6291   -8.2246   22.0773 C   0  0  0  0  0  0
  -22.4269   -8.0317   21.3565 C   0  0  0  0  0  0
  -21.9902   -9.0298   20.4671 C   0  0  0  0  0  0
  -22.7268  -10.2142   20.3056 C   0  0  0  0  0  0
  -21.6872   -6.0788   22.5301 C   0  0  0  0  0  0
  -21.4037   -6.5679   23.8246 C   0  0  0  0  0  0
  -21.3647   -5.6802   24.9194 C   0  0  0  0  0  0
  -21.6028   -4.3074   24.7220 C   0  0  0  0  0  0
  -21.8813   -3.8194   23.4343 C   0  0  0  0  0  0
  -21.9206   -4.7015   22.3408 C   0  0  0  0  0  0
  -22.7761  -13.5213   21.1895 C   0  0  0  0  0  0
  -22.1680   -4.2217   21.0975 F   0  0  0  0  0  0
  -21.5572   -3.4539   25.7719 F   0  0  0  0  0  0
  -29.9214  -13.8272   20.3829 N   0  0  0  0  0  0
  -26.2862  -12.9569   20.3300 N   0  0  0  0  0  0
  -25.9351  -11.6662   20.5735 N   0  0  0  0  0  0
  -22.0420  -12.8219   22.0414 N   0  0  0  0  0  0
  -25.3985  -15.2018   20.4410 N   0  0  0  0  0  0
  -31.7586  -15.0589   20.1469 O   0  0  0  0  0  0
  -21.6621   -6.8945   21.4280 O   0  0  0  0  0  0
  -22.3424  -14.5533   20.6757 O   0  0  0  0  0  0
  -24.6629  -31.8372   23.1786 C   0  0  0  0  0  0
  -25.9350  -32.4674   23.8164 C   0  0  1  0  0  0
  -27.1762  -27.0210   20.1547 C   0  0  0  0  0  0
  -25.6040  -33.8455   24.2135 N   0  0  0  0  0  0
  -23.4581  -30.4609   21.5375 C   0  0  2  0  0  0
  -24.8844  -28.8657   20.1165 C   0  0  0  0  0  0
  -22.7623  -29.4588   22.4928 C   0  0  0  0  0  0
  -18.0304  -28.1486   22.8471 C   0  0  0  0  0  0
  -24.1446  -36.7212   23.2647 C   0  0  0  0  0  0
  -26.0206  -30.6834   21.3693 C   0  0  0  0  0  0
  -26.0808  -29.2822   20.7143 C   0  0  0  0  0  0
  -27.2275  -28.3823   20.6982 C   0  0  0  0  0  0
  -25.9268  -26.7181   19.5682 C   0  0  0  0  0  0
  -24.8241  -27.6001   19.5271 C   0  0  0  0  0  0
  -23.6746  -29.7918   20.1591 C   0  0  0  0  0  0
  -25.4092  -36.3011   24.0329 C   0  0  1  0  0  0
  -20.5925  -28.3791   23.1247 C   0  0  2  0  0  0
  -20.6821  -26.9505   22.5404 C   0  0  0  0  0  0
  -19.5787  -26.6474   21.5225 C   0  0  0  0  0  0
  -18.1964  -26.8015   22.1648 C   0  0  0  0  0  0
  -19.1564  -28.8968   23.2836 C   0  0  0  0  0  0
  -18.9496  -30.1564   23.8837 C   0  0  0  0  0  0
  -17.6498  -30.6658   24.0596 C   0  0  0  0  0  0
  -25.9089  -34.9400   23.5052 C   0  0  0  0  0  0
  -16.5378  -29.9150   23.6401 C   0  0  0  0  0  0
  -16.7294  -28.6611   23.0341 C   0  0  0  0  0  0
  -26.4587  -31.6530   25.0625 C   0  0  0  0  0  0
  -25.3758  -31.3735   26.1327 C   0  0  0  0  0  0
  -27.0477  -30.2952   24.6185 C   0  0  0  0  0  0
  -27.6105  -32.4254   25.7442 C   0  0  0  0  0  0
  -27.5541  -37.1750   24.8489 C   0  0  0  0  0  0
  -21.4315  -29.3085   22.3615 N   0  0  0  0  0  0
  -26.4236  -37.3758   23.9459 N   0  0  0  0  0  0
  -24.7373  -31.0151   22.0850 N   0  0  0  0  0  0
  -23.4206  -28.8188   23.3164 O   0  0  0  0  0  0
  -28.2145  -25.9834   20.2194 O   0  0  0  0  0  0
  -26.5677  -34.8941   22.4624 O   0  0  0  0  0  0
  -23.5744  -32.1256   23.7019 O   0  0  0  0  0  0
  -30.9866  -21.3331   20.7983 C   0  0  0  0  0  0
  -31.3271  -22.6448   20.5510 C   0  0  0  0  0  0
  -29.6223  -20.8005   20.5221 C   0  0  0  0  0  0
  -30.3332  -23.6603   20.1432 C   0  0  0  0  0  0
  -32.9774  -20.5481   22.3460 C   0  0  0  0  0  0
  -31.8855  -19.5422   22.5018 C   0  0  0  0  0  0
  -33.2639  -24.5393   20.6612 C   0  0  0  0  0  0
  -33.6892  -23.4888   21.6357 C   0  0  0  0  0  0
  -28.7070  -18.3555   21.6464 C   0  0  0  0  0  0
  -28.7876  -16.7728   21.4255 C   0  0  0  0  0  0
  -32.0120  -20.3178   21.1986 C   0  0  0  0  0  0
  -32.7782  -23.0962   20.4811 C   0  0  0  0  0  0
  -29.2958  -19.0994   20.4174 C   0  0  2  0  0  0
  -30.3287  -17.8237   20.0378 C   0  0  2  0  0  0
  -30.7295  -17.8396   18.5529 C   0  0  0  0  0  0
  -27.8614  -24.3132   18.3586 C   0  0  0  0  0  0
  -27.9841  -24.4544   19.8960 C   0  0  1  0  0  0
  -28.7258  -21.8118   20.3251 N   0  0  0  0  0  0
  -29.0339  -23.3096   20.2994 N   0  0  0  0  0  0
  -29.8758  -16.3824   20.4953 N   0  0  0  0  0  0
  -30.6508  -24.7415   19.6367 O   0  0  0  0  0  0
  -31.4700  -12.8295   19.2440 H   0  0  0  0  0  0
  -30.4317  -11.7614   20.1349 H   0  0  0  0  0  0
  -29.8933  -11.7622   17.6511 H   0  0  0  0  0  0
  -29.6034  -13.4886   17.7254 H   0  0  0  0  0  0
  -28.0073  -11.2779   19.0523 H   0  0  0  0  0  0
  -27.4148  -12.3989   17.8514 H   0  0  0  0  0  0
  -27.5613  -14.2563   19.3681 H   0  0  0  0  0  0
  -28.7730  -12.4396   21.5266 H   0  0  0  0  0  0
  -28.3086  -14.1130   21.7236 H   0  0  0  0  0  0
  -25.2778   -9.5665   22.4764 H   0  0  0  0  0  0
  -24.0039   -7.4628   22.7467 H   0  0  0  0  0  0
  -21.0846   -8.8833   19.8959 H   0  0  0  0  0  0
  -22.3775  -10.9690   19.6169 H   0  0  0  0  0  0
  -21.2060   -7.6195   23.9785 H   0  0  0  0  0  0
  -21.1449   -6.0520   25.9087 H   0  0  0  0  0  0
  -22.0582   -2.7649   23.2809 H   0  0  0  0  0  0
  -22.4035  -11.9879   22.4805 H   0  0  0  0  0  0
  -21.1053  -13.1295   22.2656 H   0  0  0  0  0  0
  -24.6341  -15.8483   20.6108 H   0  0  0  0  0  0
  -26.2482  -15.6586   20.1469 H   0  0  0  0  0  0
  -26.7411  -32.5223   23.0865 H   0  0  0  0  0  0
  -25.0111  -33.9482   25.0240 H   0  0  0  0  0  0
  -22.7633  -31.2918   21.3897 H   0  0  0  0  0  0
  -23.3740  -35.9510   23.3297 H   0  0  0  0  0  0
  -24.3533  -36.8850   22.2063 H   0  0  0  0  0  0
  -23.7139  -37.6383   23.6676 H   0  0  0  0  0  0
  -26.1663  -31.4192   20.5761 H   0  0  0  0  0  0
  -26.8990  -30.7478   22.0008 H   0  0  0  0  0  0
  -28.1422  -28.7102   21.1677 H   0  0  0  0  0  0
  -25.7165  -25.7317   19.1931 H   0  0  0  0  0  0
  -23.8963  -27.2574   19.0889 H   0  0  0  0  0  0
  -23.8322  -30.5649   19.4062 H   0  0  0  0  0  0
  -22.7732  -29.2601   19.8531 H   0  0  0  0  0  0
  -25.1257  -36.1807   25.0817 H   0  0  0  0  0  0
  -20.9970  -28.3409   24.1395 H   0  0  0  0  0  0
  -20.5805  -26.2404   23.3631 H   0  0  0  0  0  0
  -21.6679  -26.7597   22.1147 H   0  0  0  0  0  0
  -19.6939  -25.6395   21.1252 H   0  0  0  0  0  0
  -19.6697  -27.3303   20.6774 H   0  0  0  0  0  0
  -17.4223  -26.6740   21.4061 H   0  0  0  0  0  0
  -18.0347  -26.0178   22.9073 H   0  0  0  0  0  0
  -19.7972  -30.7415   24.2133 H   0  0  0  0  0  0
  -17.5066  -31.6318   24.5255 H   0  0  0  0  0  0
  -15.5388  -30.3044   23.7821 H   0  0  0  0  0  0
  -15.8684  -28.0979   22.7015 H   0  0  0  0  0  0
  -24.5963  -30.7050   25.7658 H   0  0  0  0  0  0
  -24.8928  -32.2927   26.4640 H   0  0  0  0  0  0
  -25.8051  -30.8990   27.0163 H   0  0  0  0  0  0
  -26.3138  -29.6655   24.1159 H   0  0  0  0  0  0
  -27.4116  -29.7249   25.4730 H   0  0  0  0  0  0
  -27.8978  -30.4241   23.9496 H   0  0  0  0  0  0
  -27.2737  -33.3601   26.1926 H   0  0  0  0  0  0
  -28.3993  -32.6715   25.0320 H   0  0  0  0  0  0
  -28.0674  -31.8403   26.5436 H   0  0  0  0  0  0
  -28.2582  -38.0027   24.7570 H   0  0  0  0  0  0
  -28.1011  -36.2577   24.6257 H   0  0  0  0  0  0
  -27.2293  -37.1334   25.8900 H   0  0  0  0  0  0
  -20.9605  -29.8644   21.6595 H   0  0  0  0  0  0
  -26.0098  -38.2814   24.1507 H   0  0  0  0  0  0
  -33.9943  -20.1843   22.2153 H   0  0  0  0  0  0
  -32.8716  -21.4272   22.9696 H   0  0  0  0  0  0
  -31.0498  -19.7951   23.1534 H   0  0  0  0  0  0
  -32.1999  -18.5000   22.5151 H   0  0  0  0  0  0
  -33.9402  -24.9015   19.8888 H   0  0  0  0  0  0
  -32.6399  -25.3129   21.1131 H   0  0  0  0  0  0
  -33.3000  -23.6521   22.6371 H   0  0  0  0  0  0
  -34.7209  -23.1468   21.5937 H   0  0  0  0  0  0
  -29.2565  -18.5922   22.5545 H   0  0  0  0  0  0
  -27.6896  -18.6912   21.8458 H   0  0  0  0  0  0
  -28.9175  -16.2582   22.3831 H   0  0  0  0  0  0
  -27.8556  -16.4106   20.9956 H   0  0  0  0  0  0
  -32.3966  -19.7683   20.3411 H   0  0  0  0  0  0
  -33.2680  -22.5604   19.6704 H   0  0  0  0  0  0
  -28.5042  -19.0312   19.6715 H   0  0  0  0  0  0
  -31.2487  -17.9306   20.6003 H   0  0  0  0  0  0
  -31.6347  -17.2538   18.3775 H   0  0  0  0  0  0
  -30.9420  -18.8511   18.2094 H   0  0  0  0  0  0
  -29.9417  -17.4366   17.9183 H   0  0  0  0  0  0
  -27.7915  -23.2598   18.0746 H   0  0  0  0  0  0
  -28.7502  -24.7345   17.8903 H   0  0  0  0  0  0
  -27.0034  -24.8270   17.9437 H   0  0  0  0  0  0
  -27.0538  -24.1511   20.3803 H   0  0  0  0  0  0
  1 25  1  0  0  0
  1 30  2  0  0  0
  1 90  1  0  0  0
  2  3  1  0  0  0
  2 25  1  0  0  0
  2 92  1  0  0  0
  2 93  1  0  0  0
  3  4  1  0  0  0
  3 94  1  0  0  0
  3 95  1  0  0  0
  4  5  1  0  0  0
  4 96  1  0  0  0
  4 97  1  0  0  0
  5  6  1  0  0  0
  5 26  1  0  0  0
  5 98  1  0  0  0
  6 25  1  0  0  0
  6 99  1  0  0  0
  6100  1  0  0  0
  7  8  2  0  0  0
  7 26  1  0  0  0
  7 29  1  0  0  0
  8  9  1  0  0  0
  8 22  1  0  0  0
  9 10  1  0  0  0
  9 27  2  0  0  0
 10 11  2  0  0  0
 10 15  1  0  0  0
 11 12  1  0  0  0
 11101  1  0  0  0
 12 13  2  0  0  0
 12102  1  0  0  0
 13 14  1  0  0  0
 13 31  1  0  0  0
 14 15  2  0  0  0
 14103  1  0  0  0
 15104  1  0  0  0
 16 17  2  0  0  0
 16 21  1  0  0  0
 16 31  1  0  0  0
 17 18  1  0  0  0
 17105  1  0  0  0
 18 19  2  0  0  0
 18106  1  0  0  0
 19 20  1  0  0  0
 19 24  1  0  0  0
 20 21  2  0  0  0
 20107  1  0  0  0
 21 23  1  0  0  0
 22 28  1  0  0  0
 22 32  2  0  0  0
 26 27  1  0  0  0
 28108  1  0  0  0
 28109  1  0  0  0
 29110  1  0  0  0
 29111  1  0  0  0
 33 34  1  0  0  0
 33 66  1  0  0  0
 33 70  2  0  0  0
 34 36  1  0  0  0
 34 59  1  0  0  0
 34112  1  0  0  0
 35 44  2  0  0  0
 35 45  1  0  0  0
 35 68  1  0  0  0
 36 56  1  0  0  0
 36113  1  0  0  0
 37 39  1  0  0  0
 37 47  1  0  0  0
 37 66  1  0  0  0
 37114  1  0  0  0
 38 43  2  0  0  0
 38 46  1  0  0  0
 38 47  1  0  0  0
 39 64  1  0  0  0
 39 67  2  0  0  0
 40 52  1  0  0  0
 40 53  2  0  0  0
 40 58  1  0  0  0
 41115  1  0  0  0
 41116  1  0  0  0
 41117  1  0  0  0
 41 48  1  0  0  0
 42 43  1  0  0  0
 42 66  1  0  0  0
 42118  1  0  0  0
 42119  1  0  0  0
 43 44  1  0  0  0
 44120  1  0  0  0
 45 46  2  0  0  0
 45121  1  0  0  0
 46122  1  0  0  0
 47123  1  0  0  0
 47124  1  0  0  0
 48 56  1  0  0  0
 48 65  1  0  0  0
 48125  1  0  0  0
 49 50  1  0  0  0
 49 53  1  0  0  0
 49 64  1  0  0  0
 49126  1  0  0  0
 50 51  1  0  0  0
 50127  1  0  0  0
 50128  1  0  0  0
 51 52  1  0  0  0
 51129  1  0  0  0
 51130  1  0  0  0
 52131  1  0  0  0
 52132  1  0  0  0
 53 54  1  0  0  0
 54 55  2  0  0  0
 54133  1  0  0  0
 55 57  1  0  0  0
 55134  1  0  0  0
 56 69  2  0  0  0
 57 58  2  0  0  0
 57135  1  0  0  0
 58136  1  0  0  0
 59 60  1  0  0  0
 59 61  1  0  0  0
 59 62  1  0  0  0
 60137  1  0  0  0
 60138  1  0  0  0
 60139  1  0  0  0
 61140  1  0  0  0
 61141  1  0  0  0
 61142  1  0  0  0
 62143  1  0  0  0
 62144  1  0  0  0
 62145  1  0  0  0
 63 65  1  0  0  0
 63146  1  0  0  0
 63147  1  0  0  0
 63148  1  0  0  0
 64149  1  0  0  0
 65150  1  0  0  0
 68 87  1  0  0  0
 71 72  2  0  0  0
 71 73  1  0  0  0
 71 81  1  0  0  0
 72 74  1  0  0  0
 72 82  1  0  0  0
 73 88  2  0  0  0
 73 83  1  0  0  0
 74 89  1  0  0  0
 74 91  2  0  0  0
 75 76  1  0  0  0
 75 81  1  0  0  0
 75151  1  0  0  0
 75152  1  0  0  0
 76 81  1  0  0  0
 76153  1  0  0  0
 76154  1  0  0  0
 77 78  1  0  0  0
 77 82  1  0  0  0
 77155  1  0  0  0
 77156  1  0  0  0
 78 82  1  0  0  0
 78157  1  0  0  0
 78158  1  0  0  0
 79 80  1  0  0  0
 79 83  1  0  0  0
 79159  1  0  0  0
 79160  1  0  0  0
 80 90  1  0  0  0
 80161  1  0  0  0
 80162  1  0  0  0
 81163  1  0  0  0
 82164  1  0  0  0
 83 84  1  0  0  0
 83165  1  0  0  0
 84 85  1  0  0  0
 84 90  1  0  0  0
 84166  1  0  0  0
 85167  1  0  0  0
 85168  1  0  0  0
 85169  1  0  0  0
 86170  1  0  0  0
 86171  1  0  0  0
 86172  1  0  0  0
 86 87  1  0  0  0
 87 89  1  0  0  0
 87173  1  0  0  0
 88 89  1  0  0  0
M  ISO  4   1 100  68 101  87 101  90 100
M  END
> <chiral flag>
0

> <version>
0

> <s_m_source_file>
/data/baiqing/PycharmProjects/Reinvent-master-3.2/result/LINK_invent/BTK/process_docking_weight1_custom_sum_contain_oxygen_bond_distance_aromatic_linkinvent_7_9_3/rearranged_h_0175.sdf

> <i_m_source_file_index>
6

> <r_mmod_Potential_Energy-OPLS-2005>
1259.75146484375

> <r_mmod_Stretch_Energy-OPLS-2005>
421.478149414062

> <r_mmod_Bend_Energy-OPLS-2005>
368.993591308594

> <r_mmod_Torsional_Energy-OPLS-2005>
353.052520751953

> <r_mmod_Improper_Torsional_Energy-OPLS-2005>
11.0724058151245

> <r_mmod_Van_der_Waal_Energy-OPLS-2005>
151.939407348633

> <r_mmod_Electrostatic_Energy-OPLS-2005>
-137.805099487305

> <r_mmod_Solvation_Energy-OPLS-2005>
-210.037185668945

> <b_mmod_Minimization_Converged-OPLS-2005>
0

> <r_mmod_RMS_Derivative-OPLS-2005>
8.01472949981689

$$$$
6
                    3D
 Structure written by MMmdl.
157166  0  0  1  0            999 V2000
  -30.4041  -15.3866   20.3492 C   0  0  0  0  0  0
  -30.4347  -12.8942   19.5363 C   0  0  0  0  0  0
  -29.5412  -12.6000   18.3027 C   0  0  0  0  0  0
  -28.0968  -12.3011   18.7345 C   0  0  0  0  0  0
  -27.6071  -13.2888   19.8216 C   0  0  2  0  0  0
  -28.6359  -13.5178   20.9519 C   0  0  0  0  0  0
  -25.2366  -13.8270   20.5774 C   0  0  0  0  0  0
  -24.1734  -13.0440   20.9275 C   0  0  0  0  0  0
  -24.6412  -11.6942   20.8775 C   0  0  0  0  0  0
  -23.9114  -10.4297   21.0418 C   0  0  0  0  0  0
  -24.3655   -9.4208   21.9190 C   0  0  0  0  0  0
  -23.6315   -8.2251   22.0761 C   0  0  0  0  0  0
  -22.4294   -8.0297   21.3552 C   0  0  0  0  0  0
  -21.9942   -9.0277   20.4653 C   0  0  0  0  0  0
  -22.7288  -10.2144   20.3061 C   0  0  0  0  0  0
  -21.6857   -6.0753   22.5280 C   0  0  0  0  0  0
  -21.4018   -6.5654   23.8217 C   0  0  0  0  0  0
  -21.3656   -5.6800   24.9179 C   0  0  0  0  0  0
  -21.6038   -4.3063   24.7222 C   0  0  0  0  0  0
  -21.8818   -3.8163   23.4342 C   0  0  0  0  0  0
  -21.9191   -4.6981   22.3405 C   0  0  0  0  0  0
  -22.7747  -13.5183   21.1915 C   0  0  0  0  0  0
  -22.1659   -4.2168   21.0977 F   0  0  0  0  0  0
  -21.5623   -3.4543   25.7735 F   0  0  0  0  0  0
  -29.8516  -14.0593   20.3161 N   0  0  0  0  0  0
  -26.2809  -12.9570   20.3245 N   0  0  0  0  0  0
  -25.9351  -11.6661   20.5733 N   0  0  0  0  0  0
  -22.0405  -12.8169   22.0464 N   0  0  0  0  0  0
  -25.3962  -15.2013   20.4212 N   0  0  0  0  0  0
  -31.6263  -15.3585   20.1338 O   0  0  0  0  0  0
  -21.6644   -6.8903   21.4247 O   0  0  0  0  0  0
  -22.3427  -14.5485   20.6751 O   0  0  0  0  0  0
  -24.6716  -31.8142   23.1644 C   0  0  0  0  0  0
  -25.9360  -32.4535   23.8131 C   0  0  1  0  0  0
  -27.2227  -26.8481   20.1901 C   0  0  0  0  0  0
  -25.5995  -33.8357   24.2025 N   0  0  0  0  0  0
  -23.4901  -30.4230   21.5137 C   0  0  2  0  0  0
  -24.9456  -28.7962   20.1083 C   0  0  0  0  0  0
  -22.7713  -29.4390   22.4741 C   0  0  0  0  0  0
  -18.0335  -28.1400   22.8460 C   0  0  0  0  0  0
  -24.1479  -36.7186   23.2652 C   0  0  0  0  0  0
  -26.0634  -30.5936   21.4085 C   0  0  0  0  0  0
  -26.1293  -29.1758   20.7519 C   0  0  0  0  0  0
  -27.2572  -28.2242   20.7690 C   0  0  0  0  0  0
  -26.0145  -26.6464   19.4825 C   0  0  0  0  0  0
  -24.9199  -27.5550   19.4503 C   0  0  0  0  0  0
  -23.7341  -29.7338   20.1415 C   0  0  0  0  0  0
  -25.4123  -36.2928   24.0286 C   0  0  1  0  0  0
  -20.5962  -28.3749   23.1158 C   0  0  2  0  0  0
  -20.6795  -26.9415   22.5399 C   0  0  0  0  0  0
  -19.5771  -26.6358   21.5210 C   0  0  0  0  0  0
  -18.1953  -26.7932   22.1613 C   0  0  0  0  0  0
  -19.1599  -28.8899   23.2790 C   0  0  0  0  0  0
  -18.9512  -30.1489   23.8821 C   0  0  0  0  0  0
  -17.6503  -30.6590   24.0543 C   0  0  0  0  0  0
  -25.9104  -34.9319   23.4982 C   0  0  0  0  0  0
  -16.5390  -29.9073   23.6343 C   0  0  0  0  0  0
  -16.7315  -28.6496   23.0356 C   0  0  0  0  0  0
  -26.4578  -31.6526   25.0708 C   0  0  0  0  0  0
  -25.3667  -31.3818   26.1344 C   0  0  0  0  0  0
  -27.0502  -30.2872   24.6541 C   0  0  0  0  0  0
  -27.6031  -32.4391   25.7514 C   0  0  0  0  0  0
  -27.5554  -37.1741   24.8467 C   0  0  0  0  0  0
  -21.4372  -29.3034   22.3497 N   0  0  0  0  0  0
  -26.4260  -37.3681   23.9413 N   0  0  0  0  0  0
  -24.7633  -30.9727   22.0818 N   0  0  0  0  0  0
  -23.4216  -28.7963   23.3019 O   0  0  0  0  0  0
  -28.1999  -25.6951   20.3068 O   0  0  0  0  0  0
  -26.5717  -34.8872   22.4583 O   0  0  0  0  0  0
  -23.5764  -32.1171   23.6666 O   0  0  0  0  0  0
  -28.5485  -20.2929   21.8046 C   0  0  0  0  0  0
  -28.1173  -21.8337   21.7514 C   0  0  0  0  0  0
  -28.2092  -20.9539   19.5168 C   0  0  0  0  0  0
  -29.2006  -20.0448   20.4307 C   0  0  1  0  0  0
  -28.5823  -22.3184   20.3601 C   0  0  2  0  0  0
  -29.9944  -21.4909   20.1527 C   0  0  0  0  0  0
  -31.0888  -21.8189   21.1907 C   0  0  0  0  0  0
  -30.7864  -21.6687   18.8216 C   0  0  0  0  0  0
  -29.9636  -18.3591   20.1693 C   0  0  0  0  0  0
  -28.0343  -24.0585   19.9221 C   0  0  0  0  0  0
  -29.6576  -16.6992   20.4241 N   0  0  0  0  0  0
  -31.4479  -13.1099   19.1956 H   0  0  0  0  0  0
  -30.5264  -12.0088   20.1682 H   0  0  0  0  0  0
  -29.9442  -11.7624   17.7313 H   0  0  0  0  0  0
  -29.5510  -13.4626   17.6352 H   0  0  0  0  0  0
  -28.0750  -11.2851   19.1311 H   0  0  0  0  0  0
  -27.4276  -12.3099   17.8736 H   0  0  0  0  0  0
  -27.5048  -14.2414   19.3001 H   0  0  0  0  0  0
  -28.8332  -12.6006   21.5094 H   0  0  0  0  0  0
  -28.2531  -14.2433   21.6716 H   0  0  0  0  0  0
  -25.2790   -9.5680   22.4778 H   0  0  0  0  0  0
  -24.0012   -7.4644   22.7488 H   0  0  0  0  0  0
  -21.0869   -8.8817   19.8961 H   0  0  0  0  0  0
  -22.3752  -10.9697   19.6181 H   0  0  0  0  0  0
  -21.2015   -7.6160   23.9730 H   0  0  0  0  0  0
  -21.1473   -6.0528   25.9081 H   0  0  0  0  0  0
  -22.0595   -2.7623   23.2839 H   0  0  0  0  0  0
  -22.4023  -11.9834   22.4855 H   0  0  0  0  0  0
  -21.1021  -13.1197   22.2675 H   0  0  0  0  0  0
  -24.6228  -15.8471   20.5374 H   0  0  0  0  0  0
  -26.2331  -15.6469   20.0681 H   0  0  0  0  0  0
  -26.7439  -32.5042   23.0839 H   0  0  0  0  0  0
  -25.0087  -33.9414   25.0140 H   0  0  0  0  0  0
  -22.8078  -31.2570   21.3372 H   0  0  0  0  0  0
  -23.3741  -35.9516   23.3293 H   0  0  0  0  0  0
  -24.3545  -36.8875   22.2074 H   0  0  0  0  0  0
  -23.7257  -37.6370   23.6739 H   0  0  0  0  0  0
  -26.2530  -31.3305   20.6265 H   0  0  0  0  0  0
  -26.9190  -30.6512   22.0695 H   0  0  0  0  0  0
  -28.1469  -28.5138   21.3091 H   0  0  0  0  0  0
  -25.8731  -25.7030   18.9754 H   0  0  0  0  0  0
  -24.0252  -27.2609   18.9200 H   0  0  0  0  0  0
  -23.8958  -30.5024   19.3848 H   0  0  0  0  0  0
  -22.8417  -29.1947   19.8198 H   0  0  0  0  0  0
  -25.1323  -36.1691   25.0773 H   0  0  0  0  0  0
  -21.0049  -28.3361   24.1284 H   0  0  0  0  0  0
  -20.5660  -26.2368   23.3652 H   0  0  0  0  0  0
  -21.6655  -26.7366   22.1212 H   0  0  0  0  0  0
  -19.6914  -25.6251   21.1283 H   0  0  0  0  0  0
  -19.6707  -27.3121   20.6699 H   0  0  0  0  0  0
  -17.4222  -26.6687   21.4008 H   0  0  0  0  0  0
  -18.0330  -26.0077   22.9012 H   0  0  0  0  0  0
  -19.7990  -30.7322   24.2147 H   0  0  0  0  0  0
  -17.5060  -31.6264   24.5153 H   0  0  0  0  0  0
  -15.5388  -30.2943   23.7721 H   0  0  0  0  0  0
  -15.8718  -28.0798   22.7090 H   0  0  0  0  0  0
  -24.5851  -30.7161   25.7671 H   0  0  0  0  0  0
  -24.8850  -32.3035   26.4610 H   0  0  0  0  0  0
  -25.7866  -30.9099   27.0237 H   0  0  0  0  0  0
  -26.3201  -29.6503   24.1536 H   0  0  0  0  0  0
  -27.3970  -29.7291   25.5252 H   0  0  0  0  0  0
  -27.9163  -30.4026   24.0025 H   0  0  0  0  0  0
  -27.2561  -33.3756   26.1892 H   0  0  0  0  0  0
  -28.3929  -32.6870   25.0411 H   0  0  0  0  0  0
  -28.0595  -31.8672   26.5603 H   0  0  0  0  0  0
  -28.2540  -38.0061   24.7497 H   0  0  0  0  0  0
  -28.1076  -36.2582   24.6298 H   0  0  0  0  0  0
  -27.2268  -37.1396   25.8871 H   0  0  0  0  0  0
  -20.9636  -29.8758   21.6644 H   0  0  0  0  0  0
  -26.0083  -38.2726   24.1438 H   0  0  0  0  0  0
  -27.6795  -19.6515   21.9527 H   0  0  0  0  0  0
  -29.2353  -20.0907   22.6268 H   0  0  0  0  0  0
  -28.5712  -22.4106   22.5573 H   0  0  0  0  0  0
  -27.0364  -21.9325   21.8635 H   0  0  0  0  0  0
  -27.1632  -20.6668   19.6442 H   0  0  0  0  0  0
  -28.3714  -20.9505   18.4389 H   0  0  0  0  0  0
  -30.7496  -21.7564   22.2218 H   0  0  0  0  0  0
  -31.4740  -22.8316   21.0657 H   0  0  0  0  0  0
  -31.9368  -21.1368   21.1134 H   0  0  0  0  0  0
  -31.5830  -20.9271   18.7359 H   0  0  0  0  0  0
  -31.2648  -22.6481   18.7714 H   0  0  0  0  0  0
  -30.2084  -21.5966   17.9027 H   0  0  0  0  0  0
  -30.9301  -18.4436   20.6684 H   0  0  0  0  0  0
  -30.2478  -18.3572   19.1169 H   0  0  0  0  0  0
  -26.9501  -23.9709   19.9738 H   0  0  0  0  0  0
  -28.2182  -24.1131   18.8486 H   0  0  0  0  0  0
  -28.6773  -16.5300   20.5962 H   0  0  0  0  0  0
  1 25  1  0  0  0
  1 30  2  0  0  0
  1 81  1  0  0  0
  2  3  1  0  0  0
  2 25  1  0  0  0
  2 82  1  0  0  0
  2 83  1  0  0  0
  3  4  1  0  0  0
  3 84  1  0  0  0
  3 85  1  0  0  0
  4  5  1  0  0  0
  4 86  1  0  0  0
  4 87  1  0  0  0
  5  6  1  0  0  0
  5 26  1  0  0  0
  5 88  1  0  0  0
  6 25  1  0  0  0
  6 89  1  0  0  0
  6 90  1  0  0  0
  7  8  2  0  0  0
  7 26  1  0  0  0
  7 29  1  0  0  0
  8  9  1  0  0  0
  8 22  1  0  0  0
  9 10  1  0  0  0
  9 27  2  0  0  0
 10 11  2  0  0  0
 10 15  1  0  0  0
 11 12  1  0  0  0
 11 91  1  0  0  0
 12 13  2  0  0  0
 12 92  1  0  0  0
 13 14  1  0  0  0
 13 31  1  0  0  0
 14 15  2  0  0  0
 14 93  1  0  0  0
 15 94  1  0  0  0
 16 17  2  0  0  0
 16 21  1  0  0  0
 16 31  1  0  0  0
 17 18  1  0  0  0
 17 95  1  0  0  0
 18 19  2  0  0  0
 18 96  1  0  0  0
 19 20  1  0  0  0
 19 24  1  0  0  0
 20 21  2  0  0  0
 20 97  1  0  0  0
 21 23  1  0  0  0
 22 28  1  0  0  0
 22 32  2  0  0  0
 26 27  1  0  0  0
 28 98  1  0  0  0
 28 99  1  0  0  0
 29100  1  0  0  0
 29101  1  0  0  0
 33 34  1  0  0  0
 33 66  1  0  0  0
 33 70  2  0  0  0
 34 36  1  0  0  0
 34 59  1  0  0  0
 34102  1  0  0  0
 35 44  2  0  0  0
 35 45  1  0  0  0
 35 68  1  0  0  0
 36 56  1  0  0  0
 36103  1  0  0  0
 37 39  1  0  0  0
 37 47  1  0  0  0
 37 66  1  0  0  0
 37104  1  0  0  0
 38 43  2  0  0  0
 38 46  1  0  0  0
 38 47  1  0  0  0
 39 64  1  0  0  0
 39 67  2  0  0  0
 40 52  1  0  0  0
 40 53  2  0  0  0
 40 58  1  0  0  0
 41105  1  0  0  0
 41106  1  0  0  0
 41107  1  0  0  0
 41 48  1  0  0  0
 42 43  1  0  0  0
 42 66  1  0  0  0
 42108  1  0  0  0
 42109  1  0  0  0
 43 44  1  0  0  0
 44110  1  0  0  0
 45 46  2  0  0  0
 45111  1  0  0  0
 46112  1  0  0  0
 47113  1  0  0  0
 47114  1  0  0  0
 48 56  1  0  0  0
 48 65  1  0  0  0
 48115  1  0  0  0
 49 50  1  0  0  0
 49 53  1  0  0  0
 49 64  1  0  0  0
 49116  1  0  0  0
 50 51  1  0  0  0
 50117  1  0  0  0
 50118  1  0  0  0
 51 52  1  0  0  0
 51119  1  0  0  0
 51120  1  0  0  0
 52121  1  0  0  0
 52122  1  0  0  0
 53 54  1  0  0  0
 54 55  2  0  0  0
 54123  1  0  0  0
 55 57  1  0  0  0
 55124  1  0  0  0
 56 69  2  0  0  0
 57 58  2  0  0  0
 57125  1  0  0  0
 58126  1  0  0  0
 59 60  1  0  0  0
 59 61  1  0  0  0
 59 62  1  0  0  0
 60127  1  0  0  0
 60128  1  0  0  0
 60129  1  0  0  0
 61130  1  0  0  0
 61131  1  0  0  0
 61132  1  0  0  0
 62133  1  0  0  0
 62134  1  0  0  0
 62135  1  0  0  0
 63 65  1  0  0  0
 63136  1  0  0  0
 63137  1  0  0  0
 63138  1  0  0  0
 64139  1  0  0  0
 65140  1  0  0  0
 68 80  1  0  0  0
 71 72  1  0  0  0
 71 74  1  0  0  0
 71141  1  0  0  0
 71142  1  0  0  0
 72 75  1  0  0  0
 72143  1  0  0  0
 72144  1  0  0  0
 73 74  1  0  0  0
 73 75  1  0  0  0
 73145  1  0  0  0
 73146  1  0  0  0
 74 76  1  0  0  0
 74 79  1  0  0  0
 75 76  1  0  0  0
 75 80  1  0  0  0
 76 77  1  0  0  0
 76 78  1  0  0  0
 77147  1  0  0  0
 77148  1  0  0  0
 77149  1  0  0  0
 78150  1  0  0  0
 78151  1  0  0  0
 78152  1  0  0  0
 79 81  1  0  0  0
 79153  1  0  0  0
 79154  1  0  0  0
 80155  1  0  0  0
 80156  1  0  0  0
 81157  1  0  0  0
M  ISO  4   1 100  68 101  80 101  81 100
M  END
> <chiral flag>
0

> <version>
0

> <s_m_source_file>
/data/baiqing/PycharmProjects/Reinvent-master-3.2/result/LINK_invent/BTK/process_docking_weight1_custom_sum_contain_oxygen_bond_distance_aromatic_linkinvent_7_9_3/rearranged_h_0175.sdf

> <i_m_source_file_index>
7

> <r_mmod_Potential_Energy-OPLS-2005>
1813.1591796875

> <r_mmod_Stretch_Energy-OPLS-2005>
749.487121582031

> <r_mmod_Bend_Energy-OPLS-2005>
681.738098144531

> <r_mmod_Torsional_Energy-OPLS-2005>
253.253631591797

> <r_mmod_Improper_Torsional_Energy-OPLS-2005>
4.03946971893311

> <r_mmod_Van_der_Waal_Energy-OPLS-2005>
129.011215209961

> <r_mmod_Electrostatic_Energy-OPLS-2005>
-389.563812255859

> <r_mmod_Solvation_Energy-OPLS-2005>
-207.50846862793

> <b_mmod_Minimization_Converged-OPLS-2005>
0

> <r_mmod_RMS_Derivative-OPLS-2005>
1.61191928386688

$$$$
7
                    3D
 Structure written by MMmdl.
160169  0  0  1  0            999 V2000
  -30.5722  -14.9699   20.4233 C   0  0  0  0  0  0
  -30.4286  -12.6071   19.5017 C   0  0  0  0  0  0
  -29.5170  -12.5301   18.2570 C   0  0  0  0  0  0
  -28.0524  -12.3150   18.6781 C   0  0  0  0  0  0
  -27.6241  -13.2578   19.8341 C   0  0  2  0  0  0
  -28.6664  -13.3215   20.9704 C   0  0  0  0  0  0
  -25.2444  -13.8239   20.5737 C   0  0  0  0  0  0
  -24.1766  -13.0449   20.9233 C   0  0  0  0  0  0
  -24.6397  -11.6939   20.8757 C   0  0  0  0  0  0
  -23.9085  -10.4301   21.0406 C   0  0  0  0  0  0
  -24.3633   -9.4214   21.9182 C   0  0  0  0  0  0
  -23.6305   -8.2250   22.0753 C   0  0  0  0  0  0
  -22.4285   -8.0288   21.3545 C   0  0  0  0  0  0
  -21.9926   -9.0262   20.4644 C   0  0  0  0  0  0
  -22.7259  -10.2139   20.3052 C   0  0  0  0  0  0
  -21.6855   -6.0743   22.5280 C   0  0  0  0  0  0
  -21.4014   -6.5644   23.8215 C   0  0  0  0  0  0
  -21.3658   -5.6795   24.9175 C   0  0  0  0  0  0
  -21.6041   -4.3057   24.7224 C   0  0  0  0  0  0
  -21.8819   -3.8151   23.4343 C   0  0  0  0  0  0
  -21.9194   -4.6970   22.3400 C   0  0  0  0  0  0
  -22.7785  -13.5211   21.1882 C   0  0  0  0  0  0
  -22.1663   -4.2154   21.0977 F   0  0  0  0  0  0
  -21.5627   -3.4539   25.7734 F   0  0  0  0  0  0
  -29.9344  -13.7291   20.3557 N   0  0  0  0  0  0
  -26.2870  -12.9490   20.3256 N   0  0  0  0  0  0
  -25.9331  -11.6608   20.5743 N   0  0  0  0  0  0
  -22.0440  -12.8192   22.0436 N   0  0  0  0  0  0
  -25.4124  -15.1966   20.4178 N   0  0  0  0  0  0
  -31.7802  -14.9674   20.1618 O   0  0  0  0  0  0
  -21.6645   -6.8888   21.4243 O   0  0  0  0  0  0
  -22.3459  -14.5511   20.6724 O   0  0  0  0  0  0
  -24.6466  -31.8419   23.1879 C   0  0  0  0  0  0
  -25.9226  -32.4684   23.8273 C   0  0  1  0  0  0
  -27.2087  -27.1097   20.1601 C   0  0  0  0  0  0
  -25.5969  -33.8491   24.2189 N   0  0  0  0  0  0
  -23.4522  -30.4626   21.5334 C   0  0  2  0  0  0
  -24.9028  -28.8892   20.1103 C   0  0  0  0  0  0
  -22.7586  -29.4540   22.4844 C   0  0  0  0  0  0
  -18.0308  -28.1403   22.8476 C   0  0  0  0  0  0
  -24.1487  -36.7239   23.2643 C   0  0  0  0  0  0
  -26.0111  -30.7072   21.3934 C   0  0  0  0  0  0
  -26.0821  -29.3160   20.7363 C   0  0  0  0  0  0
  -27.2391  -28.4429   20.7455 C   0  0  0  0  0  0
  -26.0129  -26.8048   19.4747 C   0  0  0  0  0  0
  -24.8828  -27.6472   19.4617 C   0  0  0  0  0  0
  -23.6813  -29.7944   20.1525 C   0  0  0  0  0  0
  -25.4121  -36.3021   24.0316 C   0  0  1  0  0  0
  -20.5924  -28.3731   23.1221 C   0  0  2  0  0  0
  -20.6794  -26.9431   22.5403 C   0  0  0  0  0  0
  -19.5765  -26.6385   21.5214 C   0  0  0  0  0  0
  -18.1945  -26.7943   22.1621 C   0  0  0  0  0  0
  -19.1568  -28.8886   23.2840 C   0  0  0  0  0  0
  -18.9483  -30.1481   23.8867 C   0  0  0  0  0  0
  -17.6479  -30.6597   24.0561 C   0  0  0  0  0  0
  -25.9075  -34.9399   23.5058 C   0  0  0  0  0  0
  -16.5369  -29.9089   23.6345 C   0  0  0  0  0  0
  -16.7292  -28.6510   23.0360 C   0  0  0  0  0  0
  -26.4540  -31.6559   25.0722 C   0  0  0  0  0  0
  -25.3715  -31.3756   26.1409 C   0  0  0  0  0  0
  -27.0415  -30.2952   24.6327 C   0  0  0  0  0  0
  -27.6064  -32.4331   25.7509 C   0  0  0  0  0  0
  -27.5569  -37.1779   24.8468 C   0  0  0  0  0  0
  -21.4275  -29.3052   22.3587 N   0  0  0  0  0  0
  -26.4278  -37.3741   23.9410 N   0  0  0  0  0  0
  -24.7233  -31.0257   22.0928 N   0  0  0  0  0  0
  -23.4213  -28.8087   23.3007 O   0  0  0  0  0  0
  -28.2101  -26.0625   20.2065 O   0  0  0  0  0  0
  -26.5658  -34.8900   22.4635 O   0  0  0  0  0  0
  -23.5577  -32.1302   23.7082 O   0  0  0  0  0  0
  -29.5743  -21.0663   19.6351 C   0  0  0  0  0  0
  -29.1986  -22.4822   19.6733 C   0  0  0  0  0  0
  -29.1779  -20.0590   20.5908 C   0  0  0  0  0  0
  -28.3529  -23.0901   20.6680 C   0  0  0  0  0  0
  -27.9065  -22.0695   21.6191 C   0  0  0  0  0  0
  -28.3508  -20.6618   21.5998 C   0  0  0  0  0  0
  -29.0531  -17.1119   21.2136 C   0  0  0  0  0  0
  -30.1982  -17.4669   19.5119 C   0  0  0  0  0  0
  -29.6976  -18.4606   20.6368 C   0  0  0  0  0  0
  -27.5182  -22.6538   24.1004 C   0  0  0  0  0  0
  -25.5575  -21.7169   22.7030 C   0  0  0  0  0  0
  -27.7589  -24.6646   20.7354 C   0  0  0  0  0  0
  -26.8861  -22.5009   22.7056 C   0  0  0  0  0  0
  -29.8635  -16.2129   20.3049 N   0  0  0  0  0  0
  -27.9269  -19.5912   22.8937 Cl  0  0  0  0  0  0
  -31.4644  -12.7474   19.1889 H   0  0  0  0  0  0
  -30.4125  -11.6657   20.0534 H   0  0  0  0  0  0
  -29.8408  -11.7246   17.5968 H   0  0  0  0  0  0
  -29.6026  -13.4531   17.6810 H   0  0  0  0  0  0
  -27.9535  -11.2763   18.9951 H   0  0  0  0  0  0
  -27.3881  -12.4357   17.8214 H   0  0  0  0  0  0
  -27.5776  -14.2540   19.3921 H   0  0  0  0  0  0
  -28.7607  -12.3615   21.4800 H   0  0  0  0  0  0
  -28.3636  -14.0510   21.7237 H   0  0  0  0  0  0
  -25.2778   -9.5686   22.4759 H   0  0  0  0  0  0
  -24.0010   -7.4639   22.7472 H   0  0  0  0  0  0
  -21.0858   -8.8780   19.8948 H   0  0  0  0  0  0
  -22.3718  -10.9676   19.6158 H   0  0  0  0  0  0
  -21.2007   -7.6152   23.9719 H   0  0  0  0  0  0
  -21.1477   -6.0524   25.9078 H   0  0  0  0  0  0
  -22.0599   -2.7612   23.2840 H   0  0  0  0  0  0
  -22.4076  -11.9864   22.4829 H   0  0  0  0  0  0
  -21.1047  -13.1190   22.2629 H   0  0  0  0  0  0
  -24.6485  -15.8528   20.5373 H   0  0  0  0  0  0
  -26.2680  -15.6356   20.1032 H   0  0  0  0  0  0
  -26.7291  -32.5283   23.0999 H   0  0  0  0  0  0
  -25.0112  -33.9608   25.0334 H   0  0  0  0  0  0
  -22.7564  -31.2897   21.3782 H   0  0  0  0  0  0
  -23.3761  -35.9560   23.3293 H   0  0  0  0  0  0
  -24.3570  -36.8880   22.2060 H   0  0  0  0  0  0
  -23.7229  -37.6427   23.6687 H   0  0  0  0  0  0
  -26.1721  -31.4599   20.6205 H   0  0  0  0  0  0
  -26.8799  -30.7567   22.0381 H   0  0  0  0  0  0
  -28.1335  -28.7629   21.2611 H   0  0  0  0  0  0
  -25.9271  -25.8607   18.9564 H   0  0  0  0  0  0
  -23.9882  -27.3203   18.9494 H   0  0  0  0  0  0
  -23.8224  -30.5701   19.3987 H   0  0  0  0  0  0
  -22.7955  -29.2394   19.8385 H   0  0  0  0  0  0
  -25.1311  -36.1842   25.0810 H   0  0  0  0  0  0
  -21.0016  -28.3324   24.1341 H   0  0  0  0  0  0
  -20.5689  -26.2345   23.3625 H   0  0  0  0  0  0
  -21.6657  -26.7434   22.1195 H   0  0  0  0  0  0
  -19.6923  -25.6289   21.1257 H   0  0  0  0  0  0
  -19.6702  -27.3184   20.6733 H   0  0  0  0  0  0
  -17.4216  -26.6690   21.4022 H   0  0  0  0  0  0
  -18.0338  -26.0093   22.9023 H   0  0  0  0  0  0
  -19.7959  -30.7308   24.2218 H   0  0  0  0  0  0
  -17.5033  -31.6274   24.5171 H   0  0  0  0  0  0
  -15.5368  -30.2981   23.7694 H   0  0  0  0  0  0
  -15.8690  -28.0821   22.7093 H   0  0  0  0  0  0
  -24.5909  -30.7088   25.7727 H   0  0  0  0  0  0
  -24.8892  -32.2943   26.4761 H   0  0  0  0  0  0
  -25.7993  -30.8977   27.0232 H   0  0  0  0  0  0
  -26.3047  -29.6662   24.1322 H   0  0  0  0  0  0
  -27.4005  -29.7263   25.4915 H   0  0  0  0  0  0
  -27.8962  -30.4182   23.9671 H   0  0  0  0  0  0
  -27.2658  -33.3663   26.2013 H   0  0  0  0  0  0
  -28.3919  -32.6844   25.0366 H   0  0  0  0  0  0
  -28.0686  -31.8503   26.5488 H   0  0  0  0  0  0
  -28.2582  -38.0080   24.7517 H   0  0  0  0  0  0
  -28.1068  -36.2612   24.6294 H   0  0  0  0  0  0
  -27.2288  -37.1419   25.8871 H   0  0  0  0  0  0
  -20.9490  -29.8758   21.6757 H   0  0  0  0  0  0
  -26.0138  -38.2802   24.1431 H   0  0  0  0  0  0
  -30.2231  -20.7520   18.8297 H   0  0  0  0  0  0
  -29.5702  -23.1198   18.8831 H   0  0  0  0  0  0
  -27.9825  -17.0469   21.0161 H   0  0  0  0  0  0
  -29.2416  -16.9678   22.2783 H   0  0  0  0  0  0
  -31.2561  -17.5899   19.2751 H   0  0  0  0  0  0
  -29.6070  -17.5480   18.5989 H   0  0  0  0  0  0
  -30.5809  -18.6017   21.2616 H   0  0  0  0  0  0
  -28.3502  -23.3581   24.0718 H   0  0  0  0  0  0
  -27.8985  -21.7172   24.5025 H   0  0  0  0  0  0
  -26.7918  -23.0407   24.8157 H   0  0  0  0  0  0
  -25.1281  -21.6839   21.7012 H   0  0  0  0  0  0
  -24.8273  -22.2089   23.3467 H   0  0  0  0  0  0
  -25.6339  -20.6956   23.0638 H   0  0  0  0  0  0
  -27.8131  -24.8999   21.7972 H   0  0  0  0  0  0
  -26.6994  -24.5445   20.5167 H   0  0  0  0  0  0
  -26.5044  -23.4881   22.4847 H   0  0  0  0  0  0
  1 25  1  0  0  0
  1 30  2  0  0  0
  1 84  1  0  0  0
  2  3  1  0  0  0
  2 25  1  0  0  0
  2 86  1  0  0  0
  2 87  1  0  0  0
  3  4  1  0  0  0
  3 88  1  0  0  0
  3 89  1  0  0  0
  4  5  1  0  0  0
  4 90  1  0  0  0
  4 91  1  0  0  0
  5  6  1  0  0  0
  5 26  1  0  0  0
  5 92  1  0  0  0
  6 25  1  0  0  0
  6 93  1  0  0  0
  6 94  1  0  0  0
  7  8  2  0  0  0
  7 26  1  0  0  0
  7 29  1  0  0  0
  8  9  1  0  0  0
  8 22  1  0  0  0
  9 10  1  0  0  0
  9 27  2  0  0  0
 10 11  2  0  0  0
 10 15  1  0  0  0
 11 12  1  0  0  0
 11 95  1  0  0  0
 12 13  2  0  0  0
 12 96  1  0  0  0
 13 14  1  0  0  0
 13 31  1  0  0  0
 14 15  2  0  0  0
 14 97  1  0  0  0
 15 98  1  0  0  0
 16 17  2  0  0  0
 16 21  1  0  0  0
 16 31  1  0  0  0
 17 18  1  0  0  0
 17 99  1  0  0  0
 18 19  2  0  0  0
 18100  1  0  0  0
 19 20  1  0  0  0
 19 24  1  0  0  0
 20 21  2  0  0  0
 20101  1  0  0  0
 21 23  1  0  0  0
 22 28  1  0  0  0
 22 32  2  0  0  0
 26 27  1  0  0  0
 28102  1  0  0  0
 28103  1  0  0  0
 29104  1  0  0  0
 29105  1  0  0  0
 33 34  1  0  0  0
 33 66  1  0  0  0
 33 70  2  0  0  0
 34 36  1  0  0  0
 34 59  1  0  0  0
 34106  1  0  0  0
 35 44  2  0  0  0
 35 45  1  0  0  0
 35 68  1  0  0  0
 36 56  1  0  0  0
 36107  1  0  0  0
 37 39  1  0  0  0
 37 47  1  0  0  0
 37 66  1  0  0  0
 37108  1  0  0  0
 38 43  2  0  0  0
 38 46  1  0  0  0
 38 47  1  0  0  0
 39 64  1  0  0  0
 39 67  2  0  0  0
 40 52  1  0  0  0
 40 53  2  0  0  0
 40 58  1  0  0  0
 41109  1  0  0  0
 41110  1  0  0  0
 41111  1  0  0  0
 41 48  1  0  0  0
 42 43  1  0  0  0
 42 66  1  0  0  0
 42112  1  0  0  0
 42113  1  0  0  0
 43 44  1  0  0  0
 44114  1  0  0  0
 45 46  2  0  0  0
 45115  1  0  0  0
 46116  1  0  0  0
 47117  1  0  0  0
 47118  1  0  0  0
 48 56  1  0  0  0
 48 65  1  0  0  0
 48119  1  0  0  0
 49 50  1  0  0  0
 49 53  1  0  0  0
 49 64  1  0  0  0
 49120  1  0  0  0
 50 51  1  0  0  0
 50121  1  0  0  0
 50122  1  0  0  0
 51 52  1  0  0  0
 51123  1  0  0  0
 51124  1  0  0  0
 52125  1  0  0  0
 52126  1  0  0  0
 53 54  1  0  0  0
 54 55  2  0  0  0
 54127  1  0  0  0
 55 57  1  0  0  0
 55128  1  0  0  0
 56 69  2  0  0  0
 57 58  2  0  0  0
 57129  1  0  0  0
 58130  1  0  0  0
 59 60  1  0  0  0
 59 61  1  0  0  0
 59 62  1  0  0  0
 60131  1  0  0  0
 60132  1  0  0  0
 60133  1  0  0  0
 61134  1  0  0  0
 61135  1  0  0  0
 61136  1  0  0  0
 62137  1  0  0  0
 62138  1  0  0  0
 62139  1  0  0  0
 63 65  1  0  0  0
 63140  1  0  0  0
 63141  1  0  0  0
 63142  1  0  0  0
 64143  1  0  0  0
 65144  1  0  0  0
 68 82  1  0  0  0
 71 72  2  0  0  0
 71 73  1  0  0  0
 71145  1  0  0  0
 72 74  1  0  0  0
 72146  1  0  0  0
 73 76  2  0  0  0
 73 79  1  0  0  0
 74 75  2  0  0  0
 74 82  1  0  0  0
 75 76  1  0  0  0
 75 83  1  0  0  0
 76 85  1  0  0  0
 77 79  1  0  0  0
 77 84  1  0  0  0
 77147  1  0  0  0
 77148  1  0  0  0
 78 79  1  0  0  0
 78 84  1  0  0  0
 78149  1  0  0  0
 78150  1  0  0  0
 79151  1  0  0  0
 80152  1  0  0  0
 80153  1  0  0  0
 80154  1  0  0  0
 80 83  1  0  0  0
 81 83  1  0  0  0
 81155  1  0  0  0
 81156  1  0  0  0
 81157  1  0  0  0
 82158  1  0  0  0
 82159  1  0  0  0
 83160  1  0  0  0
M  ISO  4   1 100  68 101  82 101  84 100
M  END
> <chiral flag>
0

> <version>
0

> <s_m_source_file>
/data/baiqing/PycharmProjects/Reinvent-master-3.2/result/LINK_invent/BTK/process_docking_weight1_custom_sum_contain_oxygen_bond_distance_aromatic_linkinvent_7_9_3/rearranged_h_0175.sdf

> <i_m_source_file_index>
8

> <r_mmod_Potential_Energy-OPLS-2005>
752.243286132812

> <r_mmod_Stretch_Energy-OPLS-2005>
259.546722412109

> <r_mmod_Bend_Energy-OPLS-2005>
330.923156738281

> <r_mmod_Torsional_Energy-OPLS-2005>
297.412384033203

> <r_mmod_Improper_Torsional_Energy-OPLS-2005>
18.6457443237305

> <r_mmod_Van_der_Waal_Energy-OPLS-2005>
144.346664428711

> <r_mmod_Electrostatic_Energy-OPLS-2005>
-324.537200927734

> <r_mmod_Solvation_Energy-OPLS-2005>
-192.679840087891

> <b_mmod_Minimization_Converged-OPLS-2005>
0

> <r_mmod_RMS_Derivative-OPLS-2005>
0.592381060123444

$$$$
8
                    3D
 Structure written by MMmdl.
156165  0  0  1  0            999 V2000
  -30.6948  -14.7276   20.4657 C   0  0  0  0  0  0
  -30.4141  -12.4592   19.4627 C   0  0  0  0  0  0
  -29.4951  -12.4952   18.2269 C   0  0  0  0  0  0
  -28.0249  -12.3274   18.6527 C   0  0  0  0  0  0
  -27.6364  -13.2398   19.8485 C   0  0  2  0  0  0
  -28.6911  -13.1960   20.9750 C   0  0  0  0  0  0
  -25.2498  -13.8225   20.5739 C   0  0  0  0  0  0
  -24.1792  -13.0457   20.9225 C   0  0  0  0  0  0
  -24.6394  -11.6935   20.8772 C   0  0  0  0  0  0
  -23.9078  -10.4304   21.0415 C   0  0  0  0  0  0
  -24.3625   -9.4212   21.9188 C   0  0  0  0  0  0
  -23.6301   -8.2245   22.0750 C   0  0  0  0  0  0
  -22.4282   -8.0286   21.3540 C   0  0  0  0  0  0
  -21.9919   -9.0265   20.4648 C   0  0  0  0  0  0
  -22.7247  -10.2149   20.3066 C   0  0  0  0  0  0
  -21.6856   -6.0741   22.5279 C   0  0  0  0  0  0
  -21.4014   -6.5642   23.8214 C   0  0  0  0  0  0
  -21.3661   -5.6794   24.9173 C   0  0  0  0  0  0
  -21.6049   -4.3058   24.7224 C   0  0  0  0  0  0
  -21.8820   -3.8150   23.4347 C   0  0  0  0  0  0
  -21.9191   -4.6967   22.3402 C   0  0  0  0  0  0
  -22.7814  -13.5230   21.1873 C   0  0  0  0  0  0
  -22.1659   -4.2154   21.0978 F   0  0  0  0  0  0
  -21.5630   -3.4542   25.7737 F   0  0  0  0  0  0
  -29.9741  -13.5552   20.3618 N   0  0  0  0  0  0
  -26.2931  -12.9445   20.3340 N   0  0  0  0  0  0
  -25.9333  -11.6578   20.5813 N   0  0  0  0  0  0
  -22.0457  -12.8222   22.0430 N   0  0  0  0  0  0
  -25.4203  -15.1947   20.4157 N   0  0  0  0  0  0
  -31.9052  -14.6649   20.2280 O   0  0  0  0  0  0
  -21.6640   -6.8886   21.4242 O   0  0  0  0  0  0
  -22.3495  -14.5531   20.6717 O   0  0  0  0  0  0
  -24.6328  -31.8583   23.2038 C   0  0  0  0  0  0
  -25.9162  -32.4758   23.8371 C   0  0  1  0  0  0
  -27.2008  -27.2575   20.1110 C   0  0  0  0  0  0
  -25.5970  -33.8568   24.2275 N   0  0  0  0  0  0
  -23.4274  -30.4866   21.5496 C   0  0  2  0  0  0
  -24.8716  -28.9509   20.1062 C   0  0  0  0  0  0
  -22.7507  -29.4617   22.4929 C   0  0  0  0  0  0
  -18.0289  -28.1394   22.8475 C   0  0  0  0  0  0
  -24.1495  -36.7277   23.2625 C   0  0  0  0  0  0
  -25.9800  -30.7642   21.3949 C   0  0  0  0  0  0
  -26.0475  -29.3927   20.7263 C   0  0  0  0  0  0
  -27.2142  -28.5571   20.7257 C   0  0  0  0  0  0
  -26.0056  -26.9168   19.4276 C   0  0  0  0  0  0
  -24.8570  -27.7197   19.4465 C   0  0  0  0  0  0
  -23.6440  -29.8361   20.1619 C   0  0  0  0  0  0
  -25.4119  -36.3067   24.0318 C   0  0  1  0  0  0
  -20.5892  -28.3705   23.1261 C   0  0  2  0  0  0
  -20.6779  -26.9417   22.5415 C   0  0  0  0  0  0
  -19.5759  -26.6377   21.5211 C   0  0  0  0  0  0
  -18.1928  -26.7941   22.1604 C   0  0  0  0  0  0
  -19.1544  -28.8869   23.2861 C   0  0  0  0  0  0
  -18.9466  -30.1470   23.8886 C   0  0  0  0  0  0
  -17.6465  -30.6590   24.0564 C   0  0  0  0  0  0
  -25.9077  -34.9443   23.5097 C   0  0  0  0  0  0
  -16.5358  -29.9083   23.6341 C   0  0  0  0  0  0
  -16.7274  -28.6504   23.0358 C   0  0  0  0  0  0
  -26.4499  -31.6590   25.0777 C   0  0  0  0  0  0
  -25.3696  -31.3824   26.1486 C   0  0  0  0  0  0
  -27.0306  -30.2962   24.6348 C   0  0  0  0  0  0
  -27.6080  -32.4314   25.7535 C   0  0  0  0  0  0
  -27.5602  -37.1760   24.8433 C   0  0  0  0  0  0
  -21.4215  -29.3053   22.3658 N   0  0  0  0  0  0
  -26.4278  -37.3781   23.9433 N   0  0  0  0  0  0
  -24.6987  -31.0543   22.1033 N   0  0  0  0  0  0
  -23.4208  -28.8139   23.3014 O   0  0  0  0  0  0
  -28.2508  -26.3020   20.2017 O   0  0  0  0  0  0
  -26.5640  -34.8917   22.4660 O   0  0  0  0  0  0
  -23.5476  -32.1432   23.7317 O   0  0  0  0  0  0
  -28.5854  -21.4061   21.5189 C   0  0  0  0  0  0
  -28.2589  -22.7923   21.3877 C   0  0  0  0  0  0
  -29.6592  -21.5463   19.4111 C   0  0  0  0  0  0
  -29.2880  -20.7064   20.5014 C   0  0  0  0  0  0
  -28.6278  -23.5374   20.2374 C   0  0  0  0  0  0
  -28.6676  -18.1223   21.1388 C   0  0  0  0  0  0
  -30.2698  -18.4664   19.3846 C   0  0  0  0  0  0
  -29.1665  -16.6187   21.3612 C   0  0  0  0  0  0
  -30.8936  -17.0514   19.6571 C   0  0  0  0  0  0
  -29.7195  -19.1684   20.6458 C   0  0  0  0  0  0
  -27.8829  -24.8876   19.8335 C   0  0  0  0  0  0
  -29.3398  -22.8776   19.2777 N   0  0  0  0  0  0
  -30.0881  -15.9946   20.3585 N   0  0  0  0  0  0
  -31.4542  -12.5541   19.1471 H   0  0  0  0  0  0
  -30.3480  -11.4956   19.9705 H   0  0  0  0  0  0
  -29.7734  -11.7077   17.5252 H   0  0  0  0  0  0
  -29.6216  -13.4402   17.6969 H   0  0  0  0  0  0
  -27.8869  -11.2811   18.9289 H   0  0  0  0  0  0
  -27.3611  -12.5062   17.8060 H   0  0  0  0  0  0
  -27.6242  -14.2582   19.4584 H   0  0  0  0  0  0
  -28.7415  -12.2012   21.4199 H   0  0  0  0  0  0
  -28.4367  -13.8707   21.7900 H   0  0  0  0  0  0
  -25.2770   -9.5683   22.4769 H   0  0  0  0  0  0
  -24.0014   -7.4633   22.7466 H   0  0  0  0  0  0
  -21.0849   -8.8788   19.8958 H   0  0  0  0  0  0
  -22.3700  -10.9692   19.6188 H   0  0  0  0  0  0
  -21.2000   -7.6149   23.9721 H   0  0  0  0  0  0
  -21.1483   -6.0520   25.9076 H   0  0  0  0  0  0
  -22.0595   -2.7613   23.2845 H   0  0  0  0  0  0
  -22.4084  -11.9903   22.4836 H   0  0  0  0  0  0
  -21.1082  -13.1262   22.2644 H   0  0  0  0  0  0
  -24.6574  -15.8523   20.5345 H   0  0  0  0  0  0
  -26.2767  -15.6331   20.1012 H   0  0  0  0  0  0
  -26.7232  -32.5387   23.1116 H   0  0  0  0  0  0
  -25.0130  -33.9728   25.0422 H   0  0  0  0  0  0
  -22.7220  -31.3085   21.4104 H   0  0  0  0  0  0
  -23.3800  -35.9560   23.3208 H   0  0  0  0  0  0
  -24.3612  -36.8993   22.2059 H   0  0  0  0  0  0
  -23.7189  -37.6422   23.6715 H   0  0  0  0  0  0
  -26.1370  -31.5303   20.6348 H   0  0  0  0  0  0
  -26.8496  -30.7968   22.0396 H   0  0  0  0  0  0
  -28.1067  -28.8832   21.2416 H   0  0  0  0  0  0
  -25.8941  -25.9982   18.8739 H   0  0  0  0  0  0
  -23.9625  -27.3824   18.9415 H   0  0  0  0  0  0
  -23.7665  -30.6192   19.4129 H   0  0  0  0  0  0
  -22.7606  -29.2732   19.8543 H   0  0  0  0  0  0
  -25.1285  -36.1900   25.0803 H   0  0  0  0  0  0
  -20.9965  -28.3295   24.1391 H   0  0  0  0  0  0
  -20.5667  -26.2326   23.3629 H   0  0  0  0  0  0
  -21.6651  -26.7430   22.1220 H   0  0  0  0  0  0
  -19.6929  -25.6280   21.1264 H   0  0  0  0  0  0
  -19.6713  -27.3173   20.6734 H   0  0  0  0  0  0
  -17.4204  -26.6717   21.3996 H   0  0  0  0  0  0
  -18.0301  -26.0074   22.8983 H   0  0  0  0  0  0
  -19.7942  -30.7296   24.2248 H   0  0  0  0  0  0
  -17.5016  -31.6274   24.5159 H   0  0  0  0  0  0
  -15.5360  -30.2983   23.7679 H   0  0  0  0  0  0
  -15.8672  -28.0822   22.7083 H   0  0  0  0  0  0
  -24.5879  -30.7149   25.7840 H   0  0  0  0  0  0
  -24.8874  -32.3027   26.4790 H   0  0  0  0  0  0
  -25.7966  -30.9093   27.0336 H   0  0  0  0  0  0
  -26.2904  -29.6736   24.1308 H   0  0  0  0  0  0
  -27.3828  -29.7221   25.4930 H   0  0  0  0  0  0
  -27.8868  -30.4159   23.9712 H   0  0  0  0  0  0
  -27.2720  -33.3634   26.2092 H   0  0  0  0  0  0
  -28.3890  -32.6830   25.0350 H   0  0  0  0  0  0
  -28.0742  -31.8444   26.5458 H   0  0  0  0  0  0
  -28.2518  -38.0153   24.7603 H   0  0  0  0  0  0
  -28.1191  -36.2692   24.6069 H   0  0  0  0  0  0
  -27.2359  -37.1172   25.8838 H   0  0  0  0  0  0
  -20.9407  -29.8795   21.6875 H   0  0  0  0  0  0
  -26.0151  -38.2830   24.1525 H   0  0  0  0  0  0
  -28.2698  -20.8784   22.4067 H   0  0  0  0  0  0
  -27.6476  -23.2622   22.1461 H   0  0  0  0  0  0
  -30.2333  -21.1441   18.5906 H   0  0  0  0  0  0
  -28.2252  -18.4704   22.0724 H   0  0  0  0  0  0
  -27.8441  -18.1063   20.4235 H   0  0  0  0  0  0
  -29.4858  -18.3868   18.6298 H   0  0  0  0  0  0
  -31.0519  -19.0810   18.9392 H   0  0  0  0  0  0
  -28.2779  -15.9982   21.4570 H   0  0  0  0  0  0
  -29.6714  -16.5655   22.3263 H   0  0  0  0  0  0
  -31.8033  -17.2153   20.2390 H   0  0  0  0  0  0
  -31.2260  -16.6523   18.6964 H   0  0  0  0  0  0
  -30.5241  -19.1839   21.3821 H   0  0  0  0  0  0
  -26.8870  -24.6958   20.2336 H   0  0  0  0  0  0
  -27.7869  -24.8640   18.7467 H   0  0  0  0  0  0
  1 25  1  0  0  0
  1 30  2  0  0  0
  1 83  1  0  0  0
  2  3  1  0  0  0
  2 25  1  0  0  0
  2 84  1  0  0  0
  2 85  1  0  0  0
  3  4  1  0  0  0
  3 86  1  0  0  0
  3 87  1  0  0  0
  4  5  1  0  0  0
  4 88  1  0  0  0
  4 89  1  0  0  0
  5  6  1  0  0  0
  5 26  1  0  0  0
  5 90  1  0  0  0
  6 25  1  0  0  0
  6 91  1  0  0  0
  6 92  1  0  0  0
  7  8  2  0  0  0
  7 26  1  0  0  0
  7 29  1  0  0  0
  8  9  1  0  0  0
  8 22  1  0  0  0
  9 10  1  0  0  0
  9 27  2  0  0  0
 10 11  2  0  0  0
 10 15  1  0  0  0
 11 12  1  0  0  0
 11 93  1  0  0  0
 12 13  2  0  0  0
 12 94  1  0  0  0
 13 14  1  0  0  0
 13 31  1  0  0  0
 14 15  2  0  0  0
 14 95  1  0  0  0
 15 96  1  0  0  0
 16 17  2  0  0  0
 16 21  1  0  0  0
 16 31  1  0  0  0
 17 18  1  0  0  0
 17 97  1  0  0  0
 18 19  2  0  0  0
 18 98  1  0  0  0
 19 20  1  0  0  0
 19 24  1  0  0  0
 20 21  2  0  0  0
 20 99  1  0  0  0
 21 23  1  0  0  0
 22 28  1  0  0  0
 22 32  2  0  0  0
 26 27  1  0  0  0
 28100  1  0  0  0
 28101  1  0  0  0
 29102  1  0  0  0
 29103  1  0  0  0
 33 34  1  0  0  0
 33 66  1  0  0  0
 33 70  2  0  0  0
 34 36  1  0  0  0
 34 59  1  0  0  0
 34104  1  0  0  0
 35 44  2  0  0  0
 35 45  1  0  0  0
 35 68  1  0  0  0
 36 56  1  0  0  0
 36105  1  0  0  0
 37 39  1  0  0  0
 37 47  1  0  0  0
 37 66  1  0  0  0
 37106  1  0  0  0
 38 43  2  0  0  0
 38 46  1  0  0  0
 38 47  1  0  0  0
 39 64  1  0  0  0
 39 67  2  0  0  0
 40 52  1  0  0  0
 40 53  2  0  0  0
 40 58  1  0  0  0
 41107  1  0  0  0
 41108  1  0  0  0
 41109  1  0  0  0
 41 48  1  0  0  0
 42 43  1  0  0  0
 42 66  1  0  0  0
 42110  1  0  0  0
 42111  1  0  0  0
 43 44  1  0  0  0
 44112  1  0  0  0
 45 46  2  0  0  0
 45113  1  0  0  0
 46114  1  0  0  0
 47115  1  0  0  0
 47116  1  0  0  0
 48 56  1  0  0  0
 48 65  1  0  0  0
 48117  1  0  0  0
 49 50  1  0  0  0
 49 53  1  0  0  0
 49 64  1  0  0  0
 49118  1  0  0  0
 50 51  1  0  0  0
 50119  1  0  0  0
 50120  1  0  0  0
 51 52  1  0  0  0
 51121  1  0  0  0
 51122  1  0  0  0
 52123  1  0  0  0
 52124  1  0  0  0
 53 54  1  0  0  0
 54 55  2  0  0  0
 54125  1  0  0  0
 55 57  1  0  0  0
 55126  1  0  0  0
 56 69  2  0  0  0
 57 58  2  0  0  0
 57127  1  0  0  0
 58128  1  0  0  0
 59 60  1  0  0  0
 59 61  1  0  0  0
 59 62  1  0  0  0
 60129  1  0  0  0
 60130  1  0  0  0
 60131  1  0  0  0
 61132  1  0  0  0
 61133  1  0  0  0
 61134  1  0  0  0
 62135  1  0  0  0
 62136  1  0  0  0
 62137  1  0  0  0
 63 65  1  0  0  0
 63138  1  0  0  0
 63139  1  0  0  0
 63140  1  0  0  0
 64141  1  0  0  0
 65142  1  0  0  0
 68 81  1  0  0  0
 71 72  2  0  0  0
 71 74  1  0  0  0
 71143  1  0  0  0
 72 75  1  0  0  0
 72144  1  0  0  0
 73 74  2  0  0  0
 73 82  1  0  0  0
 73145  1  0  0  0
 74 80  1  0  0  0
 75 81  1  0  0  0
 75 82  2  0  0  0
 76 78  1  0  0  0
 76 80  1  0  0  0
 76146  1  0  0  0
 76147  1  0  0  0
 77 79  1  0  0  0
 77 80  1  0  0  0
 77148  1  0  0  0
 77149  1  0  0  0
 78 83  1  0  0  0
 78150  1  0  0  0
 78151  1  0  0  0
 79 83  1  0  0  0
 79152  1  0  0  0
 79153  1  0  0  0
 80154  1  0  0  0
 81155  1  0  0  0
 81156  1  0  0  0
M  ISO  4   1 100  68 101  81 101  83 100
M  END
> <chiral flag>
0

> <version>
0

> <s_m_source_file>
/data/baiqing/PycharmProjects/Reinvent-master-3.2/result/LINK_invent/BTK/process_docking_weight1_custom_sum_contain_oxygen_bond_distance_aromatic_linkinvent_7_9_3/rearranged_h_0175.sdf

> <i_m_source_file_index>
9

> <r_mmod_Potential_Energy-OPLS-2005>
325.050079345703

> <r_mmod_Stretch_Energy-OPLS-2005>
115.372146606445

> <r_mmod_Bend_Energy-OPLS-2005>
205.695434570312

> <r_mmod_Torsional_Energy-OPLS-2005>
320.147369384766

> <r_mmod_Improper_Torsional_Energy-OPLS-2005>
20.83376121521

> <r_mmod_Van_der_Waal_Energy-OPLS-2005>
164.398529052734

> <r_mmod_Electrostatic_Energy-OPLS-2005>
-386.725128173828

> <r_mmod_Solvation_Energy-OPLS-2005>
-211.654006958008

> <b_mmod_Minimization_Converged-OPLS-2005>
0

> <r_mmod_RMS_Derivative-OPLS-2005>
1.21854960918427

$$$$
9
                    3D
 Structure written by MMmdl.
165174  0  0  1  0            999 V2000
  -30.6468  -14.8081   20.4417 C   0  0  0  0  0  0
  -30.4255  -12.4984   19.4758 C   0  0  0  0  0  0
  -29.5056  -12.4951   18.2377 C   0  0  0  0  0  0
  -28.0359  -12.2937   18.6596 C   0  0  0  0  0  0
  -27.6245  -13.2074   19.8430 C   0  0  2  0  0  0
  -28.6833  -13.2341   20.9694 C   0  0  0  0  0  0
  -25.2473  -13.8078   20.5753 C   0  0  0  0  0  0
  -24.1773  -13.0324   20.9293 C   0  0  0  0  0  0
  -24.6374  -11.6823   20.8837 C   0  0  0  0  0  0
  -23.9045  -10.4234   21.0477 C   0  0  0  0  0  0
  -24.3599   -9.4152   21.9238 C   0  0  0  0  0  0
  -23.6297   -8.2182   22.0777 C   0  0  0  0  0  0
  -22.4265   -8.0267   21.3569 C   0  0  0  0  0  0
  -21.9918   -9.0227   20.4646 C   0  0  0  0  0  0
  -22.7251  -10.2096   20.3087 C   0  0  0  0  0  0
  -21.6844   -6.0749   22.5314 C   0  0  0  0  0  0
  -21.4031   -6.5673   23.8254 C   0  0  0  0  0  0
  -21.3673   -5.6821   24.9215 C   0  0  0  0  0  0
  -21.6022   -4.3078   24.7269 C   0  0  0  0  0  0
  -21.8807   -3.8173   23.4388 C   0  0  0  0  0  0
  -21.9182   -4.6981   22.3442 C   0  0  0  0  0  0
  -22.7823  -13.5146   21.1923 C   0  0  0  0  0  0
  -22.1647   -4.2159   21.1025 F   0  0  0  0  0  0
  -21.5606   -3.4580   25.7782 F   0  0  0  0  0  0
  -29.9685  -13.5998   20.3592 N   0  0  0  0  0  0
  -26.2870  -12.9228   20.3344 N   0  0  0  0  0  0
  -25.9297  -11.6411   20.5872 N   0  0  0  0  0  0
  -22.0444  -12.8145   22.0466 N   0  0  0  0  0  0
  -25.4046  -15.1800   20.4121 N   0  0  0  0  0  0
  -31.8622  -14.8106   20.2281 O   0  0  0  0  0  0
  -21.6620   -6.8881   21.4268 O   0  0  0  0  0  0
  -22.3542  -14.5473   20.6796 O   0  0  0  0  0  0
  -24.6344  -31.8559   23.1977 C   0  0  0  0  0  0
  -25.9178  -32.4739   23.8337 C   0  0  1  0  0  0
  -27.2239  -27.2673   20.1232 C   0  0  0  0  0  0
  -25.5969  -33.8543   24.2241 N   0  0  0  0  0  0
  -23.4282  -30.4824   21.5401 C   0  0  2  0  0  0
  -24.8755  -28.9221   20.1150 C   0  0  0  0  0  0
  -22.7503  -29.4646   22.4883 C   0  0  0  0  0  0
  -18.0307  -28.1378   22.8492 C   0  0  0  0  0  0
  -24.1491  -36.7260   23.2642 C   0  0  0  0  0  0
  -25.9801  -30.7657   21.3844 C   0  0  0  0  0  0
  -26.0512  -29.3940   20.7148 C   0  0  0  0  0  0
  -27.2330  -28.5847   20.6947 C   0  0  0  0  0  0
  -26.0216  -26.8508   19.5146 C   0  0  0  0  0  0
  -24.8647  -27.6563   19.5073 C   0  0  0  0  0  0
  -23.6475  -29.8129   20.1591 C   0  0  0  0  0  0
  -25.4123  -36.3057   24.0321 C   0  0  1  0  0  0
  -20.5920  -28.3713   23.1223 C   0  0  2  0  0  0
  -20.6787  -26.9419   22.5390 C   0  0  0  0  0  0
  -19.5751  -26.6377   21.5202 C   0  0  0  0  0  0
  -18.1934  -26.7924   22.1616 C   0  0  0  0  0  0
  -19.1565  -28.8858   23.2860 C   0  0  0  0  0  0
  -18.9485  -30.1458   23.8887 C   0  0  0  0  0  0
  -17.6482  -30.6579   24.0571 C   0  0  0  0  0  0
  -25.9079  -34.9423   23.5079 C   0  0  0  0  0  0
  -16.5375  -29.9079   23.6337 C   0  0  0  0  0  0
  -16.7295  -28.6495   23.0367 C   0  0  0  0  0  0
  -26.4542  -31.6585   25.0752 C   0  0  0  0  0  0
  -25.3756  -31.3763   26.1472 C   0  0  0  0  0  0
  -27.0409  -30.2974   24.6321 C   0  0  0  0  0  0
  -27.6060  -32.4377   25.7532 C   0  0  0  0  0  0
  -27.5590  -37.1773   24.8454 C   0  0  0  0  0  0
  -21.4216  -29.3060   22.3591 N   0  0  0  0  0  0
  -26.4286  -37.3763   23.9418 N   0  0  0  0  0  0
  -24.6988  -31.0532   22.0943 N   0  0  0  0  0  0
  -23.4203  -28.8194   23.2991 O   0  0  0  0  0  0
  -28.3250  -26.3810   20.1085 O   0  0  0  0  0  0
  -26.5635  -34.8906   22.4639 O   0  0  0  0  0  0
  -23.5494  -32.1375   23.7288 O   0  0  0  0  0  0
  -31.2553  -20.4389   20.3887 C   0  0  0  0  0  0
  -29.9059  -20.0946   20.5393 C   0  0  0  0  0  0
  -31.5819  -21.7746   20.1484 C   0  0  0  0  0  0
  -29.3694  -22.4182   20.2303 C   0  0  0  0  0  0
  -28.5389  -17.9337   19.8744 C   0  0  0  0  0  0
  -28.6661  -16.3926   20.0575 C   0  0  0  0  0  0
  -30.6123  -17.3991   20.8420 C   0  0  0  0  0  0
  -29.5141  -18.5709   20.8434 C   0  0  2  0  0  0
  -28.4937  -23.8617   18.2978 C   0  0  0  0  0  0
  -28.9502  -24.9747   21.9896 C   0  0  0  0  0  0
  -33.1767  -23.4059   19.3943 C   0  0  0  0  0  0
  -28.3679  -23.5987   19.8111 C   0  0  2  0  0  0
  -28.1681  -24.9872   20.6702 C   0  0  2  0  0  0
  -28.9689  -21.1202   20.4484 N   0  0  0  0  0  0
  -30.6487  -22.7400   20.0829 N   0  0  0  0  0  0
  -29.9818  -16.0386   20.6081 N   0  0  0  0  0  0
  -32.8993  -22.1141   19.9358 O   0  0  0  0  0  0
  -31.4663  -12.6153   19.1665 H   0  0  0  0  0  0
  -30.3778  -11.5427   20.0018 H   0  0  0  0  0  0
  -29.7988  -11.7048   17.5455 H   0  0  0  0  0  0
  -29.6104  -13.4361   17.6944 H   0  0  0  0  0  0
  -27.9134  -11.2507   18.9439 H   0  0  0  0  0  0
  -27.3744  -12.4553   17.8077 H   0  0  0  0  0  0
  -27.5431  -14.1819   19.3908 H   0  0  0  0  0  0
  -28.7503  -12.2611   21.4587 H   0  0  0  0  0  0
  -28.4090  -13.9416   21.7540 H   0  0  0  0  0  0
  -25.2703   -9.5659   22.4840 H   0  0  0  0  0  0
  -24.0022   -7.4574   22.7492 H   0  0  0  0  0  0
  -21.0862   -8.8766   19.8926 H   0  0  0  0  0  0
  -22.3753  -10.9662   19.6225 H   0  0  0  0  0  0
  -21.2064   -7.6195   23.9775 H   0  0  0  0  0  0
  -21.1491   -6.0567   25.9127 H   0  0  0  0  0  0
  -22.0565   -2.7634   23.2900 H   0  0  0  0  0  0
  -22.4065  -11.9813   22.4849 H   0  0  0  0  0  0
  -21.1073  -13.1197   22.2650 H   0  0  0  0  0  0
  -24.6188  -15.8137   20.5173 H   0  0  0  0  0  0
  -26.2431  -15.6366   20.0803 H   0  0  0  0  0  0
  -26.7249  -32.5367   23.1082 H   0  0  0  0  0  0
  -25.0143  -33.9684   25.0403 H   0  0  0  0  0  0
  -22.7260  -31.3071   21.3922 H   0  0  0  0  0  0
  -23.3779  -35.9565   23.3255 H   0  0  0  0  0  0
  -24.3590  -36.8937   22.2070 H   0  0  0  0  0  0
  -23.7202  -37.6419   23.6704 H   0  0  0  0  0  0
  -26.1510  -31.5360   20.6323 H   0  0  0  0  0  0
  -26.8431  -30.7887   22.0380 H   0  0  0  0  0  0
  -28.1416  -28.9511   21.1497 H   0  0  0  0  0  0
  -25.9675  -25.8766   19.0514 H   0  0  0  0  0  0
  -23.9603  -27.2854   19.0459 H   0  0  0  0  0  0
  -23.7788  -30.5877   19.4035 H   0  0  0  0  0  0
  -22.7635  -29.2523   19.8512 H   0  0  0  0  0  0
  -25.1303  -36.1892   25.0809 H   0  0  0  0  0  0
  -21.0056  -28.3318   24.1320 H   0  0  0  0  0  0
  -20.5660  -26.2340   23.3615 H   0  0  0  0  0  0
  -21.6654  -26.7392   22.1194 H   0  0  0  0  0  0
  -19.6907  -25.6284   21.1231 H   0  0  0  0  0  0
  -19.6682  -27.3190   20.6724 H   0  0  0  0  0  0
  -17.4208  -26.6706   21.4015 H   0  0  0  0  0  0
  -18.0315  -26.0056   22.8990 H   0  0  0  0  0  0
  -19.7964  -30.7275   24.2246 H   0  0  0  0  0  0
  -17.5041  -31.6259   24.5174 H   0  0  0  0  0  0
  -15.5379  -30.2980   23.7650 H   0  0  0  0  0  0
  -15.8703  -28.0807   22.7081 H   0  0  0  0  0  0
  -24.5875  -30.7194   25.7776 H   0  0  0  0  0  0
  -24.9049  -32.2963   26.4939 H   0  0  0  0  0  0
  -25.8070  -30.8870   27.0214 H   0  0  0  0  0  0
  -26.3020  -29.6683   24.1349 H   0  0  0  0  0  0
  -27.4024  -29.7295   25.4899 H   0  0  0  0  0  0
  -27.8928  -30.4173   23.9633 H   0  0  0  0  0  0
  -27.2602  -33.3648   26.2109 H   0  0  0  0  0  0
  -28.3869  -32.7003   25.0388 H   0  0  0  0  0  0
  -28.0747  -31.8543   26.5463 H   0  0  0  0  0  0
  -28.2563  -38.0116   24.7570 H   0  0  0  0  0  0
  -28.1136  -36.2647   24.6194 H   0  0  0  0  0  0
  -27.2321  -37.1307   25.8859 H   0  0  0  0  0  0
  -20.9404  -29.8784   21.6794 H   0  0  0  0  0  0
  -26.0162  -38.2823   24.1457 H   0  0  0  0  0  0
  -32.0390  -19.6966   20.4441 H   0  0  0  0  0  0
  -27.5204  -18.2949   20.0246 H   0  0  0  0  0  0
  -28.8327  -18.2083   18.8604 H   0  0  0  0  0  0
  -27.9087  -16.0328   20.7510 H   0  0  0  0  0  0
  -28.5334  -15.9337   19.0803 H   0  0  0  0  0  0
  -31.1996  -17.4089   21.7601 H   0  0  0  0  0  0
  -31.3097  -17.5560   20.0199 H   0  0  0  0  0  0
  -29.0469  -18.5733   21.8300 H   0  0  0  0  0  0
  -28.2166  -22.9727   17.7291 H   0  0  0  0  0  0
  -29.5204  -24.1161   18.0282 H   0  0  0  0  0  0
  -27.8510  -24.6739   17.9674 H   0  0  0  0  0  0
  -28.6811  -24.1038   22.5902 H   0  0  0  0  0  0
  -28.7363  -25.8613   22.5873 H   0  0  0  0  0  0
  -30.0257  -24.9438   21.8129 H   0  0  0  0  0  0
  -34.2554  -23.5618   19.3453 H   0  0  0  0  0  0
  -32.7619  -24.2082   20.0056 H   0  0  0  0  0  0
  -32.7869  -23.4931   18.3781 H   0  0  0  0  0  0
  -27.4004  -23.1068   19.9042 H   0  0  0  0  0  0
  -27.1297  -24.9364   21.0015 H   0  0  0  0  0  0
  1 25  1  0  0  0
  1 30  2  0  0  0
  1 86  1  0  0  0
  2  3  1  0  0  0
  2 25  1  0  0  0
  2 88  1  0  0  0
  2 89  1  0  0  0
  3  4  1  0  0  0
  3 90  1  0  0  0
  3 91  1  0  0  0
  4  5  1  0  0  0
  4 92  1  0  0  0
  4 93  1  0  0  0
  5  6  1  0  0  0
  5 26  1  0  0  0
  5 94  1  0  0  0
  6 25  1  0  0  0
  6 95  1  0  0  0
  6 96  1  0  0  0
  7  8  2  0  0  0
  7 26  1  0  0  0
  7 29  1  0  0  0
  8  9  1  0  0  0
  8 22  1  0  0  0
  9 10  1  0  0  0
  9 27  2  0  0  0
 10 11  2  0  0  0
 10 15  1  0  0  0
 11 12  1  0  0  0
 11 97  1  0  0  0
 12 13  2  0  0  0
 12 98  1  0  0  0
 13 14  1  0  0  0
 13 31  1  0  0  0
 14 15  2  0  0  0
 14 99  1  0  0  0
 15100  1  0  0  0
 16 17  2  0  0  0
 16 21  1  0  0  0
 16 31  1  0  0  0
 17 18  1  0  0  0
 17101  1  0  0  0
 18 19  2  0  0  0
 18102  1  0  0  0
 19 20  1  0  0  0
 19 24  1  0  0  0
 20 21  2  0  0  0
 20103  1  0  0  0
 21 23  1  0  0  0
 22 28  1  0  0  0
 22 32  2  0  0  0
 26 27  1  0  0  0
 28104  1  0  0  0
 28105  1  0  0  0
 29106  1  0  0  0
 29107  1  0  0  0
 33 34  1  0  0  0
 33 66  1  0  0  0
 33 70  2  0  0  0
 34 36  1  0  0  0
 34 59  1  0  0  0
 34108  1  0  0  0
 35 44  2  0  0  0
 35 45  1  0  0  0
 35 68  1  0  0  0
 36 56  1  0  0  0
 36109  1  0  0  0
 37 39  1  0  0  0
 37 47  1  0  0  0
 37 66  1  0  0  0
 37110  1  0  0  0
 38 43  2  0  0  0
 38 46  1  0  0  0
 38 47  1  0  0  0
 39 64  1  0  0  0
 39 67  2  0  0  0
 40 52  1  0  0  0
 40 53  2  0  0  0
 40 58  1  0  0  0
 41111  1  0  0  0
 41112  1  0  0  0
 41113  1  0  0  0
 41 48  1  0  0  0
 42 43  1  0  0  0
 42 66  1  0  0  0
 42114  1  0  0  0
 42115  1  0  0  0
 43 44  1  0  0  0
 44116  1  0  0  0
 45 46  2  0  0  0
 45117  1  0  0  0
 46118  1  0  0  0
 47119  1  0  0  0
 47120  1  0  0  0
 48 56  1  0  0  0
 48 65  1  0  0  0
 48121  1  0  0  0
 49 50  1  0  0  0
 49 53  1  0  0  0
 49 64  1  0  0  0
 49122  1  0  0  0
 50 51  1  0  0  0
 50123  1  0  0  0
 50124  1  0  0  0
 51 52  1  0  0  0
 51125  1  0  0  0
 51126  1  0  0  0
 52127  1  0  0  0
 52128  1  0  0  0
 53 54  1  0  0  0
 54 55  2  0  0  0
 54129  1  0  0  0
 55 57  1  0  0  0
 55130  1  0  0  0
 56 69  2  0  0  0
 57 58  2  0  0  0
 57131  1  0  0  0
 58132  1  0  0  0
 59 60  1  0  0  0
 59 61  1  0  0  0
 59 62  1  0  0  0
 60133  1  0  0  0
 60134  1  0  0  0
 60135  1  0  0  0
 61136  1  0  0  0
 61137  1  0  0  0
 61138  1  0  0  0
 62139  1  0  0  0
 62140  1  0  0  0
 62141  1  0  0  0
 63 65  1  0  0  0
 63142  1  0  0  0
 63143  1  0  0  0
 63144  1  0  0  0
 64145  1  0  0  0
 65146  1  0  0  0
 68 83  1  0  0  0
 71 72  2  0  0  0
 71 73  1  0  0  0
 71147  1  0  0  0
 72 84  1  0  0  0
 72 78  1  0  0  0
 73 85  2  0  0  0
 73 87  1  0  0  0
 74 82  1  0  0  0
 74 84  2  0  0  0
 74 85  1  0  0  0
 75 76  1  0  0  0
 75 78  1  0  0  0
 75148  1  0  0  0
 75149  1  0  0  0
 76 86  1  0  0  0
 76150  1  0  0  0
 76151  1  0  0  0
 77 78  1  0  0  0
 77 86  1  0  0  0
 77152  1  0  0  0
 77153  1  0  0  0
 78154  1  0  0  0
 79155  1  0  0  0
 79156  1  0  0  0
 79157  1  0  0  0
 79 82  1  0  0  0
 80158  1  0  0  0
 80159  1  0  0  0
 80160  1  0  0  0
 80 83  1  0  0  0
 81 87  1  0  0  0
 81161  1  0  0  0
 81162  1  0  0  0
 81163  1  0  0  0
 82 83  1  0  0  0
 82164  1  0  0  0
 83165  1  0  0  0
M  ISO  4   1 100  68 101  83 101  86 100
M  END
> <chiral flag>
0

> <version>
0

> <s_m_source_file>
/data/baiqing/PycharmProjects/Reinvent-master-3.2/result/LINK_invent/BTK/process_docking_weight1_custom_sum_contain_oxygen_bond_distance_aromatic_linkinvent_7_9_3/rearranged_h_0175.sdf

> <i_m_source_file_index>
10

> <r_mmod_Potential_Energy-OPLS-2005>
-8.74366283416748

> <r_mmod_Stretch_Energy-OPLS-2005>
134.837829589844

> <r_mmod_Bend_Energy-OPLS-2005>
231.845855712891

> <r_mmod_Torsional_Energy-OPLS-2005>
311.807312011719

> <r_mmod_Improper_Torsional_Energy-OPLS-2005>
6.3753833770752

> <r_mmod_Van_der_Waal_Energy-OPLS-2005>
147.556365966797

> <r_mmod_Electrostatic_Energy-OPLS-2005>
-725.908386230469

> <r_mmod_Solvation_Energy-OPLS-2005>
-217.83073425293

> <b_mmod_Minimization_Converged-OPLS-2005>
0

> <r_mmod_RMS_Derivative-OPLS-2005>
4.73351764678955

$$$$
10
                    3D
 Structure written by MMmdl.
166175  0  0  1  0            999 V2000
  -30.6011  -14.7733   20.4822 C   0  0  0  0  0  0
  -30.4382  -12.4835   19.4766 C   0  0  0  0  0  0
  -29.5160  -12.5186   18.2382 C   0  0  0  0  0  0
  -28.0402  -12.3412   18.6461 C   0  0  0  0  0  0
  -27.6420  -13.2328   19.8525 C   0  0  2  0  0  0
  -28.6853  -13.1723   20.9871 C   0  0  0  0  0  0
  -25.2507  -13.8183   20.5704 C   0  0  0  0  0  0
  -24.1799  -13.0434   20.9216 C   0  0  0  0  0  0
  -24.6388  -11.6915   20.8722 C   0  0  0  0  0  0
  -23.9054  -10.4299   21.0382 C   0  0  0  0  0  0
  -24.3612   -9.4224   21.9167 C   0  0  0  0  0  0
  -23.6302   -8.2246   22.0740 C   0  0  0  0  0  0
  -22.4284   -8.0272   21.3526 C   0  0  0  0  0  0
  -21.9905   -9.0241   20.4627 C   0  0  0  0  0  0
  -22.7221  -10.2133   20.3035 C   0  0  0  0  0  0
  -21.6856   -6.0733   22.5266 C   0  0  0  0  0  0
  -21.4021   -6.5632   23.8203 C   0  0  0  0  0  0
  -21.3667   -5.6781   24.9158 C   0  0  0  0  0  0
  -21.6055   -4.3044   24.7212 C   0  0  0  0  0  0
  -21.8822   -3.8140   23.4329 C   0  0  0  0  0  0
  -21.9197   -4.6958   22.3389 C   0  0  0  0  0  0
  -22.7815  -13.5225   21.1867 C   0  0  0  0  0  0
  -22.1661   -4.2139   21.0965 F   0  0  0  0  0  0
  -21.5634   -3.4533   25.7728 F   0  0  0  0  0  0
  -29.9809  -13.5440   20.4050 N   0  0  0  0  0  0
  -26.2941  -12.9402   20.3288 N   0  0  0  0  0  0
  -25.9329  -11.6541   20.5747 N   0  0  0  0  0  0
  -22.0446  -12.8220   22.0416 N   0  0  0  0  0  0
  -25.4170  -15.1905   20.4119 N   0  0  0  0  0  0
  -31.7910  -14.8714   20.1704 O   0  0  0  0  0  0
  -21.6638   -6.8874   21.4231 O   0  0  0  0  0  0
  -22.3505  -14.5530   20.6707 O   0  0  0  0  0  0
  -24.6315  -31.8556   23.1954 C   0  0  0  0  0  0
  -25.9132  -32.4761   23.8312 C   0  0  1  0  0  0
  -27.2177  -27.2478   20.1538 C   0  0  0  0  0  0
  -25.5918  -33.8556   24.2244 N   0  0  0  0  0  0
  -23.4290  -30.4767   21.5385 C   0  0  2  0  0  0
  -24.8773  -28.9140   20.1195 C   0  0  0  0  0  0
  -22.7502  -29.4613   22.4902 C   0  0  0  0  0  0
  -18.0292  -28.1408   22.8491 C   0  0  0  0  0  0
  -24.1481  -36.7276   23.2643 C   0  0  0  0  0  0
  -25.9746  -30.7652   21.3770 C   0  0  0  0  0  0
  -26.0481  -29.3824   20.7308 C   0  0  0  0  0  0
  -27.2248  -28.5638   20.7328 C   0  0  0  0  0  0
  -26.0309  -26.8546   19.5031 C   0  0  0  0  0  0
  -24.8737  -27.6581   19.4936 C   0  0  0  0  0  0
  -23.6497  -29.8040   20.1582 C   0  0  0  0  0  0
  -25.4113  -36.3071   24.0327 C   0  0  1  0  0  0
  -20.5894  -28.3718   23.1265 C   0  0  2  0  0  0
  -20.6780  -26.9434   22.5414 C   0  0  0  0  0  0
  -19.5751  -26.6402   21.5221 C   0  0  0  0  0  0
  -18.1931  -26.7945   22.1632 C   0  0  0  0  0  0
  -19.1551  -28.8876   23.2871 C   0  0  0  0  0  0
  -18.9472  -30.1473   23.8902 C   0  0  0  0  0  0
  -17.6475  -30.6605   24.0573 C   0  0  0  0  0  0
  -25.9054  -34.9448   23.5093 C   0  0  0  0  0  0
  -16.5360  -29.9111   23.6339 C   0  0  0  0  0  0
  -16.7281  -28.6524   23.0363 C   0  0  0  0  0  0
  -26.4494  -31.6584   25.0702 C   0  0  0  0  0  0
  -25.3709  -31.3758   26.1417 C   0  0  0  0  0  0
  -27.0350  -30.2995   24.6209 C   0  0  0  0  0  0
  -27.6039  -32.4339   25.7490 C   0  0  0  0  0  0
  -27.5575  -37.1796   24.8467 C   0  0  0  0  0  0
  -21.4206  -29.3057   22.3639 N   0  0  0  0  0  0
  -26.4286  -37.3779   23.9412 N   0  0  0  0  0  0
  -24.6977  -31.0527   22.0924 N   0  0  0  0  0  0
  -23.4191  -28.8174   23.3022 O   0  0  0  0  0  0
  -28.3165  -26.3579   20.1073 O   0  0  0  0  0  0
  -26.5643  -34.8925   22.4671 O   0  0  0  0  0  0
  -23.5465  -32.1382   23.7245 O   0  0  0  0  0  0
  -28.6257  -18.5627   19.1327 C   0  0  0  0  0  0
  -29.4322  -18.6383   20.2918 C   0  0  0  0  0  0
  -28.0615  -19.7658   18.6642 C   0  0  0  0  0  0
  -28.9700  -21.0195   20.3548 C   0  0  0  0  0  0
  -27.4834  -22.8196   21.6153 C   0  0  0  0  0  0
  -27.0692  -24.2344   21.0733 C   0  0  0  0  0  0
  -29.2394  -23.8297   20.3307 C   0  0  0  0  0  0
  -28.9168  -22.4514   21.1097 C   0  0  2  0  0  0
  -28.3580  -25.0606   20.8854 C   0  0  1  0  0  0
  -28.3854  -17.2422   18.4084 C   0  0  0  0  0  0
  -29.9044  -22.3380   22.3002 C   0  0  0  0  0  0
  -28.8459  -25.5713   22.2585 C   0  0  0  0  0  0
  -30.2658  -17.3784   20.8453 C   0  0  0  0  0  0
  -29.5537  -19.8910   20.8896 N   0  0  0  0  0  0
  -28.2380  -20.9531   19.2500 N   0  0  0  0  0  0
  -27.2656  -19.8139   17.5317 N   0  0  0  0  0  0
  -29.8362  -15.9058   20.7297 N   0  0  0  0  0  0
  -31.4759  -12.6249   19.1692 H   0  0  0  0  0  0
  -30.4021  -11.5087   19.9650 H   0  0  0  0  0  0
  -29.8077  -11.7410   17.5303 H   0  0  0  0  0  0
  -29.6382  -13.4694   17.7163 H   0  0  0  0  0  0
  -27.8921  -11.2912   18.8998 H   0  0  0  0  0  0
  -27.3880  -12.5450   17.7966 H   0  0  0  0  0  0
  -27.6365  -14.2548   19.4770 H   0  0  0  0  0  0
  -28.7289  -12.1738   21.4229 H   0  0  0  0  0  0
  -28.4118  -13.8459   21.8007 H   0  0  0  0  0  0
  -25.2759   -9.5717   22.4739 H   0  0  0  0  0  0
  -24.0015   -7.4642   22.7469 H   0  0  0  0  0  0
  -21.0831   -8.8756   19.8940 H   0  0  0  0  0  0
  -22.3669  -10.9665   19.6136 H   0  0  0  0  0  0
  -21.2010   -7.6141   23.9705 H   0  0  0  0  0  0
  -21.1491   -6.0505   25.9062 H   0  0  0  0  0  0
  -22.0602   -2.7605   23.2820 H   0  0  0  0  0  0
  -22.4066  -11.9903   22.4843 H   0  0  0  0  0  0
  -21.1049  -13.1240   22.2569 H   0  0  0  0  0  0
  -24.6489  -15.8414   20.5317 H   0  0  0  0  0  0
  -26.2551  -15.6327   20.0601 H   0  0  0  0  0  0
  -26.7195  -32.5423   23.1052 H   0  0  0  0  0  0
  -25.0029  -33.9686   25.0363 H   0  0  0  0  0  0
  -22.7265  -31.2985   21.3877 H   0  0  0  0  0  0
  -23.3750  -35.9600   23.3310 H   0  0  0  0  0  0
  -24.3568  -36.8898   22.2056 H   0  0  0  0  0  0
  -23.7220  -37.6472   23.6665 H   0  0  0  0  0  0
  -26.1126  -31.5208   20.6021 H   0  0  0  0  0  0
  -26.8519  -30.8210   22.0090 H   0  0  0  0  0  0
  -28.1272  -28.9237   21.2065 H   0  0  0  0  0  0
  -25.9947  -25.9030   18.9940 H   0  0  0  0  0  0
  -23.9811  -27.2998   18.9993 H   0  0  0  0  0  0
  -23.7744  -30.5735   19.3956 H   0  0  0  0  0  0
  -22.7683  -29.2351   19.8569 H   0  0  0  0  0  0
  -25.1296  -36.1921   25.0821 H   0  0  0  0  0  0
  -21.0001  -28.3314   24.1379 H   0  0  0  0  0  0
  -20.5689  -26.2336   23.3628 H   0  0  0  0  0  0
  -21.6646  -26.7465   22.1203 H   0  0  0  0  0  0
  -19.6908  -25.6316   21.1250 H   0  0  0  0  0  0
  -19.6677  -27.3213   20.6749 H   0  0  0  0  0  0
  -17.4200  -26.6698   21.4033 H   0  0  0  0  0  0
  -18.0319  -26.0093   22.9036 H   0  0  0  0  0  0
  -19.7953  -30.7281   24.2272 H   0  0  0  0  0  0
  -17.5039  -31.6283   24.5183 H   0  0  0  0  0  0
  -15.5368  -30.3024   23.7662 H   0  0  0  0  0  0
  -15.8674  -28.0850   22.7087 H   0  0  0  0  0  0
  -24.5871  -30.7117   25.7743 H   0  0  0  0  0  0
  -24.8905  -32.2940   26.4814 H   0  0  0  0  0  0
  -25.8009  -30.8951   27.0211 H   0  0  0  0  0  0
  -26.2942  -29.6737   24.1211 H   0  0  0  0  0  0
  -27.3993  -29.7273   25.4752 H   0  0  0  0  0  0
  -27.8837  -30.4258   23.9480 H   0  0  0  0  0  0
  -27.2622  -33.3643   26.2045 H   0  0  0  0  0  0
  -28.3861  -32.6903   25.0328 H   0  0  0  0  0  0
  -28.0682  -31.8475   26.5430 H   0  0  0  0  0  0
  -28.2606  -38.0084   24.7525 H   0  0  0  0  0  0
  -28.1063  -36.2621   24.6289 H   0  0  0  0  0  0
  -27.2296  -37.1441   25.8872 H   0  0  0  0  0  0
  -20.9400  -29.8761   21.6824 H   0  0  0  0  0  0
  -26.0165  -38.2853   24.1419 H   0  0  0  0  0  0
  -26.7485  -22.0761   21.3070 H   0  0  0  0  0  0
  -27.4572  -22.8233   22.7054 H   0  0  0  0  0  0
  -26.3459  -24.7300   21.7217 H   0  0  0  0  0  0
  -26.5867  -24.0903   20.1064 H   0  0  0  0  0  0
  -28.9703  -23.6852   19.2839 H   0  0  0  0  0  0
  -30.3040  -24.0611   20.3310 H   0  0  0  0  0  0
  -29.3263  -16.7344   18.1961 H   0  0  0  0  0  0
  -27.8652  -17.3563   17.4580 H   0  0  0  0  0  0
  -27.7715  -16.5930   19.0298 H   0  0  0  0  0  0
  -29.6028  -21.5461   22.9870 H   0  0  0  0  0  0
  -30.0006  -23.2430   22.8875 H   0  0  0  0  0  0
  -30.9082  -22.1000   21.9486 H   0  0  0  0  0  0
  -28.6799  -24.8596   23.0626 H   0  0  0  0  0  0
  -28.3041  -26.4658   22.5671 H   0  0  0  0  0  0
  -29.9066  -25.8236   22.2310 H   0  0  0  0  0  0
  -30.4422  -17.5603   21.9052 H   0  0  0  0  0  0
  -31.2515  -17.4631   20.3857 H   0  0  0  0  0  0
  -27.0186  -18.9804   17.0162 H   0  0  0  0  0  0
  -26.8481  -20.6801   17.2188 H   0  0  0  0  0  0
  -28.8600  -15.7389   20.9129 H   0  0  0  0  0  0
  1 25  1  0  0  0
  1 30  2  0  0  0
  1 87  1  0  0  0
  2  3  1  0  0  0
  2 25  1  0  0  0
  2 88  1  0  0  0
  2 89  1  0  0  0
  3  4  1  0  0  0
  3 90  1  0  0  0
  3 91  1  0  0  0
  4  5  1  0  0  0
  4 92  1  0  0  0
  4 93  1  0  0  0
  5  6  1  0  0  0
  5 26  1  0  0  0
  5 94  1  0  0  0
  6 25  1  0  0  0
  6 95  1  0  0  0
  6 96  1  0  0  0
  7  8  2  0  0  0
  7 26  1  0  0  0
  7 29  1  0  0  0
  8  9  1  0  0  0
  8 22  1  0  0  0
  9 10  1  0  0  0
  9 27  2  0  0  0
 10 11  2  0  0  0
 10 15  1  0  0  0
 11 12  1  0  0  0
 11 97  1  0  0  0
 12 13  2  0  0  0
 12 98  1  0  0  0
 13 14  1  0  0  0
 13 31  1  0  0  0
 14 15  2  0  0  0
 14 99  1  0  0  0
 15100  1  0  0  0
 16 17  2  0  0  0
 16 21  1  0  0  0
 16 31  1  0  0  0
 17 18  1  0  0  0
 17101  1  0  0  0
 18 19  2  0  0  0
 18102  1  0  0  0
 19 20  1  0  0  0
 19 24  1  0  0  0
 20 21  2  0  0  0
 20103  1  0  0  0
 21 23  1  0  0  0
 22 28  1  0  0  0
 22 32  2  0  0  0
 26 27  1  0  0  0
 28104  1  0  0  0
 28105  1  0  0  0
 29106  1  0  0  0
 29107  1  0  0  0
 33 34  1  0  0  0
 33 66  1  0  0  0
 33 70  2  0  0  0
 34 36  1  0  0  0
 34 59  1  0  0  0
 34108  1  0  0  0
 35 44  2  0  0  0
 35 45  1  0  0  0
 35 68  1  0  0  0
 36 56  1  0  0  0
 36109  1  0  0  0
 37 39  1  0  0  0
 37 47  1  0  0  0
 37 66  1  0  0  0
 37110  1  0  0  0
 38 43  2  0  0  0
 38 46  1  0  0  0
 38 47  1  0  0  0
 39 64  1  0  0  0
 39 67  2  0  0  0
 40 52  1  0  0  0
 40 53  2  0  0  0
 40 58  1  0  0  0
 41111  1  0  0  0
 41112  1  0  0  0
 41113  1  0  0  0
 41 48  1  0  0  0
 42 43  1  0  0  0
 42 66  1  0  0  0
 42114  1  0  0  0
 42115  1  0  0  0
 43 44  1  0  0  0
 44116  1  0  0  0
 45 46  2  0  0  0
 45117  1  0  0  0
 46118  1  0  0  0
 47119  1  0  0  0
 47120  1  0  0  0
 48 56  1  0  0  0
 48 65  1  0  0  0
 48121  1  0  0  0
 49 50  1  0  0  0
 49 53  1  0  0  0
 49 64  1  0  0  0
 49122  1  0  0  0
 50 51  1  0  0  0
 50123  1  0  0  0
 50124  1  0  0  0
 51 52  1  0  0  0
 51125  1  0  0  0
 51126  1  0  0  0
 52127  1  0  0  0
 52128  1  0  0  0
 53 54  1  0  0  0
 54 55  2  0  0  0
 54129  1  0  0  0
 55 57  1  0  0  0
 55130  1  0  0  0
 56 69  2  0  0  0
 57 58  2  0  0  0
 57131  1  0  0  0
 58132  1  0  0  0
 59 60  1  0  0  0
 59 61  1  0  0  0
 59 62  1  0  0  0
 60133  1  0  0  0
 60134  1  0  0  0
 60135  1  0  0  0
 61136  1  0  0  0
 61137  1  0  0  0
 61138  1  0  0  0
 62139  1  0  0  0
 62140  1  0  0  0
 62141  1  0  0  0
 63 65  1  0  0  0
 63142  1  0  0  0
 63143  1  0  0  0
 63144  1  0  0  0
 64145  1  0  0  0
 65146  1  0  0  0
 68 79  1  0  0  0
 71 72  2  0  0  0
 71 73  1  0  0  0
 71 80  1  0  0  0
 72 83  1  0  0  0
 72 84  1  0  0  0
 73 85  2  0  0  0
 73 86  1  0  0  0
 74 78  1  0  0  0
 74 84  2  0  0  0
 74 85  1  0  0  0
 75 76  1  0  0  0
 75 78  1  0  0  0
 75147  1  0  0  0
 75148  1  0  0  0
 76 79  1  0  0  0
 76149  1  0  0  0
 76150  1  0  0  0
 77 78  1  0  0  0
 77 79  1  0  0  0
 77151  1  0  0  0
 77152  1  0  0  0
 78 81  1  0  0  0
 79 82  1  0  0  0
 80153  1  0  0  0
 80154  1  0  0  0
 80155  1  0  0  0
 81156  1  0  0  0
 81157  1  0  0  0
 81158  1  0  0  0
 82159  1  0  0  0
 82160  1  0  0  0
 82161  1  0  0  0
 83 87  1  0  0  0
 83162  1  0  0  0
 83163  1  0  0  0
 86164  1  0  0  0
 86165  1  0  0  0
 87166  1  0  0  0
M  ISO  4   1 100  68 101  79 101  87 100
M  END
> <chiral flag>
0

> <version>
0

> <s_m_source_file>
/data/baiqing/PycharmProjects/Reinvent-master-3.2/result/LINK_invent/BTK/process_docking_weight1_custom_sum_contain_oxygen_bond_distance_aromatic_linkinvent_7_9_3/rearranged_h_0175.sdf

> <i_m_source_file_index>
11

> <r_mmod_Potential_Energy-OPLS-2005>
-446.472747802734

> <r_mmod_Stretch_Energy-OPLS-2005>
137.510330200195

> <r_mmod_Bend_Energy-OPLS-2005>
240.413269042969

> <r_mmod_Torsional_Energy-OPLS-2005>
268.0771484375

> <r_mmod_Improper_Torsional_Energy-OPLS-2005>
5.0512580871582

> <r_mmod_Van_der_Waal_Energy-OPLS-2005>
147.00944519043

> <r_mmod_Electrostatic_Energy-OPLS-2005>
-1106.47619628906

> <r_mmod_Solvation_Energy-OPLS-2005>
-230.379928588867

> <b_mmod_Minimization_Converged-OPLS-2005>
0

> <r_mmod_RMS_Derivative-OPLS-2005>
2.23079752922058

$$$$
11
                    3D
 Structure written by MMmdl.
165174  0  0  1  0            999 V2000
  -30.5373  -14.8858   20.4655 C   0  0  0  0  0  0
  -30.4673  -12.5474   19.4739 C   0  0  0  0  0  0
  -29.5182  -12.4890   18.2492 C   0  0  0  0  0  0
  -28.0610  -12.2676   18.6945 C   0  0  0  0  0  0
  -27.6479  -13.2181   19.8428 C   0  0  2  0  0  0
  -28.6884  -13.2181   20.9851 C   0  0  0  0  0  0
  -25.2601  -13.8247   20.5695 C   0  0  0  0  0  0
  -24.1884  -13.0561   20.9179 C   0  0  0  0  0  0
  -24.6414  -11.6974   20.8771 C   0  0  0  0  0  0
  -23.9110  -10.4376   21.0410 C   0  0  0  0  0  0
  -24.3691   -9.4276   21.9186 C   0  0  0  0  0  0
  -23.6335   -8.2326   22.0767 C   0  0  0  0  0  0
  -22.4321   -8.0344   21.3546 C   0  0  0  0  0  0
  -21.9948   -9.0332   20.4677 C   0  0  0  0  0  0
  -22.7273  -10.2201   20.3061 C   0  0  0  0  0  0
  -21.6888   -6.0780   22.5279 C   0  0  0  0  0  0
  -21.4030   -6.5668   23.8218 C   0  0  0  0  0  0
  -21.3625   -5.6805   24.9166 C   0  0  0  0  0  0
  -21.6037   -4.3084   24.7203 C   0  0  0  0  0  0
  -21.8824   -3.8174   23.4334 C   0  0  0  0  0  0
  -21.9219   -4.7003   22.3390 C   0  0  0  0  0  0
  -22.7902  -13.5324   21.1803 C   0  0  0  0  0  0
  -22.1704   -4.2201   21.0964 F   0  0  0  0  0  0
  -21.5588   -3.4544   25.7714 F   0  0  0  0  0  0
  -29.9826  -13.6153   20.3995 N   0  0  0  0  0  0
  -26.3010  -12.9406   20.3254 N   0  0  0  0  0  0
  -25.9342  -11.6572   20.5800 N   0  0  0  0  0  0
  -22.0583  -12.8308   22.0328 N   0  0  0  0  0  0
  -25.4352  -15.1984   20.4128 N   0  0  0  0  0  0
  -31.7205  -15.0249   20.1239 O   0  0  0  0  0  0
  -21.6668   -6.8944   21.4242 O   0  0  0  0  0  0
  -22.3551  -14.5668   20.6676 O   0  0  0  0  0  0
  -24.6488  -31.8425   23.1816 C   0  0  0  0  0  0
  -25.9310  -32.4638   23.8167 C   0  0  1  0  0  0
  -27.2076  -27.1333   20.1575 C   0  0  0  0  0  0
  -25.6028  -33.8413   24.2098 N   0  0  0  0  0  0
  -23.4504  -30.4684   21.5212 C   0  0  2  0  0  0
  -24.8909  -28.8907   20.1026 C   0  0  0  0  0  0
  -22.7535  -29.4582   22.4711 C   0  0  0  0  0  0
  -18.0398  -28.1372   22.8448 C   0  0  0  0  0  0
  -24.1528  -36.7226   23.2646 C   0  0  0  0  0  0
  -26.0016  -30.7101   21.3782 C   0  0  0  0  0  0
  -26.0708  -29.3285   20.7180 C   0  0  0  0  0  0
  -27.2317  -28.4692   20.7359 C   0  0  0  0  0  0
  -25.9951  -26.7926   19.5157 C   0  0  0  0  0  0
  -24.8613  -27.6308   19.4968 C   0  0  0  0  0  0
  -23.6756  -29.8043   20.1390 C   0  0  0  0  0  0
  -25.4153  -36.2981   24.0309 C   0  0  1  0  0  0
  -20.5996  -28.3749   23.1189 C   0  0  2  0  0  0
  -20.6840  -26.9345   22.5622 C   0  0  0  0  0  0
  -19.5941  -26.6312   21.5288 C   0  0  0  0  0  0
  -18.2005  -26.8011   22.1410 C   0  0  0  0  0  0
  -19.1647  -28.8852   23.2860 C   0  0  0  0  0  0
  -18.9577  -30.1415   23.8928 C   0  0  0  0  0  0
  -17.6566  -30.6509   24.0608 C   0  0  0  0  0  0
  -25.9109  -34.9374   23.5026 C   0  0  0  0  0  0
  -16.5472  -29.9030   23.6357 C   0  0  0  0  0  0
  -16.7395  -28.6472   23.0305 C   0  0  0  0  0  0
  -26.4572  -31.6518   25.0626 C   0  0  0  0  0  0
  -25.3736  -31.3837   26.1338 C   0  0  0  0  0  0
  -27.0470  -30.2904   24.6328 C   0  0  0  0  0  0
  -27.6073  -32.4267   25.7435 C   0  0  0  0  0  0
  -27.5579  -37.1759   24.8472 C   0  0  0  0  0  0
  -21.4231  -29.3037   22.3465 N   0  0  0  0  0  0
  -26.4295  -37.3695   23.9406 N   0  0  0  0  0  0
  -24.7191  -31.0275   22.0848 N   0  0  0  0  0  0
  -23.4188  -28.8196   23.2910 O   0  0  0  0  0  0
  -28.2487  -26.1436   20.2337 O   0  0  0  0  0  0
  -26.5696  -34.8925   22.4596 O   0  0  0  0  0  0
  -23.5631  -32.1242   23.7080 O   0  0  0  0  0  0
  -28.3675  -18.0133   21.2965 C   0  0  0  0  0  0
  -30.2184  -19.7927   20.5333 C   0  0  0  0  0  0
  -29.0339  -20.4529   21.0365 C   0  0  0  0  0  0
  -28.1047  -19.4248   21.4413 C   0  0  0  0  0  0
  -29.5757  -17.4540   20.7934 C   0  0  0  0  0  0
  -29.6633  -22.3352   22.6584 C   0  0  0  0  0  0
  -28.2449  -22.7135   22.5716 C   0  0  0  0  0  0
  -28.9158  -22.1000   21.3296 C   0  0  0  0  0  0
  -27.1496  -19.6175   23.7404 C   0  0  0  0  0  0
  -28.8056  -22.5711   18.7920 C   0  0  0  0  0  0
  -30.3692  -23.9470   20.2299 C   0  0  0  0  0  0
  -26.8516  -19.7431   22.2332 C   0  0  0  0  0  0
  -27.9263  -24.6229   20.1714 C   0  0  0  0  0  0
  -28.9745  -23.2894   20.1629 C   0  0  0  0  0  0
  -30.4731  -18.4198   20.4049 N   0  0  0  0  0  0
  -29.6640  -15.9414   20.7923 N   0  0  0  0  0  0
  -31.4860  -12.7380   19.1282 H   0  0  0  0  0  0
  -30.4925  -11.5777   19.9764 H   0  0  0  0  0  0
  -29.8205  -11.6898   17.5724 H   0  0  0  0  0  0
  -29.5853  -13.4135   17.6775 H   0  0  0  0  0  0
  -27.9911  -11.2395   19.0486 H   0  0  0  0  0  0
  -27.3737  -12.3373   17.8504 H   0  0  0  0  0  0
  -27.6375  -14.2190   19.4110 H   0  0  0  0  0  0
  -28.7551  -12.2426   21.4726 H   0  0  0  0  0  0
  -28.3817  -13.9097   21.7734 H   0  0  0  0  0  0
  -25.2869   -9.5750   22.4702 H   0  0  0  0  0  0
  -24.0040   -7.4746   22.7515 H   0  0  0  0  0  0
  -21.0867   -8.8918   19.9014 H   0  0  0  0  0  0
  -22.3786  -10.9756   19.6165 H   0  0  0  0  0  0
  -21.2034   -7.6174   23.9743 H   0  0  0  0  0  0
  -21.1410   -6.0524   25.9077 H   0  0  0  0  0  0
  -22.0618   -2.7626   23.2821 H   0  0  0  0  0  0
  -22.4261  -11.9964   22.4652 H   0  0  0  0  0  0
  -21.1239  -13.1334   22.2661 H   0  0  0  0  0  0
  -24.6632  -15.8440   20.5522 H   0  0  0  0  0  0
  -26.2524  -15.6402   20.0092 H   0  0  0  0  0  0
  -26.7366  -32.5256   23.0870 H   0  0  0  0  0  0
  -25.0105  -33.9494   25.0213 H   0  0  0  0  0  0
  -22.7622  -31.3032   21.3746 H   0  0  0  0  0  0
  -23.3758  -35.9568   23.3278 H   0  0  0  0  0  0
  -24.3637  -36.8873   22.2064 H   0  0  0  0  0  0
  -23.7330  -37.6449   23.6675 H   0  0  0  0  0  0
  -26.1823  -31.4538   20.6007 H   0  0  0  0  0  0
  -26.8566  -30.7434   22.0408 H   0  0  0  0  0  0
  -28.1248  -28.8057   21.2555 H   0  0  0  0  0  0
  -25.8615  -25.8296   19.0447 H   0  0  0  0  0  0
  -23.9523  -27.2599   19.0440 H   0  0  0  0  0  0
  -23.8209  -30.5762   19.3802 H   0  0  0  0  0  0
  -22.7764  -29.2640   19.8495 H   0  0  0  0  0  0
  -25.1329  -36.1745   25.0773 H   0  0  0  0  0  0
  -21.0241  -28.3538   24.1216 H   0  0  0  0  0  0
  -20.5414  -26.2465   23.3967 H   0  0  0  0  0  0
  -21.6755  -26.7059   22.1702 H   0  0  0  0  0  0
  -19.7072  -25.6224   21.1317 H   0  0  0  0  0  0
  -19.7093  -27.3082   20.6812 H   0  0  0  0  0  0
  -17.4461  -26.7099   21.3579 H   0  0  0  0  0  0
  -18.0052  -25.9997   22.8514 H   0  0  0  0  0  0
  -19.8047  -30.7205   24.2339 H   0  0  0  0  0  0
  -17.5137  -31.6197   24.5214 H   0  0  0  0  0  0
  -15.5469  -30.2944   23.7631 H   0  0  0  0  0  0
  -15.8830  -28.0797   22.6935 H   0  0  0  0  0  0
  -24.5818  -30.7281   25.7723 H   0  0  0  0  0  0
  -24.9045  -32.3090   26.4687 H   0  0  0  0  0  0
  -25.7974  -30.9046   27.0180 H   0  0  0  0  0  0
  -26.3142  -29.6553   24.1356 H   0  0  0  0  0  0
  -27.4092  -29.7299   25.4967 H   0  0  0  0  0  0
  -27.9018  -30.4116   23.9670 H   0  0  0  0  0  0
  -27.2616  -33.3510   26.2079 H   0  0  0  0  0  0
  -28.3860  -32.6930   25.0270 H   0  0  0  0  0  0
  -28.0779  -31.8363   26.5325 H   0  0  0  0  0  0
  -28.2588  -38.0067   24.7457 H   0  0  0  0  0  0
  -28.1083  -36.2587   24.6305 H   0  0  0  0  0  0
  -27.2310  -37.1423   25.8888 H   0  0  0  0  0  0
  -20.9318  -29.8827   21.6773 H   0  0  0  0  0  0
  -26.0160  -38.2752   24.1360 H   0  0  0  0  0  0
  -27.6195  -17.3184   21.6584 H   0  0  0  0  0  0
  -31.0712  -20.3996   20.2676 H   0  0  0  0  0  0
  -30.3981  -23.1359   22.7038 H   0  0  0  0  0  0
  -29.8688  -21.4925   23.3263 H   0  0  0  0  0  0
  -28.1047  -23.7927   22.6497 H   0  0  0  0  0  0
  -27.5121  -22.1591   23.1331 H   0  0  0  0  0  0
  -26.2903  -19.8990   24.3438 H   0  0  0  0  0  0
  -27.9889  -20.2333   24.0642 H   0  0  0  0  0  0
  -27.4249  -18.5948   24.0001 H   0  0  0  0  0  0
  -27.7689  -22.5884   18.4458 H   0  0  0  0  0  0
  -29.0948  -21.5231   18.8165 H   0  0  0  0  0  0
  -29.4158  -23.0067   17.9997 H   0  0  0  0  0  0
  -31.1586  -23.2217   20.4225 H   0  0  0  0  0  0
  -30.4101  -24.7161   21.0070 H   0  0  0  0  0  0
  -30.6309  -24.4426   19.2971 H   0  0  0  0  0  0
  -26.0531  -19.0487   21.9669 H   0  0  0  0  0  0
  -26.4398  -20.7082   21.9622 H   0  0  0  0  0  0
  -27.1154  -24.4341   20.8738 H   0  0  0  0  0  0
  -27.4323  -24.5307   19.2105 H   0  0  0  0  0  0
  -28.8140  -15.5330   21.1405 H   0  0  0  0  0  0
  1 25  1  0  0  0
  1 30  2  0  0  0
  1 86  1  0  0  0
  2  3  1  0  0  0
  2 25  1  0  0  0
  2 87  1  0  0  0
  2 88  1  0  0  0
  3  4  1  0  0  0
  3 89  1  0  0  0
  3 90  1  0  0  0
  4  5  1  0  0  0
  4 91  1  0  0  0
  4 92  1  0  0  0
  5  6  1  0  0  0
  5 26  1  0  0  0
  5 93  1  0  0  0
  6 25  1  0  0  0
  6 94  1  0  0  0
  6 95  1  0  0  0
  7  8  2  0  0  0
  7 26  1  0  0  0
  7 29  1  0  0  0
  8  9  1  0  0  0
  8 22  1  0  0  0
  9 10  1  0  0  0
  9 27  2  0  0  0
 10 11  2  0  0  0
 10 15  1  0  0  0
 11 12  1  0  0  0
 11 96  1  0  0  0
 12 13  2  0  0  0
 12 97  1  0  0  0
 13 14  1  0  0  0
 13 31  1  0  0  0
 14 15  2  0  0  0
 14 98  1  0  0  0
 15 99  1  0  0  0
 16 17  2  0  0  0
 16 21  1  0  0  0
 16 31  1  0  0  0
 17 18  1  0  0  0
 17100  1  0  0  0
 18 19  2  0  0  0
 18101  1  0  0  0
 19 20  1  0  0  0
 19 24  1  0  0  0
 20 21  2  0  0  0
 20102  1  0  0  0
 21 23  1  0  0  0
 22 28  1  0  0  0
 22 32  2  0  0  0
 26 27  1  0  0  0
 28103  1  0  0  0
 28104  1  0  0  0
 29105  1  0  0  0
 29106  1  0  0  0
 33 34  1  0  0  0
 33 66  1  0  0  0
 33 70  2  0  0  0
 34 36  1  0  0  0
 34 59  1  0  0  0
 34107  1  0  0  0
 35 44  2  0  0  0
 35 45  1  0  0  0
 35 68  1  0  0  0
 36 56  1  0  0  0
 36108  1  0  0  0
 37 39  1  0  0  0
 37 47  1  0  0  0
 37 66  1  0  0  0
 37109  1  0  0  0
 38 43  2  0  0  0
 38 46  1  0  0  0
 38 47  1  0  0  0
 39 64  1  0  0  0
 39 67  2  0  0  0
 40 52  1  0  0  0
 40 53  2  0  0  0
 40 58  1  0  0  0
 41110  1  0  0  0
 41111  1  0  0  0
 41112  1  0  0  0
 41 48  1  0  0  0
 42 43  1  0  0  0
 42 66  1  0  0  0
 42113  1  0  0  0
 42114  1  0  0  0
 43 44  1  0  0  0
 44115  1  0  0  0
 45 46  2  0  0  0
 45116  1  0  0  0
 46117  1  0  0  0
 47118  1  0  0  0
 47119  1  0  0  0
 48 56  1  0  0  0
 48 65  1  0  0  0
 48120  1  0  0  0
 49 50  1  0  0  0
 49 53  1  0  0  0
 49 64  1  0  0  0
 49121  1  0  0  0
 50 51  1  0  0  0
 50122  1  0  0  0
 50123  1  0  0  0
 51 52  1  0  0  0
 51124  1  0  0  0
 51125  1  0  0  0
 52126  1  0  0  0
 52127  1  0  0  0
 53 54  1  0  0  0
 54 55  2  0  0  0
 54128  1  0  0  0
 55 57  1  0  0  0
 55129  1  0  0  0
 56 69  2  0  0  0
 57 58  2  0  0  0
 57130  1  0  0  0
 58131  1  0  0  0
 59 60  1  0  0  0
 59 61  1  0  0  0
 59 62  1  0  0  0
 60132  1  0  0  0
 60133  1  0  0  0
 60134  1  0  0  0
 61135  1  0  0  0
 61136  1  0  0  0
 61137  1  0  0  0
 62138  1  0  0  0
 62139  1  0  0  0
 62140  1  0  0  0
 63 65  1  0  0  0
 63141  1  0  0  0
 63142  1  0  0  0
 63143  1  0  0  0
 64144  1  0  0  0
 65145  1  0  0  0
 68 83  1  0  0  0
 71 74  2  0  0  0
 71 75  1  0  0  0
 71146  1  0  0  0
 72 73  2  0  0  0
 72 85  1  0  0  0
 72147  1  0  0  0
 73 74  1  0  0  0
 73 78  1  0  0  0
 74 82  1  0  0  0
 75 85  2  0  0  0
 75 86  1  0  0  0
 76 77  1  0  0  0
 76 78  1  0  0  0
 76148  1  0  0  0
 76149  1  0  0  0
 77 78  1  0  0  0
 77150  1  0  0  0
 77151  1  0  0  0
 78 84  1  0  0  0
 79 82  1  0  0  0
 79152  1  0  0  0
 79153  1  0  0  0
 79154  1  0  0  0
 80155  1  0  0  0
 80156  1  0  0  0
 80157  1  0  0  0
 80 84  1  0  0  0
 81 84  1  0  0  0
 81158  1  0  0  0
 81159  1  0  0  0
 81160  1  0  0  0
 82161  1  0  0  0
 82162  1  0  0  0
 83 84  1  0  0  0
 83163  1  0  0  0
 83164  1  0  0  0
 86165  1  0  0  0
M  ISO  4   1 100  68 101  83 101  86 100
M  END
> <chiral flag>
0

> <version>
0

> <s_m_source_file>
/data/baiqing/PycharmProjects/Reinvent-master-3.2/result/LINK_invent/BTK/process_docking_weight1_custom_sum_contain_oxygen_bond_distance_aromatic_linkinvent_7_9_3/rearranged_h_0175.sdf

> <i_m_source_file_index>
12

> <r_mmod_Potential_Energy-OPLS-2005>
443.704925537109

> <r_mmod_Stretch_Energy-OPLS-2005>
247.331665039062

> <r_mmod_Bend_Energy-OPLS-2005>
308.521789550781

> <r_mmod_Torsional_Energy-OPLS-2005>
277.400329589844

> <r_mmod_Improper_Torsional_Energy-OPLS-2005>
5.4033899307251

> <r_mmod_Van_der_Waal_Energy-OPLS-2005>
158.578796386719

> <r_mmod_Electrostatic_Energy-OPLS-2005>
-507.471801757812

> <r_mmod_Solvation_Energy-OPLS-2005>
-222.40022277832

> <b_mmod_Minimization_Converged-OPLS-2005>
0

> <r_mmod_RMS_Derivative-OPLS-2005>
10.3855085372925

$$$$
12
                    3D
 Structure written by MMmdl.
189201  0  0  1  0            999 V2000
  -30.8559  -14.2430   20.7491 C   0  0  0  0  0  0
  -30.4002  -12.2603   19.3791 C   0  0  0  0  0  0
  -29.4712  -12.5315   18.1863 C   0  0  0  0  0  0
  -28.0021  -12.3815   18.6117 C   0  0  0  0  0  0
  -27.6694  -13.2072   19.8813 C   0  0  2  0  0  0
  -28.7074  -12.9635   21.0028 C   0  0  0  0  0  0
  -25.2609  -13.8168   20.5688 C   0  0  0  0  0  0
  -24.1854  -13.0437   20.9166 C   0  0  0  0  0  0
  -24.6416  -11.6909   20.8728 C   0  0  0  0  0  0
  -23.9079  -10.4294   21.0399 C   0  0  0  0  0  0
  -24.3617   -9.4210   21.9183 C   0  0  0  0  0  0
  -23.6289   -8.2246   22.0756 C   0  0  0  0  0  0
  -22.4272   -8.0286   21.3547 C   0  0  0  0  0  0
  -21.9918   -9.0260   20.4640 C   0  0  0  0  0  0
  -22.7248  -10.2136   20.3045 C   0  0  0  0  0  0
  -21.6849   -6.0741   22.5284 C   0  0  0  0  0  0
  -21.4010   -6.5644   23.8219 C   0  0  0  0  0  0
  -21.3651   -5.6797   24.9179 C   0  0  0  0  0  0
  -21.6043   -4.3059   24.7232 C   0  0  0  0  0  0
  -21.8817   -3.8148   23.4352 C   0  0  0  0  0  0
  -21.9189   -4.6968   22.3404 C   0  0  0  0  0  0
  -22.7871  -13.5225   21.1831 C   0  0  0  0  0  0
  -22.1660   -4.2150   21.0985 F   0  0  0  0  0  0
  -21.5621   -3.4543   25.7744 F   0  0  0  0  0  0
  -30.0648  -13.1821   20.4712 N   0  0  0  0  0  0
  -26.3071  -12.9355   20.3414 N   0  0  0  0  0  0
  -25.9349  -11.6506   20.5782 N   0  0  0  0  0  0
  -22.0509  -12.8213   22.0383 N   0  0  0  0  0  0
  -25.4335  -15.1882   20.4089 N   0  0  0  0  0  0
  -31.7418  -14.6498   19.9922 O   0  0  0  0  0  0
  -21.6635   -6.8889   21.4247 O   0  0  0  0  0  0
  -22.3563  -14.5545   20.6699 O   0  0  0  0  0  0
  -24.6084  -31.8715   23.2131 C   0  0  0  0  0  0
  -25.9003  -32.4836   23.8408 C   0  0  1  0  0  0
  -27.2437  -27.4880   20.0794 C   0  0  0  0  0  0
  -25.5890  -33.8636   24.2347 N   0  0  0  0  0  0
  -23.3926  -30.4938   21.5526 C   0  0  2  0  0  0
  -24.8382  -28.9601   20.1179 C   0  0  0  0  0  0
  -22.7373  -29.4670   22.5025 C   0  0  0  0  0  0
  -18.0262  -28.1379   22.8492 C   0  0  0  0  0  0
  -24.1483  -36.7312   23.2639 C   0  0  0  0  0  0
  -25.9144  -30.8504   21.3572 C   0  0  0  0  0  0
  -25.9923  -29.4869   20.7089 C   0  0  0  0  0  0
  -27.1933  -28.7546   20.6909 C   0  0  0  0  0  0
  -26.0710  -26.9552   19.4939 C   0  0  0  0  0  0
  -24.8692  -27.6903   19.5128 C   0  0  0  0  0  0
  -23.5973  -29.8208   20.1680 C   0  0  0  0  0  0
  -25.4104  -36.3118   24.0347 C   0  0  1  0  0  0
  -20.5846  -28.3650   23.1348 C   0  0  2  0  0  0
  -20.6749  -26.9394   22.5437 C   0  0  0  0  0  0
  -19.5744  -26.6389   21.5218 C   0  0  0  0  0  0
  -18.1911  -26.7934   22.1603 C   0  0  0  0  0  0
  -19.1507  -28.8830   23.2919 C   0  0  0  0  0  0
  -18.9436  -30.1434   23.8927 C   0  0  0  0  0  0
  -17.6443  -30.6583   24.0570 C   0  0  0  0  0  0
  -25.9032  -34.9483   23.5142 C   0  0  0  0  0  0
  -16.5333  -29.9090   23.6322 C   0  0  0  0  0  0
  -16.7252  -28.6507   23.0343 C   0  0  0  0  0  0
  -26.4458  -31.6603   25.0715 C   0  0  0  0  0  0
  -25.3749  -31.3701   26.1485 C   0  0  0  0  0  0
  -27.0271  -30.3052   24.6048 C   0  0  0  0  0  0
  -27.6056  -32.4312   25.7455 C   0  0  0  0  0  0
  -27.5583  -37.1808   24.8462 C   0  0  0  0  0  0
  -21.4110  -29.3018   22.3758 N   0  0  0  0  0  0
  -26.4289  -37.3800   23.9416 N   0  0  0  0  0  0
  -24.6564  -31.0858   22.1002 N   0  0  0  0  0  0
  -23.4172  -28.8228   23.3054 O   0  0  0  0  0  0
  -28.4581  -26.8518   20.0743 O   0  0  0  0  0  0
  -26.5584  -34.8927   22.4697 O   0  0  0  0  0  0
  -23.5296  -32.1444   23.7563 O   0  0  0  0  0  0
  -30.2809  -23.8029   20.5378 C   0  0  0  0  0  0
  -29.9722  -23.6806   21.9175 C   0  0  0  0  0  0
  -30.1244  -22.4162   22.5454 C   0  0  0  0  0  0
  -30.6343  -21.3477   21.7634 C   0  0  0  0  0  0
  -30.8907  -22.7082   19.8942 C   0  0  0  0  0  0
  -29.9608  -18.9742   21.2428 C   0  0  0  0  0  0
  -30.4509  -20.7848   27.0197 C   0  0  0  0  0  0
  -31.6220  -21.6593   27.4049 C   0  0  0  0  0  0
  -30.0604  -17.5160   21.6761 C   0  0  0  0  0  0
  -31.4975  -16.0698   24.0247 C   0  0  0  0  0  0
  -29.2079  -25.1186   18.4565 C   0  0  0  0  0  0
  -31.9777  -17.5376   24.1367 C   0  0  0  0  0  0
  -32.1722  -19.4270   22.4375 C   0  0  0  0  0  0
  -29.9510  -25.0602   19.7842 C   0  0  1  0  0  0
  -30.7151  -19.8925   22.2290 C   0  0  1  0  0  0
  -30.6007  -22.1581   26.4097 C   0  0  0  0  0  0
  -31.6766  -15.7186   22.5380 C   0  0  2  0  0  0
  -31.5402  -17.0818   21.8462 C   0  0  2  0  0  0
  -28.5033  -25.4846   19.7314 C   0  0  1  0  0  0
  -29.4696  -24.8872   22.7074 C   0  0  0  0  0  0
  -31.3879  -22.7695   18.4613 C   0  0  0  0  0  0
  -29.7422  -22.2288   24.0190 C   0  0  0  0  0  0
  -30.9632  -22.3326   24.9487 C   0  0  0  0  0  0
  -31.0667  -21.5250   20.4989 N   0  0  0  0  0  0
  -30.7596  -14.7092   22.0013 N   0  0  0  0  0  0
  -32.2793  -17.9783   22.7537 N   0  3  2  0  0  0
  -31.4451  -12.3401   19.0725 H   0  0  0  0  0  0
  -30.2735  -11.2332   19.7241 H   0  0  0  0  0  0
  -29.6960  -11.8429   17.3713 H   0  0  0  0  0  0
  -29.6461  -13.5361   17.7991 H   0  0  0  0  0  0
  -27.8138  -11.3229   18.7951 H   0  0  0  0  0  0
  -27.3418  -12.6686   17.7924 H   0  0  0  0  0  0
  -27.7283  -14.2594   19.6010 H   0  0  0  0  0  0
  -28.6325  -11.9404   21.3725 H   0  0  0  0  0  0
  -28.4789  -13.6091   21.8516 H   0  0  0  0  0  0
  -25.2767   -9.5680   22.4753 H   0  0  0  0  0  0
  -23.9986   -7.4641   22.7484 H   0  0  0  0  0  0
  -21.0848   -8.8783   19.8952 H   0  0  0  0  0  0
  -22.3720  -10.9669   19.6141 H   0  0  0  0  0  0
  -21.2005   -7.6156   23.9723 H   0  0  0  0  0  0
  -21.1466   -6.0531   25.9081 H   0  0  0  0  0  0
  -22.0596   -2.7611   23.2856 H   0  0  0  0  0  0
  -22.4086  -11.9826   22.4717 H   0  0  0  0  0  0
  -21.1130  -13.1240   22.2595 H   0  0  0  0  0  0
  -24.6708  -15.8482   20.5129 H   0  0  0  0  0  0
  -26.2954  -15.6251   20.1062 H   0  0  0  0  0  0
  -26.7074  -32.5564   23.1177 H   0  0  0  0  0  0
  -25.0065  -33.9810   25.0507 H   0  0  0  0  0  0
  -22.6783  -31.3083   21.4147 H   0  0  0  0  0  0
  -23.3750  -35.9640   23.3308 H   0  0  0  0  0  0
  -24.3580  -36.8913   22.2052 H   0  0  0  0  0  0
  -23.7222  -37.6518   23.6641 H   0  0  0  0  0  0
  -26.0168  -31.6159   20.5869 H   0  0  0  0  0  0
  -26.8062  -30.9069   21.9694 H   0  0  0  0  0  0
  -28.0879  -29.1624   21.1412 H   0  0  0  0  0  0
  -26.0729  -25.9906   19.0068 H   0  0  0  0  0  0
  -23.9800  -27.2783   19.0554 H   0  0  0  0  0  0
  -23.6977  -30.5923   19.4041 H   0  0  0  0  0  0
  -22.7238  -29.2337   19.8795 H   0  0  0  0  0  0
  -25.1277  -36.1985   25.0840 H   0  0  0  0  0  0
  -20.9930  -28.3204   24.1472 H   0  0  0  0  0  0
  -20.5630  -26.2260   23.3618 H   0  0  0  0  0  0
  -21.6626  -26.7434   22.1243 H   0  0  0  0  0  0
  -19.6905  -25.6308   21.1228 H   0  0  0  0  0  0
  -19.6704  -27.3214   20.6769 H   0  0  0  0  0  0
  -17.4201  -26.6714   21.3983 H   0  0  0  0  0  0
  -18.0278  -26.0057   22.8971 H   0  0  0  0  0  0
  -19.7916  -30.7235   24.2314 H   0  0  0  0  0  0
  -17.5005  -31.6267   24.5172 H   0  0  0  0  0  0
  -15.5337  -30.3006   23.7641 H   0  0  0  0  0  0
  -15.8651  -28.0845   22.7040 H   0  0  0  0  0  0
  -24.5957  -30.6989   25.7851 H   0  0  0  0  0  0
  -24.8892  -32.2846   26.4907 H   0  0  0  0  0  0
  -25.8137  -30.8926   27.0255 H   0  0  0  0  0  0
  -26.2786  -29.6822   24.1138 H   0  0  0  0  0  0
  -27.4093  -29.7278   25.4475 H   0  0  0  0  0  0
  -27.8602  -30.4376   23.9140 H   0  0  0  0  0  0
  -27.2693  -33.3601   26.2074 H   0  0  0  0  0  0
  -28.3840  -32.6889   25.0260 H   0  0  0  0  0  0
  -28.0759  -31.8412   26.5331 H   0  0  0  0  0  0
  -28.2614  -38.0091   24.7500 H   0  0  0  0  0  0
  -28.1061  -36.2628   24.6285 H   0  0  0  0  0  0
  -27.2312  -37.1458   25.8868 H   0  0  0  0  0  0
  -20.9267  -29.8734   21.6986 H   0  0  0  0  0  0
  -26.0183  -38.2879   24.1425 H   0  0  0  0  0  0
  -28.9147  -19.2759   21.1748 H   0  0  0  0  0  0
  -30.3716  -19.0623   20.2362 H   0  0  0  0  0  0
  -29.6638  -20.6457   27.7585 H   0  0  0  0  0  0
  -30.6550  -19.9225   26.3888 H   0  0  0  0  0  0
  -32.6043  -21.3753   27.0317 H   0  0  0  0  0  0
  -31.6137  -22.1030   28.3988 H   0  0  0  0  0  0
  -29.5619  -16.8916   20.9338 H   0  0  0  0  0  0
  -29.5026  -17.3824   22.6034 H   0  0  0  0  0  0
  -30.4508  -15.9995   24.3247 H   0  0  0  0  0  0
  -32.0653  -15.4029   24.6736 H   0  0  0  0  0  0
  -28.9002  -24.1905   17.9813 H   0  0  0  0  0  0
  -29.4320  -25.9370   17.7747 H   0  0  0  0  0  0
  -32.8716  -17.6247   24.7555 H   0  0  0  0  0  0
  -31.2016  -18.1538   24.5910 H   0  0  0  0  0  0
  -32.6641  -20.0144   23.2128 H   0  0  0  0  0  0
  -32.7374  -19.6047   21.5219 H   0  0  0  0  0  0
  -30.7098  -25.8216   19.9573 H   0  0  0  0  0  0
  -30.2151  -19.7791   23.1845 H   0  0  0  0  0  0
  -29.9135  -22.9163   26.7822 H   0  0  0  0  0  0
  -32.7002  -15.3595   22.4029 H   0  0  0  0  0  0
  -32.0345  -17.0859   20.8733 H   0  0  0  0  0  0
  -27.7566  -24.8328   20.1847 H   0  0  0  0  0  0
  -29.7343  -25.8345   22.2406 H   0  0  0  0  0  0
  -29.9114  -24.9237   23.7025 H   0  0  0  0  0  0
  -28.3853  -24.8503   22.8113 H   0  0  0  0  0  0
  -31.7842  -23.7558   18.2214 H   0  0  0  0  0  0
  -30.5820  -22.5380   17.7657 H   0  0  0  0  0  0
  -32.1892  -22.0488   18.2944 H   0  0  0  0  0  0
  -29.2202  -21.2866   24.1737 H   0  0  0  0  0  0
  -28.9961  -22.9626   24.3208 H   0  0  0  0  0  0
  -31.7098  -21.5878   24.6764 H   0  0  0  0  0  0
  -31.4424  -23.3061   24.8303 H   0  0  0  0  0  0
  -30.0807  -14.2847   22.6160 H   0  0  0  0  0  0
  -33.2545  -17.7490   22.6199 H   0  0  0  0  0  0
  1 25  1  0  0  0
  1 30  2  0  0  0
  1 95  1  0  0  0
  2  3  1  0  0  0
  2 25  1  0  0  0
  2 97  1  0  0  0
  2 98  1  0  0  0
  3  4  1  0  0  0
  3 99  1  0  0  0
  3100  1  0  0  0
  4  5  1  0  0  0
  4101  1  0  0  0
  4102  1  0  0  0
  5  6  1  0  0  0
  5 26  1  0  0  0
  5103  1  0  0  0
  6 25  1  0  0  0
  6104  1  0  0  0
  6105  1  0  0  0
  7  8  2  0  0  0
  7 26  1  0  0  0
  7 29  1  0  0  0
  8  9  1  0  0  0
  8 22  1  0  0  0
  9 10  1  0  0  0
  9 27  2  0  0  0
 10 11  2  0  0  0
 10 15  1  0  0  0
 11 12  1  0  0  0
 11106  1  0  0  0
 12 13  2  0  0  0
 12107  1  0  0  0
 13 14  1  0  0  0
 13 31  1  0  0  0
 14 15  2  0  0  0
 14108  1  0  0  0
 15109  1  0  0  0
 16 17  2  0  0  0
 16 21  1  0  0  0
 16 31  1  0  0  0
 17 18  1  0  0  0
 17110  1  0  0  0
 18 19  2  0  0  0
 18111  1  0  0  0
 19 20  1  0  0  0
 19 24  1  0  0  0
 20 21  2  0  0  0
 20112  1  0  0  0
 21 23  1  0  0  0
 22 28  1  0  0  0
 22 32  2  0  0  0
 26 27  1  0  0  0
 28113  1  0  0  0
 28114  1  0  0  0
 29115  1  0  0  0
 29116  1  0  0  0
 33 34  1  0  0  0
 33 66  1  0  0  0
 33 70  2  0  0  0
 34 36  1  0  0  0
 34 59  1  0  0  0
 34117  1  0  0  0
 35 44  2  0  0  0
 35 45  1  0  0  0
 35 68  1  0  0  0
 36 56  1  0  0  0
 36118  1  0  0  0
 37 39  1  0  0  0
 37 47  1  0  0  0
 37 66  1  0  0  0
 37119  1  0  0  0
 38 43  2  0  0  0
 38 46  1  0  0  0
 38 47  1  0  0  0
 39 64  1  0  0  0
 39 67  2  0  0  0
 40 52  1  0  0  0
 40 53  2  0  0  0
 40 58  1  0  0  0
 41120  1  0  0  0
 41121  1  0  0  0
 41122  1  0  0  0
 41 48  1  0  0  0
 42 43  1  0  0  0
 42 66  1  0  0  0
 42123  1  0  0  0
 42124  1  0  0  0
 43 44  1  0  0  0
 44125  1  0  0  0
 45 46  2  0  0  0
 45126  1  0  0  0
 46127  1  0  0  0
 47128  1  0  0  0
 47129  1  0  0  0
 48 56  1  0  0  0
 48 65  1  0  0  0
 48130  1  0  0  0
 49 50  1  0  0  0
 49 53  1  0  0  0
 49 64  1  0  0  0
 49131  1  0  0  0
 50 51  1  0  0  0
 50132  1  0  0  0
 50133  1  0  0  0
 51 52  1  0  0  0
 51134  1  0  0  0
 51135  1  0  0  0
 52136  1  0  0  0
 52137  1  0  0  0
 53 54  1  0  0  0
 54 55  2  0  0  0
 54138  1  0  0  0
 55 57  1  0  0  0
 55139  1  0  0  0
 56 69  2  0  0  0
 57 58  2  0  0  0
 57140  1  0  0  0
 58141  1  0  0  0
 59 60  1  0  0  0
 59 61  1  0  0  0
 59 62  1  0  0  0
 60142  1  0  0  0
 60143  1  0  0  0
 60144  1  0  0  0
 61145  1  0  0  0
 61146  1  0  0  0
 61147  1  0  0  0
 62148  1  0  0  0
 62149  1  0  0  0
 62150  1  0  0  0
 63 65  1  0  0  0
 63151  1  0  0  0
 63152  1  0  0  0
 63153  1  0  0  0
 64154  1  0  0  0
 65155  1  0  0  0
 68 89  1  0  0  0
 71 72  2  0  0  0
 71 75  1  0  0  0
 71 84  1  0  0  0
 72 73  1  0  0  0
 72 90  1  0  0  0
 73 74  2  0  0  0
 73 92  1  0  0  0
 74 94  1  0  0  0
 74 85  1  0  0  0
 75 91  1  0  0  0
 75 94  2  0  0  0
 76 79  1  0  0  0
 76 85  1  0  0  0
 76156  1  0  0  0
 76157  1  0  0  0
 77 78  1  0  0  0
 77 86  1  0  0  0
 77158  1  0  0  0
 77159  1  0  0  0
 78 86  1  0  0  0
 78160  1  0  0  0
 78161  1  0  0  0
 79162  1  0  0  0
 79163  1  0  0  0
 79 88  1  0  0  0
 80 82  1  0  0  0
 80 87  1  0  0  0
 80164  1  0  0  0
 80165  1  0  0  0
 81 84  1  0  0  0
 81 89  1  0  0  0
 81166  1  0  0  0
 81167  1  0  0  0
 82168  1  0  0  0
 82169  1  0  0  0
 82 96  1  0  0  0
 83 85  1  0  0  0
 83 96  1  0  0  0
 83170  1  0  0  0
 83171  1  0  0  0
 84 89  1  0  0  0
 84172  1  0  0  0
 85173  1  0  0  0
 86 93  1  0  0  0
 86174  1  0  0  0
 87 88  1  0  0  0
 87 95  1  0  0  0
 87175  1  0  0  0
 88 96  1  0  0  0
 88176  1  0  0  0
 89177  1  0  0  0
 90178  1  0  0  0
 90179  1  0  0  0
 90180  1  0  0  0
 91181  1  0  0  0
 91182  1  0  0  0
 91183  1  0  0  0
 92 93  1  0  0  0
 92184  1  0  0  0
 92185  1  0  0  0
 93186  1  0  0  0
 93187  1  0  0  0
 95188  1  0  0  0
 96189  1  0  0  0
M  CHG  1  96   1
M  ISO  4   1 100  68 101  89 101  95 100
M  END
> <chiral flag>
0

> <version>
0

> <s_m_source_file>
/data/baiqing/PycharmProjects/Reinvent-master-3.2/result/LINK_invent/BTK/process_docking_weight1_custom_sum_contain_oxygen_bond_distance_aromatic_linkinvent_7_9_3/rearranged_h_0175.sdf

> <i_m_source_file_index>
13

> <r_mmod_Potential_Energy-OPLS-2005>
-220.498260498047

> <r_mmod_Stretch_Energy-OPLS-2005>
35.0610313415527

> <r_mmod_Bend_Energy-OPLS-2005>
142.578414916992

> <r_mmod_Torsional_Energy-OPLS-2005>
345.556182861328

> <r_mmod_Improper_Torsional_Energy-OPLS-2005>
4.13818168640137

> <r_mmod_Van_der_Waal_Energy-OPLS-2005>
163.44694519043

> <r_mmod_Electrostatic_Energy-OPLS-2005>
-497.830657958984

> <r_mmod_Solvation_Energy-OPLS-2005>
-424.913543701172

> <b_mmod_Minimization_Converged-OPLS-2005>
0

> <r_mmod_RMS_Derivative-OPLS-2005>
1.29405093193054

$$$$
13
                    3D
 Structure written by MMmdl.
166175  0  0  1  0            999 V2000
  -30.6506  -14.6369   20.5143 C   0  0  0  0  0  0
  -30.4236  -12.4020   19.4438 C   0  0  0  0  0  0
  -29.4946  -12.5089   18.2165 C   0  0  0  0  0  0
  -28.0201  -12.3495   18.6356 C   0  0  0  0  0  0
  -27.6459  -13.2241   19.8619 C   0  0  2  0  0  0
  -28.6931  -13.0976   20.9893 C   0  0  0  0  0  0
  -25.2521  -13.8174   20.5700 C   0  0  0  0  0  0
  -24.1803  -13.0434   20.9202 C   0  0  0  0  0  0
  -24.6391  -11.6903   20.8764 C   0  0  0  0  0  0
  -23.9083  -10.4279   21.0410 C   0  0  0  0  0  0
  -24.3624   -9.4200   21.9184 C   0  0  0  0  0  0
  -23.6291   -8.2230   22.0768 C   0  0  0  0  0  0
  -22.4281   -8.0267   21.3540 C   0  0  0  0  0  0
  -21.9909   -9.0251   20.4651 C   0  0  0  0  0  0
  -22.7249  -10.2121   20.3056 C   0  0  0  0  0  0
  -21.6856   -6.0722   22.5278 C   0  0  0  0  0  0
  -21.4018   -6.5629   23.8215 C   0  0  0  0  0  0
  -21.3659   -5.6786   24.9175 C   0  0  0  0  0  0
  -21.6042   -4.3049   24.7225 C   0  0  0  0  0  0
  -21.8815   -3.8140   23.4345 C   0  0  0  0  0  0
  -21.9201   -4.6953   22.3392 C   0  0  0  0  0  0
  -22.7821  -13.5206   21.1860 C   0  0  0  0  0  0
  -22.1660   -4.2133   21.0970 F   0  0  0  0  0  0
  -21.5631   -3.4548   25.7746 F   0  0  0  0  0  0
  -29.9994  -13.4373   20.4067 N   0  0  0  0  0  0
  -26.2951  -12.9369   20.3343 N   0  0  0  0  0  0
  -25.9324  -11.6521   20.5794 N   0  0  0  0  0  0
  -22.0487  -12.8172   22.0421 N   0  0  0  0  0  0
  -25.4206  -15.1893   20.4110 N   0  0  0  0  0  0
  -31.8279  -14.7499   20.1677 O   0  0  0  0  0  0
  -21.6644   -6.8859   21.4233 O   0  0  0  0  0  0
  -22.3504  -14.5529   20.6747 O   0  0  0  0  0  0
  -24.6261  -31.8582   23.1997 C   0  0  0  0  0  0
  -25.9111  -32.4777   23.8320 C   0  0  1  0  0  0
  -27.2225  -27.3171   20.1162 C   0  0  0  0  0  0
  -25.5968  -33.8586   24.2276 N   0  0  0  0  0  0
  -23.4150  -30.4862   21.5401 C   0  0  2  0  0  0
  -24.8607  -28.9352   20.1050 C   0  0  0  0  0  0
  -22.7468  -29.4635   22.4908 C   0  0  0  0  0  0
  -18.0307  -28.1380   22.8479 C   0  0  0  0  0  0
  -24.1501  -36.7281   23.2640 C   0  0  0  0  0  0
  -25.9527  -30.7934   21.3610 C   0  0  0  0  0  0
  -26.0277  -29.4185   20.7075 C   0  0  0  0  0  0
  -27.2091  -28.6218   20.6994 C   0  0  0  0  0  0
  -26.0287  -26.8748   19.5023 C   0  0  0  0  0  0
  -24.8640  -27.6727   19.4913 C   0  0  0  0  0  0
  -23.6307  -29.8206   20.1541 C   0  0  0  0  0  0
  -25.4126  -36.3076   24.0330 C   0  0  1  0  0  0
  -20.5904  -28.3706   23.1275 C   0  0  2  0  0  0
  -20.6807  -26.9430   22.5386 C   0  0  0  0  0  0
  -19.5784  -26.6377   21.5206 C   0  0  0  0  0  0
  -18.1967  -26.7915   22.1606 C   0  0  0  0  0  0
  -19.1552  -28.8858   23.2878 C   0  0  0  0  0  0
  -18.9499  -30.1481   23.8891 C   0  0  0  0  0  0
  -17.6484  -30.6583   24.0598 C   0  0  0  0  0  0
  -25.9064  -34.9461   23.5077 C   0  0  0  0  0  0
  -16.5392  -29.9087   23.6336 C   0  0  0  0  0  0
  -16.7294  -28.6517   23.0321 C   0  0  0  0  0  0
  -26.4491  -31.6582   25.0686 C   0  0  0  0  0  0
  -25.3736  -31.3703   26.1427 C   0  0  0  0  0  0
  -27.0339  -30.3028   24.6080 C   0  0  0  0  0  0
  -27.6078  -32.4298   25.7452 C   0  0  0  0  0  0
  -27.5574  -37.1824   24.8483 C   0  0  0  0  0  0
  -21.4176  -29.3093   22.3684 N   0  0  0  0  0  0
  -26.4299  -37.3772   23.9420 N   0  0  0  0  0  0
  -24.6846  -31.0628   22.0933 N   0  0  0  0  0  0
  -23.4220  -28.8171   23.2955 O   0  0  0  0  0  0
  -28.3669  -26.5090   20.1910 O   0  0  0  0  0  0
  -26.5610  -34.8934   22.4628 O   0  0  0  0  0  0
  -23.5435  -32.1369   23.7369 O   0  0  0  0  0  0
  -29.0215  -19.2357   21.5791 C   0  0  0  0  0  0
  -29.1913  -21.1421   19.9856 C   0  0  0  0  0  0
  -28.6855  -20.5737   21.2055 C   0  0  0  0  0  0
  -29.8469  -18.4264   20.7692 C   0  0  0  0  0  0
  -29.9753  -20.2052   19.2049 C   0  0  0  0  0  0
  -29.9325  -24.9409   19.1997 C   0  0  0  0  0  0
  -30.1315  -23.4206   18.9726 C   0  0  0  0  0  0
  -28.2240  -23.7989   20.3463 C   0  0  0  0  0  0
  -28.4698  -25.1645   19.5780 C   0  0  1  0  0  0
  -28.8784  -22.6376   19.4665 C   0  0  2  0  0  0
  -27.7726  -21.3269   22.1631 C   0  0  0  0  0  0
  -30.8657  -19.4246   16.8472 C   0  0  0  0  0  0
  -30.6032  -20.5717   17.8485 C   0  0  0  0  0  0
  -30.4530  -17.0708   21.2821 C   0  0  0  0  0  0
  -30.3018  -18.9346   19.6049 N   0  0  0  0  0  0
  -29.9156  -15.7322   20.8750 N   0  0  0  0  0  0
  -27.9633  -22.5419   18.3891 O   0  0  0  0  0  0
  -31.4664  -12.5151   19.1424 H   0  0  0  0  0  0
  -30.3507  -11.4116   19.8951 H   0  0  0  0  0  0
  -29.7561  -11.7496   17.4790 H   0  0  0  0  0  0
  -29.6332  -13.4727   17.7254 H   0  0  0  0  0  0
  -27.8597  -11.2964   18.8690 H   0  0  0  0  0  0
  -27.3602  -12.5753   17.7971 H   0  0  0  0  0  0
  -27.6574  -14.2573   19.5182 H   0  0  0  0  0  0
  -28.7104  -12.0848   21.3919 H   0  0  0  0  0  0
  -28.4467  -13.7490   21.8289 H   0  0  0  0  0  0
  -25.2769   -9.5670   22.4772 H   0  0  0  0  0  0
  -24.0004   -7.4618   22.7487 H   0  0  0  0  0  0
  -21.0840   -8.8754   19.8950 H   0  0  0  0  0  0
  -22.3707  -10.9654   19.6167 H   0  0  0  0  0  0
  -21.2010   -7.6141   23.9704 H   0  0  0  0  0  0
  -21.1485   -6.0529   25.9076 H   0  0  0  0  0  0
  -22.0601   -2.7611   23.2860 H   0  0  0  0  0  0
  -22.4112  -11.9812   22.4736 H   0  0  0  0  0  0
  -21.1120  -13.1175   22.2687 H   0  0  0  0  0  0
  -24.6488  -15.8396   20.5140 H   0  0  0  0  0  0
  -26.2646  -15.6304   20.0667 H   0  0  0  0  0  0
  -26.7170  -32.5446   23.1058 H   0  0  0  0  0  0
  -25.0294  -33.9756   25.0544 H   0  0  0  0  0  0
  -22.7097  -31.3098   21.3990 H   0  0  0  0  0  0
  -23.3767  -35.9616   23.3340 H   0  0  0  0  0  0
  -24.3565  -36.8825   22.2037 H   0  0  0  0  0  0
  -23.7264  -37.6512   23.6617 H   0  0  0  0  0  0
  -26.0755  -31.5530   20.5861 H   0  0  0  0  0  0
  -26.8366  -30.8475   21.9863 H   0  0  0  0  0  0
  -28.1087  -28.9963   21.1669 H   0  0  0  0  0  0
  -25.9593  -25.8973   19.0501 H   0  0  0  0  0  0
  -23.9652  -27.2946   19.0253 H   0  0  0  0  0  0
  -23.7623  -30.6013   19.4039 H   0  0  0  0  0  0
  -22.7446  -29.2651   19.8428 H   0  0  0  0  0  0
  -25.1301  -36.1905   25.0817 H   0  0  0  0  0  0
  -21.0047  -28.3259   24.1374 H   0  0  0  0  0  0
  -20.5750  -26.2304   23.3575 H   0  0  0  0  0  0
  -21.6668  -26.7450   22.1185 H   0  0  0  0  0  0
  -19.6974  -25.6284   21.1257 H   0  0  0  0  0  0
  -19.6750  -27.3193   20.6752 H   0  0  0  0  0  0
  -17.4245  -26.6726   21.3986 H   0  0  0  0  0  0
  -18.0348  -26.0015   22.8963 H   0  0  0  0  0  0
  -19.7981  -30.7318   24.2221 H   0  0  0  0  0  0
  -17.5054  -31.6270   24.5196 H   0  0  0  0  0  0
  -15.5405  -30.3017   23.7656 H   0  0  0  0  0  0
  -15.8678  -28.0874   22.6996 H   0  0  0  0  0  0
  -24.5959  -30.6968   25.7779 H   0  0  0  0  0  0
  -24.8896  -32.2868   26.4833 H   0  0  0  0  0  0
  -25.8080  -30.8927   27.0218 H   0  0  0  0  0  0
  -26.2887  -29.6783   24.1138 H   0  0  0  0  0  0
  -27.4127  -29.7253   25.4528 H   0  0  0  0  0  0
  -27.8691  -30.4372   23.9203 H   0  0  0  0  0  0
  -27.2730  -33.3642   26.1977 H   0  0  0  0  0  0
  -28.3920  -32.6767   25.0278 H   0  0  0  0  0  0
  -28.0694  -31.8428   26.5400 H   0  0  0  0  0  0
  -28.2627  -38.0096   24.7466 H   0  0  0  0  0  0
  -28.1019  -36.2606   24.6359 H   0  0  0  0  0  0
  -27.2283  -37.1532   25.8893 H   0  0  0  0  0  0
  -20.9348  -29.8792   21.6891 H   0  0  0  0  0  0
  -26.0157  -38.2847   24.1387 H   0  0  0  0  0  0
  -28.6786  -18.8412   22.5279 H   0  0  0  0  0  0
  -30.2149  -25.5288   18.3255 H   0  0  0  0  0  0
  -30.5699  -25.2615   20.0262 H   0  0  0  0  0  0
  -31.0110  -23.1096   19.5372 H   0  0  0  0  0  0
  -30.3592  -23.2549   17.9196 H   0  0  0  0  0  0
  -27.1688  -23.6337   20.5629 H   0  0  0  0  0  0
  -28.7470  -23.8723   21.2994 H   0  0  0  0  0  0
  -27.9035  -25.1531   18.6472 H   0  0  0  0  0  0
  -27.4929  -20.7106   23.0194 H   0  0  0  0  0  0
  -26.8458  -21.6135   21.6678 H   0  0  0  0  0  0
  -28.2541  -22.2090   22.5793 H   0  0  0  0  0  0
  -31.2718  -19.8232   15.9154 H   0  0  0  0  0  0
  -29.9554  -18.8809   16.5945 H   0  0  0  0  0  0
  -31.5992  -18.7135   17.2268 H   0  0  0  0  0  0
  -31.5367  -21.1034   18.0346 H   0  0  0  0  0  0
  -29.9431  -21.2501   17.3169 H   0  0  0  0  0  0
  -30.3713  -17.0907   22.3695 H   0  0  0  0  0  0
  -31.5278  -17.1088   21.0984 H   0  0  0  0  0  0
  -28.9317  -15.5851   21.0342 H   0  0  0  0  0  0
  -28.3818  -22.0705   17.6794 H   0  0  0  0  0  0
  1 25  1  0  0  0
  1 30  2  0  0  0
  1 86  1  0  0  0
  2  3  1  0  0  0
  2 25  1  0  0  0
  2 88  1  0  0  0
  2 89  1  0  0  0
  3  4  1  0  0  0
  3 90  1  0  0  0
  3 91  1  0  0  0
  4  5  1  0  0  0
  4 92  1  0  0  0
  4 93  1  0  0  0
  5  6  1  0  0  0
  5 26  1  0  0  0
  5 94  1  0  0  0
  6 25  1  0  0  0
  6 95  1  0  0  0
  6 96  1  0  0  0
  7  8  2  0  0  0
  7 26  1  0  0  0
  7 29  1  0  0  0
  8  9  1  0  0  0
  8 22  1  0  0  0
  9 10  1  0  0  0
  9 27  2  0  0  0
 10 11  2  0  0  0
 10 15  1  0  0  0
 11 12  1  0  0  0
 11 97  1  0  0  0
 12 13  2  0  0  0
 12 98  1  0  0  0
 13 14  1  0  0  0
 13 31  1  0  0  0
 14 15  2  0  0  0
 14 99  1  0  0  0
 15100  1  0  0  0
 16 17  2  0  0  0
 16 21  1  0  0  0
 16 31  1  0  0  0
 17 18  1  0  0  0
 17101  1  0  0  0
 18 19  2  0  0  0
 18102  1  0  0  0
 19 20  1  0  0  0
 19 24  1  0  0  0
 20 21  2  0  0  0
 20103  1  0  0  0
 21 23  1  0  0  0
 22 28  1  0  0  0
 22 32  2  0  0  0
 26 27  1  0  0  0
 28104  1  0  0  0
 28105  1  0  0  0
 29106  1  0  0  0
 29107  1  0  0  0
 33 34  1  0  0  0
 33 66  1  0  0  0
 33 70  2  0  0  0
 34 36  1  0  0  0
 34 59  1  0  0  0
 34108  1  0  0  0
 35 44  2  0  0  0
 35 45  1  0  0  0
 35 68  1  0  0  0
 36 56  1  0  0  0
 36109  1  0  0  0
 37 39  1  0  0  0
 37 47  1  0  0  0
 37 66  1  0  0  0
 37110  1  0  0  0
 38 43  2  0  0  0
 38 46  1  0  0  0
 38 47  1  0  0  0
 39 64  1  0  0  0
 39 67  2  0  0  0
 40 52  1  0  0  0
 40 53  2  0  0  0
 40 58  1  0  0  0
 41111  1  0  0  0
 41112  1  0  0  0
 41113  1  0  0  0
 41 48  1  0  0  0
 42 43  1  0  0  0
 42 66  1  0  0  0
 42114  1  0  0  0
 42115  1  0  0  0
 43 44  1  0  0  0
 44116  1  0  0  0
 45 46  2  0  0  0
 45117  1  0  0  0
 46118  1  0  0  0
 47119  1  0  0  0
 47120  1  0  0  0
 48 56  1  0  0  0
 48 65  1  0  0  0
 48121  1  0  0  0
 49 50  1  0  0  0
 49 53  1  0  0  0
 49 64  1  0  0  0
 49122  1  0  0  0
 50 51  1  0  0  0
 50123  1  0  0  0
 50124  1  0  0  0
 51 52  1  0  0  0
 51125  1  0  0  0
 51126  1  0  0  0
 52127  1  0  0  0
 52128  1  0  0  0
 53 54  1  0  0  0
 54 55  2  0  0  0
 54129  1  0  0  0
 55 57  1  0  0  0
 55130  1  0  0  0
 56 69  2  0  0  0
 57 58  2  0  0  0
 57131  1  0  0  0
 58132  1  0  0  0
 59 60  1  0  0  0
 59 61  1  0  0  0
 59 62  1  0  0  0
 60133  1  0  0  0
 60134  1  0  0  0
 60135  1  0  0  0
 61136  1  0  0  0
 61137  1  0  0  0
 61138  1  0  0  0
 62139  1  0  0  0
 62140  1  0  0  0
 62141  1  0  0  0
 63 65  1  0  0  0
 63142  1  0  0  0
 63143  1  0  0  0
 63144  1  0  0  0
 64145  1  0  0  0
 65146  1  0  0  0
 68 79  1  0  0  0
 71 73  2  0  0  0
 71 74  1  0  0  0
 71147  1  0  0  0
 72 73  1  0  0  0
 72 75  2  0  0  0
 72 80  1  0  0  0
 73 81  1  0  0  0
 74 84  1  0  0  0
 74 85  2  0  0  0
 75 83  1  0  0  0
 75 85  1  0  0  0
 76 77  1  0  0  0
 76 79  1  0  0  0
 76148  1  0  0  0
 76149  1  0  0  0
 77 80  1  0  0  0
 77150  1  0  0  0
 77151  1  0  0  0
 78 79  1  0  0  0
 78 80  1  0  0  0
 78152  1  0  0  0
 78153  1  0  0  0
 79154  1  0  0  0
 80 87  1  0  0  0
 81155  1  0  0  0
 81156  1  0  0  0
 81157  1  0  0  0
 82 83  1  0  0  0
 82158  1  0  0  0
 82159  1  0  0  0
 82160  1  0  0  0
 83161  1  0  0  0
 83162  1  0  0  0
 84 86  1  0  0  0
 84163  1  0  0  0
 84164  1  0  0  0
 86165  1  0  0  0
 87166  1  0  0  0
M  ISO  4   1 100  68 101  79 101  86 100
M  END
> <chiral flag>
0

> <version>
0

> <s_m_source_file>
/data/baiqing/PycharmProjects/Reinvent-master-3.2/result/LINK_invent/BTK/process_docking_weight1_custom_sum_contain_oxygen_bond_distance_aromatic_linkinvent_7_9_3/rearranged_h_0175.sdf

> <i_m_source_file_index>
14

> <r_mmod_Potential_Energy-OPLS-2005>
-92.682258605957

> <r_mmod_Stretch_Energy-OPLS-2005>
92.734504699707

> <r_mmod_Bend_Energy-OPLS-2005>
213.209060668945

> <r_mmod_Torsional_Energy-OPLS-2005>
253.570159912109

> <r_mmod_Improper_Torsional_Energy-OPLS-2005>
4.73958158493042

> <r_mmod_Van_der_Waal_Energy-OPLS-2005>
153.928161621094

> <r_mmod_Electrostatic_Energy-OPLS-2005>
-627.096069335938

> <r_mmod_Solvation_Energy-OPLS-2005>
-231.928085327148

> <b_mmod_Minimization_Converged-OPLS-2005>
0

> <r_mmod_RMS_Derivative-OPLS-2005>
4.51728200912476

$$$$
14
                    3D
 Structure written by MMmdl.
184195  0  0  1  0            999 V2000
  -30.7124  -14.4469   20.4727 C   0  0  0  0  0  0
  -30.4219  -12.2698   19.4265 C   0  0  0  0  0  0
  -29.4964  -12.4718   18.2069 C   0  0  0  0  0  0
  -28.0146  -12.3543   18.6146 C   0  0  0  0  0  0
  -27.6543  -13.2092   19.8579 C   0  0  2  0  0  0
  -28.7003  -13.0364   20.9854 C   0  0  0  0  0  0
  -25.2515  -13.8219   20.5663 C   0  0  0  0  0  0
  -24.1792  -13.0457   20.9197 C   0  0  0  0  0  0
  -24.6358  -11.6950   20.8773 C   0  0  0  0  0  0
  -23.9052  -10.4307   21.0409 C   0  0  0  0  0  0
  -24.3611   -9.4234   21.9176 C   0  0  0  0  0  0
  -23.6277   -8.2265   22.0754 C   0  0  0  0  0  0
  -22.4240   -8.0312   21.3554 C   0  0  0  0  0  0
  -21.9880   -9.0286   20.4644 C   0  0  0  0  0  0
  -22.7226  -10.2161   20.3042 C   0  0  0  0  0  0
  -21.6856   -6.0741   22.5286 C   0  0  0  0  0  0
  -21.4011   -6.5631   23.8229 C   0  0  0  0  0  0
  -21.3672   -5.6782   24.9186 C   0  0  0  0  0  0
  -21.6033   -4.3039   24.7230 C   0  0  0  0  0  0
  -21.8822   -3.8152   23.4342 C   0  0  0  0  0  0
  -21.9181   -4.6969   22.3411 C   0  0  0  0  0  0
  -22.7792  -13.5234   21.1867 C   0  0  0  0  0  0
  -22.1647   -4.2165   21.0992 F   0  0  0  0  0  0
  -21.5626   -3.4515   25.7734 F   0  0  0  0  0  0
  -30.0374  -13.2744   20.4197 N   0  0  0  0  0  0
  -26.2958  -12.9376   20.3256 N   0  0  0  0  0  0
  -25.9281  -11.6551   20.5756 N   0  0  0  0  0  0
  -22.0421  -12.8261   22.0443 N   0  0  0  0  0  0
  -25.4218  -15.1949   20.4152 N   0  0  0  0  0  0
  -31.9181  -14.5467   20.2457 O   0  0  0  0  0  0
  -21.6623   -6.8878   21.4236 O   0  0  0  0  0  0
  -22.3495  -14.5545   20.6736 O   0  0  0  0  0  0
  -24.6048  -31.8695   23.2152 C   0  0  0  0  0  0
  -25.8998  -32.4827   23.8374 C   0  0  1  0  0  0
  -27.1769  -27.4448   20.1497 C   0  0  0  0  0  0
  -25.5976  -33.8614   24.2371 N   0  0  0  0  0  0
  -23.3893  -30.4913   21.5590 C   0  0  2  0  0  0
  -24.8263  -28.9744   20.0988 C   0  0  0  0  0  0
  -22.7335  -29.4650   22.5089 C   0  0  0  0  0  0
  -18.0242  -28.1416   22.8458 C   0  0  0  0  0  0
  -24.1560  -36.7247   23.2619 C   0  0  0  0  0  0
  -25.9107  -30.8380   21.3656 C   0  0  0  0  0  0
  -25.9833  -29.4821   20.7060 C   0  0  0  0  0  0
  -27.1708  -28.7273   20.7238 C   0  0  0  0  0  0
  -26.0321  -26.9626   19.4837 C   0  0  0  0  0  0
  -24.8479  -27.7196   19.4668 C   0  0  0  0  0  0
  -23.5794  -29.8234   20.1686 C   0  0  0  0  0  0
  -25.4186  -36.3105   24.0333 C   0  0  1  0  0  0
  -20.5800  -28.3684   23.1379 C   0  0  2  0  0  0
  -20.6732  -26.9444   22.5479 C   0  0  0  0  0  0
  -19.5776  -26.6470   21.5185 C   0  0  0  0  0  0
  -18.1902  -26.7998   22.1492 C   0  0  0  0  0  0
  -19.1467  -28.8861   23.2867 C   0  0  0  0  0  0
  -18.9422  -30.1470   23.8854 C   0  0  0  0  0  0
  -17.6426  -30.6596   24.0578 C   0  0  0  0  0  0
  -25.9103  -34.9465   23.5150 C   0  0  0  0  0  0
  -16.5309  -29.9081   23.6400 C   0  0  0  0  0  0
  -16.7219  -28.6519   23.0365 C   0  0  0  0  0  0
  -26.4461  -31.6541   25.0676 C   0  0  0  0  0  0
  -25.3773  -31.3582   26.1459 C   0  0  0  0  0  0
  -27.0257  -30.3005   24.5949 C   0  0  0  0  0  0
  -27.6128  -32.4159   25.7385 C   0  0  0  0  0  0
  -27.5616  -37.1791   24.8489 C   0  0  0  0  0  0
  -21.4067  -29.2971   22.3722 N   0  0  0  0  0  0
  -26.4382  -37.3780   23.9377 N   0  0  0  0  0  0
  -24.6514  -31.0843   22.1017 N   0  0  0  0  0  0
  -23.4055  -28.8230   23.3185 O   0  0  0  0  0  0
  -28.2290  -26.6079   20.3744 O   0  0  0  0  0  0
  -26.5636  -34.8920   22.4702 O   0  0  0  0  0  0
  -23.5261  -32.1414   23.7619 O   0  0  0  0  0  0
  -31.4224  -24.1432   21.2947 C   0  0  0  0  0  0
  -30.3252  -24.9989   21.1675 C   0  0  0  0  0  0
  -29.9623  -22.4062   22.1520 C   0  0  0  0  0  0
  -31.2574  -22.8292   21.7740 C   0  0  0  0  0  0
  -29.0294  -24.5640   21.4948 C   0  0  0  0  0  0
  -28.8348  -23.2545   22.0202 C   0  0  0  0  0  0
  -31.3229  -19.6015   18.2222 C   0  0  0  0  0  0
  -30.6305  -19.9259   19.5372 C   0  0  0  0  0  0
  -31.1212  -17.0144   18.7079 C   0  0  0  0  0  0
  -30.8067  -17.8052   21.0460 C   0  0  0  0  0  0
  -33.0774  -21.2722   22.9861 C   0  0  0  0  0  0
  -32.4752  -21.9426   21.7828 C   0  0  1  0  0  0
  -31.8615  -18.3341   18.8825 C   0  0  2  0  0  0
  -30.2179  -16.8776   19.9653 C   0  0  2  0  0  0
  -31.5468  -18.9189   20.2812 C   0  0  1  0  0  0
  -25.8787  -25.9193   22.9410 C   0  0  0  0  0  0
  -33.6608  -18.5100   21.7576 C   0  0  0  0  0  0
  -27.3643  -21.5059   22.8006 C   0  0  0  0  0  0
  -27.4002  -26.0384   22.7130 C   0  0  0  0  0  0
  -27.8799  -25.5441   21.3081 C   0  0  1  0  0  0
  -32.7176  -19.5446   21.1023 C   0  0  2  0  0  0
  -29.9102  -15.5177   20.4379 N   0  0  0  0  0  0
  -32.1970  -20.5419   22.0834 N   0  3  1  0  0  0
  -27.5635  -22.8581   22.3831 O   0  0  0  0  0  0
  -31.4650  -12.3639   19.1178 H   0  0  0  0  0  0
  -30.3244  -11.2671   19.8494 H   0  0  0  0  0  0
  -29.7325  -11.7439   17.4285 H   0  0  0  0  0  0
  -29.6771  -13.4546   17.7687 H   0  0  0  0  0  0
  -27.8051  -11.3035   18.8103 H   0  0  0  0  0  0
  -27.3768  -12.6326   17.7768 H   0  0  0  0  0  0
  -27.6785  -14.2451   19.5257 H   0  0  0  0  0  0
  -28.6571  -12.0319   21.4053 H   0  0  0  0  0  0
  -28.4926  -13.7151   21.8141 H   0  0  0  0  0  0
  -25.2750   -9.5710   22.4731 H   0  0  0  0  0  0
  -24.0015   -7.4636   22.7449 H   0  0  0  0  0  0
  -21.0801   -8.8797   19.8938 H   0  0  0  0  0  0
  -22.3676  -10.9700   19.6142 H   0  0  0  0  0  0
  -21.2016   -7.6139   23.9732 H   0  0  0  0  0  0
  -21.1474   -6.0505   25.9087 H   0  0  0  0  0  0
  -22.0585   -2.7608   23.2836 H   0  0  0  0  0  0
  -22.3990  -11.9947   22.4897 H   0  0  0  0  0  0
  -21.1031  -13.1333   22.2609 H   0  0  0  0  0  0
  -24.6546  -15.8471   20.5405 H   0  0  0  0  0  0
  -26.2654  -15.6455   20.0866 H   0  0  0  0  0  0
  -26.7033  -32.5551   23.1074 H   0  0  0  0  0  0
  -25.0317  -33.9798   25.0631 H   0  0  0  0  0  0
  -22.6755  -31.3069   21.4335 H   0  0  0  0  0  0
  -23.3864  -35.9530   23.3328 H   0  0  0  0  0  0
  -24.3655  -36.8819   22.2024 H   0  0  0  0  0  0
  -23.7305  -37.6464   23.6597 H   0  0  0  0  0  0
  -26.0443  -31.6040   20.6007 H   0  0  0  0  0  0
  -26.7852  -30.8707   21.9989 H   0  0  0  0  0  0
  -28.0476  -29.0802   21.2475 H   0  0  0  0  0  0
  -26.0341  -25.9854   19.0278 H   0  0  0  0  0  0
  -23.9659  -27.3301   18.9769 H   0  0  0  0  0  0
  -23.6332  -30.5871   19.3923 H   0  0  0  0  0  0
  -22.7133  -29.2059   19.9185 H   0  0  0  0  0  0
  -25.1335  -36.2006   25.0822 H   0  0  0  0  0  0
  -20.9821  -28.3376   24.1536 H   0  0  0  0  0  0
  -20.5654  -26.2276   23.3626 H   0  0  0  0  0  0
  -21.6644  -26.7563   22.1306 H   0  0  0  0  0  0
  -19.6983  -25.6402   21.1132 H   0  0  0  0  0  0
  -19.6751  -27.3376   20.6792 H   0  0  0  0  0  0
  -17.4217  -26.6758   21.3829 H   0  0  0  0  0  0
  -18.0305  -26.0036   22.8779 H   0  0  0  0  0  0
  -19.7910  -30.7292   24.2115 H   0  0  0  0  0  0
  -17.5017  -31.6285   24.5232 H   0  0  0  0  0  0
  -15.5279  -30.2952   23.7825 H   0  0  0  0  0  0
  -15.8625  -28.0822   22.7087 H   0  0  0  0  0  0
  -24.6082  -30.6761   25.7817 H   0  0  0  0  0  0
  -24.8768  -32.2663   26.4809 H   0  0  0  0  0  0
  -25.8159  -30.8887   27.0286 H   0  0  0  0  0  0
  -26.2777  -29.6808   24.0987 H   0  0  0  0  0  0
  -27.4113  -29.7193   25.4342 H   0  0  0  0  0  0
  -27.8553  -30.4390   23.9023 H   0  0  0  0  0  0
  -27.2919  -33.3504   26.1977 H   0  0  0  0  0  0
  -28.3876  -32.6576   25.0106 H   0  0  0  0  0  0
  -28.0777  -31.8213   26.5252 H   0  0  0  0  0  0
  -28.2637  -38.0085   24.7550 H   0  0  0  0  0  0
  -28.1154  -36.2629   24.6355 H   0  0  0  0  0  0
  -27.2316  -37.1432   25.8893 H   0  0  0  0  0  0
  -20.9275  -29.8478   21.6742 H   0  0  0  0  0  0
  -26.0304  -38.2896   24.1308 H   0  0  0  0  0  0
  -32.3988  -24.4987   20.9952 H   0  0  0  0  0  0
  -30.4878  -26.0051   20.8141 H   0  0  0  0  0  0
  -29.8272  -21.4008   22.5184 H   0  0  0  0  0  0
  -32.1076  -20.3173   17.9655 H   0  0  0  0  0  0
  -30.6434  -19.4455   17.3832 H   0  0  0  0  0  0
  -29.5806  -19.6318   19.5410 H   0  0  0  0  0  0
  -30.7262  -20.9714   19.8224 H   0  0  0  0  0  0
  -31.8627  -16.2297   18.6019 H   0  0  0  0  0  0
  -30.5322  -16.9834   17.7893 H   0  0  0  0  0  0
  -31.4729  -17.2058   21.6628 H   0  0  0  0  0  0
  -30.0335  -18.1996   21.7056 H   0  0  0  0  0  0
  -32.6111  -21.4233   23.9563 H   0  0  0  0  0  0
  -34.0957  -20.9018   22.9567 H   0  0  0  0  0  0
  -33.1259  -22.1148   20.9294 H   0  0  0  0  0  0
  -32.9326  -18.2381   18.6801 H   0  0  0  0  0  0
  -29.2566  -17.3012   19.6663 H   0  0  0  0  0  0
  -25.3244  -26.6371   22.3416 H   0  0  0  0  0  0
  -25.6248  -26.1272   23.9806 H   0  0  0  0  0  0
  -25.4947  -24.9252   22.6982 H   0  0  0  0  0  0
  -33.8371  -17.6668   21.0915 H   0  0  0  0  0  0
  -33.2715  -18.1278   22.7017 H   0  0  0  0  0  0
  -34.6363  -18.9448   21.9698 H   0  0  0  0  0  0
  -26.3152  -21.3612   23.0583 H   0  0  0  0  0  0
  -27.9532  -21.2479   23.6823 H   0  0  0  0  0  0
  -27.6174  -20.7992   22.0085 H   0  0  0  0  0  0
  -27.8776  -25.4379   23.4901 H   0  0  0  0  0  0
  -27.7246  -27.0580   22.9260 H   0  0  0  0  0  0
  -27.0761  -24.9562   20.8599 H   0  0  0  0  0  0
  -33.3488  -20.0650   20.3857 H   0  0  0  0  0  0
  -28.9350  -15.3234   20.5982 H   0  0  0  0  0  0
  -31.3211  -20.3479   22.5399 H   0  0  0  0  0  0
  1 25  1  0  0  0
  1 30  2  0  0  0
  1 92  1  0  0  0
  2  3  1  0  0  0
  2 25  1  0  0  0
  2 95  1  0  0  0
  2 96  1  0  0  0
  3  4  1  0  0  0
  3 97  1  0  0  0
  3 98  1  0  0  0
  4  5  1  0  0  0
  4 99  1  0  0  0
  4100  1  0  0  0
  5  6  1  0  0  0
  5 26  1  0  0  0
  5101  1  0  0  0
  6 25  1  0  0  0
  6102  1  0  0  0
  6103  1  0  0  0
  7  8  2  0  0  0
  7 26  1  0  0  0
  7 29  1  0  0  0
  8  9  1  0  0  0
  8 22  1  0  0  0
  9 10  1  0  0  0
  9 27  2  0  0  0
 10 11  2  0  0  0
 10 15  1  0  0  0
 11 12  1  0  0  0
 11104  1  0  0  0
 12 13  2  0  0  0
 12105  1  0  0  0
 13 14  1  0  0  0
 13 31  1  0  0  0
 14 15  2  0  0  0
 14106  1  0  0  0
 15107  1  0  0  0
 16 17  2  0  0  0
 16 21  1  0  0  0
 16 31  1  0  0  0
 17 18  1  0  0  0
 17108  1  0  0  0
 18 19  2  0  0  0
 18109  1  0  0  0
 19 20  1  0  0  0
 19 24  1  0  0  0
 20 21  2  0  0  0
 20110  1  0  0  0
 21 23  1  0  0  0
 22 28  1  0  0  0
 22 32  2  0  0  0
 26 27  1  0  0  0
 28111  1  0  0  0
 28112  1  0  0  0
 29113  1  0  0  0
 29114  1  0  0  0
 33 34  1  0  0  0
 33 66  1  0  0  0
 33 70  2  0  0  0
 34 36  1  0  0  0
 34 59  1  0  0  0
 34115  1  0  0  0
 35 44  2  0  0  0
 35 45  1  0  0  0
 35 68  1  0  0  0
 36 56  1  0  0  0
 36116  1  0  0  0
 37 39  1  0  0  0
 37 47  1  0  0  0
 37 66  1  0  0  0
 37117  1  0  0  0
 38 43  2  0  0  0
 38 46  1  0  0  0
 38 47  1  0  0  0
 39 64  1  0  0  0
 39 67  2  0  0  0
 40 52  1  0  0  0
 40 53  2  0  0  0
 40 58  1  0  0  0
 41118  1  0  0  0
 41119  1  0  0  0
 41120  1  0  0  0
 41 48  1  0  0  0
 42 43  1  0  0  0
 42 66  1  0  0  0
 42121  1  0  0  0
 42122  1  0  0  0
 43 44  1  0  0  0
 44123  1  0  0  0
 45 46  2  0  0  0
 45124  1  0  0  0
 46125  1  0  0  0
 47126  1  0  0  0
 47127  1  0  0  0
 48 56  1  0  0  0
 48 65  1  0  0  0
 48128  1  0  0  0
 49 50  1  0  0  0
 49 53  1  0  0  0
 49 64  1  0  0  0
 49129  1  0  0  0
 50 51  1  0  0  0
 50130  1  0  0  0
 50131  1  0  0  0
 51 52  1  0  0  0
 51132  1  0  0  0
 51133  1  0  0  0
 52134  1  0  0  0
 52135  1  0  0  0
 53 54  1  0  0  0
 54 55  2  0  0  0
 54136  1  0  0  0
 55 57  1  0  0  0
 55137  1  0  0  0
 56 69  2  0  0  0
 57 58  2  0  0  0
 57138  1  0  0  0
 58139  1  0  0  0
 59 60  1  0  0  0
 59 61  1  0  0  0
 59 62  1  0  0  0
 60140  1  0  0  0
 60141  1  0  0  0
 60142  1  0  0  0
 61143  1  0  0  0
 61144  1  0  0  0
 61145  1  0  0  0
 62146  1  0  0  0
 62147  1  0  0  0
 62148  1  0  0  0
 63 65  1  0  0  0
 63149  1  0  0  0
 63150  1  0  0  0
 63151  1  0  0  0
 64152  1  0  0  0
 65153  1  0  0  0
 68 90  1  0  0  0
 71 72  2  0  0  0
 71 74  1  0  0  0
 71154  1  0  0  0
 72 75  1  0  0  0
 72155  1  0  0  0
 73 74  2  0  0  0
 73 76  1  0  0  0
 73156  1  0  0  0
 74 82  1  0  0  0
 75 76  2  0  0  0
 75 90  1  0  0  0
 76 94  1  0  0  0
 77 78  1  0  0  0
 77157  1  0  0  0
 77158  1  0  0  0
 77 83  1  0  0  0
 78159  1  0  0  0
 78160  1  0  0  0
 78 85  1  0  0  0
 79 83  1  0  0  0
 79 84  1  0  0  0
 79161  1  0  0  0
 79162  1  0  0  0
 80 84  1  0  0  0
 80 85  1  0  0  0
 80163  1  0  0  0
 80164  1  0  0  0
 81 82  1  0  0  0
 81165  1  0  0  0
 81166  1  0  0  0
 81 93  1  0  0  0
 82 93  1  0  0  0
 82167  1  0  0  0
 83 85  1  0  0  0
 83168  1  0  0  0
 84 92  1  0  0  0
 84169  1  0  0  0
 85 91  1  0  0  0
 86 89  1  0  0  0
 86170  1  0  0  0
 86171  1  0  0  0
 86172  1  0  0  0
 87173  1  0  0  0
 87174  1  0  0  0
 87175  1  0  0  0
 87 91  1  0  0  0
 88 94  1  0  0  0
 88176  1  0  0  0
 88177  1  0  0  0
 88178  1  0  0  0
 89179  1  0  0  0
 89180  1  0  0  0
 89 90  1  0  0  0
 90181  1  0  0  0
 91 93  1  0  0  0
 91182  1  0  0  0
 92183  1  0  0  0
 93184  1  0  0  0
M  CHG  1  93   1
M  ISO  4   1 100  68 101  90 101  92 100
M  END
> <chiral flag>
0

> <version>
0

> <s_m_source_file>
/data/baiqing/PycharmProjects/Reinvent-master-3.2/result/LINK_invent/BTK/process_docking_weight1_custom_sum_contain_oxygen_bond_distance_aromatic_linkinvent_7_9_3/rearranged_h_0175.sdf

> <i_m_source_file_index>
15

> <r_mmod_Potential_Energy-OPLS-2005>
126.573768615723

> <r_mmod_Stretch_Energy-OPLS-2005>
42.2336349487305

> <r_mmod_Bend_Energy-OPLS-2005>
180.890197753906

> <r_mmod_Torsional_Energy-OPLS-2005>
397.549865722656

> <r_mmod_Improper_Torsional_Energy-OPLS-2005>
10.5008354187012

> <r_mmod_Van_der_Waal_Energy-OPLS-2005>
160.898101806641

> <r_mmod_Electrostatic_Energy-OPLS-2005>
-264.208099365234

> <r_mmod_Solvation_Energy-OPLS-2005>
-440.798736572266

> <b_mmod_Minimization_Converged-OPLS-2005>
0

> <r_mmod_RMS_Derivative-OPLS-2005>
7.45824861526489

$$$$
15
                    3D
 Structure written by MMmdl.
163172  0  0  1  0            999 V2000
  -30.5012  -15.1879   20.3754 C   0  0  0  0  0  0
  -30.4252  -12.7625   19.5022 C   0  0  0  0  0  0
  -29.5188  -12.5590   18.2664 C   0  0  0  0  0  0
  -28.0669  -12.3001   18.7024 C   0  0  0  0  0  0
  -27.6074  -13.2747   19.8168 C   0  0  2  0  0  0
  -28.6465  -13.4415   20.9436 C   0  0  0  0  0  0
  -25.2382  -13.8257   20.5757 C   0  0  0  0  0  0
  -24.1732  -13.0445   20.9264 C   0  0  0  0  0  0
  -24.6390  -11.6942   20.8771 C   0  0  0  0  0  0
  -23.9092  -10.4294   21.0408 C   0  0  0  0  0  0
  -24.3637   -9.4207   21.9185 C   0  0  0  0  0  0
  -23.6305   -8.2245   22.0757 C   0  0  0  0  0  0
  -22.4285   -8.0283   21.3549 C   0  0  0  0  0  0
  -21.9925   -9.0257   20.4649 C   0  0  0  0  0  0
  -22.7265  -10.2130   20.3057 C   0  0  0  0  0  0
  -21.6853   -6.0741   22.5282 C   0  0  0  0  0  0
  -21.4012   -6.5645   23.8214 C   0  0  0  0  0  0
  -21.3660   -5.6796   24.9173 C   0  0  0  0  0  0
  -21.6043   -4.3056   24.7222 C   0  0  0  0  0  0
  -21.8821   -3.8146   23.4345 C   0  0  0  0  0  0
  -21.9193   -4.6967   22.3404 C   0  0  0  0  0  0
  -22.7750  -13.5191   21.1913 C   0  0  0  0  0  0
  -22.1661   -4.2153   21.0985 F   0  0  0  0  0  0
  -21.5629   -3.4540   25.7733 F   0  0  0  0  0  0
  -29.8802  -13.9171   20.3007 N   0  0  0  0  0  0
  -26.2800  -12.9530   20.3218 N   0  0  0  0  0  0
  -25.9326  -11.6637   20.5732 N   0  0  0  0  0  0
  -22.0414  -12.8162   22.0462 N   0  0  0  0  0  0
  -25.4047  -15.1989   20.4221 N   0  0  0  0  0  0
  -31.7312  -15.1279   20.2312 O   0  0  0  0  0  0
  -21.6649   -6.8878   21.4241 O   0  0  0  0  0  0
  -22.3426  -14.5493   20.6762 O   0  0  0  0  0  0
  -24.6573  -31.8287   23.1720 C   0  0  0  0  0  0
  -25.9274  -32.4615   23.8166 C   0  0  1  0  0  0
  -27.2139  -26.9744   20.1894 C   0  0  0  0  0  0
  -25.5979  -33.8432   24.2101 N   0  0  0  0  0  0
  -23.4686  -30.4420   21.5202 C   0  0  2  0  0  0
  -24.9180  -28.8286   20.1193 C   0  0  0  0  0  0
  -22.7637  -29.4473   22.4792 C   0  0  0  0  0  0
  -18.0325  -28.1401   22.8485 C   0  0  0  0  0  0
  -24.1484  -36.7191   23.2650 C   0  0  0  0  0  0
  -26.0342  -30.6515   21.3920 C   0  0  0  0  0  0
  -26.1013  -29.2431   20.7435 C   0  0  0  0  0  0
  -27.2478  -28.3376   20.7482 C   0  0  0  0  0  0
  -26.0004  -26.6917   19.5278 C   0  0  0  0  0  0
  -24.8879  -27.5707   19.4938 C   0  0  0  0  0  0
  -23.7048  -29.7551   20.1478 C   0  0  0  0  0  0
  -25.4123  -36.2981   24.0317 C   0  0  1  0  0  0
  -20.5947  -28.3737   23.1205 C   0  0  2  0  0  0
  -20.6804  -26.9430   22.5405 C   0  0  0  0  0  0
  -19.5775  -26.6373   21.5222 C   0  0  0  0  0  0
  -18.1955  -26.7943   22.1625 C   0  0  0  0  0  0
  -19.1588  -28.8885   23.2839 C   0  0  0  0  0  0
  -18.9504  -30.1479   23.8870 C   0  0  0  0  0  0
  -17.6498  -30.6599   24.0560 C   0  0  0  0  0  0
  -25.9091  -34.9370   23.5022 C   0  0  0  0  0  0
  -16.5385  -29.9092   23.6352 C   0  0  0  0  0  0
  -16.7311  -28.6508   23.0379 C   0  0  0  0  0  0
  -26.4550  -31.6545   25.0674 C   0  0  0  0  0  0
  -25.3696  -31.3780   26.1343 C   0  0  0  0  0  0
  -27.0438  -30.2922   24.6357 C   0  0  0  0  0  0
  -27.6047  -32.4337   25.7468 C   0  0  0  0  0  0
  -27.5561  -37.1757   24.8472 C   0  0  0  0  0  0
  -21.4311  -29.3039   22.3547 N   0  0  0  0  0  0
  -26.4266  -37.3721   23.9431 N   0  0  0  0  0  0
  -24.7412  -30.9999   22.0825 N   0  0  0  0  0  0
  -23.4219  -28.8045   23.3013 O   0  0  0  0  0  0
  -28.2683  -25.9375   20.1768 O   0  0  0  0  0  0
  -26.5684  -34.8907   22.4607 O   0  0  0  0  0  0
  -23.5655  -32.1222   23.6856 O   0  0  0  0  0  0
  -30.2332  -19.2479   21.2162 C   0  0  0  0  0  0
  -28.9209  -18.9498   19.3440 C   0  0  0  0  0  0
  -29.6676  -23.9977   21.1703 C   0  0  0  0  0  0
  -30.2735  -17.6117   21.4999 C   0  0  0  0  0  0
  -28.8917  -17.2881   19.5976 C   0  0  0  0  0  0
  -29.8142  -22.4375   21.4039 C   0  0  0  0  0  0
  -29.0064  -20.0512   20.5341 C   0  0  0  0  0  0
  -28.1117  -22.8297   19.8666 C   0  0  1  0  0  0
  -28.2528  -24.3664   20.6398 C   0  0  2  0  0  0
  -28.1194  -23.0113   18.3424 C   0  0  0  0  0  0
  -27.2644  -24.3747   21.8188 C   0  0  0  0  0  0
  -29.8500  -16.5138   20.5189 N   0  0  0  0  0  0
  -29.1709  -21.6916   20.2876 N   0  3  1  0  0  0
  -31.4482  -12.9426   19.1697 H   0  0  0  0  0  0
  -30.4683  -11.8545   20.1062 H   0  0  0  0  0  0
  -29.8823  -11.7291   17.6591 H   0  0  0  0  0  0
  -29.5592  -13.4463   17.6316 H   0  0  0  0  0  0
  -28.0132  -11.2735   19.0672 H   0  0  0  0  0  0
  -27.3940  -12.3538   17.8457 H   0  0  0  0  0  0
  -27.5230  -14.2444   19.3241 H   0  0  0  0  0  0
  -28.8025  -12.5105   21.4911 H   0  0  0  0  0  0
  -28.3016  -14.1805   21.6696 H   0  0  0  0  0  0
  -25.2777   -9.5680   22.4771 H   0  0  0  0  0  0
  -24.0010   -7.4629   22.7470 H   0  0  0  0  0  0
  -21.0862   -8.8779   19.8946 H   0  0  0  0  0  0
  -22.3727  -10.9673   19.6168 H   0  0  0  0  0  0
  -21.2005   -7.6155   23.9718 H   0  0  0  0  0  0
  -21.1479   -6.0525   25.9075 H   0  0  0  0  0  0
  -22.0597   -2.7607   23.2844 H   0  0  0  0  0  0
  -22.4047  -11.9820   22.4829 H   0  0  0  0  0  0
  -21.1026  -13.1156   22.2680 H   0  0  0  0  0  0
  -24.6393  -15.8529   20.5441 H   0  0  0  0  0  0
  -26.2618  -15.6402   20.1173 H   0  0  0  0  0  0
  -26.7337  -32.5164   23.0879 H   0  0  0  0  0  0
  -25.0152  -33.9522   25.0267 H   0  0  0  0  0  0
  -22.7807  -31.2727   21.3507 H   0  0  0  0  0  0
  -23.3770  -35.9495   23.3301 H   0  0  0  0  0  0
  -24.3573  -36.8834   22.2067 H   0  0  0  0  0  0
  -23.7205  -37.6371   23.6694 H   0  0  0  0  0  0
  -26.2069  -31.3926   20.6106 H   0  0  0  0  0  0
  -26.8977  -30.7093   22.0427 H   0  0  0  0  0  0
  -28.1536  -28.6613   21.2410 H   0  0  0  0  0  0
  -25.8937  -25.7308   19.0450 H   0  0  0  0  0  0
  -23.9864  -27.2471   18.9924 H   0  0  0  0  0  0
  -23.8609  -30.5214   19.3877 H   0  0  0  0  0  0
  -22.8150  -29.2087   19.8295 H   0  0  0  0  0  0
  -25.1320  -36.1777   25.0806 H   0  0  0  0  0  0
  -21.0054  -28.3334   24.1320 H   0  0  0  0  0  0
  -20.5684  -26.2356   23.3641 H   0  0  0  0  0  0
  -21.6668  -26.7412   22.1207 H   0  0  0  0  0  0
  -19.6937  -25.6276   21.1267 H   0  0  0  0  0  0
  -19.6715  -27.3178   20.6752 H   0  0  0  0  0  0
  -17.4231  -26.6715   21.4015 H   0  0  0  0  0  0
  -18.0333  -26.0081   22.9014 H   0  0  0  0  0  0
  -19.7978  -30.7305   24.2214 H   0  0  0  0  0  0
  -17.5057  -31.6283   24.5160 H   0  0  0  0  0  0
  -15.5385  -30.2991   23.7692 H   0  0  0  0  0  0
  -15.8713  -28.0816   22.7115 H   0  0  0  0  0  0
  -24.5915  -30.7085   25.7666 H   0  0  0  0  0  0
  -24.8832  -32.2966   26.4631 H   0  0  0  0  0  0
  -25.7945  -30.9060   27.0207 H   0  0  0  0  0  0
  -26.3088  -29.6610   24.1346 H   0  0  0  0  0  0
  -27.3996  -29.7274   25.4980 H   0  0  0  0  0  0
  -27.9018  -30.4148   23.9745 H   0  0  0  0  0  0
  -27.2638  -33.3695   26.1914 H   0  0  0  0  0  0
  -28.3927  -32.6800   25.0340 H   0  0  0  0  0  0
  -28.0635  -31.8537   26.5495 H   0  0  0  0  0  0
  -28.2565  -38.0071   24.7543 H   0  0  0  0  0  0
  -28.1072  -36.2600   24.6261 H   0  0  0  0  0  0
  -27.2292  -37.1349   25.8880 H   0  0  0  0  0  0
  -20.9532  -29.8735   21.6700 H   0  0  0  0  0  0
  -26.0109  -38.2770   24.1469 H   0  0  0  0  0  0
  -31.1217  -19.4736   20.6247 H   0  0  0  0  0  0
  -30.4308  -19.7243   22.1763 H   0  0  0  0  0  0
  -28.0432  -19.1966   18.7463 H   0  0  0  0  0  0
  -29.7578  -19.1434   18.6709 H   0  0  0  0  0  0
  -30.3973  -24.3017   20.4193 H   0  0  0  0  0  0
  -29.9157  -24.5559   22.0730 H   0  0  0  0  0  0
  -29.6578  -17.4370   22.3829 H   0  0  0  0  0  0
  -31.2861  -17.3697   21.8265 H   0  0  0  0  0  0
  -28.9434  -16.8067   18.6200 H   0  0  0  0  0  0
  -27.8957  -17.0474   19.9683 H   0  0  0  0  0  0
  -29.3192  -22.1620   22.3360 H   0  0  0  0  0  0
  -30.8608  -22.1502   21.5048 H   0  0  0  0  0  0
  -28.1303  -19.9307   21.1730 H   0  0  0  0  0  0
  -27.1316  -22.4273   20.1278 H   0  0  0  0  0  0
  -29.0722  -23.4088   17.9905 H   0  0  0  0  0  0
  -27.3420  -23.7116   18.0351 H   0  0  0  0  0  0
  -27.9344  -22.0688   17.8264 H   0  0  0  0  0  0
  -27.2751  -23.4348   22.3701 H   0  0  0  0  0  0
  -26.2445  -24.5303   21.4696 H   0  0  0  0  0  0
  -27.4983  -25.1688   22.5274 H   0  0  0  0  0  0
  -29.8675  -21.7403   19.5590 H   0  0  0  0  0  0
  1 25  1  0  0  0
  1 30  2  0  0  0
  1 82  1  0  0  0
  2  3  1  0  0  0
  2 25  1  0  0  0
  2 84  1  0  0  0
  2 85  1  0  0  0
  3  4  1  0  0  0
  3 86  1  0  0  0
  3 87  1  0  0  0
  4  5  1  0  0  0
  4 88  1  0  0  0
  4 89  1  0  0  0
  5  6  1  0  0  0
  5 26  1  0  0  0
  5 90  1  0  0  0
  6 25  1  0  0  0
  6 91  1  0  0  0
  6 92  1  0  0  0
  7  8  2  0  0  0
  7 26  1  0  0  0
  7 29  1  0  0  0
  8  9  1  0  0  0
  8 22  1  0  0  0
  9 10  1  0  0  0
  9 27  2  0  0  0
 10 11  2  0  0  0
 10 15  1  0  0  0
 11 12  1  0  0  0
 11 93  1  0  0  0
 12 13  2  0  0  0
 12 94  1  0  0  0
 13 14  1  0  0  0
 13 31  1  0  0  0
 14 15  2  0  0  0
 14 95  1  0  0  0
 15 96  1  0  0  0
 16 17  2  0  0  0
 16 21  1  0  0  0
 16 31  1  0  0  0
 17 18  1  0  0  0
 17 97  1  0  0  0
 18 19  2  0  0  0
 18 98  1  0  0  0
 19 20  1  0  0  0
 19 24  1  0  0  0
 20 21  2  0  0  0
 20 99  1  0  0  0
 21 23  1  0  0  0
 22 28  1  0  0  0
 22 32  2  0  0  0
 26 27  1  0  0  0
 28100  1  0  0  0
 28101  1  0  0  0
 29102  1  0  0  0
 29103  1  0  0  0
 33 34  1  0  0  0
 33 66  1  0  0  0
 33 70  2  0  0  0
 34 36  1  0  0  0
 34 59  1  0  0  0
 34104  1  0  0  0
 35 44  2  0  0  0
 35 45  1  0  0  0
 35 68  1  0  0  0
 36 56  1  0  0  0
 36105  1  0  0  0
 37 39  1  0  0  0
 37 47  1  0  0  0
 37 66  1  0  0  0
 37106  1  0  0  0
 38 43  2  0  0  0
 38 46  1  0  0  0
 38 47  1  0  0  0
 39 64  1  0  0  0
 39 67  2  0  0  0
 40 52  1  0  0  0
 40 53  2  0  0  0
 40 58  1  0  0  0
 41107  1  0  0  0
 41108  1  0  0  0
 41109  1  0  0  0
 41 48  1  0  0  0
 42 43  1  0  0  0
 42 66  1  0  0  0
 42110  1  0  0  0
 42111  1  0  0  0
 43 44  1  0  0  0
 44112  1  0  0  0
 45 46  2  0  0  0
 45113  1  0  0  0
 46114  1  0  0  0
 47115  1  0  0  0
 47116  1  0  0  0
 48 56  1  0  0  0
 48 65  1  0  0  0
 48117  1  0  0  0
 49 50  1  0  0  0
 49 53  1  0  0  0
 49 64  1  0  0  0
 49118  1  0  0  0
 50 51  1  0  0  0
 50119  1  0  0  0
 50120  1  0  0  0
 51 52  1  0  0  0
 51121  1  0  0  0
 51122  1  0  0  0
 52123  1  0  0  0
 52124  1  0  0  0
 53 54  1  0  0  0
 54 55  2  0  0  0
 54125  1  0  0  0
 55 57  1  0  0  0
 55126  1  0  0  0
 56 69  2  0  0  0
 57 58  2  0  0  0
 57127  1  0  0  0
 58128  1  0  0  0
 59 60  1  0  0  0
 59 61  1  0  0  0
 59 62  1  0  0  0
 60129  1  0  0  0
 60130  1  0  0  0
 60131  1  0  0  0
 61132  1  0  0  0
 61133  1  0  0  0
 61134  1  0  0  0
 62135  1  0  0  0
 62136  1  0  0  0
 62137  1  0  0  0
 63 65  1  0  0  0
 63138  1  0  0  0
 63139  1  0  0  0
 63140  1  0  0  0
 64141  1  0  0  0
 65142  1  0  0  0
 68 79  1  0  0  0
 71 74  1  0  0  0
 71143  1  0  0  0
 71144  1  0  0  0
 71 77  1  0  0  0
 72 75  1  0  0  0
 72 77  1  0  0  0
 72145  1  0  0  0
 72146  1  0  0  0
 73 76  1  0  0  0
 73 79  1  0  0  0
 73147  1  0  0  0
 73148  1  0  0  0
 74 82  1  0  0  0
 74149  1  0  0  0
 74150  1  0  0  0
 75 82  1  0  0  0
 75151  1  0  0  0
 75152  1  0  0  0
 76153  1  0  0  0
 76154  1  0  0  0
 76 83  1  0  0  0
 77 83  1  0  0  0
 77155  1  0  0  0
 78 79  1  0  0  0
 78 80  1  0  0  0
 78 83  1  0  0  0
 78156  1  0  0  0
 79 81  1  0  0  0
 80157  1  0  0  0
 80158  1  0  0  0
 80159  1  0  0  0
 81160  1  0  0  0
 81161  1  0  0  0
 81162  1  0  0  0
 83163  1  0  0  0
M  CHG  1  83   1
M  ISO  4   1 100  68 101  79 101  82 100
M  END
> <chiral flag>
0

> <version>
0

> <s_m_source_file>
/data/baiqing/PycharmProjects/Reinvent-master-3.2/result/LINK_invent/BTK/process_docking_weight1_custom_sum_contain_oxygen_bond_distance_aromatic_linkinvent_7_9_3/rearranged_h_0175.sdf

> <i_m_source_file_index>
16

> <r_mmod_Potential_Energy-OPLS-2005>
1269.50073242188

> <r_mmod_Stretch_Energy-OPLS-2005>
433.322357177734

> <r_mmod_Bend_Energy-OPLS-2005>
510.314239501953

> <r_mmod_Torsional_Energy-OPLS-2005>
423.908813476562

> <r_mmod_Improper_Torsional_Energy-OPLS-2005>
2.47839951515198

> <r_mmod_Van_der_Waal_Energy-OPLS-2005>
101.341583251953

> <r_mmod_Electrostatic_Energy-OPLS-2005>
-163.501983642578

> <r_mmod_Solvation_Energy-OPLS-2005>
-413.924072265625

> <b_mmod_Minimization_Converged-OPLS-2005>
0

> <r_mmod_RMS_Derivative-OPLS-2005>
1.52118527889252

$$$$
16
                    3D
 Structure written by MMmdl.
161170  0  0  1  0            999 V2000
  -30.6079  -14.8336   20.4115 C   0  0  0  0  0  0
  -30.4264  -12.5031   19.4727 C   0  0  0  0  0  0
  -29.5074  -12.4917   18.2305 C   0  0  0  0  0  0
  -28.0404  -12.3099   18.6602 C   0  0  0  0  0  0
  -27.6367  -13.2375   19.8381 C   0  0  2  0  0  0
  -28.6869  -13.2376   20.9701 C   0  0  0  0  0  0
  -25.2554  -13.8191   20.5758 C   0  0  0  0  0  0
  -24.1851  -13.0440   20.9245 C   0  0  0  0  0  0
  -24.6436  -11.6912   20.8767 C   0  0  0  0  0  0
  -23.9116  -10.4300   21.0428 C   0  0  0  0  0  0
  -24.3646   -9.4200   21.9203 C   0  0  0  0  0  0
  -23.6309   -8.2236   22.0764 C   0  0  0  0  0  0
  -22.4282   -8.0297   21.3547 C   0  0  0  0  0  0
  -21.9935   -9.0291   20.4649 C   0  0  0  0  0  0
  -22.7290  -10.2158   20.3067 C   0  0  0  0  0  0
  -21.6855   -6.0764   22.5292 C   0  0  0  0  0  0
  -21.4020   -6.5668   23.8234 C   0  0  0  0  0  0
  -21.3656   -5.6807   24.9191 C   0  0  0  0  0  0
  -21.6039   -4.3070   24.7230 C   0  0  0  0  0  0
  -21.8812   -3.8171   23.4349 C   0  0  0  0  0  0
  -21.9199   -4.6994   22.3412 C   0  0  0  0  0  0
  -22.7875  -13.5224   21.1913 C   0  0  0  0  0  0
  -22.1664   -4.2195   21.0984 F   0  0  0  0  0  0
  -21.5623   -3.4544   25.7732 F   0  0  0  0  0  0
  -29.9712  -13.6031   20.3625 N   0  0  0  0  0  0
  -26.2958  -12.9403   20.3293 N   0  0  0  0  0  0
  -25.9358  -11.6545   20.5739 N   0  0  0  0  0  0
  -22.0496  -12.8192   22.0410 N   0  0  0  0  0  0
  -25.4301  -15.1916   20.4226 N   0  0  0  0  0  0
  -31.8011  -14.8856   20.0988 O   0  0  0  0  0  0
  -21.6627   -6.8901   21.4246 O   0  0  0  0  0  0
  -22.3595  -14.5573   20.6792 O   0  0  0  0  0  0
  -24.6385  -31.8450   23.1924 C   0  0  0  0  0  0
  -25.9154  -32.4705   23.8295 C   0  0  1  0  0  0
  -27.2356  -27.1956   20.1376 C   0  0  0  0  0  0
  -25.5908  -33.8515   24.2217 N   0  0  0  0  0  0
  -23.4436  -30.4662   21.5320 C   0  0  2  0  0  0
  -24.8959  -28.8958   20.1148 C   0  0  0  0  0  0
  -22.7551  -29.4530   22.4812 C   0  0  0  0  0  0
  -18.0297  -28.1383   22.8459 C   0  0  0  0  0  0
  -24.1484  -36.7275   23.2649 C   0  0  0  0  0  0
  -25.9938  -30.7409   21.3809 C   0  0  0  0  0  0
  -26.0721  -29.3561   20.7226 C   0  0  0  0  0  0
  -27.2462  -28.5224   20.7127 C   0  0  0  0  0  0
  -26.0342  -26.8173   19.5043 C   0  0  0  0  0  0
  -24.8853  -27.6370   19.4949 C   0  0  0  0  0  0
  -23.6727  -29.7965   20.1518 C   0  0  0  0  0  0
  -25.4108  -36.3044   24.0332 C   0  0  1  0  0  0
  -20.5920  -28.3694   23.1231 C   0  0  2  0  0  0
  -20.6791  -26.9397   22.5401 C   0  0  0  0  0  0
  -19.5764  -26.6360   21.5204 C   0  0  0  0  0  0
  -18.1940  -26.7920   22.1610 C   0  0  0  0  0  0
  -19.1557  -28.8845   23.2846 C   0  0  0  0  0  0
  -18.9487  -30.1440   23.8877 C   0  0  0  0  0  0
  -17.6488  -30.6585   24.0546 C   0  0  0  0  0  0
  -25.9055  -34.9414   23.5089 C   0  0  0  0  0  0
  -16.5372  -29.9081   23.6337 C   0  0  0  0  0  0
  -16.7280  -28.6504   23.0342 C   0  0  0  0  0  0
  -26.4511  -31.6566   25.0715 C   0  0  0  0  0  0
  -25.3710  -31.3734   26.1418 C   0  0  0  0  0  0
  -27.0369  -30.2970   24.6256 C   0  0  0  0  0  0
  -27.6060  -32.4317   25.7486 C   0  0  0  0  0  0
  -27.5562  -37.1787   24.8460 C   0  0  0  0  0  0
  -21.4234  -29.3051   22.3597 N   0  0  0  0  0  0
  -26.4275  -37.3752   23.9412 N   0  0  0  0  0  0
  -24.7120  -31.0344   22.0933 N   0  0  0  0  0  0
  -23.4200  -28.8032   23.2912 O   0  0  0  0  0  0
  -28.3245  -26.2701   20.1328 O   0  0  0  0  0  0
  -26.5650  -34.8907   22.4666 O   0  0  0  0  0  0
  -23.5526  -32.1263   23.7188 O   0  0  0  0  0  0
  -30.1167  -19.8269   20.9202 C   0  0  0  0  0  0
  -31.0423  -20.3009   21.9043 C   0  0  0  0  0  0
  -30.5064  -22.5421   21.5462 C   0  0  0  0  0  0
  -29.5197  -22.2194   20.5820 C   0  0  0  0  0  0
  -30.4998  -17.1015   21.5808 C   0  0  0  0  0  0
  -30.2168  -18.2304   20.5169 C   0  0  1  0  0  0
  -29.2094  -17.1356   19.9909 C   0  0  1  0  0  0
  -32.0401  -19.4262   22.6473 C   0  0  0  0  0  0
  -30.9601  -23.9633   21.8431 C   0  0  0  0  0  0
  -29.0926  -16.8679   18.4885 C   0  0  0  0  0  0
  -28.8180  -23.4577   19.7942 C   0  0  0  0  0  0
  -28.1320  -24.7946   20.5163 C   0  0  0  0  0  0
  -29.3636  -20.8370   20.2588 N   0  0  0  0  0  0
  -31.2094  -21.6064   22.2082 N   0  0  0  0  0  0
  -29.9115  -16.0131   20.7520 N   0  0  0  0  0  0
  -31.4716  -12.6125   19.1768 H   0  0  0  0  0  0
  -30.3646  -11.5457   19.9952 H   0  0  0  0  0  0
  -29.7950  -11.6828   17.5578 H   0  0  0  0  0  0
  -29.6235  -13.4180   17.6646 H   0  0  0  0  0  0
  -27.9207  -11.2674   18.9585 H   0  0  0  0  0  0
  -27.3748  -12.4621   17.8091 H   0  0  0  0  0  0
  -27.6047  -14.2427   19.4231 H   0  0  0  0  0  0
  -28.7484  -12.2592   21.4492 H   0  0  0  0  0  0
  -28.4163  -13.9520   21.7483 H   0  0  0  0  0  0
  -25.2771   -9.5696   22.4813 H   0  0  0  0  0  0
  -24.0031   -7.4626   22.7473 H   0  0  0  0  0  0
  -21.0883   -8.8826   19.8942 H   0  0  0  0  0  0
  -22.3756  -10.9721   19.6203 H   0  0  0  0  0  0
  -21.1988   -7.6170   23.9759 H   0  0  0  0  0  0
  -21.1487   -6.0527   25.9104 H   0  0  0  0  0  0
  -22.0577   -2.7636   23.2828 H   0  0  0  0  0  0
  -22.4075  -11.9819   22.4770 H   0  0  0  0  0  0
  -21.1134  -13.1277   22.2617 H   0  0  0  0  0  0
  -24.6694  -15.8505   20.5536 H   0  0  0  0  0  0
  -26.2957  -15.6290   20.1356 H   0  0  0  0  0  0
  -26.7196  -32.5343   23.1020 H   0  0  0  0  0  0
  -24.9993  -33.9622   25.0317 H   0  0  0  0  0  0
  -22.7460  -31.2914   21.3752 H   0  0  0  0  0  0
  -23.3745  -35.9609   23.3307 H   0  0  0  0  0  0
  -24.3584  -36.8914   22.2068 H   0  0  0  0  0  0
  -23.7246  -37.6479   23.6685 H   0  0  0  0  0  0
  -26.1391  -31.5009   20.6111 H   0  0  0  0  0  0
  -26.8699  -30.7959   22.0180 H   0  0  0  0  0  0
  -28.1495  -28.8741   21.1903 H   0  0  0  0  0  0
  -25.9711  -25.8576   19.0125 H   0  0  0  0  0  0
  -23.9863  -27.2810   19.0115 H   0  0  0  0  0  0
  -23.8214  -30.5741   19.4016 H   0  0  0  0  0  0
  -22.7878  -29.2428   19.8328 H   0  0  0  0  0  0
  -25.1303  -36.1886   25.0828 H   0  0  0  0  0  0
  -21.0022  -28.3275   24.1350 H   0  0  0  0  0  0
  -20.5689  -26.2284   23.3601 H   0  0  0  0  0  0
  -21.6652  -26.7395   22.1194 H   0  0  0  0  0  0
  -19.6943  -25.6272   21.1234 H   0  0  0  0  0  0
  -19.6741  -27.3161   20.6730 H   0  0  0  0  0  0
  -17.4220  -26.6648   21.4006 H   0  0  0  0  0  0
  -18.0341  -26.0076   22.9021 H   0  0  0  0  0  0
  -19.7969  -30.7251   24.2241 H   0  0  0  0  0  0
  -17.5055  -31.6274   24.5139 H   0  0  0  0  0  0
  -15.5374  -30.2987   23.7679 H   0  0  0  0  0  0
  -15.8672  -28.0826   22.7065 H   0  0  0  0  0  0
  -24.5922  -30.7043   25.7751 H   0  0  0  0  0  0
  -24.8856  -32.2899   26.4780 H   0  0  0  0  0  0
  -25.8019  -30.8967   27.0229 H   0  0  0  0  0  0
  -26.2978  -29.6694   24.1268 H   0  0  0  0  0  0
  -27.4004  -29.7277   25.4824 H   0  0  0  0  0  0
  -27.8871  -30.4226   23.9552 H   0  0  0  0  0  0
  -27.2671  -33.3644   26.2003 H   0  0  0  0  0  0
  -28.3892  -32.6828   25.0322 H   0  0  0  0  0  0
  -28.0687  -31.8467   26.5441 H   0  0  0  0  0  0
  -28.2571  -38.0093   24.7512 H   0  0  0  0  0  0
  -28.1069  -36.2623   24.6285 H   0  0  0  0  0  0
  -27.2280  -37.1437   25.8864 H   0  0  0  0  0  0
  -20.9394  -29.8857   21.6892 H   0  0  0  0  0  0
  -26.0152  -38.2819   24.1457 H   0  0  0  0  0  0
  -29.9430  -17.2642   22.5051 H   0  0  0  0  0  0
  -31.5551  -16.9455   21.8039 H   0  0  0  0  0  0
  -31.0611  -18.2184   19.8241 H   0  0  0  0  0  0
  -28.2243  -17.3226   20.4211 H   0  0  0  0  0  0
  -32.6046  -18.8047   21.9539 H   0  0  0  0  0  0
  -31.5408  -18.8032   23.3884 H   0  0  0  0  0  0
  -32.7845  -20.0217   23.1802 H   0  0  0  0  0  0
  -30.3373  -24.4261   22.6069 H   0  0  0  0  0  0
  -30.9418  -24.5813   20.9466 H   0  0  0  0  0  0
  -31.9874  -23.9797   22.2063 H   0  0  0  0  0  0
  -28.4003  -16.0549   18.2667 H   0  0  0  0  0  0
  -30.0545  -16.6227   18.0351 H   0  0  0  0  0  0
  -28.7096  -17.7521   17.9730 H   0  0  0  0  0  0
  -28.0600  -23.0186   19.1439 H   0  0  0  0  0  0
  -29.5838  -23.8226   19.1099 H   0  0  0  0  0  0
  -28.4020  -24.7650   21.5687 H   0  0  0  0  0  0
  -27.0638  -24.5864   20.5546 H   0  0  0  0  0  0
  1 25  1  0  0  0
  1 30  2  0  0  0
  1 85  1  0  0  0
  2  3  1  0  0  0
  2 25  1  0  0  0
  2 86  1  0  0  0
  2 87  1  0  0  0
  3  4  1  0  0  0
  3 88  1  0  0  0
  3 89  1  0  0  0
  4  5  1  0  0  0
  4 90  1  0  0  0
  4 91  1  0  0  0
  5  6  1  0  0  0
  5 26  1  0  0  0
  5 92  1  0  0  0
  6 25  1  0  0  0
  6 93  1  0  0  0
  6 94  1  0  0  0
  7  8  2  0  0  0
  7 26  1  0  0  0
  7 29  1  0  0  0
  8  9  1  0  0  0
  8 22  1  0  0  0
  9 10  1  0  0  0
  9 27  2  0  0  0
 10 11  2  0  0  0
 10 15  1  0  0  0
 11 12  1  0  0  0
 11 95  1  0  0  0
 12 13  2  0  0  0
 12 96  1  0  0  0
 13 14  1  0  0  0
 13 31  1  0  0  0
 14 15  2  0  0  0
 14 97  1  0  0  0
 15 98  1  0  0  0
 16 17  2  0  0  0
 16 21  1  0  0  0
 16 31  1  0  0  0
 17 18  1  0  0  0
 17 99  1  0  0  0
 18 19  2  0  0  0
 18100  1  0  0  0
 19 20  1  0  0  0
 19 24  1  0  0  0
 20 21  2  0  0  0
 20101  1  0  0  0
 21 23  1  0  0  0
 22 28  1  0  0  0
 22 32  2  0  0  0
 26 27  1  0  0  0
 28102  1  0  0  0
 28103  1  0  0  0
 29104  1  0  0  0
 29105  1  0  0  0
 33 34  1  0  0  0
 33 66  1  0  0  0
 33 70  2  0  0  0
 34 36  1  0  0  0
 34 59  1  0  0  0
 34106  1  0  0  0
 35 44  2  0  0  0
 35 45  1  0  0  0
 35 68  1  0  0  0
 36 56  1  0  0  0
 36107  1  0  0  0
 37 39  1  0  0  0
 37 47  1  0  0  0
 37 66  1  0  0  0
 37108  1  0  0  0
 38 43  2  0  0  0
 38 46  1  0  0  0
 38 47  1  0  0  0
 39 64  1  0  0  0
 39 67  2  0  0  0
 40 52  1  0  0  0
 40 53  2  0  0  0
 40 58  1  0  0  0
 41109  1  0  0  0
 41110  1  0  0  0
 41111  1  0  0  0
 41 48  1  0  0  0
 42 43  1  0  0  0
 42 66  1  0  0  0
 42112  1  0  0  0
 42113  1  0  0  0
 43 44  1  0  0  0
 44114  1  0  0  0
 45 46  2  0  0  0
 45115  1  0  0  0
 46116  1  0  0  0
 47117  1  0  0  0
 47118  1  0  0  0
 48 56  1  0  0  0
 48 65  1  0  0  0
 48119  1  0  0  0
 49 50  1  0  0  0
 49 53  1  0  0  0
 49 64  1  0  0  0
 49120  1  0  0  0
 50 51  1  0  0  0
 50121  1  0  0  0
 50122  1  0  0  0
 51 52  1  0  0  0
 51123  1  0  0  0
 51124  1  0  0  0
 52125  1  0  0  0
 52126  1  0  0  0
 53 54  1  0  0  0
 54 55  2  0  0  0
 54127  1  0  0  0
 55 57  1  0  0  0
 55128  1  0  0  0
 56 69  2  0  0  0
 57 58  2  0  0  0
 57129  1  0  0  0
 58130  1  0  0  0
 59 60  1  0  0  0
 59 61  1  0  0  0
 59 62  1  0  0  0
 60131  1  0  0  0
 60132  1  0  0  0
 60133  1  0  0  0
 61134  1  0  0  0
 61135  1  0  0  0
 61136  1  0  0  0
 62137  1  0  0  0
 62138  1  0  0  0
 62139  1  0  0  0
 63 65  1  0  0  0
 63140  1  0  0  0
 63141  1  0  0  0
 63142  1  0  0  0
 64143  1  0  0  0
 65144  1  0  0  0
 68 82  1  0  0  0
 71 72  2  0  0  0
 71 83  1  0  0  0
 71 76  1  0  0  0
 72 78  1  0  0  0
 72 84  1  0  0  0
 73 74  1  0  0  0
 73 79  1  0  0  0
 73 84  2  0  0  0
 74 81  1  0  0  0
 74 83  2  0  0  0
 75 76  1  0  0  0
 75 85  1  0  0  0
 75145  1  0  0  0
 75146  1  0  0  0
 76 77  1  0  0  0
 76147  1  0  0  0
 77 80  1  0  0  0
 77 85  1  0  0  0
 77148  1  0  0  0
 78149  1  0  0  0
 78150  1  0  0  0
 78151  1  0  0  0
 79152  1  0  0  0
 79153  1  0  0  0
 79154  1  0  0  0
 80155  1  0  0  0
 80156  1  0  0  0
 80157  1  0  0  0
 81 82  1  0  0  0
 81158  1  0  0  0
 81159  1  0  0  0
 82160  1  0  0  0
 82161  1  0  0  0
M  ISO  4   1 100  68 101  82 101  85 100
M  END
> <chiral flag>
0

> <version>
0

> <s_m_source_file>
/data/baiqing/PycharmProjects/Reinvent-master-3.2/result/LINK_invent/BTK/process_docking_weight1_custom_sum_contain_oxygen_bond_distance_aromatic_linkinvent_7_9_3/rearranged_h_0175.sdf

> <i_m_source_file_index>
17

> <r_mmod_Potential_Energy-OPLS-2005>
526.660034179688

> <r_mmod_Stretch_Energy-OPLS-2005>
200.925506591797

> <r_mmod_Bend_Energy-OPLS-2005>
260.195281982422

> <r_mmod_Torsional_Energy-OPLS-2005>
301.377532958984

> <r_mmod_Improper_Torsional_Energy-OPLS-2005>
9.97141647338867

> <r_mmod_Van_der_Waal_Energy-OPLS-2005>
140.923202514648

> <r_mmod_Electrostatic_Energy-OPLS-2005>
-298.241577148438

> <r_mmod_Solvation_Energy-OPLS-2005>
-215.864852905273

> <b_mmod_Minimization_Converged-OPLS-2005>
0

> <r_mmod_RMS_Derivative-OPLS-2005>
3.51303505897522

$$$$
17
                    3D
 Structure written by MMmdl.
160170  0  0  1  0            999 V2000
  -30.6573  -14.7431   20.5236 C   0  0  0  0  0  0
  -30.4307  -12.4792   19.4668 C   0  0  0  0  0  0
  -29.5002  -12.5135   18.2343 C   0  0  0  0  0  0
  -28.0293  -12.3306   18.6532 C   0  0  0  0  0  0
  -27.6400  -13.2262   19.8575 C   0  0  2  0  0  0
  -28.6899  -13.1258   20.9851 C   0  0  0  0  0  0
  -25.2456  -13.8170   20.5684 C   0  0  0  0  0  0
  -24.1768  -13.0431   20.9232 C   0  0  0  0  0  0
  -24.6355  -11.6908   20.8770 C   0  0  0  0  0  0
  -23.9033  -10.4288   21.0423 C   0  0  0  0  0  0
  -24.3594   -9.4208   21.9195 C   0  0  0  0  0  0
  -23.6289   -8.2232   22.0750 C   0  0  0  0  0  0
  -22.4270   -8.0264   21.3540 C   0  0  0  0  0  0
  -21.9907   -9.0233   20.4633 C   0  0  0  0  0  0
  -22.7218  -10.2124   20.3058 C   0  0  0  0  0  0
  -21.6841   -6.0723   22.5281 C   0  0  0  0  0  0
  -21.4008   -6.5637   23.8209 C   0  0  0  0  0  0
  -21.3651   -5.6794   24.9172 C   0  0  0  0  0  0
  -21.6047   -4.3055   24.7230 C   0  0  0  0  0  0
  -21.8826   -3.8144   23.4352 C   0  0  0  0  0  0
  -21.9200   -4.6955   22.3408 C   0  0  0  0  0  0
  -22.7795  -13.5208   21.1917 C   0  0  0  0  0  0
  -22.1674   -4.2153   21.0976 F   0  0  0  0  0  0
  -21.5629   -3.4529   25.7735 F   0  0  0  0  0  0
  -29.9806  -13.5372   20.4106 N   0  0  0  0  0  0
  -26.2911  -12.9385   20.3325 N   0  0  0  0  0  0
  -25.9284  -11.6525   20.5787 N   0  0  0  0  0  0
  -22.0430  -12.8180   22.0448 N   0  0  0  0  0  0
  -25.4089  -15.1895   20.3984 N   0  0  0  0  0  0
  -31.8346  -14.7856   20.1494 O   0  0  0  0  0  0
  -21.6641   -6.8867   21.4238 O   0  0  0  0  0  0
  -22.3482  -14.5521   20.6765 O   0  0  0  0  0  0
  -24.6297  -31.8527   23.1957 C   0  0  0  0  0  0
  -25.9120  -32.4740   23.8298 C   0  0  1  0  0  0
  -27.2336  -27.2697   20.1495 C   0  0  0  0  0  0
  -25.5891  -33.8534   24.2212 N   0  0  0  0  0  0
  -23.4273  -30.4750   21.5372 C   0  0  2  0  0  0
  -24.8784  -28.9178   20.1146 C   0  0  0  0  0  0
  -22.7508  -29.4577   22.4880 C   0  0  0  0  0  0
  -18.0281  -28.1394   22.8459 C   0  0  0  0  0  0
  -24.1472  -36.7281   23.2656 C   0  0  0  0  0  0
  -25.9715  -30.7756   21.3689 C   0  0  0  0  0  0
  -26.0474  -29.3959   20.7175 C   0  0  0  0  0  0
  -27.2285  -28.5879   20.7159 C   0  0  0  0  0  0
  -26.0414  -26.8525   19.5167 C   0  0  0  0  0  0
  -24.8810  -27.6537   19.4999 C   0  0  0  0  0  0
  -23.6472  -29.8040   20.1552 C   0  0  0  0  0  0
  -25.4096  -36.3035   24.0339 C   0  0  1  0  0  0
  -20.5892  -28.3669   23.1242 C   0  0  2  0  0  0
  -20.6744  -26.9370   22.5404 C   0  0  0  0  0  0
  -19.5725  -26.6360   21.5197 C   0  0  0  0  0  0
  -18.1906  -26.7924   22.1610 C   0  0  0  0  0  0
  -19.1549  -28.8844   23.2838 C   0  0  0  0  0  0
  -18.9496  -30.1456   23.8852 C   0  0  0  0  0  0
  -17.6498  -30.6588   24.0557 C   0  0  0  0  0  0
  -25.9050  -34.9431   23.5084 C   0  0  0  0  0  0
  -16.5368  -29.9102   23.6343 C   0  0  0  0  0  0
  -16.7268  -28.6527   23.0333 C   0  0  0  0  0  0
  -26.4486  -31.6600   25.0704 C   0  0  0  0  0  0
  -25.3687  -31.3804   26.1415 C   0  0  0  0  0  0
  -27.0348  -30.3023   24.6198 C   0  0  0  0  0  0
  -27.6004  -32.4368   25.7497 C   0  0  0  0  0  0
  -27.5561  -37.1786   24.8481 C   0  0  0  0  0  0
  -21.4210  -29.3011   22.3642 N   0  0  0  0  0  0
  -26.4260  -37.3750   23.9439 N   0  0  0  0  0  0
  -24.6953  -31.0539   22.0899 N   0  0  0  0  0  0
  -23.4216  -28.8110   23.2965 O   0  0  0  0  0  0
  -28.3592  -26.4168   20.1768 O   0  0  0  0  0  0
  -26.5636  -34.8920   22.4662 O   0  0  0  0  0  0
  -23.5450  -32.1304   23.7280 O   0  0  0  0  0  0
  -29.2836  -21.1786   20.3485 C   0  0  0  0  0  0
  -30.7974  -20.2304   21.9922 C   0  0  0  0  0  0
  -29.8521  -19.9868   20.9727 C   0  0  0  0  0  0
  -29.6710  -22.5034   20.8026 C   0  0  0  0  0  0
  -30.6023  -22.5296   21.8363 C   0  0  0  0  0  0
  -31.0693  -23.9207   22.1473 C   0  0  0  0  0  0
  -30.7337  -24.6876   20.8548 C   0  0  0  0  0  0
  -28.7643  -17.7660   21.8572 C   0  0  0  0  0  0
  -28.8226  -16.2409   21.5768 C   0  0  0  0  0  0
  -30.5417  -17.3371   20.3980 C   0  0  0  0  0  0
  -29.4548  -18.4663   20.6826 C   0  0  2  0  0  0
  -29.4939  -23.9896   20.2246 C   0  0  2  0  0  0
  -28.2192  -24.9511   20.4986 C   0  0  0  0  0  0
  -31.1661  -21.4576   22.4226 N   0  0  0  0  0  0
  -29.9953  -15.9627   20.7346 N   0  0  0  0  0  0
  -31.4645  -12.6130   19.1448 H   0  0  0  0  0  0
  -30.4022  -11.4996   19.9449 H   0  0  0  0  0  0
  -29.7828  -11.7323   17.5289 H   0  0  0  0  0  0
  -29.6185  -13.4627   17.7085 H   0  0  0  0  0  0
  -27.8945  -11.2823   18.9218 H   0  0  0  0  0  0
  -27.3646  -12.5163   17.8087 H   0  0  0  0  0  0
  -27.6410  -14.2491   19.4842 H   0  0  0  0  0  0
  -28.7484  -12.1001   21.3509 H   0  0  0  0  0  0
  -28.4025  -13.7082   21.8545 H   0  0  0  0  0  0
  -25.2719   -9.5704   22.4787 H   0  0  0  0  0  0
  -24.0002   -7.4620   22.7464 H   0  0  0  0  0  0
  -21.0851   -8.8727   19.8927 H   0  0  0  0  0  0
  -22.3654  -10.9661   19.6177 H   0  0  0  0  0  0
  -21.1986   -7.6139   23.9720 H   0  0  0  0  0  0
  -21.1466   -6.0510   25.9079 H   0  0  0  0  0  0
  -22.0614   -2.7605   23.2843 H   0  0  0  0  0  0
  -22.4025  -11.9824   22.4821 H   0  0  0  0  0  0
  -21.1044  -13.1192   22.2657 H   0  0  0  0  0  0
  -24.6368  -15.8393   20.5014 H   0  0  0  0  0  0
  -26.2400  -15.6206   20.0163 H   0  0  0  0  0  0
  -26.7192  -32.5423   23.1046 H   0  0  0  0  0  0
  -24.9983  -33.9653   25.0313 H   0  0  0  0  0  0
  -22.7216  -31.2953   21.3883 H   0  0  0  0  0  0
  -23.3716  -35.9635   23.3325 H   0  0  0  0  0  0
  -24.3558  -36.8888   22.2068 H   0  0  0  0  0  0
  -23.7259  -37.6491   23.6674 H   0  0  0  0  0  0
  -26.1067  -31.5335   20.5954 H   0  0  0  0  0  0
  -26.8506  -30.8298   22.0005 H   0  0  0  0  0  0
  -28.1302  -28.9521   21.1865 H   0  0  0  0  0  0
  -25.9938  -25.8904   19.0271 H   0  0  0  0  0  0
  -23.9890  -27.2814   19.0147 H   0  0  0  0  0  0
  -23.7735  -30.5785   19.3979 H   0  0  0  0  0  0
  -22.7657  -29.2376   19.8492 H   0  0  0  0  0  0
  -25.1279  -36.1858   25.0833 H   0  0  0  0  0  0
  -20.9988  -28.3245   24.1363 H   0  0  0  0  0  0
  -20.5607  -26.2290   23.3622 H   0  0  0  0  0  0
  -21.6616  -26.7351   22.1228 H   0  0  0  0  0  0
  -19.6880  -25.6271   21.1234 H   0  0  0  0  0  0
  -19.6682  -27.3162   20.6714 H   0  0  0  0  0  0
  -17.4171  -26.6653   21.4014 H   0  0  0  0  0  0
  -18.0290  -26.0077   22.9017 H   0  0  0  0  0  0
  -19.7996  -30.7258   24.2197 H   0  0  0  0  0  0
  -17.5082  -31.6280   24.5152 H   0  0  0  0  0  0
  -15.5384  -30.3010   23.7715 H   0  0  0  0  0  0
  -15.8648  -28.0878   22.7043 H   0  0  0  0  0  0
  -24.5884  -30.7102   25.7789 H   0  0  0  0  0  0
  -24.8854  -32.2997   26.4719 H   0  0  0  0  0  0
  -25.7985  -30.9095   27.0270 H   0  0  0  0  0  0
  -26.2940  -29.6758   24.1201 H   0  0  0  0  0  0
  -27.4014  -29.7294   25.4728 H   0  0  0  0  0  0
  -27.8812  -30.4314   23.9453 H   0  0  0  0  0  0
  -27.2567  -33.3702   26.1986 H   0  0  0  0  0  0
  -28.3855  -32.6884   25.0357 H   0  0  0  0  0  0
  -28.0599  -31.8553   26.5494 H   0  0  0  0  0  0
  -28.2574  -38.0077   24.7468 H   0  0  0  0  0  0
  -28.1035  -36.2595   24.6327 H   0  0  0  0  0  0
  -27.2293  -37.1478   25.8889 H   0  0  0  0  0  0
  -20.9398  -29.8771   21.6885 H   0  0  0  0  0  0
  -26.0124  -38.2827   24.1407 H   0  0  0  0  0  0
  -28.5881  -21.0722   19.5279 H   0  0  0  0  0  0
  -31.2729  -19.4016   22.4977 H   0  0  0  0  0  0
  -32.1246  -23.9688   22.4136 H   0  0  0  0  0  0
  -30.4796  -24.2953   22.9866 H   0  0  0  0  0  0
  -31.5758  -24.5532   20.1728 H   0  0  0  0  0  0
  -30.6405  -25.7639   21.0049 H   0  0  0  0  0  0
  -29.3258  -17.9533   22.7746 H   0  0  0  0  0  0
  -27.7508  -18.1272   22.0347 H   0  0  0  0  0  0
  -27.9265  -15.9389   21.0399 H   0  0  0  0  0  0
  -28.8579  -15.6984   22.5219 H   0  0  0  0  0  0
  -31.4153  -17.4906   21.0344 H   0  0  0  0  0  0
  -30.8907  -17.3808   19.3661 H   0  0  0  0  0  0
  -28.7583  -18.4716   19.8430 H   0  0  0  0  0  0
  -29.6388  -23.9466   19.1460 H   0  0  0  0  0  0
  -27.3641  -24.5243   19.9767 H   0  0  0  0  0  0
  -27.9719  -24.8998   21.5610 H   0  0  0  0  0  0
  1 25  1  0  0  0
  1 30  2  0  0  0
  1 85  1  0  0  0
  2  3  1  0  0  0
  2 25  1  0  0  0
  2 86  1  0  0  0
  2 87  1  0  0  0
  3  4  1  0  0  0
  3 88  1  0  0  0
  3 89  1  0  0  0
  4  5  1  0  0  0
  4 90  1  0  0  0
  4 91  1  0  0  0
  5  6  1  0  0  0
  5 26  1  0  0  0
  5 92  1  0  0  0
  6 25  1  0  0  0
  6 93  1  0  0  0
  6 94  1  0  0  0
  7  8  2  0  0  0
  7 26  1  0  0  0
  7 29  1  0  0  0
  8  9  1  0  0  0
  8 22  1  0  0  0
  9 10  1  0  0  0
  9 27  2  0  0  0
 10 11  2  0  0  0
 10 15  1  0  0  0
 11 12  1  0  0  0
 11 95  1  0  0  0
 12 13  2  0  0  0
 12 96  1  0  0  0
 13 14  1  0  0  0
 13 31  1  0  0  0
 14 15  2  0  0  0
 14 97  1  0  0  0
 15 98  1  0  0  0
 16 17  2  0  0  0
 16 21  1  0  0  0
 16 31  1  0  0  0
 17 18  1  0  0  0
 17 99  1  0  0  0
 18 19  2  0  0  0
 18100  1  0  0  0
 19 20  1  0  0  0
 19 24  1  0  0  0
 20 21  2  0  0  0
 20101  1  0  0  0
 21 23  1  0  0  0
 22 28  1  0  0  0
 22 32  2  0  0  0
 26 27  1  0  0  0
 28102  1  0  0  0
 28103  1  0  0  0
 29104  1  0  0  0
 29105  1  0  0  0
 33 34  1  0  0  0
 33 66  1  0  0  0
 33 70  2  0  0  0
 34 36  1  0  0  0
 34 59  1  0  0  0
 34106  1  0  0  0
 35 44  2  0  0  0
 35 45  1  0  0  0
 35 68  1  0  0  0
 36 56  1  0  0  0
 36107  1  0  0  0
 37 39  1  0  0  0
 37 47  1  0  0  0
 37 66  1  0  0  0
 37108  1  0  0  0
 38 43  2  0  0  0
 38 46  1  0  0  0
 38 47  1  0  0  0
 39 64  1  0  0  0
 39 67  2  0  0  0
 40 52  1  0  0  0
 40 53  2  0  0  0
 40 58  1  0  0  0
 41109  1  0  0  0
 41110  1  0  0  0
 41111  1  0  0  0
 41 48  1  0  0  0
 42 43  1  0  0  0
 42 66  1  0  0  0
 42112  1  0  0  0
 42113  1  0  0  0
 43 44  1  0  0  0
 44114  1  0  0  0
 45 46  2  0  0  0
 45115  1  0  0  0
 46116  1  0  0  0
 47117  1  0  0  0
 47118  1  0  0  0
 48 56  1  0  0  0
 48 65  1  0  0  0
 48119  1  0  0  0
 49 50  1  0  0  0
 49 53  1  0  0  0
 49 64  1  0  0  0
 49120  1  0  0  0
 50 51  1  0  0  0
 50121  1  0  0  0
 50122  1  0  0  0
 51 52  1  0  0  0
 51123  1  0  0  0
 51124  1  0  0  0
 52125  1  0  0  0
 52126  1  0  0  0
 53 54  1  0  0  0
 54 55  2  0  0  0
 54127  1  0  0  0
 55 57  1  0  0  0
 55128  1  0  0  0
 56 69  2  0  0  0
 57 58  2  0  0  0
 57129  1  0  0  0
 58130  1  0  0  0
 59 60  1  0  0  0
 59 61  1  0  0  0
 59 62  1  0  0  0
 60131  1  0  0  0
 60132  1  0  0  0
 60133  1  0  0  0
 61134  1  0  0  0
 61135  1  0  0  0
 61136  1  0  0  0
 62137  1  0  0  0
 62138  1  0  0  0
 62139  1  0  0  0
 63 65  1  0  0  0
 63140  1  0  0  0
 63141  1  0  0  0
 63142  1  0  0  0
 64143  1  0  0  0
 65144  1  0  0  0
 68 83  1  0  0  0
 71 73  2  0  0  0
 71 74  1  0  0  0
 71145  1  0  0  0
 72 73  1  0  0  0
 72 84  2  0  0  0
 72146  1  0  0  0
 73 81  1  0  0  0
 74 75  2  0  0  0
 74 82  1  0  0  0
 75 76  1  0  0  0
 75 84  1  0  0  0
 76 77  1  0  0  0
 76147  1  0  0  0
 76148  1  0  0  0
 77 82  1  0  0  0
 77149  1  0  0  0
 77150  1  0  0  0
 78 79  1  0  0  0
 78 81  1  0  0  0
 78151  1  0  0  0
 78152  1  0  0  0
 79 85  1  0  0  0
 79153  1  0  0  0
 79154  1  0  0  0
 80 81  1  0  0  0
 80 85  1  0  0  0
 80155  1  0  0  0
 80156  1  0  0  0
 81157  1  0  0  0
 82 83  1  0  0  0
 82158  1  0  0  0
 83159  1  0  0  0
 83160  1  0  0  0
M  ISO  4   1 100  68 101  83 101  85 100
M  END
> <chiral flag>
0

> <version>
0

> <s_m_source_file>
/data/baiqing/PycharmProjects/Reinvent-master-3.2/result/LINK_invent/BTK/process_docking_weight1_custom_sum_contain_oxygen_bond_distance_aromatic_linkinvent_7_9_3/rearranged_h_0175.sdf

> <i_m_source_file_index>
18

> <r_mmod_Potential_Energy-OPLS-2005>
260.75927734375

> <r_mmod_Stretch_Energy-OPLS-2005>
125.299797058105

> <r_mmod_Bend_Energy-OPLS-2005>
261.185760498047

> <r_mmod_Torsional_Energy-OPLS-2005>
329.962585449219

> <r_mmod_Improper_Torsional_Energy-OPLS-2005>
10.9910440444946

> <r_mmod_Van_der_Waal_Energy-OPLS-2005>
134.403121948242

> <r_mmod_Electrostatic_Energy-OPLS-2005>
-458.564483642578

> <r_mmod_Solvation_Energy-OPLS-2005>
-218.466232299805

> <b_mmod_Minimization_Converged-OPLS-2005>
0

> <r_mmod_RMS_Derivative-OPLS-2005>
3.12995386123657

$$$$
18
                    3D
 Structure written by MMmdl.
166175  0  0  1  0            999 V2000
  -30.5290  -14.9415   20.4142 C   0  0  0  0  0  0
  -30.4400  -12.5831   19.4900 C   0  0  0  0  0  0
  -29.5205  -12.5357   18.2475 C   0  0  0  0  0  0
  -28.0514  -12.3262   18.6625 C   0  0  0  0  0  0
  -27.6296  -13.2468   19.8375 C   0  0  2  0  0  0
  -28.6738  -13.2646   20.9734 C   0  0  0  0  0  0
  -25.2477  -13.8192   20.5748 C   0  0  0  0  0  0
  -24.1779  -13.0417   20.9207 C   0  0  0  0  0  0
  -24.6399  -11.6911   20.8718 C   0  0  0  0  0  0
  -23.9078  -10.4281   21.0387 C   0  0  0  0  0  0
  -24.3627   -9.4205   21.9173 C   0  0  0  0  0  0
  -23.6293   -8.2247   22.0741 C   0  0  0  0  0  0
  -22.4265   -8.0288   21.3546 C   0  0  0  0  0  0
  -21.9915   -9.0261   20.4642 C   0  0  0  0  0  0
  -22.7246  -10.2135   20.3048 C   0  0  0  0  0  0
  -21.6854   -6.0739   22.5282 C   0  0  0  0  0  0
  -21.4019   -6.5637   23.8217 C   0  0  0  0  0  0
  -21.3663   -5.6787   24.9178 C   0  0  0  0  0  0
  -21.6043   -4.3042   24.7224 C   0  0  0  0  0  0
  -21.8815   -3.8147   23.4336 C   0  0  0  0  0  0
  -21.9206   -4.6969   22.3402 C   0  0  0  0  0  0
  -22.7809  -13.5206   21.1870 C   0  0  0  0  0  0
  -22.1661   -4.2163   21.0976 F   0  0  0  0  0  0
  -21.5628   -3.4528   25.7731 F   0  0  0  0  0  0
  -29.9493  -13.6767   20.3743 N   0  0  0  0  0  0
  -26.2895  -12.9431   20.3245 N   0  0  0  0  0  0
  -25.9335  -11.6554   20.5715 N   0  0  0  0  0  0
  -22.0448  -12.8211   22.0422 N   0  0  0  0  0  0
  -25.4155  -15.1939   20.4308 N   0  0  0  0  0  0
  -31.7314  -15.0266   20.1446 O   0  0  0  0  0  0
  -21.6626   -6.8883   21.4238 O   0  0  0  0  0  0
  -22.3502  -14.5528   20.6734 O   0  0  0  0  0  0
  -24.6444  -31.8438   23.1884 C   0  0  0  0  0  0
  -25.9228  -32.4680   23.8259 C   0  0  1  0  0  0
  -27.2159  -27.1388   20.1616 C   0  0  0  0  0  0
  -25.5992  -33.8476   24.2196 N   0  0  0  0  0  0
  -23.4476  -30.4638   21.5323 C   0  0  2  0  0  0
  -24.8975  -28.8872   20.1145 C   0  0  0  0  0  0
  -22.7566  -29.4549   22.4844 C   0  0  0  0  0  0
  -18.0308  -28.1385   22.8463 C   0  0  0  0  0  0
  -24.1501  -36.7234   23.2634 C   0  0  0  0  0  0
  -26.0034  -30.7198   21.3862 C   0  0  0  0  0  0
  -26.0755  -29.3291   20.7315 C   0  0  0  0  0  0
  -27.2408  -28.4724   20.7348 C   0  0  0  0  0  0
  -26.0160  -26.7965   19.5056 C   0  0  0  0  0  0
  -24.8795  -27.6330   19.4833 C   0  0  0  0  0  0
  -23.6754  -29.7914   20.1526 C   0  0  0  0  0  0
  -25.4124  -36.3011   24.0316 C   0  0  1  0  0  0
  -20.5921  -28.3708   23.1227 C   0  0  2  0  0  0
  -20.6790  -26.9409   22.5400 C   0  0  0  0  0  0
  -19.5765  -26.6375   21.5198 C   0  0  0  0  0  0
  -18.1943  -26.7931   22.1601 C   0  0  0  0  0  0
  -19.1567  -28.8863   23.2841 C   0  0  0  0  0  0
  -18.9481  -30.1463   23.8858 C   0  0  0  0  0  0
  -17.6479  -30.6583   24.0546 C   0  0  0  0  0  0
  -25.9070  -34.9391   23.5054 C   0  0  0  0  0  0
  -16.5368  -29.9066   23.6342 C   0  0  0  0  0  0
  -16.7295  -28.6491   23.0349 C   0  0  0  0  0  0
  -26.4558  -31.6533   25.0688 C   0  0  0  0  0  0
  -25.3767  -31.3732   26.1409 C   0  0  0  0  0  0
  -27.0404  -30.2919   24.6268 C   0  0  0  0  0  0
  -27.6109  -32.4279   25.7462 C   0  0  0  0  0  0
  -27.5577  -37.1767   24.8458 C   0  0  0  0  0  0
  -21.4259  -29.3034   22.3592 N   0  0  0  0  0  0
  -26.4282  -37.3730   23.9413 N   0  0  0  0  0  0
  -24.7177  -31.0302   22.0909 N   0  0  0  0  0  0
  -23.4216  -28.8097   23.2989 O   0  0  0  0  0  0
  -28.2546  -26.1398   20.1704 O   0  0  0  0  0  0
  -26.5638  -34.8892   22.4621 O   0  0  0  0  0  0
  -23.5572  -32.1307   23.7124 O   0  0  0  0  0  0
  -28.1344  -21.1413   18.9518 C   0  0  0  0  0  0
  -27.9574  -22.5536   19.2023 C   0  0  0  0  0  0
  -29.2105  -22.3077   21.1989 C   0  0  0  0  0  0
  -28.8556  -20.2359   19.8050 C   0  0  0  0  0  0
  -29.4034  -20.8715   20.9469 C   0  0  0  0  0  0
  -28.4731  -23.2332   20.3460 C   0  0  0  0  0  0
  -30.1983  -19.9461   21.8965 C   0  0  0  0  0  0
  -29.8855  -18.3885   21.8568 C   0  0  0  0  0  0
  -28.9794  -18.6362   19.5286 C   0  0  2  0  0  0
  -29.9354  -17.6746   20.4637 C   0  0  2  0  0  0
  -28.3768  -16.9606   16.1538 C   0  0  0  0  0  0
  -30.4645  -18.9050   17.5395 C   0  0  0  0  0  0
  -27.9731  -24.7487   20.7948 C   0  0  0  0  0  0
  -28.8560  -17.0123   17.6143 C   0  0  0  0  0  0
  -29.7131  -16.0992   20.5331 N   0  0  0  0  0  0
  -29.1749  -18.3923   18.0688 N   0  3  1  0  0  0
  -31.4743  -12.7419   19.1780 H   0  0  0  0  0  0
  -30.4286  -11.6269   20.0152 H   0  0  0  0  0  0
  -29.8341  -11.7389   17.5710 H   0  0  0  0  0  0
  -29.6128  -13.4673   17.6872 H   0  0  0  0  0  0
  -27.9386  -11.2825   18.9547 H   0  0  0  0  0  0
  -27.3923  -12.4756   17.8061 H   0  0  0  0  0  0
  -27.5924  -14.2497   19.4140 H   0  0  0  0  0  0
  -28.7635  -12.2869   21.4487 H   0  0  0  0  0  0
  -28.3753  -13.9607   21.7586 H   0  0  0  0  0  0
  -25.2764   -9.5687   22.4756 H   0  0  0  0  0  0
  -24.0014   -7.4639   22.7453 H   0  0  0  0  0  0
  -21.0854   -8.8784   19.8947 H   0  0  0  0  0  0
  -22.3700  -10.9682   19.6169 H   0  0  0  0  0  0
  -21.1996   -7.6144   23.9726 H   0  0  0  0  0  0
  -21.1487   -6.0505   25.9084 H   0  0  0  0  0  0
  -22.0595   -2.7614   23.2826 H   0  0  0  0  0  0
  -22.4028  -11.9884   22.4859 H   0  0  0  0  0  0
  -21.1085  -13.1271   22.2622 H   0  0  0  0  0  0
  -24.6483  -15.8410   20.5749 H   0  0  0  0  0  0
  -26.2793  -15.6524   20.1809 H   0  0  0  0  0  0
  -26.7283  -32.5308   23.0974 H   0  0  0  0  0  0
  -25.0212  -33.9571   25.0397 H   0  0  0  0  0  0
  -22.7501  -31.2903   21.3765 H   0  0  0  0  0  0
  -23.3769  -35.9558   23.3273 H   0  0  0  0  0  0
  -24.3602  -36.8884   22.2056 H   0  0  0  0  0  0
  -23.7245  -37.6414   23.6686 H   0  0  0  0  0  0
  -26.1596  -31.4734   20.6132 H   0  0  0  0  0  0
  -26.8733  -30.7710   22.0296 H   0  0  0  0  0  0
  -28.1422  -28.8073   21.2293 H   0  0  0  0  0  0
  -25.9465  -25.8343   19.0174 H   0  0  0  0  0  0
  -23.9827  -27.2893   18.9871 H   0  0  0  0  0  0
  -23.8153  -30.5639   19.3950 H   0  0  0  0  0  0
  -22.7912  -29.2334   19.8408 H   0  0  0  0  0  0
  -25.1315  -36.1826   25.0809 H   0  0  0  0  0  0
  -21.0021  -28.3298   24.1340 H   0  0  0  0  0  0
  -20.5646  -26.2316   23.3613 H   0  0  0  0  0  0
  -21.6662  -26.7390   22.1222 H   0  0  0  0  0  0
  -19.6915  -25.6271   21.1250 H   0  0  0  0  0  0
  -19.6718  -27.3164   20.6711 H   0  0  0  0  0  0
  -17.4219  -26.6672   21.3998 H   0  0  0  0  0  0
  -18.0336  -26.0075   22.9005 H   0  0  0  0  0  0
  -19.7958  -30.7297   24.2195 H   0  0  0  0  0  0
  -17.5031  -31.6258   24.5154 H   0  0  0  0  0  0
  -15.5364  -30.2951   23.7689 H   0  0  0  0  0  0
  -15.8695  -28.0805   22.7071 H   0  0  0  0  0  0
  -24.5970  -30.7033   25.7765 H   0  0  0  0  0  0
  -24.8929  -32.2915   26.4745 H   0  0  0  0  0  0
  -25.8087  -30.8993   27.0236 H   0  0  0  0  0  0
  -26.3007  -29.6637   24.1297 H   0  0  0  0  0  0
  -27.4024  -29.7223   25.4832 H   0  0  0  0  0  0
  -27.8926  -30.4115   23.9578 H   0  0  0  0  0  0
  -27.2736  -33.3616   26.1978 H   0  0  0  0  0  0
  -28.3964  -32.6768   25.0312 H   0  0  0  0  0  0
  -28.0741  -31.8436   26.5423 H   0  0  0  0  0  0
  -28.2574  -38.0081   24.7528 H   0  0  0  0  0  0
  -28.1099  -36.2612   24.6268 H   0  0  0  0  0  0
  -27.2311  -37.1409   25.8864 H   0  0  0  0  0  0
  -20.9447  -29.8751   21.6784 H   0  0  0  0  0  0
  -26.0145  -38.2793   24.1427 H   0  0  0  0  0  0
  -27.6553  -20.7474   18.0668 H   0  0  0  0  0  0
  -27.3431  -23.1171   18.5131 H   0  0  0  0  0  0
  -29.6103  -22.7031   22.1229 H   0  0  0  0  0  0
  -30.0498  -20.3051   22.9164 H   0  0  0  0  0  0
  -31.2570  -20.0962   21.6818 H   0  0  0  0  0  0
  -28.8920  -18.2349   22.2798 H   0  0  0  0  0  0
  -30.5711  -17.8845   22.5398 H   0  0  0  0  0  0
  -27.9613  -18.3075   19.7453 H   0  0  0  0  0  0
  -30.9612  -17.8020   20.1183 H   0  0  0  0  0  0
  -28.0867  -15.9442   15.8854 H   0  0  0  0  0  0
  -29.1530  -17.2654   15.4528 H   0  0  0  0  0  0
  -27.5055  -17.5968   15.9946 H   0  0  0  0  0  0
  -30.6246  -19.9461   17.8190 H   0  0  0  0  0  0
  -30.4835  -18.8683   16.4504 H   0  0  0  0  0  0
  -31.3097  -18.3254   17.9080 H   0  0  0  0  0  0
  -28.3124  -24.8542   21.8253 H   0  0  0  0  0  0
  -26.8919  -24.6509   20.8962 H   0  0  0  0  0  0
  -29.7229  -16.3642   17.7472 H   0  0  0  0  0  0
  -28.0600  -16.5954   18.2320 H   0  0  0  0  0  0
  -28.7533  -15.8525   20.7196 H   0  0  0  0  0  0
  -28.4668  -18.9707   17.6451 H   0  0  0  0  0  0
  1 25  1  0  0  0
  1 30  2  0  0  0
  1 85  1  0  0  0
  2  3  1  0  0  0
  2 25  1  0  0  0
  2 87  1  0  0  0
  2 88  1  0  0  0
  3  4  1  0  0  0
  3 89  1  0  0  0
  3 90  1  0  0  0
  4  5  1  0  0  0
  4 91  1  0  0  0
  4 92  1  0  0  0
  5  6  1  0  0  0
  5 26  1  0  0  0
  5 93  1  0  0  0
  6 25  1  0  0  0
  6 94  1  0  0  0
  6 95  1  0  0  0
  7  8  2  0  0  0
  7 26  1  0  0  0
  7 29  1  0  0  0
  8  9  1  0  0  0
  8 22  1  0  0  0
  9 10  1  0  0  0
  9 27  2  0  0  0
 10 11  2  0  0  0
 10 15  1  0  0  0
 11 12  1  0  0  0
 11 96  1  0  0  0
 12 13  2  0  0  0
 12 97  1  0  0  0
 13 14  1  0  0  0
 13 31  1  0  0  0
 14 15  2  0  0  0
 14 98  1  0  0  0
 15 99  1  0  0  0
 16 17  2  0  0  0
 16 21  1  0  0  0
 16 31  1  0  0  0
 17 18  1  0  0  0
 17100  1  0  0  0
 18 19  2  0  0  0
 18101  1  0  0  0
 19 20  1  0  0  0
 19 24  1  0  0  0
 20 21  2  0  0  0
 20102  1  0  0  0
 21 23  1  0  0  0
 22 28  1  0  0  0
 22 32  2  0  0  0
 26 27  1  0  0  0
 28103  1  0  0  0
 28104  1  0  0  0
 29105  1  0  0  0
 29106  1  0  0  0
 33 34  1  0  0  0
 33 66  1  0  0  0
 33 70  2  0  0  0
 34 36  1  0  0  0
 34 59  1  0  0  0
 34107  1  0  0  0
 35 44  2  0  0  0
 35 45  1  0  0  0
 35 68  1  0  0  0
 36 56  1  0  0  0
 36108  1  0  0  0
 37 39  1  0  0  0
 37 47  1  0  0  0
 37 66  1  0  0  0
 37109  1  0  0  0
 38 43  2  0  0  0
 38 46  1  0  0  0
 38 47  1  0  0  0
 39 64  1  0  0  0
 39 67  2  0  0  0
 40 52  1  0  0  0
 40 53  2  0  0  0
 40 58  1  0  0  0
 41110  1  0  0  0
 41111  1  0  0  0
 41112  1  0  0  0
 41 48  1  0  0  0
 42 43  1  0  0  0
 42 66  1  0  0  0
 42113  1  0  0  0
 42114  1  0  0  0
 43 44  1  0  0  0
 44115  1  0  0  0
 45 46  2  0  0  0
 45116  1  0  0  0
 46117  1  0  0  0
 47118  1  0  0  0
 47119  1  0  0  0
 48 56  1  0  0  0
 48 65  1  0  0  0
 48120  1  0  0  0
 49 50  1  0  0  0
 49 53  1  0  0  0
 49 64  1  0  0  0
 49121  1  0  0  0
 50 51  1  0  0  0
 50122  1  0  0  0
 50123  1  0  0  0
 51 52  1  0  0  0
 51124  1  0  0  0
 51125  1  0  0  0
 52126  1  0  0  0
 52127  1  0  0  0
 53 54  1  0  0  0
 54 55  2  0  0  0
 54128  1  0  0  0
 55 57  1  0  0  0
 55129  1  0  0  0
 56 69  2  0  0  0
 57 58  2  0  0  0
 57130  1  0  0  0
 58131  1  0  0  0
 59 60  1  0  0  0
 59 61  1  0  0  0
 59 62  1  0  0  0
 60132  1  0  0  0
 60133  1  0  0  0
 60134  1  0  0  0
 61135  1  0  0  0
 61136  1  0  0  0
 61137  1  0  0  0
 62138  1  0  0  0
 62139  1  0  0  0
 62140  1  0  0  0
 63 65  1  0  0  0
 63141  1  0  0  0
 63142  1  0  0  0
 63143  1  0  0  0
 64144  1  0  0  0
 65145  1  0  0  0
 68 83  1  0  0  0
 71 72  2  0  0  0
 71 74  1  0  0  0
 71146  1  0  0  0
 72 76  1  0  0  0
 72147  1  0  0  0
 73 75  1  0  0  0
 73 76  2  0  0  0
 73148  1  0  0  0
 74 75  2  0  0  0
 74 79  1  0  0  0
 75 77  1  0  0  0
 76 83  1  0  0  0
 77 78  1  0  0  0
 77149  1  0  0  0
 77150  1  0  0  0
 78 80  1  0  0  0
 78151  1  0  0  0
 78152  1  0  0  0
 79 80  1  0  0  0
 79 86  1  0  0  0
 79153  1  0  0  0
 80 85  1  0  0  0
 80154  1  0  0  0
 81 84  1  0  0  0
 81155  1  0  0  0
 81156  1  0  0  0
 81157  1  0  0  0
 82158  1  0  0  0
 82159  1  0  0  0
 82160  1  0  0  0
 82 86  1  0  0  0
 83161  1  0  0  0
 83162  1  0  0  0
 84 86  1  0  0  0
 84163  1  0  0  0
 84164  1  0  0  0
 85165  1  0  0  0
 86166  1  0  0  0
M  CHG  1  86   1
M  ISO  4   1 100  68 101  83 101  85 100
M  END
> <chiral flag>
0

> <version>
0

> <s_m_source_file>
/data/baiqing/PycharmProjects/Reinvent-master-3.2/result/LINK_invent/BTK/process_docking_weight1_custom_sum_contain_oxygen_bond_distance_aromatic_linkinvent_7_9_3/rearranged_h_0175.sdf

> <i_m_source_file_index>
19

> <r_mmod_Potential_Energy-OPLS-2005>
365.001831054688

> <r_mmod_Stretch_Energy-OPLS-2005>
228.12092590332

> <r_mmod_Bend_Energy-OPLS-2005>
248.698852539062

> <r_mmod_Torsional_Energy-OPLS-2005>
286.037353515625

> <r_mmod_Improper_Torsional_Energy-OPLS-2005>
7.24389791488647

> <r_mmod_Van_der_Waal_Energy-OPLS-2005>
121.03540802002

> <r_mmod_Electrostatic_Energy-OPLS-2005>
-269.51708984375

> <r_mmod_Solvation_Energy-OPLS-2005>
-447.319274902344

> <b_mmod_Minimization_Converged-OPLS-2005>
0

> <r_mmod_RMS_Derivative-OPLS-2005>
2.34973430633545

$$$$
19
                    3D
 Structure written by MMmdl.
166176  0  0  1  0            999 V2000
  -30.7337  -14.5251   20.4391 C   0  0  0  0  0  0
  -30.3935  -12.3109   19.4327 C   0  0  0  0  0  0
  -29.4792  -12.4853   18.2051 C   0  0  0  0  0  0
  -28.0060  -12.3501   18.6263 C   0  0  0  0  0  0
  -27.6488  -13.2230   19.8599 C   0  0  2  0  0  0
  -28.7027  -13.0967   20.9833 C   0  0  0  0  0  0
  -25.2542  -13.8189   20.5696 C   0  0  0  0  0  0
  -24.1832  -13.0452   20.9190 C   0  0  0  0  0  0
  -24.6407  -11.6914   20.8770 C   0  0  0  0  0  0
  -23.9071  -10.4296   21.0415 C   0  0  0  0  0  0
  -24.3614   -9.4210   21.9201 C   0  0  0  0  0  0
  -23.6293   -8.2246   22.0762 C   0  0  0  0  0  0
  -22.4280   -8.0279   21.3557 C   0  0  0  0  0  0
  -21.9930   -9.0234   20.4633 C   0  0  0  0  0  0
  -22.7250  -10.2122   20.3052 C   0  0  0  0  0  0
  -21.6855   -6.0743   22.5279 C   0  0  0  0  0  0
  -21.4003   -6.5644   23.8213 C   0  0  0  0  0  0
  -21.3665   -5.6798   24.9176 C   0  0  0  0  0  0
  -21.6051   -4.3060   24.7232 C   0  0  0  0  0  0
  -21.8822   -3.8148   23.4354 C   0  0  0  0  0  0
  -21.9189   -4.6961   22.3404 C   0  0  0  0  0  0
  -22.7839  -13.5210   21.1845 C   0  0  0  0  0  0
  -22.1667   -4.2136   21.0974 F   0  0  0  0  0  0
  -21.5634   -3.4544   25.7746 F   0  0  0  0  0  0
  -30.0210  -13.3623   20.3963 N   0  0  0  0  0  0
  -26.2979  -12.9389   20.3361 N   0  0  0  0  0  0
  -25.9343  -11.6531   20.5814 N   0  0  0  0  0  0
  -22.0500  -12.8157   22.0357 N   0  0  0  0  0  0
  -25.4258  -15.1919   20.4082 N   0  0  0  0  0  0
  -31.9370  -14.5241   20.1699 O   0  0  0  0  0  0
  -21.6652   -6.8875   21.4235 O   0  0  0  0  0  0
  -22.3530  -14.5532   20.6711 O   0  0  0  0  0  0
  -24.6215  -31.8614   23.2071 C   0  0  0  0  0  0
  -25.9073  -32.4800   23.8412 C   0  0  1  0  0  0
  -27.2424  -27.3882   20.1156 C   0  0  0  0  0  0
  -25.5897  -33.8589   24.2359 N   0  0  0  0  0  0
  -23.4139  -30.4827   21.5495 C   0  0  2  0  0  0
  -24.8680  -28.9416   20.1167 C   0  0  0  0  0  0
  -22.7449  -29.4628   22.5005 C   0  0  0  0  0  0
  -18.0260  -28.1412   22.8502 C   0  0  0  0  0  0
  -24.1463  -36.7292   23.2647 C   0  0  0  0  0  0
  -25.9463  -30.8198   21.3602 C   0  0  0  0  0  0
  -26.0299  -29.4483   20.7120 C   0  0  0  0  0  0
  -27.2262  -28.6812   20.7032 C   0  0  0  0  0  0
  -26.0652  -26.9108   19.5036 C   0  0  0  0  0  0
  -24.8831  -27.6753   19.5043 C   0  0  0  0  0  0
  -23.6265  -29.8076   20.1691 C   0  0  0  0  0  0
  -25.4086  -36.3091   24.0349 C   0  0  1  0  0  0
  -20.5864  -28.3697   23.1306 C   0  0  2  0  0  0
  -20.6782  -26.9441   22.5390 C   0  0  0  0  0  0
  -19.5743  -26.6422   21.5206 C   0  0  0  0  0  0
  -18.1916  -26.7966   22.1621 C   0  0  0  0  0  0
  -19.1521  -28.8884   23.2902 C   0  0  0  0  0  0
  -18.9443  -30.1481   23.8927 C   0  0  0  0  0  0
  -17.6444  -30.6620   24.0580 C   0  0  0  0  0  0
  -25.9023  -34.9458   23.5159 C   0  0  0  0  0  0
  -16.5338  -29.9109   23.6349 C   0  0  0  0  0  0
  -16.7245  -28.6523   23.0380 C   0  0  0  0  0  0
  -26.4531  -31.6568   25.0718 C   0  0  0  0  0  0
  -25.3785  -31.3483   26.1418 C   0  0  0  0  0  0
  -27.0495  -30.3089   24.6018 C   0  0  0  0  0  0
  -27.6086  -32.4311   25.7502 C   0  0  0  0  0  0
  -27.5561  -37.1784   24.8477 C   0  0  0  0  0  0
  -21.4173  -29.3044   22.3721 N   0  0  0  0  0  0
  -26.4268  -37.3781   23.9439 N   0  0  0  0  0  0
  -24.6810  -31.0685   22.0998 N   0  0  0  0  0  0
  -23.4185  -28.8154   23.3058 O   0  0  0  0  0  0
  -28.3701  -26.5788   20.1258 O   0  0  0  0  0  0
  -26.5580  -34.8931   22.4717 O   0  0  0  0  0  0
  -23.5382  -32.1369   23.7409 O   0  0  0  0  0  0
  -30.1097  -18.1932   20.7818 C   0  0  0  0  0  0
  -30.7251  -19.4278   20.4109 C   0  0  0  0  0  0
  -31.7083  -19.3981   19.4350 C   0  0  0  0  0  0
  -31.9709  -18.2305   18.7216 C   0  0  0  0  0  0
  -30.5125  -16.9923   20.1093 C   0  0  0  0  0  0
  -32.5184  -20.6636   19.4094 C   0  0  0  0  0  0
  -32.1594  -21.2693   20.7786 C   0  0  0  0  0  0
  -27.6243  -22.8410   20.2602 C   0  0  0  0  0  0
  -28.3948  -21.5092   20.0949 C   0  0  0  0  0  0
  -29.8982  -23.2620   20.7217 C   0  0  0  0  0  0
  -30.6856  -20.8383   21.0404 C   0  0  1  0  0  0
  -28.6580  -23.9825   20.1384 C   0  0  2  0  0  0
  -33.0083  -18.2174   17.6186 C   0  0  0  0  0  0
  -28.2241  -25.3211   20.8511 C   0  0  0  0  0  0
  -31.3535  -17.0750   19.0367 N   0  0  0  0  0  0
  -30.0545  -15.6981   20.5758 N   0  0  0  0  0  0
  -29.8234  -21.8250   20.2976 N   0  3  1  0  0  0
  -31.4378  -12.3543   19.1241 H   0  0  0  0  0  0
  -30.2545  -11.3211   19.8724 H   0  0  0  0  0  0
  -29.7140  -11.7490   17.4358 H   0  0  0  0  0  0
  -29.6434  -13.4654   17.7522 H   0  0  0  0  0  0
  -27.8248  -11.2979   18.8506 H   0  0  0  0  0  0
  -27.3475  -12.5945   17.7916 H   0  0  0  0  0  0
  -27.6648  -14.2561   19.5145 H   0  0  0  0  0  0
  -28.6859  -12.0958   21.4190 H   0  0  0  0  0  0
  -28.4903  -13.7864   21.8009 H   0  0  0  0  0  0
  -25.2750   -9.5688   22.4790 H   0  0  0  0  0  0
  -23.9988   -7.4648   22.7505 H   0  0  0  0  0  0
  -21.0865   -8.8753   19.8931 H   0  0  0  0  0  0
  -22.3708  -10.9666   19.6148 H   0  0  0  0  0  0
  -21.1995   -7.6153   23.9692 H   0  0  0  0  0  0
  -21.1489   -6.0545   25.9072 H   0  0  0  0  0  0
  -22.0600   -2.7608   23.2863 H   0  0  0  0  0  0
  -22.4152  -11.9793   22.4668 H   0  0  0  0  0  0
  -21.1103  -13.1127   22.2569 H   0  0  0  0  0  0
  -24.6557  -15.8458   20.5010 H   0  0  0  0  0  0
  -26.2773  -15.6251   20.0755 H   0  0  0  0  0  0
  -26.7119  -32.5544   23.1164 H   0  0  0  0  0  0
  -25.0060  -33.9705   25.0527 H   0  0  0  0  0  0
  -22.7055  -31.3012   21.4052 H   0  0  0  0  0  0
  -23.3753  -35.9598   23.3281 H   0  0  0  0  0  0
  -24.3556  -36.8939   22.2072 H   0  0  0  0  0  0
  -23.7164  -37.6454   23.6714 H   0  0  0  0  0  0
  -26.0396  -31.5739   20.5790 H   0  0  0  0  0  0
  -26.8419  -30.9002   21.9641 H   0  0  0  0  0  0
  -28.1257  -29.0589   21.1715 H   0  0  0  0  0  0
  -26.0662  -25.9367   19.0338 H   0  0  0  0  0  0
  -23.9915  -27.2814   19.0383 H   0  0  0  0  0  0
  -23.7331  -30.5781   19.4069 H   0  0  0  0  0  0
  -22.7547  -29.2206   19.8780 H   0  0  0  0  0  0
  -25.1247  -36.1957   25.0835 H   0  0  0  0  0  0
  -20.9937  -28.3285   24.1437 H   0  0  0  0  0  0
  -20.5770  -26.2290   23.3565 H   0  0  0  0  0  0
  -21.6642  -26.7555   22.1132 H   0  0  0  0  0  0
  -19.6920  -25.6346   21.1209 H   0  0  0  0  0  0
  -19.6663  -27.3261   20.6762 H   0  0  0  0  0  0
  -17.4187  -26.6739   21.4018 H   0  0  0  0  0  0
  -18.0291  -26.0102   22.9000 H   0  0  0  0  0  0
  -19.7914  -30.7278   24.2338 H   0  0  0  0  0  0
  -17.5001  -31.6294   24.5188 H   0  0  0  0  0  0
  -15.5346  -30.3026   23.7673 H   0  0  0  0  0  0
  -15.8635  -28.0828   22.7139 H   0  0  0  0  0  0
  -24.6077  -30.6744   25.7657 H   0  0  0  0  0  0
  -24.8814  -32.2522   26.4946 H   0  0  0  0  0  0
  -25.8151  -30.8586   27.0132 H   0  0  0  0  0  0
  -26.3057  -29.6652   24.1294 H   0  0  0  0  0  0
  -27.4653  -29.7473   25.4400 H   0  0  0  0  0  0
  -27.8688  -30.4574   23.8967 H   0  0  0  0  0  0
  -27.2788  -33.3718   26.1926 H   0  0  0  0  0  0
  -28.3987  -32.6644   25.0355 H   0  0  0  0  0  0
  -28.0664  -31.8493   26.5508 H   0  0  0  0  0  0
  -28.2509  -38.0150   24.7646 H   0  0  0  0  0  0
  -28.1112  -36.2672   24.6203 H   0  0  0  0  0  0
  -27.2269  -37.1303   25.8866 H   0  0  0  0  0  0
  -20.9385  -29.8698   21.6856 H   0  0  0  0  0  0
  -26.0147  -38.2839   24.1489 H   0  0  0  0  0  0
  -29.4256  -18.1479   21.6192 H   0  0  0  0  0  0
  -32.1895  -21.2826   18.5722 H   0  0  0  0  0  0
  -33.5898  -20.4828   19.3129 H   0  0  0  0  0  0
  -32.3961  -22.3297   20.8601 H   0  0  0  0  0  0
  -32.7885  -20.7797   21.5247 H   0  0  0  0  0  0
  -27.1817  -22.8582   21.2573 H   0  0  0  0  0  0
  -26.8081  -22.9371   19.5439 H   0  0  0  0  0  0
  -28.2842  -21.1223   19.0803 H   0  0  0  0  0  0
  -28.0260  -20.7368   20.7729 H   0  0  0  0  0  0
  -29.8794  -23.3082   21.8115 H   0  0  0  0  0  0
  -30.8101  -23.7569   20.3852 H   0  0  0  0  0  0
  -30.4557  -20.8016   22.1068 H   0  0  0  0  0  0
  -28.8440  -24.1773   19.0797 H   0  0  0  0  0  0
  -32.7649  -18.9757   16.8738 H   0  0  0  0  0  0
  -33.0703  -17.2506   17.1199 H   0  0  0  0  0  0
  -33.9904  -18.4562   18.0254 H   0  0  0  0  0  0
  -28.7893  -25.4308   21.7777 H   0  0  0  0  0  0
  -27.1930  -25.2001   21.1884 H   0  0  0  0  0  0
  -29.1143  -15.6466   20.9337 H   0  0  0  0  0  0
  -30.2057  -21.7857   19.3653 H   0  0  0  0  0  0
  1 25  1  0  0  0
  1 30  2  0  0  0
  1 86  1  0  0  0
  2  3  1  0  0  0
  2 25  1  0  0  0
  2 88  1  0  0  0
  2 89  1  0  0  0
  3  4  1  0  0  0
  3 90  1  0  0  0
  3 91  1  0  0  0
  4  5  1  0  0  0
  4 92  1  0  0  0
  4 93  1  0  0  0
  5  6  1  0  0  0
  5 26  1  0  0  0
  5 94  1  0  0  0
  6 25  1  0  0  0
  6 95  1  0  0  0
  6 96  1  0  0  0
  7  8  2  0  0  0
  7 26  1  0  0  0
  7 29  1  0  0  0
  8  9  1  0  0  0
  8 22  1  0  0  0
  9 10  1  0  0  0
  9 27  2  0  0  0
 10 11  2  0  0  0
 10 15  1  0  0  0
 11 12  1  0  0  0
 11 97  1  0  0  0
 12 13  2  0  0  0
 12 98  1  0  0  0
 13 14  1  0  0  0
 13 31  1  0  0  0
 14 15  2  0  0  0
 14 99  1  0  0  0
 15100  1  0  0  0
 16 17  2  0  0  0
 16 21  1  0  0  0
 16 31  1  0  0  0
 17 18  1  0  0  0
 17101  1  0  0  0
 18 19  2  0  0  0
 18102  1  0  0  0
 19 20  1  0  0  0
 19 24  1  0  0  0
 20 21  2  0  0  0
 20103  1  0  0  0
 21 23  1  0  0  0
 22 28  1  0  0  0
 22 32  2  0  0  0
 26 27  1  0  0  0
 28104  1  0  0  0
 28105  1  0  0  0
 29106  1  0  0  0
 29107  1  0  0  0
 33 34  1  0  0  0
 33 66  1  0  0  0
 33 70  2  0  0  0
 34 36  1  0  0  0
 34 59  1  0  0  0
 34108  1  0  0  0
 35 44  2  0  0  0
 35 45  1  0  0  0
 35 68  1  0  0  0
 36 56  1  0  0  0
 36109  1  0  0  0
 37 39  1  0  0  0
 37 47  1  0  0  0
 37 66  1  0  0  0
 37110  1  0  0  0
 38 43  2  0  0  0
 38 46  1  0  0  0
 38 47  1  0  0  0
 39 64  1  0  0  0
 39 67  2  0  0  0
 40 52  1  0  0  0
 40 53  2  0  0  0
 40 58  1  0  0  0
 41111  1  0  0  0
 41112  1  0  0  0
 41113  1  0  0  0
 41 48  1  0  0  0
 42 43  1  0  0  0
 42 66  1  0  0  0
 42114  1  0  0  0
 42115  1  0  0  0
 43 44  1  0  0  0
 44116  1  0  0  0
 45 46  2  0  0  0
 45117  1  0  0  0
 46118  1  0  0  0
 47119  1  0  0  0
 47120  1  0  0  0
 48 56  1  0  0  0
 48 65  1  0  0  0
 48121  1  0  0  0
 49 50  1  0  0  0
 49 53  1  0  0  0
 49 64  1  0  0  0
 49122  1  0  0  0
 50 51  1  0  0  0
 50123  1  0  0  0
 50124  1  0  0  0
 51 52  1  0  0  0
 51125  1  0  0  0
 51126  1  0  0  0
 52127  1  0  0  0
 52128  1  0  0  0
 53 54  1  0  0  0
 54 55  2  0  0  0
 54129  1  0  0  0
 55 57  1  0  0  0
 55130  1  0  0  0
 56 69  2  0  0  0
 57 58  2  0  0  0
 57131  1  0  0  0
 58132  1  0  0  0
 59 60  1  0  0  0
 59 61  1  0  0  0
 59 62  1  0  0  0
 60133  1  0  0  0
 60134  1  0  0  0
 60135  1  0  0  0
 61136  1  0  0  0
 61137  1  0  0  0
 61138  1  0  0  0
 62139  1  0  0  0
 62140  1  0  0  0
 62141  1  0  0  0
 63 65  1  0  0  0
 63142  1  0  0  0
 63143  1  0  0  0
 63144  1  0  0  0
 64145  1  0  0  0
 65146  1  0  0  0
 68 84  1  0  0  0
 71 72  2  0  0  0
 71 75  1  0  0  0
 71147  1  0  0  0
 72 73  1  0  0  0
 72 81  1  0  0  0
 73 74  2  0  0  0
 73 76  1  0  0  0
 74 83  1  0  0  0
 74 85  1  0  0  0
 75 85  2  0  0  0
 75 86  1  0  0  0
 76 77  1  0  0  0
 76148  1  0  0  0
 76149  1  0  0  0
 77150  1  0  0  0
 77151  1  0  0  0
 77 81  1  0  0  0
 78 79  1  0  0  0
 78 82  1  0  0  0
 78152  1  0  0  0
 78153  1  0  0  0
 79154  1  0  0  0
 79155  1  0  0  0
 79 87  1  0  0  0
 80 82  1  0  0  0
 80 87  1  0  0  0
 80156  1  0  0  0
 80157  1  0  0  0
 81 87  1  0  0  0
 81158  1  0  0  0
 82 84  1  0  0  0
 82159  1  0  0  0
 83160  1  0  0  0
 83161  1  0  0  0
 83162  1  0  0  0
 84163  1  0  0  0
 84164  1  0  0  0
 86165  1  0  0  0
 87166  1  0  0  0
M  CHG  1  87   1
M  ISO  4   1 100  68 101  84 101  86 100
M  END
> <chiral flag>
0

> <version>
0

> <s_m_source_file>
/data/baiqing/PycharmProjects/Reinvent-master-3.2/result/LINK_invent/BTK/process_docking_weight1_custom_sum_contain_oxygen_bond_distance_aromatic_linkinvent_7_9_3/rearranged_h_0175.sdf

> <i_m_source_file_index>
20

> <r_mmod_Potential_Energy-OPLS-2005>
-151.786117553711

> <r_mmod_Stretch_Energy-OPLS-2005>
55.9741821289062

> <r_mmod_Bend_Energy-OPLS-2005>
210.004699707031

> <r_mmod_Torsional_Energy-OPLS-2005>
330.372009277344

> <r_mmod_Improper_Torsional_Energy-OPLS-2005>
6.83480215072632

> <r_mmod_Van_der_Waal_Energy-OPLS-2005>
147.766784667969

> <r_mmod_Electrostatic_Energy-OPLS-2005>
-455.149444580078

> <r_mmod_Solvation_Energy-OPLS-2005>
-480.348236083984

> <b_mmod_Minimization_Converged-OPLS-2005>
0

> <r_mmod_RMS_Derivative-OPLS-2005>
4.47409629821777

$$$$
20
                    3D
 Structure written by MMmdl.
174183  0  0  1  0            999 V2000
  -30.6880  -14.4729   20.5779 C   0  0  0  0  0  0
  -30.4317  -12.3137   19.4029 C   0  0  0  0  0  0
  -29.4961  -12.5048   18.1906 C   0  0  0  0  0  0
  -28.0180  -12.3551   18.6077 C   0  0  0  0  0  0
  -27.6610  -13.1968   19.8612 C   0  0  2  0  0  0
  -28.7023  -12.9718   20.9788 C   0  0  0  0  0  0
  -25.2641  -13.8124   20.5650 C   0  0  0  0  0  0
  -24.1890  -13.0424   20.9154 C   0  0  0  0  0  0
  -24.6403  -11.6879   20.8681 C   0  0  0  0  0  0
  -23.9068  -10.4287   21.0394 C   0  0  0  0  0  0
  -24.3626   -9.4204   21.9168 C   0  0  0  0  0  0
  -23.6296   -8.2247   22.0781 C   0  0  0  0  0  0
  -22.4273   -8.0300   21.3578 C   0  0  0  0  0  0
  -21.9915   -9.0265   20.4658 C   0  0  0  0  0  0
  -22.7249  -10.2138   20.3042 C   0  0  0  0  0  0
  -21.6870   -6.0717   22.5284 C   0  0  0  0  0  0
  -21.4014   -6.5626   23.8215 C   0  0  0  0  0  0
  -21.3665   -5.6790   24.9196 C   0  0  0  0  0  0
  -21.6047   -4.3056   24.7240 C   0  0  0  0  0  0
  -21.8823   -3.8136   23.4371 C   0  0  0  0  0  0
  -21.9214   -4.6941   22.3412 C   0  0  0  0  0  0
  -22.7917  -13.5221   21.1823 C   0  0  0  0  0  0
  -22.1672   -4.2118   21.0993 F   0  0  0  0  0  0
  -21.5644   -3.4537   25.7753 F   0  0  0  0  0  0
  -30.0308  -13.2913   20.4248 N   0  0  0  0  0  0
  -26.3041  -12.9276   20.3261 N   0  0  0  0  0  0
  -25.9320  -11.6454   20.5684 N   0  0  0  0  0  0
  -22.0548  -12.8228   22.0368 N   0  0  0  0  0  0
  -25.4389  -15.1846   20.4048 N   0  0  0  0  0  0
  -31.8353  -14.6572   20.1723 O   0  0  0  0  0  0
  -21.6674   -6.8865   21.4252 O   0  0  0  0  0  0
  -22.3593  -14.5537   20.6697 O   0  0  0  0  0  0
  -24.6167  -31.8657   23.2066 C   0  0  0  0  0  0
  -25.9045  -32.4807   23.8384 C   0  0  1  0  0  0
  -27.2517  -27.4305   20.1067 C   0  0  0  0  0  0
  -25.5904  -33.8602   24.2319 N   0  0  0  0  0  0
  -23.4056  -30.4856   21.5481 C   0  0  2  0  0  0
  -24.8552  -28.9485   20.1150 C   0  0  0  0  0  0
  -22.7406  -29.4642   22.4994 C   0  0  0  0  0  0
  -18.0270  -28.1355   22.8492 C   0  0  0  0  0  0
  -24.1485  -36.7310   23.2641 C   0  0  0  0  0  0
  -25.9323  -30.8323   21.3567 C   0  0  0  0  0  0
  -26.0144  -29.4645   20.7074 C   0  0  0  0  0  0
  -27.2151  -28.7166   20.6932 C   0  0  0  0  0  0
  -26.0755  -26.9331   19.4988 C   0  0  0  0  0  0
  -24.8837  -27.6845   19.5024 C   0  0  0  0  0  0
  -23.6103  -29.8067   20.1674 C   0  0  0  0  0  0
  -25.4099  -36.3096   24.0342 C   0  0  1  0  0  0
  -20.5864  -28.3653   23.1309 C   0  0  2  0  0  0
  -20.6760  -26.9390   22.5418 C   0  0  0  0  0  0
  -19.5731  -26.6367   21.5217 C   0  0  0  0  0  0
  -18.1910  -26.7903   22.1629 C   0  0  0  0  0  0
  -19.1519  -28.8821   23.2892 C   0  0  0  0  0  0
  -18.9447  -30.1438   23.8896 C   0  0  0  0  0  0
  -17.6450  -30.6576   24.0554 C   0  0  0  0  0  0
  -25.9031  -34.9464   23.5123 C   0  0  0  0  0  0
  -16.5346  -29.9070   23.6333 C   0  0  0  0  0  0
  -16.7261  -28.6481   23.0362 C   0  0  0  0  0  0
  -26.4470  -31.6584   25.0717 C   0  0  0  0  0  0
  -25.3744  -31.3703   26.1476 C   0  0  0  0  0  0
  -27.0302  -30.3027   24.6094 C   0  0  0  0  0  0
  -27.6044  -32.4302   25.7483 C   0  0  0  0  0  0
  -27.5575  -37.1803   24.8461 C   0  0  0  0  0  0
  -21.4139  -29.3025   22.3712 N   0  0  0  0  0  0
  -26.4282  -37.3789   23.9413 N   0  0  0  0  0  0
  -24.6695  -31.0757   22.0971 N   0  0  0  0  0  0
  -23.4160  -28.8176   23.3050 O   0  0  0  0  0  0
  -28.4288  -26.7042   20.1078 O   0  0  0  0  0  0
  -26.5596  -34.8922   22.4686 O   0  0  0  0  0  0
  -23.5344  -32.1408   23.7461 O   0  0  0  0  0  0
  -30.2513  -19.8568   20.5473 C   0  0  0  0  0  0
  -30.0551  -20.9634   19.6730 C   0  0  0  0  0  0
  -31.0696  -18.7579   20.1607 C   0  0  0  0  0  0
  -30.7484  -20.9342   18.4389 C   0  0  0  0  0  0
  -31.6289  -18.8089   18.8619 C   0  0  0  0  0  0
  -29.6576  -22.4779   16.5926 C   0  0  0  0  0  0
  -30.9070  -21.9007   15.9875 C   0  0  0  0  0  0
  -30.8191  -22.0994   17.4877 C   0  0  0  0  0  0
  -32.4797  -17.7027   18.2661 C   0  0  0  0  0  0
  -32.2278  -18.2241   22.3376 C   0  0  0  0  0  0
  -27.7160  -21.5801   20.4860 C   0  0  0  0  0  0
  -30.2467  -16.7695   21.6970 C   0  0  0  0  0  0
  -29.6783  -24.5653   20.4400 C   0  0  0  0  0  0
  -28.3392  -25.3417   20.5750 C   0  0  0  0  0  0
  -31.4384  -17.6269   21.1544 C   0  0  1  0  0  0
  -29.0793  -22.1190   20.0128 C   0  0  1  0  0  0
  -31.4905  -19.8756   18.0523 N   0  0  0  0  0  0
  -29.9302  -15.4559   21.1019 N   0  0  0  0  0  0
  -29.6239  -23.1513   20.9424 N   0  3  0  0  0  0
  -31.4755  -12.4243   19.1038 H   0  0  0  0  0  0
  -30.3455  -11.3000   19.7966 H   0  0  0  0  0  0
  -29.7299  -11.7866   17.4014 H   0  0  0  0  0  0
  -29.6570  -13.4912   17.7560 H   0  0  0  0  0  0
  -27.8348  -11.3006   18.8122 H   0  0  0  0  0  0
  -27.3663  -12.6220   17.7750 H   0  0  0  0  0  0
  -27.7020  -14.2439   19.5602 H   0  0  0  0  0  0
  -28.6879  -11.9301   21.3088 H   0  0  0  0  0  0
  -28.4550  -13.5537   21.8687 H   0  0  0  0  0  0
  -25.2771   -9.5678   22.4730 H   0  0  0  0  0  0
  -24.0006   -7.4645   22.7521 H   0  0  0  0  0  0
  -21.0860   -8.8782   19.8941 H   0  0  0  0  0  0
  -22.3727  -10.9681   19.6145 H   0  0  0  0  0  0
  -21.1989   -7.6127   23.9708 H   0  0  0  0  0  0
  -21.1481   -6.0523   25.9099 H   0  0  0  0  0  0
  -22.0596   -2.7600   23.2894 H   0  0  0  0  0  0
  -22.4162  -11.9880   22.4710 H   0  0  0  0  0  0
  -21.1145  -13.1250   22.2495 H   0  0  0  0  0  0
  -24.6761  -15.8422   20.5233 H   0  0  0  0  0  0
  -26.2800  -15.6197   20.0464 H   0  0  0  0  0  0
  -26.7122  -32.5516   23.1152 H   0  0  0  0  0  0
  -25.0072  -33.9770   25.0477 H   0  0  0  0  0  0
  -22.6960  -31.3032   21.4041 H   0  0  0  0  0  0
  -23.3750  -35.9642   23.3281 H   0  0  0  0  0  0
  -24.3589  -36.8947   22.2064 H   0  0  0  0  0  0
  -23.7235  -37.6505   23.6667 H   0  0  0  0  0  0
  -26.0386  -31.5966   20.5856 H   0  0  0  0  0  0
  -26.8232  -30.8908   21.9719 H   0  0  0  0  0  0
  -28.1112  -29.1226   21.1425 H   0  0  0  0  0  0
  -26.0685  -25.9761   18.9992 H   0  0  0  0  0  0
  -23.9975  -27.2856   19.0280 H   0  0  0  0  0  0
  -23.6991  -30.5715   19.3968 H   0  0  0  0  0  0
  -22.7410  -29.2090   19.8871 H   0  0  0  0  0  0
  -25.1272  -36.1962   25.0838 H   0  0  0  0  0  0
  -20.9962  -28.3238   24.1429 H   0  0  0  0  0  0
  -20.5666  -26.2278   23.3608 H   0  0  0  0  0  0
  -21.6625  -26.7424   22.1217 H   0  0  0  0  0  0
  -19.6900  -25.6277   21.1235 H   0  0  0  0  0  0
  -19.6671  -27.3183   20.6745 H   0  0  0  0  0  0
  -17.4192  -26.6665   21.4024 H   0  0  0  0  0  0
  -18.0304  -26.0040   22.9013 H   0  0  0  0  0  0
  -19.7927  -30.7247   24.2266 H   0  0  0  0  0  0
  -17.5010  -31.6265   24.5136 H   0  0  0  0  0  0
  -15.5344  -30.2967   23.7655 H   0  0  0  0  0  0
  -15.8663  -28.0795   22.7082 H   0  0  0  0  0  0
  -24.5886  -30.7084   25.7811 H   0  0  0  0  0  0
  -24.8987  -32.2876   26.4956 H   0  0  0  0  0  0
  -25.8118  -30.8839   27.0209 H   0  0  0  0  0  0
  -26.2849  -29.6781   24.1163 H   0  0  0  0  0  0
  -27.4074  -29.7266   25.4553 H   0  0  0  0  0  0
  -27.8671  -30.4330   23.9233 H   0  0  0  0  0  0
  -27.2663  -33.3602   26.2062 H   0  0  0  0  0  0
  -28.3861  -32.6859   25.0319 H   0  0  0  0  0  0
  -28.0693  -31.8421   26.5407 H   0  0  0  0  0  0
  -28.2578  -38.0115   24.7529 H   0  0  0  0  0  0
  -28.1083  -36.2647   24.6252 H   0  0  0  0  0  0
  -27.2300  -37.1411   25.8867 H   0  0  0  0  0  0
  -20.9297  -29.8762   21.6942 H   0  0  0  0  0  0
  -26.0163  -38.2860   24.1441 H   0  0  0  0  0  0
  -29.7937  -19.8609   21.5262 H   0  0  0  0  0  0
  -28.7731  -21.8446   16.5893 H   0  0  0  0  0  0
  -29.4776  -23.5385   16.4333 H   0  0  0  0  0  0
  -31.5552  -22.5775   15.4327 H   0  0  0  0  0  0
  -30.8423  -20.8882   15.5970 H   0  0  0  0  0  0
  -31.4186  -22.9032   17.9136 H   0  0  0  0  0  0
  -33.4904  -17.7431   18.6718 H   0  0  0  0  0  0
  -32.5547  -17.8012   17.1811 H   0  0  0  0  0  0
  -32.0462  -16.7236   18.4631 H   0  0  0  0  0  0
  -33.1209  -18.7510   21.9971 H   0  0  0  0  0  0
  -32.5714  -17.4423   23.0166 H   0  0  0  0  0  0
  -31.6263  -18.9203   22.9244 H   0  0  0  0  0  0
  -27.2972  -20.9092   19.7334 H   0  0  0  0  0  0
  -26.9912  -22.3826   20.6320 H   0  0  0  0  0  0
  -27.7810  -21.0237   21.4204 H   0  0  0  0  0  0
  -29.3348  -17.3662   21.7197 H   0  0  0  0  0  0
  -30.4356  -16.5205   22.7422 H   0  0  0  0  0  0
  -30.4297  -25.0925   21.0282 H   0  0  0  0  0  0
  -30.0411  -24.5906   19.4119 H   0  0  0  0  0  0
  -28.0425  -25.3637   21.6255 H   0  0  0  0  0  0
  -27.5671  -24.7954   20.0400 H   0  0  0  0  0  0
  -32.1632  -16.9732   20.6830 H   0  0  0  0  0  0
  -28.8511  -22.6321   19.0828 H   0  0  0  0  0  0
  -28.9894  -15.1446   21.2888 H   0  0  0  0  0  0
  -29.0918  -23.1374   21.8016 H   0  0  0  0  0  0
  -30.5622  -22.8778   21.1890 H   0  0  0  0  0  0
  1 25  1  0  0  0
  1 30  2  0  0  0
  1 88  1  0  0  0
  2  3  1  0  0  0
  2 25  1  0  0  0
  2 90  1  0  0  0
  2 91  1  0  0  0
  3  4  1  0  0  0
  3 92  1  0  0  0
  3 93  1  0  0  0
  4  5  1  0  0  0
  4 94  1  0  0  0
  4 95  1  0  0  0
  5  6  1  0  0  0
  5 26  1  0  0  0
  5 96  1  0  0  0
  6 25  1  0  0  0
  6 97  1  0  0  0
  6 98  1  0  0  0
  7  8  2  0  0  0
  7 26  1  0  0  0
  7 29  1  0  0  0
  8  9  1  0  0  0
  8 22  1  0  0  0
  9 10  1  0  0  0
  9 27  2  0  0  0
 10 11  2  0  0  0
 10 15  1  0  0  0
 11 12  1  0  0  0
 11 99  1  0  0  0
 12 13  2  0  0  0
 12100  1  0  0  0
 13 14  1  0  0  0
 13 31  1  0  0  0
 14 15  2  0  0  0
 14101  1  0  0  0
 15102  1  0  0  0
 16 17  2  0  0  0
 16 21  1  0  0  0
 16 31  1  0  0  0
 17 18  1  0  0  0
 17103  1  0  0  0
 18 19  2  0  0  0
 18104  1  0  0  0
 19 20  1  0  0  0
 19 24  1  0  0  0
 20 21  2  0  0  0
 20105  1  0  0  0
 21 23  1  0  0  0
 22 28  1  0  0  0
 22 32  2  0  0  0
 26 27  1  0  0  0
 28106  1  0  0  0
 28107  1  0  0  0
 29108  1  0  0  0
 29109  1  0  0  0
 33 34  1  0  0  0
 33 66  1  0  0  0
 33 70  2  0  0  0
 34 36  1  0  0  0
 34 59  1  0  0  0
 34110  1  0  0  0
 35 44  2  0  0  0
 35 45  1  0  0  0
 35 68  1  0  0  0
 36 56  1  0  0  0
 36111  1  0  0  0
 37 39  1  0  0  0
 37 47  1  0  0  0
 37 66  1  0  0  0
 37112  1  0  0  0
 38 43  2  0  0  0
 38 46  1  0  0  0
 38 47  1  0  0  0
 39 64  1  0  0  0
 39 67  2  0  0  0
 40 52  1  0  0  0
 40 53  2  0  0  0
 40 58  1  0  0  0
 41113  1  0  0  0
 41114  1  0  0  0
 41115  1  0  0  0
 41 48  1  0  0  0
 42 43  1  0  0  0
 42 66  1  0  0  0
 42116  1  0  0  0
 42117  1  0  0  0
 43 44  1  0  0  0
 44118  1  0  0  0
 45 46  2  0  0  0
 45119  1  0  0  0
 46120  1  0  0  0
 47121  1  0  0  0
 47122  1  0  0  0
 48 56  1  0  0  0
 48 65  1  0  0  0
 48123  1  0  0  0
 49 50  1  0  0  0
 49 53  1  0  0  0
 49 64  1  0  0  0
 49124  1  0  0  0
 50 51  1  0  0  0
 50125  1  0  0  0
 50126  1  0  0  0
 51 52  1  0  0  0
 51127  1  0  0  0
 51128  1  0  0  0
 52129  1  0  0  0
 52130  1  0  0  0
 53 54  1  0  0  0
 54 55  2  0  0  0
 54131  1  0  0  0
 55 57  1  0  0  0
 55132  1  0  0  0
 56 69  2  0  0  0
 57 58  2  0  0  0
 57133  1  0  0  0
 58134  1  0  0  0
 59 60  1  0  0  0
 59 61  1  0  0  0
 59 62  1  0  0  0
 60135  1  0  0  0
 60136  1  0  0  0
 60137  1  0  0  0
 61138  1  0  0  0
 61139  1  0  0  0
 61140  1  0  0  0
 62141  1  0  0  0
 62142  1  0  0  0
 62143  1  0  0  0
 63 65  1  0  0  0
 63144  1  0  0  0
 63145  1  0  0  0
 63146  1  0  0  0
 64147  1  0  0  0
 65148  1  0  0  0
 68 84  1  0  0  0
 71 72  2  0  0  0
 71 73  1  0  0  0
 71149  1  0  0  0
 72 74  1  0  0  0
 72 86  1  0  0  0
 73 75  2  0  0  0
 73 85  1  0  0  0
 74 87  2  0  0  0
 74 78  1  0  0  0
 75 79  1  0  0  0
 75 87  1  0  0  0
 76 77  1  0  0  0
 76 78  1  0  0  0
 76150  1  0  0  0
 76151  1  0  0  0
 77 78  1  0  0  0
 77152  1  0  0  0
 77153  1  0  0  0
 78154  1  0  0  0
 79155  1  0  0  0
 79156  1  0  0  0
 79157  1  0  0  0
 80158  1  0  0  0
 80159  1  0  0  0
 80160  1  0  0  0
 80 85  1  0  0  0
 81161  1  0  0  0
 81162  1  0  0  0
 81163  1  0  0  0
 81 86  1  0  0  0
 82 85  1  0  0  0
 82 88  1  0  0  0
 82164  1  0  0  0
 82165  1  0  0  0
 83 84  1  0  0  0
 83 89  1  0  0  0
 83166  1  0  0  0
 83167  1  0  0  0
 84168  1  0  0  0
 84169  1  0  0  0
 85170  1  0  0  0
 86 89  1  0  0  0
 86171  1  0  0  0
 88172  1  0  0  0
 89173  1  0  0  0
 89174  1  0  0  0
M  CHG  1  89   1
M  ISO  4   1 100  68 101  84 101  88 100
M  END
> <chiral flag>
0

> <version>
0

> <s_m_source_file>
/data/baiqing/PycharmProjects/Reinvent-master-3.2/result/LINK_invent/BTK/process_docking_weight1_custom_sum_contain_oxygen_bond_distance_aromatic_linkinvent_7_9_3/rearranged_h_0175.sdf

> <i_m_source_file_index>
21

> <r_mmod_Potential_Energy-OPLS-2005>
-322.163330078125

> <r_mmod_Stretch_Energy-OPLS-2005>
45.871654510498

> <r_mmod_Bend_Energy-OPLS-2005>
127.083457946777

> <r_mmod_Torsional_Energy-OPLS-2005>
270.642272949219

> <r_mmod_Improper_Torsional_Energy-OPLS-2005>
4.03712129592896

> <r_mmod_Van_der_Waal_Energy-OPLS-2005>
149.176681518555

> <r_mmod_Electrostatic_Energy-OPLS-2005>
-482.465026855469

> <r_mmod_Solvation_Energy-OPLS-2005>
-450.560485839844

> <b_mmod_Minimization_Converged-OPLS-2005>
0

> <r_mmod_RMS_Derivative-OPLS-2005>
4.58652114868164

$$$$
21
                    3D
 Structure written by MMmdl.
160170  0  0  1  0            999 V2000
  -30.5556  -14.9996   20.4357 C   0  0  0  0  0  0
  -30.4421  -12.6254   19.5228 C   0  0  0  0  0  0
  -29.5359  -12.5547   18.2737 C   0  0  0  0  0  0
  -28.0674  -12.3342   18.6803 C   0  0  0  0  0  0
  -27.6316  -13.2678   19.8397 C   0  0  2  0  0  0
  -28.6703  -13.3219   20.9810 C   0  0  0  0  0  0
  -25.2438  -13.8261   20.5662 C   0  0  0  0  0  0
  -24.1782  -13.0458   20.9206 C   0  0  0  0  0  0
  -24.6440  -11.6966   20.8755 C   0  0  0  0  0  0
  -23.9131  -10.4331   21.0415 C   0  0  0  0  0  0
  -24.3683   -9.4244   21.9192 C   0  0  0  0  0  0
  -23.6348   -8.2282   22.0749 C   0  0  0  0  0  0
  -22.4327   -8.0327   21.3546 C   0  0  0  0  0  0
  -21.9971   -9.0303   20.4657 C   0  0  0  0  0  0
  -22.7299  -10.2176   20.3072 C   0  0  0  0  0  0
  -21.6863   -6.0758   22.5270 C   0  0  0  0  0  0
  -21.4043   -6.5646   23.8209 C   0  0  0  0  0  0
  -21.3686   -5.6785   24.9158 C   0  0  0  0  0  0
  -21.6037   -4.3045   24.7197 C   0  0  0  0  0  0
  -21.8824   -3.8154   23.4319 C   0  0  0  0  0  0
  -21.9201   -4.6985   22.3385 C   0  0  0  0  0  0
  -22.7785  -13.5213   21.1829 C   0  0  0  0  0  0
  -22.1641   -4.2181   21.0951 F   0  0  0  0  0  0
  -21.5640   -3.4521   25.7691 F   0  0  0  0  0  0
  -29.9496  -13.7362   20.3935 N   0  0  0  0  0  0
  -26.2914  -12.9554   20.3237 N   0  0  0  0  0  0
  -25.9379  -11.6662   20.5737 N   0  0  0  0  0  0
  -22.0422  -12.8241   22.0420 N   0  0  0  0  0  0
  -25.4001  -15.2002   20.4067 N   0  0  0  0  0  0
  -31.7474  -15.0404   20.1182 O   0  0  0  0  0  0
  -21.6681   -6.8929   21.4241 O   0  0  0  0  0  0
  -22.3466  -14.5493   20.6625 O   0  0  0  0  0  0
  -24.6488  -31.8385   23.1870 C   0  0  0  0  0  0
  -25.9238  -32.4693   23.8280 C   0  0  1  0  0  0
  -27.2385  -27.1090   20.1754 C   0  0  0  0  0  0
  -25.5976  -33.8504   24.2195 N   0  0  0  0  0  0
  -23.4543  -30.4499   21.5329 C   0  0  2  0  0  0
  -24.9080  -28.8620   20.1247 C   0  0  0  0  0  0
  -22.7605  -29.4493   22.4897 C   0  0  0  0  0  0
  -18.0296  -28.1393   22.8471 C   0  0  0  0  0  0
  -24.1492  -36.7243   23.2645 C   0  0  0  0  0  0
  -26.0131  -30.7040   21.3861 C   0  0  0  0  0  0
  -26.0875  -29.3114   20.7323 C   0  0  0  0  0  0
  -27.2539  -28.4534   20.7313 C   0  0  0  0  0  0
  -26.0290  -26.7538   19.5434 C   0  0  0  0  0  0
  -24.8921  -27.5984   19.5158 C   0  0  0  0  0  0
  -23.6854  -29.7671   20.1575 C   0  0  0  0  0  0
  -25.4128  -36.3036   24.0327 C   0  0  1  0  0  0
  -20.5925  -28.3734   23.1244 C   0  0  2  0  0  0
  -20.6798  -26.9436   22.5418 C   0  0  0  0  0  0
  -19.5760  -26.6361   21.5231 C   0  0  0  0  0  0
  -18.1935  -26.7922   22.1619 C   0  0  0  0  0  0
  -19.1563  -28.8873   23.2844 C   0  0  0  0  0  0
  -18.9468  -30.1473   23.8869 C   0  0  0  0  0  0
  -17.6468  -30.6604   24.0538 C   0  0  0  0  0  0
  -25.9081  -34.9416   23.5071 C   0  0  0  0  0  0
  -16.5357  -29.9082   23.6347 C   0  0  0  0  0  0
  -16.7274  -28.6500   23.0350 C   0  0  0  0  0  0
  -26.4522  -31.6575   25.0745 C   0  0  0  0  0  0
  -25.3678  -31.3773   26.1435 C   0  0  0  0  0  0
  -27.0401  -30.2967   24.6356 C   0  0  0  0  0  0
  -27.6044  -32.4332   25.7529 C   0  0  0  0  0  0
  -27.5583  -37.1791   24.8466 C   0  0  0  0  0  0
  -21.4298  -29.3045   22.3635 N   0  0  0  0  0  0
  -26.4291  -37.3755   23.9419 N   0  0  0  0  0  0
  -24.7252  -31.0200   22.0915 N   0  0  0  0  0  0
  -23.4208  -28.8052   23.3083 O   0  0  0  0  0  0
  -28.3231  -26.1497   20.1688 O   0  0  0  0  0  0
  -26.5636  -34.8922   22.4639 O   0  0  0  0  0  0
  -23.5585  -32.1291   23.7042 O   0  0  0  0  0  0
  -29.1467  -21.7062   22.0589 C   0  0  0  0  0  0
  -29.3051  -20.4344   20.0546 C   0  0  0  0  0  0
  -29.0482  -21.7806   20.6511 C   0  0  0  0  0  0
  -29.4589  -20.4964   22.7366 C   0  0  0  0  0  0
  -29.5904  -19.1732   20.7901 C   0  0  0  0  0  0
  -29.4621  -19.4089   25.1661 C   0  0  0  0  0  0
  -28.7093  -20.7101   25.2522 C   0  0  0  0  0  0
  -28.4712  -23.1648   18.4156 C   0  0  0  0  0  0
  -29.8713  -23.5254   18.8066 C   0  0  0  0  0  0
  -29.7934  -20.5343   24.2080 C   0  0  0  0  0  0
  -28.8356  -23.2584   19.8890 C   0  0  0  0  0  0
  -30.1341  -17.7117   20.1912 C   0  0  0  0  0  0
  -28.2084  -24.6443   20.6171 C   0  0  0  0  0  0
  -29.6541  -19.2856   22.1349 N   0  0  0  0  0  0
  -29.8151  -16.2090   20.6145 N   0  0  0  0  0  0
  -31.4775  -12.7733   19.2145 H   0  0  0  0  0  0
  -30.4311  -11.6807   20.0675 H   0  0  0  0  0  0
  -29.8675  -11.7584   17.6074 H   0  0  0  0  0  0
  -29.6227  -13.4839   17.7065 H   0  0  0  0  0  0
  -27.9625  -11.2932   18.9810 H   0  0  0  0  0  0
  -27.4156  -12.4694   17.8160 H   0  0  0  0  0  0
  -27.5915  -14.2680   19.4022 H   0  0  0  0  0  0
  -28.7626  -12.3592   21.4866 H   0  0  0  0  0  0
  -28.3628  -14.0448   21.7395 H   0  0  0  0  0  0
  -25.2843   -9.5691   22.4749 H   0  0  0  0  0  0
  -24.0035   -7.4697   22.7486 H   0  0  0  0  0  0
  -21.0888   -8.8884   19.8998 H   0  0  0  0  0  0
  -22.3808  -10.9729   19.6180 H   0  0  0  0  0  0
  -21.2057   -7.6162   23.9724 H   0  0  0  0  0  0
  -21.1482   -6.0500   25.9057 H   0  0  0  0  0  0
  -22.0589   -2.7625   23.2784 H   0  0  0  0  0  0
  -22.4029  -11.9941   22.4888 H   0  0  0  0  0  0
  -21.1054  -13.1308   22.2638 H   0  0  0  0  0  0
  -24.6181  -15.8372   20.5143 H   0  0  0  0  0  0
  -26.2354  -15.6609   20.0700 H   0  0  0  0  0  0
  -26.7317  -32.5308   23.1025 H   0  0  0  0  0  0
  -25.0112  -33.9583   25.0331 H   0  0  0  0  0  0
  -22.7657  -31.2806   21.3701 H   0  0  0  0  0  0
  -23.3777  -35.9550   23.3275 H   0  0  0  0  0  0
  -24.3584  -36.8891   22.2067 H   0  0  0  0  0  0
  -23.7239  -37.6437   23.6682 H   0  0  0  0  0  0
  -26.1748  -31.4531   20.6099 H   0  0  0  0  0  0
  -26.8790  -30.7579   22.0367 H   0  0  0  0  0  0
  -28.1612  -28.7977   21.2085 H   0  0  0  0  0  0
  -25.9548  -25.7801   19.0791 H   0  0  0  0  0  0
  -23.9906  -27.2447   19.0382 H   0  0  0  0  0  0
  -23.8439  -30.5351   19.3993 H   0  0  0  0  0  0
  -22.7986  -29.2133   19.8410 H   0  0  0  0  0  0
  -25.1328  -36.1845   25.0818 H   0  0  0  0  0  0
  -20.9998  -28.3289   24.1367 H   0  0  0  0  0  0
  -20.5711  -26.2333   23.3627 H   0  0  0  0  0  0
  -21.6664  -26.7459   22.1198 H   0  0  0  0  0  0
  -19.6944  -25.6256   21.1282 H   0  0  0  0  0  0
  -19.6712  -27.3138   20.6726 H   0  0  0  0  0  0
  -17.4237  -26.6665   21.3998 H   0  0  0  0  0  0
  -18.0331  -26.0076   22.9019 H   0  0  0  0  0  0
  -19.7940  -30.7290   24.2250 H   0  0  0  0  0  0
  -17.5013  -31.6280   24.5141 H   0  0  0  0  0  0
  -15.5358  -30.2946   23.7736 H   0  0  0  0  0  0
  -15.8662  -28.0805   22.7095 H   0  0  0  0  0  0
  -24.5806  -30.7200   25.7720 H   0  0  0  0  0  0
  -24.8912  -32.2953   26.4875 H   0  0  0  0  0  0
  -25.7890  -30.8890   27.0228 H   0  0  0  0  0  0
  -26.3025  -29.6677   24.1347 H   0  0  0  0  0  0
  -27.3995  -29.7313   25.4968 H   0  0  0  0  0  0
  -27.8940  -30.4220   23.9694 H   0  0  0  0  0  0
  -27.2631  -33.3624   26.2115 H   0  0  0  0  0  0
  -28.3841  -32.6909   25.0347 H   0  0  0  0  0  0
  -28.0747  -31.8476   26.5456 H   0  0  0  0  0  0
  -28.2594  -38.0087   24.7537 H   0  0  0  0  0  0
  -28.1070  -36.2634   24.6241 H   0  0  0  0  0  0
  -27.2309  -37.1402   25.8864 H   0  0  0  0  0  0
  -20.9566  -29.8741   21.6773 H   0  0  0  0  0  0
  -26.0143  -38.2824   24.1385 H   0  0  0  0  0  0
  -29.0616  -22.6113   22.6437 H   0  0  0  0  0  0
  -29.3343  -20.3792   18.9780 H   0  0  0  0  0  0
  -28.9327  -18.5436   24.7750 H   0  0  0  0  0  0
  -30.1588  -19.2034   25.9749 H   0  0  0  0  0  0
  -28.9204  -21.3464   26.1116 H   0  0  0  0  0  0
  -27.6697  -20.6854   24.9337 H   0  0  0  0  0  0
  -28.2918  -22.1791   17.9949 H   0  0  0  0  0  0
  -27.8719  -23.9636   17.9809 H   0  0  0  0  0  0
  -30.1796  -24.5522   18.6185 H   0  0  0  0  0  0
  -30.6386  -22.7754   18.6227 H   0  0  0  0  0  0
  -30.7357  -21.0599   24.3638 H   0  0  0  0  0  0
  -31.2184  -17.7915   20.2878 H   0  0  0  0  0  0
  -29.9533  -17.7569   19.1190 H   0  0  0  0  0  0
  -28.6606  -24.6624   21.6086 H   0  0  0  0  0  0
  -27.1562  -24.4366   20.8006 H   0  0  0  0  0  0
  -28.8564  -16.0663   20.8948 H   0  0  0  0  0  0
  1 25  1  0  0  0
  1 30  2  0  0  0
  1 85  1  0  0  0
  2  3  1  0  0  0
  2 25  1  0  0  0
  2 86  1  0  0  0
  2 87  1  0  0  0
  3  4  1  0  0  0
  3 88  1  0  0  0
  3 89  1  0  0  0
  4  5  1  0  0  0
  4 90  1  0  0  0
  4 91  1  0  0  0
  5  6  1  0  0  0
  5 26  1  0  0  0
  5 92  1  0  0  0
  6 25  1  0  0  0
  6 93  1  0  0  0
  6 94  1  0  0  0
  7  8  2  0  0  0
  7 26  1  0  0  0
  7 29  1  0  0  0
  8  9  1  0  0  0
  8 22  1  0  0  0
  9 10  1  0  0  0
  9 27  2  0  0  0
 10 11  2  0  0  0
 10 15  1  0  0  0
 11 12  1  0  0  0
 11 95  1  0  0  0
 12 13  2  0  0  0
 12 96  1  0  0  0
 13 14  1  0  0  0
 13 31  1  0  0  0
 14 15  2  0  0  0
 14 97  1  0  0  0
 15 98  1  0  0  0
 16 17  2  0  0  0
 16 21  1  0  0  0
 16 31  1  0  0  0
 17 18  1  0  0  0
 17 99  1  0  0  0
 18 19  2  0  0  0
 18100  1  0  0  0
 19 20  1  0  0  0
 19 24  1  0  0  0
 20 21  2  0  0  0
 20101  1  0  0  0
 21 23  1  0  0  0
 22 28  1  0  0  0
 22 32  2  0  0  0
 26 27  1  0  0  0
 28102  1  0  0  0
 28103  1  0  0  0
 29104  1  0  0  0
 29105  1  0  0  0
 33 34  1  0  0  0
 33 66  1  0  0  0
 33 70  2  0  0  0
 34 36  1  0  0  0
 34 59  1  0  0  0
 34106  1  0  0  0
 35 44  2  0  0  0
 35 45  1  0  0  0
 35 68  1  0  0  0
 36 56  1  0  0  0
 36107  1  0  0  0
 37 39  1  0  0  0
 37 47  1  0  0  0
 37 66  1  0  0  0
 37108  1  0  0  0
 38 43  2  0  0  0
 38 46  1  0  0  0
 38 47  1  0  0  0
 39 64  1  0  0  0
 39 67  2  0  0  0
 40 52  1  0  0  0
 40 53  2  0  0  0
 40 58  1  0  0  0
 41109  1  0  0  0
 41110  1  0  0  0
 41111  1  0  0  0
 41 48  1  0  0  0
 42 43  1  0  0  0
 42 66  1  0  0  0
 42112  1  0  0  0
 42113  1  0  0  0
 43 44  1  0  0  0
 44114  1  0  0  0
 45 46  2  0  0  0
 45115  1  0  0  0
 46116  1  0  0  0
 47117  1  0  0  0
 47118  1  0  0  0
 48 56  1  0  0  0
 48 65  1  0  0  0
 48119  1  0  0  0
 49 50  1  0  0  0
 49 53  1  0  0  0
 49 64  1  0  0  0
 49120  1  0  0  0
 50 51  1  0  0  0
 50121  1  0  0  0
 50122  1  0  0  0
 51 52  1  0  0  0
 51123  1  0  0  0
 51124  1  0  0  0
 52125  1  0  0  0
 52126  1  0  0  0
 53 54  1  0  0  0
 54 55  2  0  0  0
 54127  1  0  0  0
 55 57  1  0  0  0
 55128  1  0  0  0
 56 69  2  0  0  0
 57 58  2  0  0  0
 57129  1  0  0  0
 58130  1  0  0  0
 59 60  1  0  0  0
 59 61  1  0  0  0
 59 62  1  0  0  0
 60131  1  0  0  0
 60132  1  0  0  0
 60133  1  0  0  0
 61134  1  0  0  0
 61135  1  0  0  0
 61136  1  0  0  0
 62137  1  0  0  0
 62138  1  0  0  0
 62139  1  0  0  0
 63 65  1  0  0  0
 63140  1  0  0  0
 63141  1  0  0  0
 63142  1  0  0  0
 64143  1  0  0  0
 65144  1  0  0  0
 68 83  1  0  0  0
 71 73  2  0  0  0
 71 74  1  0  0  0
 71145  1  0  0  0
 72 73  1  0  0  0
 72 75  2  0  0  0
 72146  1  0  0  0
 73 81  1  0  0  0
 74 84  2  0  0  0
 74 80  1  0  0  0
 75 82  1  0  0  0
 75 84  1  0  0  0
 76 77  1  0  0  0
 76 80  1  0  0  0
 76147  1  0  0  0
 76148  1  0  0  0
 77 80  1  0  0  0
 77149  1  0  0  0
 77150  1  0  0  0
 78 79  1  0  0  0
 78 81  1  0  0  0
 78151  1  0  0  0
 78152  1  0  0  0
 79 81  1  0  0  0
 79153  1  0  0  0
 79154  1  0  0  0
 80155  1  0  0  0
 81 83  1  0  0  0
 82 85  1  0  0  0
 82156  1  0  0  0
 82157  1  0  0  0
 83158  1  0  0  0
 83159  1  0  0  0
 85160  1  0  0  0
M  ISO  4   1 100  68 101  83 101  85 100
M  END
> <chiral flag>
0

> <version>
0

> <s_m_source_file>
/data/baiqing/PycharmProjects/Reinvent-master-3.2/result/LINK_invent/BTK/process_docking_weight1_custom_sum_contain_oxygen_bond_distance_aromatic_linkinvent_7_9_3/rearranged_h_0175.sdf

> <i_m_source_file_index>
22

> <r_mmod_Potential_Energy-OPLS-2005>
360.721099853516

> <r_mmod_Stretch_Energy-OPLS-2005>
299.374603271484

> <r_mmod_Bend_Energy-OPLS-2005>
276.706878662109

> <r_mmod_Torsional_Energy-OPLS-2005>
286.341033935547

> <r_mmod_Improper_Torsional_Energy-OPLS-2005>
7.58094120025635

> <r_mmod_Van_der_Waal_Energy-OPLS-2005>
122.020439147949

> <r_mmod_Electrostatic_Energy-OPLS-2005>
-624.256652832031

> <r_mmod_Solvation_Energy-OPLS-2005>
-223.385559082031

> <b_mmod_Minimization_Converged-OPLS-2005>
0

> <r_mmod_RMS_Derivative-OPLS-2005>
5.40269470214844

$$$$
22
                    3D
 Structure written by MMmdl.
164174  0  0  1  0            999 V2000
  -30.6076  -14.7765   20.4396 C   0  0  0  0  0  0
  -30.4415  -12.4795   19.4679 C   0  0  0  0  0  0
  -29.5083  -12.4849   18.2363 C   0  0  0  0  0  0
  -28.0383  -12.3078   18.6607 C   0  0  0  0  0  0
  -27.6392  -13.2285   19.8439 C   0  0  2  0  0  0
  -28.6878  -13.1902   20.9771 C   0  0  0  0  0  0
  -25.2482  -13.8177   20.5690 C   0  0  0  0  0  0
  -24.1782  -13.0418   20.9261 C   0  0  0  0  0  0
  -24.6377  -11.6903   20.8776 C   0  0  0  0  0  0
  -23.9036  -10.4293   21.0419 C   0  0  0  0  0  0
  -24.3610   -9.4201   21.9160 C   0  0  0  0  0  0
  -23.6314   -8.2220   22.0711 C   0  0  0  0  0  0
  -22.4280   -8.0272   21.3529 C   0  0  0  0  0  0
  -21.9888   -9.0253   20.4649 C   0  0  0  0  0  0
  -22.7196  -10.2146   20.3079 C   0  0  0  0  0  0
  -21.6860   -6.0726   22.5270 C   0  0  0  0  0  0
  -21.4019   -6.5628   23.8204 C   0  0  0  0  0  0
  -21.3666   -5.6782   24.9170 C   0  0  0  0  0  0
  -21.6050   -4.3039   24.7233 C   0  0  0  0  0  0
  -21.8818   -3.8126   23.4349 C   0  0  0  0  0  0
  -21.9187   -4.6946   22.3405 C   0  0  0  0  0  0
  -22.7797  -13.5193   21.1901 C   0  0  0  0  0  0
  -22.1642   -4.2118   21.0989 F   0  0  0  0  0  0
  -21.5643   -3.4532   25.7752 F   0  0  0  0  0  0
  -29.9827  -13.5501   20.3838 N   0  0  0  0  0  0
  -26.2918  -12.9377   20.3272 N   0  0  0  0  0  0
  -25.9307  -11.6520   20.5784 N   0  0  0  0  0  0
  -22.0398  -12.8184   22.0439 N   0  0  0  0  0  0
  -25.4110  -15.1897   20.4011 N   0  0  0  0  0  0
  -31.8035  -14.8615   20.1489 O   0  0  0  0  0  0
  -21.6648   -6.8864   21.4235 O   0  0  0  0  0  0
  -22.3492  -14.5504   20.6756 O   0  0  0  0  0  0
  -24.6346  -31.8546   23.1952 C   0  0  0  0  0  0
  -25.9175  -32.4729   23.8331 C   0  0  1  0  0  0
  -27.2062  -27.2353   20.1253 C   0  0  0  0  0  0
  -25.5983  -33.8536   24.2257 N   0  0  0  0  0  0
  -23.4302  -30.4802   21.5387 C   0  0  2  0  0  0
  -24.8744  -28.9292   20.1000 C   0  0  0  0  0  0
  -22.7540  -29.4615   22.4883 C   0  0  0  0  0  0
  -18.0314  -28.1381   22.8492 C   0  0  0  0  0  0
  -24.1491  -36.7266   23.2643 C   0  0  0  0  0  0
  -25.9787  -30.7578   21.3818 C   0  0  0  0  0  0
  -26.0459  -29.3793   20.7214 C   0  0  0  0  0  0
  -27.2131  -28.5440   20.7258 C   0  0  0  0  0  0
  -26.0160  -26.8743   19.4521 C   0  0  0  0  0  0
  -24.8661  -27.6872   19.4525 C   0  0  0  0  0  0
  -23.6474  -29.8209   20.1517 C   0  0  0  0  0  0
  -25.4114  -36.3044   24.0327 C   0  0  1  0  0  0
  -20.5925  -28.3701   23.1259 C   0  0  2  0  0  0
  -20.6794  -26.9411   22.5396 C   0  0  0  0  0  0
  -19.5761  -26.6371   21.5214 C   0  0  0  0  0  0
  -18.1941  -26.7931   22.1621 C   0  0  0  0  0  0
  -19.1567  -28.8861   23.2869 C   0  0  0  0  0  0
  -18.9486  -30.1471   23.8867 C   0  0  0  0  0  0
  -17.6480  -30.6578   24.0568 C   0  0  0  0  0  0
  -25.9064  -34.9429   23.5084 C   0  0  0  0  0  0
  -16.5370  -29.9073   23.6336 C   0  0  0  0  0  0
  -16.7302  -28.6495   23.0349 C   0  0  0  0  0  0
  -26.4538  -31.6557   25.0730 C   0  0  0  0  0  0
  -25.3779  -31.3703   26.1458 C   0  0  0  0  0  0
  -27.0394  -30.2963   24.6241 C   0  0  0  0  0  0
  -27.6080  -32.4305   25.7509 C   0  0  0  0  0  0
  -27.5568  -37.1783   24.8472 C   0  0  0  0  0  0
  -21.4235  -29.3047   22.3639 N   0  0  0  0  0  0
  -26.4271  -37.3759   23.9430 N   0  0  0  0  0  0
  -24.7001  -31.0503   22.0931 N   0  0  0  0  0  0
  -23.4247  -28.8154   23.2982 O   0  0  0  0  0  0
  -28.2795  -26.3063   20.2121 O   0  0  0  0  0  0
  -26.5610  -34.8916   22.4633 O   0  0  0  0  0  0
  -23.5497  -32.1375   23.7241 O   0  0  0  0  0  0
  -27.3338  -19.5545   21.9251 C   0  0  0  0  0  0
  -28.2132  -18.4700   21.7218 C   0  0  0  0  0  0
  -27.5307  -20.8159   21.3196 C   0  0  0  0  0  0
  -29.2799  -18.6271   20.8017 C   0  0  0  0  0  0
  -28.7013  -21.0034   20.5471 C   0  0  0  0  0  0
  -27.6583  -17.2441   23.9834 C   0  0  0  0  0  0
  -28.9639  -16.6759   23.4870 C   0  0  0  0  0  0
  -26.2471  -22.6551   22.7082 C   0  0  0  0  0  0
  -25.1628  -21.7446   22.1756 C   0  0  0  0  0  0
  -27.9516  -17.2081   22.4966 C   0  0  0  0  0  0
  -26.4730  -21.8896   21.4247 C   0  0  0  0  0  0
  -30.2395  -17.3935   20.4251 C   0  0  0  0  0  0
  -28.0381  -24.8318   19.9349 C   0  0  0  0  0  0
  -28.9026  -23.6078   20.5805 C   0  0  0  0  0  0
  -29.5109  -19.8993   20.2636 N   0  0  0  0  0  0
  -29.8384  -15.9205   20.5915 N   0  0  0  0  0  0
  -28.9998  -22.2534   19.9192 O   0  0  0  0  0  0
  -31.4770  -12.6219   19.1498 H   0  0  0  0  0  0
  -30.4172  -11.5126   19.9742 H   0  0  0  0  0  0
  -29.7934  -11.6883   17.5486 H   0  0  0  0  0  0
  -29.6221  -13.4190   17.6854 H   0  0  0  0  0  0
  -27.9108  -11.2649   18.9530 H   0  0  0  0  0  0
  -27.3717  -12.4675   17.8119 H   0  0  0  0  0  0
  -27.6266  -14.2417   19.4411 H   0  0  0  0  0  0
  -28.7409  -12.1968   21.4252 H   0  0  0  0  0  0
  -28.4227  -13.8785   21.7809 H   0  0  0  0  0  0
  -25.2757   -9.5674   22.4732 H   0  0  0  0  0  0
  -24.0035   -7.4593   22.7402 H   0  0  0  0  0  0
  -21.0789   -8.8772   19.9002 H   0  0  0  0  0  0
  -22.3586  -10.9705   19.6238 H   0  0  0  0  0  0
  -21.2003   -7.6129   23.9697 H   0  0  0  0  0  0
  -21.1495   -6.0508   25.9076 H   0  0  0  0  0  0
  -22.0597   -2.7590   23.2857 H   0  0  0  0  0  0
  -22.3980  -11.9834   22.4830 H   0  0  0  0  0  0
  -21.0997  -13.1188   22.2602 H   0  0  0  0  0  0
  -24.6303  -15.8302   20.5018 H   0  0  0  0  0  0
  -26.2111  -15.6148   19.9530 H   0  0  0  0  0  0
  -26.7253  -32.5351   23.1095 H   0  0  0  0  0  0
  -25.0212  -33.9677   25.0465 H   0  0  0  0  0  0
  -22.7252  -31.3016   21.3961 H   0  0  0  0  0  0
  -23.3746  -35.9599   23.3285 H   0  0  0  0  0  0
  -24.3600  -36.8892   22.2058 H   0  0  0  0  0  0
  -23.7242  -37.6464   23.6677 H   0  0  0  0  0  0
  -26.1290  -31.5209   20.6167 H   0  0  0  0  0  0
  -26.8529  -30.7989   22.0189 H   0  0  0  0  0  0
  -28.1018  -28.8823   21.2377 H   0  0  0  0  0  0
  -25.9327  -25.9362   18.9258 H   0  0  0  0  0  0
  -23.9757  -27.3459   18.9431 H   0  0  0  0  0  0
  -23.7747  -30.6015   19.4001 H   0  0  0  0  0  0
  -22.7624  -29.2604   19.8422 H   0  0  0  0  0  0
  -25.1291  -36.1865   25.0811 H   0  0  0  0  0  0
  -21.0029  -28.3251   24.1381 H   0  0  0  0  0  0
  -20.5688  -26.2317   23.3604 H   0  0  0  0  0  0
  -21.6656  -26.7411   22.1189 H   0  0  0  0  0  0
  -19.6904  -25.6281   21.1235 H   0  0  0  0  0  0
  -19.6676  -27.3194   20.6754 H   0  0  0  0  0  0
  -17.4214  -26.6728   21.4002 H   0  0  0  0  0  0
  -18.0308  -26.0056   22.8997 H   0  0  0  0  0  0
  -19.7956  -30.7326   24.2172 H   0  0  0  0  0  0
  -17.5022  -31.6240   24.5200 H   0  0  0  0  0  0
  -15.5365  -30.2963   23.7662 H   0  0  0  0  0  0
  -15.8714  -28.0807   22.7057 H   0  0  0  0  0  0
  -24.5991  -30.6992   25.7823 H   0  0  0  0  0  0
  -24.8940  -32.2870   26.4826 H   0  0  0  0  0  0
  -25.8131  -30.8944   27.0257 H   0  0  0  0  0  0
  -26.2985  -29.6677   24.1279 H   0  0  0  0  0  0
  -27.4096  -29.7250   25.4765 H   0  0  0  0  0  0
  -27.8873  -30.4227   23.9505 H   0  0  0  0  0  0
  -27.2679  -33.3632   26.2026 H   0  0  0  0  0  0
  -28.3933  -32.6798   25.0364 H   0  0  0  0  0  0
  -28.0721  -31.8470   26.5466 H   0  0  0  0  0  0
  -28.2570  -38.0094   24.7512 H   0  0  0  0  0  0
  -28.1069  -36.2617   24.6282 H   0  0  0  0  0  0
  -27.2307  -37.1413   25.8882 H   0  0  0  0  0  0
  -20.9407  -29.8776   21.6853 H   0  0  0  0  0  0
  -26.0123  -38.2821   24.1426 H   0  0  0  0  0  0
  -26.4780  -19.3926   22.5592 H   0  0  0  0  0  0
  -27.7054  -18.1947   24.5124 H   0  0  0  0  0  0
  -26.9399  -16.5288   24.3809 H   0  0  0  0  0  0
  -29.0887  -15.5975   23.5610 H   0  0  0  0  0  0
  -29.8698  -17.2578   23.6397 H   0  0  0  0  0  0
  -26.7673  -22.3238   23.6045 H   0  0  0  0  0  0
  -26.0833  -23.7284   22.6345 H   0  0  0  0  0  0
  -24.2864  -22.2216   21.7407 H   0  0  0  0  0  0
  -24.9463  -20.8525   22.7575 H   0  0  0  0  0  0
  -27.3845  -16.4932   21.9055 H   0  0  0  0  0  0
  -26.3838  -22.4161   20.4767 H   0  0  0  0  0  0
  -31.1617  -17.5378   20.9893 H   0  0  0  0  0  0
  -30.5205  -17.5169   19.3777 H   0  0  0  0  0  0
  -28.0973  -24.7211   18.8530 H   0  0  0  0  0  0
  -27.0071  -24.6000   20.1968 H   0  0  0  0  0  0
  -28.6418  -23.4894   21.6314 H   0  0  0  0  0  0
  -29.9329  -23.9565   20.6188 H   0  0  0  0  0  0
  -28.8559  -15.7736   20.7529 H   0  0  0  0  0  0
  1 25  1  0  0  0
  1 30  2  0  0  0
  1 86  1  0  0  0
  2  3  1  0  0  0
  2 25  1  0  0  0
  2 88  1  0  0  0
  2 89  1  0  0  0
  3  4  1  0  0  0
  3 90  1  0  0  0
  3 91  1  0  0  0
  4  5  1  0  0  0
  4 92  1  0  0  0
  4 93  1  0  0  0
  5  6  1  0  0  0
  5 26  1  0  0  0
  5 94  1  0  0  0
  6 25  1  0  0  0
  6 95  1  0  0  0
  6 96  1  0  0  0
  7  8  2  0  0  0
  7 26  1  0  0  0
  7 29  1  0  0  0
  8  9  1  0  0  0
  8 22  1  0  0  0
  9 10  1  0  0  0
  9 27  2  0  0  0
 10 11  2  0  0  0
 10 15  1  0  0  0
 11 12  1  0  0  0
 11 97  1  0  0  0
 12 13  2  0  0  0
 12 98  1  0  0  0
 13 14  1  0  0  0
 13 31  1  0  0  0
 14 15  2  0  0  0
 14 99  1  0  0  0
 15100  1  0  0  0
 16 17  2  0  0  0
 16 21  1  0  0  0
 16 31  1  0  0  0
 17 18  1  0  0  0
 17101  1  0  0  0
 18 19  2  0  0  0
 18102  1  0  0  0
 19 20  1  0  0  0
 19 24  1  0  0  0
 20 21  2  0  0  0
 20103  1  0  0  0
 21 23  1  0  0  0
 22 28  1  0  0  0
 22 32  2  0  0  0
 26 27  1  0  0  0
 28104  1  0  0  0
 28105  1  0  0  0
 29106  1  0  0  0
 29107  1  0  0  0
 33 34  1  0  0  0
 33 66  1  0  0  0
 33 70  2  0  0  0
 34 36  1  0  0  0
 34 59  1  0  0  0
 34108  1  0  0  0
 35 44  2  0  0  0
 35 45  1  0  0  0
 35 68  1  0  0  0
 36 56  1  0  0  0
 36109  1  0  0  0
 37 39  1  0  0  0
 37 47  1  0  0  0
 37 66  1  0  0  0
 37110  1  0  0  0
 38 43  2  0  0  0
 38 46  1  0  0  0
 38 47  1  0  0  0
 39 64  1  0  0  0
 39 67  2  0  0  0
 40 52  1  0  0  0
 40 53  2  0  0  0
 40 58  1  0  0  0
 41111  1  0  0  0
 41112  1  0  0  0
 41113  1  0  0  0
 41 48  1  0  0  0
 42 43  1  0  0  0
 42 66  1  0  0  0
 42114  1  0  0  0
 42115  1  0  0  0
 43 44  1  0  0  0
 44116  1  0  0  0
 45 46  2  0  0  0
 45117  1  0  0  0
 46118  1  0  0  0
 47119  1  0  0  0
 47120  1  0  0  0
 48 56  1  0  0  0
 48 65  1  0  0  0
 48121  1  0  0  0
 49 50  1  0  0  0
 49 53  1  0  0  0
 49 64  1  0  0  0
 49122  1  0  0  0
 50 51  1  0  0  0
 50123  1  0  0  0
 50124  1  0  0  0
 51 52  1  0  0  0
 51125  1  0  0  0
 51126  1  0  0  0
 52127  1  0  0  0
 52128  1  0  0  0
 53 54  1  0  0  0
 54 55  2  0  0  0
 54129  1  0  0  0
 55 57  1  0  0  0
 55130  1  0  0  0
 56 69  2  0  0  0
 57 58  2  0  0  0
 57131  1  0  0  0
 58132  1  0  0  0
 59 60  1  0  0  0
 59 61  1  0  0  0
 59 62  1  0  0  0
 60133  1  0  0  0
 60134  1  0  0  0
 60135  1  0  0  0
 61136  1  0  0  0
 61137  1  0  0  0
 61138  1  0  0  0
 62139  1  0  0  0
 62140  1  0  0  0
 62141  1  0  0  0
 63 65  1  0  0  0
 63142  1  0  0  0
 63143  1  0  0  0
 63144  1  0  0  0
 64145  1  0  0  0
 65146  1  0  0  0
 68 83  1  0  0  0
 71 72  2  0  0  0
 71 73  1  0  0  0
 71147  1  0  0  0
 72 74  1  0  0  0
 72 80  1  0  0  0
 73 75  2  0  0  0
 73 81  1  0  0  0
 74 82  1  0  0  0
 74 85  2  0  0  0
 75 85  1  0  0  0
 75 87  1  0  0  0
 76 77  1  0  0  0
 76 80  1  0  0  0
 76148  1  0  0  0
 76149  1  0  0  0
 77 80  1  0  0  0
 77150  1  0  0  0
 77151  1  0  0  0
 78 79  1  0  0  0
 78 81  1  0  0  0
 78152  1  0  0  0
 78153  1  0  0  0
 79 81  1  0  0  0
 79154  1  0  0  0
 79155  1  0  0  0
 80156  1  0  0  0
 81157  1  0  0  0
 82 86  1  0  0  0
 82158  1  0  0  0
 82159  1  0  0  0
 83 84  1  0  0  0
 83160  1  0  0  0
 83161  1  0  0  0
 84 87  1  0  0  0
 84162  1  0  0  0
 84163  1  0  0  0
 86164  1  0  0  0
M  ISO  4   1 100  68 101  83 101  86 100
M  END
> <chiral flag>
0

> <version>
0

> <s_m_source_file>
/data/baiqing/PycharmProjects/Reinvent-master-3.2/result/LINK_invent/BTK/process_docking_weight1_custom_sum_contain_oxygen_bond_distance_aromatic_linkinvent_7_9_3/rearranged_h_0175.sdf

> <i_m_source_file_index>
23

> <r_mmod_Potential_Energy-OPLS-2005>
22.7149276733398

> <r_mmod_Stretch_Energy-OPLS-2005>
141.187606811523

> <r_mmod_Bend_Energy-OPLS-2005>
189.35563659668

> <r_mmod_Torsional_Energy-OPLS-2005>
282.125244140625

> <r_mmod_Improper_Torsional_Energy-OPLS-2005>
6.49528884887695

> <r_mmod_Van_der_Waal_Energy-OPLS-2005>
134.443771362305

> <r_mmod_Electrostatic_Energy-OPLS-2005>
-617.216064453125

> <r_mmod_Solvation_Energy-OPLS-2005>
-219.491622924805

> <b_mmod_Minimization_Converged-OPLS-2005>
0

> <r_mmod_RMS_Derivative-OPLS-2005>
3.02549433708191

$$$$
23
                    3D
 Structure written by MMmdl.
167177  0  0  1  0            999 V2000
  -30.6275  -14.7758   20.4454 C   0  0  0  0  0  0
  -30.4388  -12.4802   19.4598 C   0  0  0  0  0  0
  -29.5134  -12.5157   18.2243 C   0  0  0  0  0  0
  -28.0339  -12.3486   18.6318 C   0  0  0  0  0  0
  -27.6377  -13.2405   19.8407 C   0  0  2  0  0  0
  -28.6913  -13.1812   20.9676 C   0  0  0  0  0  0
  -25.2521  -13.8225   20.5760 C   0  0  0  0  0  0
  -24.1813  -13.0455   20.9262 C   0  0  0  0  0  0
  -24.6398  -11.6924   20.8717 C   0  0  0  0  0  0
  -23.9059  -10.4299   21.0369 C   0  0  0  0  0  0
  -24.3615   -9.4225   21.9156 C   0  0  0  0  0  0
  -23.6316   -8.2249   22.0728 C   0  0  0  0  0  0
  -22.4284   -8.0285   21.3549 C   0  0  0  0  0  0
  -21.9908   -9.0238   20.4627 C   0  0  0  0  0  0
  -22.7210  -10.2125   20.3039 C   0  0  0  0  0  0
  -21.6854   -6.0747   22.5284 C   0  0  0  0  0  0
  -21.4002   -6.5648   23.8221 C   0  0  0  0  0  0
  -21.3667   -5.6799   24.9188 C   0  0  0  0  0  0
  -21.6055   -4.3063   24.7237 C   0  0  0  0  0  0
  -21.8803   -3.8151   23.4350 C   0  0  0  0  0  0
  -21.9197   -4.6972   22.3409 C   0  0  0  0  0  0
  -22.7807  -13.5226   21.1905 C   0  0  0  0  0  0
  -22.1659   -4.2166   21.0987 F   0  0  0  0  0  0
  -21.5635   -3.4526   25.7748 F   0  0  0  0  0  0
  -29.9860  -13.5549   20.3763 N   0  0  0  0  0  0
  -26.2922  -12.9428   20.3209 N   0  0  0  0  0  0
  -25.9350  -11.6556   20.5700 N   0  0  0  0  0  0
  -22.0470  -12.8198   22.0436 N   0  0  0  0  0  0
  -25.4186  -15.1968   20.4239 N   0  0  0  0  0  0
  -31.8243  -14.8638   20.1575 O   0  0  0  0  0  0
  -21.6648   -6.8876   21.4246 O   0  0  0  0  0  0
  -22.3463  -14.5531   20.6741 O   0  0  0  0  0  0
  -24.6338  -31.8459   23.1807 C   0  0  0  0  0  0
  -25.9117  -32.4698   23.8229 C   0  0  1  0  0  0
  -27.2432  -27.2014   20.1263 C   0  0  0  0  0  0
  -25.5863  -33.8505   24.2146 N   0  0  0  0  0  0
  -23.4362  -30.4678   21.5216 C   0  0  2  0  0  0
  -24.8925  -28.8986   20.1028 C   0  0  0  0  0  0
  -22.7514  -29.4623   22.4797 C   0  0  0  0  0  0
  -18.0327  -28.1413   22.8457 C   0  0  0  0  0  0
  -24.1457  -36.7270   23.2653 C   0  0  0  0  0  0
  -25.9883  -30.7432   21.3657 C   0  0  0  0  0  0
  -26.0646  -29.3534   20.7165 C   0  0  0  0  0  0
  -27.2326  -28.5183   20.7198 C   0  0  0  0  0  0
  -26.0317  -26.8185   19.4921 C   0  0  0  0  0  0
  -24.8828  -27.6360   19.4852 C   0  0  0  0  0  0
  -23.6617  -29.7876   20.1421 C   0  0  0  0  0  0
  -25.4083  -36.3020   24.0338 C   0  0  1  0  0  0
  -20.5899  -28.3730   23.1213 C   0  0  2  0  0  0
  -20.6790  -26.9447   22.5371 C   0  0  0  0  0  0
  -19.5768  -26.6353   21.5163 C   0  0  0  0  0  0
  -18.1958  -26.7943   22.1566 C   0  0  0  0  0  0
  -19.1576  -28.8863   23.2835 C   0  0  0  0  0  0
  -18.9513  -30.1452   23.8901 C   0  0  0  0  0  0
  -17.6539  -30.6644   24.0558 C   0  0  0  0  0  0
  -25.9051  -34.9424   23.5042 C   0  0  0  0  0  0
  -16.5412  -29.9115   23.6335 C   0  0  0  0  0  0
  -16.7296  -28.6532   23.0362 C   0  0  0  0  0  0
  -26.4476  -31.6540   25.0658 C   0  0  0  0  0  0
  -25.3696  -31.3713   26.1355 C   0  0  0  0  0  0
  -27.0250  -30.2942   24.6148 C   0  0  0  0  0  0
  -27.5996  -32.4285   25.7471 C   0  0  0  0  0  0
  -27.5544  -37.1780   24.8497 C   0  0  0  0  0  0
  -21.4198  -29.3075   22.3582 N   0  0  0  0  0  0
  -26.4230  -37.3761   23.9475 N   0  0  0  0  0  0
  -24.7072  -31.0398   22.0803 N   0  0  0  0  0  0
  -23.4243  -28.8177   23.2931 O   0  0  0  0  0  0
  -28.3478  -26.3008   20.2312 O   0  0  0  0  0  0
  -26.5677  -34.8941   22.4642 O   0  0  0  0  0  0
  -23.5439  -32.1265   23.7049 O   0  0  0  0  0  0
  -29.0532  -21.8087   21.8103 C   0  0  0  0  0  0
  -28.8025  -23.2240   21.6484 C   0  0  0  0  0  0
  -28.7829  -23.5919   20.3170 C   0  0  0  0  0  0
  -29.3253  -21.2650   20.5761 C   0  0  0  0  0  0
  -29.3439  -23.9913   24.1142 C   0  0  0  0  0  0
  -27.8432  -23.8733   24.0495 C   0  0  0  0  0  0
  -29.1869  -18.5956   20.8126 C   0  0  0  0  0  0
  -31.1600  -19.5844   19.9445 C   0  0  0  0  0  0
  -28.6211  -24.2005   22.7992 C   0  0  0  0  0  0
  -30.3030  -17.4216   20.7983 C   0  0  2  0  0  0
  -31.2919  -18.0289   19.7640 C   0  0  2  0  0  0
  -29.3207  -22.2301   18.2257 C   0  0  0  0  0  0
  -28.4597  -24.9558   19.5239 C   0  0  0  0  0  0
  -29.1551  -22.3567   19.6655 N   0  0  0  0  0  0
  -29.7622  -19.8894   20.2895 N   0  0  0  0  0  0
  -29.8812  -15.9399   20.6212 N   0  0  0  0  0  0
  -32.6900  -17.5424   19.8864 N   0  3  0  0  0  0
  -31.4751  -12.6182   19.1511 H   0  0  0  0  0  0
  -30.4017  -11.5062   19.9519 H   0  0  0  0  0  0
  -29.7985  -11.7370   17.5173 H   0  0  0  0  0  0
  -29.6415  -13.4632   17.6975 H   0  0  0  0  0  0
  -27.8694  -11.2944   18.8667 H   0  0  0  0  0  0
  -27.3875  -12.5709   17.7813 H   0  0  0  0  0  0
  -27.6248  -14.2621   19.4639 H   0  0  0  0  0  0
  -28.7365  -12.1779   21.3962 H   0  0  0  0  0  0
  -28.4216  -13.8539   21.7827 H   0  0  0  0  0  0
  -25.2757   -9.5728   22.4711 H   0  0  0  0  0  0
  -24.0053   -7.4633   22.7416 H   0  0  0  0  0  0
  -21.0855   -8.8735   19.8914 H   0  0  0  0  0  0
  -22.3670  -10.9657   19.6142 H   0  0  0  0  0  0
  -21.1976   -7.6149   23.9737 H   0  0  0  0  0  0
  -21.1505   -6.0522   25.9098 H   0  0  0  0  0  0
  -22.0580   -2.7612   23.2844 H   0  0  0  0  0  0
  -22.4107  -11.9920   22.4904 H   0  0  0  0  0  0
  -21.1056  -13.1132   22.2588 H   0  0  0  0  0  0
  -24.6492  -15.8439   20.5541 H   0  0  0  0  0  0
  -26.2615  -15.6401   20.0821 H   0  0  0  0  0  0
  -26.7180  -32.5363   23.0965 H   0  0  0  0  0  0
  -25.0022  -33.9591   25.0280 H   0  0  0  0  0  0
  -22.7391  -31.2926   21.3587 H   0  0  0  0  0  0
  -23.3687  -35.9647   23.3314 H   0  0  0  0  0  0
  -24.3573  -36.8889   22.2092 H   0  0  0  0  0  0
  -23.7223  -37.6488   23.6668 H   0  0  0  0  0  0
  -26.1104  -31.4882   20.5787 H   0  0  0  0  0  0
  -26.8793  -30.8241   21.9807 H   0  0  0  0  0  0
  -28.1213  -28.8805   21.2214 H   0  0  0  0  0  0
  -25.9091  -25.8514   19.0307 H   0  0  0  0  0  0
  -23.9861  -27.2755   19.0030 H   0  0  0  0  0  0
  -23.7848  -30.5419   19.3641 H   0  0  0  0  0  0
  -22.7859  -29.2075   19.8410 H   0  0  0  0  0  0
  -25.1248  -36.1847   25.0832 H   0  0  0  0  0  0
  -21.0024  -28.3317   24.1314 H   0  0  0  0  0  0
  -20.5511  -26.2434   23.3602 H   0  0  0  0  0  0
  -21.6713  -26.7385   22.1316 H   0  0  0  0  0  0
  -19.6955  -25.6189   21.1287 H   0  0  0  0  0  0
  -19.6722  -27.3165   20.6684 H   0  0  0  0  0  0
  -17.4201  -26.6665   21.3973 H   0  0  0  0  0  0
  -18.0400  -26.0109   22.8995 H   0  0  0  0  0  0
  -19.8004  -30.7233   24.2317 H   0  0  0  0  0  0
  -17.5114  -31.6328   24.5132 H   0  0  0  0  0  0
  -15.5414  -30.3075   23.7567 H   0  0  0  0  0  0
  -15.8698  -28.0791   22.7134 H   0  0  0  0  0  0
  -24.6020  -30.6854   25.7741 H   0  0  0  0  0  0
  -24.8739  -32.2892   26.4582 H   0  0  0  0  0  0
  -25.8072  -30.9125   27.0224 H   0  0  0  0  0  0
  -26.2807  -29.6736   24.1146 H   0  0  0  0  0  0
  -27.3981  -29.7179   25.4625 H   0  0  0  0  0  0
  -27.8692  -30.4240   23.9374 H   0  0  0  0  0  0
  -27.2566  -33.3646   26.1901 H   0  0  0  0  0  0
  -28.3898  -32.6735   25.0339 H   0  0  0  0  0  0
  -28.0542  -31.8480   26.5524 H   0  0  0  0  0  0
  -28.2545  -38.0081   24.7526 H   0  0  0  0  0  0
  -28.0987  -36.2600   24.6248 H   0  0  0  0  0  0
  -27.2308  -37.1460   25.8909 H   0  0  0  0  0  0
  -20.9308  -29.8833   21.6832 H   0  0  0  0  0  0
  -26.0040  -38.2809   24.1487 H   0  0  0  0  0  0
  -29.0833  -21.2742   22.7469 H   0  0  0  0  0  0
  -29.9025  -23.0697   24.2644 H   0  0  0  0  0  0
  -29.7547  -24.8653   24.6165 H   0  0  0  0  0  0
  -27.2659  -24.6768   24.5059 H   0  0  0  0  0  0
  -27.4271  -22.8754   24.1668 H   0  0  0  0  0  0
  -28.7541  -18.7283   21.8073 H   0  0  0  0  0  0
  -28.3608  -18.3228   20.1486 H   0  0  0  0  0  0
  -31.4628  -20.1074   19.0352 H   0  0  0  0  0  0
  -31.8079  -19.9325   20.7536 H   0  0  0  0  0  0
  -28.5560  -25.2245   22.4433 H   0  0  0  0  0  0
  -30.7858  -17.4595   21.7769 H   0  0  0  0  0  0
  -30.9552  -17.7746   18.7571 H   0  0  0  0  0  0
  -28.3521  -22.3110   17.7319 H   0  0  0  0  0  0
  -29.7655  -21.2695   17.9661 H   0  0  0  0  0  0
  -29.9755  -23.0168   17.8525 H   0  0  0  0  0  0
  -27.6218  -24.7738   18.8602 H   0  0  0  0  0  0
  -29.2870  -25.1081   18.8335 H   0  0  0  0  0  0
  -28.8888  -15.7714   20.6874 H   0  0  0  0  0  0
  -33.0415  -17.6234   20.8244 H   0  0  0  0  0  0
  -33.3209  -18.0273   19.2670 H   0  0  0  0  0  0
  -32.7127  -16.5563   19.6605 H   0  0  0  0  0  0
  1 25  1  0  0  0
  1 30  2  0  0  0
  1 86  1  0  0  0
  2  3  1  0  0  0
  2 25  1  0  0  0
  2 88  1  0  0  0
  2 89  1  0  0  0
  3  4  1  0  0  0
  3 90  1  0  0  0
  3 91  1  0  0  0
  4  5  1  0  0  0
  4 92  1  0  0  0
  4 93  1  0  0  0
  5  6  1  0  0  0
  5 26  1  0  0  0
  5 94  1  0  0  0
  6 25  1  0  0  0
  6 95  1  0  0  0
  6 96  1  0  0  0
  7  8  2  0  0  0
  7 26  1  0  0  0
  7 29  1  0  0  0
  8  9  1  0  0  0
  8 22  1  0  0  0
  9 10  1  0  0  0
  9 27  2  0  0  0
 10 11  2  0  0  0
 10 15  1  0  0  0
 11 12  1  0  0  0
 11 97  1  0  0  0
 12 13  2  0  0  0
 12 98  1  0  0  0
 13 14  1  0  0  0
 13 31  1  0  0  0
 14 15  2  0  0  0
 14 99  1  0  0  0
 15100  1  0  0  0
 16 17  2  0  0  0
 16 21  1  0  0  0
 16 31  1  0  0  0
 17 18  1  0  0  0
 17101  1  0  0  0
 18 19  2  0  0  0
 18102  1  0  0  0
 19 20  1  0  0  0
 19 24  1  0  0  0
 20 21  2  0  0  0
 20103  1  0  0  0
 21 23  1  0  0  0
 22 28  1  0  0  0
 22 32  2  0  0  0
 26 27  1  0  0  0
 28104  1  0  0  0
 28105  1  0  0  0
 29106  1  0  0  0
 29107  1  0  0  0
 33 34  1  0  0  0
 33 66  1  0  0  0
 33 70  2  0  0  0
 34 36  1  0  0  0
 34 59  1  0  0  0
 34108  1  0  0  0
 35 44  2  0  0  0
 35 45  1  0  0  0
 35 68  1  0  0  0
 36 56  1  0  0  0
 36109  1  0  0  0
 37 39  1  0  0  0
 37 47  1  0  0  0
 37 66  1  0  0  0
 37110  1  0  0  0
 38 43  2  0  0  0
 38 46  1  0  0  0
 38 47  1  0  0  0
 39 64  1  0  0  0
 39 67  2  0  0  0
 40 52  1  0  0  0
 40 53  2  0  0  0
 40 58  1  0  0  0
 41111  1  0  0  0
 41112  1  0  0  0
 41113  1  0  0  0
 41 48  1  0  0  0
 42 43  1  0  0  0
 42 66  1  0  0  0
 42114  1  0  0  0
 42115  1  0  0  0
 43 44  1  0  0  0
 44116  1  0  0  0
 45 46  2  0  0  0
 45117  1  0  0  0
 46118  1  0  0  0
 47119  1  0  0  0
 47120  1  0  0  0
 48 56  1  0  0  0
 48 65  1  0  0  0
 48121  1  0  0  0
 49 50  1  0  0  0
 49 53  1  0  0  0
 49 64  1  0  0  0
 49122  1  0  0  0
 50 51  1  0  0  0
 50123  1  0  0  0
 50124  1  0  0  0
 51 52  1  0  0  0
 51125  1  0  0  0
 51126  1  0  0  0
 52127  1  0  0  0
 52128  1  0  0  0
 53 54  1  0  0  0
 54 55  2  0  0  0
 54129  1  0  0  0
 55 57  1  0  0  0
 55130  1  0  0  0
 56 69  2  0  0  0
 57 58  2  0  0  0
 57131  1  0  0  0
 58132  1  0  0  0
 59 60  1  0  0  0
 59 61  1  0  0  0
 59 62  1  0  0  0
 60133  1  0  0  0
 60134  1  0  0  0
 60135  1  0  0  0
 61136  1  0  0  0
 61137  1  0  0  0
 61138  1  0  0  0
 62139  1  0  0  0
 62140  1  0  0  0
 62141  1  0  0  0
 63 65  1  0  0  0
 63142  1  0  0  0
 63143  1  0  0  0
 63144  1  0  0  0
 64145  1  0  0  0
 65146  1  0  0  0
 68 83  1  0  0  0
 71 72  1  0  0  0
 71 74  2  0  0  0
 71147  1  0  0  0
 72 73  2  0  0  0
 72 79  1  0  0  0
 73 83  1  0  0  0
 73 84  1  0  0  0
 74 84  1  0  0  0
 74 85  1  0  0  0
 75 76  1  0  0  0
 75 79  1  0  0  0
 75148  1  0  0  0
 75149  1  0  0  0
 76 79  1  0  0  0
 76150  1  0  0  0
 76151  1  0  0  0
 77 80  1  0  0  0
 77 85  1  0  0  0
 77152  1  0  0  0
 77153  1  0  0  0
 78 81  1  0  0  0
 78 85  1  0  0  0
 78154  1  0  0  0
 78155  1  0  0  0
 79156  1  0  0  0
 80 81  1  0  0  0
 80 86  1  0  0  0
 80157  1  0  0  0
 81 87  1  0  0  0
 81158  1  0  0  0
 82 84  1  0  0  0
 82159  1  0  0  0
 82160  1  0  0  0
 82161  1  0  0  0
 83162  1  0  0  0
 83163  1  0  0  0
 86164  1  0  0  0
 87165  1  0  0  0
 87166  1  0  0  0
 87167  1  0  0  0
M  CHG  1  87   1
M  ISO  4   1 100  68 101  83 101  86 100
M  END
> <chiral flag>
0

> <version>
0

> <s_m_source_file>
/data/baiqing/PycharmProjects/Reinvent-master-3.2/result/LINK_invent/BTK/process_docking_weight1_custom_sum_contain_oxygen_bond_distance_aromatic_linkinvent_7_9_3/rearranged_h_0175.sdf

> <i_m_source_file_index>
24

> <r_mmod_Potential_Energy-OPLS-2005>
-31.7485179901123

> <r_mmod_Stretch_Energy-OPLS-2005>
155.63134765625

> <r_mmod_Bend_Energy-OPLS-2005>
246.120269775391

> <r_mmod_Torsional_Energy-OPLS-2005>
351.797027587891

> <r_mmod_Improper_Torsional_Energy-OPLS-2005>
6.89803695678711

> <r_mmod_Van_der_Waal_Energy-OPLS-2005>
107.762954711914

> <r_mmod_Electrostatic_Energy-OPLS-2005>
-545.311706542969

> <r_mmod_Solvation_Energy-OPLS-2005>
-465.688171386719

> <b_mmod_Minimization_Converged-OPLS-2005>
0

> <r_mmod_RMS_Derivative-OPLS-2005>
9.23604011535645

$$$$
24
                    3D
 Structure written by MMmdl.
166176  0  0  1  0            999 V2000
  -30.6801  -14.7650   20.5011 C   0  0  0  0  0  0
  -30.4140  -12.4815   19.4906 C   0  0  0  0  0  0
  -29.5035  -12.5020   18.2460 C   0  0  0  0  0  0
  -28.0367  -12.2901   18.6630 C   0  0  0  0  0  0
  -27.6265  -13.2098   19.8418 C   0  0  2  0  0  0
  -28.6718  -13.2289   20.9838 C   0  0  0  0  0  0
  -25.2461  -13.8127   20.5698 C   0  0  0  0  0  0
  -24.1745  -13.0403   20.9244 C   0  0  0  0  0  0
  -24.6331  -11.6882   20.8791 C   0  0  0  0  0  0
  -23.9022  -10.4271   21.0447 C   0  0  0  0  0  0
  -24.3591   -9.4174   21.9213 C   0  0  0  0  0  0
  -23.6279   -8.2201   22.0753 C   0  0  0  0  0  0
  -22.4253   -8.0265   21.3549 C   0  0  0  0  0  0
  -21.9893   -9.0234   20.4633 C   0  0  0  0  0  0
  -22.7216  -10.2118   20.3064 C   0  0  0  0  0  0
  -21.6811   -6.0737   22.5290 C   0  0  0  0  0  0
  -21.3980   -6.5636   23.8233 C   0  0  0  0  0  0
  -21.3658   -5.6787   24.9194 C   0  0  0  0  0  0
  -21.6055   -4.3053   24.7228 C   0  0  0  0  0  0
  -21.8812   -3.8152   23.4341 C   0  0  0  0  0  0
  -21.9161   -4.6968   22.3400 C   0  0  0  0  0  0
  -22.7773  -13.5204   21.1911 C   0  0  0  0  0  0
  -22.1625   -4.2156   21.0975 F   0  0  0  0  0  0
  -21.5651   -3.4530   25.7730 F   0  0  0  0  0  0
  -29.9702  -13.5786   20.3945 N   0  0  0  0  0  0
  -26.2848  -12.9283   20.3277 N   0  0  0  0  0  0
  -25.9250  -11.6462   20.5800 N   0  0  0  0  0  0
  -22.0397  -12.8219   22.0472 N   0  0  0  0  0  0
  -25.4161  -15.1851   20.4071 N   0  0  0  0  0  0
  -31.8683  -14.7513   20.1683 O   0  0  0  0  0  0
  -21.6597   -6.8877   21.4253 O   0  0  0  0  0  0
  -22.3481  -14.5513   20.6745 O   0  0  0  0  0  0
  -24.6340  -31.8537   23.2018 C   0  0  0  0  0  0
  -25.9176  -32.4729   23.8344 C   0  0  1  0  0  0
  -27.2017  -27.2361   20.1059 C   0  0  0  0  0  0
  -25.5977  -33.8536   24.2270 N   0  0  0  0  0  0
  -23.4277  -30.4848   21.5459 C   0  0  2  0  0  0
  -24.8716  -28.9399   20.1041 C   0  0  0  0  0  0
  -22.7491  -29.4619   22.4902 C   0  0  0  0  0  0
  -18.0291  -28.1386   22.8473 C   0  0  0  0  0  0
  -24.1480  -36.7246   23.2647 C   0  0  0  0  0  0
  -25.9801  -30.7520   21.3941 C   0  0  0  0  0  0
  -26.0461  -29.3774   20.7305 C   0  0  0  0  0  0
  -27.2094  -28.5330   20.7350 C   0  0  0  0  0  0
  -26.0066  -26.9015   19.4185 C   0  0  0  0  0  0
  -24.8595  -27.7110   19.4407 C   0  0  0  0  0  0
  -23.6440  -29.8296   20.1591 C   0  0  0  0  0  0
  -25.4117  -36.3055   24.0331 C   0  0  1  0  0  0
  -20.5889  -28.3702   23.1239 C   0  0  2  0  0  0
  -20.6781  -26.9409   22.5398 C   0  0  0  0  0  0
  -19.5759  -26.6375   21.5202 C   0  0  0  0  0  0
  -18.1940  -26.7926   22.1614 C   0  0  0  0  0  0
  -19.1539  -28.8862   23.2856 C   0  0  0  0  0  0
  -18.9477  -30.1468   23.8870 C   0  0  0  0  0  0
  -17.6475  -30.6584   24.0563 C   0  0  0  0  0  0
  -25.9070  -34.9422   23.5096 C   0  0  0  0  0  0
  -16.5365  -29.9076   23.6343 C   0  0  0  0  0  0
  -16.7277  -28.6499   23.0350 C   0  0  0  0  0  0
  -26.4543  -31.6551   25.0728 C   0  0  0  0  0  0
  -25.3746  -31.3683   26.1424 C   0  0  0  0  0  0
  -27.0415  -30.2963   24.6254 C   0  0  0  0  0  0
  -27.6075  -32.4306   25.7512 C   0  0  0  0  0  0
  -27.5570  -37.1787   24.8472 C   0  0  0  0  0  0
  -21.4194  -29.3042   22.3605 N   0  0  0  0  0  0
  -26.4288  -37.3758   23.9411 N   0  0  0  0  0  0
  -24.6994  -31.0480   22.1028 N   0  0  0  0  0  0
  -23.4185  -28.8155   23.3002 O   0  0  0  0  0  0
  -28.2581  -26.2812   20.1827 O   0  0  0  0  0  0
  -26.5613  -34.8913   22.4654 O   0  0  0  0  0  0
  -23.5489  -32.1410   23.7285 O   0  0  0  0  0  0
  -28.9500  -21.6442   21.8148 C   0  0  0  0  0  0
  -28.6537  -23.0198   21.5231 C   0  0  0  0  0  0
  -28.6902  -23.5025   20.1832 C   0  0  0  0  0  0
  -29.2902  -20.7026   20.8043 C   0  0  0  0  0  0
  -29.1424  -22.5112   19.2438 C   0  0  0  0  0  0
  -29.0717  -25.1982   22.8753 C   0  0  0  0  0  0
  -29.0719  -24.0882   23.8963 C   0  0  0  0  0  0
  -28.6808  -18.1091   20.2412 C   0  0  0  0  0  0
  -30.8962  -18.5078   21.1694 C   0  0  0  0  0  0
  -28.7776  -16.5671   20.6422 C   0  0  0  0  0  0
  -30.9312  -17.0039   21.6759 C   0  0  0  0  0  0
  -28.2564  -23.9487   22.6291 C   0  0  0  0  0  0
  -29.4720  -19.1299   21.1149 C   0  0  0  0  0  0
  -29.3030  -22.8372   17.7679 C   0  0  0  0  0  0
  -27.9565  -24.8667   19.7356 C   0  0  0  0  0  0
  -29.4306  -21.1933   19.5417 N   0  0  0  0  0  0
  -30.1213  -15.9844   20.9332 N   0  0  0  0  0  0
  -31.4573  -12.5750   19.1859 H   0  0  0  0  0  0
  -30.3480  -11.5169   19.9974 H   0  0  0  0  0  0
  -29.8122  -11.7288   17.5407 H   0  0  0  0  0  0
  -29.6099  -13.4541   17.7248 H   0  0  0  0  0  0
  -27.9245  -11.2434   18.9499 H   0  0  0  0  0  0
  -27.3714  -12.4434   17.8121 H   0  0  0  0  0  0
  -27.5769  -14.1918   19.3912 H   0  0  0  0  0  0
  -28.7239  -12.2563   21.4773 H   0  0  0  0  0  0
  -28.3876  -13.9457   21.7561 H   0  0  0  0  0  0
  -25.2720   -9.5654   22.4811 H   0  0  0  0  0  0
  -24.0002   -7.4564   22.7440 H   0  0  0  0  0  0
  -21.0841   -8.8742   19.8902 H   0  0  0  0  0  0
  -22.3694  -10.9674   19.6177 H   0  0  0  0  0  0
  -21.1959   -7.6135   23.9759 H   0  0  0  0  0  0
  -21.1499   -6.0504   25.9109 H   0  0  0  0  0  0
  -22.0599   -2.7616   23.2840 H   0  0  0  0  0  0
  -22.3970  -11.9868   22.4884 H   0  0  0  0  0  0
  -21.1002  -13.1253   22.2633 H   0  0  0  0  0  0
  -24.6471  -15.8353   20.5207 H   0  0  0  0  0  0
  -26.2576  -15.6229   20.0581 H   0  0  0  0  0  0
  -26.7214  -32.5351   23.1050 H   0  0  0  0  0  0
  -25.0148  -33.9676   25.0434 H   0  0  0  0  0  0
  -22.7266  -31.3100   21.4048 H   0  0  0  0  0  0
  -23.3760  -35.9556   23.3311 H   0  0  0  0  0  0
  -24.3571  -36.8865   22.2062 H   0  0  0  0  0  0
  -23.7214  -37.6443   23.6664 H   0  0  0  0  0  0
  -26.1349  -31.5133   20.6281 H   0  0  0  0  0  0
  -26.8519  -30.7868   22.0351 H   0  0  0  0  0  0
  -28.0944  -28.8524   21.2675 H   0  0  0  0  0  0
  -25.8989  -25.9912   18.8496 H   0  0  0  0  0  0
  -23.9649  -27.3791   18.9299 H   0  0  0  0  0  0
  -23.7656  -30.6099   19.4068 H   0  0  0  0  0  0
  -22.7597  -29.2674   19.8534 H   0  0  0  0  0  0
  -25.1304  -36.1893   25.0823 H   0  0  0  0  0  0
  -21.0019  -28.3304   24.1347 H   0  0  0  0  0  0
  -20.5675  -26.2320   23.3614 H   0  0  0  0  0  0
  -21.6647  -26.7422   22.1185 H   0  0  0  0  0  0
  -19.6917  -25.6287   21.1228 H   0  0  0  0  0  0
  -19.6708  -27.3183   20.6732 H   0  0  0  0  0  0
  -17.4212  -26.6683   21.4017 H   0  0  0  0  0  0
  -18.0340  -26.0068   22.9013 H   0  0  0  0  0  0
  -19.7965  -30.7276   24.2235 H   0  0  0  0  0  0
  -17.5040  -31.6272   24.5154 H   0  0  0  0  0  0
  -15.5368  -30.2979   23.7684 H   0  0  0  0  0  0
  -15.8677  -28.0814   22.7081 H   0  0  0  0  0  0
  -24.5955  -30.7010   25.7733 H   0  0  0  0  0  0
  -24.8908  -32.2835   26.4833 H   0  0  0  0  0  0
  -25.8057  -30.8869   27.0209 H   0  0  0  0  0  0
  -26.3029  -29.6667   24.1282 H   0  0  0  0  0  0
  -27.4094  -29.7268   25.4803 H   0  0  0  0  0  0
  -27.8908  -30.4237   23.9535 H   0  0  0  0  0  0
  -27.2688  -33.3632   26.2035 H   0  0  0  0  0  0
  -28.3924  -32.6816   25.0362 H   0  0  0  0  0  0
  -28.0694  -31.8453   26.5479 H   0  0  0  0  0  0
  -28.2578  -38.0092   24.7517 H   0  0  0  0  0  0
  -28.1074  -36.2619   24.6302 H   0  0  0  0  0  0
  -27.2272  -37.1426   25.8871 H   0  0  0  0  0  0
  -20.9387  -29.8759   21.6798 H   0  0  0  0  0  0
  -26.0153  -38.2821   24.1435 H   0  0  0  0  0  0
  -28.8700  -21.3004   22.8369 H   0  0  0  0  0  0
  -29.9740  -25.3329   22.2812 H   0  0  0  0  0  0
  -28.5300  -26.1108   23.1134 H   0  0  0  0  0  0
  -28.5428  -24.2954   24.8236 H   0  0  0  0  0  0
  -29.9788  -23.4946   23.9898 H   0  0  0  0  0  0
  -27.6303  -18.4005   20.2427 H   0  0  0  0  0  0
  -29.0117  -18.2201   19.2075 H   0  0  0  0  0  0
  -31.3710  -18.5775   20.1900 H   0  0  0  0  0  0
  -31.5110  -19.1114   21.8376 H   0  0  0  0  0  0
  -28.3360  -16.0234   19.8175 H   0  0  0  0  0  0
  -28.1501  -16.3880   21.5166 H   0  0  0  0  0  0
  -30.5618  -16.9839   22.7036 H   0  0  0  0  0  0
  -31.9707  -16.6840   21.7602 H   0  0  0  0  0  0
  -27.1746  -24.0174   22.7232 H   0  0  0  0  0  0
  -29.0696  -19.0211   22.1233 H   0  0  0  0  0  0
  -28.3865  -22.6259   17.2157 H   0  0  0  0  0  0
  -30.1099  -22.2481   17.3308 H   0  0  0  0  0  0
  -29.5698  -23.8812   17.6108 H   0  0  0  0  0  0
  -26.9438  -24.6349   20.0641 H   0  0  0  0  0  0
  -27.9004  -24.8979   18.6478 H   0  0  0  0  0  0
  1 25  1  0  0  0
  1 30  2  0  0  0
  1 87  1  0  0  0
  2  3  1  0  0  0
  2 25  1  0  0  0
  2 88  1  0  0  0
  2 89  1  0  0  0
  3  4  1  0  0  0
  3 90  1  0  0  0
  3 91  1  0  0  0
  4  5  1  0  0  0
  4 92  1  0  0  0
  4 93  1  0  0  0
  5  6  1  0  0  0
  5 26  1  0  0  0
  5 94  1  0  0  0
  6 25  1  0  0  0
  6 95  1  0  0  0
  6 96  1  0  0  0
  7  8  2  0  0  0
  7 26  1  0  0  0
  7 29  1  0  0  0
  8  9  1  0  0  0
  8 22  1  0  0  0
  9 10  1  0  0  0
  9 27  2  0  0  0
 10 11  2  0  0  0
 10 15  1  0  0  0
 11 12  1  0  0  0
 11 97  1  0  0  0
 12 13  2  0  0  0
 12 98  1  0  0  0
 13 14  1  0  0  0
 13 31  1  0  0  0
 14 15  2  0  0  0
 14 99  1  0  0  0
 15100  1  0  0  0
 16 17  2  0  0  0
 16 21  1  0  0  0
 16 31  1  0  0  0
 17 18  1  0  0  0
 17101  1  0  0  0
 18 19  2  0  0  0
 18102  1  0  0  0
 19 20  1  0  0  0
 19 24  1  0  0  0
 20 21  2  0  0  0
 20103  1  0  0  0
 21 23  1  0  0  0
 22 28  1  0  0  0
 22 32  2  0  0  0
 26 27  1  0  0  0
 28104  1  0  0  0
 28105  1  0  0  0
 29106  1  0  0  0
 29107  1  0  0  0
 33 34  1  0  0  0
 33 66  1  0  0  0
 33 70  2  0  0  0
 34 36  1  0  0  0
 34 59  1  0  0  0
 34108  1  0  0  0
 35 44  2  0  0  0
 35 45  1  0  0  0
 35 68  1  0  0  0
 36 56  1  0  0  0
 36109  1  0  0  0
 37 39  1  0  0  0
 37 47  1  0  0  0
 37 66  1  0  0  0
 37110  1  0  0  0
 38 43  2  0  0  0
 38 46  1  0  0  0
 38 47  1  0  0  0
 39 64  1  0  0  0
 39 67  2  0  0  0
 40 52  1  0  0  0
 40 53  2  0  0  0
 40 58  1  0  0  0
 41111  1  0  0  0
 41112  1  0  0  0
 41113  1  0  0  0
 41 48  1  0  0  0
 42 43  1  0  0  0
 42 66  1  0  0  0
 42114  1  0  0  0
 42115  1  0  0  0
 43 44  1  0  0  0
 44116  1  0  0  0
 45 46  2  0  0  0
 45117  1  0  0  0
 46118  1  0  0  0
 47119  1  0  0  0
 47120  1  0  0  0
 48 56  1  0  0  0
 48 65  1  0  0  0
 48121  1  0  0  0
 49 50  1  0  0  0
 49 53  1  0  0  0
 49 64  1  0  0  0
 49122  1  0  0  0
 50 51  1  0  0  0
 50123  1  0  0  0
 50124  1  0  0  0
 51 52  1  0  0  0
 51125  1  0  0  0
 51126  1  0  0  0
 52127  1  0  0  0
 52128  1  0  0  0
 53 54  1  0  0  0
 54 55  2  0  0  0
 54129  1  0  0  0
 55 57  1  0  0  0
 55130  1  0  0  0
 56 69  2  0  0  0
 57 58  2  0  0  0
 57131  1  0  0  0
 58132  1  0  0  0
 59 60  1  0  0  0
 59 61  1  0  0  0
 59 62  1  0  0  0
 60133  1  0  0  0
 60134  1  0  0  0
 60135  1  0  0  0
 61136  1  0  0  0
 61137  1  0  0  0
 61138  1  0  0  0
 62139  1  0  0  0
 62140  1  0  0  0
 62141  1  0  0  0
 63 65  1  0  0  0
 63142  1  0  0  0
 63143  1  0  0  0
 63144  1  0  0  0
 64145  1  0  0  0
 65146  1  0  0  0
 68 85  1  0  0  0
 71 72  2  0  0  0
 71 74  1  0  0  0
 71147  1  0  0  0
 72 73  1  0  0  0
 72 82  1  0  0  0
 73 75  2  0  0  0
 73 85  1  0  0  0
 74 86  2  0  0  0
 74 83  1  0  0  0
 75 84  1  0  0  0
 75 86  1  0  0  0
 76 77  1  0  0  0
 76 82  1  0  0  0
 76148  1  0  0  0
 76149  1  0  0  0
 77 82  1  0  0  0
 77150  1  0  0  0
 77151  1  0  0  0
 78 80  1  0  0  0
 78 83  1  0  0  0
 78152  1  0  0  0
 78153  1  0  0  0
 79 81  1  0  0  0
 79 83  1  0  0  0
 79154  1  0  0  0
 79155  1  0  0  0
 80 87  1  0  0  0
 80156  1  0  0  0
 80157  1  0  0  0
 81 87  1  0  0  0
 81158  1  0  0  0
 81159  1  0  0  0
 82160  1  0  0  0
 83161  1  0  0  0
 84162  1  0  0  0
 84163  1  0  0  0
 84164  1  0  0  0
 85165  1  0  0  0
 85166  1  0  0  0
M  ISO  4   1 100  68 101  85 101  87 100
M  END
> <chiral flag>
0

> <version>
0

> <s_m_source_file>
/data/baiqing/PycharmProjects/Reinvent-master-3.2/result/LINK_invent/BTK/process_docking_weight1_custom_sum_contain_oxygen_bond_distance_aromatic_linkinvent_7_9_3/rearranged_h_0175.sdf

> <i_m_source_file_index>
25

> <r_mmod_Potential_Energy-OPLS-2005>
315.166229248047

> <r_mmod_Stretch_Energy-OPLS-2005>
132.62890625

> <r_mmod_Bend_Energy-OPLS-2005>
215.522506713867

> <r_mmod_Torsional_Energy-OPLS-2005>
346.489501953125

> <r_mmod_Improper_Torsional_Energy-OPLS-2005>
4.35471105575562

> <r_mmod_Van_der_Waal_Energy-OPLS-2005>
149.506820678711

> <r_mmod_Electrostatic_Energy-OPLS-2005>
-428.779449462891

> <r_mmod_Solvation_Energy-OPLS-2005>
-211.005706787109

> <b_mmod_Minimization_Converged-OPLS-2005>
0

> <r_mmod_RMS_Derivative-OPLS-2005>
3.02726078033447

$$$$
25
                    3D
 Structure written by MMmdl.
170179  0  0  1  0            999 V2000
  -30.7187  -14.5745   20.5432 C   0  0  0  0  0  0
  -30.4151  -12.3667   19.4609 C   0  0  0  0  0  0
  -29.5004  -12.5021   18.2290 C   0  0  0  0  0  0
  -28.0258  -12.3387   18.6374 C   0  0  0  0  0  0
  -27.6497  -13.2090   19.8641 C   0  0  2  0  0  0
  -28.6933  -13.0975   21.0002 C   0  0  0  0  0  0
  -25.2532  -13.8143   20.5690 C   0  0  0  0  0  0
  -24.1799  -13.0416   20.9200 C   0  0  0  0  0  0
  -24.6365  -11.6894   20.8752 C   0  0  0  0  0  0
  -23.9034  -10.4278   21.0415 C   0  0  0  0  0  0
  -24.3585   -9.4198   21.9198 C   0  0  0  0  0  0
  -23.6275   -8.2234   22.0767 C   0  0  0  0  0  0
  -22.4268   -8.0262   21.3542 C   0  0  0  0  0  0
  -21.9884   -9.0245   20.4664 C   0  0  0  0  0  0
  -22.7205  -10.2125   20.3074 C   0  0  0  0  0  0
  -21.6851   -6.0720   22.5267 C   0  0  0  0  0  0
  -21.4031   -6.5620   23.8204 C   0  0  0  0  0  0
  -21.3674   -5.6771   24.9161 C   0  0  0  0  0  0
  -21.6043   -4.3034   24.7217 C   0  0  0  0  0  0
  -21.8834   -3.8131   23.4339 C   0  0  0  0  0  0
  -21.9196   -4.6949   22.3393 C   0  0  0  0  0  0
  -22.7828  -13.5246   21.1816 C   0  0  0  0  0  0
  -22.1668   -4.2131   21.0980 F   0  0  0  0  0  0
  -21.5613   -3.4529   25.7736 F   0  0  0  0  0  0
  -30.0155  -13.4047   20.4342 N   0  0  0  0  0  0
  -26.2962  -12.9319   20.3337 N   0  0  0  0  0  0
  -25.9292  -11.6487   20.5786 N   0  0  0  0  0  0
  -22.0426  -12.8301   22.0381 N   0  0  0  0  0  0
  -25.4192  -15.1881   20.4097 N   0  0  0  0  0  0
  -31.8577  -14.6667   20.0793 O   0  0  0  0  0  0
  -21.6639   -6.8861   21.4232 O   0  0  0  0  0  0
  -22.3550  -14.5556   20.6628 O   0  0  0  0  0  0
  -24.6163  -31.8691   23.2062 C   0  0  0  0  0  0
  -25.9047  -32.4821   23.8383 C   0  0  1  0  0  0
  -27.2389  -27.4129   20.0917 C   0  0  0  0  0  0
  -25.5891  -33.8610   24.2316 N   0  0  0  0  0  0
  -23.4061  -30.4893   21.5516 C   0  0  2  0  0  0
  -24.8525  -28.9522   20.1187 C   0  0  0  0  0  0
  -22.7438  -29.4657   22.5018 C   0  0  0  0  0  0
  -18.0274  -28.1383   22.8510 C   0  0  0  0  0  0
  -24.1451  -36.7346   23.2635 C   0  0  0  0  0  0
  -25.9382  -30.8265   21.3623 C   0  0  0  0  0  0
  -26.0151  -29.4590   20.7093 C   0  0  0  0  0  0
  -27.2109  -28.6969   20.6899 C   0  0  0  0  0  0
  -26.0527  -26.9332   19.4866 C   0  0  0  0  0  0
  -24.8659  -27.6891   19.5051 C   0  0  0  0  0  0
  -23.6139  -29.8193   20.1688 C   0  0  0  0  0  0
  -25.4069  -36.3108   24.0325 C   0  0  1  0  0  0
  -20.5876  -28.3670   23.1339 C   0  0  2  0  0  0
  -20.6757  -26.9402   22.5447 C   0  0  0  0  0  0
  -19.5722  -26.6385   21.5249 C   0  0  0  0  0  0
  -18.1894  -26.7919   22.1648 C   0  0  0  0  0  0
  -19.1526  -28.8834   23.2914 C   0  0  0  0  0  0
  -18.9456  -30.1442   23.8927 C   0  0  0  0  0  0
  -17.6457  -30.6587   24.0583 C   0  0  0  0  0  0
  -25.9010  -34.9473   23.5118 C   0  0  0  0  0  0
  -16.5351  -29.9108   23.6317 C   0  0  0  0  0  0
  -16.7262  -28.6519   23.0347 C   0  0  0  0  0  0
  -26.4458  -31.6593   25.0723 C   0  0  0  0  0  0
  -25.3678  -31.3735   26.1450 C   0  0  0  0  0  0
  -27.0296  -30.3025   24.6163 C   0  0  0  0  0  0
  -27.6047  -32.4298   25.7486 C   0  0  0  0  0  0
  -27.5544  -37.1820   24.8442 C   0  0  0  0  0  0
  -21.4152  -29.3031   22.3738 N   0  0  0  0  0  0
  -26.4242  -37.3802   23.9397 N   0  0  0  0  0  0
  -24.6728  -31.0760   22.0992 N   0  0  0  0  0  0
  -23.4200  -28.8224   23.3082 O   0  0  0  0  0  0
  -28.4072  -26.6629   20.1103 O   0  0  0  0  0  0
  -26.5598  -34.8940   22.4697 O   0  0  0  0  0  0
  -23.5332  -32.1479   23.7408 O   0  0  0  0  0  0
  -29.6297  -21.9993   19.7369 C   0  0  0  0  0  0
  -29.5713  -20.6049   20.0057 C   0  0  0  0  0  0
  -29.0397  -22.4613   22.0323 C   0  0  0  0  0  0
  -29.3730  -22.9488   20.7523 C   0  0  0  0  0  0
  -28.9556  -21.0703   22.3088 C   0  0  0  0  0  0
  -29.2374  -20.1084   21.2963 C   0  0  0  0  0  0
  -30.8694  -16.9543   21.4029 C   0  0  0  0  0  0
  -28.8916  -16.3612   20.9913 C   0  0  0  0  0  0
  -29.6559  -17.6841   20.8110 C   0  0  0  0  0  0
  -25.2146  -22.3327   24.2824 C   0  0  0  0  0  0
  -29.8773  -20.6589   24.6142 C   0  0  0  0  0  0
  -29.5346  -24.4700   20.5297 C   0  0  0  0  0  0
  -26.1982  -21.2920   23.7309 C   0  0  0  0  0  0
  -28.2974  -25.2250   19.9694 C   0  0  0  0  0  0
  -28.6162  -20.6267   23.7358 C   0  0  1  0  0  0
  -30.1789  -15.6616   21.1775 N   0  0  0  0  0  0
  -27.5374  -21.4449   24.3400 N   0  3  0  0  0  0
  -29.1453  -18.7566   21.6383 O   0  0  0  0  0  0
  -31.4600  -12.4475   19.1541 H   0  0  0  0  0  0
  -30.3214  -11.3764   19.9074 H   0  0  0  0  0  0
  -29.7673  -11.7554   17.4800 H   0  0  0  0  0  0
  -29.6484  -13.4755   17.7574 H   0  0  0  0  0  0
  -27.8542  -11.2873   18.8634 H   0  0  0  0  0  0
  -27.3762  -12.5791   17.7952 H   0  0  0  0  0  0
  -27.6527  -14.2273   19.4918 H   0  0  0  0  0  0
  -28.6923  -12.0943   21.4300 H   0  0  0  0  0  0
  -28.4440  -13.7689   21.8206 H   0  0  0  0  0  0
  -25.2725   -9.5695   22.4772 H   0  0  0  0  0  0
  -23.9975   -7.4652   22.7507 H   0  0  0  0  0  0
  -21.0803   -8.8787   19.8987 H   0  0  0  0  0  0
  -22.3666  -10.9671   19.6197 H   0  0  0  0  0  0
  -21.2041   -7.6136   23.9714 H   0  0  0  0  0  0
  -21.1473   -6.0488   25.9059 H   0  0  0  0  0  0
  -22.0597   -2.7592   23.2836 H   0  0  0  0  0  0
  -22.3975  -11.9987   22.4867 H   0  0  0  0  0  0
  -21.1058  -13.1413   22.2546 H   0  0  0  0  0  0
  -24.6394  -15.8298   20.5061 H   0  0  0  0  0  0
  -26.2551  -15.6298   20.0532 H   0  0  0  0  0  0
  -26.7123  -32.5533   23.1143 H   0  0  0  0  0  0
  -24.9999  -33.9747   25.0432 H   0  0  0  0  0  0
  -22.6943  -31.3049   21.4103 H   0  0  0  0  0  0
  -23.3658  -35.9743   23.3300 H   0  0  0  0  0  0
  -24.3524  -36.8968   22.2049 H   0  0  0  0  0  0
  -23.7245  -37.6567   23.6659 H   0  0  0  0  0  0
  -26.0510  -31.5922   20.5938 H   0  0  0  0  0  0
  -26.8257  -30.8799   21.9818 H   0  0  0  0  0  0
  -28.1101  -29.0843   21.1470 H   0  0  0  0  0  0
  -26.0261  -25.9728   18.9946 H   0  0  0  0  0  0
  -23.9713  -27.2933   19.0462 H   0  0  0  0  0  0
  -23.7225  -30.5935   19.4079 H   0  0  0  0  0  0
  -22.7369  -29.2384   19.8761 H   0  0  0  0  0  0
  -25.1217  -36.1974   25.0813 H   0  0  0  0  0  0
  -20.9957  -28.3246   24.1470 H   0  0  0  0  0  0
  -20.5683  -26.2268   23.3645 H   0  0  0  0  0  0
  -21.6618  -26.7454   22.1235 H   0  0  0  0  0  0
  -19.6878  -25.6305   21.1258 H   0  0  0  0  0  0
  -19.6649  -27.3212   20.6796 H   0  0  0  0  0  0
  -17.4183  -26.6693   21.4039 H   0  0  0  0  0  0
  -18.0261  -26.0062   22.9038 H   0  0  0  0  0  0
  -19.7939  -30.7247   24.2297 H   0  0  0  0  0  0
  -17.5029  -31.6269   24.5191 H   0  0  0  0  0  0
  -15.5349  -30.3034   23.7612 H   0  0  0  0  0  0
  -15.8662  -28.0865   22.7034 H   0  0  0  0  0  0
  -24.5831  -30.7127   25.7762 H   0  0  0  0  0  0
  -24.8923  -32.2913   26.4915 H   0  0  0  0  0  0
  -25.7978  -30.8822   27.0181 H   0  0  0  0  0  0
  -26.2883  -29.6784   24.1154 H   0  0  0  0  0  0
  -27.3997  -29.7293   25.4668 H   0  0  0  0  0  0
  -27.8762  -30.4304   23.9413 H   0  0  0  0  0  0
  -27.2681  -33.3577   26.2100 H   0  0  0  0  0  0
  -28.3835  -32.6904   25.0299 H   0  0  0  0  0  0
  -28.0748  -31.8375   26.5356 H   0  0  0  0  0  0
  -28.2577  -38.0093   24.7448 H   0  0  0  0  0  0
  -28.1003  -36.2624   24.6273 H   0  0  0  0  0  0
  -27.2284  -37.1510   25.8852 H   0  0  0  0  0  0
  -20.9291  -29.8783   21.7006 H   0  0  0  0  0  0
  -26.0122  -38.2888   24.1364 H   0  0  0  0  0  0
  -29.9020  -22.3392   18.7469 H   0  0  0  0  0  0
  -29.7946  -19.9367   19.1882 H   0  0  0  0  0  0
  -28.8704  -23.1824   22.8196 H   0  0  0  0  0  0
  -31.0444  -17.1855   22.4540 H   0  0  0  0  0  0
  -31.7748  -17.1219   20.8144 H   0  0  0  0  0  0
  -28.3397  -16.1122   20.0920 H   0  0  0  0  0  0
  -28.2522  -16.3430   21.8752 H   0  0  0  0  0  0
  -29.7704  -17.9095   19.7510 H   0  0  0  0  0  0
  -24.2284  -22.2117   23.8357 H   0  0  0  0  0  0
  -25.5509  -23.3481   24.0692 H   0  0  0  0  0  0
  -25.0962  -22.2388   25.3619 H   0  0  0  0  0  0
  -30.6433  -19.9938   24.2145 H   0  0  0  0  0  0
  -29.6660  -20.3335   25.6316 H   0  0  0  0  0  0
  -30.3042  -21.6610   24.6622 H   0  0  0  0  0  0
  -30.3959  -24.6484   19.8856 H   0  0  0  0  0  0
  -29.8009  -24.9156   21.4904 H   0  0  0  0  0  0
  -26.2586  -21.3935   22.6463 H   0  0  0  0  0  0
  -25.8246  -20.2872   23.9336 H   0  0  0  0  0  0
  -27.4167  -24.8736   20.5085 H   0  0  0  0  0  0
  -28.1621  -24.9734   18.9144 H   0  0  0  0  0  0
  -28.2491  -19.5996   23.7178 H   0  0  0  0  0  0
  -27.4655  -21.1956   25.3137 H   0  0  0  0  0  0
  -27.8112  -22.4124   24.2889 H   0  0  0  0  0  0
  1 25  1  0  0  0
  1 30  2  0  0  0
  1 86  1  0  0  0
  2  3  1  0  0  0
  2 25  1  0  0  0
  2 89  1  0  0  0
  2 90  1  0  0  0
  3  4  1  0  0  0
  3 91  1  0  0  0
  3 92  1  0  0  0
  4  5  1  0  0  0
  4 93  1  0  0  0
  4 94  1  0  0  0
  5  6  1  0  0  0
  5 26  1  0  0  0
  5 95  1  0  0  0
  6 25  1  0  0  0
  6 96  1  0  0  0
  6 97  1  0  0  0
  7  8  2  0  0  0
  7 26  1  0  0  0
  7 29  1  0  0  0
  8  9  1  0  0  0
  8 22  1  0  0  0
  9 10  1  0  0  0
  9 27  2  0  0  0
 10 11  2  0  0  0
 10 15  1  0  0  0
 11 12  1  0  0  0
 11 98  1  0  0  0
 12 13  2  0  0  0
 12 99  1  0  0  0
 13 14  1  0  0  0
 13 31  1  0  0  0
 14 15  2  0  0  0
 14100  1  0  0  0
 15101  1  0  0  0
 16 17  2  0  0  0
 16 21  1  0  0  0
 16 31  1  0  0  0
 17 18  1  0  0  0
 17102  1  0  0  0
 18 19  2  0  0  0
 18103  1  0  0  0
 19 20  1  0  0  0
 19 24  1  0  0  0
 20 21  2  0  0  0
 20104  1  0  0  0
 21 23  1  0  0  0
 22 28  1  0  0  0
 22 32  2  0  0  0
 26 27  1  0  0  0
 28105  1  0  0  0
 28106  1  0  0  0
 29107  1  0  0  0
 29108  1  0  0  0
 33 34  1  0  0  0
 33 66  1  0  0  0
 33 70  2  0  0  0
 34 36  1  0  0  0
 34 59  1  0  0  0
 34109  1  0  0  0
 35 44  2  0  0  0
 35 45  1  0  0  0
 35 68  1  0  0  0
 36 56  1  0  0  0
 36110  1  0  0  0
 37 39  1  0  0  0
 37 47  1  0  0  0
 37 66  1  0  0  0
 37111  1  0  0  0
 38 43  2  0  0  0
 38 46  1  0  0  0
 38 47  1  0  0  0
 39 64  1  0  0  0
 39 67  2  0  0  0
 40 52  1  0  0  0
 40 53  2  0  0  0
 40 58  1  0  0  0
 41112  1  0  0  0
 41113  1  0  0  0
 41114  1  0  0  0
 41 48  1  0  0  0
 42 43  1  0  0  0
 42 66  1  0  0  0
 42115  1  0  0  0
 42116  1  0  0  0
 43 44  1  0  0  0
 44117  1  0  0  0
 45 46  2  0  0  0
 45118  1  0  0  0
 46119  1  0  0  0
 47120  1  0  0  0
 47121  1  0  0  0
 48 56  1  0  0  0
 48 65  1  0  0  0
 48122  1  0  0  0
 49 50  1  0  0  0
 49 53  1  0  0  0
 49 64  1  0  0  0
 49123  1  0  0  0
 50 51  1  0  0  0
 50124  1  0  0  0
 50125  1  0  0  0
 51 52  1  0  0  0
 51126  1  0  0  0
 51127  1  0  0  0
 52128  1  0  0  0
 52129  1  0  0  0
 53 54  1  0  0  0
 54 55  2  0  0  0
 54130  1  0  0  0
 55 57  1  0  0  0
 55131  1  0  0  0
 56 69  2  0  0  0
 57 58  2  0  0  0
 57132  1  0  0  0
 58133  1  0  0  0
 59 60  1  0  0  0
 59 61  1  0  0  0
 59 62  1  0  0  0
 60134  1  0  0  0
 60135  1  0  0  0
 60136  1  0  0  0
 61137  1  0  0  0
 61138  1  0  0  0
 61139  1  0  0  0
 62140  1  0  0  0
 62141  1  0  0  0
 62142  1  0  0  0
 63 65  1  0  0  0
 63143  1  0  0  0
 63144  1  0  0  0
 63145  1  0  0  0
 64146  1  0  0  0
 65147  1  0  0  0
 68 84  1  0  0  0
 71 72  2  0  0  0
 71 74  1  0  0  0
 71148  1  0  0  0
 72 76  1  0  0  0
 72149  1  0  0  0
 73 74  2  0  0  0
 73 75  1  0  0  0
 73150  1  0  0  0
 74 82  1  0  0  0
 75 76  2  0  0  0
 75 85  1  0  0  0
 76 88  1  0  0  0
 77 79  1  0  0  0
 77 86  1  0  0  0
 77151  1  0  0  0
 77152  1  0  0  0
 78 79  1  0  0  0
 78 86  1  0  0  0
 78153  1  0  0  0
 78154  1  0  0  0
 79 88  1  0  0  0
 79155  1  0  0  0
 80 83  1  0  0  0
 80156  1  0  0  0
 80157  1  0  0  0
 80158  1  0  0  0
 81159  1  0  0  0
 81160  1  0  0  0
 81161  1  0  0  0
 81 85  1  0  0  0
 82 84  1  0  0  0
 82162  1  0  0  0
 82163  1  0  0  0
 83 87  1  0  0  0
 83164  1  0  0  0
 83165  1  0  0  0
 84166  1  0  0  0
 84167  1  0  0  0
 85 87  1  0  0  0
 85168  1  0  0  0
 87169  1  0  0  0
 87170  1  0  0  0
M  CHG  1  87   1
M  ISO  4   1 100  68 101  84 101  86 100
M  END
> <chiral flag>
0

> <version>
0

> <s_m_source_file>
/data/baiqing/PycharmProjects/Reinvent-master-3.2/result/LINK_invent/BTK/process_docking_weight1_custom_sum_contain_oxygen_bond_distance_aromatic_linkinvent_7_9_3/rearranged_h_0175.sdf

> <i_m_source_file_index>
26

> <r_mmod_Potential_Energy-OPLS-2005>
-110.835708618164

> <r_mmod_Stretch_Energy-OPLS-2005>
51.6419143676758

> <r_mmod_Bend_Energy-OPLS-2005>
140.294586181641

> <r_mmod_Torsional_Energy-OPLS-2005>
256.639892578125

> <r_mmod_Improper_Torsional_Energy-OPLS-2005>
6.97451257705688

> <r_mmod_Van_der_Waal_Energy-OPLS-2005>
147.296157836914

> <r_mmod_Electrostatic_Energy-OPLS-2005>
-290.981048583984

> <r_mmod_Solvation_Energy-OPLS-2005>
-448.316162109375

> <b_mmod_Minimization_Converged-OPLS-2005>
0

> <r_mmod_RMS_Derivative-OPLS-2005>
3.49477386474609

$$$$
26
                    3D
 Structure written by MMmdl.
156166  0  0  1  0            999 V2000
  -30.6063  -14.8128   20.4458 C   0  0  0  0  0  0
  -30.4300  -12.5025   19.4822 C   0  0  0  0  0  0
  -29.5112  -12.5153   18.2418 C   0  0  0  0  0  0
  -28.0401  -12.3272   18.6586 C   0  0  0  0  0  0
  -27.6357  -13.2401   19.8467 C   0  0  2  0  0  0
  -28.6809  -13.2197   20.9817 C   0  0  0  0  0  0
  -25.2487  -13.8206   20.5730 C   0  0  0  0  0  0
  -24.1788  -13.0431   20.9224 C   0  0  0  0  0  0
  -24.6399  -11.6918   20.8757 C   0  0  0  0  0  0
  -23.9077  -10.4289   21.0407 C   0  0  0  0  0  0
  -24.3621   -9.4201   21.9185 C   0  0  0  0  0  0
  -23.6296   -8.2236   22.0753 C   0  0  0  0  0  0
  -22.4279   -8.0276   21.3539 C   0  0  0  0  0  0
  -21.9914   -9.0254   20.4642 C   0  0  0  0  0  0
  -22.7247  -10.2134   20.3056 C   0  0  0  0  0  0
  -21.6856   -6.0730   22.5273 C   0  0  0  0  0  0
  -21.4018   -6.5632   23.8205 C   0  0  0  0  0  0
  -21.3665   -5.6785   24.9166 C   0  0  0  0  0  0
  -21.6050   -4.3047   24.7217 C   0  0  0  0  0  0
  -21.8823   -3.8141   23.4336 C   0  0  0  0  0  0
  -21.9194   -4.6958   22.3393 C   0  0  0  0  0  0
  -22.7806  -13.5212   21.1867 C   0  0  0  0  0  0
  -22.1661   -4.2143   21.0970 F   0  0  0  0  0  0
  -21.5631   -3.4532   25.7729 F   0  0  0  0  0  0
  -29.9712  -13.5858   20.3877 N   0  0  0  0  0  0
  -26.2919  -12.9432   20.3302 N   0  0  0  0  0  0
  -25.9336  -11.6565   20.5778 N   0  0  0  0  0  0
  -22.0455  -12.8203   22.0425 N   0  0  0  0  0  0
  -25.4147  -15.1933   20.4175 N   0  0  0  0  0  0
  -31.8030  -14.8717   20.1498 O   0  0  0  0  0  0
  -21.6639   -6.8877   21.4237 O   0  0  0  0  0  0
  -22.3491  -14.5519   20.6709 O   0  0  0  0  0  0
  -24.6350  -31.8512   23.1937 C   0  0  0  0  0  0
  -25.9157  -32.4734   23.8302 C   0  0  1  0  0  0
  -27.2159  -27.2162   20.1396 C   0  0  0  0  0  0
  -25.5935  -33.8536   24.2227 N   0  0  0  0  0  0
  -23.4343  -30.4723   21.5375 C   0  0  2  0  0  0
  -24.8825  -28.9126   20.1067 C   0  0  0  0  0  0
  -22.7526  -29.4579   22.4880 C   0  0  0  0  0  0
  -18.0294  -28.1395   22.8480 C   0  0  0  0  0  0
  -24.1488  -36.7274   23.2641 C   0  0  0  0  0  0
  -25.9841  -30.7510   21.3800 C   0  0  0  0  0  0
  -26.0564  -29.3698   20.7207 C   0  0  0  0  0  0
  -27.2256  -28.5350   20.7223 C   0  0  0  0  0  0
  -26.0218  -26.8413   19.4855 C   0  0  0  0  0  0
  -24.8735  -27.6594   19.4758 C   0  0  0  0  0  0
  -23.6558  -29.8062   20.1534 C   0  0  0  0  0  0
  -25.4119  -36.3059   24.0322 C   0  0  1  0  0  0
  -20.5901  -28.3709   23.1260 C   0  0  2  0  0  0
  -20.6779  -26.9423   22.5410 C   0  0  0  0  0  0
  -19.5751  -26.6386   21.5215 C   0  0  0  0  0  0
  -18.1934  -26.7931   22.1627 C   0  0  0  0  0  0
  -19.1550  -28.8868   23.2863 C   0  0  0  0  0  0
  -18.9471  -30.1465   23.8890 C   0  0  0  0  0  0
  -17.6469  -30.6594   24.0561 C   0  0  0  0  0  0
  -25.9063  -34.9430   23.5082 C   0  0  0  0  0  0
  -16.5357  -29.9094   23.6330 C   0  0  0  0  0  0
  -16.7279  -28.6508   23.0356 C   0  0  0  0  0  0
  -26.4511  -31.6575   25.0708 C   0  0  0  0  0  0
  -25.3715  -31.3744   26.1416 C   0  0  0  0  0  0
  -27.0364  -30.2981   24.6227 C   0  0  0  0  0  0
  -27.6042  -32.4334   25.7496 C   0  0  0  0  0  0
  -27.5580  -37.1796   24.8467 C   0  0  0  0  0  0
  -21.4228  -29.3047   22.3645 N   0  0  0  0  0  0
  -26.4291  -37.3763   23.9411 N   0  0  0  0  0  0
  -24.7039  -31.0443   22.0931 N   0  0  0  0  0  0
  -23.4211  -28.8122   23.2991 O   0  0  0  0  0  0
  -28.2882  -26.2810   20.2191 O   0  0  0  0  0  0
  -26.5646  -34.8912   22.4655 O   0  0  0  0  0  0
  -23.5490  -32.1353   23.7209 O   0  0  0  0  0  0
  -29.3367  -22.1432   18.4802 C   0  0  0  0  0  0
  -29.0318  -21.9925   19.8357 C   0  0  0  0  0  0
  -29.7667  -21.0285   17.7594 C   0  0  0  0  0  0
  -29.6163  -19.6352   19.6211 C   0  0  0  0  0  0
  -29.4442  -24.5183   20.6702 C   0  0  0  0  0  0
  -30.4570  -17.3114   21.2487 C   0  0  0  0  0  0
  -28.9508  -16.7967   19.9086 C   0  0  0  0  0  0
  -28.6238  -23.3117   20.6511 C   0  0  1  0  0  0
  -29.8507  -18.0682   20.0329 C   0  0  0  0  0  0
  -28.0127  -24.7749   20.1559 C   0  0  2  0  0  0
  -30.1412  -21.1345   16.2956 C   0  0  0  0  0  0
  -29.1681  -20.6989   20.3911 N   0  0  0  0  0  0
  -29.8928  -19.8183   18.3287 N   0  0  0  0  0  0
  -29.9014  -15.9896   20.7559 N   0  0  0  0  0  0
  -31.4694  -12.6304   19.1763 H   0  0  0  0  0  0
  -30.3850  -11.5377   19.9898 H   0  0  0  0  0  0
  -29.8083  -11.7317   17.5433 H   0  0  0  0  0  0
  -29.6263  -13.4606   17.7092 H   0  0  0  0  0  0
  -27.9118  -11.2815   18.9395 H   0  0  0  0  0  0
  -27.3797  -12.4966   17.8074 H   0  0  0  0  0  0
  -27.6141  -14.2536   19.4470 H   0  0  0  0  0  0
  -28.7385  -12.2365   21.4504 H   0  0  0  0  0  0
  -28.4062  -13.9256   21.7672 H   0  0  0  0  0  0
  -25.2765   -9.5674   22.4760 H   0  0  0  0  0  0
  -23.9998   -7.4630   22.7473 H   0  0  0  0  0  0
  -21.0843   -8.8780   19.8949 H   0  0  0  0  0  0
  -22.3709  -10.9670   19.6164 H   0  0  0  0  0  0
  -21.2010   -7.6140   23.9705 H   0  0  0  0  0  0
  -21.1489   -6.0513   25.9070 H   0  0  0  0  0  0
  -22.0601   -2.7602   23.2835 H   0  0  0  0  0  0
  -22.4081  -11.9880   22.4826 H   0  0  0  0  0  0
  -21.1075  -13.1229   22.2620 H   0  0  0  0  0  0
  -24.6502  -15.8485   20.5397 H   0  0  0  0  0  0
  -26.2718  -15.6329   20.1105 H   0  0  0  0  0  0
  -26.7224  -32.5372   23.1043 H   0  0  0  0  0  0
  -25.0070  -33.9669   25.0364 H   0  0  0  0  0  0
  -22.7325  -31.2963   21.3894 H   0  0  0  0  0  0
  -23.3749  -35.9606   23.3305 H   0  0  0  0  0  0
  -24.3573  -36.8895   22.2054 H   0  0  0  0  0  0
  -23.7242  -37.6473   23.6668 H   0  0  0  0  0  0
  -26.1303  -31.5101   20.6104 H   0  0  0  0  0  0
  -26.8585  -30.7995   22.0176 H   0  0  0  0  0  0
  -28.1216  -28.8755   21.2224 H   0  0  0  0  0  0
  -25.9519  -25.8817   18.9942 H   0  0  0  0  0  0
  -23.9763  -27.3049   18.9865 H   0  0  0  0  0  0
  -23.7867  -30.5835   19.3996 H   0  0  0  0  0  0
  -22.7724  -29.2455   19.8433 H   0  0  0  0  0  0
  -25.1305  -36.1896   25.0815 H   0  0  0  0  0  0
  -20.9995  -28.3286   24.1378 H   0  0  0  0  0  0
  -20.5675  -26.2325   23.3620 H   0  0  0  0  0  0
  -21.6648  -26.7439   22.1206 H   0  0  0  0  0  0
  -19.6915  -25.6295   21.1254 H   0  0  0  0  0  0
  -19.6682  -27.3192   20.6740 H   0  0  0  0  0  0
  -17.4203  -26.6673   21.4033 H   0  0  0  0  0  0
  -18.0332  -26.0084   22.9035 H   0  0  0  0  0  0
  -19.7947  -30.7284   24.2258 H   0  0  0  0  0  0
  -17.5023  -31.6272   24.5173 H   0  0  0  0  0  0
  -15.5360  -30.2998   23.7657 H   0  0  0  0  0  0
  -15.8675  -28.0826   22.7080 H   0  0  0  0  0  0
  -24.5905  -30.7078   25.7749 H   0  0  0  0  0  0
  -24.8893  -32.2920   26.4793 H   0  0  0  0  0  0
  -25.8019  -30.8961   27.0222 H   0  0  0  0  0  0
  -26.2960  -29.6722   24.1234 H   0  0  0  0  0  0
  -27.4012  -29.7256   25.4768 H   0  0  0  0  0  0
  -27.8853  -30.4243   23.9503 H   0  0  0  0  0  0
  -27.2624  -33.3639   26.2041 H   0  0  0  0  0  0
  -28.3870  -32.6888   25.0341 H   0  0  0  0  0  0
  -28.0688  -31.8481   26.5443 H   0  0  0  0  0  0
  -28.2595  -38.0097   24.7517 H   0  0  0  0  0  0
  -28.1082  -36.2628   24.6289 H   0  0  0  0  0  0
  -27.2303  -37.1438   25.8872 H   0  0  0  0  0  0
  -20.9421  -29.8785   21.6855 H   0  0  0  0  0  0
  -26.0163  -38.2834   24.1408 H   0  0  0  0  0  0
  -29.2600  -23.1124   18.0047 H   0  0  0  0  0  0
  -30.2372  -24.5969   19.9285 H   0  0  0  0  0  0
  -29.7116  -24.9119   21.6490 H   0  0  0  0  0  0
  -31.5458  -17.3705   21.2875 H   0  0  0  0  0  0
  -30.0271  -17.6355   22.1974 H   0  0  0  0  0  0
  -28.8482  -16.4519   18.8786 H   0  0  0  0  0  0
  -27.9702  -16.9321   20.3668 H   0  0  0  0  0  0
  -28.2693  -22.9767   21.6241 H   0  0  0  0  0  0
  -30.6316  -17.8538   19.2988 H   0  0  0  0  0  0
  -27.1008  -24.7601   20.7510 H   0  0  0  0  0  0
  -31.2229  -21.0780   16.1780 H   0  0  0  0  0  0
  -29.8049  -22.0798   15.8700 H   0  0  0  0  0  0
  -29.6894  -20.3274   15.7190 H   0  0  0  0  0  0
  1 25  1  0  0  0
  1 30  2  0  0  0
  1 84  1  0  0  0
  2  3  1  0  0  0
  2 25  1  0  0  0
  2 85  1  0  0  0
  2 86  1  0  0  0
  3  4  1  0  0  0
  3 87  1  0  0  0
  3 88  1  0  0  0
  4  5  1  0  0  0
  4 89  1  0  0  0
  4 90  1  0  0  0
  5  6  1  0  0  0
  5 26  1  0  0  0
  5 91  1  0  0  0
  6 25  1  0  0  0
  6 92  1  0  0  0
  6 93  1  0  0  0
  7  8  2  0  0  0
  7 26  1  0  0  0
  7 29  1  0  0  0
  8  9  1  0  0  0
  8 22  1  0  0  0
  9 10  1  0  0  0
  9 27  2  0  0  0
 10 11  2  0  0  0
 10 15  1  0  0  0
 11 12  1  0  0  0
 11 94  1  0  0  0
 12 13  2  0  0  0
 12 95  1  0  0  0
 13 14  1  0  0  0
 13 31  1  0  0  0
 14 15  2  0  0  0
 14 96  1  0  0  0
 15 97  1  0  0  0
 16 17  2  0  0  0
 16 21  1  0  0  0
 16 31  1  0  0  0
 17 18  1  0  0  0
 17 98  1  0  0  0
 18 19  2  0  0  0
 18 99  1  0  0  0
 19 20  1  0  0  0
 19 24  1  0  0  0
 20 21  2  0  0  0
 20100  1  0  0  0
 21 23  1  0  0  0
 22 28  1  0  0  0
 22 32  2  0  0  0
 26 27  1  0  0  0
 28101  1  0  0  0
 28102  1  0  0  0
 29103  1  0  0  0
 29104  1  0  0  0
 33 34  1  0  0  0
 33 66  1  0  0  0
 33 70  2  0  0  0
 34 36  1  0  0  0
 34 59  1  0  0  0
 34105  1  0  0  0
 35 44  2  0  0  0
 35 45  1  0  0  0
 35 68  1  0  0  0
 36 56  1  0  0  0
 36106  1  0  0  0
 37 39  1  0  0  0
 37 47  1  0  0  0
 37 66  1  0  0  0
 37107  1  0  0  0
 38 43  2  0  0  0
 38 46  1  0  0  0
 38 47  1  0  0  0
 39 64  1  0  0  0
 39 67  2  0  0  0
 40 52  1  0  0  0
 40 53  2  0  0  0
 40 58  1  0  0  0
 41108  1  0  0  0
 41109  1  0  0  0
 41110  1  0  0  0
 41 48  1  0  0  0
 42 43  1  0  0  0
 42 66  1  0  0  0
 42111  1  0  0  0
 42112  1  0  0  0
 43 44  1  0  0  0
 44113  1  0  0  0
 45 46  2  0  0  0
 45114  1  0  0  0
 46115  1  0  0  0
 47116  1  0  0  0
 47117  1  0  0  0
 48 56  1  0  0  0
 48 65  1  0  0  0
 48118  1  0  0  0
 49 50  1  0  0  0
 49 53  1  0  0  0
 49 64  1  0  0  0
 49119  1  0  0  0
 50 51  1  0  0  0
 50120  1  0  0  0
 50121  1  0  0  0
 51 52  1  0  0  0
 51122  1  0  0  0
 51123  1  0  0  0
 52124  1  0  0  0
 52125  1  0  0  0
 53 54  1  0  0  0
 54 55  2  0  0  0
 54126  1  0  0  0
 55 57  1  0  0  0
 55127  1  0  0  0
 56 69  2  0  0  0
 57 58  2  0  0  0
 57128  1  0  0  0
 58129  1  0  0  0
 59 60  1  0  0  0
 59 61  1  0  0  0
 59 62  1  0  0  0
 60130  1  0  0  0
 60131  1  0  0  0
 60132  1  0  0  0
 61133  1  0  0  0
 61134  1  0  0  0
 61135  1  0  0  0
 62136  1  0  0  0
 62137  1  0  0  0
 62138  1  0  0  0
 63 65  1  0  0  0
 63139  1  0  0  0
 63140  1  0  0  0
 63141  1  0  0  0
 64142  1  0  0  0
 65143  1  0  0  0
 68 80  1  0  0  0
 71 72  2  0  0  0
 71 73  1  0  0  0
 71144  1  0  0  0
 72 82  1  0  0  0
 72 78  1  0  0  0
 73 81  1  0  0  0
 73 83  2  0  0  0
 74 82  2  0  0  0
 74 83  1  0  0  0
 74 79  1  0  0  0
 75 78  1  0  0  0
 75 80  1  0  0  0
 75145  1  0  0  0
 75146  1  0  0  0
 76 79  1  0  0  0
 76 84  1  0  0  0
 76147  1  0  0  0
 76148  1  0  0  0
 77 79  1  0  0  0
 77 84  1  0  0  0
 77149  1  0  0  0
 77150  1  0  0  0
 78 80  1  0  0  0
 78151  1  0  0  0
 79152  1  0  0  0
 80153  1  0  0  0
 81154  1  0  0  0
 81155  1  0  0  0
 81156  1  0  0  0
M  ISO  4   1 100  68 101  80 101  84 100
M  END
> <chiral flag>
0

> <version>
0

> <s_m_source_file>
/data/baiqing/PycharmProjects/Reinvent-master-3.2/result/LINK_invent/BTK/process_docking_weight1_custom_sum_contain_oxygen_bond_distance_aromatic_linkinvent_7_9_3/rearranged_h_0175.sdf

> <i_m_source_file_index>
27

> <r_mmod_Potential_Energy-OPLS-2005>
113.438369750977

> <r_mmod_Stretch_Energy-OPLS-2005>
178.096420288086

> <r_mmod_Bend_Energy-OPLS-2005>
355.156707763672

> <r_mmod_Torsional_Energy-OPLS-2005>
259.332214355469

> <r_mmod_Improper_Torsional_Energy-OPLS-2005>
7.76037645339966

> <r_mmod_Van_der_Waal_Energy-OPLS-2005>
142.426849365234

> <r_mmod_Electrostatic_Energy-OPLS-2005>
-708.960144042969

> <r_mmod_Solvation_Energy-OPLS-2005>
-239.45085144043

> <b_mmod_Minimization_Converged-OPLS-2005>
0

> <r_mmod_RMS_Derivative-OPLS-2005>
1.13882517814636

$$$$
27
                    3D
 Structure written by MMmdl.
169179  0  0  1  0            999 V2000
  -30.6746  -14.7672   20.4870 C   0  0  0  0  0  0
  -30.4089  -12.4823   19.4764 C   0  0  0  0  0  0
  -29.4935  -12.4997   18.2350 C   0  0  0  0  0  0
  -28.0275  -12.2965   18.6571 C   0  0  0  0  0  0
  -27.6240  -13.2154   19.8385 C   0  0  2  0  0  0
  -28.6724  -13.2303   20.9757 C   0  0  0  0  0  0
  -25.2448  -13.8142   20.5698 C   0  0  0  0  0  0
  -24.1737  -13.0421   20.9242 C   0  0  0  0  0  0
  -24.6319  -11.6888   20.8790 C   0  0  0  0  0  0
  -23.9002  -10.4276   21.0442 C   0  0  0  0  0  0
  -24.3574   -9.4200   21.9214 C   0  0  0  0  0  0
  -23.6267   -8.2225   22.0767 C   0  0  0  0  0  0
  -22.4250   -8.0272   21.3554 C   0  0  0  0  0  0
  -21.9879   -9.0234   20.4646 C   0  0  0  0  0  0
  -22.7187  -10.2123   20.3070 C   0  0  0  0  0  0
  -21.6821   -6.0741   22.5292 C   0  0  0  0  0  0
  -21.3986   -6.5642   23.8235 C   0  0  0  0  0  0
  -21.3658   -5.6797   24.9190 C   0  0  0  0  0  0
  -21.6038   -4.3059   24.7229 C   0  0  0  0  0  0
  -21.8806   -3.8160   23.4348 C   0  0  0  0  0  0
  -21.9172   -4.6975   22.3407 C   0  0  0  0  0  0
  -22.7770  -13.5232   21.1873 C   0  0  0  0  0  0
  -22.1632   -4.2167   21.0980 F   0  0  0  0  0  0
  -21.5649   -3.4538   25.7736 F   0  0  0  0  0  0
  -29.9678  -13.5803   20.3795 N   0  0  0  0  0  0
  -26.2838  -12.9309   20.3288 N   0  0  0  0  0  0
  -25.9242  -11.6480   20.5797 N   0  0  0  0  0  0
  -22.0365  -12.8287   22.0434 N   0  0  0  0  0  0
  -25.4157  -15.1852   20.4026 N   0  0  0  0  0  0
  -31.8691  -14.7526   20.1787 O   0  0  0  0  0  0
  -21.6603   -6.8881   21.4254 O   0  0  0  0  0  0
  -22.3493  -14.5544   20.6683 O   0  0  0  0  0  0
  -24.6349  -31.8537   23.2005 C   0  0  0  0  0  0
  -25.9190  -32.4722   23.8335 C   0  0  1  0  0  0
  -27.2096  -27.2493   20.1010 C   0  0  0  0  0  0
  -25.6000  -33.8529   24.2264 N   0  0  0  0  0  0
  -23.4279  -30.4828   21.5442 C   0  0  2  0  0  0
  -24.8716  -28.9387   20.1038 C   0  0  0  0  0  0
  -22.7502  -29.4617   22.4909 C   0  0  0  0  0  0
  -18.0298  -28.1387   22.8477 C   0  0  0  0  0  0
  -24.1491  -36.7241   23.2640 C   0  0  0  0  0  0
  -25.9791  -30.7554   21.3921 C   0  0  0  0  0  0
  -26.0457  -29.3821   20.7258 C   0  0  0  0  0  0
  -27.2128  -28.5449   20.7270 C   0  0  0  0  0  0
  -26.0131  -26.9029   19.4241 C   0  0  0  0  0  0
  -24.8615  -27.7049   19.4461 C   0  0  0  0  0  0
  -23.6418  -29.8232   20.1589 C   0  0  0  0  0  0
  -25.4124  -36.3034   24.0317 C   0  0  1  0  0  0
  -20.5897  -28.3700   23.1237 C   0  0  2  0  0  0
  -20.6786  -26.9410   22.5394 C   0  0  0  0  0  0
  -19.5761  -26.6374   21.5201 C   0  0  0  0  0  0
  -18.1938  -26.7932   22.1612 C   0  0  0  0  0  0
  -19.1548  -28.8860   23.2855 C   0  0  0  0  0  0
  -18.9485  -30.1470   23.8864 C   0  0  0  0  0  0
  -17.6483  -30.6588   24.0552 C   0  0  0  0  0  0
  -25.9079  -34.9415   23.5079 C   0  0  0  0  0  0
  -16.5371  -29.9074   23.6349 C   0  0  0  0  0  0
  -16.7284  -28.6494   23.0359 C   0  0  0  0  0  0
  -26.4552  -31.6550   25.0732 C   0  0  0  0  0  0
  -25.3775  -31.3709   26.1446 C   0  0  0  0  0  0
  -27.0428  -30.2951   24.6285 C   0  0  0  0  0  0
  -27.6092  -32.4306   25.7516 C   0  0  0  0  0  0
  -27.5574  -37.1780   24.8473 C   0  0  0  0  0  0
  -21.4208  -29.3050   22.3628 N   0  0  0  0  0  0
  -26.4289  -37.3741   23.9407 N   0  0  0  0  0  0
  -24.6982  -31.0492   22.0997 N   0  0  0  0  0  0
  -23.4196  -28.8151   23.3005 O   0  0  0  0  0  0
  -28.2791  -26.3096   20.1772 O   0  0  0  0  0  0
  -26.5620  -34.8894   22.4637 O   0  0  0  0  0  0
  -23.5494  -32.1403   23.7293 O   0  0  0  0  0  0
  -28.8138  -21.6325   21.8031 C   0  0  0  0  0  0
  -28.5542  -23.0205   21.5257 C   0  0  0  0  0  0
  -28.7320  -23.5431   20.2131 C   0  0  0  0  0  0
  -29.2733  -20.7253   20.8058 C   0  0  0  0  0  0
  -29.3038  -22.5893   19.3038 C   0  0  0  0  0  0
  -28.3398  -25.0522   24.4283 C   0  0  0  0  0  0
  -28.1076  -23.5699   24.1145 C   0  0  0  0  0  0
  -28.8689  -25.1900   23.0040 C   0  0  0  0  0  0
  -28.7031  -18.1412   20.1344 C   0  0  0  0  0  0
  -30.8559  -18.5178   21.1791 C   0  0  0  0  0  0
  -28.7867  -16.5813   20.4786 C   0  0  0  0  0  0
  -30.8786  -17.0067   21.6667 C   0  0  0  0  0  0
  -28.0424  -23.9463   22.6226 C   0  0  0  0  0  0
  -29.4353  -19.1424   21.0817 C   0  0  0  0  0  0
  -29.6522  -22.9793   17.8782 C   0  0  0  0  0  0
  -28.0153  -24.8972   19.7189 C   0  0  0  0  0  0
  -29.5597  -21.2617   19.5864 N   0  0  0  0  0  0
  -30.0992  -15.9910   20.8870 N   0  0  0  0  0  0
  -31.4516  -12.5742   19.1675 H   0  0  0  0  0  0
  -30.3401  -11.5195   19.9855 H   0  0  0  0  0  0
  -29.7925  -11.7205   17.5322 H   0  0  0  0  0  0
  -29.6025  -13.4472   17.7047 H   0  0  0  0  0  0
  -27.9100  -11.2497   18.9414 H   0  0  0  0  0  0
  -27.3607  -12.4535   17.8076 H   0  0  0  0  0  0
  -27.5743  -14.2038   19.3997 H   0  0  0  0  0  0
  -28.7276  -12.2590   21.4687 H   0  0  0  0  0  0
  -28.3950  -13.9536   21.7457 H   0  0  0  0  0  0
  -25.2687   -9.5716   22.4829 H   0  0  0  0  0  0
  -23.9992   -7.4612   22.7479 H   0  0  0  0  0  0
  -21.0823   -8.8724   19.8931 H   0  0  0  0  0  0
  -22.3622  -10.9680   19.6205 H   0  0  0  0  0  0
  -21.1951   -7.6140   23.9757 H   0  0  0  0  0  0
  -21.1505   -6.0514   25.9106 H   0  0  0  0  0  0
  -22.0591   -2.7624   23.2836 H   0  0  0  0  0  0
  -22.3902  -11.9931   22.4858 H   0  0  0  0  0  0
  -21.0993  -13.1395   22.2595 H   0  0  0  0  0  0
  -24.6446  -15.8376   20.4968 H   0  0  0  0  0  0
  -26.2558  -15.6151   20.0390 H   0  0  0  0  0  0
  -26.7250  -32.5333   23.1057 H   0  0  0  0  0  0
  -25.0201  -33.9674   25.0443 H   0  0  0  0  0  0
  -22.7253  -31.3064   21.4008 H   0  0  0  0  0  0
  -23.3759  -35.9569   23.3311 H   0  0  0  0  0  0
  -24.3580  -36.8859   22.2056 H   0  0  0  0  0  0
  -23.7249  -37.6440   23.6666 H   0  0  0  0  0  0
  -26.1394  -31.5204   20.6315 H   0  0  0  0  0  0
  -26.8489  -30.7860   22.0362 H   0  0  0  0  0  0
  -28.0997  -28.8685   21.2541 H   0  0  0  0  0  0
  -25.9033  -25.9860   18.8679 H   0  0  0  0  0  0
  -23.9681  -27.3641   18.9405 H   0  0  0  0  0  0
  -23.7580  -30.5994   19.4013 H   0  0  0  0  0  0
  -22.7588  -29.2538   19.8601 H   0  0  0  0  0  0
  -25.1317  -36.1860   25.0807 H   0  0  0  0  0  0
  -21.0015  -28.3295   24.1345 H   0  0  0  0  0  0
  -20.5678  -26.2317   23.3613 H   0  0  0  0  0  0
  -21.6652  -26.7422   22.1185 H   0  0  0  0  0  0
  -19.6917  -25.6280   21.1242 H   0  0  0  0  0  0
  -19.6708  -27.3168   20.6719 H   0  0  0  0  0  0
  -17.4216  -26.6695   21.4004 H   0  0  0  0  0  0
  -18.0329  -26.0067   22.8998 H   0  0  0  0  0  0
  -19.7969  -30.7288   24.2211 H   0  0  0  0  0  0
  -17.5044  -31.6277   24.5140 H   0  0  0  0  0  0
  -15.5374  -30.2965   23.7697 H   0  0  0  0  0  0
  -15.8685  -28.0801   22.7093 H   0  0  0  0  0  0
  -24.5944  -30.7066   25.7768 H   0  0  0  0  0  0
  -24.8982  -32.2881   26.4869 H   0  0  0  0  0  0
  -25.8091  -30.8880   27.0222 H   0  0  0  0  0  0
  -26.3048  -29.6647   24.1304 H   0  0  0  0  0  0
  -27.4074  -29.7262   25.4850 H   0  0  0  0  0  0
  -27.8936  -30.4194   23.9583 H   0  0  0  0  0  0
  -27.2695  -33.3614   26.2067 H   0  0  0  0  0  0
  -28.3925  -32.6855   25.0365 H   0  0  0  0  0  0
  -28.0737  -31.8450   26.5460 H   0  0  0  0  0  0
  -28.2589  -38.0076   24.7499 H   0  0  0  0  0  0
  -28.1075  -36.2604   24.6326 H   0  0  0  0  0  0
  -27.2285  -37.1442   25.8875 H   0  0  0  0  0  0
  -20.9397  -29.8768   21.6821 H   0  0  0  0  0  0
  -26.0153  -38.2806   24.1415 H   0  0  0  0  0  0
  -28.6194  -21.2426   22.7927 H   0  0  0  0  0  0
  -29.0793  -25.2630   25.2021 H   0  0  0  0  0  0
  -27.4145  -25.6127   24.5778 H   0  0  0  0  0  0
  -27.1914  -23.1427   24.5222 H   0  0  0  0  0  0
  -28.9799  -22.9680   24.3728 H   0  0  0  0  0  0
  -29.9452  -25.0208   22.9334 H   0  0  0  0  0  0
  -28.5846  -26.1247   22.5257 H   0  0  0  0  0  0
  -27.6522  -18.4287   20.0804 H   0  0  0  0  0  0
  -29.0936  -18.2913   19.1270 H   0  0  0  0  0  0
  -31.3564  -18.5969   20.2134 H   0  0  0  0  0  0
  -31.4507  -19.1133   21.8718 H   0  0  0  0  0  0
  -28.4406  -16.0610   19.5922 H   0  0  0  0  0  0
  -28.0772  -16.3600   21.2770 H   0  0  0  0  0  0
  -30.4817  -16.9696   22.6820 H   0  0  0  0  0  0
  -31.9178  -16.6952   21.7712 H   0  0  0  0  0  0
  -27.0216  -24.2427   22.3690 H   0  0  0  0  0  0
  -28.9835  -19.0047   22.0651 H   0  0  0  0  0  0
  -28.8398  -22.7250   17.1986 H   0  0  0  0  0  0
  -30.5488  -22.4561   17.5435 H   0  0  0  0  0  0
  -29.8613  -24.0448   17.7866 H   0  0  0  0  0  0
  -26.9892  -24.6453   19.9842 H   0  0  0  0  0  0
  -28.0265  -24.9312   18.6313 H   0  0  0  0  0  0
  1 25  1  0  0  0
  1 30  2  0  0  0
  1 88  1  0  0  0
  2  3  1  0  0  0
  2 25  1  0  0  0
  2 89  1  0  0  0
  2 90  1  0  0  0
  3  4  1  0  0  0
  3 91  1  0  0  0
  3 92  1  0  0  0
  4  5  1  0  0  0
  4 93  1  0  0  0
  4 94  1  0  0  0
  5  6  1  0  0  0
  5 26  1  0  0  0
  5 95  1  0  0  0
  6 25  1  0  0  0
  6 96  1  0  0  0
  6 97  1  0  0  0
  7  8  2  0  0  0
  7 26  1  0  0  0
  7 29  1  0  0  0
  8  9  1  0  0  0
  8 22  1  0  0  0
  9 10  1  0  0  0
  9 27  2  0  0  0
 10 11  2  0  0  0
 10 15  1  0  0  0
 11 12  1  0  0  0
 11 98  1  0  0  0
 12 13  2  0  0  0
 12 99  1  0  0  0
 13 14  1  0  0  0
 13 31  1  0  0  0
 14 15  2  0  0  0
 14100  1  0  0  0
 15101  1  0  0  0
 16 17  2  0  0  0
 16 21  1  0  0  0
 16 31  1  0  0  0
 17 18  1  0  0  0
 17102  1  0  0  0
 18 19  2  0  0  0
 18103  1  0  0  0
 19 20  1  0  0  0
 19 24  1  0  0  0
 20 21  2  0  0  0
 20104  1  0  0  0
 21 23  1  0  0  0
 22 28  1  0  0  0
 22 32  2  0  0  0
 26 27  1  0  0  0
 28105  1  0  0  0
 28106  1  0  0  0
 29107  1  0  0  0
 29108  1  0  0  0
 33 34  1  0  0  0
 33 66  1  0  0  0
 33 70  2  0  0  0
 34 36  1  0  0  0
 34 59  1  0  0  0
 34109  1  0  0  0
 35 44  2  0  0  0
 35 45  1  0  0  0
 35 68  1  0  0  0
 36 56  1  0  0  0
 36110  1  0  0  0
 37 39  1  0  0  0
 37 47  1  0  0  0
 37 66  1  0  0  0
 37111  1  0  0  0
 38 43  2  0  0  0
 38 46  1  0  0  0
 38 47  1  0  0  0
 39 64  1  0  0  0
 39 67  2  0  0  0
 40 52  1  0  0  0
 40 53  2  0  0  0
 40 58  1  0  0  0
 41112  1  0  0  0
 41113  1  0  0  0
 41114  1  0  0  0
 41 48  1  0  0  0
 42 43  1  0  0  0
 42 66  1  0  0  0
 42115  1  0  0  0
 42116  1  0  0  0
 43 44  1  0  0  0
 44117  1  0  0  0
 45 46  2  0  0  0
 45118  1  0  0  0
 46119  1  0  0  0
 47120  1  0  0  0
 47121  1  0  0  0
 48 56  1  0  0  0
 48 65  1  0  0  0
 48122  1  0  0  0
 49 50  1  0  0  0
 49 53  1  0  0  0
 49 64  1  0  0  0
 49123  1  0  0  0
 50 51  1  0  0  0
 50124  1  0  0  0
 50125  1  0  0  0
 51 52  1  0  0  0
 51126  1  0  0  0
 51127  1  0  0  0
 52128  1  0  0  0
 52129  1  0  0  0
 53 54  1  0  0  0
 54 55  2  0  0  0
 54130  1  0  0  0
 55 57  1  0  0  0
 55131  1  0  0  0
 56 69  2  0  0  0
 57 58  2  0  0  0
 57132  1  0  0  0
 58133  1  0  0  0
 59 60  1  0  0  0
 59 61  1  0  0  0
 59 62  1  0  0  0
 60134  1  0  0  0
 60135  1  0  0  0
 60136  1  0  0  0
 61137  1  0  0  0
 61138  1  0  0  0
 61139  1  0  0  0
 62140  1  0  0  0
 62141  1  0  0  0
 62142  1  0  0  0
 63 65  1  0  0  0
 63143  1  0  0  0
 63144  1  0  0  0
 63145  1  0  0  0
 64146  1  0  0  0
 65147  1  0  0  0
 68 86  1  0  0  0
 71 72  2  0  0  0
 71 74  1  0  0  0
 71148  1  0  0  0
 72 73  1  0  0  0
 72 83  1  0  0  0
 73 75  2  0  0  0
 73 86  1  0  0  0
 74 87  2  0  0  0
 74 84  1  0  0  0
 75 85  1  0  0  0
 75 87  1  0  0  0
 76 77  1  0  0  0
 76 78  1  0  0  0
 76149  1  0  0  0
 76150  1  0  0  0
 77 83  1  0  0  0
 77151  1  0  0  0
 77152  1  0  0  0
 78 83  1  0  0  0
 78153  1  0  0  0
 78154  1  0  0  0
 79 81  1  0  0  0
 79 84  1  0  0  0
 79155  1  0  0  0
 79156  1  0  0  0
 80 82  1  0  0  0
 80 84  1  0  0  0
 80157  1  0  0  0
 80158  1  0  0  0
 81 88  1  0  0  0
 81159  1  0  0  0
 81160  1  0  0  0
 82 88  1  0  0  0
 82161  1  0  0  0
 82162  1  0  0  0
 83163  1  0  0  0
 84164  1  0  0  0
 85165  1  0  0  0
 85166  1  0  0  0
 85167  1  0  0  0
 86168  1  0  0  0
 86169  1  0  0  0
M  ISO  4   1 100  68 101  86 101  88 100
M  END
> <chiral flag>
0

> <version>
0

> <s_m_source_file>
/data/baiqing/PycharmProjects/Reinvent-master-3.2/result/LINK_invent/BTK/process_docking_weight1_custom_sum_contain_oxygen_bond_distance_aromatic_linkinvent_7_9_3/rearranged_h_0175.sdf

> <i_m_source_file_index>
28

> <r_mmod_Potential_Energy-OPLS-2005>
337.330017089844

> <r_mmod_Stretch_Energy-OPLS-2005>
131.463943481445

> <r_mmod_Bend_Energy-OPLS-2005>
229.974060058594

> <r_mmod_Torsional_Energy-OPLS-2005>
346.114013671875

> <r_mmod_Improper_Torsional_Energy-OPLS-2005>
4.84272289276123

> <r_mmod_Van_der_Waal_Energy-OPLS-2005>
152.174621582031

> <r_mmod_Electrostatic_Energy-OPLS-2005>
-420.045196533203

> <r_mmod_Solvation_Energy-OPLS-2005>
-209.547119140625

> <b_mmod_Minimization_Converged-OPLS-2005>
0

> <r_mmod_RMS_Derivative-OPLS-2005>
2.77025651931763

$$$$
28
                    3D
 Structure written by MMmdl.
183192  0  0  1  0            999 V2000
  -30.7066  -14.5541   20.6050 C   0  0  0  0  0  0
  -30.4124  -12.3864   19.4269 C   0  0  0  0  0  0
  -29.4775  -12.5191   18.2069 C   0  0  0  0  0  0
  -28.0096  -12.3650   18.6437 C   0  0  0  0  0  0
  -27.6461  -13.2178   19.8861 C   0  0  2  0  0  0
  -28.7003  -13.0207   21.0008 C   0  0  0  0  0  0
  -25.2448  -13.8211   20.5818 C   0  0  0  0  0  0
  -24.1780  -13.0478   20.9315 C   0  0  0  0  0  0
  -24.6342  -11.6925   20.8848 C   0  0  0  0  0  0
  -23.9061  -10.4293   21.0458 C   0  0  0  0  0  0
  -24.3594   -9.4172   21.9189 C   0  0  0  0  0  0
  -23.6266   -8.2199   22.0747 C   0  0  0  0  0  0
  -22.4251   -8.0244   21.3530 C   0  0  0  0  0  0
  -21.9910   -9.0243   20.4635 C   0  0  0  0  0  0
  -22.7263  -10.2107   20.3050 C   0  0  0  0  0  0
  -21.6864   -6.0697   22.5274 C   0  0  0  0  0  0
  -21.4009   -6.5619   23.8211 C   0  0  0  0  0  0
  -21.3651   -5.6780   24.9184 C   0  0  0  0  0  0
  -21.6069   -4.3051   24.7259 C   0  0  0  0  0  0
  -21.8809   -3.8123   23.4397 C   0  0  0  0  0  0
  -21.9177   -4.6912   22.3431 C   0  0  0  0  0  0
  -22.7765  -13.5198   21.2024 C   0  0  0  0  0  0
  -22.1653   -4.2112   21.1008 F   0  0  0  0  0  0
  -21.5628   -3.4514   25.7777 F   0  0  0  0  0  0
  -29.9974  -13.3945   20.4271 N   0  0  0  0  0  0
  -26.2931  -12.9387   20.3484 N   0  0  0  0  0  0
  -25.9273  -11.6553   20.5846 N   0  0  0  0  0  0
  -22.0400  -12.8158   22.0510 N   0  0  0  0  0  0
  -25.4164  -15.1959   20.4378 N   0  0  0  0  0  0
  -31.8940  -14.5887   20.2626 O   0  0  0  0  0  0
  -21.6634   -6.8827   21.4225 O   0  0  0  0  0  0
  -22.3461  -14.5517   20.6870 O   0  0  0  0  0  0
  -24.6411  -31.8611   23.2063 C   0  0  0  0  0  0
  -25.9164  -32.4832   23.8408 C   0  0  1  0  0  0
  -27.1458  -27.2759   20.0666 C   0  0  0  0  0  0
  -25.5931  -33.8638   24.2374 N   0  0  0  0  0  0
  -23.4201  -30.5001   21.5723 C   0  0  2  0  0  0
  -24.8355  -28.9571   20.0962 C   0  0  0  0  0  0
  -22.7492  -29.4655   22.5008 C   0  0  0  0  0  0
  -18.0325  -28.1394   22.8495 C   0  0  0  0  0  0
  -24.1482  -36.7363   23.2657 C   0  0  0  0  0  0
  -25.9691  -30.7683   21.3716 C   0  0  0  0  0  0
  -26.0173  -29.3976   20.7081 C   0  0  0  0  0  0
  -27.1756  -28.5585   20.6935 C   0  0  0  0  0  0
  -25.9688  -26.9298   19.3629 C   0  0  0  0  0  0
  -24.8122  -27.7327   19.4136 C   0  0  0  0  0  0
  -23.6120  -29.8556   20.1767 C   0  0  0  0  0  0
  -25.4094  -36.3165   24.0365 C   0  0  1  0  0  0
  -20.5932  -28.3760   23.1326 C   0  0  2  0  0  0
  -20.6837  -26.9482   22.5473 C   0  0  0  0  0  0
  -19.5817  -26.6394   21.5292 C   0  0  0  0  0  0
  -18.1999  -26.7933   22.1721 C   0  0  0  0  0  0
  -19.1574  -28.8882   23.2927 C   0  0  0  0  0  0
  -18.9460  -30.1489   23.8930 C   0  0  0  0  0  0
  -17.6437  -30.6620   24.0519 C   0  0  0  0  0  0
  -25.9018  -34.9500   23.5163 C   0  0  0  0  0  0
  -16.5339  -29.9072   23.6249 C   0  0  0  0  0  0
  -16.7311  -28.6496   23.0293 C   0  0  0  0  0  0
  -26.4485  -31.6650   25.0791 C   0  0  0  0  0  0
  -25.3733  -31.3732   26.1506 C   0  0  0  0  0  0
  -27.0303  -30.3119   24.6126 C   0  0  0  0  0  0
  -27.6074  -32.4330   25.7552 C   0  0  0  0  0  0
  -27.5570  -37.1835   24.8457 C   0  0  0  0  0  0
  -21.4250  -29.3098   22.3728 N   0  0  0  0  0  0
  -26.4289  -37.3841   23.9381 N   0  0  0  0  0  0
  -24.7021  -31.0556   22.1077 N   0  0  0  0  0  0
  -23.4290  -28.8170   23.2983 O   0  0  0  0  0  0
  -28.2190  -26.3693   20.1222 O   0  0  0  0  0  0
  -26.5589  -34.8959   22.4729 O   0  0  0  0  0  0
  -23.5554  -32.1444   23.7372 O   0  0  0  0  0  0
  -30.5726  -16.6023   23.4553 C   0  0  0  0  0  0
  -29.9874  -16.2926   25.7906 C   0  0  0  0  0  0
  -29.2601  -16.2704   23.0529 C   0  0  0  0  0  0
  -30.9255  -16.6498   24.8134 C   0  0  0  0  0  0
  -28.6657  -15.9735   25.4326 C   0  0  0  0  0  0
  -28.2800  -16.0201   24.0637 C   0  0  0  0  0  0
  -28.5530  -17.6589   21.0029 C   0  0  0  0  0  0
  -28.9241  -16.2407   21.5430 C   0  0  1  0  0  0
  -29.8750  -18.2127   20.4733 C   0  0  1  0  0  0
  -30.5270  -16.9250   19.8916 C   0  0  2  0  0  0
  -32.2929  -17.1345   25.2291 C   0  0  0  0  0  0
  -27.7302  -15.5950   26.5796 C   0  0  0  0  0  0
  -26.8171  -15.8401   23.6834 C   0  0  0  0  0  0
  -30.2119  -16.6405   18.4033 C   0  0  0  0  0  0
  -28.5220  -21.6508   21.9773 C   0  0  0  0  0  0
  -28.6827  -23.7823   19.5697 C   0  0  0  0  0  0
  -29.0787  -20.6226   19.7097 C   0  0  0  0  0  0
  -27.8900  -24.9249   20.3402 C   0  0  0  0  0  0
  -29.5082  -21.6573   20.8066 C   0  0  1  0  0  0
  -30.0336  -15.7560   20.6660 N   0  0  0  0  0  0
  -29.7204  -23.0602   20.3521 N   0  0  0  0  0  0
  -29.9113  -19.3840   19.5246 N   0  3  0  0  0  0
  -31.4508  -12.4948   19.1095 H   0  0  0  0  0  0
  -30.3458  -11.3890   19.8570 H   0  0  0  0  0  0
  -29.7269  -11.7739   17.4532 H   0  0  0  0  0  0
  -29.6192  -13.4840   17.7305 H   0  0  0  0  0  0
  -27.8521  -11.3146   18.8711 H   0  0  0  0  0  0
  -27.3406  -12.6006   17.8169 H   0  0  0  0  0  0
  -27.6671  -14.2562   19.5657 H   0  0  0  0  0  0
  -28.7325  -11.9755   21.3094 H   0  0  0  0  0  0
  -28.4813  -13.5628   21.9177 H   0  0  0  0  0  0
  -25.2716   -9.5666   22.4776 H   0  0  0  0  0  0
  -23.9993   -7.4595   22.7471 H   0  0  0  0  0  0
  -21.0850   -8.8831   19.8921 H   0  0  0  0  0  0
  -22.3771  -10.9650   19.6140 H   0  0  0  0  0  0
  -21.2002   -7.6117   23.9721 H   0  0  0  0  0  0
  -21.1490   -6.0511   25.9101 H   0  0  0  0  0  0
  -22.0599   -2.7586   23.2927 H   0  0  0  0  0  0
  -22.3980  -11.9776   22.4859 H   0  0  0  0  0  0
  -21.0965  -13.1122   22.2632 H   0  0  0  0  0  0
  -24.6464  -15.8434   20.5778 H   0  0  0  0  0  0
  -26.2800  -15.6493   20.1717 H   0  0  0  0  0  0
  -26.7266  -32.5507   23.1169 H   0  0  0  0  0  0
  -24.9982  -33.9778   25.0472 H   0  0  0  0  0  0
  -22.7242  -31.3399   21.4563 H   0  0  0  0  0  0
  -23.3721  -35.9721   23.3307 H   0  0  0  0  0  0
  -24.3592  -36.8962   22.2071 H   0  0  0  0  0  0
  -23.7216  -37.6576   23.6637 H   0  0  0  0  0  0
  -26.0802  -31.5230   20.5985 H   0  0  0  0  0  0
  -26.8689  -30.8391   21.9692 H   0  0  0  0  0  0
  -28.1003  -28.8202   21.1880 H   0  0  0  0  0  0
  -25.9186  -26.0403   18.7466 H   0  0  0  0  0  0
  -23.8998  -27.4259   18.9115 H   0  0  0  0  0  0
  -23.7477  -30.6539   19.4475 H   0  0  0  0  0  0
  -22.7031  -29.3292   19.8658 H   0  0  0  0  0  0
  -25.1239  -36.2069   25.0859 H   0  0  0  0  0  0
  -21.0016  -28.3264   24.1438 H   0  0  0  0  0  0
  -20.5707  -26.2321   23.3626 H   0  0  0  0  0  0
  -21.6722  -26.7572   22.1255 H   0  0  0  0  0  0
  -19.6955  -25.6284   21.1372 H   0  0  0  0  0  0
  -19.6830  -27.3164   20.6811 H   0  0  0  0  0  0
  -17.4273  -26.6553   21.4149 H   0  0  0  0  0  0
  -18.0341  -26.0109   22.9158 H   0  0  0  0  0  0
  -19.7906  -30.7360   24.2323 H   0  0  0  0  0  0
  -17.4929  -31.6317   24.5093 H   0  0  0  0  0  0
  -15.5273  -30.2887   23.7554 H   0  0  0  0  0  0
  -15.8785  -28.0785   22.6906 H   0  0  0  0  0  0
  -24.5938  -30.7071   25.7816 H   0  0  0  0  0  0
  -24.8901  -32.2862   26.4965 H   0  0  0  0  0  0
  -25.8035  -30.8912   27.0292 H   0  0  0  0  0  0
  -26.2857  -29.6923   24.1088 H   0  0  0  0  0  0
  -27.4040  -29.7242   25.4533 H   0  0  0  0  0  0
  -27.8727  -30.4514   23.9316 H   0  0  0  0  0  0
  -27.2741  -33.3634   26.2162 H   0  0  0  0  0  0
  -28.3848  -32.6878   25.0335 H   0  0  0  0  0  0
  -28.0786  -31.8419   26.5417 H   0  0  0  0  0  0
  -28.2606  -38.0118   24.7497 H   0  0  0  0  0  0
  -28.1053  -36.2654   24.6285 H   0  0  0  0  0  0
  -27.2311  -37.1461   25.8876 H   0  0  0  0  0  0
  -20.9427  -29.8908   21.7021 H   0  0  0  0  0  0
  -26.0186  -38.2929   24.1391 H   0  0  0  0  0  0
  -31.3088  -16.8476   22.7046 H   0  0  0  0  0  0
  -30.2776  -16.2934   26.8324 H   0  0  0  0  0  0
  -28.1036  -18.3049   21.7593 H   0  0  0  0  0  0
  -27.8478  -17.5667   20.1785 H   0  0  0  0  0  0
  -28.0614  -15.5997   21.4122 H   0  0  0  0  0  0
  -30.4492  -18.5399   21.3398 H   0  0  0  0  0  0
  -31.6085  -17.0395   20.0070 H   0  0  0  0  0  0
  -32.9902  -17.0354   24.3980 H   0  0  0  0  0  0
  -32.6580  -16.5617   26.0856 H   0  0  0  0  0  0
  -32.2090  -18.1857   25.5177 H   0  0  0  0  0  0
  -27.9587  -16.2230   27.4396 H   0  0  0  0  0  0
  -27.9043  -14.5552   26.8590 H   0  0  0  0  0  0
  -26.6646  -15.7204   26.4174 H   0  0  0  0  0  0
  -26.6206  -14.8431   23.3070 H   0  0  0  0  0  0
  -26.5108  -16.5860   22.9508 H   0  0  0  0  0  0
  -26.1341  -16.0028   24.5063 H   0  0  0  0  0  0
  -30.2016  -17.5204   17.7621 H   0  0  0  0  0  0
  -29.2539  -16.1295   18.2776 H   0  0  0  0  0  0
  -30.9624  -15.9668   17.9863 H   0  0  0  0  0  0
  -28.3627  -20.6333   22.3299 H   0  0  0  0  0  0
  -27.5618  -22.0575   21.6725 H   0  0  0  0  0  0
  -28.8830  -22.2240   22.8277 H   0  0  0  0  0  0
  -27.9774  -23.0646   19.1356 H   0  0  0  0  0  0
  -29.1692  -24.2046   18.6865 H   0  0  0  0  0  0
  -29.1680  -21.1246   18.7488 H   0  0  0  0  0  0
  -28.0254  -20.3698   19.8018 H   0  0  0  0  0  0
  -27.9014  -24.7058   21.4076 H   0  0  0  0  0  0
  -26.8574  -24.7086   20.0857 H   0  0  0  0  0  0
  -30.4773  -21.3402   21.1986 H   0  0  0  0  0  0
  -29.9966  -23.6559   21.1317 H   0  0  0  0  0  0
  -29.6208  -19.0319   18.6264 H   0  0  0  0  0  0
  -30.8707  -19.6774   19.4174 H   0  0  0  0  0  0
  1 25  1  0  0  0
  1 30  2  0  0  0
  1 90  1  0  0  0
  2  3  1  0  0  0
  2 25  1  0  0  0
  2 93  1  0  0  0
  2 94  1  0  0  0
  3  4  1  0  0  0
  3 95  1  0  0  0
  3 96  1  0  0  0
  4  5  1  0  0  0
  4 97  1  0  0  0
  4 98  1  0  0  0
  5  6  1  0  0  0
  5 26  1  0  0  0
  5 99  1  0  0  0
  6 25  1  0  0  0
  6100  1  0  0  0
  6101  1  0  0  0
  7  8  2  0  0  0
  7 26  1  0  0  0
  7 29  1  0  0  0
  8  9  1  0  0  0
  8 22  1  0  0  0
  9 10  1  0  0  0
  9 27  2  0  0  0
 10 11  2  0  0  0
 10 15  1  0  0  0
 11 12  1  0  0  0
 11102  1  0  0  0
 12 13  2  0  0  0
 12103  1  0  0  0
 13 14  1  0  0  0
 13 31  1  0  0  0
 14 15  2  0  0  0
 14104  1  0  0  0
 15105  1  0  0  0
 16 17  2  0  0  0
 16 21  1  0  0  0
 16 31  1  0  0  0
 17 18  1  0  0  0
 17106  1  0  0  0
 18 19  2  0  0  0
 18107  1  0  0  0
 19 20  1  0  0  0
 19 24  1  0  0  0
 20 21  2  0  0  0
 20108  1  0  0  0
 21 23  1  0  0  0
 22 28  1  0  0  0
 22 32  2  0  0  0
 26 27  1  0  0  0
 28109  1  0  0  0
 28110  1  0  0  0
 29111  1  0  0  0
 29112  1  0  0  0
 33 34  1  0  0  0
 33 66  1  0  0  0
 33 70  2  0  0  0
 34 36  1  0  0  0
 34 59  1  0  0  0
 34113  1  0  0  0
 35 44  2  0  0  0
 35 45  1  0  0  0
 35 68  1  0  0  0
 36 56  1  0  0  0
 36114  1  0  0  0
 37 39  1  0  0  0
 37 47  1  0  0  0
 37 66  1  0  0  0
 37115  1  0  0  0
 38 43  2  0  0  0
 38 46  1  0  0  0
 38 47  1  0  0  0
 39 64  1  0  0  0
 39 67  2  0  0  0
 40 52  1  0  0  0
 40 53  2  0  0  0
 40 58  1  0  0  0
 41116  1  0  0  0
 41117  1  0  0  0
 41118  1  0  0  0
 41 48  1  0  0  0
 42 43  1  0  0  0
 42 66  1  0  0  0
 42119  1  0  0  0
 42120  1  0  0  0
 43 44  1  0  0  0
 44121  1  0  0  0
 45 46  2  0  0  0
 45122  1  0  0  0
 46123  1  0  0  0
 47124  1  0  0  0
 47125  1  0  0  0
 48 56  1  0  0  0
 48 65  1  0  0  0
 48126  1  0  0  0
 49 50  1  0  0  0
 49 53  1  0  0  0
 49 64  1  0  0  0
 49127  1  0  0  0
 50 51  1  0  0  0
 50128  1  0  0  0
 50129  1  0  0  0
 51 52  1  0  0  0
 51130  1  0  0  0
 51131  1  0  0  0
 52132  1  0  0  0
 52133  1  0  0  0
 53 54  1  0  0  0
 54 55  2  0  0  0
 54134  1  0  0  0
 55 57  1  0  0  0
 55135  1  0  0  0
 56 69  2  0  0  0
 57 58  2  0  0  0
 57136  1  0  0  0
 58137  1  0  0  0
 59 60  1  0  0  0
 59 61  1  0  0  0
 59 62  1  0  0  0
 60138  1  0  0  0
 60139  1  0  0  0
 60140  1  0  0  0
 61141  1  0  0  0
 61142  1  0  0  0
 61143  1  0  0  0
 62144  1  0  0  0
 62145  1  0  0  0
 62146  1  0  0  0
 63 65  1  0  0  0
 63147  1  0  0  0
 63148  1  0  0  0
 63149  1  0  0  0
 64150  1  0  0  0
 65151  1  0  0  0
 68 88  1  0  0  0
 71 73  2  0  0  0
 71 74  1  0  0  0
 71152  1  0  0  0
 72 74  2  0  0  0
 72 75  1  0  0  0
 72153  1  0  0  0
 73 76  1  0  0  0
 73 78  1  0  0  0
 74 81  1  0  0  0
 75 76  2  0  0  0
 75 82  1  0  0  0
 76 83  1  0  0  0
 77 78  1  0  0  0
 77 79  1  0  0  0
 77154  1  0  0  0
 77155  1  0  0  0
 78 90  1  0  0  0
 78156  1  0  0  0
 79 80  1  0  0  0
 79 92  1  0  0  0
 79157  1  0  0  0
 80 84  1  0  0  0
 80 90  1  0  0  0
 80158  1  0  0  0
 81159  1  0  0  0
 81160  1  0  0  0
 81161  1  0  0  0
 82162  1  0  0  0
 82163  1  0  0  0
 82164  1  0  0  0
 83165  1  0  0  0
 83166  1  0  0  0
 83167  1  0  0  0
 84168  1  0  0  0
 84169  1  0  0  0
 84170  1  0  0  0
 85171  1  0  0  0
 85172  1  0  0  0
 85173  1  0  0  0
 85 89  1  0  0  0
 86 88  1  0  0  0
 86 91  1  0  0  0
 86174  1  0  0  0
 86175  1  0  0  0
 87 89  1  0  0  0
 87 92  1  0  0  0
 87176  1  0  0  0
 87177  1  0  0  0
 88178  1  0  0  0
 88179  1  0  0  0
 89 91  1  0  0  0
 89180  1  0  0  0
 91181  1  0  0  0
 92182  1  0  0  0
 92183  1  0  0  0
M  CHG  1  92   1
M  ISO  4   1 100  68 101  88 101  90 100
M  END
> <chiral flag>
0

> <version>
0

> <s_m_source_file>
/data/baiqing/PycharmProjects/Reinvent-master-3.2/result/LINK_invent/BTK/process_docking_weight1_custom_sum_contain_oxygen_bond_distance_aromatic_linkinvent_7_9_3/rearranged_h_0175.sdf

> <i_m_source_file_index>
29

> <r_mmod_Potential_Energy-OPLS-2005>
196.952453613281

> <r_mmod_Stretch_Energy-OPLS-2005>
80.3788909912109

> <r_mmod_Bend_Energy-OPLS-2005>
220.812957763672

> <r_mmod_Torsional_Energy-OPLS-2005>
387.440826416016

> <r_mmod_Improper_Torsional_Energy-OPLS-2005>
16.1431579589844

> <r_mmod_Van_der_Waal_Energy-OPLS-2005>
140.646636962891

> <r_mmod_Electrostatic_Energy-OPLS-2005>
-271.111968994141

> <r_mmod_Solvation_Energy-OPLS-2005>
-439.707183837891

> <b_mmod_Minimization_Converged-OPLS-2005>
0

> <r_mmod_RMS_Derivative-OPLS-2005>
13.3323202133179

$$$$
29
                    3D
 Structure written by MMmdl.
156165  0  0  1  0            999 V2000
  -30.4054  -15.5199   20.3647 C   0  0  0  0  0  0
  -30.4156  -12.9956   19.5293 C   0  0  0  0  0  0
  -29.5396  -12.6267   18.3038 C   0  0  0  0  0  0
  -28.1040  -12.3137   18.7366 C   0  0  0  0  0  0
  -27.5976  -13.3063   19.8109 C   0  0  2  0  0  0
  -28.6206  -13.6095   20.9293 C   0  0  0  0  0  0
  -25.2339  -13.8273   20.5791 C   0  0  0  0  0  0
  -24.1730  -13.0439   20.9291 C   0  0  0  0  0  0
  -24.6437  -11.6945   20.8722 C   0  0  0  0  0  0
  -23.9138  -10.4307   21.0369 C   0  0  0  0  0  0
  -24.3695   -9.4212   21.9146 C   0  0  0  0  0  0
  -23.6352   -8.2261   22.0743 C   0  0  0  0  0  0
  -22.4312   -8.0313   21.3561 C   0  0  0  0  0  0
  -21.9962   -9.0255   20.4635 C   0  0  0  0  0  0
  -22.7306  -10.2121   20.3009 C   0  0  0  0  0  0
  -21.6886   -6.0752   22.5290 C   0  0  0  0  0  0
  -21.4040   -6.5663   23.8221 C   0  0  0  0  0  0
  -21.3624   -5.6802   24.9173 C   0  0  0  0  0  0
  -21.6048   -4.3066   24.7241 C   0  0  0  0  0  0
  -21.8847   -3.8164   23.4355 C   0  0  0  0  0  0
  -21.9219   -4.6981   22.3403 C   0  0  0  0  0  0
  -22.7734  -13.5100   21.1968 C   0  0  0  0  0  0
  -22.1694   -4.2174   21.0963 F   0  0  0  0  0  0
  -21.5595   -3.4534   25.7723 F   0  0  0  0  0  0
  -29.8103  -14.1941   20.2713 N   0  0  0  0  0  0
  -26.2801  -12.9627   20.3217 N   0  0  0  0  0  0
  -25.9371  -11.6705   20.5657 N   0  0  0  0  0  0
  -22.0485  -12.7958   22.0483 N   0  0  0  0  0  0
  -25.3954  -15.2036   20.4243 N   0  0  0  0  0  0
  -31.6306  -15.3860   20.1668 O   0  0  0  0  0  0
  -21.6708   -6.8890   21.4238 O   0  0  0  0  0  0
  -22.3319  -14.5390   20.6850 O   0  0  0  0  0  0
  -24.6789  -31.8046   23.1446 C   0  0  0  0  0  0
  -25.9391  -32.4482   23.8003 C   0  0  1  0  0  0
  -27.2415  -26.7413   20.2092 C   0  0  0  0  0  0
  -25.5965  -33.8303   24.1912 N   0  0  0  0  0  0
  -23.5052  -30.4056   21.4969 C   0  0  2  0  0  0
  -24.9679  -28.7483   20.1060 C   0  0  0  0  0  0
  -22.7716  -29.4377   22.4637 C   0  0  0  0  0  0
  -18.0318  -28.1451   22.8468 C   0  0  0  0  0  0
  -24.1504  -36.7161   23.2634 C   0  0  0  0  0  0
  -26.0805  -30.5491   21.4005 C   0  0  0  0  0  0
  -26.1517  -29.1166   20.7554 C   0  0  0  0  0  0
  -27.2713  -28.1405   20.7762 C   0  0  0  0  0  0
  -26.0327  -26.5793   19.4861 C   0  0  0  0  0  0
  -24.9478  -27.5091   19.4400 C   0  0  0  0  0  0
  -23.7542  -29.6920   20.1349 C   0  0  0  0  0  0
  -25.4158  -36.2896   24.0260 C   0  0  1  0  0  0
  -20.5940  -28.3861   23.1122 C   0  0  2  0  0  0
  -20.6782  -26.9529   22.5415 C   0  0  0  0  0  0
  -19.5786  -26.6414   21.5202 C   0  0  0  0  0  0
  -18.1960  -26.7991   22.1599 C   0  0  0  0  0  0
  -19.1575  -28.8961   23.2808 C   0  0  0  0  0  0
  -18.9476  -30.1501   23.8929 C   0  0  0  0  0  0
  -17.6470  -30.6645   24.0549 C   0  0  0  0  0  0
  -25.9149  -34.9293   23.4943 C   0  0  0  0  0  0
  -16.5357  -29.9143   23.6338 C   0  0  0  0  0  0
  -16.7300  -28.6541   23.0430 C   0  0  0  0  0  0
  -26.4610  -31.6437   25.0570 C   0  0  0  0  0  0
  -25.3721  -31.3688   26.1190 C   0  0  0  0  0  0
  -27.0481  -30.2741   24.6419 C   0  0  0  0  0  0
  -27.6086  -32.4284   25.7402 C   0  0  0  0  0  0
  -27.5571  -37.1719   24.8460 C   0  0  0  0  0  0
  -21.4364  -29.3097   22.3402 N   0  0  0  0  0  0
  -26.4277  -37.3645   23.9409 N   0  0  0  0  0  0
  -24.7777  -30.9536   22.0666 N   0  0  0  0  0  0
  -23.4164  -28.7988   23.2995 O   0  0  0  0  0  0
  -28.2096  -25.5478   20.3785 O   0  0  0  0  0  0
  -26.5818  -34.8856   22.4565 O   0  0  0  0  0  0
  -23.5844  -32.1113   23.6469 O   0  0  0  0  0  0
  -28.9024  -20.6458   20.4690 C   0  0  0  0  0  0
  -28.5500  -19.4914   21.3428 C   0  0  0  0  0  0
  -28.4350  -22.1993   20.7072 C   0  0  0  0  0  0
  -27.7878  -19.9000   22.4589 C   0  0  0  0  0  0
  -27.7575  -22.2285   21.9539 C   0  0  0  0  0  0
  -29.7533  -19.7971   19.3924 C   0  0  0  0  0  0
  -28.8091  -17.8001   21.2031 C   0  0  0  0  0  0
  -30.4519  -18.2424   19.6914 C   0  0  0  0  0  0
  -27.1722  -18.9145   23.4410 C   0  0  0  0  0  0
  -27.2191  -23.5167   22.5432 C   0  0  0  0  0  0
  -28.3217  -23.8631   19.9019 C   0  0  0  0  0  0
  -27.4702  -21.1718   22.7455 N   0  0  0  0  0  0
  -29.7947  -16.9521   20.3087 N   0  0  0  0  0  0
  -31.4204  -13.1989   19.1631 H   0  0  0  0  0  0
  -30.5288  -12.1320   20.1861 H   0  0  0  0  0  0
  -29.9532  -11.7696   17.7720 H   0  0  0  0  0  0
  -29.5404  -13.4573   17.5955 H   0  0  0  0  0  0
  -28.0926  -11.2942   19.1317 H   0  0  0  0  0  0
  -27.4388  -12.3295   17.8694 H   0  0  0  0  0  0
  -27.4653  -14.2410   19.2648 H   0  0  0  0  0  0
  -28.8484  -12.7218   21.5202 H   0  0  0  0  0  0
  -28.2081  -14.3444   21.6195 H   0  0  0  0  0  0
  -25.2894   -9.5694   22.4669 H   0  0  0  0  0  0
  -24.0115   -7.4652   22.7420 H   0  0  0  0  0  0
  -21.0947   -8.8747   19.8886 H   0  0  0  0  0  0
  -22.3812  -10.9645   19.6065 H   0  0  0  0  0  0
  -21.2038   -7.6180   23.9703 H   0  0  0  0  0  0
  -21.1414   -6.0557   25.9060 H   0  0  0  0  0  0
  -22.0657   -2.7644   23.2866 H   0  0  0  0  0  0
  -22.4261  -11.9661   22.4847 H   0  0  0  0  0  0
  -21.1035  -13.0741   22.2675 H   0  0  0  0  0  0
  -24.6236  -15.8548   20.5280 H   0  0  0  0  0  0
  -26.2278  -15.6433   20.0553 H   0  0  0  0  0  0
  -26.7455  -32.4952   23.0697 H   0  0  0  0  0  0
  -24.9932  -33.9312   24.9940 H   0  0  0  0  0  0
  -22.8352  -31.2449   21.3030 H   0  0  0  0  0  0
  -23.3758  -35.9489   23.3263 H   0  0  0  0  0  0
  -24.3580  -36.8894   22.2062 H   0  0  0  0  0  0
  -23.7278  -37.6316   23.6775 H   0  0  0  0  0  0
  -26.2796  -31.2716   20.6065 H   0  0  0  0  0  0
  -26.9339  -30.6233   22.0612 H   0  0  0  0  0  0
  -28.1621  -28.4301   21.3139 H   0  0  0  0  0  0
  -25.8832  -25.6356   18.9852 H   0  0  0  0  0  0
  -24.0563  -27.2301   18.8912 H   0  0  0  0  0  0
  -23.8958  -30.4414   19.3572 H   0  0  0  0  0  0
  -22.8648  -29.1351   19.8327 H   0  0  0  0  0  0
  -25.1366  -36.1638   25.0751 H   0  0  0  0  0  0
  -21.0071  -28.3541   24.1204 H   0  0  0  0  0  0
  -20.5627  -26.2522   23.3707 H   0  0  0  0  0  0
  -21.6684  -26.7454   22.1249 H   0  0  0  0  0  0
  -19.6983  -25.6314   21.1302 H   0  0  0  0  0  0
  -19.6720  -27.3187   20.6729 H   0  0  0  0  0  0
  -17.4213  -26.6713   21.3997 H   0  0  0  0  0  0
  -18.0381  -26.0134   22.9021 H   0  0  0  0  0  0
  -19.7930  -30.7292   24.2384 H   0  0  0  0  0  0
  -17.5019  -31.6332   24.5169 H   0  0  0  0  0  0
  -15.5386  -30.3067   23.7661 H   0  0  0  0  0  0
  -15.8671  -28.0823   22.7258 H   0  0  0  0  0  0
  -24.6040  -30.6921   25.7442 H   0  0  0  0  0  0
  -24.8749  -32.2870   26.4330 H   0  0  0  0  0  0
  -25.7913  -30.9037   27.0122 H   0  0  0  0  0  0
  -26.3129  -29.6409   24.1445 H   0  0  0  0  0  0
  -27.3928  -29.7128   25.5094 H   0  0  0  0  0  0
  -27.9142  -30.3763   23.9888 H   0  0  0  0  0  0
  -27.2655  -33.3690   26.1719 H   0  0  0  0  0  0
  -28.4017  -32.6669   25.0319 H   0  0  0  0  0  0
  -28.0636  -31.8587   26.5509 H   0  0  0  0  0  0
  -28.2510  -38.0082   24.7524 H   0  0  0  0  0  0
  -28.1137  -36.2579   24.6266 H   0  0  0  0  0  0
  -27.2288  -37.1368   25.8863 H   0  0  0  0  0  0
  -20.9676  -29.8700   21.6412 H   0  0  0  0  0  0
  -26.0090  -38.2685   24.1418 H   0  0  0  0  0  0
  -30.5677  -20.4489   19.0761 H   0  0  0  0  0  0
  -29.1109  -19.6894   18.5152 H   0  0  0  0  0  0
  -27.8140  -17.3827   21.0270 H   0  0  0  0  0  0
  -29.0885  -17.4508   22.1936 H   0  0  0  0  0  0
  -31.3120  -18.4325   20.3339 H   0  0  0  0  0  0
  -30.8927  -17.9083   18.7528 H   0  0  0  0  0  0
  -27.8497  -18.1146   23.7327 H   0  0  0  0  0  0
  -26.2818  -18.4862   22.9816 H   0  0  0  0  0  0
  -26.8611  -19.3992   24.3674 H   0  0  0  0  0  0
  -26.5265  -24.0033   21.8570 H   0  0  0  0  0  0
  -28.0392  -24.1940   22.7747 H   0  0  0  0  0  0
  -26.6693  -23.3310   23.4665 H   0  0  0  0  0  0
  -27.5207  -23.7464   19.1701 H   0  0  0  0  0  0
  -29.2283  -23.8812   19.2964 H   0  0  0  0  0  0
  1 25  1  0  0  0
  1 30  2  0  0  0
  1 83  1  0  0  0
  2  3  1  0  0  0
  2 25  1  0  0  0
  2 84  1  0  0  0
  2 85  1  0  0  0
  3  4  1  0  0  0
  3 86  1  0  0  0
  3 87  1  0  0  0
  4  5  1  0  0  0
  4 88  1  0  0  0
  4 89  1  0  0  0
  5  6  1  0  0  0
  5 26  1  0  0  0
  5 90  1  0  0  0
  6 25  1  0  0  0
  6 91  1  0  0  0
  6 92  1  0  0  0
  7  8  2  0  0  0
  7 26  1  0  0  0
  7 29  1  0  0  0
  8  9  1  0  0  0
  8 22  1  0  0  0
  9 10  1  0  0  0
  9 27  2  0  0  0
 10 11  2  0  0  0
 10 15  1  0  0  0
 11 12  1  0  0  0
 11 93  1  0  0  0
 12 13  2  0  0  0
 12 94  1  0  0  0
 13 14  1  0  0  0
 13 31  1  0  0  0
 14 15  2  0  0  0
 14 95  1  0  0  0
 15 96  1  0  0  0
 16 17  2  0  0  0
 16 21  1  0  0  0
 16 31  1  0  0  0
 17 18  1  0  0  0
 17 97  1  0  0  0
 18 19  2  0  0  0
 18 98  1  0  0  0
 19 20  1  0  0  0
 19 24  1  0  0  0
 20 21  2  0  0  0
 20 99  1  0  0  0
 21 23  1  0  0  0
 22 28  1  0  0  0
 22 32  2  0  0  0
 26 27  1  0  0  0
 28100  1  0  0  0
 28101  1  0  0  0
 29102  1  0  0  0
 29103  1  0  0  0
 33 34  1  0  0  0
 33 66  1  0  0  0
 33 70  2  0  0  0
 34 36  1  0  0  0
 34 59  1  0  0  0
 34104  1  0  0  0
 35 44  2  0  0  0
 35 45  1  0  0  0
 35 68  1  0  0  0
 36 56  1  0  0  0
 36105  1  0  0  0
 37 39  1  0  0  0
 37 47  1  0  0  0
 37 66  1  0  0  0
 37106  1  0  0  0
 38 43  2  0  0  0
 38 46  1  0  0  0
 38 47  1  0  0  0
 39 64  1  0  0  0
 39 67  2  0  0  0
 40 52  1  0  0  0
 40 53  2  0  0  0
 40 58  1  0  0  0
 41107  1  0  0  0
 41108  1  0  0  0
 41109  1  0  0  0
 41 48  1  0  0  0
 42 43  1  0  0  0
 42 66  1  0  0  0
 42110  1  0  0  0
 42111  1  0  0  0
 43 44  1  0  0  0
 44112  1  0  0  0
 45 46  2  0  0  0
 45113  1  0  0  0
 46114  1  0  0  0
 47115  1  0  0  0
 47116  1  0  0  0
 48 56  1  0  0  0
 48 65  1  0  0  0
 48117  1  0  0  0
 49 50  1  0  0  0
 49 53  1  0  0  0
 49 64  1  0  0  0
 49118  1  0  0  0
 50 51  1  0  0  0
 50119  1  0  0  0
 50120  1  0  0  0
 51 52  1  0  0  0
 51121  1  0  0  0
 51122  1  0  0  0
 52123  1  0  0  0
 52124  1  0  0  0
 53 54  1  0  0  0
 54 55  2  0  0  0
 54125  1  0  0  0
 55 57  1  0  0  0
 55126  1  0  0  0
 56 69  2  0  0  0
 57 58  2  0  0  0
 57127  1  0  0  0
 58128  1  0  0  0
 59 60  1  0  0  0
 59 61  1  0  0  0
 59 62  1  0  0  0
 60129  1  0  0  0
 60130  1  0  0  0
 60131  1  0  0  0
 61132  1  0  0  0
 61133  1  0  0  0
 61134  1  0  0  0
 62135  1  0  0  0
 62136  1  0  0  0
 62137  1  0  0  0
 63 65  1  0  0  0
 63138  1  0  0  0
 63139  1  0  0  0
 63140  1  0  0  0
 64141  1  0  0  0
 65142  1  0  0  0
 68 81  1  0  0  0
 71 72  1  0  0  0
 71 73  2  0  0  0
 71 76  1  0  0  0
 72 74  2  0  0  0
 72 77  1  0  0  0
 73 75  1  0  0  0
 73 81  1  0  0  0
 74 79  1  0  0  0
 74 82  1  0  0  0
 75 80  1  0  0  0
 75 82  2  0  0  0
 76 78  1  0  0  0
 76143  1  0  0  0
 76144  1  0  0  0
 77 83  1  0  0  0
 77145  1  0  0  0
 77146  1  0  0  0
 78 83  1  0  0  0
 78147  1  0  0  0
 78148  1  0  0  0
 79149  1  0  0  0
 79150  1  0  0  0
 79151  1  0  0  0
 80152  1  0  0  0
 80153  1  0  0  0
 80154  1  0  0  0
 81155  1  0  0  0
 81156  1  0  0  0
M  ISO  4   1 100  68 101  81 101  83 100
M  END
> <chiral flag>
0

> <version>
0

> <s_m_source_file>
/data/baiqing/PycharmProjects/Reinvent-master-3.2/result/LINK_invent/BTK/process_docking_weight1_custom_sum_contain_oxygen_bond_distance_aromatic_linkinvent_7_9_3/rearranged_h_0175.sdf

> <i_m_source_file_index>
30

> <r_mmod_Potential_Energy-OPLS-2005>
2170.80883789062

> <r_mmod_Stretch_Energy-OPLS-2005>
894.200378417969

> <r_mmod_Bend_Energy-OPLS-2005>
719.957336425781

> <r_mmod_Torsional_Energy-OPLS-2005>
292.109161376953

> <r_mmod_Improper_Torsional_Energy-OPLS-2005>
13.9300851821899

> <r_mmod_Van_der_Waal_Energy-OPLS-2005>
135.72509765625

> <r_mmod_Electrostatic_Energy-OPLS-2005>
-424.784118652344

> <r_mmod_Solvation_Energy-OPLS-2005>
-224.173812866211

> <b_mmod_Minimization_Converged-OPLS-2005>
0

> <r_mmod_RMS_Derivative-OPLS-2005>
6.91326951980591

$$$$
30
                    3D
 Structure written by MMmdl.
162171  0  0  1  0            999 V2000
  -30.7060  -14.7603   20.4838 C   0  0  0  0  0  0
  -30.4076  -12.4823   19.4816 C   0  0  0  0  0  0
  -29.4952  -12.4932   18.2395 C   0  0  0  0  0  0
  -28.0326  -12.2841   18.6650 C   0  0  0  0  0  0
  -27.6257  -13.2156   19.8328 C   0  0  2  0  0  0
  -28.6745  -13.2438   20.9721 C   0  0  0  0  0  0
  -25.2478  -13.8148   20.5716 C   0  0  0  0  0  0
  -24.1767  -13.0417   20.9237 C   0  0  0  0  0  0
  -24.6344  -11.6888   20.8779 C   0  0  0  0  0  0
  -23.9029  -10.4274   21.0428 C   0  0  0  0  0  0
  -24.3591   -9.4192   21.9200 C   0  0  0  0  0  0
  -23.6275   -8.2225   22.0757 C   0  0  0  0  0  0
  -22.4260   -8.0264   21.3544 C   0  0  0  0  0  0
  -21.9892   -9.0236   20.4645 C   0  0  0  0  0  0
  -22.7211  -10.2119   20.3064 C   0  0  0  0  0  0
  -21.6844   -6.0726   22.5279 C   0  0  0  0  0  0
  -21.4008   -6.5632   23.8212 C   0  0  0  0  0  0
  -21.3660   -5.6786   24.9176 C   0  0  0  0  0  0
  -21.6044   -4.3050   24.7224 C   0  0  0  0  0  0
  -21.8820   -3.8140   23.4347 C   0  0  0  0  0  0
  -21.9188   -4.6955   22.3403 C   0  0  0  0  0  0
  -22.7797  -13.5215   21.1887 C   0  0  0  0  0  0
  -22.1659   -4.2140   21.0981 F   0  0  0  0  0  0
  -21.5628   -3.4537   25.7739 F   0  0  0  0  0  0
  -29.9708  -13.5902   20.3759 N   0  0  0  0  0  0
  -26.2858  -12.9311   20.3257 N   0  0  0  0  0  0
  -25.9261  -11.6477   20.5779 N   0  0  0  0  0  0
  -22.0438  -12.8207   22.0437 N   0  0  0  0  0  0
  -25.4182  -15.1872   20.4134 N   0  0  0  0  0  0
  -31.8951  -14.7064   20.1574 O   0  0  0  0  0  0
  -21.6631   -6.8862   21.4239 O   0  0  0  0  0  0
  -22.3494  -14.5525   20.6730 O   0  0  0  0  0  0
  -24.6331  -31.8568   23.2030 C   0  0  0  0  0  0
  -25.9157  -32.4765   23.8366 C   0  0  1  0  0  0
  -27.2036  -27.2454   20.1237 C   0  0  0  0  0  0
  -25.5954  -33.8568   24.2281 N   0  0  0  0  0  0
  -23.4295  -30.4845   21.5471 C   0  0  2  0  0  0
  -24.8752  -28.9457   20.1067 C   0  0  0  0  0  0
  -22.7516  -29.4603   22.4902 C   0  0  0  0  0  0
  -18.0294  -28.1379   22.8481 C   0  0  0  0  0  0
  -24.1494  -36.7276   23.2638 C   0  0  0  0  0  0
  -25.9809  -30.7629   21.3916 C   0  0  0  0  0  0
  -26.0502  -29.3881   20.7278 C   0  0  0  0  0  0
  -27.2160  -28.5493   20.7332 C   0  0  0  0  0  0
  -26.0083  -26.9054   19.4391 C   0  0  0  0  0  0
  -24.8610  -27.7122   19.4510 C   0  0  0  0  0  0
  -23.6485  -29.8329   20.1592 C   0  0  0  0  0  0
  -25.4122  -36.3069   24.0327 C   0  0  1  0  0  0
  -20.5903  -28.3696   23.1252 C   0  0  2  0  0  0
  -20.6784  -26.9411   22.5396 C   0  0  0  0  0  0
  -19.5756  -26.6378   21.5202 C   0  0  0  0  0  0
  -18.1937  -26.7920   22.1617 C   0  0  0  0  0  0
  -19.1551  -28.8854   23.2861 C   0  0  0  0  0  0
  -18.9471  -30.1452   23.8880 C   0  0  0  0  0  0
  -17.6471  -30.6582   24.0554 C   0  0  0  0  0  0
  -25.9066  -34.9441   23.5103 C   0  0  0  0  0  0
  -16.5359  -29.9076   23.6332 C   0  0  0  0  0  0
  -16.7280  -28.6492   23.0358 C   0  0  0  0  0  0
  -26.4516  -31.6589   25.0756 C   0  0  0  0  0  0
  -25.3733  -31.3731   26.1466 C   0  0  0  0  0  0
  -27.0379  -30.3003   24.6268 C   0  0  0  0  0  0
  -27.6062  -32.4343   25.7528 C   0  0  0  0  0  0
  -27.5581  -37.1796   24.8463 C   0  0  0  0  0  0
  -21.4222  -29.3046   22.3643 N   0  0  0  0  0  0
  -26.4290  -37.3773   23.9411 N   0  0  0  0  0  0
  -24.7001  -31.0525   22.1022 N   0  0  0  0  0  0
  -23.4215  -28.8125   23.2987 O   0  0  0  0  0  0
  -28.2526  -26.2851   20.2249 O   0  0  0  0  0  0
  -26.5625  -34.8909   22.4664 O   0  0  0  0  0  0
  -23.5476  -32.1400   23.7308 O   0  0  0  0  0  0
  -28.9390  -21.6184   21.8473 C   0  0  0  0  0  0
  -28.6304  -22.9946   21.5859 C   0  0  0  0  0  0
  -28.6335  -23.5021   20.2550 C   0  0  0  0  0  0
  -29.2498  -20.6984   20.8093 C   0  0  0  0  0  0
  -29.0195  -22.5172   19.2815 C   0  0  0  0  0  0
  -28.5924  -18.0863   20.3766 C   0  0  0  0  0  0
  -30.9162  -18.5664   20.8883 C   0  0  0  0  0  0
  -28.7958  -16.5570   20.7867 C   0  0  0  0  0  0
  -31.0973  -17.0833   21.4060 C   0  0  0  0  0  0
  -29.4933  -19.1369   21.0948 C   0  0  0  0  0  0
  -28.2183  -23.8920   22.7374 C   0  0  0  0  0  0
  -29.0495  -22.8538   17.8026 C   0  0  0  0  0  0
  -27.9017  -24.8694   19.8388 C   0  0  0  0  0  0
  -29.3206  -21.1981   19.5467 N   0  0  0  0  0  0
  -30.1878  -16.0170   20.8630 N   0  0  0  0  0  0
  -31.4489  -12.5666   19.1672 H   0  0  0  0  0  0
  -30.3391  -11.5252   20.0012 H   0  0  0  0  0  0
  -29.7954  -11.7110   17.5412 H   0  0  0  0  0  0
  -29.5978  -13.4400   17.7069 H   0  0  0  0  0  0
  -27.9225  -11.2421   18.9679 H   0  0  0  0  0  0
  -27.3644  -12.4259   17.8147 H   0  0  0  0  0  0
  -27.5760  -14.1916   19.3648 H   0  0  0  0  0  0
  -28.7298  -12.2763   21.4730 H   0  0  0  0  0  0
  -28.3949  -13.9660   21.7394 H   0  0  0  0  0  0
  -25.2729   -9.5677   22.4783 H   0  0  0  0  0  0
  -23.9985   -7.4616   22.7475 H   0  0  0  0  0  0
  -21.0826   -8.8752   19.8948 H   0  0  0  0  0  0
  -22.3669  -10.9663   19.6176 H   0  0  0  0  0  0
  -21.2005   -7.6142   23.9713 H   0  0  0  0  0  0
  -21.1480   -6.0518   25.9078 H   0  0  0  0  0  0
  -22.0599   -2.7601   23.2851 H   0  0  0  0  0  0
  -22.4051  -11.9863   22.4819 H   0  0  0  0  0  0
  -21.1059  -13.1233   22.2649 H   0  0  0  0  0  0
  -24.6518  -15.8407   20.5322 H   0  0  0  0  0  0
  -26.2708  -15.6294   20.0976 H   0  0  0  0  0  0
  -26.7218  -32.5412   23.1099 H   0  0  0  0  0  0
  -25.0126  -33.9716   25.0442 H   0  0  0  0  0  0
  -22.7251  -31.3070   21.4065 H   0  0  0  0  0  0
  -23.3764  -35.9597   23.3286 H   0  0  0  0  0  0
  -24.3580  -36.8916   22.2054 H   0  0  0  0  0  0
  -23.7241  -37.6469   23.6675 H   0  0  0  0  0  0
  -26.1296  -31.5257   20.6261 H   0  0  0  0  0  0
  -26.8548  -30.8039   22.0300 H   0  0  0  0  0  0
  -28.1066  -28.8755   21.2521 H   0  0  0  0  0  0
  -25.8956  -25.9824   18.8924 H   0  0  0  0  0  0
  -23.9679  -27.3749   18.9432 H   0  0  0  0  0  0
  -23.7758  -30.6159   19.4107 H   0  0  0  0  0  0
  -22.7657  -29.2711   19.8482 H   0  0  0  0  0  0
  -25.1304  -36.1916   25.0820 H   0  0  0  0  0  0
  -20.9991  -28.3278   24.1372 H   0  0  0  0  0  0
  -20.5688  -26.2308   23.3603 H   0  0  0  0  0  0
  -21.6651  -26.7434   22.1187 H   0  0  0  0  0  0
  -19.6920  -25.6287   21.1239 H   0  0  0  0  0  0
  -19.6693  -27.3178   20.6722 H   0  0  0  0  0  0
  -17.4208  -26.6662   21.4020 H   0  0  0  0  0  0
  -18.0333  -26.0060   22.9012 H   0  0  0  0  0  0
  -19.7947  -30.7264   24.2250 H   0  0  0  0  0  0
  -17.5027  -31.6260   24.5155 H   0  0  0  0  0  0
  -15.5361  -30.2973   23.7665 H   0  0  0  0  0  0
  -15.8677  -28.0804   22.7090 H   0  0  0  0  0  0
  -24.5915  -30.7078   25.7782 H   0  0  0  0  0  0
  -24.8916  -32.2895   26.4880 H   0  0  0  0  0  0
  -25.8041  -30.8912   27.0251 H   0  0  0  0  0  0
  -26.2979  -29.6737   24.1274 H   0  0  0  0  0  0
  -27.4025  -29.7280   25.4807 H   0  0  0  0  0  0
  -27.8871  -30.4265   23.9551 H   0  0  0  0  0  0
  -27.2672  -33.3668   26.2047 H   0  0  0  0  0  0
  -28.3892  -32.6864   25.0367 H   0  0  0  0  0  0
  -28.0700  -31.8511   26.5490 H   0  0  0  0  0  0
  -28.2582  -38.0112   24.7535 H   0  0  0  0  0  0
  -28.1098  -36.2641   24.6267 H   0  0  0  0  0  0
  -27.2293  -37.1412   25.8864 H   0  0  0  0  0  0
  -20.9404  -29.8800   21.6876 H   0  0  0  0  0  0
  -26.0165  -38.2841   24.1431 H   0  0  0  0  0  0
  -28.8932  -21.2521   22.8646 H   0  0  0  0  0  0
  -27.5477  -18.3539   20.5392 H   0  0  0  0  0  0
  -28.7508  -18.1829   19.3018 H   0  0  0  0  0  0
  -31.1831  -18.6262   19.8326 H   0  0  0  0  0  0
  -31.6264  -19.2077   21.4117 H   0  0  0  0  0  0
  -28.2355  -15.9817   20.0647 H   0  0  0  0  0  0
  -28.3252  -16.3840   21.7552 H   0  0  0  0  0  0
  -30.9596  -17.0810   22.4880 H   0  0  0  0  0  0
  -32.1471  -16.8225   21.2673 H   0  0  0  0  0  0
  -29.2808  -19.0275   22.1592 H   0  0  0  0  0  0
  -28.3612  -23.3996   23.6993 H   0  0  0  0  0  0
  -27.1666  -24.1658   22.6547 H   0  0  0  0  0  0
  -28.8115  -24.8067   22.7396 H   0  0  0  0  0  0
  -29.5676  -23.7973   17.6317 H   0  0  0  0  0  0
  -28.0351  -22.9354   17.4114 H   0  0  0  0  0  0
  -29.5668  -22.0868   17.2258 H   0  0  0  0  0  0
  -26.9051  -24.6696   20.2338 H   0  0  0  0  0  0
  -27.7921  -24.8779   18.7564 H   0  0  0  0  0  0
  1 25  1  0  0  0
  1 30  2  0  0  0
  1 85  1  0  0  0
  2  3  1  0  0  0
  2 25  1  0  0  0
  2 86  1  0  0  0
  2 87  1  0  0  0
  3  4  1  0  0  0
  3 88  1  0  0  0
  3 89  1  0  0  0
  4  5  1  0  0  0
  4 90  1  0  0  0
  4 91  1  0  0  0
  5  6  1  0  0  0
  5 26  1  0  0  0
  5 92  1  0  0  0
  6 25  1  0  0  0
  6 93  1  0  0  0
  6 94  1  0  0  0
  7  8  2  0  0  0
  7 26  1  0  0  0
  7 29  1  0  0  0
  8  9  1  0  0  0
  8 22  1  0  0  0
  9 10  1  0  0  0
  9 27  2  0  0  0
 10 11  2  0  0  0
 10 15  1  0  0  0
 11 12  1  0  0  0
 11 95  1  0  0  0
 12 13  2  0  0  0
 12 96  1  0  0  0
 13 14  1  0  0  0
 13 31  1  0  0  0
 14 15  2  0  0  0
 14 97  1  0  0  0
 15 98  1  0  0  0
 16 17  2  0  0  0
 16 21  1  0  0  0
 16 31  1  0  0  0
 17 18  1  0  0  0
 17 99  1  0  0  0
 18 19  2  0  0  0
 18100  1  0  0  0
 19 20  1  0  0  0
 19 24  1  0  0  0
 20 21  2  0  0  0
 20101  1  0  0  0
 21 23  1  0  0  0
 22 28  1  0  0  0
 22 32  2  0  0  0
 26 27  1  0  0  0
 28102  1  0  0  0
 28103  1  0  0  0
 29104  1  0  0  0
 29105  1  0  0  0
 33 34  1  0  0  0
 33 66  1  0  0  0
 33 70  2  0  0  0
 34 36  1  0  0  0
 34 59  1  0  0  0
 34106  1  0  0  0
 35 44  2  0  0  0
 35 45  1  0  0  0
 35 68  1  0  0  0
 36 56  1  0  0  0
 36107  1  0  0  0
 37 39  1  0  0  0
 37 47  1  0  0  0
 37 66  1  0  0  0
 37108  1  0  0  0
 38 43  2  0  0  0
 38 46  1  0  0  0
 38 47  1  0  0  0
 39 64  1  0  0  0
 39 67  2  0  0  0
 40 52  1  0  0  0
 40 53  2  0  0  0
 40 58  1  0  0  0
 41109  1  0  0  0
 41110  1  0  0  0
 41111  1  0  0  0
 41 48  1  0  0  0
 42 43  1  0  0  0
 42 66  1  0  0  0
 42112  1  0  0  0
 42113  1  0  0  0
 43 44  1  0  0  0
 44114  1  0  0  0
 45 46  2  0  0  0
 45115  1  0  0  0
 46116  1  0  0  0
 47117  1  0  0  0
 47118  1  0  0  0
 48 56  1  0  0  0
 48 65  1  0  0  0
 48119  1  0  0  0
 49 50  1  0  0  0
 49 53  1  0  0  0
 49 64  1  0  0  0
 49120  1  0  0  0
 50 51  1  0  0  0
 50121  1  0  0  0
 50122  1  0  0  0
 51 52  1  0  0  0
 51123  1  0  0  0
 51124  1  0  0  0
 52125  1  0  0  0
 52126  1  0  0  0
 53 54  1  0  0  0
 54 55  2  0  0  0
 54127  1  0  0  0
 55 57  1  0  0  0
 55128  1  0  0  0
 56 69  2  0  0  0
 57 58  2  0  0  0
 57129  1  0  0  0
 58130  1  0  0  0
 59 60  1  0  0  0
 59 61  1  0  0  0
 59 62  1  0  0  0
 60131  1  0  0  0
 60132  1  0  0  0
 60133  1  0  0  0
 61134  1  0  0  0
 61135  1  0  0  0
 61136  1  0  0  0
 62137  1  0  0  0
 62138  1  0  0  0
 62139  1  0  0  0
 63 65  1  0  0  0
 63140  1  0  0  0
 63141  1  0  0  0
 63142  1  0  0  0
 64143  1  0  0  0
 65144  1  0  0  0
 68 83  1  0  0  0
 71 72  2  0  0  0
 71 74  1  0  0  0
 71145  1  0  0  0
 72 73  1  0  0  0
 72 81  1  0  0  0
 73 75  2  0  0  0
 73 83  1  0  0  0
 74 84  2  0  0  0
 74 80  1  0  0  0
 75 82  1  0  0  0
 75 84  1  0  0  0
 76 78  1  0  0  0
 76 80  1  0  0  0
 76146  1  0  0  0
 76147  1  0  0  0
 77 79  1  0  0  0
 77 80  1  0  0  0
 77148  1  0  0  0
 77149  1  0  0  0
 78 85  1  0  0  0
 78150  1  0  0  0
 78151  1  0  0  0
 79 85  1  0  0  0
 79152  1  0  0  0
 79153  1  0  0  0
 80154  1  0  0  0
 81155  1  0  0  0
 81156  1  0  0  0
 81157  1  0  0  0
 82158  1  0  0  0
 82159  1  0  0  0
 82160  1  0  0  0
 83161  1  0  0  0
 83162  1  0  0  0
M  ISO  4   1 100  68 101  83 101  85 100
M  END
> <chiral flag>
0

> <version>
0

> <s_m_source_file>
/data/baiqing/PycharmProjects/Reinvent-master-3.2/result/LINK_invent/BTK/process_docking_weight1_custom_sum_contain_oxygen_bond_distance_aromatic_linkinvent_7_9_3/rearranged_h_0175.sdf

> <i_m_source_file_index>
31

> <r_mmod_Potential_Energy-OPLS-2005>
301.02099609375

> <r_mmod_Stretch_Energy-OPLS-2005>
125.49885559082

> <r_mmod_Bend_Energy-OPLS-2005>
217.823623657227

> <r_mmod_Torsional_Energy-OPLS-2005>
305.302520751953

> <r_mmod_Improper_Torsional_Energy-OPLS-2005>
5.10943555831909

> <r_mmod_Van_der_Waal_Energy-OPLS-2005>
161.810699462891

> <r_mmod_Electrostatic_Energy-OPLS-2005>
-408.667022705078

> <r_mmod_Solvation_Energy-OPLS-2005>
-213.101165771484

> <b_mmod_Minimization_Converged-OPLS-2005>
0

> <r_mmod_RMS_Derivative-OPLS-2005>
0.73774790763855

$$$$
31
                    3D
 Structure written by MMmdl.
165174  0  0  1  0            999 V2000
  -30.6191  -14.8902   20.4304 C   0  0  0  0  0  0
  -30.4196  -12.5555   19.4910 C   0  0  0  0  0  0
  -29.5070  -12.5181   18.2479 C   0  0  0  0  0  0
  -28.0403  -12.3211   18.6689 C   0  0  0  0  0  0
  -27.6263  -13.2542   19.8378 C   0  0  2  0  0  0
  -28.6718  -13.2917   20.9724 C   0  0  0  0  0  0
  -25.2452  -13.8244   20.5732 C   0  0  0  0  0  0
  -24.1775  -13.0455   20.9244 C   0  0  0  0  0  0
  -24.6397  -11.6943   20.8771 C   0  0  0  0  0  0
  -23.9089  -10.4299   21.0410 C   0  0  0  0  0  0
  -24.3634   -9.4209   21.9184 C   0  0  0  0  0  0
  -23.6304   -8.2246   22.0755 C   0  0  0  0  0  0
  -22.4291   -8.0283   21.3544 C   0  0  0  0  0  0
  -21.9929   -9.0259   20.4646 C   0  0  0  0  0  0
  -22.7260  -10.2131   20.3053 C   0  0  0  0  0  0
  -21.6859   -6.0745   22.5279 C   0  0  0  0  0  0
  -21.4012   -6.5647   23.8210 C   0  0  0  0  0  0
  -21.3659   -5.6799   24.9173 C   0  0  0  0  0  0
  -21.6042   -4.3061   24.7224 C   0  0  0  0  0  0
  -21.8821   -3.8152   23.4342 C   0  0  0  0  0  0
  -21.9191   -4.6970   22.3400 C   0  0  0  0  0  0
  -22.7790  -13.5213   21.1884 C   0  0  0  0  0  0
  -22.1660   -4.2151   21.0980 F   0  0  0  0  0  0
  -21.5629   -3.4544   25.7736 F   0  0  0  0  0  0
  -29.9464  -13.6746   20.3563 N   0  0  0  0  0  0
  -26.2879  -12.9486   20.3278 N   0  0  0  0  0  0
  -25.9331  -11.6606   20.5767 N   0  0  0  0  0  0
  -22.0443  -12.8194   22.0431 N   0  0  0  0  0  0
  -25.4135  -15.1965   20.4151 N   0  0  0  0  0  0
  -31.8283  -14.8578   20.1752 O   0  0  0  0  0  0
  -21.6646   -6.8885   21.4239 O   0  0  0  0  0  0
  -22.3463  -14.5509   20.6715 O   0  0  0  0  0  0
  -24.6427  -31.8471   23.1912 C   0  0  0  0  0  0
  -25.9206  -32.4715   23.8286 C   0  0  1  0  0  0
  -27.2071  -27.1547   20.1357 C   0  0  0  0  0  0
  -25.5963  -33.8517   24.2205 N   0  0  0  0  0  0
  -23.4439  -30.4697   21.5381 C   0  0  2  0  0  0
  -24.8897  -28.9061   20.1076 C   0  0  0  0  0  0
  -22.7561  -29.4565   22.4876 C   0  0  0  0  0  0
  -18.0306  -28.1395   22.8491 C   0  0  0  0  0  0
  -24.1488  -36.7253   23.2639 C   0  0  0  0  0  0
  -25.9999  -30.7269   21.3853 C   0  0  0  0  0  0
  -26.0691  -29.3407   20.7254 C   0  0  0  0  0  0
  -27.2305  -28.4810   20.7247 C   0  0  0  0  0  0
  -26.0000  -26.8265   19.4743 C   0  0  0  0  0  0
  -24.8677  -27.6620   19.4661 C   0  0  0  0  0  0
  -23.6665  -29.8050   20.1550 C   0  0  0  0  0  0
  -25.4119  -36.3041   24.0326 C   0  0  1  0  0  0
  -20.5919  -28.3716   23.1244 C   0  0  2  0  0  0
  -20.6790  -26.9423   22.5401 C   0  0  0  0  0  0
  -19.5759  -26.6385   21.5214 C   0  0  0  0  0  0
  -18.1942  -26.7936   22.1627 C   0  0  0  0  0  0
  -19.1562  -28.8873   23.2861 C   0  0  0  0  0  0
  -18.9475  -30.1475   23.8880 C   0  0  0  0  0  0
  -17.6469  -30.6591   24.0571 C   0  0  0  0  0  0
  -25.9079  -34.9419   23.5070 C   0  0  0  0  0  0
  -16.5361  -29.9090   23.6342 C   0  0  0  0  0  0
  -16.7291  -28.6510   23.0360 C   0  0  0  0  0  0
  -26.4533  -31.6560   25.0706 C   0  0  0  0  0  0
  -25.3725  -31.3720   26.1401 C   0  0  0  0  0  0
  -27.0393  -30.2970   24.6240 C   0  0  0  0  0  0
  -27.6070  -32.4311   25.7489 C   0  0  0  0  0  0
  -27.5572  -37.1786   24.8472 C   0  0  0  0  0  0
  -21.4254  -29.3046   22.3622 N   0  0  0  0  0  0
  -26.4276  -37.3757   23.9425 N   0  0  0  0  0  0
  -24.7160  -31.0342   22.0939 N   0  0  0  0  0  0
  -23.4221  -28.8110   23.3011 O   0  0  0  0  0  0
  -28.2462  -26.1590   20.2076 O   0  0  0  0  0  0
  -26.5653  -34.8918   22.4648 O   0  0  0  0  0  0
  -23.5551  -32.1325   23.7148 O   0  0  0  0  0  0
  -30.7445  -21.2489   20.5856 C   0  0  0  0  0  0
  -28.4558  -21.9235   20.2315 C   0  0  0  0  0  0
  -29.4164  -20.8096   20.3959 C   0  0  0  0  0  0
  -31.0852  -22.6271   20.6045 C   0  0  0  0  0  0
  -28.8332  -23.3609   20.2706 C   0  0  0  0  0  0
  -29.6903  -18.5753   19.1888 C   0  0  0  0  0  0
  -30.5522  -17.2477   19.4747 C   0  0  0  0  0  0
  -29.0931  -16.8620   21.3227 C   0  0  0  0  0  0
  -29.3205  -18.4584   21.5539 C   0  0  2  0  0  0
  -26.9961  -21.5713   20.0045 C   0  0  0  0  0  0
  -32.5240  -23.0732   20.7758 C   0  0  0  0  0  0
  -28.4151  -18.9510   22.6927 C   0  0  0  0  0  0
  -27.8684  -24.6633   20.0512 C   0  0  0  0  0  0
  -30.1470  -23.5986   20.4565 N   0  3  0  0  0  0
  -29.1698  -19.3429   20.3538 N   0  0  0  0  0  0
  -29.9603  -16.1522   20.3209 N   0  0  0  0  0  0
  -31.4578  -12.6732   19.1782 H   0  0  0  0  0  0
  -30.3822  -11.6071   20.0297 H   0  0  0  0  0  0
  -29.8140  -11.7193   17.5716 H   0  0  0  0  0  0
  -29.6064  -13.4516   17.6909 H   0  0  0  0  0  0
  -27.9240  -11.2789   18.9687 H   0  0  0  0  0  0
  -27.3758  -12.4657   17.8156 H   0  0  0  0  0  0
  -27.5882  -14.2567   19.4102 H   0  0  0  0  0  0
  -28.7495  -12.3258   21.4734 H   0  0  0  0  0  0
  -28.3827  -14.0177   21.7340 H   0  0  0  0  0  0
  -25.2767   -9.5683   22.4781 H   0  0  0  0  0  0
  -24.0004   -7.4636   22.7483 H   0  0  0  0  0  0
  -21.0861   -8.8785   19.8948 H   0  0  0  0  0  0
  -22.3722  -10.9681   19.6173 H   0  0  0  0  0  0
  -21.2005   -7.6157   23.9714 H   0  0  0  0  0  0
  -21.1482   -6.0529   25.9077 H   0  0  0  0  0  0
  -22.0599   -2.7614   23.2840 H   0  0  0  0  0  0
  -22.4070  -11.9837   22.4774 H   0  0  0  0  0  0
  -21.1050  -13.1189   22.2642 H   0  0  0  0  0  0
  -24.6484  -15.8519   20.5301 H   0  0  0  0  0  0
  -26.2667  -15.6345   20.0917 H   0  0  0  0  0  0
  -26.7268  -32.5324   23.1014 H   0  0  0  0  0  0
  -25.0121  -33.9650   25.0359 H   0  0  0  0  0  0
  -22.7447  -31.2953   21.3880 H   0  0  0  0  0  0
  -23.3766  -35.9569   23.3289 H   0  0  0  0  0  0
  -24.3579  -36.8891   22.2054 H   0  0  0  0  0  0
  -23.7218  -37.6440   23.6679 H   0  0  0  0  0  0
  -26.1475  -31.4809   20.6107 H   0  0  0  0  0  0
  -26.8747  -30.7786   22.0217 H   0  0  0  0  0  0
  -28.1272  -28.8063   21.2331 H   0  0  0  0  0  0
  -25.8803  -25.8827   18.9662 H   0  0  0  0  0  0
  -23.9693  -27.3273   18.9652 H   0  0  0  0  0  0
  -23.7998  -30.5819   19.4014 H   0  0  0  0  0  0
  -22.7816  -29.2466   19.8442 H   0  0  0  0  0  0
  -25.1302  -36.1870   25.0817 H   0  0  0  0  0  0
  -21.0020  -28.3292   24.1364 H   0  0  0  0  0  0
  -20.5682  -26.2332   23.3619 H   0  0  0  0  0  0
  -21.6655  -26.7432   22.1197 H   0  0  0  0  0  0
  -19.6925  -25.6296   21.1245 H   0  0  0  0  0  0
  -19.6689  -27.3198   20.6748 H   0  0  0  0  0  0
  -17.4214  -26.6697   21.4027 H   0  0  0  0  0  0
  -18.0331  -26.0068   22.9008 H   0  0  0  0  0  0
  -19.7950  -30.7301   24.2223 H   0  0  0  0  0  0
  -17.5024  -31.6269   24.5176 H   0  0  0  0  0  0
  -15.5358  -30.2986   23.7675 H   0  0  0  0  0  0
  -15.8694  -28.0827   22.7073 H   0  0  0  0  0  0
  -24.5960  -30.7004   25.7723 H   0  0  0  0  0  0
  -24.8845  -32.2878   26.4741 H   0  0  0  0  0  0
  -25.8019  -30.8966   27.0229 H   0  0  0  0  0  0
  -26.2999  -29.6700   24.1244 H   0  0  0  0  0  0
  -27.4039  -29.7250   25.4780 H   0  0  0  0  0  0
  -27.8897  -30.4236   23.9537 H   0  0  0  0  0  0
  -27.2696  -33.3662   26.1975 H   0  0  0  0  0  0
  -28.3934  -32.6775   25.0341 H   0  0  0  0  0  0
  -28.0682  -31.8479   26.5470 H   0  0  0  0  0  0
  -28.2578  -38.0090   24.7531 H   0  0  0  0  0  0
  -28.1070  -36.2623   24.6278 H   0  0  0  0  0  0
  -27.2301  -37.1413   25.8875 H   0  0  0  0  0  0
  -20.9457  -29.8774   21.6815 H   0  0  0  0  0  0
  -26.0142  -38.2826   24.1425 H   0  0  0  0  0  0
  -31.5256  -20.5122   20.7036 H   0  0  0  0  0  0
  -28.8301  -18.3044   18.5744 H   0  0  0  0  0  0
  -30.2862  -19.2441   18.5654 H   0  0  0  0  0  0
  -31.5015  -17.5413   19.9258 H   0  0  0  0  0  0
  -30.8185  -16.8137   18.5095 H   0  0  0  0  0  0
  -28.0566  -16.6869   21.0327 H   0  0  0  0  0  0
  -29.2160  -16.3536   22.2798 H   0  0  0  0  0  0
  -30.3475  -18.5824   21.9033 H   0  0  0  0  0  0
  -26.8785  -20.5448   19.6570 H   0  0  0  0  0  0
  -26.5490  -22.2217   19.2532 H   0  0  0  0  0  0
  -26.4364  -21.6773   20.9336 H   0  0  0  0  0  0
  -33.2009  -22.2193   20.8061 H   0  0  0  0  0  0
  -32.6455  -23.6313   21.7040 H   0  0  0  0  0  0
  -32.8308  -23.7101   19.9458 H   0  0  0  0  0  0
  -27.3625  -18.9012   22.4112 H   0  0  0  0  0  0
  -28.6378  -19.9794   22.9772 H   0  0  0  0  0  0
  -28.5449  -18.3396   23.5862 H   0  0  0  0  0  0
  -26.9976  -24.4901   20.6836 H   0  0  0  0  0  0
  -27.5252  -24.5418   19.0244 H   0  0  0  0  0  0
  -30.4470  -24.5763   20.4683 H   0  0  0  0  0  0
  1 25  1  0  0  0
  1 30  2  0  0  0
  1 86  1  0  0  0
  2  3  1  0  0  0
  2 25  1  0  0  0
  2 87  1  0  0  0
  2 88  1  0  0  0
  3  4  1  0  0  0
  3 89  1  0  0  0
  3 90  1  0  0  0
  4  5  1  0  0  0
  4 91  1  0  0  0
  4 92  1  0  0  0
  5  6  1  0  0  0
  5 26  1  0  0  0
  5 93  1  0  0  0
  6 25  1  0  0  0
  6 94  1  0  0  0
  6 95  1  0  0  0
  7  8  2  0  0  0
  7 26  1  0  0  0
  7 29  1  0  0  0
  8  9  1  0  0  0
  8 22  1  0  0  0
  9 10  1  0  0  0
  9 27  2  0  0  0
 10 11  2  0  0  0
 10 15  1  0  0  0
 11 12  1  0  0  0
 11 96  1  0  0  0
 12 13  2  0  0  0
 12 97  1  0  0  0
 13 14  1  0  0  0
 13 31  1  0  0  0
 14 15  2  0  0  0
 14 98  1  0  0  0
 15 99  1  0  0  0
 16 17  2  0  0  0
 16 21  1  0  0  0
 16 31  1  0  0  0
 17 18  1  0  0  0
 17100  1  0  0  0
 18 19  2  0  0  0
 18101  1  0  0  0
 19 20  1  0  0  0
 19 24  1  0  0  0
 20 21  2  0  0  0
 20102  1  0  0  0
 21 23  1  0  0  0
 22 28  1  0  0  0
 22 32  2  0  0  0
 26 27  1  0  0  0
 28103  1  0  0  0
 28104  1  0  0  0
 29105  1  0  0  0
 29106  1  0  0  0
 33 34  1  0  0  0
 33 66  1  0  0  0
 33 70  2  0  0  0
 34 36  1  0  0  0
 34 59  1  0  0  0
 34107  1  0  0  0
 35 44  2  0  0  0
 35 45  1  0  0  0
 35 68  1  0  0  0
 36 56  1  0  0  0
 36108  1  0  0  0
 37 39  1  0  0  0
 37 47  1  0  0  0
 37 66  1  0  0  0
 37109  1  0  0  0
 38 43  2  0  0  0
 38 46  1  0  0  0
 38 47  1  0  0  0
 39 64  1  0  0  0
 39 67  2  0  0  0
 40 52  1  0  0  0
 40 53  2  0  0  0
 40 58  1  0  0  0
 41110  1  0  0  0
 41111  1  0  0  0
 41112  1  0  0  0
 41 48  1  0  0  0
 42 43  1  0  0  0
 42 66  1  0  0  0
 42113  1  0  0  0
 42114  1  0  0  0
 43 44  1  0  0  0
 44115  1  0  0  0
 45 46  2  0  0  0
 45116  1  0  0  0
 46117  1  0  0  0
 47118  1  0  0  0
 47119  1  0  0  0
 48 56  1  0  0  0
 48 65  1  0  0  0
 48120  1  0  0  0
 49 50  1  0  0  0
 49 53  1  0  0  0
 49 64  1  0  0  0
 49121  1  0  0  0
 50 51  1  0  0  0
 50122  1  0  0  0
 50123  1  0  0  0
 51 52  1  0  0  0
 51124  1  0  0  0
 51125  1  0  0  0
 52126  1  0  0  0
 52127  1  0  0  0
 53 54  1  0  0  0
 54 55  2  0  0  0
 54128  1  0  0  0
 55 57  1  0  0  0
 55129  1  0  0  0
 56 69  2  0  0  0
 57 58  2  0  0  0
 57130  1  0  0  0
 58131  1  0  0  0
 59 60  1  0  0  0
 59 61  1  0  0  0
 59 62  1  0  0  0
 60132  1  0  0  0
 60133  1  0  0  0
 60134  1  0  0  0
 61135  1  0  0  0
 61136  1  0  0  0
 61137  1  0  0  0
 62138  1  0  0  0
 62139  1  0  0  0
 62140  1  0  0  0
 63 65  1  0  0  0
 63141  1  0  0  0
 63142  1  0  0  0
 63143  1  0  0  0
 64144  1  0  0  0
 65145  1  0  0  0
 68 83  1  0  0  0
 71 73  2  0  0  0
 71 74  1  0  0  0
 71146  1  0  0  0
 72 73  1  0  0  0
 72 75  2  0  0  0
 72 80  1  0  0  0
 73 85  1  0  0  0
 74 81  1  0  0  0
 74 84  2  0  0  0
 75 83  1  0  0  0
 75 84  1  0  0  0
 76 77  1  0  0  0
 76 85  1  0  0  0
 76147  1  0  0  0
 76148  1  0  0  0
 77 86  1  0  0  0
 77149  1  0  0  0
 77150  1  0  0  0
 78 79  1  0  0  0
 78 86  1  0  0  0
 78151  1  0  0  0
 78152  1  0  0  0
 79 82  1  0  0  0
 79 85  1  0  0  0
 79153  1  0  0  0
 80154  1  0  0  0
 80155  1  0  0  0
 80156  1  0  0  0
 81157  1  0  0  0
 81158  1  0  0  0
 81159  1  0  0  0
 82160  1  0  0  0
 82161  1  0  0  0
 82162  1  0  0  0
 83163  1  0  0  0
 83164  1  0  0  0
 84165  1  0  0  0
M  CHG  1  84   1
M  ISO  4   1 100  68 101  83 101  86 100
M  END
> <chiral flag>
0

> <version>
0

> <s_m_source_file>
/data/baiqing/PycharmProjects/Reinvent-master-3.2/result/LINK_invent/BTK/process_docking_weight1_custom_sum_contain_oxygen_bond_distance_aromatic_linkinvent_7_9_3/rearranged_h_0175.sdf

> <i_m_source_file_index>
32

> <r_mmod_Potential_Energy-OPLS-2005>
476.775451660156

> <r_mmod_Stretch_Energy-OPLS-2005>
205.087875366211

> <r_mmod_Bend_Energy-OPLS-2005>
232.775299072266

> <r_mmod_Torsional_Energy-OPLS-2005>
362.862609863281

> <r_mmod_Improper_Torsional_Energy-OPLS-2005>
20.1959495544434

> <r_mmod_Van_der_Waal_Energy-OPLS-2005>
142.382598876953

> <r_mmod_Electrostatic_Energy-OPLS-2005>
-273.364593505859

> <r_mmod_Solvation_Energy-OPLS-2005>
-380.847106933594

> <b_mmod_Minimization_Converged-OPLS-2005>
0

> <r_mmod_RMS_Derivative-OPLS-2005>
1.41728842258453

$$$$
32
                    3D
 Structure written by MMmdl.
162171  0  0  1  0            999 V2000
  -30.5386  -15.1402   20.3947 C   0  0  0  0  0  0
  -30.4210  -12.7302   19.5059 C   0  0  0  0  0  0
  -29.5187  -12.5563   18.2647 C   0  0  0  0  0  0
  -28.0617  -12.3112   18.6926 C   0  0  0  0  0  0
  -27.6109  -13.2741   19.8227 C   0  0  2  0  0  0
  -28.6523  -13.4196   20.9523 C   0  0  0  0  0  0
  -25.2375  -13.8216   20.5759 C   0  0  0  0  0  0
  -24.1724  -13.0413   20.9251 C   0  0  0  0  0  0
  -24.6388  -11.6918   20.8758 C   0  0  0  0  0  0
  -23.9083  -10.4282   21.0402 C   0  0  0  0  0  0
  -24.3630   -9.4194   21.9178 C   0  0  0  0  0  0
  -23.6300   -8.2233   22.0748 C   0  0  0  0  0  0
  -22.4278   -8.0276   21.3543 C   0  0  0  0  0  0
  -21.9918   -9.0246   20.4644 C   0  0  0  0  0  0
  -22.7252  -10.2123   20.3050 C   0  0  0  0  0  0
  -21.6855   -6.0728   22.5280 C   0  0  0  0  0  0
  -21.4014   -6.5629   23.8213 C   0  0  0  0  0  0
  -21.3658   -5.6780   24.9175 C   0  0  0  0  0  0
  -21.6046   -4.3045   24.7226 C   0  0  0  0  0  0
  -21.8818   -3.8137   23.4348 C   0  0  0  0  0  0
  -21.9190   -4.6953   22.3404 C   0  0  0  0  0  0
  -22.7745  -13.5177   21.1894 C   0  0  0  0  0  0
  -22.1665   -4.2140   21.0982 F   0  0  0  0  0  0
  -21.5629   -3.4529   25.7738 F   0  0  0  0  0  0
  -29.8893  -13.8871   20.3103 N   0  0  0  0  0  0
  -26.2813  -12.9514   20.3238 N   0  0  0  0  0  0
  -25.9327  -11.6614   20.5725 N   0  0  0  0  0  0
  -22.0401  -12.8174   22.0458 N   0  0  0  0  0  0
  -25.4002  -15.1928   20.4219 N   0  0  0  0  0  0
  -31.7590  -15.0542   20.1915 O   0  0  0  0  0  0
  -21.6639   -6.8874   21.4243 O   0  0  0  0  0  0
  -22.3430  -14.5477   20.6724 O   0  0  0  0  0  0
  -24.6552  -31.8310   23.1775 C   0  0  0  0  0  0
  -25.9273  -32.4621   23.8208 C   0  0  1  0  0  0
  -27.2121  -27.0107   20.1670 C   0  0  0  0  0  0
  -25.5973  -33.8429   24.2120 N   0  0  0  0  0  0
  -23.4649  -30.4465   21.5250 C   0  0  2  0  0  0
  -24.9164  -28.8500   20.1104 C   0  0  0  0  0  0
  -22.7626  -29.4482   22.4813 C   0  0  0  0  0  0
  -18.0311  -28.1397   22.8469 C   0  0  0  0  0  0
  -24.1499  -36.7221   23.2645 C   0  0  0  0  0  0
  -26.0290  -30.6649   21.3949 C   0  0  0  0  0  0
  -26.0972  -29.2630   20.7392 C   0  0  0  0  0  0
  -27.2427  -28.3604   20.7486 C   0  0  0  0  0  0
  -26.0056  -26.7320   19.4884 C   0  0  0  0  0  0
  -24.8900  -27.6023   19.4675 C   0  0  0  0  0  0
  -23.6994  -29.7673   20.1484 C   0  0  0  0  0  0
  -25.4130  -36.2980   24.0311 C   0  0  1  0  0  0
  -20.5931  -28.3735   23.1206 C   0  0  2  0  0  0
  -20.6793  -26.9427   22.5397 C   0  0  0  0  0  0
  -19.5768  -26.6375   21.5204 C   0  0  0  0  0  0
  -18.1951  -26.7930   22.1617 C   0  0  0  0  0  0
  -19.1571  -28.8883   23.2823 C   0  0  0  0  0  0
  -18.9483  -30.1478   23.8852 C   0  0  0  0  0  0
  -17.6479  -30.6592   24.0548 C   0  0  0  0  0  0
  -25.9091  -34.9365   23.5026 C   0  0  0  0  0  0
  -16.5371  -29.9077   23.6336 C   0  0  0  0  0  0
  -16.7296  -28.6498   23.0356 C   0  0  0  0  0  0
  -26.4552  -31.6528   25.0699 C   0  0  0  0  0  0
  -25.3710  -31.3755   26.1379 C   0  0  0  0  0  0
  -27.0428  -30.2904   24.6366 C   0  0  0  0  0  0
  -27.6062  -32.4313   25.7493 C   0  0  0  0  0  0
  -27.5574  -37.1769   24.8465 C   0  0  0  0  0  0
  -21.4306  -29.3042   22.3568 N   0  0  0  0  0  0
  -26.4280  -37.3710   23.9412 N   0  0  0  0  0  0
  -24.7370  -31.0056   22.0865 N   0  0  0  0  0  0
  -23.4217  -28.8045   23.3020 O   0  0  0  0  0  0
  -28.2238  -25.9463   20.2549 O   0  0  0  0  0  0
  -26.5685  -34.8890   22.4614 O   0  0  0  0  0  0
  -23.5642  -32.1247   23.6918 O   0  0  0  0  0  0
  -29.0648  -23.1387   20.0511 C   0  0  0  0  0  0
  -26.9271  -23.5951   20.8312 C   0  0  0  0  0  0
  -27.1955  -22.0160   20.8051 C   0  0  0  0  0  0
  -30.0833  -19.1559   19.4055 C   0  0  0  0  0  0
  -30.7286  -17.6873   19.7931 C   0  0  0  0  0  0
  -28.9819  -17.2271   21.2459 C   0  0  0  0  0  0
  -27.9609  -24.3765   19.9781 C   0  0  1  0  0  0
  -29.1764  -20.0128   20.4206 C   0  0  2  0  0  0
  -28.2999  -18.7081   20.8841 C   0  0  1  0  0  0
  -28.4594  -21.5880   19.9760 C   0  0  2  0  0  0
  -27.1083  -18.4502   19.9458 C   0  0  0  0  0  0
  -28.0556  -21.4311   18.4888 C   0  0  0  0  0  0
  -29.9257  -16.4833   20.3038 N   0  0  0  0  0  0
  -30.2758  -23.3522   20.1494 O   0  0  0  0  0  0
  -31.4490  -12.8870   19.1771 H   0  0  0  0  0  0
  -30.4433  -11.8157   20.1019 H   0  0  0  0  0  0
  -29.8766  -11.7328   17.6455 H   0  0  0  0  0  0
  -29.5735  -13.4530   17.6447 H   0  0  0  0  0  0
  -27.9928  -11.2805   19.0404 H   0  0  0  0  0  0
  -27.3937  -12.3883   17.8338 H   0  0  0  0  0  0
  -27.5354  -14.2524   19.3462 H   0  0  0  0  0  0
  -28.7991  -12.4816   21.4894 H   0  0  0  0  0  0
  -28.3161  -14.1510   21.6878 H   0  0  0  0  0  0
  -25.2779   -9.5672   22.4741 H   0  0  0  0  0  0
  -24.0007   -7.4625   22.7467 H   0  0  0  0  0  0
  -21.0843   -8.8768   19.8957 H   0  0  0  0  0  0
  -22.3711  -10.9656   19.6152 H   0  0  0  0  0  0
  -21.2016   -7.6140   23.9715 H   0  0  0  0  0  0
  -21.1481   -6.0512   25.9076 H   0  0  0  0  0  0
  -22.0601   -2.7598   23.2846 H   0  0  0  0  0  0
  -22.4034  -11.9866   22.4885 H   0  0  0  0  0  0
  -21.1012  -13.1181   22.2635 H   0  0  0  0  0  0
  -24.6336  -15.8441   20.5467 H   0  0  0  0  0  0
  -26.2549  -15.6366   20.1127 H   0  0  0  0  0  0
  -26.7341  -32.5190   23.0927 H   0  0  0  0  0  0
  -25.0094  -33.9515   25.0251 H   0  0  0  0  0  0
  -22.7728  -31.2750   21.3605 H   0  0  0  0  0  0
  -23.3764  -35.9549   23.3274 H   0  0  0  0  0  0
  -24.3591  -36.8886   22.2066 H   0  0  0  0  0  0
  -23.7259  -37.6408   23.6708 H   0  0  0  0  0  0
  -26.1968  -31.4110   20.6167 H   0  0  0  0  0  0
  -26.8942  -30.7211   22.0439 H   0  0  0  0  0  0
  -28.1370  -28.6680   21.2724 H   0  0  0  0  0  0
  -25.8879  -25.7801   18.9929 H   0  0  0  0  0  0
  -23.9910  -27.2827   18.9591 H   0  0  0  0  0  0
  -23.8469  -30.5370   19.3898 H   0  0  0  0  0  0
  -22.8113  -29.2154   19.8351 H   0  0  0  0  0  0
  -25.1324  -36.1778   25.0803 H   0  0  0  0  0  0
  -21.0011  -28.3332   24.1332 H   0  0  0  0  0  0
  -20.5656  -26.2358   23.3629 H   0  0  0  0  0  0
  -21.6660  -26.7408   22.1215 H   0  0  0  0  0  0
  -19.6929  -25.6271   21.1268 H   0  0  0  0  0  0
  -19.6702  -27.3153   20.6707 H   0  0  0  0  0  0
  -17.4215  -26.6652   21.4028 H   0  0  0  0  0  0
  -18.0362  -26.0083   22.9026 H   0  0  0  0  0  0
  -19.7958  -30.7296   24.2207 H   0  0  0  0  0  0
  -17.5033  -31.6269   24.5152 H   0  0  0  0  0  0
  -15.5366  -30.2960   23.7693 H   0  0  0  0  0  0
  -15.8698  -28.0801   22.7094 H   0  0  0  0  0  0
  -24.5900  -30.7088   25.7702 H   0  0  0  0  0  0
  -24.8891  -32.2948   26.4714 H   0  0  0  0  0  0
  -25.7975  -30.8990   27.0216 H   0  0  0  0  0  0
  -26.3073  -29.6599   24.1358 H   0  0  0  0  0  0
  -27.3974  -29.7235   25.4985 H   0  0  0  0  0  0
  -27.9010  -30.4092   23.9750 H   0  0  0  0  0  0
  -27.2647  -33.3647   26.1975 H   0  0  0  0  0  0
  -28.3929  -32.6812   25.0363 H   0  0  0  0  0  0
  -28.0672  -31.8500   26.5489 H   0  0  0  0  0  0
  -28.2565  -38.0089   24.7512 H   0  0  0  0  0  0
  -28.1095  -36.2614   24.6280 H   0  0  0  0  0  0
  -27.2298  -37.1402   25.8870 H   0  0  0  0  0  0
  -20.9539  -29.8751   21.6725 H   0  0  0  0  0  0
  -26.0127  -38.2774   24.1399 H   0  0  0  0  0  0
  -26.9785  -23.9494   21.8611 H   0  0  0  0  0  0
  -25.9156  -23.8131   20.4874 H   0  0  0  0  0  0
  -26.3052  -21.5131   20.4273 H   0  0  0  0  0  0
  -27.3108  -21.6643   21.8319 H   0  0  0  0  0  0
  -29.5160  -19.0125   18.4860 H   0  0  0  0  0  0
  -30.9114  -19.7984   19.1042 H   0  0  0  0  0  0
  -31.5063  -17.8687   20.5381 H   0  0  0  0  0  0
  -31.2715  -17.3456   18.9107 H   0  0  0  0  0  0
  -28.1814  -16.5317   21.5014 H   0  0  0  0  0  0
  -29.5373  -17.3505   22.1776 H   0  0  0  0  0  0
  -27.6171  -24.3514   18.9446 H   0  0  0  0  0  0
  -29.8214  -20.2466   21.2686 H   0  0  0  0  0  0
  -27.8388  -19.0225   21.8217 H   0  0  0  0  0  0
  -27.4231  -18.1675   18.9421 H   0  0  0  0  0  0
  -26.4548  -19.3165   19.8693 H   0  0  0  0  0  0
  -26.4836  -17.6460   20.3276 H   0  0  0  0  0  0
  -27.5118  -22.2901   18.0965 H   0  0  0  0  0  0
  -27.4155  -20.5697   18.3190 H   0  0  0  0  0  0
  -28.9373  -21.3029   17.8608 H   0  0  0  0  0  0
  1 25  1  0  0  0
  1 30  2  0  0  0
  1 83  1  0  0  0
  2  3  1  0  0  0
  2 25  1  0  0  0
  2 85  1  0  0  0
  2 86  1  0  0  0
  3  4  1  0  0  0
  3 87  1  0  0  0
  3 88  1  0  0  0
  4  5  1  0  0  0
  4 89  1  0  0  0
  4 90  1  0  0  0
  5  6  1  0  0  0
  5 26  1  0  0  0
  5 91  1  0  0  0
  6 25  1  0  0  0
  6 92  1  0  0  0
  6 93  1  0  0  0
  7  8  2  0  0  0
  7 26  1  0  0  0
  7 29  1  0  0  0
  8  9  1  0  0  0
  8 22  1  0  0  0
  9 10  1  0  0  0
  9 27  2  0  0  0
 10 11  2  0  0  0
 10 15  1  0  0  0
 11 12  1  0  0  0
 11 94  1  0  0  0
 12 13  2  0  0  0
 12 95  1  0  0  0
 13 14  1  0  0  0
 13 31  1  0  0  0
 14 15  2  0  0  0
 14 96  1  0  0  0
 15 97  1  0  0  0
 16 17  2  0  0  0
 16 21  1  0  0  0
 16 31  1  0  0  0
 17 18  1  0  0  0
 17 98  1  0  0  0
 18 19  2  0  0  0
 18 99  1  0  0  0
 19 20  1  0  0  0
 19 24  1  0  0  0
 20 21  2  0  0  0
 20100  1  0  0  0
 21 23  1  0  0  0
 22 28  1  0  0  0
 22 32  2  0  0  0
 26 27  1  0  0  0
 28101  1  0  0  0
 28102  1  0  0  0
 29103  1  0  0  0
 29104  1  0  0  0
 33 34  1  0  0  0
 33 66  1  0  0  0
 33 70  2  0  0  0
 34 36  1  0  0  0
 34 59  1  0  0  0
 34105  1  0  0  0
 35 44  2  0  0  0
 35 45  1  0  0  0
 35 68  1  0  0  0
 36 56  1  0  0  0
 36106  1  0  0  0
 37 39  1  0  0  0
 37 47  1  0  0  0
 37 66  1  0  0  0
 37107  1  0  0  0
 38 43  2  0  0  0
 38 46  1  0  0  0
 38 47  1  0  0  0
 39 64  1  0  0  0
 39 67  2  0  0  0
 40 52  1  0  0  0
 40 53  2  0  0  0
 40 58  1  0  0  0
 41108  1  0  0  0
 41109  1  0  0  0
 41110  1  0  0  0
 41 48  1  0  0  0
 42 43  1  0  0  0
 42 66  1  0  0  0
 42111  1  0  0  0
 42112  1  0  0  0
 43 44  1  0  0  0
 44113  1  0  0  0
 45 46  2  0  0  0
 45114  1  0  0  0
 46115  1  0  0  0
 47116  1  0  0  0
 47117  1  0  0  0
 48 56  1  0  0  0
 48 65  1  0  0  0
 48118  1  0  0  0
 49 50  1  0  0  0
 49 53  1  0  0  0
 49 64  1  0  0  0
 49119  1  0  0  0
 50 51  1  0  0  0
 50120  1  0  0  0
 50121  1  0  0  0
 51 52  1  0  0  0
 51122  1  0  0  0
 51123  1  0  0  0
 52124  1  0  0  0
 52125  1  0  0  0
 53 54  1  0  0  0
 54 55  2  0  0  0
 54126  1  0  0  0
 55 57  1  0  0  0
 55127  1  0  0  0
 56 69  2  0  0  0
 57 58  2  0  0  0
 57128  1  0  0  0
 58129  1  0  0  0
 59 60  1  0  0  0
 59 61  1  0  0  0
 59 62  1  0  0  0
 60130  1  0  0  0
 60131  1  0  0  0
 60132  1  0  0  0
 61133  1  0  0  0
 61134  1  0  0  0
 61135  1  0  0  0
 62136  1  0  0  0
 62137  1  0  0  0
 62138  1  0  0  0
 63 65  1  0  0  0
 63139  1  0  0  0
 63140  1  0  0  0
 63141  1  0  0  0
 64142  1  0  0  0
 65143  1  0  0  0
 68 77  1  0  0  0
 71 77  1  0  0  0
 71 80  1  0  0  0
 71 84  2  0  0  0
 72 73  1  0  0  0
 72 77  1  0  0  0
 72144  1  0  0  0
 72145  1  0  0  0
 73 80  1  0  0  0
 73146  1  0  0  0
 73147  1  0  0  0
 74 75  1  0  0  0
 74148  1  0  0  0
 74149  1  0  0  0
 74 78  1  0  0  0
 75 83  1  0  0  0
 75150  1  0  0  0
 75151  1  0  0  0
 76 79  1  0  0  0
 76 83  1  0  0  0
 76152  1  0  0  0
 76153  1  0  0  0
 77154  1  0  0  0
 78 79  1  0  0  0
 78 80  1  0  0  0
 78155  1  0  0  0
 79 81  1  0  0  0
 79156  1  0  0  0
 80 82  1  0  0  0
 81157  1  0  0  0
 81158  1  0  0  0
 81159  1  0  0  0
 82160  1  0  0  0
 82161  1  0  0  0
 82162  1  0  0  0
M  ISO  4   1 100  68 101  77 101  83 100
M  END
> <chiral flag>
0

> <version>
0

> <s_m_source_file>
/data/baiqing/PycharmProjects/Reinvent-master-3.2/result/LINK_invent/BTK/process_docking_weight1_custom_sum_contain_oxygen_bond_distance_aromatic_linkinvent_7_9_3/rearranged_h_0175.sdf

> <i_m_source_file_index>
33

> <r_mmod_Potential_Energy-OPLS-2005>
1232.47705078125

> <r_mmod_Stretch_Energy-OPLS-2005>
402.771636962891

> <r_mmod_Bend_Energy-OPLS-2005>
472.435516357422

> <r_mmod_Torsional_Energy-OPLS-2005>
348.436798095703

> <r_mmod_Improper_Torsional_Energy-OPLS-2005>
14.797492980957

> <r_mmod_Van_der_Waal_Energy-OPLS-2005>
111.445892333984

> <r_mmod_Electrostatic_Energy-OPLS-2005>
-245.060531616211

> <r_mmod_Solvation_Energy-OPLS-2005>
-210.340270996094

> <b_mmod_Minimization_Converged-OPLS-2005>
0

> <r_mmod_RMS_Derivative-OPLS-2005>
1.2992399930954

$$$$
33
                    3D
 Structure written by MMmdl.
166175  0  0  1  0            999 V2000
  -30.6172  -14.9417   20.4112 C   0  0  0  0  0  0
  -30.4171  -12.5952   19.4884 C   0  0  0  0  0  0
  -29.5071  -12.5212   18.2454 C   0  0  0  0  0  0
  -28.0439  -12.3075   18.6712 C   0  0  0  0  0  0
  -27.6177  -13.2502   19.8271 C   0  0  2  0  0  0
  -28.6648  -13.3303   20.9574 C   0  0  0  0  0  0
  -25.2428  -13.8208   20.5741 C   0  0  0  0  0  0
  -24.1752  -13.0430   20.9249 C   0  0  0  0  0  0
  -24.6374  -11.6918   20.8762 C   0  0  0  0  0  0
  -23.9066  -10.4290   21.0402 C   0  0  0  0  0  0
  -24.3622   -9.4207   21.9175 C   0  0  0  0  0  0
  -23.6300   -8.2243   22.0748 C   0  0  0  0  0  0
  -22.4282   -8.0277   21.3542 C   0  0  0  0  0  0
  -21.9918   -9.0245   20.4642 C   0  0  0  0  0  0
  -22.7241  -10.2126   20.3046 C   0  0  0  0  0  0
  -21.6856   -6.0740   22.5279 C   0  0  0  0  0  0
  -21.4010   -6.5642   23.8211 C   0  0  0  0  0  0
  -21.3658   -5.6794   24.9171 C   0  0  0  0  0  0
  -21.6043   -4.3058   24.7220 C   0  0  0  0  0  0
  -21.8822   -3.8152   23.4342 C   0  0  0  0  0  0
  -21.9198   -4.6969   22.3400 C   0  0  0  0  0  0
  -22.7776  -13.5203   21.1898 C   0  0  0  0  0  0
  -22.1669   -4.2159   21.0976 F   0  0  0  0  0  0
  -21.5628   -3.4536   25.7731 F   0  0  0  0  0  0
  -29.9344  -13.7263   20.3363 N   0  0  0  0  0  0
  -26.2837  -12.9441   20.3246 N   0  0  0  0  0  0
  -25.9301  -11.6573   20.5740 N   0  0  0  0  0  0
  -22.0427  -12.8184   22.0446 N   0  0  0  0  0  0
  -25.4107  -15.1933   20.4177 N   0  0  0  0  0  0
  -31.8347  -14.8810   20.2075 O   0  0  0  0  0  0
  -21.6642   -6.8880   21.4240 O   0  0  0  0  0  0
  -22.3465  -14.5515   20.6747 O   0  0  0  0  0  0
  -24.6431  -31.8464   23.1913 C   0  0  0  0  0  0
  -25.9205  -32.4717   23.8295 C   0  0  1  0  0  0
  -27.2026  -27.1394   20.1461 C   0  0  0  0  0  0
  -25.5955  -33.8523   24.2209 N   0  0  0  0  0  0
  -23.4459  -30.4693   21.5371 C   0  0  2  0  0  0
  -24.8922  -28.9029   20.1057 C   0  0  0  0  0  0
  -22.7575  -29.4560   22.4865 C   0  0  0  0  0  0
  -18.0311  -28.1406   22.8497 C   0  0  0  0  0  0
  -24.1476  -36.7245   23.2642 C   0  0  0  0  0  0
  -26.0028  -30.7190   21.3912 C   0  0  0  0  0  0
  -26.0695  -29.3327   20.7299 C   0  0  0  0  0  0
  -27.2261  -28.4662   20.7379 C   0  0  0  0  0  0
  -26.0045  -26.8235   19.4647 C   0  0  0  0  0  0
  -24.8714  -27.6609   19.4595 C   0  0  0  0  0  0
  -23.6705  -29.8055   20.1532 C   0  0  0  0  0  0
  -25.4112  -36.3044   24.0324 C   0  0  1  0  0  0
  -20.5928  -28.3720   23.1249 C   0  0  2  0  0  0
  -20.6788  -26.9423   22.5411 C   0  0  0  0  0  0
  -19.5747  -26.6386   21.5235 C   0  0  0  0  0  0
  -18.1934  -26.7949   22.1643 C   0  0  0  0  0  0
  -19.1577  -28.8882   23.2863 C   0  0  0  0  0  0
  -18.9489  -30.1475   23.8890 C   0  0  0  0  0  0
  -17.6488  -30.6606   24.0565 C   0  0  0  0  0  0
  -25.9070  -34.9422   23.5072 C   0  0  0  0  0  0
  -16.5370  -29.9099   23.6350 C   0  0  0  0  0  0
  -16.7297  -28.6517   23.0371 C   0  0  0  0  0  0
  -26.4510  -31.6584   25.0737 C   0  0  0  0  0  0
  -25.3682  -31.3798   26.1430 C   0  0  0  0  0  0
  -27.0366  -30.2982   24.6313 C   0  0  0  0  0  0
  -27.6039  -32.4342   25.7526 C   0  0  0  0  0  0
  -27.5567  -37.1789   24.8473 C   0  0  0  0  0  0
  -21.4264  -29.3056   22.3626 N   0  0  0  0  0  0
  -26.4276  -37.3759   23.9418 N   0  0  0  0  0  0
  -24.7179  -31.0330   22.0945 N   0  0  0  0  0  0
  -23.4226  -28.8105   23.3006 O   0  0  0  0  0  0
  -28.2312  -26.1304   20.2396 O   0  0  0  0  0  0
  -26.5654  -34.8914   22.4654 O   0  0  0  0  0  0
  -23.5555  -32.1318   23.7146 O   0  0  0  0  0  0
  -29.6405  -22.2323   19.8831 C   0  0  0  0  0  0
  -30.6531  -22.9791   19.2073 C   0  0  0  0  0  0
  -29.8703  -20.7364   19.8283 C   0  0  0  0  0  0
  -31.7261  -21.1097   18.4892 C   0  0  0  0  0  0
  -28.8348  -18.4004   19.5050 C   0  0  0  0  0  0
  -30.1354  -18.8011   21.4278 C   0  0  0  0  0  0
  -28.7802  -16.8567   20.0424 C   0  0  0  0  0  0
  -30.8718  -17.4306   20.9906 C   0  0  0  0  0  0
  -30.7748  -24.4956   19.2265 C   0  0  0  0  0  0
  -32.8636  -20.4835   17.7143 C   0  0  0  0  0  0
  -28.8063  -23.3324   22.0914 C   0  0  0  0  0  0
  -27.8911  -24.6318   19.9968 C   0  0  0  0  0  0
  -28.5140  -23.1715   20.5935 C   0  0  1  0  0  0
  -31.6532  -22.4197   18.5154 N   0  0  0  0  0  0
  -30.9123  -20.2878   19.1075 N   0  0  0  0  0  0
  -29.2832  -19.5157   20.4244 N   0  0  0  0  0  0
  -30.0304  -16.2371   20.6097 N   0  0  0  0  0  0
  -31.4535  -12.7200   19.1714 H   0  0  0  0  0  0
  -30.3904  -11.6570   20.0443 H   0  0  0  0  0  0
  -29.8272  -11.7133   17.5859 H   0  0  0  0  0  0
  -29.5932  -13.4418   17.6667 H   0  0  0  0  0  0
  -27.9468  -11.2689   18.9887 H   0  0  0  0  0  0
  -27.3781  -12.4272   17.8159 H   0  0  0  0  0  0
  -27.5575  -14.2357   19.3724 H   0  0  0  0  0  0
  -28.7598  -12.3751   21.4757 H   0  0  0  0  0  0
  -28.3646  -14.0649   21.7060 H   0  0  0  0  0  0
  -25.2761   -9.5695   22.4750 H   0  0  0  0  0  0
  -24.0018   -7.4637   22.7459 H   0  0  0  0  0  0
  -21.0859   -8.8753   19.8941 H   0  0  0  0  0  0
  -22.3690  -10.9663   19.6162 H   0  0  0  0  0  0
  -21.1996   -7.6147   23.9720 H   0  0  0  0  0  0
  -21.1474   -6.0516   25.9077 H   0  0  0  0  0  0
  -22.0603   -2.7616   23.2830 H   0  0  0  0  0  0
  -22.4059  -11.9857   22.4840 H   0  0  0  0  0  0
  -21.1028  -13.1171   22.2621 H   0  0  0  0  0  0
  -24.6462  -15.8485   20.5368 H   0  0  0  0  0  0
  -26.2625  -15.6318   20.0952 H   0  0  0  0  0  0
  -26.7272  -32.5315   23.1026 H   0  0  0  0  0  0
  -25.0105  -33.9647   25.0361 H   0  0  0  0  0  0
  -22.7476  -31.2951   21.3890 H   0  0  0  0  0  0
  -23.3760  -35.9556   23.3298 H   0  0  0  0  0  0
  -24.3561  -36.8873   22.2054 H   0  0  0  0  0  0
  -23.7200  -37.6431   23.6670 H   0  0  0  0  0  0
  -26.1636  -31.4737   20.6204 H   0  0  0  0  0  0
  -26.8716  -30.7636   22.0368 H   0  0  0  0  0  0
  -28.1175  -28.7865   21.2593 H   0  0  0  0  0  0
  -25.8956  -25.8813   18.9482 H   0  0  0  0  0  0
  -23.9739  -27.3294   18.9559 H   0  0  0  0  0  0
  -23.8051  -30.5817   19.3990 H   0  0  0  0  0  0
  -22.7844  -29.2482   19.8443 H   0  0  0  0  0  0
  -25.1299  -36.1876   25.0816 H   0  0  0  0  0  0
  -21.0030  -28.3296   24.1363 H   0  0  0  0  0  0
  -20.5691  -26.2331   23.3630 H   0  0  0  0  0  0
  -21.6652  -26.7425   22.1200 H   0  0  0  0  0  0
  -19.6892  -25.6293   21.1273 H   0  0  0  0  0  0
  -19.6680  -27.3192   20.6765 H   0  0  0  0  0  0
  -17.4207  -26.6723   21.4033 H   0  0  0  0  0  0
  -18.0294  -26.0099   22.9039 H   0  0  0  0  0  0
  -19.7967  -30.7308   24.2240 H   0  0  0  0  0  0
  -17.5043  -31.6286   24.5167 H   0  0  0  0  0  0
  -15.5371  -30.3001   23.7688 H   0  0  0  0  0  0
  -15.8694  -28.0836   22.7097 H   0  0  0  0  0  0
  -24.5894  -30.7098   25.7769 H   0  0  0  0  0  0
  -24.8834  -32.2984   26.4734 H   0  0  0  0  0  0
  -25.7963  -30.9074   27.0281 H   0  0  0  0  0  0
  -26.2990  -29.6740   24.1262 H   0  0  0  0  0  0
  -27.3911  -29.7250   25.4888 H   0  0  0  0  0  0
  -27.8918  -30.4227   23.9675 H   0  0  0  0  0  0
  -27.2642  -33.3676   26.2025 H   0  0  0  0  0  0
  -28.3896  -32.6843   25.0386 H   0  0  0  0  0  0
  -28.0640  -31.8511   26.5509 H   0  0  0  0  0  0
  -28.2598  -38.0077   24.7526 H   0  0  0  0  0  0
  -28.1048  -36.2615   24.6290 H   0  0  0  0  0  0
  -27.2291  -37.1424   25.8878 H   0  0  0  0  0  0
  -20.9470  -29.8791   21.6823 H   0  0  0  0  0  0
  -26.0143  -38.2823   24.1439 H   0  0  0  0  0  0
  -27.8363  -18.6685   19.1576 H   0  0  0  0  0  0
  -29.4449  -18.4047   18.6010 H   0  0  0  0  0  0
  -30.8984  -19.4990   21.7781 H   0  0  0  0  0  0
  -29.5134  -18.6013   22.3009 H   0  0  0  0  0  0
  -28.4552  -16.2410   19.2049 H   0  0  0  0  0  0
  -28.0024  -16.7696   20.8011 H   0  0  0  0  0  0
  -31.5095  -17.1238   21.8214 H   0  0  0  0  0  0
  -31.5553  -17.6432   20.1665 H   0  0  0  0  0  0
  -30.0543  -24.9553   18.5522 H   0  0  0  0  0  0
  -31.7610  -24.8207   18.8898 H   0  0  0  0  0  0
  -30.6504  -24.8973   20.2313 H   0  0  0  0  0  0
  -33.3467  -21.2051   17.0553 H   0  0  0  0  0  0
  -32.4955  -19.6608   17.1023 H   0  0  0  0  0  0
  -33.6128  -20.0897   18.4004 H   0  0  0  0  0  0
  -28.9420  -22.3674   22.5801 H   0  0  0  0  0  0
  -27.9820  -23.8374   22.5977 H   0  0  0  0  0  0
  -29.7043  -23.9260   22.2620 H   0  0  0  0  0  0
  -26.8802  -24.5715   20.3994 H   0  0  0  0  0  0
  -27.7561  -24.5071   18.9218 H   0  0  0  0  0  0
  -27.6527  -22.5041   20.5401 H   0  0  0  0  0  0
  1 25  1  0  0  0
  1 30  2  0  0  0
  1 87  1  0  0  0
  2  3  1  0  0  0
  2 25  1  0  0  0
  2 88  1  0  0  0
  2 89  1  0  0  0
  3  4  1  0  0  0
  3 90  1  0  0  0
  3 91  1  0  0  0
  4  5  1  0  0  0
  4 92  1  0  0  0
  4 93  1  0  0  0
  5  6  1  0  0  0
  5 26  1  0  0  0
  5 94  1  0  0  0
  6 25  1  0  0  0
  6 95  1  0  0  0
  6 96  1  0  0  0
  7  8  2  0  0  0
  7 26  1  0  0  0
  7 29  1  0  0  0
  8  9  1  0  0  0
  8 22  1  0  0  0
  9 10  1  0  0  0
  9 27  2  0  0  0
 10 11  2  0  0  0
 10 15  1  0  0  0
 11 12  1  0  0  0
 11 97  1  0  0  0
 12 13  2  0  0  0
 12 98  1  0  0  0
 13 14  1  0  0  0
 13 31  1  0  0  0
 14 15  2  0  0  0
 14 99  1  0  0  0
 15100  1  0  0  0
 16 17  2  0  0  0
 16 21  1  0  0  0
 16 31  1  0  0  0
 17 18  1  0  0  0
 17101  1  0  0  0
 18 19  2  0  0  0
 18102  1  0  0  0
 19 20  1  0  0  0
 19 24  1  0  0  0
 20 21  2  0  0  0
 20103  1  0  0  0
 21 23  1  0  0  0
 22 28  1  0  0  0
 22 32  2  0  0  0
 26 27  1  0  0  0
 28104  1  0  0  0
 28105  1  0  0  0
 29106  1  0  0  0
 29107  1  0  0  0
 33 34  1  0  0  0
 33 66  1  0  0  0
 33 70  2  0  0  0
 34 36  1  0  0  0
 34 59  1  0  0  0
 34108  1  0  0  0
 35 44  2  0  0  0
 35 45  1  0  0  0
 35 68  1  0  0  0
 36 56  1  0  0  0
 36109  1  0  0  0
 37 39  1  0  0  0
 37 47  1  0  0  0
 37 66  1  0  0  0
 37110  1  0  0  0
 38 43  2  0  0  0
 38 46  1  0  0  0
 38 47  1  0  0  0
 39 64  1  0  0  0
 39 67  2  0  0  0
 40 52  1  0  0  0
 40 53  2  0  0  0
 40 58  1  0  0  0
 41111  1  0  0  0
 41112  1  0  0  0
 41113  1  0  0  0
 41 48  1  0  0  0
 42 43  1  0  0  0
 42 66  1  0  0  0
 42114  1  0  0  0
 42115  1  0  0  0
 43 44  1  0  0  0
 44116  1  0  0  0
 45 46  2  0  0  0
 45117  1  0  0  0
 46118  1  0  0  0
 47119  1  0  0  0
 47120  1  0  0  0
 48 56  1  0  0  0
 48 65  1  0  0  0
 48121  1  0  0  0
 49 50  1  0  0  0
 49 53  1  0  0  0
 49 64  1  0  0  0
 49122  1  0  0  0
 50 51  1  0  0  0
 50123  1  0  0  0
 50124  1  0  0  0
 51 52  1  0  0  0
 51125  1  0  0  0
 51126  1  0  0  0
 52127  1  0  0  0
 52128  1  0  0  0
 53 54  1  0  0  0
 54 55  2  0  0  0
 54129  1  0  0  0
 55 57  1  0  0  0
 55130  1  0  0  0
 56 69  2  0  0  0
 57 58  2  0  0  0
 57131  1  0  0  0
 58132  1  0  0  0
 59 60  1  0  0  0
 59 61  1  0  0  0
 59 62  1  0  0  0
 60133  1  0  0  0
 60134  1  0  0  0
 60135  1  0  0  0
 61136  1  0  0  0
 61137  1  0  0  0
 61138  1  0  0  0
 62139  1  0  0  0
 62140  1  0  0  0
 62141  1  0  0  0
 63 65  1  0  0  0
 63142  1  0  0  0
 63143  1  0  0  0
 63144  1  0  0  0
 64145  1  0  0  0
 65146  1  0  0  0
 68 82  1  0  0  0
 71 72  2  0  0  0
 71 73  1  0  0  0
 71 83  1  0  0  0
 72 79  1  0  0  0
 72 84  1  0  0  0
 73 85  2  0  0  0
 73 86  1  0  0  0
 74 80  1  0  0  0
 74 84  2  0  0  0
 74 85  1  0  0  0
 75 77  1  0  0  0
 75 86  1  0  0  0
 75147  1  0  0  0
 75148  1  0  0  0
 76 78  1  0  0  0
 76 86  1  0  0  0
 76149  1  0  0  0
 76150  1  0  0  0
 77 87  1  0  0  0
 77151  1  0  0  0
 77152  1  0  0  0
 78 87  1  0  0  0
 78153  1  0  0  0
 78154  1  0  0  0
 79155  1  0  0  0
 79156  1  0  0  0
 79157  1  0  0  0
 80158  1  0  0  0
 80159  1  0  0  0
 80160  1  0  0  0
 81161  1  0  0  0
 81162  1  0  0  0
 81163  1  0  0  0
 81 83  1  0  0  0
 82 83  1  0  0  0
 82164  1  0  0  0
 82165  1  0  0  0
 83166  1  0  0  0
M  ISO  4   1 100  68 101  82 101  87 100
M  END
> <chiral flag>
0

> <version>
0

> <s_m_source_file>
/data/baiqing/PycharmProjects/Reinvent-master-3.2/result/LINK_invent/BTK/process_docking_weight1_custom_sum_contain_oxygen_bond_distance_aromatic_linkinvent_7_9_3/rearranged_h_0175.sdf

> <i_m_source_file_index>
34

> <r_mmod_Potential_Energy-OPLS-2005>
298.870574951172

> <r_mmod_Stretch_Energy-OPLS-2005>
246.288345336914

> <r_mmod_Bend_Energy-OPLS-2005>
356.618286132812

> <r_mmod_Torsional_Energy-OPLS-2005>
366.167572021484

> <r_mmod_Improper_Torsional_Energy-OPLS-2005>
9.70624446868896

> <r_mmod_Van_der_Waal_Energy-OPLS-2005>
169.21321105957

> <r_mmod_Electrostatic_Energy-OPLS-2005>
-809.740234375

> <r_mmod_Solvation_Energy-OPLS-2005>
-235.841659545898

> <b_mmod_Minimization_Converged-OPLS-2005>
0

> <r_mmod_RMS_Derivative-OPLS-2005>
2.01374578475952

$$$$
34
                    3D
 Structure written by MMmdl.
175185  0  0  1  0            999 V2000
  -30.6819  -14.5104   20.5033 C   0  0  0  0  0  0
  -30.4214  -12.3098   19.4309 C   0  0  0  0  0  0
  -29.4923  -12.4853   18.2108 C   0  0  0  0  0  0
  -28.0134  -12.3471   18.6251 C   0  0  0  0  0  0
  -27.6541  -13.1987   19.8730 C   0  0  2  0  0  0
  -28.7039  -13.0188   20.9943 C   0  0  0  0  0  0
  -25.2575  -13.8138   20.5702 C   0  0  0  0  0  0
  -24.1820  -13.0430   20.9202 C   0  0  0  0  0  0
  -24.6371  -11.6896   20.8760 C   0  0  0  0  0  0
  -23.9049  -10.4288   21.0415 C   0  0  0  0  0  0
  -24.3614   -9.4204   21.9187 C   0  0  0  0  0  0
  -23.6295   -8.2238   22.0752 C   0  0  0  0  0  0
  -22.4272   -8.0281   21.3546 C   0  0  0  0  0  0
  -21.9909   -9.0254   20.4649 C   0  0  0  0  0  0
  -22.7233  -10.2134   20.3060 C   0  0  0  0  0  0
  -21.6849   -6.0740   22.5282 C   0  0  0  0  0  0
  -21.4013   -6.5641   23.8217 C   0  0  0  0  0  0
  -21.3660   -5.6790   24.9178 C   0  0  0  0  0  0
  -21.6043   -4.3053   24.7226 C   0  0  0  0  0  0
  -21.8817   -3.8154   23.4345 C   0  0  0  0  0  0
  -21.9187   -4.6969   22.3402 C   0  0  0  0  0  0
  -22.7848  -13.5236   21.1868 C   0  0  0  0  0  0
  -22.1658   -4.2158   21.0977 F   0  0  0  0  0  0
  -21.5636   -3.4534   25.7738 F   0  0  0  0  0  0
  -30.0258  -13.3186   20.4248 N   0  0  0  0  0  0
  -26.2990  -12.9281   20.3399 N   0  0  0  0  0  0
  -25.9292  -11.6457   20.5811 N   0  0  0  0  0  0
  -22.0490  -12.8216   22.0419 N   0  0  0  0  0  0
  -25.4300  -15.1855   20.4091 N   0  0  0  0  0  0
  -31.8585  -14.6388   20.1509 O   0  0  0  0  0  0
  -21.6635   -6.8884   21.4244 O   0  0  0  0  0  0
  -22.3533  -14.5544   20.6718 O   0  0  0  0  0  0
  -24.6167  -31.8675   23.2102 C   0  0  0  0  0  0
  -25.9057  -32.4824   23.8397 C   0  0  1  0  0  0
  -27.2266  -27.4169   20.1123 C   0  0  0  0  0  0
  -25.5905  -33.8619   24.2331 N   0  0  0  0  0  0
  -23.4044  -30.4923   21.5512 C   0  0  2  0  0  0
  -24.8501  -28.9579   20.1155 C   0  0  0  0  0  0
  -22.7415  -29.4667   22.4991 C   0  0  0  0  0  0
  -18.0272  -28.1381   22.8506 C   0  0  0  0  0  0
  -24.1484  -36.7311   23.2637 C   0  0  0  0  0  0
  -25.9348  -30.8312   21.3635 C   0  0  0  0  0  0
  -26.0122  -29.4645   20.7111 C   0  0  0  0  0  0
  -27.2065  -28.7046   20.7004 C   0  0  0  0  0  0
  -26.0492  -26.9375   19.4969 C   0  0  0  0  0  0
  -24.8642  -27.6946   19.5027 C   0  0  0  0  0  0
  -23.6129  -29.8258   20.1657 C   0  0  0  0  0  0
  -25.4105  -36.3110   24.0337 C   0  0  1  0  0  0
  -20.5863  -28.3672   23.1317 C   0  0  2  0  0  0
  -20.6762  -26.9405   22.5421 C   0  0  0  0  0  0
  -19.5737  -26.6389   21.5221 C   0  0  0  0  0  0
  -18.1916  -26.7931   22.1628 C   0  0  0  0  0  0
  -19.1523  -28.8843   23.2909 C   0  0  0  0  0  0
  -18.9449  -30.1450   23.8918 C   0  0  0  0  0  0
  -17.6452  -30.6588   24.0571 C   0  0  0  0  0  0
  -25.9035  -34.9476   23.5132 C   0  0  0  0  0  0
  -16.5343  -29.9092   23.6329 C   0  0  0  0  0  0
  -16.7262  -28.6505   23.0360 C   0  0  0  0  0  0
  -26.4475  -31.6602   25.0729 C   0  0  0  0  0  0
  -25.3744  -31.3710   26.1483 C   0  0  0  0  0  0
  -27.0302  -30.3044   24.6111 C   0  0  0  0  0  0
  -27.6050  -32.4321   25.7491 C   0  0  0  0  0  0
  -27.5588  -37.1803   24.8461 C   0  0  0  0  0  0
  -21.4140  -29.3043   22.3727 N   0  0  0  0  0  0
  -26.4290  -37.3800   23.9421 N   0  0  0  0  0  0
  -24.6705  -31.0774   22.1005 N   0  0  0  0  0  0
  -23.4184  -28.8204   23.3031 O   0  0  0  0  0  0
  -28.3786  -26.6516   20.1274 O   0  0  0  0  0  0
  -26.5598  -34.8925   22.4694 O   0  0  0  0  0  0
  -23.5357  -32.1422   23.7498 O   0  0  0  0  0  0
  -27.7380  -20.6389   20.2590 C   0  0  0  0  0  0
  -27.6758  -22.0319   20.0408 C   0  0  0  0  0  0
  -28.8995  -22.7660   19.9758 C   0  0  0  0  0  0
  -28.9717  -19.9822   20.3814 C   0  0  0  0  0  0
  -30.0973  -22.0167   20.1897 C   0  0  0  0  0  0
  -25.1954  -21.8701   19.1666 C   0  0  0  0  0  0
  -25.7938  -23.0820   18.5050 C   0  0  0  0  0  0
  -29.8294  -17.8412   19.2570 C   0  0  0  0  0  0
  -29.5269  -17.7967   21.7188 C   0  0  0  0  0  0
  -29.6613  -16.3094   19.1878 C   0  0  0  0  0  0
  -29.3392  -16.2518   21.6895 C   0  0  0  0  0  0
  -26.3070  -22.6354   19.8585 C   0  0  0  0  0  0
  -29.0276  -18.4428   20.4164 C   0  0  0  0  0  0
  -31.4752  -22.6558   20.1789 C   0  0  0  0  0  0
  -29.4083  -23.8910   17.1849 C   0  0  0  0  0  0
  -28.2398  -25.2801   20.5786 C   0  0  0  0  0  0
  -28.9598  -24.2894   19.6165 C   0  0  2  0  0  0
  -30.1281  -20.6748   20.3816 N   0  0  0  0  0  0
  -29.8678  -15.6003   20.4722 N   0  0  0  0  0  0
  -28.5666  -24.5449   18.2086 N   0  3  0  0  0  0
  -31.4650  -12.4066   19.1275 H   0  0  0  0  0  0
  -30.3238  -11.3075   19.8506 H   0  0  0  0  0  0
  -29.7334  -11.7475   17.4449 H   0  0  0  0  0  0
  -29.6590  -13.4617   17.7533 H   0  0  0  0  0  0
  -27.8291  -11.2929   18.8339 H   0  0  0  0  0  0
  -27.3613  -12.6068   17.7908 H   0  0  0  0  0  0
  -27.6744  -14.2368   19.5545 H   0  0  0  0  0  0
  -28.6869  -11.9967   21.3755 H   0  0  0  0  0  0
  -28.4776  -13.6571   21.8480 H   0  0  0  0  0  0
  -25.2765   -9.5676   22.4758 H   0  0  0  0  0  0
  -24.0009   -7.4622   22.7454 H   0  0  0  0  0  0
  -21.0849   -8.8775   19.8946 H   0  0  0  0  0  0
  -22.3703  -10.9675   19.6170 H   0  0  0  0  0  0
  -21.2011   -7.6151   23.9726 H   0  0  0  0  0  0
  -21.1482   -6.0522   25.9076 H   0  0  0  0  0  0
  -22.0597   -2.7616   23.2848 H   0  0  0  0  0  0
  -22.4109  -11.9879   22.4803 H   0  0  0  0  0  0
  -21.1104  -13.1229   22.2625 H   0  0  0  0  0  0
  -24.6663  -15.8431   20.5221 H   0  0  0  0  0  0
  -26.2884  -15.6217   20.0997 H   0  0  0  0  0  0
  -26.7134  -32.5535   23.1165 H   0  0  0  0  0  0
  -25.0068  -33.9776   25.0486 H   0  0  0  0  0  0
  -22.6948  -31.3105   21.4123 H   0  0  0  0  0  0
  -23.3751  -35.9639   23.3286 H   0  0  0  0  0  0
  -24.3583  -36.8944   22.2056 H   0  0  0  0  0  0
  -23.7223  -37.6506   23.6658 H   0  0  0  0  0  0
  -26.0462  -31.5973   20.5948 H   0  0  0  0  0  0
  -26.8229  -30.8858   21.9814 H   0  0  0  0  0  0
  -28.1034  -29.0921   21.1629 H   0  0  0  0  0  0
  -26.0309  -25.9761   19.0104 H   0  0  0  0  0  0
  -23.9726  -27.3003   19.0349 H   0  0  0  0  0  0
  -23.7222  -30.6015   19.4070 H   0  0  0  0  0  0
  -22.7361  -29.2474   19.8687 H   0  0  0  0  0  0
  -25.1281  -36.1973   25.0828 H   0  0  0  0  0  0
  -20.9954  -28.3236   24.1437 H   0  0  0  0  0  0
  -20.5673  -26.2279   23.3611 H   0  0  0  0  0  0
  -21.6633  -26.7453   22.1208 H   0  0  0  0  0  0
  -19.6898  -25.6303   21.1242 H   0  0  0  0  0  0
  -19.6675  -27.3211   20.6761 H   0  0  0  0  0  0
  -17.4189  -26.6701   21.4024 H   0  0  0  0  0  0
  -18.0305  -26.0062   22.9014 H   0  0  0  0  0  0
  -19.7920  -30.7268   24.2295 H   0  0  0  0  0  0
  -17.5001  -31.6269   24.5172 H   0  0  0  0  0  0
  -15.5347  -30.3005   23.7632 H   0  0  0  0  0  0
  -15.8660  -28.0830   22.7069 H   0  0  0  0  0  0
  -24.5909  -30.7064   25.7827 H   0  0  0  0  0  0
  -24.8945  -32.2866   26.4949 H   0  0  0  0  0  0
  -25.8102  -30.8868   27.0233 H   0  0  0  0  0  0
  -26.2845  -29.6810   24.1164 H   0  0  0  0  0  0
  -27.4065  -29.7279   25.4574 H   0  0  0  0  0  0
  -27.8683  -30.4359   23.9263 H   0  0  0  0  0  0
  -27.2669  -33.3615   26.2085 H   0  0  0  0  0  0
  -28.3848  -32.6894   25.0309 H   0  0  0  0  0  0
  -28.0728  -31.8436   26.5395 H   0  0  0  0  0  0
  -28.2583  -38.0124   24.7548 H   0  0  0  0  0  0
  -28.1103  -36.2658   24.6228 H   0  0  0  0  0  0
  -27.2311  -37.1386   25.8863 H   0  0  0  0  0  0
  -20.9298  -29.8774   21.6959 H   0  0  0  0  0  0
  -26.0175  -38.2872   24.1453 H   0  0  0  0  0  0
  -26.8289  -20.0536   20.2882 H   0  0  0  0  0  0
  -25.4172  -20.9108   18.7031 H   0  0  0  0  0  0
  -24.1872  -21.9727   19.5633 H   0  0  0  0  0  0
  -25.1429  -23.9517   18.4483 H   0  0  0  0  0  0
  -26.3966  -22.8852   17.6207 H   0  0  0  0  0  0
  -29.4947  -18.2787   18.3152 H   0  0  0  0  0  0
  -30.8836  -18.1014   19.3587 H   0  0  0  0  0  0
  -30.5765  -18.0486   21.8762 H   0  0  0  0  0  0
  -28.9816  -18.2101   22.5677 H   0  0  0  0  0  0
  -30.3206  -15.9196   18.4098 H   0  0  0  0  0  0
  -28.6518  -16.0913   18.8423 H   0  0  0  0  0  0
  -28.2736  -16.0261   21.7476 H   0  0  0  0  0  0
  -29.7903  -15.8133   22.5825 H   0  0  0  0  0  0
  -25.9990  -23.1719   20.7530 H   0  0  0  0  0  0
  -27.9958  -18.1129   20.2851 H   0  0  0  0  0  0
  -31.6909  -23.0988   19.2073 H   0  0  0  0  0  0
  -32.2581  -21.9239   20.3818 H   0  0  0  0  0  0
  -31.5453  -23.4290   20.9440 H   0  0  0  0  0  0
  -29.0657  -24.1633   16.1865 H   0  0  0  0  0  0
  -29.3622  -22.8046   17.2657 H   0  0  0  0  0  0
  -30.4496  -24.2006   17.2756 H   0  0  0  0  0  0
  -28.6977  -25.2098   21.5659 H   0  0  0  0  0  0
  -27.2009  -25.0039   20.7338 H   0  0  0  0  0  0
  -29.9960  -24.6166   19.6659 H   0  0  0  0  0  0
  -27.6091  -24.2680   18.0580 H   0  0  0  0  0  0
  -28.6215  -25.5422   18.0539 H   0  0  0  0  0  0
  1 25  1  0  0  0
  1 30  2  0  0  0
  1 89  1  0  0  0
  2  3  1  0  0  0
  2 25  1  0  0  0
  2 91  1  0  0  0
  2 92  1  0  0  0
  3  4  1  0  0  0
  3 93  1  0  0  0
  3 94  1  0  0  0
  4  5  1  0  0  0
  4 95  1  0  0  0
  4 96  1  0  0  0
  5  6  1  0  0  0
  5 26  1  0  0  0
  5 97  1  0  0  0
  6 25  1  0  0  0
  6 98  1  0  0  0
  6 99  1  0  0  0
  7  8  2  0  0  0
  7 26  1  0  0  0
  7 29  1  0  0  0
  8  9  1  0  0  0
  8 22  1  0  0  0
  9 10  1  0  0  0
  9 27  2  0  0  0
 10 11  2  0  0  0
 10 15  1  0  0  0
 11 12  1  0  0  0
 11100  1  0  0  0
 12 13  2  0  0  0
 12101  1  0  0  0
 13 14  1  0  0  0
 13 31  1  0  0  0
 14 15  2  0  0  0
 14102  1  0  0  0
 15103  1  0  0  0
 16 17  2  0  0  0
 16 21  1  0  0  0
 16 31  1  0  0  0
 17 18  1  0  0  0
 17104  1  0  0  0
 18 19  2  0  0  0
 18105  1  0  0  0
 19 20  1  0  0  0
 19 24  1  0  0  0
 20 21  2  0  0  0
 20106  1  0  0  0
 21 23  1  0  0  0
 22 28  1  0  0  0
 22 32  2  0  0  0
 26 27  1  0  0  0
 28107  1  0  0  0
 28108  1  0  0  0
 29109  1  0  0  0
 29110  1  0  0  0
 33 34  1  0  0  0
 33 66  1  0  0  0
 33 70  2  0  0  0
 34 36  1  0  0  0
 34 59  1  0  0  0
 34111  1  0  0  0
 35 44  2  0  0  0
 35 45  1  0  0  0
 35 68  1  0  0  0
 36 56  1  0  0  0
 36112  1  0  0  0
 37 39  1  0  0  0
 37 47  1  0  0  0
 37 66  1  0  0  0
 37113  1  0  0  0
 38 43  2  0  0  0
 38 46  1  0  0  0
 38 47  1  0  0  0
 39 64  1  0  0  0
 39 67  2  0  0  0
 40 52  1  0  0  0
 40 53  2  0  0  0
 40 58  1  0  0  0
 41114  1  0  0  0
 41115  1  0  0  0
 41116  1  0  0  0
 41 48  1  0  0  0
 42 43  1  0  0  0
 42 66  1  0  0  0
 42117  1  0  0  0
 42118  1  0  0  0
 43 44  1  0  0  0
 44119  1  0  0  0
 45 46  2  0  0  0
 45120  1  0  0  0
 46121  1  0  0  0
 47122  1  0  0  0
 47123  1  0  0  0
 48 56  1  0  0  0
 48 65  1  0  0  0
 48124  1  0  0  0
 49 50  1  0  0  0
 49 53  1  0  0  0
 49 64  1  0  0  0
 49125  1  0  0  0
 50 51  1  0  0  0
 50126  1  0  0  0
 50127  1  0  0  0
 51 52  1  0  0  0
 51128  1  0  0  0
 51129  1  0  0  0
 52130  1  0  0  0
 52131  1  0  0  0
 53 54  1  0  0  0
 54 55  2  0  0  0
 54132  1  0  0  0
 55 57  1  0  0  0
 55133  1  0  0  0
 56 69  2  0  0  0
 57 58  2  0  0  0
 57134  1  0  0  0
 58135  1  0  0  0
 59 60  1  0  0  0
 59 61  1  0  0  0
 59 62  1  0  0  0
 60136  1  0  0  0
 60137  1  0  0  0
 60138  1  0  0  0
 61139  1  0  0  0
 61140  1  0  0  0
 61141  1  0  0  0
 62142  1  0  0  0
 62143  1  0  0  0
 62144  1  0  0  0
 63 65  1  0  0  0
 63145  1  0  0  0
 63146  1  0  0  0
 63147  1  0  0  0
 64148  1  0  0  0
 65149  1  0  0  0
 68 86  1  0  0  0
 71 72  2  0  0  0
 71 74  1  0  0  0
 71150  1  0  0  0
 72 73  1  0  0  0
 72 82  1  0  0  0
 73 75  2  0  0  0
 73 87  1  0  0  0
 74 88  2  0  0  0
 74 83  1  0  0  0
 75 84  1  0  0  0
 75 88  1  0  0  0
 76 77  1  0  0  0
 76 82  1  0  0  0
 76151  1  0  0  0
 76152  1  0  0  0
 77 82  1  0  0  0
 77153  1  0  0  0
 77154  1  0  0  0
 78 80  1  0  0  0
 78 83  1  0  0  0
 78155  1  0  0  0
 78156  1  0  0  0
 79 81  1  0  0  0
 79 83  1  0  0  0
 79157  1  0  0  0
 79158  1  0  0  0
 80 89  1  0  0  0
 80159  1  0  0  0
 80160  1  0  0  0
 81 89  1  0  0  0
 81161  1  0  0  0
 81162  1  0  0  0
 82163  1  0  0  0
 83164  1  0  0  0
 84165  1  0  0  0
 84166  1  0  0  0
 84167  1  0  0  0
 85 90  1  0  0  0
 85168  1  0  0  0
 85169  1  0  0  0
 85170  1  0  0  0
 86171  1  0  0  0
 86172  1  0  0  0
 86 87  1  0  0  0
 87 90  1  0  0  0
 87173  1  0  0  0
 90174  1  0  0  0
 90175  1  0  0  0
M  CHG  1  90   1
M  ISO  4   1 100  68 101  86 101  89 100
M  END
> <chiral flag>
0

> <version>
0

> <s_m_source_file>
/data/baiqing/PycharmProjects/Reinvent-master-3.2/result/LINK_invent/BTK/process_docking_weight1_custom_sum_contain_oxygen_bond_distance_aromatic_linkinvent_7_9_3/rearranged_h_0175.sdf

> <i_m_source_file_index>
35

> <r_mmod_Potential_Energy-OPLS-2005>
-71.8537216186523

> <r_mmod_Stretch_Energy-OPLS-2005>
48.824520111084

> <r_mmod_Bend_Energy-OPLS-2005>
112.693000793457

> <r_mmod_Torsional_Energy-OPLS-2005>
373.409454345703

> <r_mmod_Improper_Torsional_Energy-OPLS-2005>
17.0189056396484

> <r_mmod_Van_der_Waal_Energy-OPLS-2005>
146.701522827148

> <r_mmod_Electrostatic_Energy-OPLS-2005>
-361.794036865234

> <r_mmod_Solvation_Energy-OPLS-2005>
-428.455963134766

> <b_mmod_Minimization_Converged-OPLS-2005>
0

> <r_mmod_RMS_Derivative-OPLS-2005>
0.980133235454559

$$$$
35
                    3D
 Structure written by MMmdl.
198211  0  0  1  0            999 V2000
  -30.7332  -14.4351   20.4489 C   0  0  0  0  0  0
  -30.4100  -12.2517   19.4266 C   0  0  0  0  0  0
  -29.4968  -12.4688   18.2033 C   0  0  0  0  0  0
  -28.0166  -12.3471   18.6137 C   0  0  0  0  0  0
  -27.6575  -13.2072   19.8559 C   0  0  2  0  0  0
  -28.7051  -13.0411   20.9828 C   0  0  0  0  0  0
  -25.2586  -13.8169   20.5667 C   0  0  0  0  0  0
  -24.1839  -13.0448   20.9175 C   0  0  0  0  0  0
  -24.6389  -11.6916   20.8725 C   0  0  0  0  0  0
  -23.9067  -10.4294   21.0408 C   0  0  0  0  0  0
  -24.3619   -9.4205   21.9180 C   0  0  0  0  0  0
  -23.6284   -8.2244   22.0753 C   0  0  0  0  0  0
  -22.4259   -8.0289   21.3554 C   0  0  0  0  0  0
  -21.9901   -9.0265   20.4654 C   0  0  0  0  0  0
  -22.7239  -10.2130   20.3059 C   0  0  0  0  0  0
  -21.6840   -6.0737   22.5278 C   0  0  0  0  0  0
  -21.4009   -6.5632   23.8219 C   0  0  0  0  0  0
  -21.3661   -5.6779   24.9173 C   0  0  0  0  0  0
  -21.6050   -4.3045   24.7223 C   0  0  0  0  0  0
  -21.8820   -3.8144   23.4341 C   0  0  0  0  0  0
  -21.9187   -4.6972   22.3400 C   0  0  0  0  0  0
  -22.7862  -13.5265   21.1837 C   0  0  0  0  0  0
  -22.1666   -4.2167   21.0978 F   0  0  0  0  0  0
  -21.5625   -3.4521   25.7731 F   0  0  0  0  0  0
  -30.0404  -13.2728   20.4130 N   0  0  0  0  0  0
  -26.3012  -12.9343   20.3275 N   0  0  0  0  0  0
  -25.9310  -11.6504   20.5725 N   0  0  0  0  0  0
  -22.0491  -12.8262   22.0385 N   0  0  0  0  0  0
  -25.4279  -15.1890   20.4107 N   0  0  0  0  0  0
  -31.9387  -14.4987   20.2458 O   0  0  0  0  0  0
  -21.6635   -6.8879   21.4237 O   0  0  0  0  0  0
  -22.3562  -14.5584   20.6698 O   0  0  0  0  0  0
  -24.6076  -31.8695   23.2118 C   0  0  0  0  0  0
  -25.8992  -32.4829   23.8400 C   0  0  1  0  0  0
  -27.2612  -27.4795   20.1046 C   0  0  0  0  0  0
  -25.5861  -33.8634   24.2312 N   0  0  0  0  0  0
  -23.3949  -30.4897   21.5479 C   0  0  2  0  0  0
  -24.8486  -28.9580   20.1129 C   0  0  0  0  0  0
  -22.7382  -29.4656   22.4994 C   0  0  0  0  0  0
  -18.0259  -28.1366   22.8489 C   0  0  0  0  0  0
  -24.1481  -36.7346   23.2647 C   0  0  0  0  0  0
  -25.9148  -30.8533   21.3560 C   0  0  0  0  0  0
  -25.9988  -29.4895   20.7072 C   0  0  0  0  0  0
  -27.2017  -28.7634   20.7001 C   0  0  0  0  0  0
  -26.1020  -26.9614   19.4932 C   0  0  0  0  0  0
  -24.8942  -27.6898   19.5023 C   0  0  0  0  0  0
  -23.6028  -29.8125   20.1641 C   0  0  0  0  0  0
  -25.4103  -36.3117   24.0328 C   0  0  1  0  0  0
  -20.5846  -28.3648   23.1321 C   0  0  2  0  0  0
  -20.6747  -26.9383   22.5422 C   0  0  0  0  0  0
  -19.5731  -26.6374   21.5205 C   0  0  0  0  0  0
  -18.1903  -26.7913   22.1603 C   0  0  0  0  0  0
  -19.1512  -28.8822   23.2901 C   0  0  0  0  0  0
  -18.9453  -30.1433   23.8901 C   0  0  0  0  0  0
  -17.6455  -30.6574   24.0567 C   0  0  0  0  0  0
  -25.9019  -34.9480   23.5115 C   0  0  0  0  0  0
  -16.5343  -29.9077   23.6328 C   0  0  0  0  0  0
  -16.7248  -28.6496   23.0339 C   0  0  0  0  0  0
  -26.4453  -31.6616   25.0721 C   0  0  0  0  0  0
  -25.3755  -31.3727   26.1505 C   0  0  0  0  0  0
  -27.0265  -30.3048   24.6096 C   0  0  0  0  0  0
  -27.6058  -32.4327   25.7438 C   0  0  0  0  0  0
  -27.5576  -37.1821   24.8454 C   0  0  0  0  0  0
  -21.4117  -29.3016   22.3727 N   0  0  0  0  0  0
  -26.4285  -37.3804   23.9390 N   0  0  0  0  0  0
  -24.6565  -31.0843   22.0975 N   0  0  0  0  0  0
  -23.4180  -28.8223   23.3040 O   0  0  0  0  0  0
  -28.4050  -26.7096   20.1028 O   0  0  0  0  0  0
  -26.5597  -34.8924   22.4683 O   0  0  0  0  0  0
  -23.5282  -32.1430   23.7539 O   0  0  0  0  0  0
  -29.5394  -19.5165   21.5684 C   0  0  0  0  0  0
  -29.0532  -20.9262   21.2460 C   0  0  0  0  0  0
  -31.0302  -20.0728   18.0772 C   0  0  0  0  0  0
  -30.6154  -17.6150   17.2289 C   0  0  0  0  0  0
  -32.5764  -17.6033   20.1391 C   0  0  0  0  0  0
  -28.5261  -25.8236   22.3012 C   0  0  0  0  0  0
  -32.8624  -18.3246   17.6852 C   0  0  0  0  0  0
  -29.4218  -24.3344   18.8199 C   0  0  0  0  0  0
  -30.6521  -19.2625   20.5609 C   0  0  2  0  0  0
  -30.0573  -19.8729   19.2684 C   0  0  1  0  0  0
  -31.1281  -16.7018   18.3605 C   0  0  2  0  0  0
  -31.1180  -17.7763   20.5796 C   0  0  1  0  0  0
  -29.9483  -25.5968   21.8531 C   0  0  2  0  0  0
  -30.2292  -23.2185   18.1766 C   0  0  2  0  0  0
  -30.3156  -16.8108   19.6850 C   0  0  2  0  0  0
  -30.1500  -22.4770   19.5253 C   0  0  2  0  0  0
  -29.1714  -26.7776   21.3065 C   0  0  1  0  0  0
  -29.3018  -21.1778   19.7330 C   0  0  2  0  0  0
  -31.5130  -18.8709   17.2052 C   0  0  2  0  0  0
  -32.5751  -17.1728   18.6606 C   0  0  2  0  0  0
  -31.5950  -23.5568   17.5788 C   0  0  0  0  0  0
  -27.9433  -21.2435   18.9912 C   0  0  0  0  0  0
  -31.6665  -19.3847   15.7563 C   0  0  0  0  0  0
  -34.8766  -16.3780   18.6617 C   0  0  0  0  0  0
  -30.4878  -24.3987   21.0687 C   0  0  0  0  0  0
  -29.9626  -15.5264   20.3279 N   0  0  0  0  0  0
  -29.5698  -23.6993   20.1287 N   0  3  1  0  0  0
  -33.4975  -16.1047   18.4166 O   0  0  0  0  0  0
  -31.4600  -12.3083   19.1328 H   0  0  0  0  0  0
  -30.2654  -11.2546   19.8463 H   0  0  0  0  0  0
  -29.7279  -11.7415   17.4239 H   0  0  0  0  0  0
  -29.6797  -13.4515   17.7657 H   0  0  0  0  0  0
  -27.8166  -11.2945   18.8189 H   0  0  0  0  0  0
  -27.3776  -12.6146   17.7726 H   0  0  0  0  0  0
  -27.6845  -14.2438   19.5216 H   0  0  0  0  0  0
  -28.6586  -12.0392   21.4092 H   0  0  0  0  0  0
  -28.5047  -13.7299   21.8040 H   0  0  0  0  0  0
  -25.2775   -9.5665   22.4747 H   0  0  0  0  0  0
  -23.9997   -7.4625   22.7454 H   0  0  0  0  0  0
  -21.0839   -8.8795   19.8954 H   0  0  0  0  0  0
  -22.3723  -10.9673   19.6164 H   0  0  0  0  0  0
  -21.2006   -7.6145   23.9728 H   0  0  0  0  0  0
  -21.1480   -6.0508   25.9078 H   0  0  0  0  0  0
  -22.0597   -2.7612   23.2836 H   0  0  0  0  0  0
  -22.4103  -11.9942   22.4819 H   0  0  0  0  0  0
  -21.1117  -13.1305   22.2590 H   0  0  0  0  0  0
  -24.6569  -15.8384   20.5287 H   0  0  0  0  0  0
  -26.2732  -15.6342   20.0801 H   0  0  0  0  0  0
  -26.7065  -32.5568   23.1176 H   0  0  0  0  0  0
  -24.9976  -33.9803   25.0426 H   0  0  0  0  0  0
  -22.6817  -31.3042   21.4056 H   0  0  0  0  0  0
  -23.3709  -35.9716   23.3322 H   0  0  0  0  0  0
  -24.3576  -36.8967   22.2063 H   0  0  0  0  0  0
  -23.7274  -37.6561   23.6678 H   0  0  0  0  0  0
  -26.0192  -31.6189   20.5860 H   0  0  0  0  0  0
  -26.8048  -30.9146   21.9707 H   0  0  0  0  0  0
  -28.0753  -29.2139   21.1453 H   0  0  0  0  0  0
  -26.1301  -25.9859   19.0273 H   0  0  0  0  0  0
  -24.0111  -27.2709   19.0409 H   0  0  0  0  0  0
  -23.7036  -30.5844   19.4006 H   0  0  0  0  0  0
  -22.7315  -29.2247   19.8692 H   0  0  0  0  0  0
  -25.1280  -36.1985   25.0822 H   0  0  0  0  0  0
  -20.9937  -28.3213   24.1439 H   0  0  0  0  0  0
  -20.5641  -26.2243   23.3605 H   0  0  0  0  0  0
  -21.6617  -26.7422   22.1220 H   0  0  0  0  0  0
  -19.6898  -25.6299   21.1198 H   0  0  0  0  0  0
  -19.6671  -27.3207   20.6754 H   0  0  0  0  0  0
  -17.4178  -26.6679   21.3989 H   0  0  0  0  0  0
  -18.0302  -26.0041   22.8981 H   0  0  0  0  0  0
  -19.7936  -30.7253   24.2251 H   0  0  0  0  0  0
  -17.5013  -31.6246   24.5189 H   0  0  0  0  0  0
  -15.5348  -30.2978   23.7664 H   0  0  0  0  0  0
  -15.8641  -28.0823   22.7044 H   0  0  0  0  0  0
  -24.5894  -30.7108   25.7854 H   0  0  0  0  0  0
  -24.8984  -32.2882   26.5025 H   0  0  0  0  0  0
  -25.8159  -30.8850   27.0212 H   0  0  0  0  0  0
  -26.2784  -29.6791   24.1215 H   0  0  0  0  0  0
  -27.4071  -29.7333   25.4570 H   0  0  0  0  0  0
  -27.8612  -30.4330   23.9200 H   0  0  0  0  0  0
  -27.2687  -33.3590   26.2093 H   0  0  0  0  0  0
  -28.3810  -32.6945   25.0226 H   0  0  0  0  0  0
  -28.0799  -31.8416   26.5281 H   0  0  0  0  0  0
  -28.2591  -38.0117   24.7488 H   0  0  0  0  0  0
  -28.1064  -36.2648   24.6276 H   0  0  0  0  0  0
  -27.2301  -37.1481   25.8858 H   0  0  0  0  0  0
  -20.9288  -29.8724   21.6936 H   0  0  0  0  0  0
  -26.0170  -38.2879   24.1386 H   0  0  0  0  0  0
  -28.7286  -18.7985   21.4273 H   0  0  0  0  0  0
  -29.8843  -19.4271   22.6003 H   0  0  0  0  0  0
  -29.6261  -21.6167   21.8639 H   0  0  0  0  0  0
  -28.0085  -21.0507   21.5322 H   0  0  0  0  0  0
  -31.8942  -20.6519   18.4041 H   0  0  0  0  0  0
  -30.4902  -20.7219   17.3945 H   0  0  0  0  0  0
  -29.5482  -17.8314   17.2734 H   0  0  0  0  0  0
  -30.7501  -17.0677   16.2932 H   0  0  0  0  0  0
  -33.0040  -16.8099   20.7518 H   0  0  0  0  0  0
  -33.1898  -18.4852   20.3226 H   0  0  0  0  0  0
  -28.3583  -26.2078   23.3059 H   0  0  0  0  0  0
  -27.7570  -25.1466   21.9363 H   0  0  0  0  0  0
  -33.5181  -19.0904   18.1026 H   0  0  0  0  0  0
  -33.3994  -17.9182   16.8269 H   0  0  0  0  0  0
  -28.3817  -24.3590   18.4907 H   0  0  0  0  0  0
  -29.8924  -25.3137   18.7298 H   0  0  0  0  0  0
  -31.4915  -19.8852   20.8711 H   0  0  0  0  0  0
  -29.2723  -19.2109   18.9217 H   0  0  0  0  0  0
  -31.1105  -15.6799   17.9800 H   0  0  0  0  0  0
  -31.0616  -17.4492   21.6190 H   0  0  0  0  0  0
  -30.6848  -25.8926   22.5997 H   0  0  0  0  0  0
  -29.5997  -22.7538   17.4188 H   0  0  0  0  0  0
  -29.3265  -17.2119   19.4789 H   0  0  0  0  0  0
  -31.1606  -22.3309   19.9125 H   0  0  0  0  0  0
  -29.5229  -27.7631   21.6058 H   0  0  0  0  0  0
  -32.2822  -23.9430   18.3323 H   0  0  0  0  0  0
  -31.5078  -24.3156   16.8011 H   0  0  0  0  0  0
  -32.0623  -22.6831   17.1267 H   0  0  0  0  0  0
  -27.3214  -20.3798   19.2325 H   0  0  0  0  0  0
  -28.0674  -21.2371   17.9079 H   0  0  0  0  0  0
  -27.3629  -22.1273   19.2518 H   0  0  0  0  0  0
  -30.7075  -19.7056   15.3492 H   0  0  0  0  0  0
  -32.0556  -18.6171   15.0871 H   0  0  0  0  0  0
  -32.3487  -20.2338   15.7024 H   0  0  0  0  0  0
  -35.4607  -15.4781   18.4721 H   0  0  0  0  0  0
  -35.0648  -16.6765   19.6921 H   0  0  0  0  0  0
  -35.2621  -17.1576   18.0052 H   0  0  0  0  0  0
  -30.8145  -23.6731   21.8136 H   0  0  0  0  0  0
  -31.3911  -24.7107   20.5439 H   0  0  0  0  0  0
  -28.9786  -15.3705   20.4803 H   0  0  0  0  0  0
  -28.6798  -23.5013   20.5580 H   0  0  0  0  0  0
  1 25  1  0  0  0
  1 30  2  0  0  0
  1 96  1  0  0  0
  2  3  1  0  0  0
  2 25  1  0  0  0
  2 99  1  0  0  0
  2100  1  0  0  0
  3  4  1  0  0  0
  3101  1  0  0  0
  3102  1  0  0  0
  4  5  1  0  0  0
  4103  1  0  0  0
  4104  1  0  0  0
  5  6  1  0  0  0
  5 26  1  0  0  0
  5105  1  0  0  0
  6 25  1  0  0  0
  6106  1  0  0  0
  6107  1  0  0  0
  7  8  2  0  0  0
  7 26  1  0  0  0
  7 29  1  0  0  0
  8  9  1  0  0  0
  8 22  1  0  0  0
  9 10  1  0  0  0
  9 27  2  0  0  0
 10 11  2  0  0  0
 10 15  1  0  0  0
 11 12  1  0  0  0
 11108  1  0  0  0
 12 13  2  0  0  0
 12109  1  0  0  0
 13 14  1  0  0  0
 13 31  1  0  0  0
 14 15  2  0  0  0
 14110  1  0  0  0
 15111  1  0  0  0
 16 17  2  0  0  0
 16 21  1  0  0  0
 16 31  1  0  0  0
 17 18  1  0  0  0
 17112  1  0  0  0
 18 19  2  0  0  0
 18113  1  0  0  0
 19 20  1  0  0  0
 19 24  1  0  0  0
 20 21  2  0  0  0
 20114  1  0  0  0
 21 23  1  0  0  0
 22 28  1  0  0  0
 22 32  2  0  0  0
 26 27  1  0  0  0
 28115  1  0  0  0
 28116  1  0  0  0
 29117  1  0  0  0
 29118  1  0  0  0
 33 34  1  0  0  0
 33 66  1  0  0  0
 33 70  2  0  0  0
 34 36  1  0  0  0
 34 59  1  0  0  0
 34119  1  0  0  0
 35 44  2  0  0  0
 35 45  1  0  0  0
 35 68  1  0  0  0
 36 56  1  0  0  0
 36120  1  0  0  0
 37 39  1  0  0  0
 37 47  1  0  0  0
 37 66  1  0  0  0
 37121  1  0  0  0
 38 43  2  0  0  0
 38 46  1  0  0  0
 38 47  1  0  0  0
 39 64  1  0  0  0
 39 67  2  0  0  0
 40 52  1  0  0  0
 40 53  2  0  0  0
 40 58  1  0  0  0
 41122  1  0  0  0
 41123  1  0  0  0
 41124  1  0  0  0
 41 48  1  0  0  0
 42 43  1  0  0  0
 42 66  1  0  0  0
 42125  1  0  0  0
 42126  1  0  0  0
 43 44  1  0  0  0
 44127  1  0  0  0
 45 46  2  0  0  0
 45128  1  0  0  0
 46129  1  0  0  0
 47130  1  0  0  0
 47131  1  0  0  0
 48 56  1  0  0  0
 48 65  1  0  0  0
 48132  1  0  0  0
 49 50  1  0  0  0
 49 53  1  0  0  0
 49 64  1  0  0  0
 49133  1  0  0  0
 50 51  1  0  0  0
 50134  1  0  0  0
 50135  1  0  0  0
 51 52  1  0  0  0
 51136  1  0  0  0
 51137  1  0  0  0
 52138  1  0  0  0
 52139  1  0  0  0
 53 54  1  0  0  0
 54 55  2  0  0  0
 54140  1  0  0  0
 55 57  1  0  0  0
 55141  1  0  0  0
 56 69  2  0  0  0
 57 58  2  0  0  0
 57142  1  0  0  0
 58143  1  0  0  0
 59 60  1  0  0  0
 59 61  1  0  0  0
 59 62  1  0  0  0
 60144  1  0  0  0
 60145  1  0  0  0
 60146  1  0  0  0
 61147  1  0  0  0
 61148  1  0  0  0
 61149  1  0  0  0
 62150  1  0  0  0
 62151  1  0  0  0
 62152  1  0  0  0
 63 65  1  0  0  0
 63153  1  0  0  0
 63154  1  0  0  0
 63155  1  0  0  0
 64156  1  0  0  0
 65157  1  0  0  0
 68 87  1  0  0  0
 71 72  1  0  0  0
 71158  1  0  0  0
 71159  1  0  0  0
 71 79  1  0  0  0
 72 88  1  0  0  0
 72160  1  0  0  0
 72161  1  0  0  0
 73 89  1  0  0  0
 73162  1  0  0  0
 73163  1  0  0  0
 73 80  1  0  0  0
 74 89  1  0  0  0
 74164  1  0  0  0
 74165  1  0  0  0
 74 81  1  0  0  0
 75 90  1  0  0  0
 75166  1  0  0  0
 75167  1  0  0  0
 75 82  1  0  0  0
 76 83  1  0  0  0
 76 87  1  0  0  0
 76168  1  0  0  0
 76169  1  0  0  0
 77 89  1  0  0  0
 77 90  1  0  0  0
 77170  1  0  0  0
 77171  1  0  0  0
 78 84  1  0  0  0
 78 97  1  0  0  0
 78172  1  0  0  0
 78173  1  0  0  0
 79 80  1  0  0  0
 79 82  1  0  0  0
 79174  1  0  0  0
 80 88  1  0  0  0
 80175  1  0  0  0
 81 85  1  0  0  0
 81 90  1  0  0  0
 81176  1  0  0  0
 82 85  1  0  0  0
 82177  1  0  0  0
 83 87  1  0  0  0
 83 95  1  0  0  0
 83178  1  0  0  0
 84 91  1  0  0  0
 84179  1  0  0  0
 84 86  1  0  0  0
 85 96  1  0  0  0
 85180  1  0  0  0
 86 88  1  0  0  0
 86 97  1  0  0  0
 86181  1  0  0  0
 87182  1  0  0  0
 88 92  1  0  0  0
 89 93  1  0  0  0
 90 98  1  0  0  0
 91183  1  0  0  0
 91184  1  0  0  0
 91185  1  0  0  0
 92186  1  0  0  0
 92187  1  0  0  0
 92188  1  0  0  0
 93189  1  0  0  0
 93190  1  0  0  0
 93191  1  0  0  0
 94 98  1  0  0  0
 94192  1  0  0  0
 94193  1  0  0  0
 94194  1  0  0  0
 95195  1  0  0  0
 95196  1  0  0  0
 95 97  1  0  0  0
 96197  1  0  0  0
 97198  1  0  0  0
M  CHG  1  97   1
M  ISO  4   1 100  68 101  87 101  96 100
M  END
> <chiral flag>
0

> <version>
0

> <s_m_source_file>
/data/baiqing/PycharmProjects/Reinvent-master-3.2/result/LINK_invent/BTK/process_docking_weight1_custom_sum_contain_oxygen_bond_distance_aromatic_linkinvent_7_9_3/rearranged_h_0175.sdf

> <i_m_source_file_index>
36

> <r_mmod_Potential_Energy-OPLS-2005>
284.888305664062

> <r_mmod_Stretch_Energy-OPLS-2005>
46.4969139099121

> <r_mmod_Bend_Energy-OPLS-2005>
232.702209472656

> <r_mmod_Torsional_Energy-OPLS-2005>
553.238342285156

> <r_mmod_Improper_Torsional_Energy-OPLS-2005>
11.4427375793457

> <r_mmod_Van_der_Waal_Energy-OPLS-2005>
139.313095092773

> <r_mmod_Electrostatic_Energy-OPLS-2005>
-305.867218017578

> <r_mmod_Solvation_Energy-OPLS-2005>
-415.374420166016

> <b_mmod_Minimization_Converged-OPLS-2005>
0

> <r_mmod_RMS_Derivative-OPLS-2005>
2.96800351142883

$$$$
36
                    3D
 Structure written by MMmdl.
158167  0  0  1  0            999 V2000
  -30.6102  -14.7704   20.4200 C   0  0  0  0  0  0
  -30.4132  -12.4684   19.4609 C   0  0  0  0  0  0
  -29.4912  -12.4806   18.2232 C   0  0  0  0  0  0
  -28.0250  -12.2846   18.6515 C   0  0  0  0  0  0
  -27.6205  -13.2129   19.8268 C   0  0  2  0  0  0
  -28.6658  -13.2163   20.9608 C   0  0  0  0  0  0
  -25.2449  -13.8133   20.5641 C   0  0  0  0  0  0
  -24.1749  -13.0384   20.9222 C   0  0  0  0  0  0
  -24.6344  -11.6873   20.8797 C   0  0  0  0  0  0
  -23.9028  -10.4250   21.0432 C   0  0  0  0  0  0
  -24.3596   -9.4171   21.9201 C   0  0  0  0  0  0
  -23.6269   -8.2209   22.0768 C   0  0  0  0  0  0
  -22.4261   -8.0251   21.3537 C   0  0  0  0  0  0
  -21.9874   -9.0228   20.4654 C   0  0  0  0  0  0
  -22.7199  -10.2109   20.3076 C   0  0  0  0  0  0
  -21.6841   -6.0706   22.5268 C   0  0  0  0  0  0
  -21.4000   -6.5624   23.8197 C   0  0  0  0  0  0
  -21.3655   -5.6780   24.9167 C   0  0  0  0  0  0
  -21.6057   -4.3047   24.7211 C   0  0  0  0  0  0
  -21.8818   -3.8132   23.4337 C   0  0  0  0  0  0
  -21.9181   -4.6937   22.3394 C   0  0  0  0  0  0
  -22.7789  -13.5199   21.1873 C   0  0  0  0  0  0
  -22.1661   -4.2131   21.0964 F   0  0  0  0  0  0
  -21.5628   -3.4537   25.7720 F   0  0  0  0  0  0
  -29.9570  -13.5569   20.3591 N   0  0  0  0  0  0
  -26.2819  -12.9286   20.3202 N   0  0  0  0  0  0
  -25.9251  -11.6468   20.5781 N   0  0  0  0  0  0
  -22.0453  -12.8180   22.0458 N   0  0  0  0  0  0
  -25.4112  -15.1838   20.3931 N   0  0  0  0  0  0
  -31.8197  -14.8022   20.1697 O   0  0  0  0  0  0
  -21.6635   -6.8844   21.4229 O   0  0  0  0  0  0
  -22.3486  -14.5509   20.6724 O   0  0  0  0  0  0
  -24.6366  -31.8551   23.2026 C   0  0  0  0  0  0
  -25.9172  -32.4745   23.8377 C   0  0  1  0  0  0
  -27.1822  -27.2189   20.1147 C   0  0  0  0  0  0
  -25.5964  -33.8554   24.2274 N   0  0  0  0  0  0
  -23.4319  -30.4850   21.5485 C   0  0  2  0  0  0
  -24.8720  -28.9525   20.1054 C   0  0  0  0  0  0
  -22.7548  -29.4576   22.4881 C   0  0  0  0  0  0
  -18.0296  -28.1358   22.8463 C   0  0  0  0  0  0
  -24.1500  -36.7306   23.2622 C   0  0  0  0  0  0
  -25.9886  -30.7527   21.3973 C   0  0  0  0  0  0
  -26.0528  -29.3780   20.7295 C   0  0  0  0  0  0
  -27.2133  -28.5252   20.7267 C   0  0  0  0  0  0
  -25.9746  -26.9047   19.4355 C   0  0  0  0  0  0
  -24.8420  -27.7258   19.4458 C   0  0  0  0  0  0
  -23.6509  -29.8475   20.1573 C   0  0  0  0  0  0
  -25.4112  -36.3065   24.0319 C   0  0  1  0  0  0
  -20.5907  -28.3683   23.1245 C   0  0  2  0  0  0
  -20.6779  -26.9392   22.5382 C   0  0  0  0  0  0
  -19.5747  -26.6350   21.5196 C   0  0  0  0  0  0
  -18.1938  -26.7889   22.1628 C   0  0  0  0  0  0
  -19.1545  -28.8837   23.2853 C   0  0  0  0  0  0
  -18.9466  -30.1431   23.8866 C   0  0  0  0  0  0
  -17.6466  -30.6546   24.0552 C   0  0  0  0  0  0
  -25.9060  -34.9432   23.5092 C   0  0  0  0  0  0
  -16.5358  -29.9040   23.6315 C   0  0  0  0  0  0
  -16.7290  -28.6471   23.0324 C   0  0  0  0  0  0
  -26.4523  -31.6560   25.0762 C   0  0  0  0  0  0
  -25.3741  -31.3721   26.1487 C   0  0  0  0  0  0
  -27.0359  -30.2953   24.6274 C   0  0  0  0  0  0
  -27.6049  -32.4333   25.7549 C   0  0  0  0  0  0
  -27.5585  -37.1796   24.8449 C   0  0  0  0  0  0
  -21.4241  -29.3044   22.3650 N   0  0  0  0  0  0
  -26.4277  -37.3773   23.9406 N   0  0  0  0  0  0
  -24.7046  -31.0490   22.1040 N   0  0  0  0  0  0
  -23.4252  -28.8076   23.2949 O   0  0  0  0  0  0
  -28.2027  -26.2189   20.1896 O   0  0  0  0  0  0
  -26.5618  -34.8906   22.4654 O   0  0  0  0  0  0
  -23.5509  -32.1397   23.7284 O   0  0  0  0  0  0
  -28.4576  -22.5266   18.9566 C   0  0  0  0  0  0
  -28.7259  -21.1235   19.0317 C   0  0  0  0  0  0
  -28.4454  -23.3723   20.1032 C   0  0  0  0  0  0
  -28.7799  -22.6608   21.2981 C   0  0  0  0  0  0
  -29.0223  -20.4913   20.2636 C   0  0  0  0  0  0
  -29.7189  -18.3940   21.6290 C   0  0  0  0  0  0
  -29.1433  -18.0726   19.2837 C   0  0  0  0  0  0
  -30.6042  -17.1022   21.3598 C   0  0  0  0  0  0
  -28.8950  -16.5642   19.7500 C   0  0  0  0  0  0
  -28.8036  -23.3727   22.6346 C   0  0  0  0  0  0
  -27.7007  -24.7956   20.0035 C   0  0  0  0  0  0
  -29.0633  -21.3046   21.3617 N   0  0  0  0  0  0
  -29.2531  -19.0525   20.3933 N   0  0  0  0  0  0
  -29.9223  -15.9670   20.6663 N   0  0  0  0  0  0
  -31.4533  -12.5833   19.1504 H   0  0  0  0  0  0
  -30.3607  -11.5062   19.9729 H   0  0  0  0  0  0
  -29.7810  -11.6972   17.5216 H   0  0  0  0  0  0
  -29.6000  -13.4237   17.6848 H   0  0  0  0  0  0
  -27.9049  -11.2398   18.9450 H   0  0  0  0  0  0
  -27.3627  -12.4397   17.7994 H   0  0  0  0  0  0
  -27.5817  -14.2076   19.3963 H   0  0  0  0  0  0
  -28.7153  -12.2481   21.4584 H   0  0  0  0  0  0
  -28.3930  -13.9453   21.7244 H   0  0  0  0  0  0
  -25.2744   -9.5638   22.4781 H   0  0  0  0  0  0
  -23.9982   -7.4583   22.7474 H   0  0  0  0  0  0
  -21.0811   -8.8725   19.8953 H   0  0  0  0  0  0
  -22.3648  -10.9653   19.6198 H   0  0  0  0  0  0
  -21.2012   -7.6135   23.9690 H   0  0  0  0  0  0
  -21.1485   -6.0522   25.9064 H   0  0  0  0  0  0
  -22.0611   -2.7594   23.2850 H   0  0  0  0  0  0
  -22.4085  -11.9832   22.4803 H   0  0  0  0  0  0
  -21.1087  -13.1192   22.2731 H   0  0  0  0  0  0
  -24.6347  -15.8317   20.4660 H   0  0  0  0  0  0
  -26.2446  -15.6079   20.0085 H   0  0  0  0  0  0
  -26.7218  -32.5366   23.1096 H   0  0  0  0  0  0
  -25.0113  -33.9704   25.0422 H   0  0  0  0  0  0
  -22.7265  -31.3072   21.4125 H   0  0  0  0  0  0
  -23.3738  -35.9663   23.3271 H   0  0  0  0  0  0
  -24.3605  -36.8964   22.2046 H   0  0  0  0  0  0
  -23.7309  -37.6514   23.6673 H   0  0  0  0  0  0
  -26.1404  -31.5151   20.6308 H   0  0  0  0  0  0
  -26.8628  -30.7968   22.0342 H   0  0  0  0  0  0
  -28.1092  -28.8376   21.2446 H   0  0  0  0  0  0
  -25.8145  -25.9947   18.8854 H   0  0  0  0  0  0
  -23.9457  -27.4024   18.9324 H   0  0  0  0  0  0
  -23.7918  -30.6375   19.4193 H   0  0  0  0  0  0
  -22.7654  -29.2986   19.8336 H   0  0  0  0  0  0
  -25.1291  -36.1888   25.0812 H   0  0  0  0  0  0
  -20.9998  -28.3237   24.1368 H   0  0  0  0  0  0
  -20.5647  -26.2292   23.3585 H   0  0  0  0  0  0
  -21.6651  -26.7384   22.1182 H   0  0  0  0  0  0
  -19.6902  -25.6254   21.1227 H   0  0  0  0  0  0
  -19.6659  -27.3150   20.6715 H   0  0  0  0  0  0
  -17.4192  -26.6595   21.4049 H   0  0  0  0  0  0
  -18.0367  -26.0029   22.9038 H   0  0  0  0  0  0
  -19.7944  -30.7247   24.2227 H   0  0  0  0  0  0
  -17.5019  -31.6222   24.5164 H   0  0  0  0  0  0
  -15.5349  -30.2939   23.7639 H   0  0  0  0  0  0
  -15.8700  -28.0784   22.7038 H   0  0  0  0  0  0
  -24.5866  -30.7128   25.7820 H   0  0  0  0  0  0
  -24.8976  -32.2896   26.4946 H   0  0  0  0  0  0
  -25.8064  -30.8854   27.0246 H   0  0  0  0  0  0
  -26.2934  -29.6704   24.1291 H   0  0  0  0  0  0
  -27.4000  -29.7223   25.4816 H   0  0  0  0  0  0
  -27.8872  -30.4175   23.9576 H   0  0  0  0  0  0
  -27.2582  -33.3605   26.2134 H   0  0  0  0  0  0
  -28.3857  -32.6967   25.0397 H   0  0  0  0  0  0
  -28.0733  -31.8475   26.5471 H   0  0  0  0  0  0
  -28.2554  -38.0131   24.7529 H   0  0  0  0  0  0
  -28.1138  -36.2671   24.6228 H   0  0  0  0  0  0
  -27.2319  -37.1406   25.8852 H   0  0  0  0  0  0
  -20.9412  -29.8908   21.6980 H   0  0  0  0  0  0
  -26.0149  -38.2844   24.1402 H   0  0  0  0  0  0
  -28.1706  -22.9314   17.9955 H   0  0  0  0  0  0
  -28.6552  -20.5477   18.1190 H   0  0  0  0  0  0
  -30.2897  -19.1060   22.2258 H   0  0  0  0  0  0
  -28.8443  -18.1275   22.2268 H   0  0  0  0  0  0
  -28.3597  -18.3727   18.5848 H   0  0  0  0  0  0
  -30.0764  -18.1136   18.7160 H   0  0  0  0  0  0
  -31.0203  -16.7390   22.3011 H   0  0  0  0  0  0
  -31.4639  -17.3988   20.7540 H   0  0  0  0  0  0
  -28.7908  -15.9465   18.8571 H   0  0  0  0  0  0
  -27.9345  -16.5177   20.2667 H   0  0  0  0  0  0
  -28.0875  -24.1935   22.6744 H   0  0  0  0  0  0
  -29.8022  -23.7742   22.8048 H   0  0  0  0  0  0
  -28.5709  -22.6897   23.4528 H   0  0  0  0  0  0
  -26.8182  -24.6796   20.6372 H   0  0  0  0  0  0
  -27.3553  -24.7544   18.9737 H   0  0  0  0  0  0
  1 25  1  0  0  0
  1 30  2  0  0  0
  1 84  1  0  0  0
  2  3  1  0  0  0
  2 25  1  0  0  0
  2 85  1  0  0  0
  2 86  1  0  0  0
  3  4  1  0  0  0
  3 87  1  0  0  0
  3 88  1  0  0  0
  4  5  1  0  0  0
  4 89  1  0  0  0
  4 90  1  0  0  0
  5  6  1  0  0  0
  5 26  1  0  0  0
  5 91  1  0  0  0
  6 25  1  0  0  0
  6 92  1  0  0  0
  6 93  1  0  0  0
  7  8  2  0  0  0
  7 26  1  0  0  0
  7 29  1  0  0  0
  8  9  1  0  0  0
  8 22  1  0  0  0
  9 10  1  0  0  0
  9 27  2  0  0  0
 10 11  2  0  0  0
 10 15  1  0  0  0
 11 12  1  0  0  0
 11 94  1  0  0  0
 12 13  2  0  0  0
 12 95  1  0  0  0
 13 14  1  0  0  0
 13 31  1  0  0  0
 14 15  2  0  0  0
 14 96  1  0  0  0
 15 97  1  0  0  0
 16 17  2  0  0  0
 16 21  1  0  0  0
 16 31  1  0  0  0
 17 18  1  0  0  0
 17 98  1  0  0  0
 18 19  2  0  0  0
 18 99  1  0  0  0
 19 20  1  0  0  0
 19 24  1  0  0  0
 20 21  2  0  0  0
 20100  1  0  0  0
 21 23  1  0  0  0
 22 28  1  0  0  0
 22 32  2  0  0  0
 26 27  1  0  0  0
 28101  1  0  0  0
 28102  1  0  0  0
 29103  1  0  0  0
 29104  1  0  0  0
 33 34  1  0  0  0
 33 66  1  0  0  0
 33 70  2  0  0  0
 34 36  1  0  0  0
 34 59  1  0  0  0
 34105  1  0  0  0
 35 44  2  0  0  0
 35 45  1  0  0  0
 35 68  1  0  0  0
 36 56  1  0  0  0
 36106  1  0  0  0
 37 39  1  0  0  0
 37 47  1  0  0  0
 37 66  1  0  0  0
 37107  1  0  0  0
 38 43  2  0  0  0
 38 46  1  0  0  0
 38 47  1  0  0  0
 39 64  1  0  0  0
 39 67  2  0  0  0
 40 52  1  0  0  0
 40 53  2  0  0  0
 40 58  1  0  0  0
 41108  1  0  0  0
 41109  1  0  0  0
 41110  1  0  0  0
 41 48  1  0  0  0
 42 43  1  0  0  0
 42 66  1  0  0  0
 42111  1  0  0  0
 42112  1  0  0  0
 43 44  1  0  0  0
 44113  1  0  0  0
 45 46  2  0  0  0
 45114  1  0  0  0
 46115  1  0  0  0
 47116  1  0  0  0
 47117  1  0  0  0
 48 56  1  0  0  0
 48 65  1  0  0  0
 48118  1  0  0  0
 49 50  1  0  0  0
 49 53  1  0  0  0
 49 64  1  0  0  0
 49119  1  0  0  0
 50 51  1  0  0  0
 50120  1  0  0  0
 50121  1  0  0  0
 51 52  1  0  0  0
 51122  1  0  0  0
 51123  1  0  0  0
 52124  1  0  0  0
 52125  1  0  0  0
 53 54  1  0  0  0
 54 55  2  0  0  0
 54126  1  0  0  0
 55 57  1  0  0  0
 55127  1  0  0  0
 56 69  2  0  0  0
 57 58  2  0  0  0
 57128  1  0  0  0
 58129  1  0  0  0
 59 60  1  0  0  0
 59 61  1  0  0  0
 59 62  1  0  0  0
 60130  1  0  0  0
 60131  1  0  0  0
 60132  1  0  0  0
 61133  1  0  0  0
 61134  1  0  0  0
 61135  1  0  0  0
 62136  1  0  0  0
 62137  1  0  0  0
 62138  1  0  0  0
 63 65  1  0  0  0
 63139  1  0  0  0
 63140  1  0  0  0
 63141  1  0  0  0
 64142  1  0  0  0
 65143  1  0  0  0
 68 81  1  0  0  0
 71 72  2  0  0  0
 71 73  1  0  0  0
 71144  1  0  0  0
 72 75  1  0  0  0
 72145  1  0  0  0
 73 74  2  0  0  0
 73 81  1  0  0  0
 74 80  1  0  0  0
 74 82  1  0  0  0
 75 82  2  0  0  0
 75 83  1  0  0  0
 76 78  1  0  0  0
 76 83  1  0  0  0
 76146  1  0  0  0
 76147  1  0  0  0
 77 79  1  0  0  0
 77 83  1  0  0  0
 77148  1  0  0  0
 77149  1  0  0  0
 78 84  1  0  0  0
 78150  1  0  0  0
 78151  1  0  0  0
 79 84  1  0  0  0
 79152  1  0  0  0
 79153  1  0  0  0
 80154  1  0  0  0
 80155  1  0  0  0
 80156  1  0  0  0
 81157  1  0  0  0
 81158  1  0  0  0
M  ISO  4   1 100  68 101  81 101  84 100
M  END
> <chiral flag>
0

> <version>
0

> <s_m_source_file>
/data/baiqing/PycharmProjects/Reinvent-master-3.2/result/LINK_invent/BTK/process_docking_weight1_custom_sum_contain_oxygen_bond_distance_aromatic_linkinvent_7_9_3/rearranged_h_0175.sdf

> <i_m_source_file_index>
37

> <r_mmod_Potential_Energy-OPLS-2005>
264.966766357422

> <r_mmod_Stretch_Energy-OPLS-2005>
128.392196655273

> <r_mmod_Bend_Energy-OPLS-2005>
221.470565795898

> <r_mmod_Torsional_Energy-OPLS-2005>
355.856597900391

> <r_mmod_Improper_Torsional_Energy-OPLS-2005>
9.15673637390137

> <r_mmod_Van_der_Waal_Energy-OPLS-2005>
170.591278076172

> <r_mmod_Electrostatic_Energy-OPLS-2005>
-508.761260986328

> <r_mmod_Solvation_Energy-OPLS-2005>
-232.496551513672

> <b_mmod_Minimization_Converged-OPLS-2005>
0

> <r_mmod_RMS_Derivative-OPLS-2005>
4.41387796401978

$$$$
37
                    3D
 Structure written by MMmdl.
164173  0  0  1  0            999 V2000
  -30.6122  -14.8020   20.4491 C   0  0  0  0  0  0
  -30.4410  -12.4993   19.4709 C   0  0  0  0  0  0
  -29.5093  -12.5126   18.2364 C   0  0  0  0  0  0
  -28.0389  -12.3289   18.6559 C   0  0  0  0  0  0
  -27.6381  -13.2437   19.8447 C   0  0  2  0  0  0
  -28.6897  -13.2102   20.9766 C   0  0  0  0  0  0
  -25.2491  -13.8226   20.5759 C   0  0  0  0  0  0
  -24.1804  -13.0462   20.9244 C   0  0  0  0  0  0
  -24.6401  -11.6931   20.8758 C   0  0  0  0  0  0
  -23.9068  -10.4299   21.0406 C   0  0  0  0  0  0
  -24.3622   -9.4210   21.9179 C   0  0  0  0  0  0
  -23.6305   -8.2241   22.0740 C   0  0  0  0  0  0
  -22.4276   -8.0280   21.3549 C   0  0  0  0  0  0
  -21.9924   -9.0248   20.4646 C   0  0  0  0  0  0
  -22.7247  -10.2129   20.3056 C   0  0  0  0  0  0
  -21.6841   -6.0732   22.5273 C   0  0  0  0  0  0
  -21.4028   -6.5640   23.8212 C   0  0  0  0  0  0
  -21.3649   -5.6791   24.9170 C   0  0  0  0  0  0
  -21.6051   -4.3056   24.7226 C   0  0  0  0  0  0
  -21.8808   -3.8144   23.4346 C   0  0  0  0  0  0
  -21.9200   -4.6963   22.3401 C   0  0  0  0  0  0
  -22.7803  -13.5208   21.1912 C   0  0  0  0  0  0
  -22.1659   -4.2150   21.0976 F   0  0  0  0  0  0
  -21.5624   -3.4535   25.7732 F   0  0  0  0  0  0
  -29.9856  -13.5721   20.3875 N   0  0  0  0  0  0
  -26.2922  -12.9468   20.3289 N   0  0  0  0  0  0
  -25.9334  -11.6593   20.5747 N   0  0  0  0  0  0
  -22.0459  -12.8172   22.0462 N   0  0  0  0  0  0
  -25.4207  -15.1966   20.4210 N   0  0  0  0  0  0
  -31.8072  -14.8885   20.1550 O   0  0  0  0  0  0
  -21.6638   -6.8878   21.4235 O   0  0  0  0  0  0
  -22.3462  -14.5517   20.6755 O   0  0  0  0  0  0
  -24.6351  -31.8521   23.1888 C   0  0  0  0  0  0
  -25.9155  -32.4707   23.8300 C   0  0  1  0  0  0
  -27.2350  -27.2355   20.1092 C   0  0  0  0  0  0
  -25.5886  -33.8497   24.2187 N   0  0  0  0  0  0
  -23.4320  -30.4700   21.5350 C   0  0  2  0  0  0
  -24.8807  -28.9075   20.1003 C   0  0  0  0  0  0
  -22.7540  -29.4628   22.4941 C   0  0  0  0  0  0
  -18.0244  -28.1408   22.8583 C   0  0  0  0  0  0
  -24.1480  -36.7274   23.2653 C   0  0  0  0  0  0
  -25.9811  -30.7547   21.3737 C   0  0  0  0  0  0
  -26.0546  -29.3760   20.7066 C   0  0  0  0  0  0
  -27.2261  -28.5496   20.7029 C   0  0  0  0  0  0
  -26.0386  -26.8350   19.4857 C   0  0  0  0  0  0
  -24.8810  -27.6459   19.4807 C   0  0  0  0  0  0
  -23.6462  -29.7911   20.1542 C   0  0  0  0  0  0
  -25.4118  -36.3052   24.0325 C   0  0  1  0  0  0
  -20.5883  -28.3780   23.1266 C   0  0  2  0  0  0
  -20.6767  -26.9525   22.5267 C   0  0  0  0  0  0
  -19.5652  -26.6452   21.5213 C   0  0  0  0  0  0
  -18.1911  -26.7917   22.1773 C   0  0  0  0  0  0
  -19.1523  -28.8913   23.2891 C   0  0  0  0  0  0
  -18.9445  -30.1552   23.8829 C   0  0  0  0  0  0
  -17.6460  -30.6707   24.0461 C   0  0  0  0  0  0
  -25.9072  -34.9424   23.5091 C   0  0  0  0  0  0
  -16.5332  -29.9138   23.6396 C   0  0  0  0  0  0
  -16.7229  -28.6521   23.0469 C   0  0  0  0  0  0
  -26.4499  -31.6562   25.0732 C   0  0  0  0  0  0
  -25.3679  -31.3711   26.1431 C   0  0  0  0  0  0
  -27.0359  -30.2956   24.6271 C   0  0  0  0  0  0
  -27.6041  -32.4348   25.7495 C   0  0  0  0  0  0
  -27.5576  -37.1789   24.8471 C   0  0  0  0  0  0
  -21.4225  -29.3195   22.3755 N   0  0  0  0  0  0
  -26.4292  -37.3752   23.9416 N   0  0  0  0  0  0
  -24.7017  -31.0452   22.0871 N   0  0  0  0  0  0
  -23.4245  -28.8123   23.2984 O   0  0  0  0  0  0
  -28.3239  -26.3408   20.2655 O   0  0  0  0  0  0
  -26.5691  -34.8947   22.4682 O   0  0  0  0  0  0
  -23.5491  -32.1359   23.7144 O   0  0  0  0  0  0
  -27.1104  -21.7495   18.4021 C   0  0  0  0  0  0
  -27.3739  -23.1230   18.5150 C   0  0  0  0  0  0
  -28.3078  -23.6083   19.4774 C   0  0  0  0  0  0
  -29.0019  -22.5195   20.2025 C   0  0  0  0  0  0
  -28.7377  -21.0948   19.9276 C   0  0  0  0  0  0
  -29.2141  -18.4991   19.8461 C   0  0  0  0  0  0
  -29.8582  -19.6673   21.7631 C   0  0  0  0  0  0
  -30.2226  -17.4600   20.5208 C   0  0  2  0  0  0
  -30.3942  -18.1913   21.8821 C   0  0  2  0  0  0
  -26.6945  -23.9747   17.4473 C   0  0  0  0  0  0
  -30.0823  -22.8989   21.2102 C   0  0  0  0  0  0
  -28.7461  -25.1741   19.4008 C   0  0  0  0  0  0
  -27.7644  -20.7809   19.0580 N   0  0  0  0  0  0
  -29.4354  -19.8911   20.3877 N   0  0  0  0  0  0
  -29.8527  -15.9577   20.6319 N   0  0  0  0  0  0
  -31.7786  -18.1563   22.3768 N   0  3  0  0  0  0
  -31.4757  -12.6446   19.1536 H   0  0  0  0  0  0
  -30.4125  -11.5299   19.9709 H   0  0  0  0  0  0
  -29.7952  -11.7311   17.5319 H   0  0  0  0  0  0
  -29.6229  -13.4582   17.7066 H   0  0  0  0  0  0
  -27.8989  -11.2854   18.9348 H   0  0  0  0  0  0
  -27.3792  -12.5045   17.8057 H   0  0  0  0  0  0
  -27.6185  -14.2571   19.4433 H   0  0  0  0  0  0
  -28.7383  -12.2216   21.4373 H   0  0  0  0  0  0
  -28.4212  -13.9095   21.7718 H   0  0  0  0  0  0
  -25.2770   -9.5655   22.4763 H   0  0  0  0  0  0
  -24.0000   -7.4614   22.7448 H   0  0  0  0  0  0
  -21.0853   -8.8774   19.8945 H   0  0  0  0  0  0
  -22.3719  -10.9670   19.6167 H   0  0  0  0  0  0
  -21.2023   -7.6148   23.9712 H   0  0  0  0  0  0
  -21.1485   -6.0524   25.9074 H   0  0  0  0  0  0
  -22.0604   -2.7608   23.2842 H   0  0  0  0  0  0
  -22.4104  -11.9838   22.4830 H   0  0  0  0  0  0
  -21.1073  -13.1176   22.2689 H   0  0  0  0  0  0
  -24.6574  -15.8537   20.5413 H   0  0  0  0  0  0
  -26.2540  -15.6284   20.0451 H   0  0  0  0  0  0
  -26.7256  -32.5341   23.1074 H   0  0  0  0  0  0
  -24.9954  -33.9548   25.0286 H   0  0  0  0  0  0
  -22.7307  -31.2913   21.3832 H   0  0  0  0  0  0
  -23.3744  -35.9594   23.3309 H   0  0  0  0  0  0
  -24.3580  -36.8894   22.2072 H   0  0  0  0  0  0
  -23.7244  -37.6474   23.6686 H   0  0  0  0  0  0
  -26.1350  -31.5172   20.6098 H   0  0  0  0  0  0
  -26.8496  -30.7895   22.0192 H   0  0  0  0  0  0
  -28.1209  -28.9001   21.1988 H   0  0  0  0  0  0
  -25.9616  -25.8462   19.0665 H   0  0  0  0  0  0
  -23.9823  -27.2727   19.0126 H   0  0  0  0  0  0
  -23.7498  -30.5528   19.3823 H   0  0  0  0  0  0
  -22.7658  -29.2083   19.8693 H   0  0  0  0  0  0
  -25.1302  -36.1909   25.0813 H   0  0  0  0  0  0
  -20.9929  -28.3264   24.1419 H   0  0  0  0  0  0
  -20.5714  -26.2407   23.3453 H   0  0  0  0  0  0
  -21.6614  -26.7614   22.0949 H   0  0  0  0  0  0
  -19.6784  -25.6310   21.1271 H   0  0  0  0  0  0
  -19.6409  -27.3332   20.6791 H   0  0  0  0  0  0
  -17.4092  -26.6486   21.4272 H   0  0  0  0  0  0
  -18.0542  -26.0076   22.9201 H   0  0  0  0  0  0
  -19.7926  -30.7373   24.2191 H   0  0  0  0  0  0
  -17.5069  -31.6428   24.4960 H   0  0  0  0  0  0
  -15.5343  -30.3001   23.7864 H   0  0  0  0  0  0
  -15.8577  -28.0846   22.7349 H   0  0  0  0  0  0
  -24.5885  -30.7043   25.7730 H   0  0  0  0  0  0
  -24.8879  -32.2892   26.4820 H   0  0  0  0  0  0
  -25.7955  -30.8924   27.0235 H   0  0  0  0  0  0
  -26.2948  -29.6715   24.1261 H   0  0  0  0  0  0
  -27.3987  -29.7213   25.4804 H   0  0  0  0  0  0
  -27.8863  -30.4232   23.9552 H   0  0  0  0  0  0
  -27.2608  -33.3654   26.2015 H   0  0  0  0  0  0
  -28.3838  -32.6875   25.0292 H   0  0  0  0  0  0
  -28.0736  -31.8550   26.5448 H   0  0  0  0  0  0
  -28.2599  -38.0079   24.7516 H   0  0  0  0  0  0
  -28.1055  -36.2616   24.6290 H   0  0  0  0  0  0
  -27.2293  -37.1436   25.8867 H   0  0  0  0  0  0
  -20.9443  -29.9145   21.7128 H   0  0  0  0  0  0
  -26.0167  -38.2814   24.1395 H   0  0  0  0  0  0
  -26.4028  -21.3998   17.6627 H   0  0  0  0  0  0
  -28.1871  -18.1982   20.0593 H   0  0  0  0  0  0
  -29.3340  -18.4968   18.7652 H   0  0  0  0  0  0
  -30.5988  -20.3986   22.0886 H   0  0  0  0  0  0
  -28.9847  -19.7922   22.4048 H   0  0  0  0  0  0
  -31.1490  -17.5335   19.9458 H   0  0  0  0  0  0
  -29.7798  -17.6866   22.6280 H   0  0  0  0  0  0
  -25.6177  -23.9623   17.5992 H   0  0  0  0  0  0
  -26.8848  -23.5298   16.4716 H   0  0  0  0  0  0
  -27.0148  -25.0098   17.3716 H   0  0  0  0  0  0
  -29.8665  -22.4805   22.1938 H   0  0  0  0  0  0
  -30.1493  -23.9744   21.3702 H   0  0  0  0  0  0
  -31.0606  -22.5425   20.8832 H   0  0  0  0  0  0
  -28.7365  -25.5202   18.3695 H   0  0  0  0  0  0
  -29.8194  -25.1402   19.5768 H   0  0  0  0  0  0
  -28.8777  -15.7881   20.8286 H   0  0  0  0  0  0
  -31.8098  -18.5780   23.2872 H   0  0  0  0  0  0
  -32.3977  -18.6584   21.7632 H   0  0  0  0  0  0
  -32.1092  -17.2119   22.4554 H   0  0  0  0  0  0
  1 25  1  0  0  0
  1 30  2  0  0  0
  1 85  1  0  0  0
  2  3  1  0  0  0
  2 25  1  0  0  0
  2 87  1  0  0  0
  2 88  1  0  0  0
  3  4  1  0  0  0
  3 89  1  0  0  0
  3 90  1  0  0  0
  4  5  1  0  0  0
  4 91  1  0  0  0
  4 92  1  0  0  0
  5  6  1  0  0  0
  5 26  1  0  0  0
  5 93  1  0  0  0
  6 25  1  0  0  0
  6 94  1  0  0  0
  6 95  1  0  0  0
  7  8  2  0  0  0
  7 26  1  0  0  0
  7 29  1  0  0  0
  8  9  1  0  0  0
  8 22  1  0  0  0
  9 10  1  0  0  0
  9 27  2  0  0  0
 10 11  2  0  0  0
 10 15  1  0  0  0
 11 12  1  0  0  0
 11 96  1  0  0  0
 12 13  2  0  0  0
 12 97  1  0  0  0
 13 14  1  0  0  0
 13 31  1  0  0  0
 14 15  2  0  0  0
 14 98  1  0  0  0
 15 99  1  0  0  0
 16 17  2  0  0  0
 16 21  1  0  0  0
 16 31  1  0  0  0
 17 18  1  0  0  0
 17100  1  0  0  0
 18 19  2  0  0  0
 18101  1  0  0  0
 19 20  1  0  0  0
 19 24  1  0  0  0
 20 21  2  0  0  0
 20102  1  0  0  0
 21 23  1  0  0  0
 22 28  1  0  0  0
 22 32  2  0  0  0
 26 27  1  0  0  0
 28103  1  0  0  0
 28104  1  0  0  0
 29105  1  0  0  0
 29106  1  0  0  0
 33 34  1  0  0  0
 33 66  1  0  0  0
 33 70  2  0  0  0
 34 36  1  0  0  0
 34 59  1  0  0  0
 34107  1  0  0  0
 35 44  2  0  0  0
 35 45  1  0  0  0
 35 68  1  0  0  0
 36 56  1  0  0  0
 36108  1  0  0  0
 37 39  1  0  0  0
 37 47  1  0  0  0
 37 66  1  0  0  0
 37109  1  0  0  0
 38 43  2  0  0  0
 38 46  1  0  0  0
 38 47  1  0  0  0
 39 64  1  0  0  0
 39 67  2  0  0  0
 40 52  1  0  0  0
 40 53  2  0  0  0
 40 58  1  0  0  0
 41110  1  0  0  0
 41111  1  0  0  0
 41112  1  0  0  0
 41 48  1  0  0  0
 42 43  1  0  0  0
 42 66  1  0  0  0
 42113  1  0  0  0
 42114  1  0  0  0
 43 44  1  0  0  0
 44115  1  0  0  0
 45 46  2  0  0  0
 45116  1  0  0  0
 46117  1  0  0  0
 47118  1  0  0  0
 47119  1  0  0  0
 48 56  1  0  0  0
 48 65  1  0  0  0
 48120  1  0  0  0
 49 50  1  0  0  0
 49 53  1  0  0  0
 49 64  1  0  0  0
 49121  1  0  0  0
 50 51  1  0  0  0
 50122  1  0  0  0
 50123  1  0  0  0
 51 52  1  0  0  0
 51124  1  0  0  0
 51125  1  0  0  0
 52126  1  0  0  0
 52127  1  0  0  0
 53 54  1  0  0  0
 54 55  2  0  0  0
 54128  1  0  0  0
 55 57  1  0  0  0
 55129  1  0  0  0
 56 69  2  0  0  0
 57 58  2  0  0  0
 57130  1  0  0  0
 58131  1  0  0  0
 59 60  1  0  0  0
 59 61  1  0  0  0
 59 62  1  0  0  0
 60132  1  0  0  0
 60133  1  0  0  0
 60134  1  0  0  0
 61135  1  0  0  0
 61136  1  0  0  0
 61137  1  0  0  0
 62138  1  0  0  0
 62139  1  0  0  0
 62140  1  0  0  0
 63 65  1  0  0  0
 63141  1  0  0  0
 63142  1  0  0  0
 63143  1  0  0  0
 64144  1  0  0  0
 65145  1  0  0  0
 68 82  1  0  0  0
 71 72  2  0  0  0
 71 83  1  0  0  0
 71146  1  0  0  0
 72 73  1  0  0  0
 72 80  1  0  0  0
 73 74  2  0  0  0
 73 82  1  0  0  0
 74 75  1  0  0  0
 74 81  1  0  0  0
 75 83  2  0  0  0
 75 84  1  0  0  0
 76 78  1  0  0  0
 76 84  1  0  0  0
 76147  1  0  0  0
 76148  1  0  0  0
 77 79  1  0  0  0
 77 84  1  0  0  0
 77149  1  0  0  0
 77150  1  0  0  0
 78 79  1  0  0  0
 78 85  1  0  0  0
 78151  1  0  0  0
 79 86  1  0  0  0
 79152  1  0  0  0
 80153  1  0  0  0
 80154  1  0  0  0
 80155  1  0  0  0
 81156  1  0  0  0
 81157  1  0  0  0
 81158  1  0  0  0
 82159  1  0  0  0
 82160  1  0  0  0
 85161  1  0  0  0
 86162  1  0  0  0
 86163  1  0  0  0
 86164  1  0  0  0
M  CHG  1  86   1
M  ISO  4   1 100  68 101  82 101  85 100
M  END
> <chiral flag>
0

> <version>
0

> <s_m_source_file>
/data/baiqing/PycharmProjects/Reinvent-master-3.2/result/LINK_invent/BTK/process_docking_weight1_custom_sum_contain_oxygen_bond_distance_aromatic_linkinvent_7_9_3/rearranged_h_0175.sdf

> <i_m_source_file_index>
38

> <r_mmod_Potential_Energy-OPLS-2005>
-196.159713745117

> <r_mmod_Stretch_Energy-OPLS-2005>
152.828170776367

> <r_mmod_Bend_Energy-OPLS-2005>
277.557434082031

> <r_mmod_Torsional_Energy-OPLS-2005>
322.859680175781

> <r_mmod_Improper_Torsional_Energy-OPLS-2005>
11.3905239105225

> <r_mmod_Van_der_Waal_Energy-OPLS-2005>
139.364074707031

> <r_mmod_Electrostatic_Energy-OPLS-2005>
-674.31298828125

> <r_mmod_Solvation_Energy-OPLS-2005>
-536.625671386719

> <b_mmod_Minimization_Converged-OPLS-2005>
0

> <r_mmod_RMS_Derivative-OPLS-2005>
6.31688976287842

$$$$
38
                    3D
 Structure written by MMmdl.
175185  0  0  1  0            999 V2000
  -30.7473  -14.3584   20.6116 C   0  0  0  0  0  0
  -30.3948  -12.2403   19.4233 C   0  0  0  0  0  0
  -29.5034  -12.5254   18.2023 C   0  0  0  0  0  0
  -28.0138  -12.3939   18.5856 C   0  0  0  0  0  0
  -27.6556  -13.2065   19.8608 C   0  0  2  0  0  0
  -28.6776  -12.9445   20.9861 C   0  0  0  0  0  0
  -25.2539  -13.8119   20.5544 C   0  0  0  0  0  0
  -24.1839  -13.0381   20.9098 C   0  0  0  0  0  0
  -24.6395  -11.6849   20.8679 C   0  0  0  0  0  0
  -23.9073  -10.4224   21.0339 C   0  0  0  0  0  0
  -24.3623   -9.4160   21.9124 C   0  0  0  0  0  0
  -23.6264   -8.2224   22.0718 C   0  0  0  0  0  0
  -22.4216   -8.0284   21.3538 C   0  0  0  0  0  0
  -21.9885   -9.0248   20.4626 C   0  0  0  0  0  0
  -22.7241  -10.2097   20.2983 C   0  0  0  0  0  0
  -21.6818   -6.0747   22.5297 C   0  0  0  0  0  0
  -21.4036   -6.5659   23.8252 C   0  0  0  0  0  0
  -21.3659   -5.6778   24.9198 C   0  0  0  0  0  0
  -21.6054   -4.3044   24.7224 C   0  0  0  0  0  0
  -21.8836   -3.8156   23.4337 C   0  0  0  0  0  0
  -21.9157   -4.6983   22.3397 C   0  0  0  0  0  0
  -22.7871  -13.5185   21.1808 C   0  0  0  0  0  0
  -22.1588   -4.2179   21.0956 F   0  0  0  0  0  0
  -21.5601   -3.4515   25.7716 F   0  0  0  0  0  0
  -30.0275  -13.2174   20.4604 N   0  0  0  0  0  0
  -26.2958  -12.9301   20.3156 N   0  0  0  0  0  0
  -25.9318  -11.6465   20.5660 N   0  0  0  0  0  0
  -22.0540  -12.8164   22.0388 N   0  0  0  0  0  0
  -25.4231  -15.1833   20.3939 N   0  0  0  0  0  0
  -31.8660  -14.5034   20.1022 O   0  0  0  0  0  0
  -21.6574   -6.8878   21.4246 O   0  0  0  0  0  0
  -22.3550  -14.5474   20.6676 O   0  0  0  0  0  0
  -24.6069  -31.8727   23.2166 C   0  0  0  0  0  0
  -25.8994  -32.4849   23.8435 C   0  0  1  0  0  0
  -27.2245  -27.4980   20.0836 C   0  0  0  0  0  0
  -25.5881  -33.8656   24.2375 N   0  0  0  0  0  0
  -23.3901  -30.4979   21.5578 C   0  0  2  0  0  0
  -24.8332  -28.9697   20.1161 C   0  0  0  0  0  0
  -22.7381  -29.4681   22.5052 C   0  0  0  0  0  0
  -18.0266  -28.1364   22.8513 C   0  0  0  0  0  0
  -24.1485  -36.7317   23.2641 C   0  0  0  0  0  0
  -25.9119  -30.8551   21.3607 C   0  0  0  0  0  0
  -25.9869  -29.4926   20.7145 C   0  0  0  0  0  0
  -27.1858  -28.7558   20.7097 C   0  0  0  0  0  0
  -26.0593  -26.9643   19.4935 C   0  0  0  0  0  0
  -24.8604  -27.7004   19.5083 C   0  0  0  0  0  0
  -23.5914  -29.8300   20.1711 C   0  0  0  0  0  0
  -25.4104  -36.3139   24.0354 C   0  0  1  0  0  0
  -20.5854  -28.3636   23.1355 C   0  0  2  0  0  0
  -20.6763  -26.9381   22.5431 C   0  0  0  0  0  0
  -19.5738  -26.6383   21.5228 C   0  0  0  0  0  0
  -18.1915  -26.7916   22.1635 C   0  0  0  0  0  0
  -19.1514  -28.8818   23.2930 C   0  0  0  0  0  0
  -18.9440  -30.1433   23.8925 C   0  0  0  0  0  0
  -17.6439  -30.6575   24.0563 C   0  0  0  0  0  0
  -25.9023  -34.9497   23.5161 C   0  0  0  0  0  0
  -16.5334  -29.9078   23.6323 C   0  0  0  0  0  0
  -16.7255  -28.6495   23.0354 C   0  0  0  0  0  0
  -26.4451  -31.6603   25.0726 C   0  0  0  0  0  0
  -25.3754  -31.3651   26.1494 C   0  0  0  0  0  0
  -27.0270  -30.3071   24.6024 C   0  0  0  0  0  0
  -27.6047  -32.4304   25.7461 C   0  0  0  0  0  0
  -27.5588  -37.1815   24.8475 C   0  0  0  0  0  0
  -21.4119  -29.3023   22.3785 N   0  0  0  0  0  0
  -26.4303  -37.3809   23.9418 N   0  0  0  0  0  0
  -24.6539  -31.0890   22.1035 N   0  0  0  0  0  0
  -23.4182  -28.8239   23.3072 O   0  0  0  0  0  0
  -28.3935  -26.7976   20.0669 O   0  0  0  0  0  0
  -26.5585  -34.8928   22.4723 O   0  0  0  0  0  0
  -23.5281  -32.1474   23.7611 O   0  0  0  0  0  0
  -29.6425  -17.9278   20.7609 C   0  0  0  0  0  0
  -28.8150  -17.9138   21.9048 C   0  0  0  0  0  0
  -29.9379  -19.1575   20.1420 C   0  0  0  0  0  0
  -29.4039  -20.3301   20.7181 C   0  0  0  0  0  0
  -28.2467  -19.1303   22.3385 C   0  0  0  0  0  0
  -28.6078  -16.6008   22.6456 C   0  0  0  0  0  0
  -30.2693  -16.6513   20.2338 C   0  0  0  0  0  0
  -28.6793  -22.3033   19.2941 C   0  0  0  0  0  0
  -30.1948  -22.7126   21.2568 C   0  0  0  0  0  0
  -29.8262  -15.6822   22.4521 C   0  0  0  0  0  0
  -29.2253  -23.5704   18.6245 C   0  0  0  0  0  0
  -30.7400  -23.9729   20.5649 C   0  0  0  0  0  0
  -29.7694  -21.7035   20.1828 C   0  0  1  0  0  0
  -30.8549  -19.2219   18.9161 C   0  0  0  0  0  0
  -27.2883  -19.2125   23.5154 C   0  0  0  0  0  0
  -30.2029  -25.8082   18.9934 C   0  0  0  0  0  0
  -29.0082  -26.7352   18.7893 C   0  0  0  0  0  0
  -28.5399  -20.3080   21.7524 N   0  0  0  0  0  0
  -30.0581  -15.4371   21.0268 N   0  0  0  0  0  0
  -29.7424  -24.5469   19.6222 N   0  3  1  0  0  0
  -31.4523  -12.2747   19.1510 H   0  0  0  0  0  0
  -30.2210  -11.2242   19.7846 H   0  0  0  0  0  0
  -29.7579  -11.8590   17.3770 H   0  0  0  0  0  0
  -29.6949  -13.5422   17.8515 H   0  0  0  0  0  0
  -27.7995  -11.3356   18.7376 H   0  0  0  0  0  0
  -27.3897  -12.7145   17.7476 H   0  0  0  0  0  0
  -27.7109  -14.2646   19.5997 H   0  0  0  0  0  0
  -28.6175  -11.9047   21.3122 H   0  0  0  0  0  0
  -28.4111  -13.5285   21.8608 H   0  0  0  0  0  0
  -25.2796   -9.5630   22.4667 H   0  0  0  0  0  0
  -23.9986   -7.4602   22.7412 H   0  0  0  0  0  0
  -21.0831   -8.8801   19.8907 H   0  0  0  0  0  0
  -22.3751  -10.9639   19.6055 H   0  0  0  0  0  0
  -21.2100   -7.6165   23.9814 H   0  0  0  0  0  0
  -21.1408   -6.0465   25.9111 H   0  0  0  0  0  0
  -22.0620   -2.7628   23.2804 H   0  0  0  0  0  0
  -22.4162  -11.9819   22.4755 H   0  0  0  0  0  0
  -21.1155  -13.1202   22.2551 H   0  0  0  0  0  0
  -24.6516  -15.8324   20.5074 H   0  0  0  0  0  0
  -26.2711  -15.6287   20.0673 H   0  0  0  0  0  0
  -26.7075  -32.5585   23.1209 H   0  0  0  0  0  0
  -25.0053  -33.9827   25.0536 H   0  0  0  0  0  0
  -22.6750  -31.3111   21.4252 H   0  0  0  0  0  0
  -23.3749  -35.9650   23.3326 H   0  0  0  0  0  0
  -24.3579  -36.8896   22.2050 H   0  0  0  0  0  0
  -23.7225  -37.6529   23.6624 H   0  0  0  0  0  0
  -26.0155  -31.6205   20.5894 H   0  0  0  0  0  0
  -26.8039  -30.9123   21.9728 H   0  0  0  0  0  0
  -28.0810  -29.1555   21.1681 H   0  0  0  0  0  0
  -26.0770  -25.9897   19.0274 H   0  0  0  0  0  0
  -23.9706  -27.2914   19.0503 H   0  0  0  0  0  0
  -23.6878  -30.6045   19.4083 H   0  0  0  0  0  0
  -22.7167  -29.2433   19.8830 H   0  0  0  0  0  0
  -25.1275  -36.2023   25.0848 H   0  0  0  0  0  0
  -20.9940  -28.3188   24.1471 H   0  0  0  0  0  0
  -20.5687  -26.2236   23.3608 H   0  0  0  0  0  0
  -21.6632  -26.7449   22.1196 H   0  0  0  0  0  0
  -19.6892  -25.6304   21.1230 H   0  0  0  0  0  0
  -19.6670  -27.3224   20.6780 H   0  0  0  0  0  0
  -17.4192  -26.6694   21.4022 H   0  0  0  0  0  0
  -18.0286  -26.0039   22.9008 H   0  0  0  0  0  0
  -19.7915  -30.7252   24.2302 H   0  0  0  0  0  0
  -17.4990  -31.6256   24.5155 H   0  0  0  0  0  0
  -15.5337  -30.2981   23.7615 H   0  0  0  0  0  0
  -15.8664  -28.0808   22.7057 H   0  0  0  0  0  0
  -24.5936  -30.6980   25.7833 H   0  0  0  0  0  0
  -24.8922  -32.2778   26.4997 H   0  0  0  0  0  0
  -25.8142  -30.8792   27.0222 H   0  0  0  0  0  0
  -26.2777  -29.6827   24.1136 H   0  0  0  0  0  0
  -27.4158  -29.7283   25.4413 H   0  0  0  0  0  0
  -27.8561  -30.4423   23.9069 H   0  0  0  0  0  0
  -27.2696  -33.3606   26.2063 H   0  0  0  0  0  0
  -28.3830  -32.6865   25.0256 H   0  0  0  0  0  0
  -28.0751  -31.8416   26.5350 H   0  0  0  0  0  0
  -28.2621  -38.0097   24.7528 H   0  0  0  0  0  0
  -28.1068  -36.2635   24.6302 H   0  0  0  0  0  0
  -27.2308  -37.1465   25.8878 H   0  0  0  0  0  0
  -20.9274  -29.8713   21.6988 H   0  0  0  0  0  0
  -26.0205  -38.2897   24.1402 H   0  0  0  0  0  0
  -27.6969  -16.1222   22.2786 H   0  0  0  0  0  0
  -28.4662  -16.7799   23.7107 H   0  0  0  0  0  0
  -31.3386  -16.8483   20.1468 H   0  0  0  0  0  0
  -29.8929  -16.4748   19.2230 H   0  0  0  0  0  0
  -28.3866  -21.5838   18.5282 H   0  0  0  0  0  0
  -27.7833  -22.5175   19.8778 H   0  0  0  0  0  0
  -29.3529  -22.9611   21.9059 H   0  0  0  0  0  0
  -30.9633  -22.2744   21.8943 H   0  0  0  0  0  0
  -29.7108  -14.7590   23.0185 H   0  0  0  0  0  0
  -30.7111  -16.1669   22.8690 H   0  0  0  0  0  0
  -28.4404  -24.0165   18.0166 H   0  0  0  0  0  0
  -30.0269  -23.2976   17.9363 H   0  0  0  0  0  0
  -31.6613  -23.7381   20.0281 H   0  0  0  0  0  0
  -31.0041  -24.7086   21.3254 H   0  0  0  0  0  0
  -30.6616  -21.5903   19.5735 H   0  0  0  0  0  0
  -30.9576  -18.2764   18.3874 H   0  0  0  0  0  0
  -31.8524  -19.5366   19.2288 H   0  0  0  0  0  0
  -30.4775  -19.9278   18.1755 H   0  0  0  0  0  0
  -26.4514  -18.5238   23.3880 H   0  0  0  0  0  0
  -26.8734  -20.2138   23.6249 H   0  0  0  0  0  0
  -27.8001  -18.9668   24.4460 H   0  0  0  0  0  0
  -30.9113  -26.3174   19.6477 H   0  0  0  0  0  0
  -30.7274  -25.6234   18.0557 H   0  0  0  0  0  0
  -28.3298  -26.3430   18.0309 H   0  0  0  0  0  0
  -29.3320  -27.7257   18.4674 H   0  0  0  0  0  0
  -28.9585  -24.8289   20.1989 H   0  0  0  0  0  0
  1 25  1  0  0  0
  1 30  2  0  0  0
  1 89  1  0  0  0
  2  3  1  0  0  0
  2 25  1  0  0  0
  2 91  1  0  0  0
  2 92  1  0  0  0
  3  4  1  0  0  0
  3 93  1  0  0  0
  3 94  1  0  0  0
  4  5  1  0  0  0
  4 95  1  0  0  0
  4 96  1  0  0  0
  5  6  1  0  0  0
  5 26  1  0  0  0
  5 97  1  0  0  0
  6 25  1  0  0  0
  6 98  1  0  0  0
  6 99  1  0  0  0
  7  8  2  0  0  0
  7 26  1  0  0  0
  7 29  1  0  0  0
  8  9  1  0  0  0
  8 22  1  0  0  0
  9 10  1  0  0  0
  9 27  2  0  0  0
 10 11  2  0  0  0
 10 15  1  0  0  0
 11 12  1  0  0  0
 11100  1  0  0  0
 12 13  2  0  0  0
 12101  1  0  0  0
 13 14  1  0  0  0
 13 31  1  0  0  0
 14 15  2  0  0  0
 14102  1  0  0  0
 15103  1  0  0  0
 16 17  2  0  0  0
 16 21  1  0  0  0
 16 31  1  0  0  0
 17 18  1  0  0  0
 17104  1  0  0  0
 18 19  2  0  0  0
 18105  1  0  0  0
 19 20  1  0  0  0
 19 24  1  0  0  0
 20 21  2  0  0  0
 20106  1  0  0  0
 21 23  1  0  0  0
 22 28  1  0  0  0
 22 32  2  0  0  0
 26 27  1  0  0  0
 28107  1  0  0  0
 28108  1  0  0  0
 29109  1  0  0  0
 29110  1  0  0  0
 33 34  1  0  0  0
 33 66  1  0  0  0
 33 70  2  0  0  0
 34 36  1  0  0  0
 34 59  1  0  0  0
 34111  1  0  0  0
 35 44  2  0  0  0
 35 45  1  0  0  0
 35 68  1  0  0  0
 36 56  1  0  0  0
 36112  1  0  0  0
 37 39  1  0  0  0
 37 47  1  0  0  0
 37 66  1  0  0  0
 37113  1  0  0  0
 38 43  2  0  0  0
 38 46  1  0  0  0
 38 47  1  0  0  0
 39 64  1  0  0  0
 39 67  2  0  0  0
 40 52  1  0  0  0
 40 53  2  0  0  0
 40 58  1  0  0  0
 41114  1  0  0  0
 41115  1  0  0  0
 41116  1  0  0  0
 41 48  1  0  0  0
 42 43  1  0  0  0
 42 66  1  0  0  0
 42117  1  0  0  0
 42118  1  0  0  0
 43 44  1  0  0  0
 44119  1  0  0  0
 45 46  2  0  0  0
 45120  1  0  0  0
 46121  1  0  0  0
 47122  1  0  0  0
 47123  1  0  0  0
 48 56  1  0  0  0
 48 65  1  0  0  0
 48124  1  0  0  0
 49 50  1  0  0  0
 49 53  1  0  0  0
 49 64  1  0  0  0
 49125  1  0  0  0
 50 51  1  0  0  0
 50126  1  0  0  0
 50127  1  0  0  0
 51 52  1  0  0  0
 51128  1  0  0  0
 51129  1  0  0  0
 52130  1  0  0  0
 52131  1  0  0  0
 53 54  1  0  0  0
 54 55  2  0  0  0
 54132  1  0  0  0
 55 57  1  0  0  0
 55133  1  0  0  0
 56 69  2  0  0  0
 57 58  2  0  0  0
 57134  1  0  0  0
 58135  1  0  0  0
 59 60  1  0  0  0
 59 61  1  0  0  0
 59 62  1  0  0  0
 60136  1  0  0  0
 60137  1  0  0  0
 60138  1  0  0  0
 61139  1  0  0  0
 61140  1  0  0  0
 61141  1  0  0  0
 62142  1  0  0  0
 62143  1  0  0  0
 62144  1  0  0  0
 63 65  1  0  0  0
 63145  1  0  0  0
 63146  1  0  0  0
 63147  1  0  0  0
 64148  1  0  0  0
 65149  1  0  0  0
 68 87  1  0  0  0
 71 72  1  0  0  0
 71 73  2  0  0  0
 71 77  1  0  0  0
 72 75  2  0  0  0
 72 76  1  0  0  0
 73 74  1  0  0  0
 73 84  1  0  0  0
 74 88  2  0  0  0
 74 83  1  0  0  0
 75 85  1  0  0  0
 75 88  1  0  0  0
 76 80  1  0  0  0
 76150  1  0  0  0
 76151  1  0  0  0
 77 89  1  0  0  0
 77152  1  0  0  0
 77153  1  0  0  0
 78 81  1  0  0  0
 78 83  1  0  0  0
 78154  1  0  0  0
 78155  1  0  0  0
 79 82  1  0  0  0
 79 83  1  0  0  0
 79156  1  0  0  0
 79157  1  0  0  0
 80 89  1  0  0  0
 80158  1  0  0  0
 80159  1  0  0  0
 81 90  1  0  0  0
 81160  1  0  0  0
 81161  1  0  0  0
 82 90  1  0  0  0
 82162  1  0  0  0
 82163  1  0  0  0
 83164  1  0  0  0
 84165  1  0  0  0
 84166  1  0  0  0
 84167  1  0  0  0
 85168  1  0  0  0
 85169  1  0  0  0
 85170  1  0  0  0
 86 87  1  0  0  0
 86171  1  0  0  0
 86172  1  0  0  0
 86 90  1  0  0  0
 87173  1  0  0  0
 87174  1  0  0  0
 90175  1  0  0  0
M  CHG  1  90   1
M  ISO  4   1 100  68 101  87 101  89 100
M  END
> <chiral flag>
0

> <version>
0

> <s_m_source_file>
/data/baiqing/PycharmProjects/Reinvent-master-3.2/result/LINK_invent/BTK/process_docking_weight1_custom_sum_contain_oxygen_bond_distance_aromatic_linkinvent_7_9_3/rearranged_h_0175.sdf

> <i_m_source_file_index>
39

> <r_mmod_Potential_Energy-OPLS-2005>
-214.764587402344

> <r_mmod_Stretch_Energy-OPLS-2005>
32.5079765319824

> <r_mmod_Bend_Energy-OPLS-2005>
106.100852966309

> <r_mmod_Torsional_Energy-OPLS-2005>
335.819305419922

> <r_mmod_Improper_Torsional_Energy-OPLS-2005>
12.241512298584

> <r_mmod_Van_der_Waal_Energy-OPLS-2005>
186.954162597656

> <r_mmod_Electrostatic_Energy-OPLS-2005>
-495.651519775391

> <r_mmod_Solvation_Energy-OPLS-2005>
-403.663482666016

> <b_mmod_Minimization_Converged-OPLS-2005>
0

> <r_mmod_RMS_Derivative-OPLS-2005>
4.22031021118164

$$$$
39
                    3D
 Structure written by MMmdl.
177186  0  0  1  0            999 V2000
  -30.6446  -14.6299   20.4786 C   0  0  0  0  0  0
  -30.4196  -12.3858   19.4502 C   0  0  0  0  0  0
  -29.4951  -12.5077   18.2201 C   0  0  0  0  0  0
  -28.0188  -12.3457   18.6335 C   0  0  0  0  0  0
  -27.6423  -13.2239   19.8563 C   0  0  2  0  0  0
  -28.6879  -13.1071   20.9860 C   0  0  0  0  0  0
  -25.2511  -13.8195   20.5718 C   0  0  0  0  0  0
  -24.1787  -13.0421   20.9195 C   0  0  0  0  0  0
  -24.6381  -11.6908   20.8734 C   0  0  0  0  0  0
  -23.9061  -10.4278   21.0387 C   0  0  0  0  0  0
  -24.3610   -9.4195   21.9166 C   0  0  0  0  0  0
  -23.6285   -8.2231   22.0749 C   0  0  0  0  0  0
  -22.4269   -8.0272   21.3538 C   0  0  0  0  0  0
  -21.9894   -9.0245   20.4643 C   0  0  0  0  0  0
  -22.7224  -10.2124   20.3046 C   0  0  0  0  0  0
  -21.6853   -6.0728   22.5271 C   0  0  0  0  0  0
  -21.4018   -6.5641   23.8203 C   0  0  0  0  0  0
  -21.3664   -5.6798   24.9165 C   0  0  0  0  0  0
  -21.6043   -4.3056   24.7218 C   0  0  0  0  0  0
  -21.8821   -3.8144   23.4340 C   0  0  0  0  0  0
  -21.9191   -4.6958   22.3393 C   0  0  0  0  0  0
  -22.7816  -13.5208   21.1862 C   0  0  0  0  0  0
  -22.1662   -4.2142   21.0969 F   0  0  0  0  0  0
  -21.5623   -3.4547   25.7730 F   0  0  0  0  0  0
  -29.9977  -13.4263   20.4066 N   0  0  0  0  0  0
  -26.2929  -12.9389   20.3311 N   0  0  0  0  0  0
  -25.9308  -11.6535   20.5747 N   0  0  0  0  0  0
  -22.0502  -12.8169   22.0434 N   0  0  0  0  0  0
  -25.4186  -15.1923   20.4163 N   0  0  0  0  0  0
  -31.8315  -14.7319   20.1498 O   0  0  0  0  0  0
  -21.6646   -6.8865   21.4229 O   0  0  0  0  0  0
  -22.3461  -14.5496   20.6711 O   0  0  0  0  0  0
  -24.6176  -31.8684   23.2057 C   0  0  0  0  0  0
  -25.9052  -32.4840   23.8350 C   0  0  1  0  0  0
  -27.2013  -27.3735   20.0994 C   0  0  0  0  0  0
  -25.5888  -33.8636   24.2300 N   0  0  0  0  0  0
  -23.4053  -30.4937   21.5500 C   0  0  2  0  0  0
  -24.8463  -28.9603   20.1017 C   0  0  0  0  0  0
  -22.7431  -29.4647   22.4974 C   0  0  0  0  0  0
  -18.0281  -28.1363   22.8496 C   0  0  0  0  0  0
  -24.1464  -36.7300   23.2640 C   0  0  0  0  0  0
  -25.9383  -30.8172   21.3608 C   0  0  0  0  0  0
  -26.0119  -29.4457   20.7092 C   0  0  0  0  0  0
  -27.1962  -28.6593   20.7067 C   0  0  0  0  0  0
  -26.0269  -26.9362   19.4543 C   0  0  0  0  0  0
  -24.8527  -27.7106   19.4635 C   0  0  0  0  0  0
  -23.6119  -29.8376   20.1597 C   0  0  0  0  0  0
  -25.4096  -36.3132   24.0339 C   0  0  1  0  0  0
  -20.5870  -28.3655   23.1324 C   0  0  2  0  0  0
  -20.6772  -26.9393   22.5419 C   0  0  0  0  0  0
  -19.5751  -26.6387   21.5213 C   0  0  0  0  0  0
  -18.1921  -26.7919   22.1622 C   0  0  0  0  0  0
  -19.1525  -28.8828   23.2902 C   0  0  0  0  0  0
  -18.9476  -30.1441   23.8901 C   0  0  0  0  0  0
  -17.6486  -30.6585   24.0552 C   0  0  0  0  0  0
  -25.9045  -34.9503   23.5135 C   0  0  0  0  0  0
  -16.5365  -29.9089   23.6328 C   0  0  0  0  0  0
  -16.7265  -28.6488   23.0361 C   0  0  0  0  0  0
  -26.4466  -31.6610   25.0688 C   0  0  0  0  0  0
  -25.3721  -31.3723   26.1436 C   0  0  0  0  0  0
  -27.0242  -30.3050   24.6009 C   0  0  0  0  0  0
  -27.6035  -32.4316   25.7467 C   0  0  0  0  0  0
  -27.5563  -37.1801   24.8484 C   0  0  0  0  0  0
  -21.4153  -29.3025   22.3727 N   0  0  0  0  0  0
  -26.4272  -37.3837   23.9444 N   0  0  0  0  0  0
  -24.6735  -31.0732   22.0977 N   0  0  0  0  0  0
  -23.4203  -28.8178   23.2998 O   0  0  0  0  0  0
  -28.3080  -26.5328   20.1261 O   0  0  0  0  0  0
  -26.5636  -34.8956   22.4717 O   0  0  0  0  0  0
  -23.5358  -32.1472   23.7414 O   0  0  0  0  0  0
  -28.7747  -17.8007   21.6995 C   0  0  0  0  0  0
  -30.1393  -18.1703   19.6208 C   0  0  0  0  0  0
  -29.6581  -16.4997   21.7930 C   0  0  0  0  0  0
  -29.7940  -16.6683   19.3407 C   0  0  0  0  0  0
  -30.9853  -20.0559   21.8666 C   0  0  0  0  0  0
  -29.1728  -18.8716   20.6237 C   0  0  0  0  0  0
  -31.8861  -20.8673   20.9354 C   0  0  2  0  0  0
  -29.7259  -21.4730   20.4325 C   0  0  1  0  0  0
  -33.3162  -21.1144   21.4496 C   0  0  0  0  0  0
  -28.0228  -22.5732   22.0764 C   0  0  0  0  0  0
  -28.1134  -23.9111   18.4610 C   0  0  0  0  0  0
  -31.2009  -23.0356   21.7774 C   0  0  0  0  0  0
  -28.0586  -25.1908   20.6626 C   0  0  0  0  0  0
  -28.5217  -22.5118   20.6123 C   0  0  2  0  0  0
  -28.6694  -23.9493   19.8965 C   0  0  1  0  0  0
  -29.8540  -15.7619   20.5231 N   0  0  0  0  0  0
  -31.0737  -22.0600   20.6778 N   0  0  0  0  0  0
  -29.6591  -20.1800   21.2406 N   0  3  2  0  0  0
  -31.4637  -12.4935   19.1516 H   0  0  0  0  0  0
  -30.3346  -11.3973   19.9043 H   0  0  0  0  0  0
  -29.7576  -11.7636   17.4671 H   0  0  0  0  0  0
  -29.6341  -13.4818   17.7482 H   0  0  0  0  0  0
  -27.8556  -11.2933   18.8658 H   0  0  0  0  0  0
  -27.3615  -12.5756   17.7927 H   0  0  0  0  0  0
  -27.6468  -14.2546   19.5020 H   0  0  0  0  0  0
  -28.6969  -12.1028   21.4120 H   0  0  0  0  0  0
  -28.4422  -13.7840   21.8046 H   0  0  0  0  0  0
  -25.2762   -9.5684   22.4727 H   0  0  0  0  0  0
  -24.0008   -7.4631   22.7468 H   0  0  0  0  0  0
  -21.0826   -8.8743   19.8960 H   0  0  0  0  0  0
  -22.3660  -10.9650   19.6155 H   0  0  0  0  0  0
  -21.2026   -7.6154   23.9695 H   0  0  0  0  0  0
  -21.1483   -6.0534   25.9062 H   0  0  0  0  0  0
  -22.0597   -2.7608   23.2839 H   0  0  0  0  0  0
  -22.4157  -11.9829   22.4783 H   0  0  0  0  0  0
  -21.1121  -13.1161   22.2703 H   0  0  0  0  0  0
  -24.6499  -15.8436   20.5338 H   0  0  0  0  0  0
  -26.2748  -15.6376   20.1138 H   0  0  0  0  0  0
  -26.7105  -32.5548   23.1074 H   0  0  0  0  0  0
  -25.0007  -33.9793   25.0423 H   0  0  0  0  0  0
  -22.6928  -31.3109   21.4175 H   0  0  0  0  0  0
  -23.3761  -35.9606   23.3334 H   0  0  0  0  0  0
  -24.3552  -36.8900   22.2053 H   0  0  0  0  0  0
  -23.7174  -37.6492   23.6640 H   0  0  0  0  0  0
  -26.0486  -31.5747   20.5842 H   0  0  0  0  0  0
  -26.8275  -30.8815   21.9739 H   0  0  0  0  0  0
  -28.0887  -29.0170   21.1982 H   0  0  0  0  0  0
  -26.0091  -25.9824   18.9449 H   0  0  0  0  0  0
  -23.9638  -27.3438   18.9682 H   0  0  0  0  0  0
  -23.7169  -30.6234   19.4105 H   0  0  0  0  0  0
  -22.7311  -29.2683   19.8587 H   0  0  0  0  0  0
  -25.1258  -36.1986   25.0826 H   0  0  0  0  0  0
  -20.9963  -28.3202   24.1441 H   0  0  0  0  0  0
  -20.5703  -26.2223   23.3588 H   0  0  0  0  0  0
  -21.6638  -26.7439   22.1196 H   0  0  0  0  0  0
  -19.6914  -25.6308   21.1223 H   0  0  0  0  0  0
  -19.6712  -27.3206   20.6751 H   0  0  0  0  0  0
  -17.4210  -26.6697   21.4006 H   0  0  0  0  0  0
  -18.0288  -26.0041   22.8993 H   0  0  0  0  0  0
  -19.7958  -30.7236   24.2261 H   0  0  0  0  0  0
  -17.5054  -31.6265   24.5149 H   0  0  0  0  0  0
  -15.5376  -30.3002   23.7637 H   0  0  0  0  0  0
  -15.8663  -28.0808   22.7087 H   0  0  0  0  0  0
  -24.5942  -30.6997   25.7811 H   0  0  0  0  0  0
  -24.8849  -32.2865   26.4835 H   0  0  0  0  0  0
  -25.8100  -30.8977   27.0218 H   0  0  0  0  0  0
  -26.2726  -29.6893   24.1056 H   0  0  0  0  0  0
  -27.4024  -29.7213   25.4410 H   0  0  0  0  0  0
  -27.8566  -30.4393   23.9108 H   0  0  0  0  0  0
  -27.2649  -33.3624   26.2019 H   0  0  0  0  0  0
  -28.3859  -32.6872   25.0315 H   0  0  0  0  0  0
  -28.0658  -31.8451   26.5416 H   0  0  0  0  0  0
  -28.2606  -38.0077   24.7552 H   0  0  0  0  0  0
  -28.1029  -36.2619   24.6282 H   0  0  0  0  0  0
  -27.2286  -37.1409   25.8889 H   0  0  0  0  0  0
  -20.9288  -29.8784   21.7004 H   0  0  0  0  0  0
  -26.0169  -38.2909   24.1517 H   0  0  0  0  0  0
  -28.7073  -18.2620   22.6860 H   0  0  0  0  0  0
  -27.7533  -17.4838   21.4819 H   0  0  0  0  0  0
  -30.1475  -18.7311   18.6857 H   0  0  0  0  0  0
  -31.1687  -18.1873   19.9739 H   0  0  0  0  0  0
  -29.2160  -15.8262   22.5277 H   0  0  0  0  0  0
  -30.6417  -16.7590   22.1848 H   0  0  0  0  0  0
  -30.4517  -16.3064   18.5478 H   0  0  0  0  0  0
  -28.7886  -16.6029   18.9252 H   0  0  0  0  0  0
  -30.9466  -20.4829   22.8676 H   0  0  0  0  0  0
  -31.3256  -19.0319   22.0032 H   0  0  0  0  0  0
  -28.2580  -19.1259   20.0836 H   0  0  0  0  0  0
  -31.9842  -20.3410   19.9835 H   0  0  0  0  0  0
  -29.7383  -21.1765   19.3820 H   0  0  0  0  0  0
  -33.3372  -21.5451   22.4513 H   0  0  0  0  0  0
  -33.8646  -21.7780   20.7805 H   0  0  0  0  0  0
  -33.8696  -20.1765   21.4989 H   0  0  0  0  0  0
  -27.8136  -21.5813   22.4769 H   0  0  0  0  0  0
  -27.0828  -23.1198   22.1587 H   0  0  0  0  0  0
  -28.7281  -23.0614   22.7437 H   0  0  0  0  0  0
  -28.3186  -24.8450   17.9356 H   0  0  0  0  0  0
  -27.0329  -23.7667   18.4573 H   0  0  0  0  0  0
  -28.5597  -23.1032   17.8818 H   0  0  0  0  0  0
  -32.2236  -23.4124   21.8364 H   0  0  0  0  0  0
  -30.9459  -22.6242   22.7527 H   0  0  0  0  0  0
  -30.5987  -23.9266   21.6377 H   0  0  0  0  0  0
  -28.4686  -25.2135   21.6720 H   0  0  0  0  0  0
  -26.9925  -25.0093   20.8087 H   0  0  0  0  0  0
  -27.6799  -22.0374   20.1065 H   0  0  0  0  0  0
  -29.7276  -24.1706   19.7714 H   0  0  0  0  0  0
  -29.0088  -20.3804   21.9862 H   0  0  0  0  0  0
  1 25  1  0  0  0
  1 30  2  0  0  0
  1 86  1  0  0  0
  2  3  1  0  0  0
  2 25  1  0  0  0
  2 89  1  0  0  0
  2 90  1  0  0  0
  3  4  1  0  0  0
  3 91  1  0  0  0
  3 92  1  0  0  0
  4  5  1  0  0  0
  4 93  1  0  0  0
  4 94  1  0  0  0
  5  6  1  0  0  0
  5 26  1  0  0  0
  5 95  1  0  0  0
  6 25  1  0  0  0
  6 96  1  0  0  0
  6 97  1  0  0  0
  7  8  2  0  0  0
  7 26  1  0  0  0
  7 29  1  0  0  0
  8  9  1  0  0  0
  8 22  1  0  0  0
  9 10  1  0  0  0
  9 27  2  0  0  0
 10 11  2  0  0  0
 10 15  1  0  0  0
 11 12  1  0  0  0
 11 98  1  0  0  0
 12 13  2  0  0  0
 12 99  1  0  0  0
 13 14  1  0  0  0
 13 31  1  0  0  0
 14 15  2  0  0  0
 14100  1  0  0  0
 15101  1  0  0  0
 16 17  2  0  0  0
 16 21  1  0  0  0
 16 31  1  0  0  0
 17 18  1  0  0  0
 17102  1  0  0  0
 18 19  2  0  0  0
 18103  1  0  0  0
 19 20  1  0  0  0
 19 24  1  0  0  0
 20 21  2  0  0  0
 20104  1  0  0  0
 21 23  1  0  0  0
 22 28  1  0  0  0
 22 32  2  0  0  0
 26 27  1  0  0  0
 28105  1  0  0  0
 28106  1  0  0  0
 29107  1  0  0  0
 29108  1  0  0  0
 33 34  1  0  0  0
 33 66  1  0  0  0
 33 70  2  0  0  0
 34 36  1  0  0  0
 34 59  1  0  0  0
 34109  1  0  0  0
 35 44  2  0  0  0
 35 45  1  0  0  0
 35 68  1  0  0  0
 36 56  1  0  0  0
 36110  1  0  0  0
 37 39  1  0  0  0
 37 47  1  0  0  0
 37 66  1  0  0  0
 37111  1  0  0  0
 38 43  2  0  0  0
 38 46  1  0  0  0
 38 47  1  0  0  0
 39 64  1  0  0  0
 39 67  2  0  0  0
 40 52  1  0  0  0
 40 53  2  0  0  0
 40 58  1  0  0  0
 41112  1  0  0  0
 41113  1  0  0  0
 41114  1  0  0  0
 41 48  1  0  0  0
 42 43  1  0  0  0
 42 66  1  0  0  0
 42115  1  0  0  0
 42116  1  0  0  0
 43 44  1  0  0  0
 44117  1  0  0  0
 45 46  2  0  0  0
 45118  1  0  0  0
 46119  1  0  0  0
 47120  1  0  0  0
 47121  1  0  0  0
 48 56  1  0  0  0
 48 65  1  0  0  0
 48122  1  0  0  0
 49 50  1  0  0  0
 49 53  1  0  0  0
 49 64  1  0  0  0
 49123  1  0  0  0
 50 51  1  0  0  0
 50124  1  0  0  0
 50125  1  0  0  0
 51 52  1  0  0  0
 51126  1  0  0  0
 51127  1  0  0  0
 52128  1  0  0  0
 52129  1  0  0  0
 53 54  1  0  0  0
 54 55  2  0  0  0
 54130  1  0  0  0
 55 57  1  0  0  0
 55131  1  0  0  0
 56 69  2  0  0  0
 57 58  2  0  0  0
 57132  1  0  0  0
 58133  1  0  0  0
 59 60  1  0  0  0
 59 61  1  0  0  0
 59 62  1  0  0  0
 60134  1  0  0  0
 60135  1  0  0  0
 60136  1  0  0  0
 61137  1  0  0  0
 61138  1  0  0  0
 61139  1  0  0  0
 62140  1  0  0  0
 62141  1  0  0  0
 62142  1  0  0  0
 63 65  1  0  0  0
 63143  1  0  0  0
 63144  1  0  0  0
 63145  1  0  0  0
 64146  1  0  0  0
 65147  1  0  0  0
 68 83  1  0  0  0
 71 73  1  0  0  0
 71148  1  0  0  0
 71149  1  0  0  0
 71 76  1  0  0  0
 72 74  1  0  0  0
 72 76  1  0  0  0
 72150  1  0  0  0
 72151  1  0  0  0
 73 86  1  0  0  0
 73152  1  0  0  0
 73153  1  0  0  0
 74 86  1  0  0  0
 74154  1  0  0  0
 74155  1  0  0  0
 75 77  1  0  0  0
 75156  1  0  0  0
 75157  1  0  0  0
 75 88  1  0  0  0
 76 88  1  0  0  0
 76158  1  0  0  0
 77 79  1  0  0  0
 77 87  1  0  0  0
 77159  1  0  0  0
 78 84  1  0  0  0
 78 87  1  0  0  0
 78 88  1  0  0  0
 78160  1  0  0  0
 79161  1  0  0  0
 79162  1  0  0  0
 79163  1  0  0  0
 80164  1  0  0  0
 80165  1  0  0  0
 80166  1  0  0  0
 80 84  1  0  0  0
 81167  1  0  0  0
 81168  1  0  0  0
 81169  1  0  0  0
 81 85  1  0  0  0
 82 87  1  0  0  0
 82170  1  0  0  0
 82171  1  0  0  0
 82172  1  0  0  0
 83 85  1  0  0  0
 83173  1  0  0  0
 83174  1  0  0  0
 84 85  1  0  0  0
 84175  1  0  0  0
 85176  1  0  0  0
 88177  1  0  0  0
M  CHG  1  88   1
M  ISO  4   1 100  68 101  83 101  86 100
M  END
> <chiral flag>
0

> <version>
0

> <s_m_source_file>
/data/baiqing/PycharmProjects/Reinvent-master-3.2/result/LINK_invent/BTK/process_docking_weight1_custom_sum_contain_oxygen_bond_distance_aromatic_linkinvent_7_9_3/rearranged_h_0175.sdf

> <i_m_source_file_index>
40

> <r_mmod_Potential_Energy-OPLS-2005>
384.768707275391

> <r_mmod_Stretch_Energy-OPLS-2005>
83.5545120239258

> <r_mmod_Bend_Energy-OPLS-2005>
179.01139831543

> <r_mmod_Torsional_Energy-OPLS-2005>
461.958190917969

> <r_mmod_Improper_Torsional_Energy-OPLS-2005>
13.6360559463501

> <r_mmod_Van_der_Waal_Energy-OPLS-2005>
147.202224731445

> <r_mmod_Electrostatic_Energy-OPLS-2005>
-133.958633422852

> <r_mmod_Solvation_Energy-OPLS-2005>
-408.419891357422

> <b_mmod_Minimization_Converged-OPLS-2005>
0

> <r_mmod_RMS_Derivative-OPLS-2005>
3.65491342544556

$$$$
40
                    3D
 Structure written by MMmdl.
179189  0  0  1  0            999 V2000
  -30.7220  -14.4236   20.5771 C   0  0  0  0  0  0
  -30.4162  -12.2773   19.4114 C   0  0  0  0  0  0
  -29.4911  -12.5037   18.2001 C   0  0  0  0  0  0
  -28.0115  -12.3719   18.6137 C   0  0  0  0  0  0
  -27.6647  -13.2025   19.8779 C   0  0  2  0  0  0
  -28.7063  -12.9655   20.9934 C   0  0  0  0  0  0
  -25.2615  -13.8154   20.5650 C   0  0  0  0  0  0
  -24.1856  -13.0430   20.9141 C   0  0  0  0  0  0
  -24.6402  -11.6899   20.8726 C   0  0  0  0  0  0
  -23.9064  -10.4290   21.0411 C   0  0  0  0  0  0
  -24.3622   -9.4207   21.9185 C   0  0  0  0  0  0
  -23.6292   -8.2254   22.0768 C   0  0  0  0  0  0
  -22.4284   -8.0283   21.3549 C   0  0  0  0  0  0
  -21.9915   -9.0252   20.4651 C   0  0  0  0  0  0
  -22.7247  -10.2127   20.3051 C   0  0  0  0  0  0
  -21.6847   -6.0731   22.5280 C   0  0  0  0  0  0
  -21.4014   -6.5639   23.8208 C   0  0  0  0  0  0
  -21.3661   -5.6802   24.9171 C   0  0  0  0  0  0
  -21.6043   -4.3060   24.7234 C   0  0  0  0  0  0
  -21.8816   -3.8146   23.4355 C   0  0  0  0  0  0
  -21.9198   -4.6961   22.3407 C   0  0  0  0  0  0
  -22.7878  -13.5225   21.1799 C   0  0  0  0  0  0
  -22.1662   -4.2135   21.0988 F   0  0  0  0  0  0
  -21.5632   -3.4544   25.7745 F   0  0  0  0  0  0
  -30.0399  -13.2577   20.4403 N   0  0  0  0  0  0
  -26.3042  -12.9310   20.3382 N   0  0  0  0  0  0
  -25.9323  -11.6469   20.5758 N   0  0  0  0  0  0
  -22.0538  -12.8201   22.0354 N   0  0  0  0  0  0
  -25.4361  -15.1861   20.4017 N   0  0  0  0  0  0
  -31.8424  -14.5957   20.0953 O   0  0  0  0  0  0
  -21.6638   -6.8882   21.4245 O   0  0  0  0  0  0
  -22.3560  -14.5533   20.6658 O   0  0  0  0  0  0
  -24.6107  -31.8678   23.2125 C   0  0  0  0  0  0
  -25.8990  -32.4837   23.8434 C   0  0  1  0  0  0
  -27.2472  -27.4585   20.0828 C   0  0  0  0  0  0
  -25.5825  -33.8639   24.2344 N   0  0  0  0  0  0
  -23.4019  -30.4908   21.5479 C   0  0  2  0  0  0
  -24.8553  -28.9589   20.1154 C   0  0  0  0  0  0
  -22.7401  -29.4658   22.4967 C   0  0  0  0  0  0
  -18.0262  -28.1370   22.8507 C   0  0  0  0  0  0
  -24.1463  -36.7318   23.2652 C   0  0  0  0  0  0
  -25.9314  -30.8350   21.3707 C   0  0  0  0  0  0
  -26.0124  -29.4736   20.7137 C   0  0  0  0  0  0
  -27.2124  -28.7274   20.7028 C   0  0  0  0  0  0
  -26.0697  -26.9412   19.5061 C   0  0  0  0  0  0
  -24.8769  -27.6885   19.5122 C   0  0  0  0  0  0
  -23.6130  -29.8182   20.1645 C   0  0  0  0  0  0
  -25.4089  -36.3143   24.0360 C   0  0  1  0  0  0
  -20.5855  -28.3659   23.1301 C   0  0  2  0  0  0
  -20.6731  -26.9393   22.5410 C   0  0  0  0  0  0
  -19.5720  -26.6385   21.5194 C   0  0  0  0  0  0
  -18.1900  -26.7917   22.1627 C   0  0  0  0  0  0
  -19.1513  -28.8832   23.2899 C   0  0  0  0  0  0
  -18.9457  -30.1432   23.8922 C   0  0  0  0  0  0
  -17.6460  -30.6585   24.0566 C   0  0  0  0  0  0
  -25.9009  -34.9498   23.5165 C   0  0  0  0  0  0
  -16.5347  -29.9092   23.6325 C   0  0  0  0  0  0
  -16.7248  -28.6498   23.0368 C   0  0  0  0  0  0
  -26.4451  -31.6647   25.0771 C   0  0  0  0  0  0
  -25.3734  -31.3715   26.1536 C   0  0  0  0  0  0
  -27.0323  -30.3099   24.6204 C   0  0  0  0  0  0
  -27.6035  -32.4408   25.7498 C   0  0  0  0  0  0
  -27.5589  -37.1801   24.8468 C   0  0  0  0  0  0
  -21.4125  -29.3036   22.3711 N   0  0  0  0  0  0
  -26.4283  -37.3825   23.9435 N   0  0  0  0  0  0
  -24.6649  -31.0801   22.1010 N   0  0  0  0  0  0
  -23.4175  -28.8194   23.2999 O   0  0  0  0  0  0
  -28.3951  -26.7009   20.0985 O   0  0  0  0  0  0
  -26.5612  -34.8950   22.4749 O   0  0  0  0  0  0
  -23.5295  -32.1418   23.7509 O   0  0  0  0  0  0
  -31.0029  -17.8853   17.9725 C   0  0  0  0  0  0
  -30.6237  -18.9472   17.1942 C   0  0  0  0  0  0
  -30.4147  -20.0005   18.1391 C   0  0  0  0  0  0
  -31.8764  -18.2601   21.7157 C   0  0  0  0  0  0
  -31.3207  -17.0863   22.5326 C   0  0  0  0  0  0
  -28.5999  -21.7814   18.2754 C   0  0  0  0  0  0
  -30.9795  -22.4559   18.5415 C   0  0  0  0  0  0
  -28.2467  -23.2263   17.8684 C   0  0  0  0  0  0
  -30.6204  -23.8916   18.1107 C   0  0  0  0  0  0
  -30.0386  -21.4431   17.8686 C   0  0  1  0  0  0
  -31.3789  -17.5457   20.4456 C   0  0  1  0  0  0
  -30.3479  -16.8417   21.3697 C   0  0  1  0  0  0
  -29.7975  -17.7435   15.1350 C   0  0  0  0  0  0
  -31.8492  -19.2224   15.0211 C   0  0  0  0  0  0
  -28.8392  -25.6147   17.9294 C   0  0  0  0  0  0
  -29.1972  -26.7422   18.9198 C   0  0  0  0  0  0
  -30.4844  -19.0022   15.6878 C   0  0  0  0  0  0
  -30.5813  -19.5873   19.3896 N   0  0  0  0  0  0
  -30.9929  -18.3037   19.2835 N   0  0  0  0  0  0
  -30.0294  -15.4148   21.1629 N   0  0  0  0  0  0
  -29.1984  -24.2444   18.4035 N   0  3  1  0  0  0
  -31.4633  -12.3551   19.1119 H   0  0  0  0  0  0
  -30.2955  -11.2648   19.8004 H   0  0  0  0  0  0
  -29.7232  -11.7906   17.4074 H   0  0  0  0  0  0
  -29.6696  -13.4959   17.7825 H   0  0  0  0  0  0
  -27.8120  -11.3158   18.8000 H   0  0  0  0  0  0
  -27.3633  -12.6596   17.7862 H   0  0  0  0  0  0
  -27.7155  -14.2522   19.5891 H   0  0  0  0  0  0
  -28.6729  -11.9262   21.3254 H   0  0  0  0  0  0
  -28.4741  -13.5550   21.8809 H   0  0  0  0  0  0
  -25.2778   -9.5661   22.4739 H   0  0  0  0  0  0
  -23.9993   -7.4645   22.7482 H   0  0  0  0  0  0
  -21.0853   -8.8770   19.8942 H   0  0  0  0  0  0
  -22.3735  -10.9656   19.6141 H   0  0  0  0  0  0
  -21.1998   -7.6148   23.9699 H   0  0  0  0  0  0
  -21.1487   -6.0538   25.9073 H   0  0  0  0  0  0
  -22.0593   -2.7609   23.2861 H   0  0  0  0  0  0
  -22.4177  -11.9874   22.4754 H   0  0  0  0  0  0
  -21.1143  -13.1197   22.2522 H   0  0  0  0  0  0
  -24.6745  -15.8476   20.5054 H   0  0  0  0  0  0
  -26.2854  -15.6153   20.0571 H   0  0  0  0  0  0
  -26.7052  -32.5576   23.1198 H   0  0  0  0  0  0
  -24.9902  -33.9807   25.0443 H   0  0  0  0  0  0
  -22.6908  -31.3068   21.4036 H   0  0  0  0  0  0
  -23.3752  -35.9622   23.3320 H   0  0  0  0  0  0
  -24.3530  -36.8939   22.2060 H   0  0  0  0  0  0
  -23.7177  -37.6506   23.6663 H   0  0  0  0  0  0
  -26.0538  -31.6060   20.6081 H   0  0  0  0  0  0
  -26.8112  -30.8789   22.0008 H   0  0  0  0  0  0
  -28.1058  -29.1193   21.1705 H   0  0  0  0  0  0
  -26.0632  -25.9543   19.0682 H   0  0  0  0  0  0
  -23.9840  -27.2789   19.0590 H   0  0  0  0  0  0
  -23.7114  -30.5863   19.3968 H   0  0  0  0  0  0
  -22.7410  -29.2263   19.8776 H   0  0  0  0  0  0
  -25.1254  -36.2015   25.0850 H   0  0  0  0  0  0
  -20.9953  -28.3231   24.1417 H   0  0  0  0  0  0
  -20.5575  -26.2295   23.3607 H   0  0  0  0  0  0
  -21.6606  -26.7382   22.1247 H   0  0  0  0  0  0
  -19.6872  -25.6294   21.1222 H   0  0  0  0  0  0
  -19.6651  -27.3199   20.6724 H   0  0  0  0  0  0
  -17.4156  -26.6675   21.4034 H   0  0  0  0  0  0
  -18.0316  -26.0033   22.9008 H   0  0  0  0  0  0
  -19.7921  -30.7230   24.2330 H   0  0  0  0  0  0
  -17.5010  -31.6274   24.5160 H   0  0  0  0  0  0
  -15.5346  -30.3013   23.7616 H   0  0  0  0  0  0
  -15.8647  -28.0806   22.7107 H   0  0  0  0  0  0
  -24.5857  -30.7140   25.7850 H   0  0  0  0  0  0
  -24.8976  -32.2849   26.5114 H   0  0  0  0  0  0
  -25.8091  -30.8767   27.0230 H   0  0  0  0  0  0
  -26.2888  -29.6808   24.1299 H   0  0  0  0  0  0
  -27.4114  -29.7409   25.4709 H   0  0  0  0  0  0
  -27.8714  -30.4432   23.9372 H   0  0  0  0  0  0
  -27.2644  -33.3684   26.2132 H   0  0  0  0  0  0
  -28.3767  -32.7036   25.0261 H   0  0  0  0  0  0
  -28.0804  -31.8523   26.5354 H   0  0  0  0  0  0
  -28.2604  -38.0107   24.7558 H   0  0  0  0  0  0
  -28.1094  -36.2649   24.6235 H   0  0  0  0  0  0
  -27.2319  -37.1377   25.8874 H   0  0  0  0  0  0
  -20.9282  -29.8801   21.6975 H   0  0  0  0  0  0
  -26.0197  -38.2911   24.1458 H   0  0  0  0  0  0
  -31.2978  -16.8815   17.6989 H   0  0  0  0  0  0
  -32.9592  -18.3855   21.7629 H   0  0  0  0  0  0
  -31.3580  -19.1987   21.9163 H   0  0  0  0  0  0
  -30.8487  -17.3760   23.4723 H   0  0  0  0  0  0
  -32.0525  -16.2899   22.6729 H   0  0  0  0  0  0
  -27.9090  -21.0902   17.7913 H   0  0  0  0  0  0
  -28.4674  -21.6471   19.3502 H   0  0  0  0  0  0
  -30.9226  -22.3672   19.6278 H   0  0  0  0  0  0
  -32.0125  -22.2388   18.2694 H   0  0  0  0  0  0
  -27.2385  -23.4549   18.2150 H   0  0  0  0  0  0
  -28.2260  -23.2984   16.7796 H   0  0  0  0  0  0
  -30.8026  -23.9873   17.0394 H   0  0  0  0  0  0
  -31.2936  -24.5952   18.5987 H   0  0  0  0  0  0
  -30.1246  -21.6131   16.7954 H   0  0  0  0  0  0
  -32.1918  -16.9065   20.1086 H   0  0  0  0  0  0
  -29.4495  -17.4545   21.4715 H   0  0  0  0  0  0
  -28.8188  -17.5935   15.5938 H   0  0  0  0  0  0
  -30.3897  -16.8448   15.3089 H   0  0  0  0  0  0
  -29.6438  -17.8247   14.0581 H   0  0  0  0  0  0
  -32.3163  -20.1439   15.3709 H   0  0  0  0  0  0
  -31.7516  -19.2986   13.9379 H   0  0  0  0  0  0
  -32.5345  -18.4004   15.2282 H   0  0  0  0  0  0
  -29.3339  -25.8072   16.9759 H   0  0  0  0  0  0
  -27.7755  -25.6738   17.7078 H   0  0  0  0  0  0
  -29.0897  -27.7085   18.4252 H   0  0  0  0  0  0
  -30.2455  -26.6754   19.2122 H   0  0  0  0  0  0
  -29.8503  -19.8431   15.4061 H   0  0  0  0  0  0
  -29.1189  -15.1326   21.4925 H   0  0  0  0  0  0
  -29.0869  -24.2466   19.4091 H   0  0  0  0  0  0
  1 25  1  0  0  0
  1 30  2  0  0  0
  1 90  1  0  0  0
  2  3  1  0  0  0
  2 25  1  0  0  0
  2 92  1  0  0  0
  2 93  1  0  0  0
  3  4  1  0  0  0
  3 94  1  0  0  0
  3 95  1  0  0  0
  4  5  1  0  0  0
  4 96  1  0  0  0
  4 97  1  0  0  0
  5  6  1  0  0  0
  5 26  1  0  0  0
  5 98  1  0  0  0
  6 25  1  0  0  0
  6 99  1  0  0  0
  6100  1  0  0  0
  7  8  2  0  0  0
  7 26  1  0  0  0
  7 29  1  0  0  0
  8  9  1  0  0  0
  8 22  1  0  0  0
  9 10  1  0  0  0
  9 27  2  0  0  0
 10 11  2  0  0  0
 10 15  1  0  0  0
 11 12  1  0  0  0
 11101  1  0  0  0
 12 13  2  0  0  0
 12102  1  0  0  0
 13 14  1  0  0  0
 13 31  1  0  0  0
 14 15  2  0  0  0
 14103  1  0  0  0
 15104  1  0  0  0
 16 17  2  0  0  0
 16 21  1  0  0  0
 16 31  1  0  0  0
 17 18  1  0  0  0
 17105  1  0  0  0
 18 19  2  0  0  0
 18106  1  0  0  0
 19 20  1  0  0  0
 19 24  1  0  0  0
 20 21  2  0  0  0
 20107  1  0  0  0
 21 23  1  0  0  0
 22 28  1  0  0  0
 22 32  2  0  0  0
 26 27  1  0  0  0
 28108  1  0  0  0
 28109  1  0  0  0
 29110  1  0  0  0
 29111  1  0  0  0
 33 34  1  0  0  0
 33 66  1  0  0  0
 33 70  2  0  0  0
 34 36  1  0  0  0
 34 59  1  0  0  0
 34112  1  0  0  0
 35 44  2  0  0  0
 35 45  1  0  0  0
 35 68  1  0  0  0
 36 56  1  0  0  0
 36113  1  0  0  0
 37 39  1  0  0  0
 37 47  1  0  0  0
 37 66  1  0  0  0
 37114  1  0  0  0
 38 43  2  0  0  0
 38 46  1  0  0  0
 38 47  1  0  0  0
 39 64  1  0  0  0
 39 67  2  0  0  0
 40 52  1  0  0  0
 40 53  2  0  0  0
 40 58  1  0  0  0
 41115  1  0  0  0
 41116  1  0  0  0
 41117  1  0  0  0
 41 48  1  0  0  0
 42 43  1  0  0  0
 42 66  1  0  0  0
 42118  1  0  0  0
 42119  1  0  0  0
 43 44  1  0  0  0
 44120  1  0  0  0
 45 46  2  0  0  0
 45121  1  0  0  0
 46122  1  0  0  0
 47123  1  0  0  0
 47124  1  0  0  0
 48 56  1  0  0  0
 48 65  1  0  0  0
 48125  1  0  0  0
 49 50  1  0  0  0
 49 53  1  0  0  0
 49 64  1  0  0  0
 49126  1  0  0  0
 50 51  1  0  0  0
 50127  1  0  0  0
 50128  1  0  0  0
 51 52  1  0  0  0
 51129  1  0  0  0
 51130  1  0  0  0
 52131  1  0  0  0
 52132  1  0  0  0
 53 54  1  0  0  0
 54 55  2  0  0  0
 54133  1  0  0  0
 55 57  1  0  0  0
 55134  1  0  0  0
 56 69  2  0  0  0
 57 58  2  0  0  0
 57135  1  0  0  0
 58136  1  0  0  0
 59 60  1  0  0  0
 59 61  1  0  0  0
 59 62  1  0  0  0
 60137  1  0  0  0
 60138  1  0  0  0
 60139  1  0  0  0
 61140  1  0  0  0
 61141  1  0  0  0
 61142  1  0  0  0
 62143  1  0  0  0
 62144  1  0  0  0
 62145  1  0  0  0
 63 65  1  0  0  0
 63146  1  0  0  0
 63147  1  0  0  0
 63148  1  0  0  0
 64149  1  0  0  0
 65150  1  0  0  0
 68 86  1  0  0  0
 71 72  2  0  0  0
 71 89  1  0  0  0
 71151  1  0  0  0
 72 73  1  0  0  0
 72 87  1  0  0  0
 73 88  2  0  0  0
 73 80  1  0  0  0
 74 75  1  0  0  0
 74 81  1  0  0  0
 74152  1  0  0  0
 74153  1  0  0  0
 75 82  1  0  0  0
 75154  1  0  0  0
 75155  1  0  0  0
 76 78  1  0  0  0
 76 80  1  0  0  0
 76156  1  0  0  0
 76157  1  0  0  0
 77 79  1  0  0  0
 77 80  1  0  0  0
 77158  1  0  0  0
 77159  1  0  0  0
 78 91  1  0  0  0
 78160  1  0  0  0
 78161  1  0  0  0
 79 91  1  0  0  0
 79162  1  0  0  0
 79163  1  0  0  0
 80164  1  0  0  0
 81 82  1  0  0  0
 81 89  1  0  0  0
 81165  1  0  0  0
 82 90  1  0  0  0
 82166  1  0  0  0
 83167  1  0  0  0
 83168  1  0  0  0
 83169  1  0  0  0
 83 87  1  0  0  0
 84 87  1  0  0  0
 84170  1  0  0  0
 84171  1  0  0  0
 84172  1  0  0  0
 85 86  1  0  0  0
 85173  1  0  0  0
 85174  1  0  0  0
 85 91  1  0  0  0
 86175  1  0  0  0
 86176  1  0  0  0
 87177  1  0  0  0
 88 89  1  0  0  0
 90178  1  0  0  0
 91179  1  0  0  0
M  CHG  1  91   1
M  ISO  4   1 100  68 101  86 101  90 100
M  END
> <chiral flag>
0

> <version>
0

> <s_m_source_file>
/data/baiqing/PycharmProjects/Reinvent-master-3.2/result/LINK_invent/BTK/process_docking_weight1_custom_sum_contain_oxygen_bond_distance_aromatic_linkinvent_7_9_3/rearranged_h_0175.sdf

> <i_m_source_file_index>
41

> <r_mmod_Potential_Energy-OPLS-2005>
-142.259811401367

> <r_mmod_Stretch_Energy-OPLS-2005>
35.6603965759277

> <r_mmod_Bend_Energy-OPLS-2005>
127.108436584473

> <r_mmod_Torsional_Energy-OPLS-2005>
288.654296875

> <r_mmod_Improper_Torsional_Energy-OPLS-2005>
3.14088082313538

> <r_mmod_Van_der_Waal_Energy-OPLS-2005>
129.922698974609

> <r_mmod_Electrostatic_Energy-OPLS-2005>
-325.698699951172

> <r_mmod_Solvation_Energy-OPLS-2005>
-411.322143554688

> <b_mmod_Minimization_Converged-OPLS-2005>
0

> <r_mmod_RMS_Derivative-OPLS-2005>
2.72101402282715

$$$$
41
                    3D
 Structure written by MMmdl.
169178  0  0  1  0            999 V2000
  -30.6777  -14.6896   20.5436 C   0  0  0  0  0  0
  -30.4267  -12.4558   19.4746 C   0  0  0  0  0  0
  -29.4994  -12.4941   18.2434 C   0  0  0  0  0  0
  -28.0365  -12.3013   18.6715 C   0  0  0  0  0  0
  -27.6388  -13.2149   19.8557 C   0  0  2  0  0  0
  -28.6794  -13.1593   20.9972 C   0  0  0  0  0  0
  -25.2469  -13.8148   20.5669 C   0  0  0  0  0  0
  -24.1805  -13.0421   20.9242 C   0  0  0  0  0  0
  -24.6423  -11.6881   20.8873 C   0  0  0  0  0  0
  -23.9131  -10.4256   21.0526 C   0  0  0  0  0  0
  -24.3668   -9.4118   21.9260 C   0  0  0  0  0  0
  -23.6295   -8.2182   22.0798 C   0  0  0  0  0  0
  -22.4277   -8.0271   21.3562 C   0  0  0  0  0  0
  -21.9956   -9.0285   20.4675 C   0  0  0  0  0  0
  -22.7340  -10.2128   20.3125 C   0  0  0  0  0  0
  -21.6829   -6.0735   22.5285 C   0  0  0  0  0  0
  -21.3990   -6.5653   23.8221 C   0  0  0  0  0  0
  -21.3650   -5.6820   24.9194 C   0  0  0  0  0  0
  -21.6038   -4.3081   24.7246 C   0  0  0  0  0  0
  -21.8824   -3.8163   23.4368 C   0  0  0  0  0  0
  -21.9178   -4.6964   22.3411 C   0  0  0  0  0  0
  -22.7806  -13.5168   21.1848 C   0  0  0  0  0  0
  -22.1653   -4.2152   21.0989 F   0  0  0  0  0  0
  -21.5622   -3.4562   25.7755 F   0  0  0  0  0  0
  -29.9829  -13.5080   20.4163 N   0  0  0  0  0  0
  -26.2913  -12.9345   20.3323 N   0  0  0  0  0  0
  -25.9340  -11.6503   20.5887 N   0  0  0  0  0  0
  -22.0478  -12.8187   22.0416 N   0  0  0  0  0  0
  -25.4127  -15.1884   20.3970 N   0  0  0  0  0  0
  -31.8590  -14.7350   20.1854 O   0  0  0  0  0  0
  -21.6610   -6.8878   21.4242 O   0  0  0  0  0  0
  -22.3463  -14.5446   20.6632 O   0  0  0  0  0  0
  -24.6224  -31.8643   23.2123 C   0  0  0  0  0  0
  -25.9045  -32.4820   23.8467 C   0  0  1  0  0  0
  -27.2007  -27.3022   20.1068 C   0  0  0  0  0  0
  -25.5869  -33.8636   24.2357 N   0  0  0  0  0  0
  -23.4180  -30.4927   21.5570 C   0  0  2  0  0  0
  -24.8581  -28.9539   20.1152 C   0  0  0  0  0  0
  -22.7473  -29.4629   22.4979 C   0  0  0  0  0  0
  -18.0271  -28.1388   22.8496 C   0  0  0  0  0  0
  -24.1451  -36.7326   23.2644 C   0  0  0  0  0  0
  -25.9654  -30.7785   21.3965 C   0  0  0  0  0  0
  -26.0310  -29.4091   20.7303 C   0  0  0  0  0  0
  -27.2055  -28.5935   20.7226 C   0  0  0  0  0  0
  -26.0078  -26.9234   19.4423 C   0  0  0  0  0  0
  -24.8487  -27.7153   19.4642 C   0  0  0  0  0  0
  -23.6340  -29.8439   20.1680 C   0  0  0  0  0  0
  -25.4084  -36.3131   24.0335 C   0  0  1  0  0  0
  -20.5870  -28.3686   23.1296 C   0  0  2  0  0  0
  -20.6747  -26.9418   22.5406 C   0  0  0  0  0  0
  -19.5719  -26.6370   21.5219 C   0  0  0  0  0  0
  -18.1902  -26.7928   22.1639 C   0  0  0  0  0  0
  -19.1522  -28.8855   23.2885 C   0  0  0  0  0  0
  -18.9444  -30.1463   23.8897 C   0  0  0  0  0  0
  -17.6445  -30.6596   24.0573 C   0  0  0  0  0  0
  -25.9012  -34.9484   23.5148 C   0  0  0  0  0  0
  -16.5339  -29.9105   23.6331 C   0  0  0  0  0  0
  -16.7254  -28.6512   23.0364 C   0  0  0  0  0  0
  -26.4398  -31.6620   25.0843 C   0  0  0  0  0  0
  -25.3612  -31.3749   26.1553 C   0  0  0  0  0  0
  -27.0248  -30.3045   24.6305 C   0  0  0  0  0  0
  -27.5942  -32.4385   25.7605 C   0  0  0  0  0  0
  -27.5586  -37.1823   24.8460 C   0  0  0  0  0  0
  -21.4186  -29.3051   22.3708 N   0  0  0  0  0  0
  -26.4283  -37.3815   23.9413 N   0  0  0  0  0  0
  -24.6880  -31.0607   22.1114 N   0  0  0  0  0  0
  -23.4183  -28.8147   23.3049 O   0  0  0  0  0  0
  -28.2866  -26.4074   20.1620 O   0  0  0  0  0  0
  -26.5610  -34.8917   22.4733 O   0  0  0  0  0  0
  -23.5372  -32.1466   23.7400 O   0  0  0  0  0  0
  -30.5381  -21.5693   19.5108 C   0  0  0  0  0  0
  -28.8679  -22.5584   20.9632 C   0  0  0  0  0  0
  -28.9869  -23.7995   20.2110 C   0  0  0  0  0  0
  -29.6125  -21.3963   20.5546 C   0  0  0  0  0  0
  -29.9636  -23.8036   19.1788 C   0  0  0  0  0  0
  -31.0000  -18.2150   20.7672 C   0  0  0  0  0  0
  -28.5065  -17.9169   20.8088 C   0  0  0  0  0  0
  -30.8846  -16.9291   21.6550 C   0  0  0  0  0  0
  -28.7829  -16.3937   20.5322 C   0  0  0  0  0  0
  -29.6463  -18.8982   20.4497 C   0  0  0  0  0  0
  -30.2095  -24.9984   18.2721 C   0  0  0  0  0  0
  -28.6141  -21.9102   23.4601 C   0  0  0  0  0  0
  -26.6980  -21.5227   21.8132 C   0  0  0  0  0  0
  -27.9274  -24.9683   20.2782 C   0  0  0  0  0  0
  -27.9150  -22.3992   22.1682 C   0  0  0  0  0  0
  -30.7273  -22.7348   18.8656 N   0  0  0  0  0  0
  -30.0744  -15.8434   21.0313 N   0  0  0  0  0  0
  -29.4345  -20.1499   21.1694 O   0  0  0  0  0  0
  -31.4618  -12.5884   19.1543 H   0  0  0  0  0  0
  -30.3870  -11.4833   19.9623 H   0  0  0  0  0  0
  -29.7819  -11.7070   17.5437 H   0  0  0  0  0  0
  -29.6127  -13.4406   17.7125 H   0  0  0  0  0  0
  -27.9250  -11.2586   18.9686 H   0  0  0  0  0  0
  -27.3645  -12.4532   17.8265 H   0  0  0  0  0  0
  -27.6244  -14.2197   19.4437 H   0  0  0  0  0  0
  -28.7148  -12.1682   21.4483 H   0  0  0  0  0  0
  -28.4039  -13.8367   21.8052 H   0  0  0  0  0  0
  -25.2829   -9.5509   22.4836 H   0  0  0  0  0  0
  -23.9971   -7.4536   22.7499 H   0  0  0  0  0  0
  -21.0905   -8.8882   19.8940 H   0  0  0  0  0  0
  -22.3905  -10.9709   19.6241 H   0  0  0  0  0  0
  -21.1997   -7.6171   23.9709 H   0  0  0  0  0  0
  -21.1455   -6.0564   25.9084 H   0  0  0  0  0  0
  -22.0612   -2.7619   23.2897 H   0  0  0  0  0  0
  -22.4153  -11.9880   22.4842 H   0  0  0  0  0  0
  -21.1072  -13.1160   22.2630 H   0  0  0  0  0  0
  -24.6460  -15.8426   20.5076 H   0  0  0  0  0  0
  -26.2526  -15.6201   20.0363 H   0  0  0  0  0  0
  -26.7119  -32.5478   23.1226 H   0  0  0  0  0  0
  -25.0000  -33.9808   25.0487 H   0  0  0  0  0  0
  -22.7106  -31.3146   21.4242 H   0  0  0  0  0  0
  -23.3733  -35.9641   23.3279 H   0  0  0  0  0  0
  -24.3559  -36.8984   22.2068 H   0  0  0  0  0  0
  -23.7131  -37.6481   23.6699 H   0  0  0  0  0  0
  -26.1067  -31.5417   20.6295 H   0  0  0  0  0  0
  -26.8435  -30.8201   22.0288 H   0  0  0  0  0  0
  -28.0983  -28.9303   21.2304 H   0  0  0  0  0  0
  -25.9245  -26.0072   18.8802 H   0  0  0  0  0  0
  -23.9511  -27.3715   18.9665 H   0  0  0  0  0  0
  -23.7724  -30.6326   19.4294 H   0  0  0  0  0  0
  -22.7436  -29.2955   19.8536 H   0  0  0  0  0  0
  -25.1231  -36.2044   25.0823 H   0  0  0  0  0  0
  -20.9942  -28.3234   24.1428 H   0  0  0  0  0  0
  -20.5648  -26.2296   23.3596 H   0  0  0  0  0  0
  -21.6613  -26.7440   22.1207 H   0  0  0  0  0  0
  -19.6881  -25.6273   21.1255 H   0  0  0  0  0  0
  -19.6637  -27.3154   20.6733 H   0  0  0  0  0  0
  -17.4164  -26.6685   21.4051 H   0  0  0  0  0  0
  -18.0310  -26.0074   22.9041 H   0  0  0  0  0  0
  -19.7923  -30.7295   24.2242 H   0  0  0  0  0  0
  -17.5004  -31.6264   24.5191 H   0  0  0  0  0  0
  -15.5342  -30.3029   23.7614 H   0  0  0  0  0  0
  -15.8648  -28.0825   22.7095 H   0  0  0  0  0  0
  -24.5795  -30.7074   25.7896 H   0  0  0  0  0  0
  -24.8755  -32.2900   26.4965 H   0  0  0  0  0  0
  -25.7915  -30.8952   27.0353 H   0  0  0  0  0  0
  -26.2865  -29.6852   24.1193 H   0  0  0  0  0  0
  -27.3782  -29.7236   25.4832 H   0  0  0  0  0  0
  -27.8806  -30.4335   23.9676 H   0  0  0  0  0  0
  -27.2522  -33.3707   26.2119 H   0  0  0  0  0  0
  -28.3755  -32.6911   25.0430 H   0  0  0  0  0  0
  -28.0588  -31.8564   26.5562 H   0  0  0  0  0  0
  -28.2545  -38.0178   24.7566 H   0  0  0  0  0  0
  -28.1135  -36.2701   24.6213 H   0  0  0  0  0  0
  -27.2338  -37.1394   25.8873 H   0  0  0  0  0  0
  -20.9361  -29.8821   21.6963 H   0  0  0  0  0  0
  -26.0178  -38.2894   24.1449 H   0  0  0  0  0  0
  -31.1639  -20.7517   19.1864 H   0  0  0  0  0  0
  -31.4681  -17.9272   19.8245 H   0  0  0  0  0  0
  -31.6768  -18.9484   21.2079 H   0  0  0  0  0  0
  -28.2811  -18.0383   21.8674 H   0  0  0  0  0  0
  -27.5992  -18.2299   20.2869 H   0  0  0  0  0  0
  -30.4307  -17.2005   22.6108 H   0  0  0  0  0  0
  -31.8813  -16.5727   21.9179 H   0  0  0  0  0  0
  -28.7202  -16.2228   19.4571 H   0  0  0  0  0  0
  -27.9699  -15.8461   21.0014 H   0  0  0  0  0  0
  -29.5750  -19.0739   19.3753 H   0  0  0  0  0  0
  -29.4563  -25.0652   17.4872 H   0  0  0  0  0  0
  -31.1760  -24.9084   17.7744 H   0  0  0  0  0  0
  -30.2249  -25.9360   18.8265 H   0  0  0  0  0  0
  -29.4905  -22.5133   23.6984 H   0  0  0  0  0  0
  -28.9333  -20.8698   23.4126 H   0  0  0  0  0  0
  -27.9392  -21.9881   24.3144 H   0  0  0  0  0  0
  -26.1812  -21.9169   20.9395 H   0  0  0  0  0  0
  -25.9800  -21.4885   22.6323 H   0  0  0  0  0  0
  -26.9722  -20.4923   21.5868 H   0  0  0  0  0  0
  -27.2777  -24.8702   21.1421 H   0  0  0  0  0  0
  -27.3106  -24.6832   19.4311 H   0  0  0  0  0  0
  -27.5352  -23.3708   22.4612 H   0  0  0  0  0  0
  1 25  1  0  0  0
  1 30  2  0  0  0
  1 87  1  0  0  0
  2  3  1  0  0  0
  2 25  1  0  0  0
  2 89  1  0  0  0
  2 90  1  0  0  0
  3  4  1  0  0  0
  3 91  1  0  0  0
  3 92  1  0  0  0
  4  5  1  0  0  0
  4 93  1  0  0  0
  4 94  1  0  0  0
  5  6  1  0  0  0
  5 26  1  0  0  0
  5 95  1  0  0  0
  6 25  1  0  0  0
  6 96  1  0  0  0
  6 97  1  0  0  0
  7  8  2  0  0  0
  7 26  1  0  0  0
  7 29  1  0  0  0
  8  9  1  0  0  0
  8 22  1  0  0  0
  9 10  1  0  0  0
  9 27  2  0  0  0
 10 11  2  0  0  0
 10 15  1  0  0  0
 11 12  1  0  0  0
 11 98  1  0  0  0
 12 13  2  0  0  0
 12 99  1  0  0  0
 13 14  1  0  0  0
 13 31  1  0  0  0
 14 15  2  0  0  0
 14100  1  0  0  0
 15101  1  0  0  0
 16 17  2  0  0  0
 16 21  1  0  0  0
 16 31  1  0  0  0
 17 18  1  0  0  0
 17102  1  0  0  0
 18 19  2  0  0  0
 18103  1  0  0  0
 19 20  1  0  0  0
 19 24  1  0  0  0
 20 21  2  0  0  0
 20104  1  0  0  0
 21 23  1  0  0  0
 22 28  1  0  0  0
 22 32  2  0  0  0
 26 27  1  0  0  0
 28105  1  0  0  0
 28106  1  0  0  0
 29107  1  0  0  0
 29108  1  0  0  0
 33 34  1  0  0  0
 33 66  1  0  0  0
 33 70  2  0  0  0
 34 36  1  0  0  0
 34 59  1  0  0  0
 34109  1  0  0  0
 35 44  2  0  0  0
 35 45  1  0  0  0
 35 68  1  0  0  0
 36 56  1  0  0  0
 36110  1  0  0  0
 37 39  1  0  0  0
 37 47  1  0  0  0
 37 66  1  0  0  0
 37111  1  0  0  0
 38 43  2  0  0  0
 38 46  1  0  0  0
 38 47  1  0  0  0
 39 64  1  0  0  0
 39 67  2  0  0  0
 40 52  1  0  0  0
 40 53  2  0  0  0
 40 58  1  0  0  0
 41112  1  0  0  0
 41113  1  0  0  0
 41114  1  0  0  0
 41 48  1  0  0  0
 42 43  1  0  0  0
 42 66  1  0  0  0
 42115  1  0  0  0
 42116  1  0  0  0
 43 44  1  0  0  0
 44117  1  0  0  0
 45 46  2  0  0  0
 45118  1  0  0  0
 46119  1  0  0  0
 47120  1  0  0  0
 47121  1  0  0  0
 48 56  1  0  0  0
 48 65  1  0  0  0
 48122  1  0  0  0
 49 50  1  0  0  0
 49 53  1  0  0  0
 49 64  1  0  0  0
 49123  1  0  0  0
 50 51  1  0  0  0
 50124  1  0  0  0
 50125  1  0  0  0
 51 52  1  0  0  0
 51126  1  0  0  0
 51127  1  0  0  0
 52128  1  0  0  0
 52129  1  0  0  0
 53 54  1  0  0  0
 54 55  2  0  0  0
 54130  1  0  0  0
 55 57  1  0  0  0
 55131  1  0  0  0
 56 69  2  0  0  0
 57 58  2  0  0  0
 57132  1  0  0  0
 58133  1  0  0  0
 59 60  1  0  0  0
 59 61  1  0  0  0
 59 62  1  0  0  0
 60134  1  0  0  0
 60135  1  0  0  0
 60136  1  0  0  0
 61137  1  0  0  0
 61138  1  0  0  0
 61139  1  0  0  0
 62140  1  0  0  0
 62141  1  0  0  0
 62142  1  0  0  0
 63 65  1  0  0  0
 63143  1  0  0  0
 63144  1  0  0  0
 63145  1  0  0  0
 64146  1  0  0  0
 65147  1  0  0  0
 68 84  1  0  0  0
 71 74  2  0  0  0
 71 86  1  0  0  0
 71148  1  0  0  0
 72 73  2  0  0  0
 72 74  1  0  0  0
 72 85  1  0  0  0
 73 75  1  0  0  0
 73 84  1  0  0  0
 74 88  1  0  0  0
 75 81  1  0  0  0
 75 86  2  0  0  0
 76 78  1  0  0  0
 76 80  1  0  0  0
 76149  1  0  0  0
 76150  1  0  0  0
 77 79  1  0  0  0
 77 80  1  0  0  0
 77151  1  0  0  0
 77152  1  0  0  0
 78 87  1  0  0  0
 78153  1  0  0  0
 78154  1  0  0  0
 79 87  1  0  0  0
 79155  1  0  0  0
 79156  1  0  0  0
 80 88  1  0  0  0
 80157  1  0  0  0
 81158  1  0  0  0
 81159  1  0  0  0
 81160  1  0  0  0
 82161  1  0  0  0
 82162  1  0  0  0
 82163  1  0  0  0
 82 85  1  0  0  0
 83 85  1  0  0  0
 83164  1  0  0  0
 83165  1  0  0  0
 83166  1  0  0  0
 84167  1  0  0  0
 84168  1  0  0  0
 85169  1  0  0  0
M  ISO  4   1 100  68 101  84 101  87 100
M  END
> <chiral flag>
0

> <version>
0

> <s_m_source_file>
/data/baiqing/PycharmProjects/Reinvent-master-3.2/result/LINK_invent/BTK/process_docking_weight1_custom_sum_contain_oxygen_bond_distance_aromatic_linkinvent_7_9_3/rearranged_h_0175.sdf

> <i_m_source_file_index>
42

> <r_mmod_Potential_Energy-OPLS-2005>
233.125885009766

> <r_mmod_Stretch_Energy-OPLS-2005>
88.1576614379883

> <r_mmod_Bend_Energy-OPLS-2005>
159.51823425293

> <r_mmod_Torsional_Energy-OPLS-2005>
351.466857910156

> <r_mmod_Improper_Torsional_Energy-OPLS-2005>
5.29132509231567

> <r_mmod_Van_der_Waal_Energy-OPLS-2005>
172.288009643555

> <r_mmod_Electrostatic_Energy-OPLS-2005>
-406.687835693359

> <r_mmod_Solvation_Energy-OPLS-2005>
-206.355361938477

> <b_mmod_Minimization_Converged-OPLS-2005>
0

> <r_mmod_RMS_Derivative-OPLS-2005>
5.00304126739502

$$$$
42
                    3D
 Structure written by MMmdl.
160169  0  0  1  0            999 V2000
  -30.5183  -15.1831   20.3738 C   0  0  0  0  0  0
  -30.4184  -12.7559   19.5180 C   0  0  0  0  0  0
  -29.5237  -12.5630   18.2732 C   0  0  0  0  0  0
  -28.0676  -12.3105   18.6963 C   0  0  0  0  0  0
  -27.6065  -13.2787   19.8168 C   0  0  2  0  0  0
  -28.6416  -13.4464   20.9495 C   0  0  0  0  0  0
  -25.2371  -13.8262   20.5735 C   0  0  0  0  0  0
  -24.1731  -13.0447   20.9250 C   0  0  0  0  0  0
  -24.6400  -11.6945   20.8761 C   0  0  0  0  0  0
  -23.9103  -10.4308   21.0403 C   0  0  0  0  0  0
  -24.3653   -9.4220   21.9172 C   0  0  0  0  0  0
  -23.6319   -8.2264   22.0742 C   0  0  0  0  0  0
  -22.4300   -8.0301   21.3535 C   0  0  0  0  0  0
  -21.9945   -9.0270   20.4634 C   0  0  0  0  0  0
  -22.7277  -10.2149   20.3046 C   0  0  0  0  0  0
  -21.6873   -6.0749   22.5275 C   0  0  0  0  0  0
  -21.4023   -6.5640   23.8207 C   0  0  0  0  0  0
  -21.3670   -5.6786   24.9166 C   0  0  0  0  0  0
  -21.6046   -4.3045   24.7211 C   0  0  0  0  0  0
  -21.8820   -3.8148   23.4329 C   0  0  0  0  0  0
  -21.9199   -4.6976   22.3394 C   0  0  0  0  0  0
  -22.7758  -13.5205   21.1896 C   0  0  0  0  0  0
  -22.1660   -4.2164   21.0969 F   0  0  0  0  0  0
  -21.5638   -3.4522   25.7716 F   0  0  0  0  0  0
  -29.8767  -13.9201   20.3110 N   0  0  0  0  0  0
  -26.2790  -12.9545   20.3185 N   0  0  0  0  0  0
  -25.9337  -11.6645   20.5714 N   0  0  0  0  0  0
  -22.0414  -12.8199   22.0467 N   0  0  0  0  0  0
  -25.4015  -15.2004   20.4192 N   0  0  0  0  0  0
  -31.7377  -15.0893   20.1692 O   0  0  0  0  0  0
  -21.6657   -6.8900   21.4241 O   0  0  0  0  0  0
  -22.3436  -14.5500   20.6728 O   0  0  0  0  0  0
  -24.6573  -31.8283   23.1751 C   0  0  0  0  0  0
  -25.9281  -32.4612   23.8198 C   0  0  1  0  0  0
  -27.2114  -26.9803   20.1644 C   0  0  0  0  0  0
  -25.5972  -33.8425   24.2111 N   0  0  0  0  0  0
  -23.4677  -30.4423   21.5233 C   0  0  2  0  0  0
  -24.9171  -28.8403   20.1047 C   0  0  0  0  0  0
  -22.7634  -29.4459   22.4801 C   0  0  0  0  0  0
  -18.0310  -28.1394   22.8468 C   0  0  0  0  0  0
  -24.1492  -36.7221   23.2648 C   0  0  0  0  0  0
  -26.0331  -30.6526   21.3946 C   0  0  0  0  0  0
  -26.0988  -29.2493   20.7331 C   0  0  0  0  0  0
  -27.2386  -28.3388   20.7393 C   0  0  0  0  0  0
  -25.9940  -26.7011   19.5073 C   0  0  0  0  0  0
  -24.8868  -27.5854   19.4745 C   0  0  0  0  0  0
  -23.7024  -29.7627   20.1453 C   0  0  0  0  0  0
  -25.4132  -36.2989   24.0306 C   0  0  1  0  0  0
  -20.5931  -28.3739   23.1202 C   0  0  2  0  0  0
  -20.6786  -26.9426   22.5404 C   0  0  0  0  0  0
  -19.5764  -26.6366   21.5214 C   0  0  0  0  0  0
  -18.1944  -26.7927   22.1618 C   0  0  0  0  0  0
  -19.1573  -28.8886   23.2821 C   0  0  0  0  0  0
  -18.9482  -30.1469   23.8861 C   0  0  0  0  0  0
  -17.6477  -30.6587   24.0547 C   0  0  0  0  0  0
  -25.9095  -34.9365   23.5031 C   0  0  0  0  0  0
  -16.5364  -29.9072   23.6336 C   0  0  0  0  0  0
  -16.7292  -28.6488   23.0365 C   0  0  0  0  0  0
  -26.4549  -31.6543   25.0714 C   0  0  0  0  0  0
  -25.3690  -31.3764   26.1385 C   0  0  0  0  0  0
  -27.0440  -30.2919   24.6414 C   0  0  0  0  0  0
  -27.6048  -32.4344   25.7512 C   0  0  0  0  0  0
  -27.5573  -37.1771   24.8459 C   0  0  0  0  0  0
  -21.4314  -29.3040   22.3562 N   0  0  0  0  0  0
  -26.4282  -37.3720   23.9407 N   0  0  0  0  0  0
  -24.7409  -30.9996   22.0853 N   0  0  0  0  0  0
  -23.4219  -28.8026   23.3014 O   0  0  0  0  0  0
  -28.2509  -25.9380   20.2953 O   0  0  0  0  0  0
  -26.5698  -34.8889   22.4625 O   0  0  0  0  0  0
  -23.5663  -32.1222   23.6881 O   0  0  0  0  0  0
  -30.2012  -22.4449   19.8458 C   0  0  0  0  0  0
  -29.9181  -23.9916   20.0803 C   0  0  0  0  0  0
  -27.9130  -22.8249   20.2863 C   0  0  0  0  0  0
  -28.6580  -17.2326   20.8160 C   0  0  0  0  0  0
  -30.5345  -17.6815   19.4675 C   0  0  0  0  0  0
  -28.5191  -18.8905   21.0904 C   0  0  0  0  0  0
  -30.4155  -19.2886   19.8325 C   0  0  0  0  0  0
  -29.0787  -21.5854   20.4904 C   0  0  1  0  0  0
  -28.4325  -24.3904   19.7993 C   0  0  1  0  0  0
  -28.2640  -24.4823   18.2686 C   0  0  0  0  0  0
  -29.9089  -16.5352   20.2684 N   0  0  0  0  0  0
  -29.0710  -19.9599   20.1216 N   0  3  0  0  0  0
  -31.4475  -12.9142   19.1936 H   0  0  0  0  0  0
  -30.4438  -11.8464   20.1193 H   0  0  0  0  0  0
  -29.8886  -11.7355   17.6621 H   0  0  0  0  0  0
  -29.5740  -13.4560   17.6496 H   0  0  0  0  0  0
  -27.9980  -11.2812   19.0472 H   0  0  0  0  0  0
  -27.4054  -12.3828   17.8320 H   0  0  0  0  0  0
  -27.5236  -14.2510   19.3291 H   0  0  0  0  0  0
  -28.7937  -12.5134   21.4942 H   0  0  0  0  0  0
  -28.2965  -14.1851   21.6755 H   0  0  0  0  0  0
  -25.2797   -9.5706   22.4750 H   0  0  0  0  0  0
  -24.0032   -7.4662   22.7461 H   0  0  0  0  0  0
  -21.0875   -8.8790   19.8943 H   0  0  0  0  0  0
  -22.3726  -10.9685   19.6160 H   0  0  0  0  0  0
  -21.2006   -7.6148   23.9720 H   0  0  0  0  0  0
  -21.1494   -6.0505   25.9069 H   0  0  0  0  0  0
  -22.0595   -2.7611   23.2814 H   0  0  0  0  0  0
  -22.4008  -11.9866   22.4871 H   0  0  0  0  0  0
  -21.1009  -13.1189   22.2617 H   0  0  0  0  0  0
  -24.6303  -15.8501   20.5281 H   0  0  0  0  0  0
  -26.2442  -15.6379   20.0750 H   0  0  0  0  0  0
  -26.7351  -32.5158   23.0917 H   0  0  0  0  0  0
  -25.0069  -33.9517   25.0228 H   0  0  0  0  0  0
  -22.7777  -31.2731   21.3586 H   0  0  0  0  0  0
  -23.3774  -35.9531   23.3269 H   0  0  0  0  0  0
  -24.3571  -36.8905   22.2070 H   0  0  0  0  0  0
  -23.7230  -37.6390   23.6727 H   0  0  0  0  0  0
  -26.2095  -31.4012   20.6210 H   0  0  0  0  0  0
  -26.8949  -30.7025   22.0488 H   0  0  0  0  0  0
  -28.1354  -28.6482   21.2581 H   0  0  0  0  0  0
  -25.8429  -25.7302   19.0656 H   0  0  0  0  0  0
  -23.9816  -27.2621   18.9805 H   0  0  0  0  0  0
  -23.8534  -30.5349   19.3894 H   0  0  0  0  0  0
  -22.8116  -29.2161   19.8299 H   0  0  0  0  0  0
  -25.1330  -36.1789   25.0798 H   0  0  0  0  0  0
  -21.0014  -28.3330   24.1327 H   0  0  0  0  0  0
  -20.5658  -26.2355   23.3640 H   0  0  0  0  0  0
  -21.6651  -26.7398   22.1218 H   0  0  0  0  0  0
  -19.6922  -25.6263   21.1273 H   0  0  0  0  0  0
  -19.6703  -27.3149   20.6720 H   0  0  0  0  0  0
  -17.4218  -26.6674   21.4015 H   0  0  0  0  0  0
  -18.0334  -26.0067   22.9016 H   0  0  0  0  0  0
  -19.7954  -30.7289   24.2230 H   0  0  0  0  0  0
  -17.5023  -31.6269   24.5147 H   0  0  0  0  0  0
  -15.5363  -30.2963   23.7671 H   0  0  0  0  0  0
  -15.8689  -28.0780   22.7126 H   0  0  0  0  0  0
  -24.5871  -30.7126   25.7685 H   0  0  0  0  0  0
  -24.8893  -32.2956   26.4754 H   0  0  0  0  0  0
  -25.7940  -30.8957   27.0206 H   0  0  0  0  0  0
  -26.3099  -29.6602   24.1414 H   0  0  0  0  0  0
  -27.3974  -29.7281   25.5056 H   0  0  0  0  0  0
  -27.9034  -30.4115   23.9817 H   0  0  0  0  0  0
  -27.2617  -33.3666   26.2013 H   0  0  0  0  0  0
  -28.3902  -32.6874   25.0376 H   0  0  0  0  0  0
  -28.0676  -31.8529   26.5497 H   0  0  0  0  0  0
  -28.2565  -38.0092   24.7528 H   0  0  0  0  0  0
  -28.1098  -36.2623   24.6260 H   0  0  0  0  0  0
  -27.2292  -37.1376   25.8861 H   0  0  0  0  0  0
  -20.9553  -29.8747   21.6717 H   0  0  0  0  0  0
  -26.0131  -38.2777   24.1423 H   0  0  0  0  0  0
  -31.1779  -22.1723   20.2491 H   0  0  0  0  0  0
  -30.2430  -22.2504   18.7741 H   0  0  0  0  0  0
  -30.6104  -24.6061   19.5038 H   0  0  0  0  0  0
  -30.1322  -24.2164   21.1260 H   0  0  0  0  0  0
  -27.3631  -22.9222   21.2228 H   0  0  0  0  0  0
  -27.1628  -22.4765   19.5750 H   0  0  0  0  0  0
  -27.8635  -16.9703   20.1174 H   0  0  0  0  0  0
  -28.3859  -16.7228   21.7409 H   0  0  0  0  0  0
  -31.5993  -17.4729   19.3631 H   0  0  0  0  0  0
  -30.1425  -17.5625   18.4564 H   0  0  0  0  0  0
  -28.9941  -19.0880   22.0524 H   0  0  0  0  0  0
  -27.4672  -19.1202   21.2566 H   0  0  0  0  0  0
  -30.8819  -19.8413   19.0159 H   0  0  0  0  0  0
  -31.0557  -19.4770   20.6960 H   0  0  0  0  0  0
  -29.2976  -21.5870   21.5588 H   0  0  0  0  0  0
  -28.6031  -23.5772   17.7655 H   0  0  0  0  0  0
  -28.8368  -25.3141   17.8572 H   0  0  0  0  0  0
  -27.2283  -24.6175   17.9684 H   0  0  0  0  0  0
  -28.5348  -19.8760   19.2709 H   0  0  0  0  0  0
  1 25  1  0  0  0
  1 30  2  0  0  0
  1 81  1  0  0  0
  2  3  1  0  0  0
  2 25  1  0  0  0
  2 83  1  0  0  0
  2 84  1  0  0  0
  3  4  1  0  0  0
  3 85  1  0  0  0
  3 86  1  0  0  0
  4  5  1  0  0  0
  4 87  1  0  0  0
  4 88  1  0  0  0
  5  6  1  0  0  0
  5 26  1  0  0  0
  5 89  1  0  0  0
  6 25  1  0  0  0
  6 90  1  0  0  0
  6 91  1  0  0  0
  7  8  2  0  0  0
  7 26  1  0  0  0
  7 29  1  0  0  0
  8  9  1  0  0  0
  8 22  1  0  0  0
  9 10  1  0  0  0
  9 27  2  0  0  0
 10 11  2  0  0  0
 10 15  1  0  0  0
 11 12  1  0  0  0
 11 92  1  0  0  0
 12 13  2  0  0  0
 12 93  1  0  0  0
 13 14  1  0  0  0
 13 31  1  0  0  0
 14 15  2  0  0  0
 14 94  1  0  0  0
 15 95  1  0  0  0
 16 17  2  0  0  0
 16 21  1  0  0  0
 16 31  1  0  0  0
 17 18  1  0  0  0
 17 96  1  0  0  0
 18 19  2  0  0  0
 18 97  1  0  0  0
 19 20  1  0  0  0
 19 24  1  0  0  0
 20 21  2  0  0  0
 20 98  1  0  0  0
 21 23  1  0  0  0
 22 28  1  0  0  0
 22 32  2  0  0  0
 26 27  1  0  0  0
 28 99  1  0  0  0
 28100  1  0  0  0
 29101  1  0  0  0
 29102  1  0  0  0
 33 34  1  0  0  0
 33 66  1  0  0  0
 33 70  2  0  0  0
 34 36  1  0  0  0
 34 59  1  0  0  0
 34103  1  0  0  0
 35 44  2  0  0  0
 35 45  1  0  0  0
 35 68  1  0  0  0
 36 56  1  0  0  0
 36104  1  0  0  0
 37 39  1  0  0  0
 37 47  1  0  0  0
 37 66  1  0  0  0
 37105  1  0  0  0
 38 43  2  0  0  0
 38 46  1  0  0  0
 38 47  1  0  0  0
 39 64  1  0  0  0
 39 67  2  0  0  0
 40 52  1  0  0  0
 40 53  2  0  0  0
 40 58  1  0  0  0
 41106  1  0  0  0
 41107  1  0  0  0
 41108  1  0  0  0
 41 48  1  0  0  0
 42 43  1  0  0  0
 42 66  1  0  0  0
 42109  1  0  0  0
 42110  1  0  0  0
 43 44  1  0  0  0
 44111  1  0  0  0
 45 46  2  0  0  0
 45112  1  0  0  0
 46113  1  0  0  0
 47114  1  0  0  0
 47115  1  0  0  0
 48 56  1  0  0  0
 48 65  1  0  0  0
 48116  1  0  0  0
 49 50  1  0  0  0
 49 53  1  0  0  0
 49 64  1  0  0  0
 49117  1  0  0  0
 50 51  1  0  0  0
 50118  1  0  0  0
 50119  1  0  0  0
 51 52  1  0  0  0
 51120  1  0  0  0
 51121  1  0  0  0
 52122  1  0  0  0
 52123  1  0  0  0
 53 54  1  0  0  0
 54 55  2  0  0  0
 54124  1  0  0  0
 55 57  1  0  0  0
 55125  1  0  0  0
 56 69  2  0  0  0
 57 58  2  0  0  0
 57126  1  0  0  0
 58127  1  0  0  0
 59 60  1  0  0  0
 59 61  1  0  0  0
 59 62  1  0  0  0
 60128  1  0  0  0
 60129  1  0  0  0
 60130  1  0  0  0
 61131  1  0  0  0
 61132  1  0  0  0
 61133  1  0  0  0
 62134  1  0  0  0
 62135  1  0  0  0
 62136  1  0  0  0
 63 65  1  0  0  0
 63137  1  0  0  0
 63138  1  0  0  0
 63139  1  0  0  0
 64140  1  0  0  0
 65141  1  0  0  0
 68 79  1  0  0  0
 71 72  1  0  0  0
 71142  1  0  0  0
 71143  1  0  0  0
 71 78  1  0  0  0
 72 79  1  0  0  0
 72144  1  0  0  0
 72145  1  0  0  0
 73 78  1  0  0  0
 73 79  1  0  0  0
 73146  1  0  0  0
 73147  1  0  0  0
 74 76  1  0  0  0
 74 81  1  0  0  0
 74148  1  0  0  0
 74149  1  0  0  0
 75 77  1  0  0  0
 75 81  1  0  0  0
 75150  1  0  0  0
 75151  1  0  0  0
 76152  1  0  0  0
 76153  1  0  0  0
 76 82  1  0  0  0
 77 82  1  0  0  0
 77154  1  0  0  0
 77155  1  0  0  0
 78 82  1  0  0  0
 78156  1  0  0  0
 79 80  1  0  0  0
 80157  1  0  0  0
 80158  1  0  0  0
 80159  1  0  0  0
 82160  1  0  0  0
M  CHG  1  82   1
M  ISO  4   1 100  68 101  79 101  81 100
M  END
> <chiral flag>
0

> <version>
0

> <s_m_source_file>
/data/baiqing/PycharmProjects/Reinvent-master-3.2/result/LINK_invent/BTK/process_docking_weight1_custom_sum_contain_oxygen_bond_distance_aromatic_linkinvent_7_9_3/rearranged_h_0175.sdf

> <i_m_source_file_index>
43

> <r_mmod_Potential_Energy-OPLS-2005>
1227.88159179688

> <r_mmod_Stretch_Energy-OPLS-2005>
433.894134521484

> <r_mmod_Bend_Energy-OPLS-2005>
544.837524414062

> <r_mmod_Torsional_Energy-OPLS-2005>
412.587005615234

> <r_mmod_Improper_Torsional_Energy-OPLS-2005>
11.3354320526123

> <r_mmod_Van_der_Waal_Energy-OPLS-2005>
113.340103149414

> <r_mmod_Electrostatic_Energy-OPLS-2005>
-210.229476928711

> <r_mmod_Solvation_Energy-OPLS-2005>
-450.048278808594

> <b_mmod_Minimization_Converged-OPLS-2005>
0

> <r_mmod_RMS_Derivative-OPLS-2005>
2.17354536056519

$$$$
43
                    3D
 Structure written by MMmdl.
171180  0  0  1  0            999 V2000
  -30.6228  -14.6534   20.4694 C   0  0  0  0  0  0
  -30.4288  -12.4048   19.4266 C   0  0  0  0  0  0
  -29.4981  -12.5058   18.2011 C   0  0  0  0  0  0
  -28.0160  -12.3457   18.6043 C   0  0  0  0  0  0
  -27.6366  -13.2105   19.8371 C   0  0  2  0  0  0
  -28.6862  -13.0956   20.9614 C   0  0  0  0  0  0
  -25.2478  -13.8158   20.5578 C   0  0  0  0  0  0
  -24.1769  -13.0459   20.9130 C   0  0  0  0  0  0
  -24.6325  -11.6906   20.8691 C   0  0  0  0  0  0
  -23.9003  -10.4312   21.0371 C   0  0  0  0  0  0
  -24.3579   -9.4244   21.9153 C   0  0  0  0  0  0
  -23.6272   -8.2279   22.0776 C   0  0  0  0  0  0
  -22.4262   -8.0265   21.3561 C   0  0  0  0  0  0
  -21.9871   -9.0220   20.4647 C   0  0  0  0  0  0
  -22.7177  -10.2113   20.3023 C   0  0  0  0  0  0
  -21.6864   -6.0698   22.5271 C   0  0  0  0  0  0
  -21.4036   -6.5618   23.8202 C   0  0  0  0  0  0
  -21.3667   -5.6797   24.9177 C   0  0  0  0  0  0
  -21.6047   -4.3053   24.7237 C   0  0  0  0  0  0
  -21.8821   -3.8131   23.4356 C   0  0  0  0  0  0
  -21.9200   -4.6933   22.3400 C   0  0  0  0  0  0
  -22.7783  -13.5248   21.1813 C   0  0  0  0  0  0
  -22.1672   -4.2113   21.0984 F   0  0  0  0  0  0
  -21.5628   -3.4526   25.7745 F   0  0  0  0  0  0
  -29.9892  -13.4417   20.3752 N   0  0  0  0  0  0
  -26.2878  -12.9312   20.3156 N   0  0  0  0  0  0
  -25.9241  -11.6469   20.5671 N   0  0  0  0  0  0
  -22.0434  -12.8280   22.0384 N   0  0  0  0  0  0
  -25.4256  -15.1903   20.3938 N   0  0  0  0  0  0
  -31.8393  -14.7348   20.3187 O   0  0  0  0  0  0
  -21.6673   -6.8839   21.4231 O   0  0  0  0  0  0
  -22.3435  -14.5531   20.6610 O   0  0  0  0  0  0
  -24.6246  -31.8576   23.2039 C   0  0  0  0  0  0
  -25.9085  -32.4794   23.8362 C   0  0  1  0  0  0
  -27.2176  -27.3108   20.1280 C   0  0  0  0  0  0
  -25.5875  -33.8597   24.2291 N   0  0  0  0  0  0
  -23.4221  -30.4818   21.5437 C   0  0  2  0  0  0
  -24.8673  -28.9401   20.1046 C   0  0  0  0  0  0
  -22.7474  -29.4593   22.4916 C   0  0  0  0  0  0
  -18.0251  -28.1427   22.8480 C   0  0  0  0  0  0
  -24.1458  -36.7319   23.2645 C   0  0  0  0  0  0
  -25.9583  -30.7938   21.3659 C   0  0  0  0  0  0
  -26.0311  -29.4147   20.7195 C   0  0  0  0  0  0
  -27.2060  -28.6092   20.7235 C   0  0  0  0  0  0
  -26.0332  -26.8873   19.4824 C   0  0  0  0  0  0
  -24.8728  -27.6862   19.4711 C   0  0  0  0  0  0
  -23.6365  -29.8224   20.1543 C   0  0  0  0  0  0
  -25.4092  -36.3106   24.0331 C   0  0  1  0  0  0
  -20.5863  -28.3696   23.1305 C   0  0  2  0  0  0
  -20.6758  -26.9417   22.5435 C   0  0  0  0  0  0
  -19.5728  -26.6399   21.5236 C   0  0  0  0  0  0
  -18.1897  -26.7970   22.1628 C   0  0  0  0  0  0
  -19.1510  -28.8881   23.2884 C   0  0  0  0  0  0
  -18.9436  -30.1483   23.8919 C   0  0  0  0  0  0
  -17.6444  -30.6622   24.0581 C   0  0  0  0  0  0
  -25.9033  -34.9473   23.5127 C   0  0  0  0  0  0
  -16.5331  -29.9135   23.6342 C   0  0  0  0  0  0
  -16.7240  -28.6552   23.0354 C   0  0  0  0  0  0
  -26.4461  -31.6627   25.0744 C   0  0  0  0  0  0
  -25.3677  -31.3740   26.1478 C   0  0  0  0  0  0
  -27.0283  -30.3064   24.6168 C   0  0  0  0  0  0
  -27.6048  -32.4326   25.7500 C   0  0  0  0  0  0
  -27.5562  -37.1812   24.8462 C   0  0  0  0  0  0
  -21.4169  -29.3045   22.3705 N   0  0  0  0  0  0
  -26.4277  -37.3802   23.9411 N   0  0  0  0  0  0
  -24.6887  -31.0598   22.0977 N   0  0  0  0  0  0
  -23.4213  -28.8096   23.2963 O   0  0  0  0  0  0
  -28.3544  -26.4931   20.1935 O   0  0  0  0  0  0
  -26.5608  -34.8935   22.4698 O   0  0  0  0  0  0
  -23.5400  -32.1312   23.7376 O   0  0  0  0  0  0
  -30.3471  -19.7658   21.0593 C   0  0  0  0  0  0
  -31.3131  -20.3640   21.9265 C   0  0  0  0  0  0
  -30.6939  -18.4329   20.5726 C   0  0  0  0  0  0
  -32.6217  -19.8332   21.9337 C   0  0  0  0  0  0
  -32.0827  -18.2166   20.3808 C   0  0  0  0  0  0
  -29.7392  -24.4121   19.9759 C   0  0  0  0  0  0
  -27.4795  -24.1755   20.9320 C   0  0  0  0  0  0
  -29.8333  -22.8409   19.8008 C   0  0  0  0  0  0
  -27.5783  -22.6298   20.6613 C   0  0  0  0  0  0
  -28.3069  -25.0331   19.9318 C   0  0  1  0  0  0
  -30.9888  -21.4971   22.8978 C   0  0  0  0  0  0
  -33.6846  -20.2410   22.9376 C   0  0  0  0  0  0
  -32.6804  -17.3075   19.3310 C   0  0  0  0  0  0
  -29.8086  -17.1864   20.9965 C   0  0  0  0  0  0
  -29.0145  -20.5300   20.6891 C   0  0  0  0  0  0
  -33.0173  -18.8964   21.0638 N   0  0  0  0  0  0
  -29.8035  -15.7561   20.4709 N   0  0  0  0  0  0
  -28.9647  -22.0681   20.7463 N   0  3  1  0  0  0
  -31.4626  -12.5609   19.1209 H   0  0  0  0  0  0
  -30.3845  -11.4083   19.8732 H   0  0  0  0  0  0
  -29.7709  -11.7622   17.4516 H   0  0  0  0  0  0
  -29.6395  -13.4769   17.7249 H   0  0  0  0  0  0
  -27.8401  -11.2882   18.8070 H   0  0  0  0  0  0
  -27.3692  -12.6032   17.7631 H   0  0  0  0  0  0
  -27.6454  -14.2384   19.4822 H   0  0  0  0  0  0
  -28.6988  -12.0846   21.3703 H   0  0  0  0  0  0
  -28.4303  -13.7595   21.7858 H   0  0  0  0  0  0
  -25.2733   -9.5777   22.4674 H   0  0  0  0  0  0
  -24.0018   -7.4708   22.7490 H   0  0  0  0  0  0
  -21.0835   -8.8691   19.8914 H   0  0  0  0  0  0
  -22.3618  -10.9626   19.6094 H   0  0  0  0  0  0
  -21.2062   -7.6134   23.9713 H   0  0  0  0  0  0
  -21.1481   -6.0513   25.9080 H   0  0  0  0  0  0
  -22.0594   -2.7574   23.2886 H   0  0  0  0  0  0
  -22.4061  -11.9954   22.4820 H   0  0  0  0  0  0
  -21.1000  -13.1229   22.2490 H   0  0  0  0  0  0
  -24.6666  -15.8493   20.5210 H   0  0  0  0  0  0
  -26.2606  -15.6328   20.0382 H   0  0  0  0  0  0
  -26.7176  -32.5458   23.1129 H   0  0  0  0  0  0
  -24.9996  -33.9747   25.0415 H   0  0  0  0  0  0
  -22.7125  -31.3017   21.4053 H   0  0  0  0  0  0
  -23.3733  -35.9649   23.3301 H   0  0  0  0  0  0
  -24.3543  -36.8947   22.2061 H   0  0  0  0  0  0
  -23.7209  -37.6517   23.6679 H   0  0  0  0  0  0
  -26.0652  -31.5455   20.5825 H   0  0  0  0  0  0
  -26.8520  -30.8665   21.9785 H   0  0  0  0  0  0
  -28.0997  -28.9644   21.2185 H   0  0  0  0  0  0
  -25.9742  -25.9288   18.9861 H   0  0  0  0  0  0
  -23.9874  -27.3306   18.9626 H   0  0  0  0  0  0
  -23.7461  -30.6034   19.3990 H   0  0  0  0  0  0
  -22.7557  -29.2484   19.8558 H   0  0  0  0  0  0
  -25.1264  -36.1971   25.0826 H   0  0  0  0  0  0
  -20.9928  -28.3277   24.1434 H   0  0  0  0  0  0
  -20.5678  -26.2281   23.3616 H   0  0  0  0  0  0
  -21.6612  -26.7468   22.1203 H   0  0  0  0  0  0
  -19.6895  -25.6298   21.1270 H   0  0  0  0  0  0
  -19.6726  -27.3204   20.6763 H   0  0  0  0  0  0
  -17.4170  -26.6694   21.4026 H   0  0  0  0  0  0
  -18.0296  -26.0143   22.9044 H   0  0  0  0  0  0
  -19.7910  -30.7285   24.2308 H   0  0  0  0  0  0
  -17.4998  -31.6300   24.5176 H   0  0  0  0  0  0
  -15.5334  -30.3057   23.7687 H   0  0  0  0  0  0
  -15.8612  -28.0909   22.7084 H   0  0  0  0  0  0
  -24.5907  -30.7041   25.7795 H   0  0  0  0  0  0
  -24.8802  -32.2873   26.4879 H   0  0  0  0  0  0
  -25.7981  -30.8942   27.0274 H   0  0  0  0  0  0
  -26.2841  -29.6858   24.1193 H   0  0  0  0  0  0
  -27.3988  -29.7302   25.4647 H   0  0  0  0  0  0
  -27.8689  -30.4375   23.9364 H   0  0  0  0  0  0
  -27.2745  -33.3678   26.2031 H   0  0  0  0  0  0
  -28.3887  -32.6798   25.0328 H   0  0  0  0  0  0
  -28.0697  -31.8471   26.5435 H   0  0  0  0  0  0
  -28.2583  -38.0104   24.7514 H   0  0  0  0  0  0
  -28.1036  -36.2632   24.6272 H   0  0  0  0  0  0
  -27.2271  -37.1462   25.8863 H   0  0  0  0  0  0
  -20.9346  -29.8769   21.6930 H   0  0  0  0  0  0
  -26.0144  -38.2870   24.1471 H   0  0  0  0  0  0
  -30.3405  -24.8907   19.2016 H   0  0  0  0  0  0
  -30.2084  -24.6911   20.9194 H   0  0  0  0  0  0
  -27.7888  -24.3874   21.9544 H   0  0  0  0  0  0
  -26.4267  -24.4605   20.8771 H   0  0  0  0  0  0
  -29.5542  -22.5724   18.7840 H   0  0  0  0  0  0
  -30.8738  -22.5275   19.9176 H   0  0  0  0  0  0
  -27.1850  -22.4280   19.6638 H   0  0  0  0  0  0
  -26.9292  -22.0915   21.3534 H   0  0  0  0  0  0
  -27.9172  -24.8719   18.9250 H   0  0  0  0  0  0
  -29.9266  -21.6986   23.0071 H   0  0  0  0  0  0
  -31.5127  -22.4128   22.6098 H   0  0  0  0  0  0
  -31.3089  -21.2327   23.9070 H   0  0  0  0  0  0
  -33.4195  -19.8349   23.9159 H   0  0  0  0  0  0
  -33.7924  -21.3223   23.0178 H   0  0  0  0  0  0
  -34.6557  -19.8170   22.6657 H   0  0  0  0  0  0
  -31.9213  -16.8244   18.7181 H   0  0  0  0  0  0
  -33.3343  -16.5683   19.7949 H   0  0  0  0  0  0
  -33.3115  -17.9004   18.6656 H   0  0  0  0  0  0
  -28.7700  -17.5184   20.9389 H   0  0  0  0  0  0
  -30.0064  -17.0707   22.0654 H   0  0  0  0  0  0
  -28.2398  -20.1336   21.3474 H   0  0  0  0  0  0
  -28.7336  -20.2294   19.6782 H   0  0  0  0  0  0
  -28.8543  -15.4546   20.3207 H   0  0  0  0  0  0
  -29.2979  -22.2744   21.6769 H   0  0  0  0  0  0
  1 25  1  0  0  0
  1 30  2  0  0  0
  1 87  1  0  0  0
  2  3  1  0  0  0
  2 25  1  0  0  0
  2 89  1  0  0  0
  2 90  1  0  0  0
  3  4  1  0  0  0
  3 91  1  0  0  0
  3 92  1  0  0  0
  4  5  1  0  0  0
  4 93  1  0  0  0
  4 94  1  0  0  0
  5  6  1  0  0  0
  5 26  1  0  0  0
  5 95  1  0  0  0
  6 25  1  0  0  0
  6 96  1  0  0  0
  6 97  1  0  0  0
  7  8  2  0  0  0
  7 26  1  0  0  0
  7 29  1  0  0  0
  8  9  1  0  0  0
  8 22  1  0  0  0
  9 10  1  0  0  0
  9 27  2  0  0  0
 10 11  2  0  0  0
 10 15  1  0  0  0
 11 12  1  0  0  0
 11 98  1  0  0  0
 12 13  2  0  0  0
 12 99  1  0  0  0
 13 14  1  0  0  0
 13 31  1  0  0  0
 14 15  2  0  0  0
 14100  1  0  0  0
 15101  1  0  0  0
 16 17  2  0  0  0
 16 21  1  0  0  0
 16 31  1  0  0  0
 17 18  1  0  0  0
 17102  1  0  0  0
 18 19  2  0  0  0
 18103  1  0  0  0
 19 20  1  0  0  0
 19 24  1  0  0  0
 20 21  2  0  0  0
 20104  1  0  0  0
 21 23  1  0  0  0
 22 28  1  0  0  0
 22 32  2  0  0  0
 26 27  1  0  0  0
 28105  1  0  0  0
 28106  1  0  0  0
 29107  1  0  0  0
 29108  1  0  0  0
 33 34  1  0  0  0
 33 66  1  0  0  0
 33 70  2  0  0  0
 34 36  1  0  0  0
 34 59  1  0  0  0
 34109  1  0  0  0
 35 44  2  0  0  0
 35 45  1  0  0  0
 35 68  1  0  0  0
 36 56  1  0  0  0
 36110  1  0  0  0
 37 39  1  0  0  0
 37 47  1  0  0  0
 37 66  1  0  0  0
 37111  1  0  0  0
 38 43  2  0  0  0
 38 46  1  0  0  0
 38 47  1  0  0  0
 39 64  1  0  0  0
 39 67  2  0  0  0
 40 52  1  0  0  0
 40 53  2  0  0  0
 40 58  1  0  0  0
 41112  1  0  0  0
 41113  1  0  0  0
 41114  1  0  0  0
 41 48  1  0  0  0
 42 43  1  0  0  0
 42 66  1  0  0  0
 42115  1  0  0  0
 42116  1  0  0  0
 43 44  1  0  0  0
 44117  1  0  0  0
 45 46  2  0  0  0
 45118  1  0  0  0
 46119  1  0  0  0
 47120  1  0  0  0
 47121  1  0  0  0
 48 56  1  0  0  0
 48 65  1  0  0  0
 48122  1  0  0  0
 49 50  1  0  0  0
 49 53  1  0  0  0
 49 64  1  0  0  0
 49123  1  0  0  0
 50 51  1  0  0  0
 50124  1  0  0  0
 50125  1  0  0  0
 51 52  1  0  0  0
 51126  1  0  0  0
 51127  1  0  0  0
 52128  1  0  0  0
 52129  1  0  0  0
 53 54  1  0  0  0
 54 55  2  0  0  0
 54130  1  0  0  0
 55 57  1  0  0  0
 55131  1  0  0  0
 56 69  2  0  0  0
 57 58  2  0  0  0
 57132  1  0  0  0
 58133  1  0  0  0
 59 60  1  0  0  0
 59 61  1  0  0  0
 59 62  1  0  0  0
 60134  1  0  0  0
 60135  1  0  0  0
 60136  1  0  0  0
 61137  1  0  0  0
 61138  1  0  0  0
 61139  1  0  0  0
 62140  1  0  0  0
 62141  1  0  0  0
 62142  1  0  0  0
 63 65  1  0  0  0
 63143  1  0  0  0
 63144  1  0  0  0
 63145  1  0  0  0
 64146  1  0  0  0
 65147  1  0  0  0
 68 80  1  0  0  0
 71 72  2  0  0  0
 71 73  1  0  0  0
 71 85  1  0  0  0
 72 74  1  0  0  0
 72 81  1  0  0  0
 73 75  2  0  0  0
 73 84  1  0  0  0
 74 82  1  0  0  0
 74 86  2  0  0  0
 75 83  1  0  0  0
 75 86  1  0  0  0
 76 78  1  0  0  0
 76 80  1  0  0  0
 76148  1  0  0  0
 76149  1  0  0  0
 77 79  1  0  0  0
 77 80  1  0  0  0
 77150  1  0  0  0
 77151  1  0  0  0
 78 88  1  0  0  0
 78152  1  0  0  0
 78153  1  0  0  0
 79 88  1  0  0  0
 79154  1  0  0  0
 79155  1  0  0  0
 80156  1  0  0  0
 81157  1  0  0  0
 81158  1  0  0  0
 81159  1  0  0  0
 82160  1  0  0  0
 82161  1  0  0  0
 82162  1  0  0  0
 83163  1  0  0  0
 83164  1  0  0  0
 83165  1  0  0  0
 84 87  1  0  0  0
 84166  1  0  0  0
 84167  1  0  0  0
 85168  1  0  0  0
 85169  1  0  0  0
 85 88  1  0  0  0
 87170  1  0  0  0
 88171  1  0  0  0
M  CHG  1  88   1
M  ISO  4   1 100  68 101  80 101  87 100
M  END
> <chiral flag>
0

> <version>
0

> <s_m_source_file>
/data/baiqing/PycharmProjects/Reinvent-master-3.2/result/LINK_invent/BTK/process_docking_weight1_custom_sum_contain_oxygen_bond_distance_aromatic_linkinvent_7_9_3/rearranged_h_0175.sdf

> <i_m_source_file_index>
44

> <r_mmod_Potential_Energy-OPLS-2005>
-27.9672431945801

> <r_mmod_Stretch_Energy-OPLS-2005>
97.0639572143555

> <r_mmod_Bend_Energy-OPLS-2005>
206.173553466797

> <r_mmod_Torsional_Energy-OPLS-2005>
385.246643066406

> <r_mmod_Improper_Torsional_Energy-OPLS-2005>
17.3651065826416

> <r_mmod_Van_der_Waal_Energy-OPLS-2005>
148.021926879883

> <r_mmod_Electrostatic_Energy-OPLS-2005>
-465.803924560547

> <r_mmod_Solvation_Energy-OPLS-2005>
-475.882049560547

> <b_mmod_Minimization_Converged-OPLS-2005>
0

> <r_mmod_RMS_Derivative-OPLS-2005>
6.18170547485352

$$$$
44
                    3D
 Structure written by MMmdl.
169179  0  0  1  0            999 V2000
  -30.6509  -14.6192   20.5098 C   0  0  0  0  0  0
  -30.4358  -12.3847   19.4507 C   0  0  0  0  0  0
  -29.5079  -12.5070   18.2221 C   0  0  0  0  0  0
  -28.0309  -12.3450   18.6344 C   0  0  0  0  0  0
  -27.6524  -13.2185   19.8604 C   0  0  2  0  0  0
  -28.6976  -13.0803   20.9911 C   0  0  0  0  0  0
  -25.2517  -13.8140   20.5666 C   0  0  0  0  0  0
  -24.1807  -13.0409   20.9208 C   0  0  0  0  0  0
  -24.6392  -11.6894   20.8748 C   0  0  0  0  0  0
  -23.9065  -10.4280   21.0408 C   0  0  0  0  0  0
  -24.3617   -9.4201   21.9188 C   0  0  0  0  0  0
  -23.6290   -8.2239   22.0756 C   0  0  0  0  0  0
  -22.4268   -8.0278   21.3551 C   0  0  0  0  0  0
  -21.9902   -9.0251   20.4652 C   0  0  0  0  0  0
  -22.7237  -10.2124   20.3059 C   0  0  0  0  0  0
  -21.6849   -6.0739   22.5288 C   0  0  0  0  0  0
  -21.4014   -6.5643   23.8222 C   0  0  0  0  0  0
  -21.3651   -5.6794   24.9184 C   0  0  0  0  0  0
  -21.6040   -4.3057   24.7232 C   0  0  0  0  0  0
  -21.8818   -3.8150   23.4351 C   0  0  0  0  0  0
  -21.9192   -4.6970   22.3409 C   0  0  0  0  0  0
  -22.7825  -13.5207   21.1865 C   0  0  0  0  0  0
  -22.1663   -4.2157   21.0985 F   0  0  0  0  0  0
  -21.5622   -3.4541   25.7747 F   0  0  0  0  0  0
  -30.0161  -13.4097   20.4256 N   0  0  0  0  0  0
  -26.2976  -12.9354   20.3296 N   0  0  0  0  0  0
  -25.9323  -11.6508   20.5755 N   0  0  0  0  0  0
  -22.0457  -12.8206   22.0420 N   0  0  0  0  0  0
  -25.4120  -15.1846   20.4026 N   0  0  0  0  0  0
  -31.8123  -14.7689   20.1221 O   0  0  0  0  0  0
  -21.6630   -6.8876   21.4248 O   0  0  0  0  0  0
  -22.3517  -14.5519   20.6715 O   0  0  0  0  0  0
  -24.6232  -31.8612   23.2037 C   0  0  0  0  0  0
  -25.9092  -32.4783   23.8356 C   0  0  1  0  0  0
  -27.2279  -27.3364   20.1135 C   0  0  0  0  0  0
  -25.5919  -33.8585   24.2286 N   0  0  0  0  0  0
  -23.4156  -30.4843   21.5461 C   0  0  2  0  0  0
  -24.8622  -28.9403   20.1110 C   0  0  0  0  0  0
  -22.7459  -29.4626   22.4952 C   0  0  0  0  0  0
  -18.0281  -28.1379   22.8491 C   0  0  0  0  0  0
  -24.1488  -36.7298   23.2638 C   0  0  0  0  0  0
  -25.9544  -30.7956   21.3737 C   0  0  0  0  0  0
  -26.0274  -29.4239   20.7178 C   0  0  0  0  0  0
  -27.2095  -28.6306   20.7137 C   0  0  0  0  0  0
  -26.0425  -26.9053   19.4733 C   0  0  0  0  0  0
  -24.8706  -27.6858   19.4823 C   0  0  0  0  0  0
  -23.6291  -29.8180   20.1610 C   0  0  0  0  0  0
  -25.4111  -36.3089   24.0331 C   0  0  1  0  0  0
  -20.5879  -28.3678   23.1294 C   0  0  2  0  0  0
  -20.6773  -26.9404   22.5414 C   0  0  0  0  0  0
  -19.5750  -26.6381   21.5213 C   0  0  0  0  0  0
  -18.1926  -26.7925   22.1622 C   0  0  0  0  0  0
  -19.1534  -28.8846   23.2888 C   0  0  0  0  0  0
  -18.9460  -30.1449   23.8903 C   0  0  0  0  0  0
  -17.6461  -30.6583   24.0562 C   0  0  0  0  0  0
  -25.9046  -34.9456   23.5108 C   0  0  0  0  0  0
  -16.5350  -29.9082   23.6330 C   0  0  0  0  0  0
  -16.7269  -28.6499   23.0352 C   0  0  0  0  0  0
  -26.4486  -31.6592   25.0724 C   0  0  0  0  0  0
  -25.3725  -31.3734   26.1459 C   0  0  0  0  0  0
  -27.0324  -30.3017   24.6168 C   0  0  0  0  0  0
  -27.6053  -32.4324   25.7487 C   0  0  0  0  0  0
  -27.5580  -37.1803   24.8461 C   0  0  0  0  0  0
  -21.4177  -29.3032   22.3692 N   0  0  0  0  0  0
  -26.4291  -37.3783   23.9408 N   0  0  0  0  0  0
  -24.6829  -31.0637   22.0981 N   0  0  0  0  0  0
  -23.4192  -28.8171   23.3027 O   0  0  0  0  0  0
  -28.3715  -26.5312   20.1786 O   0  0  0  0  0  0
  -26.5613  -34.8922   22.4674 O   0  0  0  0  0  0
  -23.5403  -32.1406   23.7381 O   0  0  0  0  0  0
  -29.5159  -19.6553   20.1271 C   0  0  0  0  0  0
  -30.5035  -20.3791   19.3983 C   0  0  0  0  0  0
  -30.5116  -21.8117   19.4128 C   0  0  0  0  0  0
  -29.5260  -22.5377   20.1451 C   0  0  0  0  0  0
  -28.6421  -20.4752   20.9039 C   0  0  0  0  0  0
  -28.9900  -17.5976   18.5663 C   0  0  0  0  0  0
  -27.9095  -17.6361   19.5982 C   0  0  0  0  0  0
  -29.4323  -24.8381   18.9119 C   0  0  0  0  0  0
  -28.3157  -25.0834   19.8776 C   0  0  1  0  0  0
  -29.3092  -18.1077   19.9668 C   0  0  0  0  0  0
  -29.4945  -24.1055   20.2434 C   0  0  1  0  0  0
  -31.5595  -19.6383   18.5814 C   0  0  0  0  0  0
  -31.5861  -22.5638   18.6254 C   0  0  0  0  0  0
  -27.5852  -19.8689   21.8090 C   0  0  0  0  0  0
  -30.3915  -24.5530   21.3858 C   0  0  0  0  0  0
  -30.1962  -17.1621   20.8489 C   0  0  0  0  0  0
  -28.6462  -21.8418   20.9050 N   0  0  0  0  0  0
  -29.8817  -15.6895   20.8616 N   0  0  0  0  0  0
  -31.4785  -12.5008   19.1502 H   0  0  0  0  0  0
  -30.3624  -11.3902   19.8936 H   0  0  0  0  0  0
  -29.7723  -11.7582   17.4742 H   0  0  0  0  0  0
  -29.6512  -13.4775   17.7449 H   0  0  0  0  0  0
  -27.8681  -11.2919   18.8666 H   0  0  0  0  0  0
  -27.3768  -12.5739   17.7925 H   0  0  0  0  0  0
  -27.6686  -14.2518   19.5151 H   0  0  0  0  0  0
  -28.7031  -12.0632   21.3868 H   0  0  0  0  0  0
  -28.4456  -13.7268   21.8328 H   0  0  0  0  0  0
  -25.2767   -9.5676   22.4757 H   0  0  0  0  0  0
  -24.0009   -7.4622   22.7457 H   0  0  0  0  0  0
  -21.0842   -8.8766   19.8946 H   0  0  0  0  0  0
  -22.3706  -10.9664   19.6162 H   0  0  0  0  0  0
  -21.2008   -7.6151   23.9728 H   0  0  0  0  0  0
  -21.1468   -6.0525   25.9085 H   0  0  0  0  0  0
  -22.0601   -2.7615   23.2852 H   0  0  0  0  0  0
  -22.4073  -11.9886   22.4843 H   0  0  0  0  0  0
  -21.1072  -13.1235   22.2606 H   0  0  0  0  0  0
  -24.6326  -15.8269   20.4908 H   0  0  0  0  0  0
  -26.2379  -15.6157   20.0112 H   0  0  0  0  0  0
  -26.7161  -32.5461   23.1106 H   0  0  0  0  0  0
  -25.0070  -33.9728   25.0434 H   0  0  0  0  0  0
  -22.7085  -31.3043   21.4038 H   0  0  0  0  0  0
  -23.3750  -35.9630   23.3300 H   0  0  0  0  0  0
  -24.3580  -36.8917   22.2052 H   0  0  0  0  0  0
  -23.7242  -37.6502   23.6658 H   0  0  0  0  0  0
  -26.0835  -31.5591   20.6052 H   0  0  0  0  0  0
  -26.8361  -30.8441   22.0013 H   0  0  0  0  0  0
  -28.1029  -28.9962   21.2006 H   0  0  0  0  0  0
  -25.9876  -25.9615   18.9543 H   0  0  0  0  0  0
  -23.9789  -27.3125   18.9971 H   0  0  0  0  0  0
  -23.7449  -30.5935   19.4029 H   0  0  0  0  0  0
  -22.7502  -29.2443   19.8613 H   0  0  0  0  0  0
  -25.1291  -36.1943   25.0824 H   0  0  0  0  0  0
  -20.9965  -28.3247   24.1416 H   0  0  0  0  0  0
  -20.5669  -26.2286   23.3609 H   0  0  0  0  0  0
  -21.6645  -26.7437   22.1209 H   0  0  0  0  0  0
  -19.6909  -25.6293   21.1241 H   0  0  0  0  0  0
  -19.6682  -27.3195   20.6743 H   0  0  0  0  0  0
  -17.4197  -26.6675   21.4021 H   0  0  0  0  0  0
  -18.0317  -26.0060   22.9009 H   0  0  0  0  0  0
  -19.7937  -30.7265   24.2271 H   0  0  0  0  0  0
  -17.5015  -31.6264   24.5157 H   0  0  0  0  0  0
  -15.5349  -30.2985   23.7650 H   0  0  0  0  0  0
  -15.8669  -28.0814   22.7069 H   0  0  0  0  0  0
  -24.5892  -30.7086   25.7799 H   0  0  0  0  0  0
  -24.8923  -32.2903   26.4889 H   0  0  0  0  0  0
  -25.8054  -30.8915   27.0233 H   0  0  0  0  0  0
  -26.2890  -29.6774   24.1196 H   0  0  0  0  0  0
  -27.4030  -29.7269   25.4667 H   0  0  0  0  0  0
  -27.8759  -30.4309   23.9381 H   0  0  0  0  0  0
  -27.2667  -33.3624   26.2069 H   0  0  0  0  0  0
  -28.3857  -32.6884   25.0306 H   0  0  0  0  0  0
  -28.0728  -31.8445   26.5398 H   0  0  0  0  0  0
  -28.2603  -38.0096   24.7512 H   0  0  0  0  0  0
  -28.1073  -36.2630   24.6283 H   0  0  0  0  0  0
  -27.2301  -37.1453   25.8866 H   0  0  0  0  0  0
  -20.9351  -29.8757   21.6908 H   0  0  0  0  0  0
  -26.0175  -38.2861   24.1403 H   0  0  0  0  0  0
  -28.9336  -18.3244   17.7578 H   0  0  0  0  0  0
  -29.3533  -16.6141   18.2746 H   0  0  0  0  0  0
  -27.5734  -16.6854   19.9950 H   0  0  0  0  0  0
  -27.1226  -18.3691   19.4350 H   0  0  0  0  0  0
  -30.1617  -25.6295   18.7518 H   0  0  0  0  0  0
  -29.1750  -24.2656   18.0236 H   0  0  0  0  0  0
  -27.3424  -24.6188   19.7512 H   0  0  0  0  0  0
  -31.4302  -18.5601   18.5576 H   0  0  0  0  0  0
  -32.5505  -19.8165   18.9983 H   0  0  0  0  0  0
  -31.5547  -19.9830   17.5475 H   0  0  0  0  0  0
  -32.5515  -22.0601   18.6578 H   0  0  0  0  0  0
  -31.7721  -23.5628   19.0140 H   0  0  0  0  0  0
  -31.2890  -22.6607   17.5806 H   0  0  0  0  0  0
  -27.8859  -18.8871   22.1742 H   0  0  0  0  0  0
  -26.6398  -19.7665   21.2772 H   0  0  0  0  0  0
  -27.4105  -20.4978   22.6821 H   0  0  0  0  0  0
  -31.4030  -24.1701   21.2553 H   0  0  0  0  0  0
  -29.9999  -24.1765   22.3313 H   0  0  0  0  0  0
  -30.4416  -25.6401   21.4425 H   0  0  0  0  0  0
  -30.1199  -17.5055   21.8812 H   0  0  0  0  0  0
  -31.2402  -17.3077   20.5687 H   0  0  0  0  0  0
  -28.9419  -15.4532   21.1415 H   0  0  0  0  0  0
  1 25  1  0  0  0
  1 30  2  0  0  0
  1 88  1  0  0  0
  2  3  1  0  0  0
  2 25  1  0  0  0
  2 89  1  0  0  0
  2 90  1  0  0  0
  3  4  1  0  0  0
  3 91  1  0  0  0
  3 92  1  0  0  0
  4  5  1  0  0  0
  4 93  1  0  0  0
  4 94  1  0  0  0
  5  6  1  0  0  0
  5 26  1  0  0  0
  5 95  1  0  0  0
  6 25  1  0  0  0
  6 96  1  0  0  0
  6 97  1  0  0  0
  7  8  2  0  0  0
  7 26  1  0  0  0
  7 29  1  0  0  0
  8  9  1  0  0  0
  8 22  1  0  0  0
  9 10  1  0  0  0
  9 27  2  0  0  0
 10 11  2  0  0  0
 10 15  1  0  0  0
 11 12  1  0  0  0
 11 98  1  0  0  0
 12 13  2  0  0  0
 12 99  1  0  0  0
 13 14  1  0  0  0
 13 31  1  0  0  0
 14 15  2  0  0  0
 14100  1  0  0  0
 15101  1  0  0  0
 16 17  2  0  0  0
 16 21  1  0  0  0
 16 31  1  0  0  0
 17 18  1  0  0  0
 17102  1  0  0  0
 18 19  2  0  0  0
 18103  1  0  0  0
 19 20  1  0  0  0
 19 24  1  0  0  0
 20 21  2  0  0  0
 20104  1  0  0  0
 21 23  1  0  0  0
 22 28  1  0  0  0
 22 32  2  0  0  0
 26 27  1  0  0  0
 28105  1  0  0  0
 28106  1  0  0  0
 29107  1  0  0  0
 29108  1  0  0  0
 33 34  1  0  0  0
 33 66  1  0  0  0
 33 70  2  0  0  0
 34 36  1  0  0  0
 34 59  1  0  0  0
 34109  1  0  0  0
 35 44  2  0  0  0
 35 45  1  0  0  0
 35 68  1  0  0  0
 36 56  1  0  0  0
 36110  1  0  0  0
 37 39  1  0  0  0
 37 47  1  0  0  0
 37 66  1  0  0  0
 37111  1  0  0  0
 38 43  2  0  0  0
 38 46  1  0  0  0
 38 47  1  0  0  0
 39 64  1  0  0  0
 39 67  2  0  0  0
 40 52  1  0  0  0
 40 53  2  0  0  0
 40 58  1  0  0  0
 41112  1  0  0  0
 41113  1  0  0  0
 41114  1  0  0  0
 41 48  1  0  0  0
 42 43  1  0  0  0
 42 66  1  0  0  0
 42115  1  0  0  0
 42116  1  0  0  0
 43 44  1  0  0  0
 44117  1  0  0  0
 45 46  2  0  0  0
 45118  1  0  0  0
 46119  1  0  0  0
 47120  1  0  0  0
 47121  1  0  0  0
 48 56  1  0  0  0
 48 65  1  0  0  0
 48122  1  0  0  0
 49 50  1  0  0  0
 49 53  1  0  0  0
 49 64  1  0  0  0
 49123  1  0  0  0
 50 51  1  0  0  0
 50124  1  0  0  0
 50125  1  0  0  0
 51 52  1  0  0  0
 51126  1  0  0  0
 51127  1  0  0  0
 52128  1  0  0  0
 52129  1  0  0  0
 53 54  1  0  0  0
 54 55  2  0  0  0
 54130  1  0  0  0
 55 57  1  0  0  0
 55131  1  0  0  0
 56 69  2  0  0  0
 57 58  2  0  0  0
 57132  1  0  0  0
 58133  1  0  0  0
 59 60  1  0  0  0
 59 61  1  0  0  0
 59 62  1  0  0  0
 60134  1  0  0  0
 60135  1  0  0  0
 60136  1  0  0  0
 61137  1  0  0  0
 61138  1  0  0  0
 61139  1  0  0  0
 62140  1  0  0  0
 62141  1  0  0  0
 62142  1  0  0  0
 63 65  1  0  0  0
 63143  1  0  0  0
 63144  1  0  0  0
 63145  1  0  0  0
 64146  1  0  0  0
 65147  1  0  0  0
 68 79  1  0  0  0
 71 72  2  0  0  0
 71 75  1  0  0  0
 71 80  1  0  0  0
 72 73  1  0  0  0
 72 82  1  0  0  0
 73 74  2  0  0  0
 73 83  1  0  0  0
 74 81  1  0  0  0
 74 87  1  0  0  0
 75 84  1  0  0  0
 75 87  2  0  0  0
 76 77  1  0  0  0
 76 80  1  0  0  0
 76148  1  0  0  0
 76149  1  0  0  0
 77 80  1  0  0  0
 77150  1  0  0  0
 77151  1  0  0  0
 78 79  1  0  0  0
 78 81  1  0  0  0
 78152  1  0  0  0
 78153  1  0  0  0
 79 81  1  0  0  0
 79154  1  0  0  0
 80 86  1  0  0  0
 81 85  1  0  0  0
 82155  1  0  0  0
 82156  1  0  0  0
 82157  1  0  0  0
 83158  1  0  0  0
 83159  1  0  0  0
 83160  1  0  0  0
 84161  1  0  0  0
 84162  1  0  0  0
 84163  1  0  0  0
 85164  1  0  0  0
 85165  1  0  0  0
 85166  1  0  0  0
 86 88  1  0  0  0
 86167  1  0  0  0
 86168  1  0  0  0
 88169  1  0  0  0
M  ISO  4   1 100  68 101  79 101  88 100
M  END
> <chiral flag>
0

> <version>
0

> <s_m_source_file>
/data/baiqing/PycharmProjects/Reinvent-master-3.2/result/LINK_invent/BTK/process_docking_weight1_custom_sum_contain_oxygen_bond_distance_aromatic_linkinvent_7_9_3/rearranged_h_0175.sdf

> <i_m_source_file_index>
45

> <r_mmod_Potential_Energy-OPLS-2005>
-103.556205749512

> <r_mmod_Stretch_Energy-OPLS-2005>
82.5161590576172

> <r_mmod_Bend_Energy-OPLS-2005>
144.502655029297

> <r_mmod_Torsional_Energy-OPLS-2005>
280.094818115234

> <r_mmod_Improper_Torsional_Energy-OPLS-2005>
5.286780834198

> <r_mmod_Van_der_Waal_Energy-OPLS-2005>
148.315368652344

> <r_mmod_Electrostatic_Energy-OPLS-2005>
-586.430419921875

> <r_mmod_Solvation_Energy-OPLS-2005>
-219.183654785156

> <b_mmod_Minimization_Converged-OPLS-2005>
0

> <r_mmod_RMS_Derivative-OPLS-2005>
1.07891547679901

$$$$
45
                    3D
 Structure written by MMmdl.
169178  0  0  1  0            999 V2000
  -30.5369  -14.8587   20.4221 C   0  0  0  0  0  0
  -30.4381  -12.5209   19.4966 C   0  0  0  0  0  0
  -29.5163  -12.5188   18.2542 C   0  0  0  0  0  0
  -28.0466  -12.3181   18.6696 C   0  0  0  0  0  0
  -27.6369  -13.2351   19.8520 C   0  0  2  0  0  0
  -28.6767  -13.2070   20.9935 C   0  0  0  0  0  0
  -25.2482  -13.8201   20.5706 C   0  0  0  0  0  0
  -24.1783  -13.0440   20.9212 C   0  0  0  0  0  0
  -24.6379  -11.6921   20.8753 C   0  0  0  0  0  0
  -23.9063  -10.4297   21.0408 C   0  0  0  0  0  0
  -24.3616   -9.4208   21.9184 C   0  0  0  0  0  0
  -23.6289   -8.2243   22.0754 C   0  0  0  0  0  0
  -22.4273   -8.0276   21.3541 C   0  0  0  0  0  0
  -21.9909   -9.0252   20.4650 C   0  0  0  0  0  0
  -22.7237  -10.2135   20.3059 C   0  0  0  0  0  0
  -21.6850   -6.0730   22.5273 C   0  0  0  0  0  0
  -21.4012   -6.5635   23.8207 C   0  0  0  0  0  0
  -21.3661   -5.6790   24.9171 C   0  0  0  0  0  0
  -21.6047   -4.3053   24.7224 C   0  0  0  0  0  0
  -21.8819   -3.8142   23.4347 C   0  0  0  0  0  0
  -21.9191   -4.6958   22.3401 C   0  0  0  0  0  0
  -22.7807  -13.5216   21.1870 C   0  0  0  0  0  0
  -22.1658   -4.2144   21.0978 F   0  0  0  0  0  0
  -21.5635   -3.4539   25.7737 F   0  0  0  0  0  0
  -29.9672  -13.5955   20.4118 N   0  0  0  0  0  0
  -26.2907  -12.9412   20.3290 N   0  0  0  0  0  0
  -25.9307  -11.6549   20.5768 N   0  0  0  0  0  0
  -22.0470  -12.8196   22.0440 N   0  0  0  0  0  0
  -25.4166  -15.1931   20.4106 N   0  0  0  0  0  0
  -31.7090  -14.9700   20.0486 O   0  0  0  0  0  0
  -21.6635   -6.8874   21.4238 O   0  0  0  0  0  0
  -22.3490  -14.5525   20.6723 O   0  0  0  0  0  0
  -24.6361  -31.8452   23.1897 C   0  0  0  0  0  0
  -25.9167  -32.4694   23.8269 C   0  0  1  0  0  0
  -27.2212  -27.1868   20.1396 C   0  0  0  0  0  0
  -25.5925  -33.8500   24.2180 N   0  0  0  0  0  0
  -23.4378  -30.4617   21.5339 C   0  0  2  0  0  0
  -24.8873  -28.8903   20.1014 C   0  0  0  0  0  0
  -22.7525  -29.4545   22.4888 C   0  0  0  0  0  0
  -18.0282  -28.1364   22.8467 C   0  0  0  0  0  0
  -24.1484  -36.7272   23.2644 C   0  0  0  0  0  0
  -25.9844  -30.7310   21.3822 C   0  0  0  0  0  0
  -26.0542  -29.3450   20.7268 C   0  0  0  0  0  0
  -27.2134  -28.4994   20.7438 C   0  0  0  0  0  0
  -26.0443  -26.8226   19.4546 C   0  0  0  0  0  0
  -24.8923  -27.6420   19.4523 C   0  0  0  0  0  0
  -23.6585  -29.7836   20.1527 C   0  0  0  0  0  0
  -25.4118  -36.3034   24.0302 C   0  0  1  0  0  0
  -20.5889  -28.3694   23.1241 C   0  0  2  0  0  0
  -20.6766  -26.9402   22.5402 C   0  0  0  0  0  0
  -19.5758  -26.6368   21.5185 C   0  0  0  0  0  0
  -18.1940  -26.7911   22.1595 C   0  0  0  0  0  0
  -19.1540  -28.8847   23.2838 C   0  0  0  0  0  0
  -18.9472  -30.1444   23.8854 C   0  0  0  0  0  0
  -17.6478  -30.6572   24.0546 C   0  0  0  0  0  0
  -25.9062  -34.9414   23.5063 C   0  0  0  0  0  0
  -16.5362  -29.9068   23.6329 C   0  0  0  0  0  0
  -16.7274  -28.6481   23.0348 C   0  0  0  0  0  0
  -26.4505  -31.6567   25.0705 C   0  0  0  0  0  0
  -25.3695  -31.3738   26.1407 C   0  0  0  0  0  0
  -27.0391  -30.2973   24.6289 C   0  0  0  0  0  0
  -27.6030  -32.4354   25.7487 C   0  0  0  0  0  0
  -27.5577  -37.1785   24.8462 C   0  0  0  0  0  0
  -21.4225  -29.3036   22.3631 N   0  0  0  0  0  0
  -26.4284  -37.3747   23.9405 N   0  0  0  0  0  0
  -24.7052  -31.0351   22.0907 N   0  0  0  0  0  0
  -23.4190  -28.8108   23.3031 O   0  0  0  0  0  0
  -28.3000  -26.2687   20.3059 O   0  0  0  0  0  0
  -26.5668  -34.8907   22.4653 O   0  0  0  0  0  0
  -23.5502  -32.1327   23.7154 O   0  0  0  0  0  0
  -29.6565  -19.5835   23.9899 C   0  0  0  0  0  0
  -29.0855  -19.9085   21.6039 C   0  0  0  0  0  0
  -28.8032  -20.0823   22.9968 C   0  0  0  0  0  0
  -30.7816  -18.8381   23.6434 C   0  0  0  0  0  0
  -29.9018  -18.6730   21.3420 C   0  0  0  0  0  0
  -30.8961  -18.3628   22.3222 C   0  0  0  0  0  0
  -28.1878  -22.5860   21.3063 C   0  0  0  0  0  0
  -29.0597  -22.0969   19.5912 C   0  0  0  0  0  0
  -28.4575  -21.1198   20.6889 C   0  0  1  0  0  0
  -28.0887  -23.3382   19.9404 C   0  0  1  0  0  0
  -27.5446  -20.7584   23.5210 C   0  0  0  0  0  0
  -31.7847  -18.4742   24.7272 C   0  0  0  0  0  0
  -32.0977  -17.4854   21.9908 C   0  0  0  0  0  0
  -26.6899  -23.2473   19.3148 C   0  0  0  0  0  0
  -29.7482  -17.4989   20.2473 C   0  0  0  0  0  0
  -28.5617  -24.9126   19.6440 C   0  0  0  0  0  0
  -29.7195  -15.9806   20.6545 N   0  0  0  0  0  0
  -31.4754  -12.6657   19.1897 H   0  0  0  0  0  0
  -30.4108  -11.5534   20.0007 H   0  0  0  0  0  0
  -29.8199  -11.7334   17.5607 H   0  0  0  0  0  0
  -29.6191  -13.4619   17.7151 H   0  0  0  0  0  0
  -27.9285  -11.2726   18.9585 H   0  0  0  0  0  0
  -27.3834  -12.4741   17.8183 H   0  0  0  0  0  0
  -27.6203  -14.2478   19.4495 H   0  0  0  0  0  0
  -28.7380  -12.2153   21.4440 H   0  0  0  0  0  0
  -28.3893  -13.8893   21.7951 H   0  0  0  0  0  0
  -25.2765   -9.5679   22.4761 H   0  0  0  0  0  0
  -23.9995   -7.4633   22.7474 H   0  0  0  0  0  0
  -21.0836   -8.8774   19.8950 H   0  0  0  0  0  0
  -22.3695  -10.9672   19.6169 H   0  0  0  0  0  0
  -21.1998   -7.6145   23.9708 H   0  0  0  0  0  0
  -21.1487   -6.0524   25.9078 H   0  0  0  0  0  0
  -22.0598   -2.7605   23.2847 H   0  0  0  0  0  0
  -22.4092  -11.9840   22.4796 H   0  0  0  0  0  0
  -21.1100  -13.1222   22.2689 H   0  0  0  0  0  0
  -24.6458  -15.8435   20.5182 H   0  0  0  0  0  0
  -26.2574  -15.6335   20.0610 H   0  0  0  0  0  0
  -26.7235  -32.5301   23.0994 H   0  0  0  0  0  0
  -24.9999  -33.9593   25.0281 H   0  0  0  0  0  0
  -22.7382  -31.2849   21.3811 H   0  0  0  0  0  0
  -23.3735  -35.9615   23.3286 H   0  0  0  0  0  0
  -24.3569  -36.8947   22.2070 H   0  0  0  0  0  0
  -23.7270  -37.6469   23.6700 H   0  0  0  0  0  0
  -26.1349  -31.4831   20.6075 H   0  0  0  0  0  0
  -26.8567  -30.7822   22.0226 H   0  0  0  0  0  0
  -28.0953  -28.8281   21.2763 H   0  0  0  0  0  0
  -25.9907  -25.8712   18.9509 H   0  0  0  0  0  0
  -23.9996  -27.2931   18.9506 H   0  0  0  0  0  0
  -23.7813  -30.5540   19.3904 H   0  0  0  0  0  0
  -22.7740  -29.2159   19.8550 H   0  0  0  0  0  0
  -25.1318  -36.1857   25.0798 H   0  0  0  0  0  0
  -20.9956  -28.3282   24.1363 H   0  0  0  0  0  0
  -20.5637  -26.2302   23.3613 H   0  0  0  0  0  0
  -21.6640  -26.7402   22.1221 H   0  0  0  0  0  0
  -19.6924  -25.6271   21.1234 H   0  0  0  0  0  0
  -19.6698  -27.3141   20.6690 H   0  0  0  0  0  0
  -17.4204  -26.6620   21.4001 H   0  0  0  0  0  0
  -18.0355  -26.0036   22.8984 H   0  0  0  0  0  0
  -19.7958  -30.7258   24.2205 H   0  0  0  0  0  0
  -17.5041  -31.6248   24.5164 H   0  0  0  0  0  0
  -15.5359  -30.2965   23.7690 H   0  0  0  0  0  0
  -15.8665  -28.0807   22.7079 H   0  0  0  0  0  0
  -24.5856  -30.7098   25.7732 H   0  0  0  0  0  0
  -24.8872  -32.2905   26.4813 H   0  0  0  0  0  0
  -25.7976  -30.8927   27.0209 H   0  0  0  0  0  0
  -26.3013  -29.6662   24.1302 H   0  0  0  0  0  0
  -27.4027  -29.7312   25.4876 H   0  0  0  0  0  0
  -27.8908  -30.4221   23.9589 H   0  0  0  0  0  0
  -27.2612  -33.3681   26.1983 H   0  0  0  0  0  0
  -28.3858  -32.6887   25.0319 H   0  0  0  0  0  0
  -28.0661  -31.8540   26.5460 H   0  0  0  0  0  0
  -28.2584  -38.0092   24.7531 H   0  0  0  0  0  0
  -28.1083  -36.2630   24.6263 H   0  0  0  0  0  0
  -27.2286  -37.1419   25.8859 H   0  0  0  0  0  0
  -20.9427  -29.8763   21.6827 H   0  0  0  0  0  0
  -26.0145  -38.2813   24.1408 H   0  0  0  0  0  0
  -29.4591  -19.8167   25.0278 H   0  0  0  0  0  0
  -29.0251  -22.9426   21.9106 H   0  0  0  0  0  0
  -27.2613  -22.7052   21.8659 H   0  0  0  0  0  0
  -28.9658  -21.7208   18.5712 H   0  0  0  0  0  0
  -30.1101  -22.3318   19.7870 H   0  0  0  0  0  0
  -27.5263  -20.7106   20.2962 H   0  0  0  0  0  0
  -27.1592  -20.2144   24.3841 H   0  0  0  0  0  0
  -26.7403  -20.7520   22.7842 H   0  0  0  0  0  0
  -27.7492  -21.7768   23.8528 H   0  0  0  0  0  0
  -31.4465  -18.8024   25.7110 H   0  0  0  0  0  0
  -32.7451  -18.9537   24.5362 H   0  0  0  0  0  0
  -31.9374  -17.3963   24.7767 H   0  0  0  0  0  0
  -33.0123  -17.9042   22.4108 H   0  0  0  0  0  0
  -32.2782  -17.4130   20.9202 H   0  0  0  0  0  0
  -31.9702  -16.4832   22.4010 H   0  0  0  0  0  0
  -26.2898  -22.2347   19.3056 H   0  0  0  0  0  0
  -26.6826  -23.5887   18.2799 H   0  0  0  0  0  0
  -25.9738  -23.8505   19.8728 H   0  0  0  0  0  0
  -30.5111  -17.6371   19.4797 H   0  0  0  0  0  0
  -28.8036  -17.6902   19.7357 H   0  0  0  0  0  0
  -28.3931  -25.1068   18.5848 H   0  0  0  0  0  0
  -29.6500  -24.8793   19.7031 H   0  0  0  0  0  0
  -28.8209  -15.7117   21.0241 H   0  0  0  0  0  0
  1 25  1  0  0  0
  1 30  2  0  0  0
  1 87  1  0  0  0
  2  3  1  0  0  0
  2 25  1  0  0  0
  2 88  1  0  0  0
  2 89  1  0  0  0
  3  4  1  0  0  0
  3 90  1  0  0  0
  3 91  1  0  0  0
  4  5  1  0  0  0
  4 92  1  0  0  0
  4 93  1  0  0  0
  5  6  1  0  0  0
  5 26  1  0  0  0
  5 94  1  0  0  0
  6 25  1  0  0  0
  6 95  1  0  0  0
  6 96  1  0  0  0
  7  8  2  0  0  0
  7 26  1  0  0  0
  7 29  1  0  0  0
  8  9  1  0  0  0
  8 22  1  0  0  0
  9 10  1  0  0  0
  9 27  2  0  0  0
 10 11  2  0  0  0
 10 15  1  0  0  0
 11 12  1  0  0  0
 11 97  1  0  0  0
 12 13  2  0  0  0
 12 98  1  0  0  0
 13 14  1  0  0  0
 13 31  1  0  0  0
 14 15  2  0  0  0
 14 99  1  0  0  0
 15100  1  0  0  0
 16 17  2  0  0  0
 16 21  1  0  0  0
 16 31  1  0  0  0
 17 18  1  0  0  0
 17101  1  0  0  0
 18 19  2  0  0  0
 18102  1  0  0  0
 19 20  1  0  0  0
 19 24  1  0  0  0
 20 21  2  0  0  0
 20103  1  0  0  0
 21 23  1  0  0  0
 22 28  1  0  0  0
 22 32  2  0  0  0
 26 27  1  0  0  0
 28104  1  0  0  0
 28105  1  0  0  0
 29106  1  0  0  0
 29107  1  0  0  0
 33 34  1  0  0  0
 33 66  1  0  0  0
 33 70  2  0  0  0
 34 36  1  0  0  0
 34 59  1  0  0  0
 34108  1  0  0  0
 35 44  2  0  0  0
 35 45  1  0  0  0
 35 68  1  0  0  0
 36 56  1  0  0  0
 36109  1  0  0  0
 37 39  1  0  0  0
 37 47  1  0  0  0
 37 66  1  0  0  0
 37110  1  0  0  0
 38 43  2  0  0  0
 38 46  1  0  0  0
 38 47  1  0  0  0
 39 64  1  0  0  0
 39 67  2  0  0  0
 40 52  1  0  0  0
 40 53  2  0  0  0
 40 58  1  0  0  0
 41111  1  0  0  0
 41112  1  0  0  0
 41113  1  0  0  0
 41 48  1  0  0  0
 42 43  1  0  0  0
 42 66  1  0  0  0
 42114  1  0  0  0
 42115  1  0  0  0
 43 44  1  0  0  0
 44116  1  0  0  0
 45 46  2  0  0  0
 45117  1  0  0  0
 46118  1  0  0  0
 47119  1  0  0  0
 47120  1  0  0  0
 48 56  1  0  0  0
 48 65  1  0  0  0
 48121  1  0  0  0
 49 50  1  0  0  0
 49 53  1  0  0  0
 49 64  1  0  0  0
 49122  1  0  0  0
 50 51  1  0  0  0
 50123  1  0  0  0
 50124  1  0  0  0
 51 52  1  0  0  0
 51125  1  0  0  0
 51126  1  0  0  0
 52127  1  0  0  0
 52128  1  0  0  0
 53 54  1  0  0  0
 54 55  2  0  0  0
 54129  1  0  0  0
 55 57  1  0  0  0
 55130  1  0  0  0
 56 69  2  0  0  0
 57 58  2  0  0  0
 57131  1  0  0  0
 58132  1  0  0  0
 59 60  1  0  0  0
 59 61  1  0  0  0
 59 62  1  0  0  0
 60133  1  0  0  0
 60134  1  0  0  0
 60135  1  0  0  0
 61136  1  0  0  0
 61137  1  0  0  0
 61138  1  0  0  0
 62139  1  0  0  0
 62140  1  0  0  0
 62141  1  0  0  0
 63 65  1  0  0  0
 63142  1  0  0  0
 63143  1  0  0  0
 63144  1  0  0  0
 64145  1  0  0  0
 65146  1  0  0  0
 68 86  1  0  0  0
 71 73  2  0  0  0
 71 74  1  0  0  0
 71147  1  0  0  0
 72 73  1  0  0  0
 72 75  2  0  0  0
 72 79  1  0  0  0
 73 81  1  0  0  0
 74 76  2  0  0  0
 74 82  1  0  0  0
 75 76  1  0  0  0
 75 85  1  0  0  0
 76 83  1  0  0  0
 77 79  1  0  0  0
 77 80  1  0  0  0
 77148  1  0  0  0
 77149  1  0  0  0
 78 79  1  0  0  0
 78 80  1  0  0  0
 78150  1  0  0  0
 78151  1  0  0  0
 79152  1  0  0  0
 80 84  1  0  0  0
 80 86  1  0  0  0
 81153  1  0  0  0
 81154  1  0  0  0
 81155  1  0  0  0
 82156  1  0  0  0
 82157  1  0  0  0
 82158  1  0  0  0
 83159  1  0  0  0
 83160  1  0  0  0
 83161  1  0  0  0
 84162  1  0  0  0
 84163  1  0  0  0
 84164  1  0  0  0
 85 87  1  0  0  0
 85165  1  0  0  0
 85166  1  0  0  0
 86167  1  0  0  0
 86168  1  0  0  0
 87169  1  0  0  0
M  ISO  4   1 100  68 101  86 101  87 100
M  END
> <chiral flag>
0

> <version>
0

> <s_m_source_file>
/data/baiqing/PycharmProjects/Reinvent-master-3.2/result/LINK_invent/BTK/process_docking_weight1_custom_sum_contain_oxygen_bond_distance_aromatic_linkinvent_7_9_3/rearranged_h_0175.sdf

> <i_m_source_file_index>
46

> <r_mmod_Potential_Energy-OPLS-2005>
548.491943359375

> <r_mmod_Stretch_Energy-OPLS-2005>
212.129837036133

> <r_mmod_Bend_Energy-OPLS-2005>
342.151580810547

> <r_mmod_Torsional_Energy-OPLS-2005>
330.436340332031

> <r_mmod_Improper_Torsional_Energy-OPLS-2005>
6.56904649734497

> <r_mmod_Van_der_Waal_Energy-OPLS-2005>
153.525512695312

> <r_mmod_Electrostatic_Energy-OPLS-2005>
-437.045379638672

> <r_mmod_Solvation_Energy-OPLS-2005>
-204.24919128418

> <b_mmod_Minimization_Converged-OPLS-2005>
0

> <r_mmod_RMS_Derivative-OPLS-2005>
2.14290833473206

$$$$
46
                    3D
 Structure written by MMmdl.
160170  0  0  1  0            999 V2000
  -30.5502  -14.9412   20.3844 C   0  0  0  0  0  0
  -30.4408  -12.5815   19.4795 C   0  0  0  0  0  0
  -29.5179  -12.5091   18.2421 C   0  0  0  0  0  0
  -28.0526  -12.2957   18.6697 C   0  0  0  0  0  0
  -27.6261  -13.2338   19.8303 C   0  0  2  0  0  0
  -28.6752  -13.2897   20.9586 C   0  0  0  0  0  0
  -25.2511  -13.8174   20.5729 C   0  0  0  0  0  0
  -24.1802  -13.0434   20.9222 C   0  0  0  0  0  0
  -24.6386  -11.6903   20.8761 C   0  0  0  0  0  0
  -23.9067  -10.4295   21.0415 C   0  0  0  0  0  0
  -24.3629   -9.4211   21.9184 C   0  0  0  0  0  0
  -23.6309   -8.2246   22.0758 C   0  0  0  0  0  0
  -22.4288   -8.0289   21.3550 C   0  0  0  0  0  0
  -21.9916   -9.0261   20.4651 C   0  0  0  0  0  0
  -22.7246  -10.2137   20.3058 C   0  0  0  0  0  0
  -21.6856   -6.0741   22.5275 C   0  0  0  0  0  0
  -21.4014   -6.5638   23.8210 C   0  0  0  0  0  0
  -21.3663   -5.6790   24.9170 C   0  0  0  0  0  0
  -21.6047   -4.3056   24.7217 C   0  0  0  0  0  0
  -21.8823   -3.8148   23.4336 C   0  0  0  0  0  0
  -21.9200   -4.6970   22.3394 C   0  0  0  0  0  0
  -22.7828  -13.5224   21.1872 C   0  0  0  0  0  0
  -22.1671   -4.2159   21.0972 F   0  0  0  0  0  0
  -21.5637   -3.4536   25.7725 F   0  0  0  0  0  0
  -29.9430  -13.6897   20.3375 N   0  0  0  0  0  0
  -26.2896  -12.9356   20.3257 N   0  0  0  0  0  0
  -25.9311  -11.6509   20.5747 N   0  0  0  0  0  0
  -22.0468  -12.8220   22.0416 N   0  0  0  0  0  0
  -25.4240  -15.1911   20.4188 N   0  0  0  0  0  0
  -31.7785  -14.9793   20.2488 O   0  0  0  0  0  0
  -21.6654   -6.8886   21.4237 O   0  0  0  0  0  0
  -22.3518  -14.5531   20.6707 O   0  0  0  0  0  0
  -24.6429  -31.8446   23.1884 C   0  0  0  0  0  0
  -25.9205  -32.4698   23.8279 C   0  0  1  0  0  0
  -27.2189  -27.1500   20.1555 C   0  0  0  0  0  0
  -25.5956  -33.8503   24.2202 N   0  0  0  0  0  0
  -23.4466  -30.4627   21.5349 C   0  0  2  0  0  0
  -24.8962  -28.8881   20.1172 C   0  0  0  0  0  0
  -22.7567  -29.4538   22.4871 C   0  0  0  0  0  0
  -18.0300  -28.1392   22.8466 C   0  0  0  0  0  0
  -24.1491  -36.7261   23.2641 C   0  0  0  0  0  0
  -26.0014  -30.7239   21.3838 C   0  0  0  0  0  0
  -26.0752  -29.3338   20.7305 C   0  0  0  0  0  0
  -27.2430  -28.4827   20.7279 C   0  0  0  0  0  0
  -26.0141  -26.7974   19.5146 C   0  0  0  0  0  0
  -24.8768  -27.6314   19.4935 C   0  0  0  0  0  0
  -23.6735  -29.7899   20.1556 C   0  0  0  0  0  0
  -25.4118  -36.3031   24.0318 C   0  0  1  0  0  0
  -20.5912  -28.3708   23.1237 C   0  0  2  0  0  0
  -20.6785  -26.9416   22.5397 C   0  0  0  0  0  0
  -19.5761  -26.6376   21.5206 C   0  0  0  0  0  0
  -18.1941  -26.7926   22.1617 C   0  0  0  0  0  0
  -19.1557  -28.8869   23.2843 C   0  0  0  0  0  0
  -18.9474  -30.1469   23.8865 C   0  0  0  0  0  0
  -17.6471  -30.6587   24.0554 C   0  0  0  0  0  0
  -25.9066  -34.9407   23.5065 C   0  0  0  0  0  0
  -16.5361  -29.9077   23.6340 C   0  0  0  0  0  0
  -16.7286  -28.6500   23.0349 C   0  0  0  0  0  0
  -26.4532  -31.6560   25.0715 C   0  0  0  0  0  0
  -25.3724  -31.3745   26.1418 C   0  0  0  0  0  0
  -27.0401  -30.2962   24.6276 C   0  0  0  0  0  0
  -27.6063  -32.4323   25.7495 C   0  0  0  0  0  0
  -27.5572  -37.1785   24.8465 C   0  0  0  0  0  0
  -21.4259  -29.3044   22.3625 N   0  0  0  0  0  0
  -26.4281  -37.3745   23.9409 N   0  0  0  0  0  0
  -24.7169  -31.0308   22.0916 N   0  0  0  0  0  0
  -23.4214  -28.8081   23.3016 O   0  0  0  0  0  0
  -28.2692  -26.1680   20.1421 O   0  0  0  0  0  0
  -26.5645  -34.8903   22.4638 O   0  0  0  0  0  0
  -23.5549  -32.1303   23.7122 O   0  0  0  0  0  0
  -28.5683  -21.1240   19.0073 C   0  0  0  0  0  0
  -28.5123  -23.2935   20.2422 C   0  0  0  0  0  0
  -28.2482  -22.5389   19.0626 C   0  0  0  0  0  0
  -29.1488  -20.3697   20.0898 C   0  0  0  0  0  0
  -29.0643  -22.4852   21.2635 C   0  0  0  0  0  0
  -29.1447  -23.2977   22.5333 C   0  0  0  0  0  0
  -28.7214  -24.7550   22.1496 C   0  0  0  0  0  0
  -28.8621  -17.9951   18.8459 C   0  0  0  0  0  0
  -29.3837  -16.5255   18.8827 C   0  0  0  0  0  0
  -29.8580  -17.5507   20.9126 C   0  0  0  0  0  0
  -28.0355  -24.7664   20.7555 C   0  0  1  0  0  0
  -29.6667  -18.8035   19.8689 C   0  0  2  0  0  0
  -27.6027  -23.2023   17.8623 C   0  0  0  0  0  0
  -29.4064  -21.1283   21.2154 N   0  0  0  0  0  0
  -29.7748  -16.1372   20.2535 N   0  0  0  0  0  0
  -31.4734  -12.7457   19.1666 H   0  0  0  0  0  0
  -30.4368  -11.6368   20.0253 H   0  0  0  0  0  0
  -29.8370  -11.7015   17.5814 H   0  0  0  0  0  0
  -29.6037  -13.4299   17.6637 H   0  0  0  0  0  0
  -27.9554  -11.2562   18.9859 H   0  0  0  0  0  0
  -27.3866  -12.4155   17.8143 H   0  0  0  0  0  0
  -27.5689  -14.2257   19.3915 H   0  0  0  0  0  0
  -28.7690  -12.3285   21.4659 H   0  0  0  0  0  0
  -28.3809  -14.0192   21.7146 H   0  0  0  0  0  0
  -25.2779   -9.5697   22.4749 H   0  0  0  0  0  0
  -24.0034   -7.4634   22.7462 H   0  0  0  0  0  0
  -21.0857   -8.8780   19.8942 H   0  0  0  0  0  0
  -22.3717  -10.9684   19.6170 H   0  0  0  0  0  0
  -21.1994   -7.6148   23.9714 H   0  0  0  0  0  0
  -21.1487   -6.0519   25.9074 H   0  0  0  0  0  0
  -22.0598   -2.7612   23.2829 H   0  0  0  0  0  0
  -22.4087  -11.9904   22.4847 H   0  0  0  0  0  0
  -21.1069  -13.1231   22.2558 H   0  0  0  0  0  0
  -24.6666  -15.8516   20.5518 H   0  0  0  0  0  0
  -26.2917  -15.6335   20.1428 H   0  0  0  0  0  0
  -26.7274  -32.5315   23.1014 H   0  0  0  0  0  0
  -25.0111  -33.9617   25.0353 H   0  0  0  0  0  0
  -22.7489  -31.2880   21.3784 H   0  0  0  0  0  0
  -23.3754  -35.9594   23.3286 H   0  0  0  0  0  0
  -24.3583  -36.8905   22.2061 H   0  0  0  0  0  0
  -23.7247  -37.6452   23.6686 H   0  0  0  0  0  0
  -26.1502  -31.4762   20.6079 H   0  0  0  0  0  0
  -26.8752  -30.7794   22.0220 H   0  0  0  0  0  0
  -28.1470  -28.8231   21.2128 H   0  0  0  0  0  0
  -25.9371  -25.8316   19.0372 H   0  0  0  0  0  0
  -23.9777  -27.2818   19.0051 H   0  0  0  0  0  0
  -23.8137  -30.5619   19.3983 H   0  0  0  0  0  0
  -22.7888  -29.2317   19.8438 H   0  0  0  0  0  0
  -25.1308  -36.1859   25.0812 H   0  0  0  0  0  0
  -20.9998  -28.3287   24.1360 H   0  0  0  0  0  0
  -20.5672  -26.2322   23.3610 H   0  0  0  0  0  0
  -21.6648  -26.7419   22.1197 H   0  0  0  0  0  0
  -19.6919  -25.6281   21.1246 H   0  0  0  0  0  0
  -19.6694  -27.3174   20.6726 H   0  0  0  0  0  0
  -17.4205  -26.6661   21.4024 H   0  0  0  0  0  0
  -18.0344  -26.0079   22.9026 H   0  0  0  0  0  0
  -19.7953  -30.7296   24.2210 H   0  0  0  0  0  0
  -17.5025  -31.6260   24.5164 H   0  0  0  0  0  0
  -15.5361  -30.2968   23.7684 H   0  0  0  0  0  0
  -15.8685  -28.0818   22.7071 H   0  0  0  0  0  0
  -24.5900  -30.7095   25.7742 H   0  0  0  0  0  0
  -24.8920  -32.2926   26.4804 H   0  0  0  0  0  0
  -25.8016  -30.8941   27.0218 H   0  0  0  0  0  0
  -26.3020  -29.6676   24.1282 H   0  0  0  0  0  0
  -27.4027  -29.7266   25.4840 H   0  0  0  0  0  0
  -27.8914  -30.4210   23.9585 H   0  0  0  0  0  0
  -27.2660  -33.3637   26.2029 H   0  0  0  0  0  0
  -28.3895  -32.6858   25.0340 H   0  0  0  0  0  0
  -28.0710  -31.8478   26.5443 H   0  0  0  0  0  0
  -28.2582  -38.0090   24.7512 H   0  0  0  0  0  0
  -28.1077  -36.2617   24.6289 H   0  0  0  0  0  0
  -27.2294  -37.1432   25.8870 H   0  0  0  0  0  0
  -20.9470  -29.8775   21.6819 H   0  0  0  0  0  0
  -26.0146  -38.2812   24.1416 H   0  0  0  0  0  0
  -28.3687  -20.6085   18.0779 H   0  0  0  0  0  0
  -30.1476  -23.2643   22.9594 H   0  0  0  0  0  0
  -28.4538  -22.8782   23.2648 H   0  0  0  0  0  0
  -29.6421  -25.3335   22.0631 H   0  0  0  0  0  0
  -28.1230  -25.2411   22.9197 H   0  0  0  0  0  0
  -27.8081  -18.0104   19.1274 H   0  0  0  0  0  0
  -28.9300  -18.4141   17.8418 H   0  0  0  0  0  0
  -28.6459  -15.8462   18.4616 H   0  0  0  0  0  0
  -30.2645  -16.4513   18.2408 H   0  0  0  0  0  0
  -29.0603  -17.5927   21.6545 H   0  0  0  0  0  0
  -30.7940  -17.6604   21.4614 H   0  0  0  0  0  0
  -26.9625  -24.6546   20.9138 H   0  0  0  0  0  0
  -30.6532  -18.9462   19.4271 H   0  0  0  0  0  0
  -28.2991  -23.2247   17.0247 H   0  0  0  0  0  0
  -27.3132  -24.2301   18.0774 H   0  0  0  0  0  0
  -26.7097  -22.6590   17.5520 H   0  0  0  0  0  0
  1 25  1  0  0  0
  1 30  2  0  0  0
  1 85  1  0  0  0
  2  3  1  0  0  0
  2 25  1  0  0  0
  2 86  1  0  0  0
  2 87  1  0  0  0
  3  4  1  0  0  0
  3 88  1  0  0  0
  3 89  1  0  0  0
  4  5  1  0  0  0
  4 90  1  0  0  0
  4 91  1  0  0  0
  5  6  1  0  0  0
  5 26  1  0  0  0
  5 92  1  0  0  0
  6 25  1  0  0  0
  6 93  1  0  0  0
  6 94  1  0  0  0
  7  8  2  0  0  0
  7 26  1  0  0  0
  7 29  1  0  0  0
  8  9  1  0  0  0
  8 22  1  0  0  0
  9 10  1  0  0  0
  9 27  2  0  0  0
 10 11  2  0  0  0
 10 15  1  0  0  0
 11 12  1  0  0  0
 11 95  1  0  0  0
 12 13  2  0  0  0
 12 96  1  0  0  0
 13 14  1  0  0  0
 13 31  1  0  0  0
 14 15  2  0  0  0
 14 97  1  0  0  0
 15 98  1  0  0  0
 16 17  2  0  0  0
 16 21  1  0  0  0
 16 31  1  0  0  0
 17 18  1  0  0  0
 17 99  1  0  0  0
 18 19  2  0  0  0
 18100  1  0  0  0
 19 20  1  0  0  0
 19 24  1  0  0  0
 20 21  2  0  0  0
 20101  1  0  0  0
 21 23  1  0  0  0
 22 28  1  0  0  0
 22 32  2  0  0  0
 26 27  1  0  0  0
 28102  1  0  0  0
 28103  1  0  0  0
 29104  1  0  0  0
 29105  1  0  0  0
 33 34  1  0  0  0
 33 66  1  0  0  0
 33 70  2  0  0  0
 34 36  1  0  0  0
 34 59  1  0  0  0
 34106  1  0  0  0
 35 44  2  0  0  0
 35 45  1  0  0  0
 35 68  1  0  0  0
 36 56  1  0  0  0
 36107  1  0  0  0
 37 39  1  0  0  0
 37 47  1  0  0  0
 37 66  1  0  0  0
 37108  1  0  0  0
 38 43  2  0  0  0
 38 46  1  0  0  0
 38 47  1  0  0  0
 39 64  1  0  0  0
 39 67  2  0  0  0
 40 52  1  0  0  0
 40 53  2  0  0  0
 40 58  1  0  0  0
 41109  1  0  0  0
 41110  1  0  0  0
 41111  1  0  0  0
 41 48  1  0  0  0
 42 43  1  0  0  0
 42 66  1  0  0  0
 42112  1  0  0  0
 42113  1  0  0  0
 43 44  1  0  0  0
 44114  1  0  0  0
 45 46  2  0  0  0
 45115  1  0  0  0
 46116  1  0  0  0
 47117  1  0  0  0
 47118  1  0  0  0
 48 56  1  0  0  0
 48 65  1  0  0  0
 48119  1  0  0  0
 49 50  1  0  0  0
 49 53  1  0  0  0
 49 64  1  0  0  0
 49120  1  0  0  0
 50 51  1  0  0  0
 50121  1  0  0  0
 50122  1  0  0  0
 51 52  1  0  0  0
 51123  1  0  0  0
 51124  1  0  0  0
 52125  1  0  0  0
 52126  1  0  0  0
 53 54  1  0  0  0
 54 55  2  0  0  0
 54127  1  0  0  0
 55 57  1  0  0  0
 55128  1  0  0  0
 56 69  2  0  0  0
 57 58  2  0  0  0
 57129  1  0  0  0
 58130  1  0  0  0
 59 60  1  0  0  0
 59 61  1  0  0  0
 59 62  1  0  0  0
 60131  1  0  0  0
 60132  1  0  0  0
 60133  1  0  0  0
 61134  1  0  0  0
 61135  1  0  0  0
 61136  1  0  0  0
 62137  1  0  0  0
 62138  1  0  0  0
 62139  1  0  0  0
 63 65  1  0  0  0
 63140  1  0  0  0
 63141  1  0  0  0
 63142  1  0  0  0
 64143  1  0  0  0
 65144  1  0  0  0
 68 81  1  0  0  0
 71 73  2  0  0  0
 71 74  1  0  0  0
 71145  1  0  0  0
 72 73  1  0  0  0
 72 75  2  0  0  0
 72 81  1  0  0  0
 73 83  1  0  0  0
 74 84  2  0  0  0
 74 82  1  0  0  0
 75 76  1  0  0  0
 75 84  1  0  0  0
 76 77  1  0  0  0
 76146  1  0  0  0
 76147  1  0  0  0
 77 81  1  0  0  0
 77148  1  0  0  0
 77149  1  0  0  0
 78 79  1  0  0  0
 78 82  1  0  0  0
 78150  1  0  0  0
 78151  1  0  0  0
 79 85  1  0  0  0
 79152  1  0  0  0
 79153  1  0  0  0
 80 82  1  0  0  0
 80 85  1  0  0  0
 80154  1  0  0  0
 80155  1  0  0  0
 81156  1  0  0  0
 82157  1  0  0  0
 83158  1  0  0  0
 83159  1  0  0  0
 83160  1  0  0  0
M  ISO  4   1 100  68 101  81 101  85 100
M  END
> <chiral flag>
0

> <version>
0

> <s_m_source_file>
/data/baiqing/PycharmProjects/Reinvent-master-3.2/result/LINK_invent/BTK/process_docking_weight1_custom_sum_contain_oxygen_bond_distance_aromatic_linkinvent_7_9_3/rearranged_h_0175.sdf

> <i_m_source_file_index>
47

> <r_mmod_Potential_Energy-OPLS-2005>
620.23828125

> <r_mmod_Stretch_Energy-OPLS-2005>
211.472229003906

> <r_mmod_Bend_Energy-OPLS-2005>
340.812744140625

> <r_mmod_Torsional_Energy-OPLS-2005>
383.684387207031

> <r_mmod_Improper_Torsional_Energy-OPLS-2005>
15.3875865936279

> <r_mmod_Van_der_Waal_Energy-OPLS-2005>
118.658058166504

> <r_mmod_Electrostatic_Energy-OPLS-2005>
-423.215301513672

> <r_mmod_Solvation_Energy-OPLS-2005>
-214.850357055664

> <b_mmod_Minimization_Converged-OPLS-2005>
0

> <r_mmod_RMS_Derivative-OPLS-2005>
1.3898321390152

$$$$
47
                    3D
 Structure written by MMmdl.
181191  0  0  1  0            999 V2000
  -30.7310  -14.3737   20.6854 C   0  0  0  0  0  0
  -30.4255  -12.2919   19.3897 C   0  0  0  0  0  0
  -29.4871  -12.5294   18.1908 C   0  0  0  0  0  0
  -28.0101  -12.3791   18.6069 C   0  0  0  0  0  0
  -27.6680  -13.1905   19.8826 C   0  0  2  0  0  0
  -28.7039  -12.9040   20.9908 C   0  0  0  0  0  0
  -25.2623  -13.8120   20.5661 C   0  0  0  0  0  0
  -24.1857  -13.0429   20.9173 C   0  0  0  0  0  0
  -24.6382  -11.6887   20.8732 C   0  0  0  0  0  0
  -23.9040  -10.4287   21.0412 C   0  0  0  0  0  0
  -24.3599   -9.4203   21.9186 C   0  0  0  0  0  0
  -23.6281   -8.2236   22.0752 C   0  0  0  0  0  0
  -22.4270   -8.0272   21.3544 C   0  0  0  0  0  0
  -21.9897   -9.0244   20.4643 C   0  0  0  0  0  0
  -22.7215  -10.2129   20.3053 C   0  0  0  0  0  0
  -21.6851   -6.0728   22.5275 C   0  0  0  0  0  0
  -21.4015   -6.5636   23.8212 C   0  0  0  0  0  0
  -21.3658   -5.6791   24.9171 C   0  0  0  0  0  0
  -21.6048   -4.3050   24.7224 C   0  0  0  0  0  0
  -21.8820   -3.8142   23.4346 C   0  0  0  0  0  0
  -21.9196   -4.6961   22.3400 C   0  0  0  0  0  0
  -22.7883  -13.5247   21.1845 C   0  0  0  0  0  0
  -22.1663   -4.2146   21.0981 F   0  0  0  0  0  0
  -21.5630   -3.4537   25.7739 F   0  0  0  0  0  0
  -30.0434  -13.2233   20.4602 N   0  0  0  0  0  0
  -26.3048  -12.9264   20.3376 N   0  0  0  0  0  0
  -25.9300  -11.6438   20.5746 N   0  0  0  0  0  0
  -22.0518  -12.8237   22.0390 N   0  0  0  0  0  0
  -25.4352  -15.1832   20.4014 N   0  0  0  0  0  0
  -31.7878  -14.6571   20.1092 O   0  0  0  0  0  0
  -21.6635   -6.8871   21.4237 O   0  0  0  0  0  0
  -22.3573  -14.5565   20.6701 O   0  0  0  0  0  0
  -24.6119  -31.8688   23.2125 C   0  0  0  0  0  0
  -25.9039  -32.4826   23.8402 C   0  0  1  0  0  0
  -27.2382  -27.4561   20.0766 C   0  0  0  0  0  0
  -25.5916  -33.8617   24.2338 N   0  0  0  0  0  0
  -23.3989  -30.4914   21.5540 C   0  0  2  0  0  0
  -24.8425  -28.9594   20.1195 C   0  0  0  0  0  0
  -22.7408  -29.4635   22.5012 C   0  0  0  0  0  0
  -18.0269  -28.1351   22.8476 C   0  0  0  0  0  0
  -24.1506  -36.7321   23.2642 C   0  0  0  0  0  0
  -25.9232  -30.8393   21.3616 C   0  0  0  0  0  0
  -26.0001  -29.4732   20.7133 C   0  0  0  0  0  0
  -27.1980  -28.7296   20.6874 C   0  0  0  0  0  0
  -26.0568  -26.9507   19.4812 C   0  0  0  0  0  0
  -24.8636  -27.6968   19.5058 C   0  0  0  0  0  0
  -23.6066  -29.8262   20.1685 C   0  0  0  0  0  0
  -25.4120  -36.3116   24.0346 C   0  0  1  0  0  0
  -20.5862  -28.3623   23.1328 C   0  0  2  0  0  0
  -20.6771  -26.9367   22.5410 C   0  0  0  0  0  0
  -19.5766  -26.6362   21.5195 C   0  0  0  0  0  0
  -18.1937  -26.7903   22.1598 C   0  0  0  0  0  0
  -19.1517  -28.8808   23.2889 C   0  0  0  0  0  0
  -18.9448  -30.1413   23.8891 C   0  0  0  0  0  0
  -17.6453  -30.6562   24.0545 C   0  0  0  0  0  0
  -25.9023  -34.9473   23.5134 C   0  0  0  0  0  0
  -16.5344  -29.9056   23.6319 C   0  0  0  0  0  0
  -16.7264  -28.6481   23.0325 C   0  0  0  0  0  0
  -26.4469  -31.6581   25.0699 C   0  0  0  0  0  0
  -25.3745  -31.3676   26.1460 C   0  0  0  0  0  0
  -27.0294  -30.3040   24.6007 C   0  0  0  0  0  0
  -27.6062  -32.4282   25.7463 C   0  0  0  0  0  0
  -27.5593  -37.1824   24.8463 C   0  0  0  0  0  0
  -21.4135  -29.3007   22.3757 N   0  0  0  0  0  0
  -26.4306  -37.3791   23.9409 N   0  0  0  0  0  0
  -24.6634  -31.0795   22.1024 N   0  0  0  0  0  0
  -23.4217  -28.8155   23.3007 O   0  0  0  0  0  0
  -28.4478  -26.7932   20.0539 O   0  0  0  0  0  0
  -26.5577  -34.8914   22.4685 O   0  0  0  0  0  0
  -23.5322  -32.1431   23.7536 O   0  0  0  0  0  0
  -29.1980  -20.4327   24.0528 C   0  0  0  0  0  0
  -29.5561  -19.2123   21.6413 C   0  0  0  0  0  0
  -29.4863  -18.3890   22.7840 C   0  0  0  0  0  0
  -29.3003  -19.0262   24.0417 C   0  0  0  0  0  0
  -29.2252  -21.1610   22.8527 C   0  0  0  0  0  0
  -28.9112  -23.2844   21.4370 C   0  0  0  0  0  0
  -29.1847  -16.1616   21.3229 C   0  0  0  0  0  0
  -30.9522  -16.1879   22.3922 C   0  0  0  0  0  0
  -26.9439  -24.2252   23.0622 C   0  0  0  0  0  0
  -29.6061  -16.8744   22.6029 C   0  0  0  0  0  0
  -29.0338  -22.6868   22.8588 C   0  0  1  0  0  0
  -27.8138  -23.1286   23.7298 C   0  0  1  0  0  0
  -28.7771  -24.8247   21.4507 C   0  0  1  0  0  0
  -28.1837  -23.4864   25.1913 C   0  0  0  0  0  0
  -27.8995  -18.6752   26.1274 C   0  0  0  0  0  0
  -30.4282  -18.5413   26.2540 C   0  0  0  0  0  0
  -28.2565  -26.3131   23.3685 C   0  0  0  0  0  0
  -28.4905  -25.3628   20.0327 C   0  0  0  0  0  0
  -29.1907  -18.2920   25.3822 C   0  0  0  0  0  0
  -29.4150  -20.5515   21.6641 N   0  0  0  0  0  0
  -30.2102  -15.1610   21.6450 N   0  0  0  0  0  0
  -27.7385  -25.3025   22.4143 N   0  3  2  0  0  0
  -31.4673  -12.4114   19.0854 H   0  0  0  0  0  0
  -30.3363  -11.2637   19.7457 H   0  0  0  0  0  0
  -29.7214  -11.8320   17.3851 H   0  0  0  0  0  0
  -29.6528  -13.5292   17.7867 H   0  0  0  0  0  0
  -27.8179  -11.3196   18.7793 H   0  0  0  0  0  0
  -27.3562  -12.6762   17.7862 H   0  0  0  0  0  0
  -27.7325  -14.2456   19.6176 H   0  0  0  0  0  0
  -28.6723  -11.8496   21.2694 H   0  0  0  0  0  0
  -28.4526  -13.4414   21.9057 H   0  0  0  0  0  0
  -25.2743   -9.5692   22.4757 H   0  0  0  0  0  0
  -23.9999   -7.4632   22.7471 H   0  0  0  0  0  0
  -21.0828   -8.8753   19.8944 H   0  0  0  0  0  0
  -22.3667  -10.9668   19.6161 H   0  0  0  0  0  0
  -21.1999   -7.6146   23.9713 H   0  0  0  0  0  0
  -21.1483   -6.0521   25.9079 H   0  0  0  0  0  0
  -22.0602   -2.7606   23.2846 H   0  0  0  0  0  0
  -22.4115  -11.9883   22.4766 H   0  0  0  0  0  0
  -21.1139  -13.1270   22.2598 H   0  0  0  0  0  0
  -24.6690  -15.8397   20.5028 H   0  0  0  0  0  0
  -26.2788  -15.6120   20.0439 H   0  0  0  0  0  0
  -26.7089  -32.5549   23.1153 H   0  0  0  0  0  0
  -25.0124  -33.9775   25.0525 H   0  0  0  0  0  0
  -22.6871  -31.3075   21.4168 H   0  0  0  0  0  0
  -23.3763  -35.9665   23.3305 H   0  0  0  0  0  0
  -24.3597  -36.8917   22.2051 H   0  0  0  0  0  0
  -23.7265  -37.6531   23.6639 H   0  0  0  0  0  0
  -26.0284  -31.6053   20.5923 H   0  0  0  0  0  0
  -26.8141  -30.8946   21.9747 H   0  0  0  0  0  0
  -28.0977  -29.1328   21.1329 H   0  0  0  0  0  0
  -26.0296  -26.0092   18.9546 H   0  0  0  0  0  0
  -23.9750  -27.3028   19.0344 H   0  0  0  0  0  0
  -23.7169  -30.6010   19.4069 H   0  0  0  0  0  0
  -22.7322  -29.2418   19.8726 H   0  0  0  0  0  0
  -25.1299  -36.1985   25.0838 H   0  0  0  0  0  0
  -20.9927  -28.3160   24.1453 H   0  0  0  0  0  0
  -20.5687  -26.2203   23.3579 H   0  0  0  0  0  0
  -21.6639  -26.7427   22.1195 H   0  0  0  0  0  0
  -19.6925  -25.6277   21.1202 H   0  0  0  0  0  0
  -19.6716  -27.3178   20.6743 H   0  0  0  0  0  0
  -17.4211  -26.6637   21.3995 H   0  0  0  0  0  0
  -18.0335  -26.0026   22.8972 H   0  0  0  0  0  0
  -19.7929  -30.7222   24.2251 H   0  0  0  0  0  0
  -17.5013  -31.6247   24.5144 H   0  0  0  0  0  0
  -15.5345  -30.2948   23.7661 H   0  0  0  0  0  0
  -15.8669  -28.0821   22.7021 H   0  0  0  0  0  0
  -24.5906  -30.7031   25.7802 H   0  0  0  0  0  0
  -24.8953  -32.2832   26.4935 H   0  0  0  0  0  0
  -25.8112  -30.8827   27.0201 H   0  0  0  0  0  0
  -26.2808  -29.6800   24.1112 H   0  0  0  0  0  0
  -27.4155  -29.7264   25.4413 H   0  0  0  0  0  0
  -27.8605  -30.4399   23.9090 H   0  0  0  0  0  0
  -27.2701  -33.3578   26.2072 H   0  0  0  0  0  0
  -28.3873  -32.6828   25.0286 H   0  0  0  0  0  0
  -28.0718  -31.8363   26.5347 H   0  0  0  0  0  0
  -28.2611  -38.0119   24.7505 H   0  0  0  0  0  0
  -28.1087  -36.2649   24.6308 H   0  0  0  0  0  0
  -27.2294  -37.1485   25.8857 H   0  0  0  0  0  0
  -20.9290  -29.8763   21.7014 H   0  0  0  0  0  0
  -26.0206  -38.2877   24.1386 H   0  0  0  0  0  0
  -29.0744  -20.9542   24.9889 H   0  0  0  0  0  0
  -29.7188  -18.7967   20.6590 H   0  0  0  0  0  0
  -28.0622  -22.8325   20.9201 H   0  0  0  0  0  0
  -29.7929  -23.0217   20.8523 H   0  0  0  0  0  0
  -29.3821  -16.6909   20.3890 H   0  0  0  0  0  0
  -28.1545  -15.8069   21.3596 H   0  0  0  0  0  0
  -31.4170  -15.8441   23.3179 H   0  0  0  0  0  0
  -31.6553  -16.7603   21.7824 H   0  0  0  0  0  0
  -26.2272  -24.6435   23.7689 H   0  0  0  0  0  0
  -26.3263  -23.7674   22.2879 H   0  0  0  0  0  0
  -29.0530  -16.3752   23.3967 H   0  0  0  0  0  0
  -29.9473  -23.1042   23.2859 H   0  0  0  0  0  0
  -27.1369  -22.2740   23.7910 H   0  0  0  0  0  0
  -29.7494  -25.2171   21.7543 H   0  0  0  0  0  0
  -29.2575  -23.4596   25.3750 H   0  0  0  0  0  0
  -27.7239  -22.7823   25.8872 H   0  0  0  0  0  0
  -27.8337  -24.4762   25.4827 H   0  0  0  0  0  0
  -27.0248  -18.5059   25.4991 H   0  0  0  0  0  0
  -27.8885  -19.7229   26.4286 H   0  0  0  0  0  0
  -27.7758  -18.0770   27.0300 H   0  0  0  0  0  0
  -31.3303  -18.1905   25.7517 H   0  0  0  0  0  0
  -30.3509  -18.0058   27.2009 H   0  0  0  0  0  0
  -30.5579  -19.6005   26.4770 H   0  0  0  0  0  0
  -27.4628  -26.6966   24.0102 H   0  0  0  0  0  0
  -28.6785  -27.1613   22.8314 H   0  0  0  0  0  0
  -29.0427  -25.9034   24.0026 H   0  0  0  0  0  0
  -27.6116  -24.8788   19.6159 H   0  0  0  0  0  0
  -29.3088  -25.0780   19.3709 H   0  0  0  0  0  0
  -29.1408  -17.2171   25.2393 H   0  0  0  0  0  0
  -27.0713  -25.8210   21.8580 H   0  0  0  0  0  0
  1 25  1  0  0  0
  1 30  2  0  0  0
  1 91  1  0  0  0
  2  3  1  0  0  0
  2 25  1  0  0  0
  2 93  1  0  0  0
  2 94  1  0  0  0
  3  4  1  0  0  0
  3 95  1  0  0  0
  3 96  1  0  0  0
  4  5  1  0  0  0
  4 97  1  0  0  0
  4 98  1  0  0  0
  5  6  1  0  0  0
  5 26  1  0  0  0
  5 99  1  0  0  0
  6 25  1  0  0  0
  6100  1  0  0  0
  6101  1  0  0  0
  7  8  2  0  0  0
  7 26  1  0  0  0
  7 29  1  0  0  0
  8  9  1  0  0  0
  8 22  1  0  0  0
  9 10  1  0  0  0
  9 27  2  0  0  0
 10 11  2  0  0  0
 10 15  1  0  0  0
 11 12  1  0  0  0
 11102  1  0  0  0
 12 13  2  0  0  0
 12103  1  0  0  0
 13 14  1  0  0  0
 13 31  1  0  0  0
 14 15  2  0  0  0
 14104  1  0  0  0
 15105  1  0  0  0
 16 17  2  0  0  0
 16 21  1  0  0  0
 16 31  1  0  0  0
 17 18  1  0  0  0
 17106  1  0  0  0
 18 19  2  0  0  0
 18107  1  0  0  0
 19 20  1  0  0  0
 19 24  1  0  0  0
 20 21  2  0  0  0
 20108  1  0  0  0
 21 23  1  0  0  0
 22 28  1  0  0  0
 22 32  2  0  0  0
 26 27  1  0  0  0
 28109  1  0  0  0
 28110  1  0  0  0
 29111  1  0  0  0
 29112  1  0  0  0
 33 34  1  0  0  0
 33 66  1  0  0  0
 33 70  2  0  0  0
 34 36  1  0  0  0
 34 59  1  0  0  0
 34113  1  0  0  0
 35 44  2  0  0  0
 35 45  1  0  0  0
 35 68  1  0  0  0
 36 56  1  0  0  0
 36114  1  0  0  0
 37 39  1  0  0  0
 37 47  1  0  0  0
 37 66  1  0  0  0
 37115  1  0  0  0
 38 43  2  0  0  0
 38 46  1  0  0  0
 38 47  1  0  0  0
 39 64  1  0  0  0
 39 67  2  0  0  0
 40 52  1  0  0  0
 40 53  2  0  0  0
 40 58  1  0  0  0
 41116  1  0  0  0
 41117  1  0  0  0
 41118  1  0  0  0
 41 48  1  0  0  0
 42 43  1  0  0  0
 42 66  1  0  0  0
 42119  1  0  0  0
 42120  1  0  0  0
 43 44  1  0  0  0
 44121  1  0  0  0
 45 46  2  0  0  0
 45122  1  0  0  0
 46123  1  0  0  0
 47124  1  0  0  0
 47125  1  0  0  0
 48 56  1  0  0  0
 48 65  1  0  0  0
 48126  1  0  0  0
 49 50  1  0  0  0
 49 53  1  0  0  0
 49 64  1  0  0  0
 49127  1  0  0  0
 50 51  1  0  0  0
 50128  1  0  0  0
 50129  1  0  0  0
 51 52  1  0  0  0
 51130  1  0  0  0
 51131  1  0  0  0
 52132  1  0  0  0
 52133  1  0  0  0
 53 54  1  0  0  0
 54 55  2  0  0  0
 54134  1  0  0  0
 55 57  1  0  0  0
 55135  1  0  0  0
 56 69  2  0  0  0
 57 58  2  0  0  0
 57136  1  0  0  0
 58137  1  0  0  0
 59 60  1  0  0  0
 59 61  1  0  0  0
 59 62  1  0  0  0
 60138  1  0  0  0
 60139  1  0  0  0
 60140  1  0  0  0
 61141  1  0  0  0
 61142  1  0  0  0
 61143  1  0  0  0
 62144  1  0  0  0
 62145  1  0  0  0
 62146  1  0  0  0
 63 65  1  0  0  0
 63147  1  0  0  0
 63148  1  0  0  0
 63149  1  0  0  0
 64150  1  0  0  0
 65151  1  0  0  0
 68 88  1  0  0  0
 71 74  2  0  0  0
 71 75  1  0  0  0
 71152  1  0  0  0
 72 73  2  0  0  0
 72 90  1  0  0  0
 72153  1  0  0  0
 73 74  1  0  0  0
 73 80  1  0  0  0
 74 89  1  0  0  0
 75 90  2  0  0  0
 75 81  1  0  0  0
 76 81  1  0  0  0
 76 83  1  0  0  0
 76154  1  0  0  0
 76155  1  0  0  0
 77 80  1  0  0  0
 77 91  1  0  0  0
 77156  1  0  0  0
 77157  1  0  0  0
 78 80  1  0  0  0
 78 91  1  0  0  0
 78158  1  0  0  0
 78159  1  0  0  0
 79 82  1  0  0  0
 79 92  1  0  0  0
 79160  1  0  0  0
 79161  1  0  0  0
 80162  1  0  0  0
 81 82  1  0  0  0
 81163  1  0  0  0
 82 84  1  0  0  0
 82164  1  0  0  0
 83 88  1  0  0  0
 83 92  1  0  0  0
 83165  1  0  0  0
 84166  1  0  0  0
 84167  1  0  0  0
 84168  1  0  0  0
 85169  1  0  0  0
 85170  1  0  0  0
 85171  1  0  0  0
 85 89  1  0  0  0
 86 89  1  0  0  0
 86172  1  0  0  0
 86173  1  0  0  0
 86174  1  0  0  0
 87175  1  0  0  0
 87176  1  0  0  0
 87177  1  0  0  0
 87 92  1  0  0  0
 88178  1  0  0  0
 88179  1  0  0  0
 89180  1  0  0  0
 92181  1  0  0  0
M  CHG  1  92   1
M  ISO  4   1 100  68 101  88 101  91 100
M  END
> <chiral flag>
0

> <version>
0

> <s_m_source_file>
/data/baiqing/PycharmProjects/Reinvent-master-3.2/result/LINK_invent/BTK/process_docking_weight1_custom_sum_contain_oxygen_bond_distance_aromatic_linkinvent_7_9_3/rearranged_h_0175.sdf

> <i_m_source_file_index>
48

> <r_mmod_Potential_Energy-OPLS-2005>
-120.408142089844

> <r_mmod_Stretch_Energy-OPLS-2005>
39.823616027832

> <r_mmod_Bend_Energy-OPLS-2005>
126.01301574707

> <r_mmod_Torsional_Energy-OPLS-2005>
347.426666259766

> <r_mmod_Improper_Torsional_Energy-OPLS-2005>
9.27199268341064

> <r_mmod_Van_der_Waal_Energy-OPLS-2005>
175.014144897461

> <r_mmod_Electrostatic_Energy-OPLS-2005>
-428.896026611328

> <r_mmod_Solvation_Energy-OPLS-2005>
-397.347076416016

> <b_mmod_Minimization_Converged-OPLS-2005>
0

> <r_mmod_RMS_Derivative-OPLS-2005>
2.31417942047119

$$$$
48
                    3D
 Structure written by MMmdl.
172182  0  0  1  0            999 V2000
  -30.7138  -14.4593   20.5780 C   0  0  0  0  0  0
  -30.4170  -12.3049   19.4160 C   0  0  0  0  0  0
  -29.4894  -12.4993   18.2004 C   0  0  0  0  0  0
  -28.0151  -12.3320   18.6223 C   0  0  0  0  0  0
  -27.6511  -13.1885   19.8632 C   0  0  2  0  0  0
  -28.6939  -12.9987   20.9887 C   0  0  0  0  0  0
  -25.2545  -13.8094   20.5677 C   0  0  0  0  0  0
  -24.1796  -13.0389   20.9184 C   0  0  0  0  0  0
  -24.6337  -11.6855   20.8737 C   0  0  0  0  0  0
  -23.9002  -10.4265   21.0406 C   0  0  0  0  0  0
  -24.3573   -9.4191   21.9189 C   0  0  0  0  0  0
  -23.6253   -8.2226   22.0758 C   0  0  0  0  0  0
  -22.4238   -8.0260   21.3543 C   0  0  0  0  0  0
  -21.9857   -9.0236   20.4650 C   0  0  0  0  0  0
  -22.7179  -10.2115   20.3054 C   0  0  0  0  0  0
  -21.6838   -6.0716   22.5274 C   0  0  0  0  0  0
  -21.4031   -6.5622   23.8213 C   0  0  0  0  0  0
  -21.3669   -5.6772   24.9171 C   0  0  0  0  0  0
  -21.6036   -4.3035   24.7219 C   0  0  0  0  0  0
  -21.8813   -3.8125   23.4341 C   0  0  0  0  0  0
  -21.9184   -4.6942   22.3397 C   0  0  0  0  0  0
  -22.7819  -13.5223   21.1836 C   0  0  0  0  0  0
  -22.1644   -4.2128   21.0972 F   0  0  0  0  0  0
  -21.5627   -3.4526   25.7735 F   0  0  0  0  0  0
  -30.0247  -13.2956   20.4297 N   0  0  0  0  0  0
  -26.2947  -12.9227   20.3300 N   0  0  0  0  0  0
  -25.9244  -11.6406   20.5713 N   0  0  0  0  0  0
  -22.0443  -12.8266   22.0409 N   0  0  0  0  0  0
  -25.4227  -15.1815   20.4102 N   0  0  0  0  0  0
  -31.8444  -14.6352   20.1162 O   0  0  0  0  0  0
  -21.6612   -6.8855   21.4235 O   0  0  0  0  0  0
  -22.3513  -14.5538   20.6681 O   0  0  0  0  0  0
  -24.6092  -31.8683   23.2133 C   0  0  0  0  0  0
  -25.8994  -32.4830   23.8408 C   0  0  1  0  0  0
  -27.2443  -27.4549   20.1085 C   0  0  0  0  0  0
  -25.5847  -33.8631   24.2335 N   0  0  0  0  0  0
  -23.3982  -30.4913   21.5500 C   0  0  2  0  0  0
  -24.8512  -28.9594   20.1170 C   0  0  0  0  0  0
  -22.7378  -29.4644   22.4979 C   0  0  0  0  0  0
  -18.0266  -28.1383   22.8517 C   0  0  0  0  0  0
  -24.1469  -36.7335   23.2648 C   0  0  0  0  0  0
  -25.9236  -30.8434   21.3602 C   0  0  0  0  0  0
  -26.0065  -29.4753   20.7194 C   0  0  0  0  0  0
  -27.2051  -28.7311   20.7171 C   0  0  0  0  0  0
  -26.0806  -26.9557   19.4893 C   0  0  0  0  0  0
  -24.8828  -27.6949   19.5005 C   0  0  0  0  0  0
  -23.6093  -29.8211   20.1657 C   0  0  0  0  0  0
  -25.4089  -36.3123   24.0343 C   0  0  1  0  0  0
  -20.5853  -28.3661   23.1339 C   0  0  2  0  0  0
  -20.6740  -26.9392   22.5440 C   0  0  0  0  0  0
  -19.5724  -26.6397   21.5219 C   0  0  0  0  0  0
  -18.1904  -26.7944   22.1632 C   0  0  0  0  0  0
  -19.1516  -28.8847   23.2930 C   0  0  0  0  0  0
  -18.9447  -30.1458   23.8918 C   0  0  0  0  0  0
  -17.6441  -30.6589   24.0598 C   0  0  0  0  0  0
  -25.9026  -34.9483   23.5149 C   0  0  0  0  0  0
  -16.5338  -29.9095   23.6345 C   0  0  0  0  0  0
  -16.7255  -28.6522   23.0357 C   0  0  0  0  0  0
  -26.4471  -31.6603   25.0713 C   0  0  0  0  0  0
  -25.3780  -31.3673   26.1496 C   0  0  0  0  0  0
  -27.0295  -30.3049   24.6061 C   0  0  0  0  0  0
  -27.6081  -32.4319   25.7425 C   0  0  0  0  0  0
  -27.5571  -37.1810   24.8466 C   0  0  0  0  0  0
  -21.4111  -29.3014   22.3715 N   0  0  0  0  0  0
  -26.4278  -37.3804   23.9426 N   0  0  0  0  0  0
  -24.6624  -31.0811   22.1001 N   0  0  0  0  0  0
  -23.4174  -28.8176   23.2996 O   0  0  0  0  0  0
  -28.3880  -26.6914   20.0720 O   0  0  0  0  0  0
  -26.5618  -34.8931   22.4727 O   0  0  0  0  0  0
  -23.5296  -32.1402   23.7543 O   0  0  0  0  0  0
  -30.5617  -20.6293   21.4067 C   0  0  0  0  0  0
  -32.5568  -19.9141   20.2327 C   0  0  0  0  0  0
  -31.3339  -19.5824   20.8504 C   0  0  0  0  0  0
  -31.0722  -21.9483   21.3693 C   0  0  0  0  0  0
  -32.3334  -22.1506   20.7701 C   0  0  0  0  0  0
  -33.0145  -23.4925   20.9302 C   0  0  0  0  0  0
  -32.8459  -23.9376   22.3879 C   0  0  0  0  0  0
  -31.3617  -24.0622   22.8014 C   0  0  0  0  0  0
  -30.8958  -17.5782   22.3760 C   0  0  0  0  0  0
  -29.5591  -17.8114   20.3041 C   0  0  0  0  0  0
  -30.6551  -16.0495   22.4360 C   0  0  0  0  0  0
  -29.1346  -16.3270   20.4476 C   0  0  0  0  0  0
  -30.9201  -18.1119   20.9372 C   0  0  0  0  0  0
  -30.3582  -23.1233   22.0579 C   0  0  1  0  0  0
  -28.5818  -24.8911   21.7226 C   0  0  0  0  0  0
  -28.9439  -26.3475   21.3461 C   0  0  0  0  0  0
  -33.0525  -21.1666   20.1936 N   0  0  0  0  0  0
  -30.0640  -15.4653   21.2171 N   0  0  0  0  0  0
  -29.4874  -23.8764   21.1091 N   0  3  0  0  0  0
  -31.4648  -12.3923   19.1207 H   0  0  0  0  0  0
  -30.3067  -11.2990   19.8221 H   0  0  0  0  0  0
  -29.7433  -11.7914   17.4105 H   0  0  0  0  0  0
  -29.6399  -13.4907   17.7719 H   0  0  0  0  0  0
  -27.8537  -11.2756   18.8456 H   0  0  0  0  0  0
  -27.3541  -12.5707   17.7897 H   0  0  0  0  0  0
  -27.6737  -14.2223   19.5306 H   0  0  0  0  0  0
  -28.6702  -11.9721   21.3612 H   0  0  0  0  0  0
  -28.4512  -13.6281   21.8470 H   0  0  0  0  0  0
  -25.2721   -9.5658   22.4755 H   0  0  0  0  0  0
  -23.9959   -7.4599   22.7469 H   0  0  0  0  0  0
  -21.0789   -8.8760   19.8951 H   0  0  0  0  0  0
  -22.3653  -10.9657   19.6157 H   0  0  0  0  0  0
  -21.2066   -7.6137   23.9717 H   0  0  0  0  0  0
  -21.1488   -6.0503   25.9076 H   0  0  0  0  0  0
  -22.0590   -2.7586   23.2839 H   0  0  0  0  0  0
  -22.4021  -11.9969   22.4898 H   0  0  0  0  0  0
  -21.1061  -13.1324   22.2582 H   0  0  0  0  0  0
  -24.6552  -15.8327   20.5380 H   0  0  0  0  0  0
  -26.2670  -15.6275   20.0776 H   0  0  0  0  0  0
  -26.7056  -32.5580   23.1172 H   0  0  0  0  0  0
  -24.9919  -33.9789   25.0422 H   0  0  0  0  0  0
  -22.6850  -31.3057   21.4082 H   0  0  0  0  0  0
  -23.3704  -35.9693   23.3339 H   0  0  0  0  0  0
  -24.3546  -36.8939   22.2054 H   0  0  0  0  0  0
  -23.7244  -37.6555   23.6661 H   0  0  0  0  0  0
  -26.0212  -31.5998   20.5800 H   0  0  0  0  0  0
  -26.8167  -30.9107   21.9703 H   0  0  0  0  0  0
  -28.0979  -29.1401   21.1709 H   0  0  0  0  0  0
  -26.1033  -25.9860   19.0107 H   0  0  0  0  0  0
  -23.9959  -27.2939   19.0268 H   0  0  0  0  0  0
  -23.7142  -30.5931   19.4034 H   0  0  0  0  0  0
  -22.7357  -29.2363   19.8714 H   0  0  0  0  0  0
  -25.1245  -36.1989   25.0830 H   0  0  0  0  0  0
  -20.9984  -28.3243   24.1446 H   0  0  0  0  0  0
  -20.5619  -26.2254   23.3621 H   0  0  0  0  0  0
  -21.6615  -26.7411   22.1244 H   0  0  0  0  0  0
  -19.6871  -25.6316   21.1225 H   0  0  0  0  0  0
  -19.6675  -27.3232   20.6775 H   0  0  0  0  0  0
  -17.4171  -26.6741   21.4033 H   0  0  0  0  0  0
  -18.0287  -26.0055   22.8994 H   0  0  0  0  0  0
  -19.7913  -30.7300   24.2273 H   0  0  0  0  0  0
  -17.4991  -31.6266   24.5208 H   0  0  0  0  0  0
  -15.5342  -30.3007   23.7660 H   0  0  0  0  0  0
  -15.8656  -28.0861   22.7043 H   0  0  0  0  0  0
  -24.5961  -30.6998   25.7859 H   0  0  0  0  0  0
  -24.8939  -32.2795   26.4990 H   0  0  0  0  0  0
  -25.8176  -30.8833   27.0226 H   0  0  0  0  0  0
  -26.2794  -29.6760   24.1250 H   0  0  0  0  0  0
  -27.4213  -29.7341   25.4491 H   0  0  0  0  0  0
  -27.8574  -30.4363   23.9090 H   0  0  0  0  0  0
  -27.2743  -33.3614   26.2048 H   0  0  0  0  0  0
  -28.3843  -32.6895   25.0206 H   0  0  0  0  0  0
  -28.0817  -31.8420   26.5282 H   0  0  0  0  0  0
  -28.2618  -38.0081   24.7488 H   0  0  0  0  0  0
  -28.1036  -36.2614   24.6302 H   0  0  0  0  0  0
  -27.2308  -37.1495   25.8878 H   0  0  0  0  0  0
  -20.9238  -29.8716   21.6934 H   0  0  0  0  0  0
  -26.0166  -38.2888   24.1417 H   0  0  0  0  0  0
  -29.6210  -20.4189   21.8940 H   0  0  0  0  0  0
  -33.1755  -19.1492   19.7840 H   0  0  0  0  0  0
  -32.5810  -24.2169   20.2403 H   0  0  0  0  0  0
  -34.0745  -23.4140   20.6835 H   0  0  0  0  0  0
  -33.3756  -24.8725   22.5756 H   0  0  0  0  0  0
  -33.3271  -23.1896   23.0203 H   0  0  0  0  0  0
  -31.0569  -25.1047   22.7420 H   0  0  0  0  0  0
  -31.3071  -23.8357   23.8673 H   0  0  0  0  0  0
  -31.8346  -17.8103   22.8812 H   0  0  0  0  0  0
  -30.1139  -18.0913   22.9397 H   0  0  0  0  0  0
  -28.7906  -18.4309   20.7704 H   0  0  0  0  0  0
  -29.5698  -18.0950   19.2496 H   0  0  0  0  0  0
  -30.0013  -15.8125   23.2767 H   0  0  0  0  0  0
  -31.6042  -15.5598   22.6656 H   0  0  0  0  0  0
  -29.0035  -15.9329   19.4375 H   0  0  0  0  0  0
  -28.1493  -16.2716   20.9132 H   0  0  0  0  0  0
  -31.6715  -17.5403   20.3865 H   0  0  0  0  0  0
  -29.6921  -22.6907   22.8069 H   0  0  0  0  0  0
  -27.5536  -24.6824   21.4276 H   0  0  0  0  0  0
  -28.5983  -24.7897   22.8088 H   0  0  0  0  0  0
  -30.0224  -26.5005   21.3143 H   0  0  0  0  0  0
  -28.5783  -27.0041   22.1379 H   0  0  0  0  0  0
  -28.8936  -23.2006   20.6517 H   0  0  0  0  0  0
  -30.0343  -24.3097   20.3822 H   0  0  0  0  0  0
  1 25  1  0  0  0
  1 30  2  0  0  0
  1 88  1  0  0  0
  2  3  1  0  0  0
  2 25  1  0  0  0
  2 90  1  0  0  0
  2 91  1  0  0  0
  3  4  1  0  0  0
  3 92  1  0  0  0
  3 93  1  0  0  0
  4  5  1  0  0  0
  4 94  1  0  0  0
  4 95  1  0  0  0
  5  6  1  0  0  0
  5 26  1  0  0  0
  5 96  1  0  0  0
  6 25  1  0  0  0
  6 97  1  0  0  0
  6 98  1  0  0  0
  7  8  2  0  0  0
  7 26  1  0  0  0
  7 29  1  0  0  0
  8  9  1  0  0  0
  8 22  1  0  0  0
  9 10  1  0  0  0
  9 27  2  0  0  0
 10 11  2  0  0  0
 10 15  1  0  0  0
 11 12  1  0  0  0
 11 99  1  0  0  0
 12 13  2  0  0  0
 12100  1  0  0  0
 13 14  1  0  0  0
 13 31  1  0  0  0
 14 15  2  0  0  0
 14101  1  0  0  0
 15102  1  0  0  0
 16 17  2  0  0  0
 16 21  1  0  0  0
 16 31  1  0  0  0
 17 18  1  0  0  0
 17103  1  0  0  0
 18 19  2  0  0  0
 18104  1  0  0  0
 19 20  1  0  0  0
 19 24  1  0  0  0
 20 21  2  0  0  0
 20105  1  0  0  0
 21 23  1  0  0  0
 22 28  1  0  0  0
 22 32  2  0  0  0
 26 27  1  0  0  0
 28106  1  0  0  0
 28107  1  0  0  0
 29108  1  0  0  0
 29109  1  0  0  0
 33 34  1  0  0  0
 33 66  1  0  0  0
 33 70  2  0  0  0
 34 36  1  0  0  0
 34 59  1  0  0  0
 34110  1  0  0  0
 35 44  2  0  0  0
 35 45  1  0  0  0
 35 68  1  0  0  0
 36 56  1  0  0  0
 36111  1  0  0  0
 37 39  1  0  0  0
 37 47  1  0  0  0
 37 66  1  0  0  0
 37112  1  0  0  0
 38 43  2  0  0  0
 38 46  1  0  0  0
 38 47  1  0  0  0
 39 64  1  0  0  0
 39 67  2  0  0  0
 40 52  1  0  0  0
 40 53  2  0  0  0
 40 58  1  0  0  0
 41113  1  0  0  0
 41114  1  0  0  0
 41115  1  0  0  0
 41 48  1  0  0  0
 42 43  1  0  0  0
 42 66  1  0  0  0
 42116  1  0  0  0
 42117  1  0  0  0
 43 44  1  0  0  0
 44118  1  0  0  0
 45 46  2  0  0  0
 45119  1  0  0  0
 46120  1  0  0  0
 47121  1  0  0  0
 47122  1  0  0  0
 48 56  1  0  0  0
 48 65  1  0  0  0
 48123  1  0  0  0
 49 50  1  0  0  0
 49 53  1  0  0  0
 49 64  1  0  0  0
 49124  1  0  0  0
 50 51  1  0  0  0
 50125  1  0  0  0
 50126  1  0  0  0
 51 52  1  0  0  0
 51127  1  0  0  0
 51128  1  0  0  0
 52129  1  0  0  0
 52130  1  0  0  0
 53 54  1  0  0  0
 54 55  2  0  0  0
 54131  1  0  0  0
 55 57  1  0  0  0
 55132  1  0  0  0
 56 69  2  0  0  0
 57 58  2  0  0  0
 57133  1  0  0  0
 58134  1  0  0  0
 59 60  1  0  0  0
 59 61  1  0  0  0
 59 62  1  0  0  0
 60135  1  0  0  0
 60136  1  0  0  0
 60137  1  0  0  0
 61138  1  0  0  0
 61139  1  0  0  0
 61140  1  0  0  0
 62141  1  0  0  0
 62142  1  0  0  0
 62143  1  0  0  0
 63 65  1  0  0  0
 63144  1  0  0  0
 63145  1  0  0  0
 63146  1  0  0  0
 64147  1  0  0  0
 65148  1  0  0  0
 68 86  1  0  0  0
 71 73  2  0  0  0
 71 74  1  0  0  0
 71149  1  0  0  0
 72 73  1  0  0  0
 72 87  2  0  0  0
 72150  1  0  0  0
 73 83  1  0  0  0
 74 75  2  0  0  0
 74 84  1  0  0  0
 75 76  1  0  0  0
 75 87  1  0  0  0
 76 77  1  0  0  0
 76151  1  0  0  0
 76152  1  0  0  0
 77 78  1  0  0  0
 77153  1  0  0  0
 77154  1  0  0  0
 78 84  1  0  0  0
 78155  1  0  0  0
 78156  1  0  0  0
 79 81  1  0  0  0
 79 83  1  0  0  0
 79157  1  0  0  0
 79158  1  0  0  0
 80 82  1  0  0  0
 80 83  1  0  0  0
 80159  1  0  0  0
 80160  1  0  0  0
 81 88  1  0  0  0
 81161  1  0  0  0
 81162  1  0  0  0
 82 88  1  0  0  0
 82163  1  0  0  0
 82164  1  0  0  0
 83165  1  0  0  0
 84 89  1  0  0  0
 84166  1  0  0  0
 85 86  1  0  0  0
 85 89  1  0  0  0
 85167  1  0  0  0
 85168  1  0  0  0
 86169  1  0  0  0
 86170  1  0  0  0
 89171  1  0  0  0
 89172  1  0  0  0
M  CHG  1  89   1
M  ISO  4   1 100  68 101  86 101  88 100
M  END
> <chiral flag>
0

> <version>
0

> <s_m_source_file>
/data/baiqing/PycharmProjects/Reinvent-master-3.2/result/LINK_invent/BTK/process_docking_weight1_custom_sum_contain_oxygen_bond_distance_aromatic_linkinvent_7_9_3/rearranged_h_0175.sdf

> <i_m_source_file_index>
49

> <r_mmod_Potential_Energy-OPLS-2005>
-19.8429527282715

> <r_mmod_Stretch_Energy-OPLS-2005>
40.8893852233887

> <r_mmod_Bend_Energy-OPLS-2005>
103.97110748291

> <r_mmod_Torsional_Energy-OPLS-2005>
399.338256835938

> <r_mmod_Improper_Torsional_Energy-OPLS-2005>
4.62868785858154

> <r_mmod_Van_der_Waal_Energy-OPLS-2005>
167.138870239258

> <r_mmod_Electrostatic_Energy-OPLS-2005>
-309.453674316406

> <r_mmod_Solvation_Energy-OPLS-2005>
-437.9189453125

> <b_mmod_Minimization_Converged-OPLS-2005>
0

> <r_mmod_RMS_Derivative-OPLS-2005>
3.2815887928009

$$$$
49
                    3D
 Structure written by MMmdl.
155164  0  0  1  0            999 V2000
  -30.6422  -14.7010   20.4446 C   0  0  0  0  0  0
  -30.4293  -12.4195   19.4744 C   0  0  0  0  0  0
  -29.5173  -12.5009   18.2350 C   0  0  0  0  0  0
  -28.0372  -12.3425   18.6391 C   0  0  0  0  0  0
  -27.6428  -13.2315   19.8515 C   0  0  2  0  0  0
  -28.6876  -13.1592   20.9838 C   0  0  0  0  0  0
  -25.2493  -13.8138   20.5686 C   0  0  0  0  0  0
  -24.1801  -13.0380   20.9234 C   0  0  0  0  0  0
  -24.6404  -11.6869   20.8776 C   0  0  0  0  0  0
  -23.9073  -10.4256   21.0435 C   0  0  0  0  0  0
  -24.3608   -9.4150   21.9209 C   0  0  0  0  0  0
  -23.6270   -8.2208   22.0760 C   0  0  0  0  0  0
  -22.4255   -8.0268   21.3553 C   0  0  0  0  0  0
  -21.9913   -9.0240   20.4652 C   0  0  0  0  0  0
  -22.7263  -10.2105   20.3069 C   0  0  0  0  0  0
  -21.6820   -6.0720   22.5285 C   0  0  0  0  0  0
  -21.3999   -6.5624   23.8225 C   0  0  0  0  0  0
  -21.3667   -5.6788   24.9189 C   0  0  0  0  0  0
  -21.6044   -4.3045   24.7248 C   0  0  0  0  0  0
  -21.8814   -3.8134   23.4367 C   0  0  0  0  0  0
  -21.9171   -4.6949   22.3420 C   0  0  0  0  0  0
  -22.7807  -13.5151   21.1876 C   0  0  0  0  0  0
  -22.1635   -4.2124   21.0993 F   0  0  0  0  0  0
  -21.5635   -3.4547   25.7769 F   0  0  0  0  0  0
  -29.9930  -13.4891   20.3938 N   0  0  0  0  0  0
  -26.2932  -12.9375   20.3276 N   0  0  0  0  0  0
  -25.9333  -11.6503   20.5758 N   0  0  0  0  0  0
  -22.0432  -12.8162   22.0406 N   0  0  0  0  0  0
  -25.4105  -15.1864   20.4057 N   0  0  0  0  0  0
  -31.8390  -14.7762   20.1638 O   0  0  0  0  0  0
  -21.6602   -6.8871   21.4258 O   0  0  0  0  0  0
  -22.3510  -14.5480   20.6724 O   0  0  0  0  0  0
  -24.6269  -31.8585   23.1944 C   0  0  0  0  0  0
  -25.9128  -32.4746   23.8304 C   0  0  1  0  0  0
  -27.2452  -27.3182   20.1146 C   0  0  0  0  0  0
  -25.5969  -33.8550   24.2267 N   0  0  0  0  0  0
  -23.4221  -30.4754   21.5368 C   0  0  2  0  0  0
  -24.8705  -28.9134   20.1165 C   0  0  0  0  0  0
  -22.7472  -29.4635   22.4920 C   0  0  0  0  0  0
  -18.0283  -28.1391   22.8497 C   0  0  0  0  0  0
  -24.1498  -36.7243   23.2627 C   0  0  0  0  0  0
  -25.9600  -30.7867   21.3644 C   0  0  0  0  0  0
  -26.0380  -29.4100   20.7113 C   0  0  0  0  0  0
  -27.2282  -28.6263   20.6918 C   0  0  0  0  0  0
  -26.0533  -26.8599   19.5141 C   0  0  0  0  0  0
  -24.8772  -27.6432   19.5133 C   0  0  0  0  0  0
  -23.6393  -29.7966   20.1563 C   0  0  0  0  0  0
  -25.4126  -36.3060   24.0340 C   0  0  1  0  0  0
  -20.5886  -28.3707   23.1267 C   0  0  2  0  0  0
  -20.6783  -26.9434   22.5406 C   0  0  0  0  0  0
  -19.5752  -26.6399   21.5209 C   0  0  0  0  0  0
  -18.1929  -26.7941   22.1620 C   0  0  0  0  0  0
  -19.1544  -28.8863   23.2879 C   0  0  0  0  0  0
  -18.9474  -30.1464   23.8903 C   0  0  0  0  0  0
  -17.6481  -30.6599   24.0572 C   0  0  0  0  0  0
  -25.9072  -34.9432   23.5099 C   0  0  0  0  0  0
  -16.5366  -29.9110   23.6331 C   0  0  0  0  0  0
  -16.7277  -28.6520   23.0363 C   0  0  0  0  0  0
  -26.4521  -31.6528   25.0646 C   0  0  0  0  0  0
  -25.3777  -31.3680   26.1379 C   0  0  0  0  0  0
  -27.0362  -30.2952   24.6092 C   0  0  0  0  0  0
  -27.6108  -32.4221   25.7426 C   0  0  0  0  0  0
  -27.5584  -37.1777   24.8486 C   0  0  0  0  0  0
  -21.4196  -29.3039   22.3636 N   0  0  0  0  0  0
  -26.4296  -37.3766   23.9428 N   0  0  0  0  0  0
  -24.6872  -31.0594   22.0893 N   0  0  0  0  0  0
  -23.4182  -28.8211   23.3043 O   0  0  0  0  0  0
  -28.4052  -26.5288   20.1114 O   0  0  0  0  0  0
  -26.5616  -34.8915   22.4651 O   0  0  0  0  0  0
  -23.5432  -32.1389   23.7261 O   0  0  0  0  0  0
  -30.3574  -20.4596   18.9351 C   0  0  0  0  0  0
  -28.8073  -19.3821   20.8293 C   0  0  0  0  0  0
  -29.2785  -21.2424   19.4509 C   0  0  0  0  0  0
  -29.8770  -18.5952   20.2907 C   0  0  0  0  0  0
  -27.4802  -23.1487   18.7000 C   0  0  0  0  0  0
  -28.8656  -22.5802   18.7167 C   0  0  1  0  0  0
  -28.6070  -24.1412   18.9973 C   0  0  1  0  0  0
  -29.1314  -25.0651   17.8969 C   0  0  0  0  0  0
  -30.4163  -17.2432   20.9276 C   0  0  0  0  0  0
  -28.3673  -25.0468   20.2645 C   0  0  0  0  0  0
  -28.4994  -20.6661   20.4159 N   0  0  0  0  0  0
  -30.6530  -19.1806   19.3349 N   0  0  0  0  0  0
  -29.8979  -15.8476   20.6285 N   0  0  0  0  0  0
  -31.4742  -12.5279   19.1812 H   0  0  0  0  0  0
  -30.3551  -11.4426   19.9560 H   0  0  0  0  0  0
  -29.8010  -11.7376   17.5110 H   0  0  0  0  0  0
  -29.6632  -13.4612   17.7378 H   0  0  0  0  0  0
  -27.8743  -11.2925   18.8775 H   0  0  0  0  0  0
  -27.3935  -12.5622   17.7863 H   0  0  0  0  0  0
  -27.6402  -14.2577   19.4858 H   0  0  0  0  0  0
  -28.7019  -12.1674   21.4392 H   0  0  0  0  0  0
  -28.4284  -13.8584   21.7801 H   0  0  0  0  0  0
  -25.2752   -9.5589   22.4793 H   0  0  0  0  0  0
  -23.9951   -7.4559   22.7454 H   0  0  0  0  0  0
  -21.0855   -8.8753   19.8937 H   0  0  0  0  0  0
  -22.3739  -10.9635   19.6158 H   0  0  0  0  0  0
  -21.1991   -7.6132   23.9737 H   0  0  0  0  0  0
  -21.1496   -6.0509   25.9089 H   0  0  0  0  0  0
  -22.0591   -2.7600   23.2867 H   0  0  0  0  0  0
  -22.4009  -11.9809   22.4812 H   0  0  0  0  0  0
  -21.1039  -13.1202   22.2592 H   0  0  0  0  0  0
  -24.6204  -15.8180   20.4838 H   0  0  0  0  0  0
  -26.2323  -15.6275   20.0134 H   0  0  0  0  0  0
  -26.7189  -32.5436   23.1058 H   0  0  0  0  0  0
  -25.0243  -33.9728   25.0488 H   0  0  0  0  0  0
  -22.7170  -31.2934   21.3834 H   0  0  0  0  0  0
  -23.3781  -35.9549   23.3285 H   0  0  0  0  0  0
  -24.3599  -36.8842   22.2041 H   0  0  0  0  0  0
  -23.7218  -37.6444   23.6613 H   0  0  0  0  0  0
  -26.0929  -31.5488   20.5956 H   0  0  0  0  0  0
  -26.8379  -30.8355   21.9963 H   0  0  0  0  0  0
  -28.1285  -29.0135   21.1471 H   0  0  0  0  0  0
  -26.0300  -25.8892   19.0400 H   0  0  0  0  0  0
  -23.9800  -27.2576   19.0511 H   0  0  0  0  0  0
  -23.7658  -30.5649   19.3922 H   0  0  0  0  0  0
  -22.7599  -29.2245   19.8536 H   0  0  0  0  0  0
  -25.1293  -36.1903   25.0830 H   0  0  0  0  0  0
  -20.9980  -28.3290   24.1387 H   0  0  0  0  0  0
  -20.5689  -26.2338   23.3623 H   0  0  0  0  0  0
  -21.6661  -26.7477   22.1205 H   0  0  0  0  0  0
  -19.6937  -25.6313   21.1232 H   0  0  0  0  0  0
  -19.6669  -27.3220   20.6741 H   0  0  0  0  0  0
  -17.4218  -26.6702   21.4001 H   0  0  0  0  0  0
  -18.0318  -26.0061   22.8994 H   0  0  0  0  0  0
  -19.7964  -30.7270   24.2261 H   0  0  0  0  0  0
  -17.5053  -31.6275   24.5184 H   0  0  0  0  0  0
  -15.5379  -30.3035   23.7635 H   0  0  0  0  0  0
  -15.8676  -28.0842   22.7084 H   0  0  0  0  0  0
  -24.6007  -30.6942   25.7738 H   0  0  0  0  0  0
  -24.8908  -32.2854   26.4699 H   0  0  0  0  0  0
  -25.8138  -30.8970   27.0204 H   0  0  0  0  0  0
  -26.2980  -29.6756   24.0985 H   0  0  0  0  0  0
  -27.3944  -29.7115   25.4585 H   0  0  0  0  0  0
  -27.8886  -30.4238   23.9412 H   0  0  0  0  0  0
  -27.2785  -33.3584   26.1920 H   0  0  0  0  0  0
  -28.3995  -32.6642   25.0286 H   0  0  0  0  0  0
  -28.0680  -31.8359   26.5419 H   0  0  0  0  0  0
  -28.2619  -38.0054   24.7527 H   0  0  0  0  0  0
  -28.1061  -36.2594   24.6309 H   0  0  0  0  0  0
  -27.2314  -37.1429   25.8893 H   0  0  0  0  0  0
  -20.9384  -29.8682   21.6780 H   0  0  0  0  0  0
  -26.0167  -38.2841   24.1412 H   0  0  0  0  0  0
  -30.9723  -20.8436   18.1321 H   0  0  0  0  0  0
  -28.2200  -18.9922   21.6480 H   0  0  0  0  0  0
  -26.8217  -22.8849   19.5246 H   0  0  0  0  0  0
  -26.9778  -23.2404   17.7374 H   0  0  0  0  0  0
  -29.2510  -22.4067   17.7123 H   0  0  0  0  0  0
  -29.9734  -25.6614   18.2538 H   0  0  0  0  0  0
  -28.3480  -25.7471   17.5666 H   0  0  0  0  0  0
  -29.4766  -24.5090   17.0270 H   0  0  0  0  0  0
  -30.3049  -17.3692   22.0067 H   0  0  0  0  0  0
  -31.4947  -17.2412   20.7606 H   0  0  0  0  0  0
  -29.1664  -24.8116   20.9675 H   0  0  0  0  0  0
  -27.4495  -24.7436   20.7694 H   0  0  0  0  0  0
  -28.9041  -15.7225   20.7343 H   0  0  0  0  0  0
  1 25  1  0  0  0
  1 30  2  0  0  0
  1 83  1  0  0  0
  2  3  1  0  0  0
  2 25  1  0  0  0
  2 84  1  0  0  0
  2 85  1  0  0  0
  3  4  1  0  0  0
  3 86  1  0  0  0
  3 87  1  0  0  0
  4  5  1  0  0  0
  4 88  1  0  0  0
  4 89  1  0  0  0
  5  6  1  0  0  0
  5 26  1  0  0  0
  5 90  1  0  0  0
  6 25  1  0  0  0
  6 91  1  0  0  0
  6 92  1  0  0  0
  7  8  2  0  0  0
  7 26  1  0  0  0
  7 29  1  0  0  0
  8  9  1  0  0  0
  8 22  1  0  0  0
  9 10  1  0  0  0
  9 27  2  0  0  0
 10 11  2  0  0  0
 10 15  1  0  0  0
 11 12  1  0  0  0
 11 93  1  0  0  0
 12 13  2  0  0  0
 12 94  1  0  0  0
 13 14  1  0  0  0
 13 31  1  0  0  0
 14 15  2  0  0  0
 14 95  1  0  0  0
 15 96  1  0  0  0
 16 17  2  0  0  0
 16 21  1  0  0  0
 16 31  1  0  0  0
 17 18  1  0  0  0
 17 97  1  0  0  0
 18 19  2  0  0  0
 18 98  1  0  0  0
 19 20  1  0  0  0
 19 24  1  0  0  0
 20 21  2  0  0  0
 20 99  1  0  0  0
 21 23  1  0  0  0
 22 28  1  0  0  0
 22 32  2  0  0  0
 26 27  1  0  0  0
 28100  1  0  0  0
 28101  1  0  0  0
 29102  1  0  0  0
 29103  1  0  0  0
 33 34  1  0  0  0
 33 66  1  0  0  0
 33 70  2  0  0  0
 34 36  1  0  0  0
 34 59  1  0  0  0
 34104  1  0  0  0
 35 44  2  0  0  0
 35 45  1  0  0  0
 35 68  1  0  0  0
 36 56  1  0  0  0
 36105  1  0  0  0
 37 39  1  0  0  0
 37 47  1  0  0  0
 37 66  1  0  0  0
 37106  1  0  0  0
 38 43  2  0  0  0
 38 46  1  0  0  0
 38 47  1  0  0  0
 39 64  1  0  0  0
 39 67  2  0  0  0
 40 52  1  0  0  0
 40 53  2  0  0  0
 40 58  1  0  0  0
 41107  1  0  0  0
 41108  1  0  0  0
 41109  1  0  0  0
 41 48  1  0  0  0
 42 43  1  0  0  0
 42 66  1  0  0  0
 42110  1  0  0  0
 42111  1  0  0  0
 43 44  1  0  0  0
 44112  1  0  0  0
 45 46  2  0  0  0
 45113  1  0  0  0
 46114  1  0  0  0
 47115  1  0  0  0
 47116  1  0  0  0
 48 56  1  0  0  0
 48 65  1  0  0  0
 48117  1  0  0  0
 49 50  1  0  0  0
 49 53  1  0  0  0
 49 64  1  0  0  0
 49118  1  0  0  0
 50 51  1  0  0  0
 50119  1  0  0  0
 50120  1  0  0  0
 51 52  1  0  0  0
 51121  1  0  0  0
 51122  1  0  0  0
 52123  1  0  0  0
 52124  1  0  0  0
 53 54  1  0  0  0
 54 55  2  0  0  0
 54125  1  0  0  0
 55 57  1  0  0  0
 55126  1  0  0  0
 56 69  2  0  0  0
 57 58  2  0  0  0
 57127  1  0  0  0
 58128  1  0  0  0
 59 60  1  0  0  0
 59 61  1  0  0  0
 59 62  1  0  0  0
 60129  1  0  0  0
 60130  1  0  0  0
 60131  1  0  0  0
 61132  1  0  0  0
 61133  1  0  0  0
 61134  1  0  0  0
 62135  1  0  0  0
 62136  1  0  0  0
 62137  1  0  0  0
 63 65  1  0  0  0
 63138  1  0  0  0
 63139  1  0  0  0
 63140  1  0  0  0
 64141  1  0  0  0
 65142  1  0  0  0
 68 80  1  0  0  0
 71 73  2  0  0  0
 71 82  1  0  0  0
 71143  1  0  0  0
 72 74  1  0  0  0
 72 81  2  0  0  0
 72144  1  0  0  0
 73 81  1  0  0  0
 73 76  1  0  0  0
 74 79  1  0  0  0
 74 82  2  0  0  0
 75 76  1  0  0  0
 75 77  1  0  0  0
 75145  1  0  0  0
 75146  1  0  0  0
 76 77  1  0  0  0
 76147  1  0  0  0
 77 78  1  0  0  0
 77 80  1  0  0  0
 78148  1  0  0  0
 78149  1  0  0  0
 78150  1  0  0  0
 79 83  1  0  0  0
 79151  1  0  0  0
 79152  1  0  0  0
 80153  1  0  0  0
 80154  1  0  0  0
 83155  1  0  0  0
M  ISO  4   1 100  68 101  80 101  83 100
M  END
> <chiral flag>
0

> <version>
0

> <s_m_source_file>
/data/baiqing/PycharmProjects/Reinvent-master-3.2/result/LINK_invent/BTK/process_docking_weight1_custom_sum_contain_oxygen_bond_distance_aromatic_linkinvent_7_9_3/rearranged_h_0175.sdf

> <i_m_source_file_index>
50

> <r_mmod_Potential_Energy-OPLS-2005>
227.840362548828

> <r_mmod_Stretch_Energy-OPLS-2005>
105.124214172363

> <r_mmod_Bend_Energy-OPLS-2005>
220.102294921875

> <r_mmod_Torsional_Energy-OPLS-2005>
259.497467041016

> <r_mmod_Improper_Torsional_Energy-OPLS-2005>
7.78206729888916

> <r_mmod_Van_der_Waal_Energy-OPLS-2005>
142.616577148438

> <r_mmod_Electrostatic_Energy-OPLS-2005>
-339.923126220703

> <r_mmod_Solvation_Energy-OPLS-2005>
-227.170791625977

> <b_mmod_Minimization_Converged-OPLS-2005>
0

> <r_mmod_RMS_Derivative-OPLS-2005>
3.61183476448059

$$$$
50
                    3D
 Structure written by MMmdl.
167176  0  0  1  0            999 V2000
  -30.6945  -14.5586   20.5076 C   0  0  0  0  0  0
  -30.4306  -12.3474   19.4518 C   0  0  0  0  0  0
  -29.5003  -12.4890   18.2272 C   0  0  0  0  0  0
  -28.0231  -12.3484   18.6415 C   0  0  0  0  0  0
  -27.6543  -13.2212   19.8694 C   0  0  2  0  0  0
  -28.7046  -13.0728   20.9986 C   0  0  0  0  0  0
  -25.2510  -13.8184   20.5664 C   0  0  0  0  0  0
  -24.1782  -13.0416   20.9169 C   0  0  0  0  0  0
  -24.6391  -11.6900   20.8752 C   0  0  0  0  0  0
  -23.9078  -10.4263   21.0427 C   0  0  0  0  0  0
  -24.3627   -9.4171   21.9193 C   0  0  0  0  0  0
  -23.6295   -8.2216   22.0746 C   0  0  0  0  0  0
  -22.4287   -8.0264   21.3534 C   0  0  0  0  0  0
  -21.9927   -9.0230   20.4631 C   0  0  0  0  0  0
  -22.7259  -10.2105   20.3056 C   0  0  0  0  0  0
  -21.6843   -6.0726   22.5261 C   0  0  0  0  0  0
  -21.4013   -6.5630   23.8186 C   0  0  0  0  0  0
  -21.3666   -5.6781   24.9152 C   0  0  0  0  0  0
  -21.6067   -4.3047   24.7202 C   0  0  0  0  0  0
  -21.8832   -3.8133   23.4327 C   0  0  0  0  0  0
  -21.9182   -4.6951   22.3378 C   0  0  0  0  0  0
  -22.7795  -13.5172   21.1839 C   0  0  0  0  0  0
  -22.1654   -4.2135   21.0951 F   0  0  0  0  0  0
  -21.5654   -3.4532   25.7725 F   0  0  0  0  0  0
  -30.0236  -13.3736   20.4263 N   0  0  0  0  0  0
  -26.2974  -12.9388   20.3379 N   0  0  0  0  0  0
  -25.9335  -11.6538   20.5849 N   0  0  0  0  0  0
  -22.0471  -12.8127   22.0413 N   0  0  0  0  0  0
  -25.4187  -15.1900   20.4052 N   0  0  0  0  0  0
  -31.8629  -14.6701   20.1322 O   0  0  0  0  0  0
  -21.6638   -6.8874   21.4232 O   0  0  0  0  0  0
  -22.3450  -14.5479   20.6721 O   0  0  0  0  0  0
  -24.6175  -31.8685   23.2117 C   0  0  0  0  0  0
  -25.9052  -32.4829   23.8449 C   0  0  1  0  0  0
  -27.2257  -27.3986   20.0894 C   0  0  0  0  0  0
  -25.5899  -33.8637   24.2361 N   0  0  0  0  0  0
  -23.4104  -30.4965   21.5516 C   0  0  2  0  0  0
  -24.8553  -28.9684   20.1116 C   0  0  0  0  0  0
  -22.7448  -29.4675   22.4958 C   0  0  0  0  0  0
  -18.0291  -28.1362   22.8505 C   0  0  0  0  0  0
  -24.1478  -36.7311   23.2646 C   0  0  0  0  0  0
  -25.9482  -30.8213   21.3797 C   0  0  0  0  0  0
  -26.0231  -29.4594   20.7101 C   0  0  0  0  0  0
  -27.2139  -28.6853   20.6908 C   0  0  0  0  0  0
  -26.0352  -26.9506   19.4664 C   0  0  0  0  0  0
  -24.8580  -27.7131   19.4884 C   0  0  0  0  0  0
  -23.6209  -29.8372   20.1653 C   0  0  0  0  0  0
  -25.4104  -36.3127   24.0355 C   0  0  1  0  0  0
  -20.5884  -28.3674   23.1290 C   0  0  2  0  0  0
  -20.6772  -26.9408   22.5397 C   0  0  0  0  0  0
  -19.5736  -26.6376   21.5204 C   0  0  0  0  0  0
  -18.1923  -26.7912   22.1630 C   0  0  0  0  0  0
  -19.1542  -28.8832   23.2894 C   0  0  0  0  0  0
  -18.9468  -30.1429   23.8919 C   0  0  0  0  0  0
  -17.6472  -30.6571   24.0564 C   0  0  0  0  0  0
  -25.9031  -34.9486   23.5156 C   0  0  0  0  0  0
  -16.5361  -29.9081   23.6311 C   0  0  0  0  0  0
  -16.7280  -28.6481   23.0364 C   0  0  0  0  0  0
  -26.4447  -31.6633   25.0810 C   0  0  0  0  0  0
  -25.3678  -31.3804   26.1549 C   0  0  0  0  0  0
  -27.0310  -30.3062   24.6265 C   0  0  0  0  0  0
  -27.6006  -32.4384   25.7554 C   0  0  0  0  0  0
  -27.5592  -37.1817   24.8462 C   0  0  0  0  0  0
  -21.4169  -29.3050   22.3699 N   0  0  0  0  0  0
  -26.4298  -37.3811   23.9409 N   0  0  0  0  0  0
  -24.6768  -31.0774   22.1034 N   0  0  0  0  0  0
  -23.4201  -28.8204   23.3010 O   0  0  0  0  0  0
  -28.3545  -26.5837   20.1362 O   0  0  0  0  0  0
  -26.5595  -34.8929   22.4716 O   0  0  0  0  0  0
  -23.5348  -32.1461   23.7462 O   0  0  0  0  0  0
  -30.1520  -18.8523   23.0628 C   0  0  0  0  0  0
  -30.3701  -19.9768   23.8113 C   0  0  0  0  0  0
  -29.7981  -20.6113   21.7380 C   0  0  0  0  0  0
  -30.7469  -22.3712   20.1165 C   0  0  0  0  0  0
  -30.2410  -23.7515   19.6505 C   0  0  0  0  0  0
  -28.5235  -22.7677   21.0146 C   0  0  0  0  0  0
  -29.5037  -21.6141   20.6243 C   0  0  2  0  0  0
  -29.1571  -24.1590   20.6678 C   0  0  1  0  0  0
  -30.7566  -20.1533   25.2418 C   0  0  0  0  0  0
  -29.7971  -24.7844   21.9252 C   0  0  0  0  0  0
  -28.0892  -25.1516   20.0929 C   0  0  0  0  0  0
  -29.4771  -18.2612   20.7197 C   0  0  0  0  0  0
  -30.4893  -17.0597   20.5838 C   0  0  0  0  0  0
  -29.8227  -19.2448   21.7888 N   0  0  0  0  0  0
  -30.1415  -21.0269   22.9652 N   0  3  0  0  0  0
  -29.9720  -15.6735   20.7956 N   0  0  0  0  0  0
  -31.4741  -12.4470   19.1466 H   0  0  0  0  0  0
  -30.3449  -11.3541   19.8936 H   0  0  0  0  0  0
  -29.7474  -11.7364   17.4747 H   0  0  0  0  0  0
  -29.6567  -13.4599   17.7524 H   0  0  0  0  0  0
  -27.8448  -11.2990   18.8761 H   0  0  0  0  0  0
  -27.3708  -12.5868   17.8003 H   0  0  0  0  0  0
  -27.6739  -14.2554   19.5279 H   0  0  0  0  0  0
  -28.6966  -12.0561   21.3949 H   0  0  0  0  0  0
  -28.4755  -13.7240   21.8442 H   0  0  0  0  0  0
  -25.2800   -9.5614   22.4729 H   0  0  0  0  0  0
  -23.9989   -7.4609   22.7476 H   0  0  0  0  0  0
  -21.0858   -8.8752   19.8938 H   0  0  0  0  0  0
  -22.3740  -10.9637   19.6141 H   0  0  0  0  0  0
  -21.2007   -7.6139   23.9672 H   0  0  0  0  0  0
  -21.1497   -6.0526   25.9053 H   0  0  0  0  0  0
  -22.0616   -2.7601   23.2816 H   0  0  0  0  0  0
  -22.4159  -11.9811   22.4774 H   0  0  0  0  0  0
  -21.1094  -13.1105   22.2691 H   0  0  0  0  0  0
  -24.6480  -15.8436   20.4969 H   0  0  0  0  0  0
  -26.2656  -15.6226   20.0592 H   0  0  0  0  0  0
  -26.7142  -32.5527   23.1233 H   0  0  0  0  0  0
  -25.0053  -33.9806   25.0515 H   0  0  0  0  0  0
  -22.6991  -31.3140   21.4125 H   0  0  0  0  0  0
  -23.3754  -35.9628   23.3297 H   0  0  0  0  0  0
  -24.3579  -36.8927   22.2060 H   0  0  0  0  0  0
  -23.7194  -37.6509   23.6648 H   0  0  0  0  0  0
  -26.0896  -31.6002   20.6284 H   0  0  0  0  0  0
  -26.8242  -30.8526   22.0168 H   0  0  0  0  0  0
  -28.1125  -29.0597   21.1628 H   0  0  0  0  0  0
  -25.9831  -25.9986   18.9606 H   0  0  0  0  0  0
  -23.9625  -27.3299   19.0195 H   0  0  0  0  0  0
  -23.7360  -30.6160   19.4105 H   0  0  0  0  0  0
  -22.7431  -29.2625   19.8633 H   0  0  0  0  0  0
  -25.1265  -36.2025   25.0852 H   0  0  0  0  0  0
  -20.9992  -28.3238   24.1403 H   0  0  0  0  0  0
  -20.5659  -26.2295   23.3597 H   0  0  0  0  0  0
  -21.6643  -26.7427   22.1200 H   0  0  0  0  0  0
  -19.6902  -25.6288   21.1222 H   0  0  0  0  0  0
  -19.6650  -27.3187   20.6731 H   0  0  0  0  0  0
  -17.4193  -26.6671   21.4031 H   0  0  0  0  0  0
  -18.0323  -26.0037   22.9004 H   0  0  0  0  0  0
  -19.7947  -30.7226   24.2307 H   0  0  0  0  0  0
  -17.5032  -31.6254   24.5159 H   0  0  0  0  0  0
  -15.5362  -30.2996   23.7601 H   0  0  0  0  0  0
  -15.8680  -28.0786   22.7091 H   0  0  0  0  0  0
  -24.5774  -30.7243   25.7887 H   0  0  0  0  0  0
  -24.8960  -32.2998   26.5027 H   0  0  0  0  0  0
  -25.7983  -30.8927   27.0301 H   0  0  0  0  0  0
  -26.2939  -29.6841   24.1178 H   0  0  0  0  0  0
  -27.3893  -29.7294   25.4797 H   0  0  0  0  0  0
  -27.8836  -30.4369   23.9600 H   0  0  0  0  0  0
  -27.2598  -33.3650   26.2191 H   0  0  0  0  0  0
  -28.3767  -32.7026   25.0358 H   0  0  0  0  0  0
  -28.0739  -31.8503   26.5425 H   0  0  0  0  0  0
  -28.2603  -38.0125   24.7544 H   0  0  0  0  0  0
  -28.1101  -36.2663   24.6240 H   0  0  0  0  0  0
  -27.2322  -37.1412   25.8870 H   0  0  0  0  0  0
  -20.9321  -29.8822   21.6968 H   0  0  0  0  0  0
  -26.0197  -38.2902   24.1393 H   0  0  0  0  0  0
  -30.2084  -17.8107   23.3481 H   0  0  0  0  0  0
  -31.4541  -22.5282   20.9331 H   0  0  0  0  0  0
  -31.2836  -21.8257   19.3408 H   0  0  0  0  0  0
  -29.8071  -23.6465   18.6547 H   0  0  0  0  0  0
  -31.0412  -24.4883   19.5708 H   0  0  0  0  0  0
  -28.2257  -22.7225   22.0627 H   0  0  0  0  0  0
  -27.5983  -22.6204   20.4547 H   0  0  0  0  0  0
  -29.0665  -21.0505   19.7997 H   0  0  0  0  0  0
  -29.8985  -20.4827   25.8269 H   0  0  0  0  0  0
  -31.5530  -20.8932   25.3310 H   0  0  0  0  0  0
  -31.1125  -19.2103   25.6566 H   0  0  0  0  0  0
  -30.5930  -24.1689   22.3397 H   0  0  0  0  0  0
  -29.0581  -24.9403   22.7118 H   0  0  0  0  0  0
  -30.2352  -25.7566   21.6990 H   0  0  0  0  0  0
  -27.1832  -24.9687   20.6731 H   0  0  0  0  0  0
  -27.8604  -24.8692   19.0635 H   0  0  0  0  0  0
  -28.4749  -17.8938   20.9405 H   0  0  0  0  0  0
  -29.4073  -18.7940   19.7709 H   0  0  0  0  0  0
  -31.3651  -17.2121   21.2182 H   0  0  0  0  0  0
  -30.8836  -17.0988   19.5669 H   0  0  0  0  0  0
  -30.2057  -22.0026   23.2303 H   0  0  0  0  0  0
  -28.9987  -15.5497   21.0331 H   0  0  0  0  0  0
  1 25  1  0  0  0
  1 30  2  0  0  0
  1 86  1  0  0  0
  2  3  1  0  0  0
  2 25  1  0  0  0
  2 87  1  0  0  0
  2 88  1  0  0  0
  3  4  1  0  0  0
  3 89  1  0  0  0
  3 90  1  0  0  0
  4  5  1  0  0  0
  4 91  1  0  0  0
  4 92  1  0  0  0
  5  6  1  0  0  0
  5 26  1  0  0  0
  5 93  1  0  0  0
  6 25  1  0  0  0
  6 94  1  0  0  0
  6 95  1  0  0  0
  7  8  2  0  0  0
  7 26  1  0  0  0
  7 29  1  0  0  0
  8  9  1  0  0  0
  8 22  1  0  0  0
  9 10  1  0  0  0
  9 27  2  0  0  0
 10 11  2  0  0  0
 10 15  1  0  0  0
 11 12  1  0  0  0
 11 96  1  0  0  0
 12 13  2  0  0  0
 12 97  1  0  0  0
 13 14  1  0  0  0
 13 31  1  0  0  0
 14 15  2  0  0  0
 14 98  1  0  0  0
 15 99  1  0  0  0
 16 17  2  0  0  0
 16 21  1  0  0  0
 16 31  1  0  0  0
 17 18  1  0  0  0
 17100  1  0  0  0
 18 19  2  0  0  0
 18101  1  0  0  0
 19 20  1  0  0  0
 19 24  1  0  0  0
 20 21  2  0  0  0
 20102  1  0  0  0
 21 23  1  0  0  0
 22 28  1  0  0  0
 22 32  2  0  0  0
 26 27  1  0  0  0
 28103  1  0  0  0
 28104  1  0  0  0
 29105  1  0  0  0
 29106  1  0  0  0
 33 34  1  0  0  0
 33 66  1  0  0  0
 33 70  2  0  0  0
 34 36  1  0  0  0
 34 59  1  0  0  0
 34107  1  0  0  0
 35 44  2  0  0  0
 35 45  1  0  0  0
 35 68  1  0  0  0
 36 56  1  0  0  0
 36108  1  0  0  0
 37 39  1  0  0  0
 37 47  1  0  0  0
 37 66  1  0  0  0
 37109  1  0  0  0
 38 43  2  0  0  0
 38 46  1  0  0  0
 38 47  1  0  0  0
 39 64  1  0  0  0
 39 67  2  0  0  0
 40 52  1  0  0  0
 40 53  2  0  0  0
 40 58  1  0  0  0
 41110  1  0  0  0
 41111  1  0  0  0
 41112  1  0  0  0
 41 48  1  0  0  0
 42 43  1  0  0  0
 42 66  1  0  0  0
 42113  1  0  0  0
 42114  1  0  0  0
 43 44  1  0  0  0
 44115  1  0  0  0
 45 46  2  0  0  0
 45116  1  0  0  0
 46117  1  0  0  0
 47118  1  0  0  0
 47119  1  0  0  0
 48 56  1  0  0  0
 48 65  1  0  0  0
 48120  1  0  0  0
 49 50  1  0  0  0
 49 53  1  0  0  0
 49 64  1  0  0  0
 49121  1  0  0  0
 50 51  1  0  0  0
 50122  1  0  0  0
 50123  1  0  0  0
 51 52  1  0  0  0
 51124  1  0  0  0
 51125  1  0  0  0
 52126  1  0  0  0
 52127  1  0  0  0
 53 54  1  0  0  0
 54 55  2  0  0  0
 54128  1  0  0  0
 55 57  1  0  0  0
 55129  1  0  0  0
 56 69  2  0  0  0
 57 58  2  0  0  0
 57130  1  0  0  0
 58131  1  0  0  0
 59 60  1  0  0  0
 59 61  1  0  0  0
 59 62  1  0  0  0
 60132  1  0  0  0
 60133  1  0  0  0
 60134  1  0  0  0
 61135  1  0  0  0
 61136  1  0  0  0
 61137  1  0  0  0
 62138  1  0  0  0
 62139  1  0  0  0
 62140  1  0  0  0
 63 65  1  0  0  0
 63141  1  0  0  0
 63142  1  0  0  0
 63143  1  0  0  0
 64144  1  0  0  0
 65145  1  0  0  0
 68 81  1  0  0  0
 71 72  2  0  0  0
 71 84  1  0  0  0
 71146  1  0  0  0
 72 79  1  0  0  0
 72 85  1  0  0  0
 73 84  1  0  0  0
 73 85  2  0  0  0
 73 77  1  0  0  0
 74 75  1  0  0  0
 74 77  1  0  0  0
 74147  1  0  0  0
 74148  1  0  0  0
 75 78  1  0  0  0
 75149  1  0  0  0
 75150  1  0  0  0
 76 77  1  0  0  0
 76 78  1  0  0  0
 76151  1  0  0  0
 76152  1  0  0  0
 77153  1  0  0  0
 78 80  1  0  0  0
 78 81  1  0  0  0
 79154  1  0  0  0
 79155  1  0  0  0
 79156  1  0  0  0
 80157  1  0  0  0
 80158  1  0  0  0
 80159  1  0  0  0
 81160  1  0  0  0
 81161  1  0  0  0
 82 83  1  0  0  0
 82 84  1  0  0  0
 82162  1  0  0  0
 82163  1  0  0  0
 83 86  1  0  0  0
 83164  1  0  0  0
 83165  1  0  0  0
 85166  1  0  0  0
 86167  1  0  0  0
M  CHG  1  85   1
M  ISO  4   1 100  68 101  81 101  86 100
M  END
> <chiral flag>
0

> <version>
0

> <s_m_source_file>
/data/baiqing/PycharmProjects/Reinvent-master-3.2/result/LINK_invent/BTK/process_docking_weight1_custom_sum_contain_oxygen_bond_distance_aromatic_linkinvent_7_9_3/rearranged_h_0175.sdf

> <i_m_source_file_index>
51

> <r_mmod_Potential_Energy-OPLS-2005>
48.6518630981445

> <r_mmod_Stretch_Energy-OPLS-2005>
53.052978515625

> <r_mmod_Bend_Energy-OPLS-2005>
143.159271240234

> <r_mmod_Torsional_Energy-OPLS-2005>
304.430908203125

> <r_mmod_Improper_Torsional_Energy-OPLS-2005>
5.54610919952393

> <r_mmod_Van_der_Waal_Energy-OPLS-2005>
131.264373779297

> <r_mmod_Electrostatic_Energy-OPLS-2005>
-201.208267211914

> <r_mmod_Solvation_Energy-OPLS-2005>
-416.063201904297

> <b_mmod_Minimization_Converged-OPLS-2005>
0

> <r_mmod_RMS_Derivative-OPLS-2005>
3.44481253623962

$$$$
51
                    3D
 Structure written by MMmdl.
157166  0  0  1  0            999 V2000
  -30.6246  -15.0873   20.4230 C   0  0  0  0  0  0
  -30.4298  -12.7055   19.5114 C   0  0  0  0  0  0
  -29.5161  -12.5404   18.2773 C   0  0  0  0  0  0
  -28.0685  -12.2826   18.7219 C   0  0  0  0  0  0
  -27.6199  -13.2723   19.8271 C   0  0  2  0  0  0
  -28.6673  -13.4472   20.9508 C   0  0  0  0  0  0
  -25.2447  -13.8298   20.5798 C   0  0  0  0  0  0
  -24.1765  -13.0471   20.9278 C   0  0  0  0  0  0
  -24.6423  -11.6981   20.8798 C   0  0  0  0  0  0
  -23.9133  -10.4311   21.0428 C   0  0  0  0  0  0
  -24.3662   -9.4221   21.9208 C   0  0  0  0  0  0
  -23.6312   -8.2271   22.0778 C   0  0  0  0  0  0
  -22.4293   -8.0318   21.3570 C   0  0  0  0  0  0
  -21.9959   -9.0300   20.4664 C   0  0  0  0  0  0
  -22.7316  -10.2165   20.3071 C   0  0  0  0  0  0
  -21.6850   -6.0773   22.5294 C   0  0  0  0  0  0
  -21.4004   -6.5670   23.8232 C   0  0  0  0  0  0
  -21.3644   -5.6814   24.9186 C   0  0  0  0  0  0
  -21.6033   -4.3079   24.7225 C   0  0  0  0  0  0
  -21.8820   -3.8179   23.4347 C   0  0  0  0  0  0
  -21.9184   -4.6996   22.3407 C   0  0  0  0  0  0
  -22.7771  -13.5232   21.1852 C   0  0  0  0  0  0
  -22.1653   -4.2191   21.0978 F   0  0  0  0  0  0
  -21.5615   -3.4557   25.7733 F   0  0  0  0  0  0
  -29.9213  -13.8719   20.3100 N   0  0  0  0  0  0
  -26.2882  -12.9577   20.3337 N   0  0  0  0  0  0
  -25.9376  -11.6681   20.5835 N   0  0  0  0  0  0
  -22.0412  -12.8213   22.0397 N   0  0  0  0  0  0
  -25.4099  -15.2019   20.4181 N   0  0  0  0  0  0
  -31.8427  -14.9784   20.2460 O   0  0  0  0  0  0
  -21.6648   -6.8925   21.4260 O   0  0  0  0  0  0
  -22.3463  -14.5522   20.6676 O   0  0  0  0  0  0
  -24.6560  -31.8266   23.1730 C   0  0  0  0  0  0
  -25.9288  -32.4594   23.8186 C   0  0  1  0  0  0
  -27.2092  -27.0046   20.1452 C   0  0  0  0  0  0
  -25.5980  -33.8393   24.2095 N   0  0  0  0  0  0
  -23.4676  -30.4418   21.5218 C   0  0  2  0  0  0
  -24.9182  -28.8568   20.0957 C   0  0  0  0  0  0
  -22.7643  -29.4409   22.4737 C   0  0  0  0  0  0
  -18.0310  -28.1403   22.8438 C   0  0  0  0  0  0
  -24.1503  -36.7178   23.2643 C   0  0  0  0  0  0
  -26.0308  -30.6627   21.3867 C   0  0  0  0  0  0
  -26.0988  -29.2604   20.7308 C   0  0  0  0  0  0
  -27.2375  -28.3506   20.7403 C   0  0  0  0  0  0
  -26.0059  -26.7483   19.4472 C   0  0  0  0  0  0
  -24.8925  -27.6195   19.4405 C   0  0  0  0  0  0
  -23.7020  -29.7721   20.1399 C   0  0  0  0  0  0
  -25.4121  -36.2931   24.0320 C   0  0  1  0  0  0
  -20.5945  -28.3679   23.1190 C   0  0  2  0  0  0
  -20.6769  -26.9348   22.5399 C   0  0  0  0  0  0
  -19.5761  -26.6369   21.5185 C   0  0  0  0  0  0
  -18.1938  -26.7937   22.1590 C   0  0  0  0  0  0
  -19.1582  -28.8861   23.2803 C   0  0  0  0  0  0
  -18.9506  -30.1465   23.8825 C   0  0  0  0  0  0
  -17.6490  -30.6567   24.0556 C   0  0  0  0  0  0
  -25.9103  -34.9332   23.5013 C   0  0  0  0  0  0
  -16.5372  -29.9067   23.6355 C   0  0  0  0  0  0
  -16.7295  -28.6518   23.0319 C   0  0  0  0  0  0
  -26.4579  -31.6501   25.0661 C   0  0  0  0  0  0
  -25.3723  -31.3706   26.1307 C   0  0  0  0  0  0
  -27.0445  -30.2893   24.6259 C   0  0  0  0  0  0
  -27.6127  -32.4254   25.7423 C   0  0  0  0  0  0
  -27.5545  -37.1717   24.8476 C   0  0  0  0  0  0
  -21.4306  -29.2994   22.3541 N   0  0  0  0  0  0
  -26.4247  -37.3676   23.9454 N   0  0  0  0  0  0
  -24.7397  -31.0027   22.0816 N   0  0  0  0  0  0
  -23.4240  -28.7900   23.2868 O   0  0  0  0  0  0
  -28.2110  -25.9330   20.2710 O   0  0  0  0  0  0
  -26.5682  -34.8876   22.4594 O   0  0  0  0  0  0
  -23.5665  -32.1190   23.6893 O   0  0  0  0  0  0
  -29.1111  -20.4829   22.1234 C   0  0  0  0  0  0
  -28.9004  -21.5732   19.9837 C   0  0  0  0  0  0
  -29.1671  -20.2797   20.7298 C   0  0  0  0  0  0
  -28.7277  -21.7130   22.7223 C   0  0  0  0  0  0
  -28.5193  -22.9318   20.5562 C   0  0  0  0  0  0
  -28.3412  -22.8642   21.9626 C   0  0  0  0  0  0
  -30.8156  -17.7925   20.3939 C   0  0  0  0  0  0
  -28.8873  -17.2749   20.8242 C   0  0  0  0  0  0
  -29.4840  -18.6767   20.2498 C   0  0  0  0  0  0
  -28.7264  -21.7384   24.2465 C   0  0  0  0  0  0
  -27.6307  -24.0228   22.6534 C   0  0  0  0  0  0
  -28.0983  -24.3967   19.7753 C   0  0  0  0  0  0
  -30.0856  -16.4461   20.3921 N   0  0  0  0  0  0
  -31.4578  -12.8484   19.1763 H   0  0  0  0  0  0
  -30.4467  -11.8008   20.1221 H   0  0  0  0  0  0
  -29.8691  -11.7242   17.6464 H   0  0  0  0  0  0
  -29.5563  -13.4472   17.6703 H   0  0  0  0  0  0
  -28.0176  -11.2605   19.1026 H   0  0  0  0  0  0
  -27.3913  -12.3267   17.8683 H   0  0  0  0  0  0
  -27.5417  -14.2360   19.3222 H   0  0  0  0  0  0
  -28.8004  -12.5328   21.5286 H   0  0  0  0  0  0
  -28.3416  -14.2183   21.6501 H   0  0  0  0  0  0
  -25.2805   -9.5676   22.4804 H   0  0  0  0  0  0
  -24.0001   -7.4662   22.7511 H   0  0  0  0  0  0
  -21.0905   -8.8857   19.8963 H   0  0  0  0  0  0
  -22.3817  -10.9713   19.6182 H   0  0  0  0  0  0
  -21.2009   -7.6177   23.9750 H   0  0  0  0  0  0
  -21.1443   -6.0541   25.9095 H   0  0  0  0  0  0
  -22.0596   -2.7645   23.2841 H   0  0  0  0  0  0
  -22.3997  -11.9877   22.4792 H   0  0  0  0  0  0
  -21.1018  -13.1251   22.2572 H   0  0  0  0  0  0
  -24.6488  -15.8602   20.5467 H   0  0  0  0  0  0
  -26.2617  -15.6386   20.0912 H   0  0  0  0  0  0
  -26.7327  -32.5127   23.0898 H   0  0  0  0  0  0
  -25.0214  -33.9523   25.0300 H   0  0  0  0  0  0
  -22.7772  -31.2718   21.3583 H   0  0  0  0  0  0
  -23.3759  -35.9513   23.3285 H   0  0  0  0  0  0
  -24.3616  -36.8845   22.2067 H   0  0  0  0  0  0
  -23.7291  -37.6379   23.6716 H   0  0  0  0  0  0
  -26.1915  -31.4035   20.6010 H   0  0  0  0  0  0
  -26.9026  -30.7237   22.0254 H   0  0  0  0  0  0
  -28.1271  -28.6456   21.2791 H   0  0  0  0  0  0
  -25.8710  -25.8188   18.9170 H   0  0  0  0  0  0
  -24.0008  -27.3106   18.9118 H   0  0  0  0  0  0
  -23.8399  -30.5472   19.3832 H   0  0  0  0  0  0
  -22.8144  -29.2205   19.8226 H   0  0  0  0  0  0
  -25.1304  -36.1714   25.0811 H   0  0  0  0  0  0
  -21.0059  -28.3267   24.1308 H   0  0  0  0  0  0
  -20.5619  -26.2251   23.3611 H   0  0  0  0  0  0
  -21.6625  -26.7306   22.1210 H   0  0  0  0  0  0
  -19.6898  -25.6289   21.1198 H   0  0  0  0  0  0
  -19.6754  -27.3173   20.6711 H   0  0  0  0  0  0
  -17.4206  -26.6684   21.3988 H   0  0  0  0  0  0
  -18.0311  -26.0099   22.9001 H   0  0  0  0  0  0
  -19.7981  -30.7297   24.2155 H   0  0  0  0  0  0
  -17.5048  -31.6253   24.5138 H   0  0  0  0  0  0
  -15.5367  -30.2939   23.7746 H   0  0  0  0  0  0
  -15.8696  -28.0853   22.7011 H   0  0  0  0  0  0
  -24.6110  -30.6800   25.7661 H   0  0  0  0  0  0
  -24.8631  -32.2843   26.4388 H   0  0  0  0  0  0
  -25.7985  -30.9207   27.0277 H   0  0  0  0  0  0
  -26.3057  -29.6586   24.1294 H   0  0  0  0  0  0
  -27.4117  -29.7246   25.4837 H   0  0  0  0  0  0
  -27.8952  -30.4168   23.9550 H   0  0  0  0  0  0
  -27.2849  -33.3746   26.1681 H   0  0  0  0  0  0
  -28.4076  -32.6460   25.0280 H   0  0  0  0  0  0
  -28.0595  -31.8514   26.5560 H   0  0  0  0  0  0
  -28.2475  -38.0070   24.7525 H   0  0  0  0  0  0
  -28.1114  -36.2597   24.6274 H   0  0  0  0  0  0
  -27.2274  -37.1298   25.8873 H   0  0  0  0  0  0
  -20.9498  -29.8767   21.6782 H   0  0  0  0  0  0
  -26.0071  -38.2716   24.1521 H   0  0  0  0  0  0
  -29.3331  -19.6457   22.7723 H   0  0  0  0  0  0
  -28.9589  -21.5043   18.9070 H   0  0  0  0  0  0
  -31.3351  -17.9843   21.3386 H   0  0  0  0  0  0
  -31.5164  -17.9395   19.5693 H   0  0  0  0  0  0
  -27.9445  -16.9827   20.3602 H   0  0  0  0  0  0
  -28.7795  -17.2886   21.9131 H   0  0  0  0  0  0
  -29.2554  -18.6973   19.1813 H   0  0  0  0  0  0
  -29.6219  -21.2503   24.6338 H   0  0  0  0  0  0
  -27.8637  -21.2014   24.6446 H   0  0  0  0  0  0
  -28.7363  -22.7466   24.6586 H   0  0  0  0  0  0
  -27.0950  -23.6923   23.5403 H   0  0  0  0  0  0
  -26.8487  -24.4497   22.0218 H   0  0  0  0  0  0
  -28.3304  -24.8086   22.9304 H   0  0  0  0  0  0
  -27.0626  -24.2242   19.4946 H   0  0  0  0  0  0
  -28.6390  -24.3766   18.8300 H   0  0  0  0  0  0
  1 25  1  0  0  0
  1 30  2  0  0  0
  1 83  1  0  0  0
  2  3  1  0  0  0
  2 25  1  0  0  0
  2 84  1  0  0  0
  2 85  1  0  0  0
  3  4  1  0  0  0
  3 86  1  0  0  0
  3 87  1  0  0  0
  4  5  1  0  0  0
  4 88  1  0  0  0
  4 89  1  0  0  0
  5  6  1  0  0  0
  5 26  1  0  0  0
  5 90  1  0  0  0
  6 25  1  0  0  0
  6 91  1  0  0  0
  6 92  1  0  0  0
  7  8  2  0  0  0
  7 26  1  0  0  0
  7 29  1  0  0  0
  8  9  1  0  0  0
  8 22  1  0  0  0
  9 10  1  0  0  0
  9 27  2  0  0  0
 10 11  2  0  0  0
 10 15  1  0  0  0
 11 12  1  0  0  0
 11 93  1  0  0  0
 12 13  2  0  0  0
 12 94  1  0  0  0
 13 14  1  0  0  0
 13 31  1  0  0  0
 14 15  2  0  0  0
 14 95  1  0  0  0
 15 96  1  0  0  0
 16 17  2  0  0  0
 16 21  1  0  0  0
 16 31  1  0  0  0
 17 18  1  0  0  0
 17 97  1  0  0  0
 18 19  2  0  0  0
 18 98  1  0  0  0
 19 20  1  0  0  0
 19 24  1  0  0  0
 20 21  2  0  0  0
 20 99  1  0  0  0
 21 23  1  0  0  0
 22 28  1  0  0  0
 22 32  2  0  0  0
 26 27  1  0  0  0
 28100  1  0  0  0
 28101  1  0  0  0
 29102  1  0  0  0
 29103  1  0  0  0
 33 34  1  0  0  0
 33 66  1  0  0  0
 33 70  2  0  0  0
 34 36  1  0  0  0
 34 59  1  0  0  0
 34104  1  0  0  0
 35 44  2  0  0  0
 35 45  1  0  0  0
 35 68  1  0  0  0
 36 56  1  0  0  0
 36105  1  0  0  0
 37 39  1  0  0  0
 37 47  1  0  0  0
 37 66  1  0  0  0
 37106  1  0  0  0
 38 43  2  0  0  0
 38 46  1  0  0  0
 38 47  1  0  0  0
 39 64  1  0  0  0
 39 67  2  0  0  0
 40 52  1  0  0  0
 40 53  2  0  0  0
 40 58  1  0  0  0
 41107  1  0  0  0
 41108  1  0  0  0
 41109  1  0  0  0
 41 48  1  0  0  0
 42 43  1  0  0  0
 42 66  1  0  0  0
 42110  1  0  0  0
 42111  1  0  0  0
 43 44  1  0  0  0
 44112  1  0  0  0
 45 46  2  0  0  0
 45113  1  0  0  0
 46114  1  0  0  0
 47115  1  0  0  0
 47116  1  0  0  0
 48 56  1  0  0  0
 48 65  1  0  0  0
 48117  1  0  0  0
 49 50  1  0  0  0
 49 53  1  0  0  0
 49 64  1  0  0  0
 49118  1  0  0  0
 50 51  1  0  0  0
 50119  1  0  0  0
 50120  1  0  0  0
 51 52  1  0  0  0
 51121  1  0  0  0
 51122  1  0  0  0
 52123  1  0  0  0
 52124  1  0  0  0
 53 54  1  0  0  0
 54 55  2  0  0  0
 54125  1  0  0  0
 55 57  1  0  0  0
 55126  1  0  0  0
 56 69  2  0  0  0
 57 58  2  0  0  0
 57127  1  0  0  0
 58128  1  0  0  0
 59 60  1  0  0  0
 59 61  1  0  0  0
 59 62  1  0  0  0
 60129  1  0  0  0
 60130  1  0  0  0
 60131  1  0  0  0
 61132  1  0  0  0
 61133  1  0  0  0
 61134  1  0  0  0
 62135  1  0  0  0
 62136  1  0  0  0
 62137  1  0  0  0
 63 65  1  0  0  0
 63138  1  0  0  0
 63139  1  0  0  0
 63140  1  0  0  0
 64141  1  0  0  0
 65142  1  0  0  0
 68 82  1  0  0  0
 71 73  2  0  0  0
 71 74  1  0  0  0
 71143  1  0  0  0
 72 73  1  0  0  0
 72 75  2  0  0  0
 72144  1  0  0  0
 73 79  1  0  0  0
 74 76  2  0  0  0
 74 80  1  0  0  0
 75 76  1  0  0  0
 75 82  1  0  0  0
 76 81  1  0  0  0
 77 79  1  0  0  0
 77 83  1  0  0  0
 77145  1  0  0  0
 77146  1  0  0  0
 78 79  1  0  0  0
 78 83  1  0  0  0
 78147  1  0  0  0
 78148  1  0  0  0
 79149  1  0  0  0
 80150  1  0  0  0
 80151  1  0  0  0
 80152  1  0  0  0
 81153  1  0  0  0
 81154  1  0  0  0
 81155  1  0  0  0
 82156  1  0  0  0
 82157  1  0  0  0
M  ISO  4   1 100  68 101  82 101  83 100
M  END
> <chiral flag>
0

> <version>
0

> <s_m_source_file>
/data/baiqing/PycharmProjects/Reinvent-master-3.2/result/LINK_invent/BTK/process_docking_weight1_custom_sum_contain_oxygen_bond_distance_aromatic_linkinvent_7_9_3/rearranged_h_0175.sdf

> <i_m_source_file_index>
52

> <r_mmod_Potential_Energy-OPLS-2005>
947.4541015625

> <r_mmod_Stretch_Energy-OPLS-2005>
377.595245361328

> <r_mmod_Bend_Energy-OPLS-2005>
361.969543457031

> <r_mmod_Torsional_Energy-OPLS-2005>
274.298217773438

> <r_mmod_Improper_Torsional_Energy-OPLS-2005>
11.9194583892822

> <r_mmod_Van_der_Waal_Energy-OPLS-2005>
130.939422607422

> <r_mmod_Electrostatic_Energy-OPLS-2005>
-328.31982421875

> <r_mmod_Solvation_Energy-OPLS-2005>
-206.886367797852

> <b_mmod_Minimization_Converged-OPLS-2005>
0

> <r_mmod_RMS_Derivative-OPLS-2005>
5.22334861755371

$$$$
52
                    3D
 Structure written by MMmdl.
177186  0  0  1  0            999 V2000
  -30.6291  -14.6170   20.5320 C   0  0  0  0  0  0
  -30.4399  -12.3940   19.4250 C   0  0  0  0  0  0
  -29.5000  -12.4989   18.2048 C   0  0  0  0  0  0
  -28.0232  -12.3386   18.6238 C   0  0  0  0  0  0
  -27.6492  -13.2094   19.8529 C   0  0  2  0  0  0
  -28.6974  -13.0597   20.9753 C   0  0  0  0  0  0
  -25.2566  -13.8155   20.5653 C   0  0  0  0  0  0
  -24.1829  -13.0437   20.9184 C   0  0  0  0  0  0
  -24.6387  -11.6903   20.8736 C   0  0  0  0  0  0
  -23.9052  -10.4288   21.0413 C   0  0  0  0  0  0
  -24.3612   -9.4206   21.9191 C   0  0  0  0  0  0
  -23.6292   -8.2240   22.0759 C   0  0  0  0  0  0
  -22.4276   -8.0273   21.3538 C   0  0  0  0  0  0
  -21.9903   -9.0251   20.4647 C   0  0  0  0  0  0
  -22.7231  -10.2133   20.3060 C   0  0  0  0  0  0
  -21.6857   -6.0730   22.5280 C   0  0  0  0  0  0
  -21.4011   -6.5635   23.8209 C   0  0  0  0  0  0
  -21.3654   -5.6792   24.9175 C   0  0  0  0  0  0
  -21.6046   -4.3059   24.7229 C   0  0  0  0  0  0
  -21.8822   -3.8146   23.4349 C   0  0  0  0  0  0
  -21.9193   -4.6956   22.3402 C   0  0  0  0  0  0
  -22.7855  -13.5238   21.1854 C   0  0  0  0  0  0
  -22.1665   -4.2141   21.0981 F   0  0  0  0  0  0
  -21.5627   -3.4545   25.7742 F   0  0  0  0  0  0
  -30.0032  -13.4093   20.3972 N   0  0  0  0  0  0
  -26.2972  -12.9320   20.3268 N   0  0  0  0  0  0
  -25.9307  -11.6483   20.5737 N   0  0  0  0  0  0
  -22.0488  -12.8213   22.0396 N   0  0  0  0  0  0
  -25.4284  -15.1879   20.4048 N   0  0  0  0  0  0
  -31.8154  -14.7677   20.2379 O   0  0  0  0  0  0
  -21.6641   -6.8872   21.4242 O   0  0  0  0  0  0
  -22.3541  -14.5552   20.6715 O   0  0  0  0  0  0
  -24.6255  -31.8615   23.2049 C   0  0  0  0  0  0
  -25.9104  -32.4801   23.8360 C   0  0  1  0  0  0
  -27.2155  -27.3299   20.0952 C   0  0  0  0  0  0
  -25.5956  -33.8608   24.2275 N   0  0  0  0  0  0
  -23.4162  -30.4900   21.5484 C   0  0  2  0  0  0
  -24.8559  -28.9509   20.1154 C   0  0  0  0  0  0
  -22.7465  -29.4638   22.4928 C   0  0  0  0  0  0
  -18.0285  -28.1367   22.8476 C   0  0  0  0  0  0
  -24.1493  -36.7297   23.2634 C   0  0  0  0  0  0
  -25.9592  -30.7970   21.3735 C   0  0  0  0  0  0
  -26.0312  -29.4265   20.7136 C   0  0  0  0  0  0
  -27.2132  -28.6278   20.6934 C   0  0  0  0  0  0
  -25.9959  -26.8951   19.5187 C   0  0  0  0  0  0
  -24.8396  -27.6880   19.5168 C   0  0  0  0  0  0
  -23.6270  -29.8321   20.1623 C   0  0  0  0  0  0
  -25.4126  -36.3100   24.0309 C   0  0  1  0  0  0
  -20.5884  -28.3667   23.1269 C   0  0  2  0  0  0
  -20.6790  -26.9387   22.5398 C   0  0  0  0  0  0
  -19.5763  -26.6355   21.5217 C   0  0  0  0  0  0
  -18.1932  -26.7909   22.1608 C   0  0  0  0  0  0
  -19.1536  -28.8837   23.2868 C   0  0  0  0  0  0
  -18.9473  -30.1453   23.8859 C   0  0  0  0  0  0
  -17.6472  -30.6575   24.0560 C   0  0  0  0  0  0
  -25.9048  -34.9468   23.5072 C   0  0  0  0  0  0
  -16.5364  -29.9065   23.6348 C   0  0  0  0  0  0
  -16.7272  -28.6491   23.0346 C   0  0  0  0  0  0
  -26.4492  -31.6630   25.0734 C   0  0  0  0  0  0
  -25.3725  -31.3810   26.1475 C   0  0  0  0  0  0
  -27.0346  -30.3060   24.6196 C   0  0  0  0  0  0
  -27.6037  -32.4393   25.7492 C   0  0  0  0  0  0
  -27.5581  -37.1806   24.8451 C   0  0  0  0  0  0
  -21.4169  -29.3047   22.3685 N   0  0  0  0  0  0
  -26.4291  -37.3805   23.9400 N   0  0  0  0  0  0
  -24.6864  -31.0653   22.0989 N   0  0  0  0  0  0
  -23.4202  -28.8142   23.2960 O   0  0  0  0  0  0
  -28.3571  -26.5054   20.1018 O   0  0  0  0  0  0
  -26.5590  -34.8920   22.4621 O   0  0  0  0  0  0
  -23.5421  -32.1383   23.7394 O   0  0  0  0  0  0
  -32.2629  -19.9204   21.4614 C   0  0  0  0  0  0
  -31.3089  -20.9199   21.2302 C   0  0  0  0  0  0
  -31.8656  -18.5761   21.5281 C   0  0  0  0  0  0
  -30.5082  -18.2441   21.2872 C   0  0  0  0  0  0
  -29.9740  -20.5660   20.9541 C   0  0  0  0  0  0
  -31.7119  -22.3726   21.3857 C   0  0  0  0  0  0
  -30.5487  -23.1355   22.0171 C   0  0  0  0  0  0
  -29.3099  -23.0575   21.1090 C   0  0  1  0  0  0
  -33.0492  -17.5335   23.5188 C   0  0  0  0  0  0
  -28.2534  -25.2195   18.0280 C   0  0  0  0  0  0
  -25.8397  -22.4450   21.6085 C   0  0  0  0  0  0
  -32.9138  -17.5742   21.9888 C   0  0  0  0  0  0
  -29.9726  -16.8347   21.7158 C   0  0  0  0  0  0
  -29.4460  -24.1197   19.9409 C   0  0  0  0  0  0
  -27.6931  -21.2659   20.2359 C   0  0  0  0  0  0
  -28.2748  -25.1249   19.5734 C   0  0  1  0  0  0
  -26.6399  -21.1524   21.3640 C   0  0  2  0  0  0
  -29.6018  -19.2376   20.9729 N   0  0  0  0  0  0
  -29.0293  -21.6280   20.7152 N   0  0  0  0  0  0
  -29.8064  -15.6679   20.8023 N   0  0  0  0  0  0
  -25.6919  -20.1628   21.0068 O   0  0  0  0  0  0
  -31.4769  -12.5402   19.1170 H   0  0  0  0  0  0
  -30.3922  -11.3984   19.8683 H   0  0  0  0  0  0
  -29.7612  -11.7426   17.4638 H   0  0  0  0  0  0
  -29.6389  -13.4641   17.7153 H   0  0  0  0  0  0
  -27.8580  -11.2849   18.8534 H   0  0  0  0  0  0
  -27.3665  -12.5710   17.7841 H   0  0  0  0  0  0
  -27.6660  -14.2442   19.5114 H   0  0  0  0  0  0
  -28.7153  -12.0363   21.3531 H   0  0  0  0  0  0
  -28.4490  -13.6886   21.8316 H   0  0  0  0  0  0
  -25.2762   -9.5687   22.4756 H   0  0  0  0  0  0
  -24.0004   -7.4632   22.7479 H   0  0  0  0  0  0
  -21.0832   -8.8771   19.8953 H   0  0  0  0  0  0
  -22.3696  -10.9671   19.6158 H   0  0  0  0  0  0
  -21.2003   -7.6139   23.9708 H   0  0  0  0  0  0
  -21.1471   -6.0526   25.9075 H   0  0  0  0  0  0
  -22.0601   -2.7607   23.2859 H   0  0  0  0  0  0
  -22.4095  -11.9863   22.4771 H   0  0  0  0  0  0
  -21.1098  -13.1223   22.2596 H   0  0  0  0  0  0
  -24.6616  -15.8421   20.5192 H   0  0  0  0  0  0
  -26.2675  -15.6266   20.0495 H   0  0  0  0  0  0
  -26.7160  -32.5463   23.1093 H   0  0  0  0  0  0
  -25.0277  -33.9786   25.0537 H   0  0  0  0  0  0
  -22.7093  -31.3095   21.4075 H   0  0  0  0  0  0
  -23.3760  -35.9627   23.3306 H   0  0  0  0  0  0
  -24.3573  -36.8922   22.2049 H   0  0  0  0  0  0
  -23.7236  -37.6493   23.6654 H   0  0  0  0  0  0
  -26.0844  -31.5607   20.6048 H   0  0  0  0  0  0
  -26.8435  -30.8435   21.9991 H   0  0  0  0  0  0
  -28.1169  -28.9938   21.1620 H   0  0  0  0  0  0
  -25.8849  -25.9256   19.0625 H   0  0  0  0  0  0
  -23.9342  -27.3073   19.0626 H   0  0  0  0  0  0
  -23.7439  -30.6091   19.4053 H   0  0  0  0  0  0
  -22.7463  -29.2611   19.8596 H   0  0  0  0  0  0
  -25.1311  -36.1962   25.0799 H   0  0  0  0  0  0
  -20.9993  -28.3252   24.1380 H   0  0  0  0  0  0
  -20.5737  -26.2263   23.3592 H   0  0  0  0  0  0
  -21.6652  -26.7429   22.1168 H   0  0  0  0  0  0
  -19.6934  -25.6272   21.1242 H   0  0  0  0  0  0
  -19.6728  -27.3169   20.6754 H   0  0  0  0  0  0
  -17.4222  -26.6682   21.3984 H   0  0  0  0  0  0
  -18.0292  -26.0036   22.8976 H   0  0  0  0  0  0
  -19.7963  -30.7292   24.2169 H   0  0  0  0  0  0
  -17.5034  -31.6252   24.5171 H   0  0  0  0  0  0
  -15.5370  -30.2968   23.7691 H   0  0  0  0  0  0
  -15.8660  -28.0826   22.7046 H   0  0  0  0  0  0
  -24.5906  -30.7124   25.7851 H   0  0  0  0  0  0
  -24.8902  -32.3008   26.4815 H   0  0  0  0  0  0
  -25.8066  -30.9090   27.0300 H   0  0  0  0  0  0
  -26.2942  -29.6814   24.1191 H   0  0  0  0  0  0
  -27.4023  -29.7319   25.4710 H   0  0  0  0  0  0
  -27.8801  -30.4342   23.9425 H   0  0  0  0  0  0
  -27.2624  -33.3707   26.2014 H   0  0  0  0  0  0
  -28.3874  -32.6958   25.0347 H   0  0  0  0  0  0
  -28.0666  -31.8566   26.5463 H   0  0  0  0  0  0
  -28.2597  -38.0106   24.7523 H   0  0  0  0  0  0
  -28.1082  -36.2639   24.6264 H   0  0  0  0  0  0
  -27.2283  -37.1448   25.8847 H   0  0  0  0  0  0
  -20.9311  -29.8832   21.6976 H   0  0  0  0  0  0
  -26.0173  -38.2870   24.1454 H   0  0  0  0  0  0
  -33.2835  -20.1947   21.6906 H   0  0  0  0  0  0
  -31.9758  -22.7870   20.4115 H   0  0  0  0  0  0
  -32.5940  -22.4538   22.0221 H   0  0  0  0  0  0
  -30.8260  -24.1709   22.2233 H   0  0  0  0  0  0
  -30.3142  -22.6977   22.9891 H   0  0  0  0  0  0
  -28.4946  -23.3971   21.7392 H   0  0  0  0  0  0
  -33.8331  -16.8370   23.8176 H   0  0  0  0  0  0
  -32.1277  -17.2117   24.0039 H   0  0  0  0  0  0
  -33.3086  -18.5120   23.9238 H   0  0  0  0  0  0
  -28.0763  -24.2411   17.5802 H   0  0  0  0  0  0
  -29.2095  -25.5838   17.6506 H   0  0  0  0  0  0
  -27.4926  -25.8865   17.6307 H   0  0  0  0  0  0
  -26.4617  -23.2654   21.9566 H   0  0  0  0  0  0
  -25.0807  -22.2951   22.3758 H   0  0  0  0  0  0
  -25.3331  -22.7879   20.7043 H   0  0  0  0  0  0
  -33.8758  -17.8521   21.5544 H   0  0  0  0  0  0
  -32.7019  -16.5827   21.6049 H   0  0  0  0  0  0
  -28.9820  -17.0079   22.1362 H   0  0  0  0  0  0
  -30.5432  -16.4837   22.5732 H   0  0  0  0  0  0
  -29.7244  -23.5462   19.0571 H   0  0  0  0  0  0
  -30.3238  -24.7442   20.1098 H   0  0  0  0  0  0
  -27.3697  -21.9915   19.4885 H   0  0  0  0  0  0
  -27.7604  -20.3217   19.6932 H   0  0  0  0  0  0
  -27.3564  -24.6568   19.9258 H   0  0  0  0  0  0
  -27.1178  -20.8311   22.2918 H   0  0  0  0  0  0
  -28.8365  -15.4201   20.7025 H   0  0  0  0  0  0
  -25.3105  -20.4075   20.1694 H   0  0  0  0  0  0
  1 25  1  0  0  0
  1 30  2  0  0  0
  1 90  1  0  0  0
  2  3  1  0  0  0
  2 25  1  0  0  0
  2 92  1  0  0  0
  2 93  1  0  0  0
  3  4  1  0  0  0
  3 94  1  0  0  0
  3 95  1  0  0  0
  4  5  1  0  0  0
  4 96  1  0  0  0
  4 97  1  0  0  0
  5  6  1  0  0  0
  5 26  1  0  0  0
  5 98  1  0  0  0
  6 25  1  0  0  0
  6 99  1  0  0  0
  6100  1  0  0  0
  7  8  2  0  0  0
  7 26  1  0  0  0
  7 29  1  0  0  0
  8  9  1  0  0  0
  8 22  1  0  0  0
  9 10  1  0  0  0
  9 27  2  0  0  0
 10 11  2  0  0  0
 10 15  1  0  0  0
 11 12  1  0  0  0
 11101  1  0  0  0
 12 13  2  0  0  0
 12102  1  0  0  0
 13 14  1  0  0  0
 13 31  1  0  0  0
 14 15  2  0  0  0
 14103  1  0  0  0
 15104  1  0  0  0
 16 17  2  0  0  0
 16 21  1  0  0  0
 16 31  1  0  0  0
 17 18  1  0  0  0
 17105  1  0  0  0
 18 19  2  0  0  0
 18106  1  0  0  0
 19 20  1  0  0  0
 19 24  1  0  0  0
 20 21  2  0  0  0
 20107  1  0  0  0
 21 23  1  0  0  0
 22 28  1  0  0  0
 22 32  2  0  0  0
 26 27  1  0  0  0
 28108  1  0  0  0
 28109  1  0  0  0
 29110  1  0  0  0
 29111  1  0  0  0
 33 34  1  0  0  0
 33 66  1  0  0  0
 33 70  2  0  0  0
 34 36  1  0  0  0
 34 59  1  0  0  0
 34112  1  0  0  0
 35 44  2  0  0  0
 35 45  1  0  0  0
 35 68  1  0  0  0
 36 56  1  0  0  0
 36113  1  0  0  0
 37 39  1  0  0  0
 37 47  1  0  0  0
 37 66  1  0  0  0
 37114  1  0  0  0
 38 43  2  0  0  0
 38 46  1  0  0  0
 38 47  1  0  0  0
 39 64  1  0  0  0
 39 67  2  0  0  0
 40 52  1  0  0  0
 40 53  2  0  0  0
 40 58  1  0  0  0
 41115  1  0  0  0
 41116  1  0  0  0
 41117  1  0  0  0
 41 48  1  0  0  0
 42 43  1  0  0  0
 42 66  1  0  0  0
 42118  1  0  0  0
 42119  1  0  0  0
 43 44  1  0  0  0
 44120  1  0  0  0
 45 46  2  0  0  0
 45121  1  0  0  0
 46122  1  0  0  0
 47123  1  0  0  0
 47124  1  0  0  0
 48 56  1  0  0  0
 48 65  1  0  0  0
 48125  1  0  0  0
 49 50  1  0  0  0
 49 53  1  0  0  0
 49 64  1  0  0  0
 49126  1  0  0  0
 50 51  1  0  0  0
 50127  1  0  0  0
 50128  1  0  0  0
 51 52  1  0  0  0
 51129  1  0  0  0
 51130  1  0  0  0
 52131  1  0  0  0
 52132  1  0  0  0
 53 54  1  0  0  0
 54 55  2  0  0  0
 54133  1  0  0  0
 55 57  1  0  0  0
 55134  1  0  0  0
 56 69  2  0  0  0
 57 58  2  0  0  0
 57135  1  0  0  0
 58136  1  0  0  0
 59 60  1  0  0  0
 59 61  1  0  0  0
 59 62  1  0  0  0
 60137  1  0  0  0
 60138  1  0  0  0
 60139  1  0  0  0
 61140  1  0  0  0
 61141  1  0  0  0
 61142  1  0  0  0
 62143  1  0  0  0
 62144  1  0  0  0
 62145  1  0  0  0
 63 65  1  0  0  0
 63146  1  0  0  0
 63147  1  0  0  0
 63148  1  0  0  0
 64149  1  0  0  0
 65150  1  0  0  0
 68 86  1  0  0  0
 71 72  2  0  0  0
 71 73  1  0  0  0
 71151  1  0  0  0
 72 75  1  0  0  0
 72 76  1  0  0  0
 73 74  2  0  0  0
 73 82  1  0  0  0
 74 83  1  0  0  0
 74 88  1  0  0  0
 75 88  2  0  0  0
 75 89  1  0  0  0
 76 77  1  0  0  0
 76152  1  0  0  0
 76153  1  0  0  0
 77 78  1  0  0  0
 77154  1  0  0  0
 77155  1  0  0  0
 78 84  1  0  0  0
 78 89  1  0  0  0
 78156  1  0  0  0
 79 82  1  0  0  0
 79157  1  0  0  0
 79158  1  0  0  0
 79159  1  0  0  0
 80160  1  0  0  0
 80161  1  0  0  0
 80162  1  0  0  0
 80 86  1  0  0  0
 81163  1  0  0  0
 81164  1  0  0  0
 81165  1  0  0  0
 81 87  1  0  0  0
 82166  1  0  0  0
 82167  1  0  0  0
 83 90  1  0  0  0
 83168  1  0  0  0
 83169  1  0  0  0
 84 86  1  0  0  0
 84170  1  0  0  0
 84171  1  0  0  0
 85 87  1  0  0  0
 85 89  1  0  0  0
 85172  1  0  0  0
 85173  1  0  0  0
 86174  1  0  0  0
 87 91  1  0  0  0
 87175  1  0  0  0
 90176  1  0  0  0
 91177  1  0  0  0
M  ISO  4   1 100  68 101  86 101  90 100
M  END
> <chiral flag>
0

> <version>
0

> <s_m_source_file>
/data/baiqing/PycharmProjects/Reinvent-master-3.2/result/LINK_invent/BTK/process_docking_weight1_custom_sum_contain_oxygen_bond_distance_aromatic_linkinvent_7_9_3/rearranged_h_0175.sdf

> <i_m_source_file_index>
53

> <r_mmod_Potential_Energy-OPLS-2005>
-230.495834350586

> <r_mmod_Stretch_Energy-OPLS-2005>
79.3280563354492

> <r_mmod_Bend_Energy-OPLS-2005>
175.48225402832

> <r_mmod_Torsional_Energy-OPLS-2005>
267.379028320312

> <r_mmod_Improper_Torsional_Energy-OPLS-2005>
9.58458709716797

> <r_mmod_Van_der_Waal_Energy-OPLS-2005>
162.533676147461

> <r_mmod_Electrostatic_Energy-OPLS-2005>
-719.476440429688

> <r_mmod_Solvation_Energy-OPLS-2005>
-249.988571166992

> <b_mmod_Minimization_Converged-OPLS-2005>
0

> <r_mmod_RMS_Derivative-OPLS-2005>
2.17072558403015

$$$$
53
                    3D
 Structure written by MMmdl.
162171  0  0  1  0            999 V2000
  -29.6100  -17.3673   20.5889 C   0  0  0  0  0  0
  -30.1655  -14.4336   19.6629 C   0  0  0  0  0  0
  -29.5894  -13.3522   18.5860 C   0  0  0  0  0  0
  -28.3427  -12.5982   19.0454 C   0  0  0  0  0  0
  -27.5729  -13.5995   19.9063 C   0  0  2  0  0  0
  -28.3997  -14.5257   20.9490 C   0  0  0  0  0  0
  -25.1895  -13.8804   20.6071 C   0  0  0  0  0  0
  -24.1592  -13.0540   20.9352 C   0  0  0  0  0  0
  -24.6730  -11.7202   20.8709 C   0  0  0  0  0  0
  -23.9455  -10.4403   21.0264 C   0  0  0  0  0  0
  -24.3863   -9.4281   21.9091 C   0  0  0  0  0  0
  -23.6446   -8.2341   22.0722 C   0  0  0  0  0  0
  -22.4398   -8.0378   21.3539 C   0  0  0  0  0  0
  -22.0125   -9.0361   20.4597 C   0  0  0  0  0  0
  -22.7561  -10.2200   20.2962 C   0  0  0  0  0  0
  -21.6912   -6.0779   22.5270 C   0  0  0  0  0  0
  -21.4065   -6.5668   23.8207 C   0  0  0  0  0  0
  -21.3677   -5.6811   24.9164 C   0  0  0  0  0  0
  -21.6040   -4.3070   24.7210 C   0  0  0  0  0  0
  -21.8808   -3.8167   23.4329 C   0  0  0  0  0  0
  -21.9211   -4.6994   22.3391 C   0  0  0  0  0  0
  -22.7514  -13.4987   21.1935 C   0  0  0  0  0  0
  -22.1659   -4.2180   21.0966 F   0  0  0  0  0  0
  -21.5625   -3.4543   25.7716 F   0  0  0  0  0  0
  -29.2769  -15.6989   20.3267 N   0  0  0  0  0  0
  -26.2851  -13.0803   20.3889 N   0  0  0  0  0  0
  -25.9840  -11.7516   20.5750 N   0  0  0  0  0  0
  -22.0294  -12.7888   22.0509 N   0  0  0  0  0  0
  -25.2905  -15.2589   20.4471 N   0  0  0  0  0  0
  -30.8553  -17.0060   20.5139 O   0  0  0  0  0  0
  -21.6716   -6.8970   21.4248 O   0  0  0  0  0  0
  -22.3065  -14.5246   20.6794 O   0  0  0  0  0  0
  -24.8231  -31.3573   23.3292 C   0  0  0  0  0  0
  -25.9776  -32.2757   23.8682 C   0  0  1  0  0  0
  -26.7622  -25.7132   19.7019 C   0  0  0  0  0  0
  -25.5492  -33.6985   24.1256 N   0  0  0  0  0  0
  -23.7822  -29.7388   21.6945 C   0  0  2  0  0  0
  -25.7319  -28.7182   19.2138 C   0  0  0  0  0  0
  -22.7772  -29.0837   22.5856 C   0  0  0  0  0  0
  -18.0015  -28.1475   22.8259 C   0  0  0  0  0  0
  -24.1482  -36.6575   23.2642 C   0  0  0  0  0  0
  -26.6956  -29.4252   22.3678 C   0  0  0  0  0  0
  -27.3892  -28.8911   20.6561 C   0  0  0  0  0  0
  -28.0398  -27.2350   21.0413 C   0  0  0  0  0  0
  -25.4935  -26.1167   18.9213 C   0  0  0  0  0  0
  -25.1023  -27.5108   18.5869 C   0  0  0  0  0  0
  -24.0345  -28.9640   20.0550 C   0  0  0  0  0  0
  -25.4120  -36.2039   24.0135 C   0  0  1  0  0  0
  -20.5440  -28.3305   23.1271 C   0  0  2  0  0  0
  -20.6163  -26.8924   22.5664 C   0  0  0  0  0  0
  -19.5404  -26.6173   21.5210 C   0  0  0  0  0  0
  -18.1547  -26.7983   22.1433 C   0  0  0  0  0  0
  -19.1315  -28.8886   23.2582 C   0  0  0  0  0  0
  -18.9415  -30.1498   23.8648 C   0  0  0  0  0  0
  -17.6454  -30.6648   24.0480 C   0  0  0  0  0  0
  -25.9066  -34.8280   23.4730 C   0  0  0  0  0  0
  -16.5282  -29.9214   23.6333 C   0  0  0  0  0  0
  -16.7056  -28.6667   23.0238 C   0  0  0  0  0  0
  -26.5009  -31.6720   25.2226 C   0  0  0  0  0  0
  -25.3674  -31.4907   26.2635 C   0  0  0  0  0  0
  -27.1614  -30.2891   25.1074 C   0  0  0  0  0  0
  -27.5997  -32.5735   25.8157 C   0  0  0  0  0  0
  -27.5444  -37.1355   24.8410 C   0  0  0  0  0  0
  -21.4597  -29.1864   22.3712 N   0  0  0  0  0  0
  -26.4145  -37.2973   23.9325 N   0  0  0  0  0  0
  -25.0649  -30.0832   22.7193 N   0  0  0  0  0  0
  -23.2461  -28.4530   23.5235 O   0  0  0  0  0  0
  -27.2122  -25.0106   18.6027 O   0  0  0  0  0  0
  -26.6232  -34.8106   22.4712 O   0  0  0  0  0  0
  -23.6846  -31.8356   23.5216 O   0  0  0  0  0  0
  -26.6372  -25.5324   21.9139 C   0  0  0  0  0  0
  -25.8896  -27.3682   20.9329 C   0  0  0  0  0  0
  -27.7060  -27.4563   18.8964 C   0  0  0  0  0  0
  -27.9226  -24.0589   21.1751 C   0  0  0  0  0  0
  -29.0587  -26.2517   19.1937 C   0  0  0  0  0  0
  -27.0050  -26.2500   24.4531 C   0  0  0  0  0  0
  -27.6336  -24.9229   24.1748 C   0  0  0  0  0  0
  -26.4122  -25.3443   23.3824 C   0  0  0  0  0  0
  -25.7791  -30.4354   20.5494 C   0  0  0  0  0  0
  -30.3632  -26.3726   18.4240 C   0  0  0  0  0  0
  -27.5802  -27.2506   17.3838 C   0  0  0  0  0  0
  -28.5295  -21.5834   21.2686 C   0  0  0  0  0  0
  -27.3691  -25.6863   17.2612 C   0  0  0  0  0  0
  -29.0041  -24.8948   20.2144 N   0  0  0  0  0  0
  -28.9264  -19.2376   20.7917 N   0  0  0  0  0  0
  -30.9768  -14.9193   19.1254 H   0  0  0  0  0  0
  -30.7101  -13.9048   20.4451 H   0  0  0  0  0  0
  -30.3732  -12.6439   18.3058 H   0  0  0  0  0  0
  -29.3418  -13.9000   17.6754 H   0  0  0  0  0  0
  -28.6330  -11.7395   19.6493 H   0  0  0  0  0  0
  -27.7522  -12.2332   18.2022 H   0  0  0  0  0  0
  -27.2745  -14.3271   19.1493 H   0  0  0  0  0  0
  -28.9370  -13.9214   21.6838 H   0  0  0  0  0  0
  -27.6814  -15.0582   21.5683 H   0  0  0  0  0  0
  -25.2972   -9.5719   22.4725 H   0  0  0  0  0  0
  -24.0087   -7.4749   22.7519 H   0  0  0  0  0  0
  -21.1022   -8.8919   19.8935 H   0  0  0  0  0  0
  -22.3990  -10.9714   19.6065 H   0  0  0  0  0  0
  -21.2074   -7.6178   23.9728 H   0  0  0  0  0  0
  -21.1505   -6.0531   25.9072 H   0  0  0  0  0  0
  -22.0570   -2.7628   23.2818 H   0  0  0  0  0  0
  -22.4059  -11.9610   22.4894 H   0  0  0  0  0  0
  -21.0854  -13.0737   22.2723 H   0  0  0  0  0  0
  -24.4915  -15.8761   20.5397 H   0  0  0  0  0  0
  -26.1316  -15.7350   20.1472 H   0  0  0  0  0  0
  -26.7786  -32.2984   23.1303 H   0  0  0  0  0  0
  -24.8974  -33.8094   24.8861 H   0  0  0  0  0  0
  -23.2839  -30.6782   21.4347 H   0  0  0  0  0  0
  -23.3708  -35.8939   23.3056 H   0  0  0  0  0  0
  -24.3526  -36.8559   22.2111 H   0  0  0  0  0  0
  -23.7321  -37.5650   23.7008 H   0  0  0  0  0  0
  -27.4236  -30.1919   22.6005 H   0  0  0  0  0  0
  -26.8550  -28.6024   23.0517 H   0  0  0  0  0  0
  -28.8238  -26.9838   21.7322 H   0  0  0  0  0  0
  -24.9450  -25.3481   18.3947 H   0  0  0  0  0  0
  -24.2206  -27.6429   17.9665 H   0  0  0  0  0  0
  -23.4789  -28.0290   20.1424 H   0  0  0  0  0  0
  -23.4171  -29.5183   19.3463 H   0  0  0  0  0  0
  -25.1384  -36.0697   25.0617 H   0  0  0  0  0  0
  -20.8942  -28.2869   24.1625 H   0  0  0  0  0  0
  -20.4536  -26.2035   23.3940 H   0  0  0  0  0  0
  -21.6053  -26.6362   22.1832 H   0  0  0  0  0  0
  -19.6435  -25.6063   21.1265 H   0  0  0  0  0  0
  -19.6703  -27.3006   20.6801 H   0  0  0  0  0  0
  -17.3946  -26.6889   21.3694 H   0  0  0  0  0  0
  -17.9637  -26.0150   22.8783 H   0  0  0  0  0  0
  -19.7961  -30.7202   24.2045 H   0  0  0  0  0  0
  -17.5087  -31.6279   24.5192 H   0  0  0  0  0  0
  -15.5307  -30.3148   23.7762 H   0  0  0  0  0  0
  -15.8417  -28.1018   22.6991 H   0  0  0  0  0  0
  -24.6557  -30.7085   25.9984 H   0  0  0  0  0  0
  -24.7916  -32.4037   26.4172 H   0  0  0  0  0  0
  -25.7737  -31.2202   27.2389 H   0  0  0  0  0  0
  -26.4518  -29.4959   24.8906 H   0  0  0  0  0  0
  -27.5372  -29.9877   26.0864 H   0  0  0  0  0  0
  -28.0574  -30.2737   24.4925 H   0  0  0  0  0  0
  -27.2088  -33.5381   26.1436 H   0  0  0  0  0  0
  -28.3914  -32.7738   25.0918 H   0  0  0  0  0  0
  -28.0662  -32.1233   26.6934 H   0  0  0  0  0  0
  -28.2298  -37.9776   24.7382 H   0  0  0  0  0  0
  -28.1106  -36.2266   24.6336 H   0  0  0  0  0  0
  -27.2110  -37.1001   25.8789 H   0  0  0  0  0  0
  -21.0995  -29.7340   21.6030 H   0  0  0  0  0  0
  -25.9817  -38.1982   24.1205 H   0  0  0  0  0  0
  -26.4714  -26.3491   25.3958 H   0  0  0  0  0  0
  -27.6808  -27.0648   24.2167 H   0  0  0  0  0  0
  -27.5051  -24.1257   24.8935 H   0  0  0  0  0  0
  -28.6142  -24.9783   23.6948 H   0  0  0  0  0  0
  -25.4958  -24.7951   23.5932 H   0  0  0  0  0  0
  -24.9255  -31.0387   20.1836 H   0  0  0  0  0  0
  -26.3384  -31.2094   21.0934 H   0  0  0  0  0  0
  -26.3718  -30.8056   19.6835 H   0  0  0  0  0  0
  -30.5423  -27.3938   18.0749 H   0  0  0  0  0  0
  -30.3577  -25.7090   17.5637 H   0  0  0  0  0  0
  -31.2032  -26.0962   19.0600 H   0  0  0  0  0  0
  -28.5125  -27.5767   16.9215 H   0  0  0  0  0  0
  -26.8213  -27.8459   16.8786 H   0  0  0  0  0  0
  -28.0576  -21.4063   22.2381 H   0  0  0  0  0  0
  -29.5773  -21.7857   21.5092 H   0  0  0  0  0  0
  -28.2075  -25.2167   16.7442 H   0  0  0  0  0  0
  -26.5072  -25.4810   16.6261 H   0  0  0  0  0  0
  -29.9094  -19.4778   20.7408 H   0  0  0  0  0  0
  1 25  1  0  0  0
  1 30  2  0  0  0
  1 85  1  0  0  0
  2  3  1  0  0  0
  2 25  1  0  0  0
  2 86  1  0  0  0
  2 87  1  0  0  0
  3  4  1  0  0  0
  3 88  1  0  0  0
  3 89  1  0  0  0
  4  5  1  0  0  0
  4 90  1  0  0  0
  4 91  1  0  0  0
  5  6  1  0  0  0
  5 26  1  0  0  0
  5 92  1  0  0  0
  6 25  1  0  0  0
  6 93  1  0  0  0
  6 94  1  0  0  0
  7  8  2  0  0  0
  7 26  1  0  0  0
  7 29  1  0  0  0
  8  9  1  0  0  0
  8 22  1  0  0  0
  9 10  1  0  0  0
  9 27  2  0  0  0
 10 11  2  0  0  0
 10 15  1  0  0  0
 11 12  1  0  0  0
 11 95  1  0  0  0
 12 13  2  0  0  0
 12 96  1  0  0  0
 13 14  1  0  0  0
 13 31  1  0  0  0
 14 15  2  0  0  0
 14 97  1  0  0  0
 15 98  1  0  0  0
 16 17  2  0  0  0
 16 21  1  0  0  0
 16 31  1  0  0  0
 17 18  1  0  0  0
 17 99  1  0  0  0
 18 19  2  0  0  0
 18100  1  0  0  0
 19 20  1  0  0  0
 19 24  1  0  0  0
 20 21  2  0  0  0
 20101  1  0  0  0
 21 23  1  0  0  0
 22 28  1  0  0  0
 22 32  2  0  0  0
 26 27  1  0  0  0
 28102  1  0  0  0
 28103  1  0  0  0
 29104  1  0  0  0
 29105  1  0  0  0
 33 34  1  0  0  0
 33 66  1  0  0  0
 33 70  2  0  0  0
 34 36  1  0  0  0
 34 59  1  0  0  0
 34106  1  0  0  0
 35 44  2  0  0  0
 35 45  1  0  0  0
 35 68  1  0  0  0
 36 56  1  0  0  0
 36107  1  0  0  0
 37 39  1  0  0  0
 37 47  1  0  0  0
 37 66  1  0  0  0
 37108  1  0  0  0
 38 43  2  0  0  0
 38 46  1  0  0  0
 38 47  1  0  0  0
 39 64  1  0  0  0
 39 67  2  0  0  0
 40 52  1  0  0  0
 40 53  2  0  0  0
 40 58  1  0  0  0
 41109  1  0  0  0
 41110  1  0  0  0
 41111  1  0  0  0
 41 48  1  0  0  0
 42 43  1  0  0  0
 42 66  1  0  0  0
 42112  1  0  0  0
 42113  1  0  0  0
 43 44  1  0  0  0
 44114  1  0  0  0
 45 46  2  0  0  0
 45115  1  0  0  0
 46116  1  0  0  0
 47117  1  0  0  0
 47118  1  0  0  0
 48 56  1  0  0  0
 48 65  1  0  0  0
 48119  1  0  0  0
 49 50  1  0  0  0
 49 53  1  0  0  0
 49 64  1  0  0  0
 49120  1  0  0  0
 50 51  1  0  0  0
 50121  1  0  0  0
 50122  1  0  0  0
 51 52  1  0  0  0
 51123  1  0  0  0
 51124  1  0  0  0
 52125  1  0  0  0
 52126  1  0  0  0
 53 54  1  0  0  0
 54 55  2  0  0  0
 54127  1  0  0  0
 55 57  1  0  0  0
 55128  1  0  0  0
 56 69  2  0  0  0
 57 58  2  0  0  0
 57129  1  0  0  0
 58130  1  0  0  0
 59 60  1  0  0  0
 59 61  1  0  0  0
 59 62  1  0  0  0
 60131  1  0  0  0
 60132  1  0  0  0
 60133  1  0  0  0
 61134  1  0  0  0
 61135  1  0  0  0
 61136  1  0  0  0
 62137  1  0  0  0
 62138  1  0  0  0
 62139  1  0  0  0
 63 65  1  0  0  0
 63140  1  0  0  0
 63141  1  0  0  0
 63142  1  0  0  0
 64143  1  0  0  0
 65144  1  0  0  0
 68 83  1  0  0  0
 71 72  2  0  0  0
 71 74  1  0  0  0
 71 78  1  0  0  0
 72 73  1  0  0  0
 72 79  1  0  0  0
 73 75  2  0  0  0
 73 81  1  0  0  0
 74 82  1  0  0  0
 74 84  2  0  0  0
 75 80  1  0  0  0
 75 84  1  0  0  0
 76 77  1  0  0  0
 76 78  1  0  0  0
 76145  1  0  0  0
 76146  1  0  0  0
 77 78  1  0  0  0
 77147  1  0  0  0
 77148  1  0  0  0
 78149  1  0  0  0
 79150  1  0  0  0
 79151  1  0  0  0
 79152  1  0  0  0
 80153  1  0  0  0
 80154  1  0  0  0
 80155  1  0  0  0
 81 83  1  0  0  0
 81156  1  0  0  0
 81157  1  0  0  0
 82 85  1  0  0  0
 82158  1  0  0  0
 82159  1  0  0  0
 83160  1  0  0  0
 83161  1  0  0  0
 85162  1  0  0  0
M  ISO  4   1 100  68 101  83 101  85 100
M  END
> <chiral flag>
0

> <version>
0

> <s_m_source_file>
/data/baiqing/PycharmProjects/Reinvent-master-3.2/result/LINK_invent/BTK/process_docking_weight1_custom_sum_contain_oxygen_bond_distance_aromatic_linkinvent_7_9_3/rearranged_h_0175.sdf

> <i_m_source_file_index>
54

> <r_mmod_Potential_Energy-OPLS-2005>
32372.208984375

> <r_mmod_Stretch_Energy-OPLS-2005>
18504.787109375

> <r_mmod_Bend_Energy-OPLS-2005>
2065.68359375

> <r_mmod_Torsional_Energy-OPLS-2005>
819.048522949219

> <r_mmod_Improper_Torsional_Energy-OPLS-2005>
128.818862915039

> <r_mmod_Van_der_Waal_Energy-OPLS-2005>
5565.41357421875

> <r_mmod_Electrostatic_Energy-OPLS-2005>
-519.306213378906

> <r_mmod_Solvation_Energy-OPLS-2005>
-252.781921386719

> <b_mmod_Minimization_Converged-OPLS-2005>
0

> <r_mmod_RMS_Derivative-OPLS-2005>
15.5828866958618

$$$$
54
                    3D
 Structure written by MMmdl.
162171  0  0  1  0            999 V2000
  -30.6949  -14.6922   20.4666 C   0  0  0  0  0  0
  -30.4163  -12.4362   19.4489 C   0  0  0  0  0  0
  -29.4890  -12.4970   18.2193 C   0  0  0  0  0  0
  -28.0170  -12.3379   18.6448 C   0  0  0  0  0  0
  -27.6393  -13.2338   19.8565 C   0  0  2  0  0  0
  -28.6987  -13.1544   20.9758 C   0  0  0  0  0  0
  -25.2518  -13.8207   20.5783 C   0  0  0  0  0  0
  -24.1788  -13.0431   20.9238 C   0  0  0  0  0  0
  -24.6386  -11.6922   20.8785 C   0  0  0  0  0  0
  -23.9070  -10.4285   21.0421 C   0  0  0  0  0  0
  -24.3610   -9.4185   21.9187 C   0  0  0  0  0  0
  -23.6280   -8.2221   22.0748 C   0  0  0  0  0  0
  -22.4263   -8.0278   21.3540 C   0  0  0  0  0  0
  -21.9915   -9.0253   20.4635 C   0  0  0  0  0  0
  -22.7249  -10.2131   20.3063 C   0  0  0  0  0  0
  -21.6843   -6.0737   22.5283 C   0  0  0  0  0  0
  -21.4002   -6.5634   23.8218 C   0  0  0  0  0  0
  -21.3649   -5.6787   24.9179 C   0  0  0  0  0  0
  -21.6034   -4.3054   24.7228 C   0  0  0  0  0  0
  -21.8821   -3.8152   23.4349 C   0  0  0  0  0  0
  -21.9182   -4.6966   22.3404 C   0  0  0  0  0  0
  -22.7807  -13.5211   21.1872 C   0  0  0  0  0  0
  -22.1658   -4.2148   21.0983 F   0  0  0  0  0  0
  -21.5620   -3.4544   25.7746 F   0  0  0  0  0  0
  -29.9823  -13.5168   20.3659 N   0  0  0  0  0  0
  -26.2942  -12.9413   20.3405 N   0  0  0  0  0  0
  -25.9320  -11.6556   20.5830 N   0  0  0  0  0  0
  -22.0445  -12.8205   22.0436 N   0  0  0  0  0  0
  -25.4241  -15.1923   20.4215 N   0  0  0  0  0  0
  -31.9061  -14.6493   20.2277 O   0  0  0  0  0  0
  -21.6618   -6.8881   21.4244 O   0  0  0  0  0  0
  -22.3496  -14.5517   20.6722 O   0  0  0  0  0  0
  -24.6352  -31.8620   23.2096 C   0  0  0  0  0  0
  -25.9192  -32.4761   23.8434 C   0  0  1  0  0  0
  -27.1891  -27.2448   20.0981 C   0  0  0  0  0  0
  -25.5993  -33.8568   24.2330 N   0  0  0  0  0  0
  -23.4303  -30.4942   21.5553 C   0  0  2  0  0  0
  -24.8723  -28.9662   20.1064 C   0  0  0  0  0  0
  -22.7524  -29.4650   22.4942 C   0  0  0  0  0  0
  -18.0298  -28.1395   22.8480 C   0  0  0  0  0  0
  -24.1502  -36.7250   23.2639 C   0  0  0  0  0  0
  -25.9858  -30.7583   21.4078 C   0  0  0  0  0  0
  -26.0489  -29.3871   20.7379 C   0  0  0  0  0  0
  -27.2058  -28.5318   20.7448 C   0  0  0  0  0  0
  -25.9956  -26.9550   19.3792 C   0  0  0  0  0  0
  -24.8519  -27.7544   19.4222 C   0  0  0  0  0  0
  -23.6483  -29.8540   20.1650 C   0  0  0  0  0  0
  -25.4124  -36.3055   24.0339 C   0  0  1  0  0  0
  -20.5911  -28.3712   23.1245 C   0  0  2  0  0  0
  -20.6796  -26.9428   22.5398 C   0  0  0  0  0  0
  -19.5770  -26.6391   21.5216 C   0  0  0  0  0  0
  -18.1946  -26.7937   22.1623 C   0  0  0  0  0  0
  -19.1554  -28.8874   23.2849 C   0  0  0  0  0  0
  -18.9477  -30.1472   23.8868 C   0  0  0  0  0  0
  -17.6475  -30.6581   24.0575 C   0  0  0  0  0  0
  -25.9076  -34.9426   23.5128 C   0  0  0  0  0  0
  -16.5364  -29.9074   23.6360 C   0  0  0  0  0  0
  -16.7287  -28.6505   23.0357 C   0  0  0  0  0  0
  -26.4552  -31.6557   25.0803 C   0  0  0  0  0  0
  -25.3753  -31.3678   26.1502 C   0  0  0  0  0  0
  -27.0431  -30.2965   24.6316 C   0  0  0  0  0  0
  -27.6122  -32.4303   25.7555 C   0  0  0  0  0  0
  -27.5581  -37.1776   24.8476 C   0  0  0  0  0  0
  -21.4239  -29.3050   22.3628 N   0  0  0  0  0  0
  -26.4300  -37.3742   23.9410 N   0  0  0  0  0  0
  -24.7017  -31.0574   22.1109 N   0  0  0  0  0  0
  -23.4204  -28.8159   23.3026 O   0  0  0  0  0  0
  -28.2081  -26.2445   20.1841 O   0  0  0  0  0  0
  -26.5616  -34.8891   22.4679 O   0  0  0  0  0  0
  -23.5496  -32.1495   23.7366 O   0  0  0  0  0  0
  -29.3887  -22.9395   20.6672 C   0  0  0  0  0  0
  -28.2963  -23.3985   19.8876 C   0  0  0  0  0  0
  -27.5603  -22.3382   19.2534 C   0  0  0  0  0  0
  -27.9408  -20.9575   19.3985 C   0  0  0  0  0  0
  -29.0329  -20.5953   20.2382 C   0  0  0  0  0  0
  -28.6982  -18.0411   21.2437 C   0  0  0  0  0  0
  -30.0787  -18.3300   19.2373 C   0  0  0  0  0  0
  -29.3568  -16.6113   21.4952 C   0  0  0  0  0  0
  -30.8030  -16.9806   19.5700 C   0  0  0  0  0  0
  -29.5702  -19.0973   20.4780 C   0  0  0  0  0  0
  -26.3142  -22.6491   18.4110 C   0  0  0  0  0  0
  -27.2044  -19.8795   18.5966 C   0  0  0  0  0  0
  -27.7797  -24.8947   19.6669 C   0  0  0  0  0  0
  -29.7205  -21.6123   20.8432 N   0  0  0  0  0  0
  -30.0633  -15.9407   20.3599 N   0  0  0  0  0  0
  -31.4543  -12.5391   19.1301 H   0  0  0  0  0  0
  -30.3544  -11.4615   19.9360 H   0  0  0  0  0  0
  -29.7577  -11.7224   17.4986 H   0  0  0  0  0  0
  -29.6177  -13.4520   17.7086 H   0  0  0  0  0  0
  -27.8580  -11.2892   18.8968 H   0  0  0  0  0  0
  -27.3561  -12.5457   17.8029 H   0  0  0  0  0  0
  -27.6362  -14.2579   19.4839 H   0  0  0  0  0  0
  -28.7446  -12.1443   21.3875 H   0  0  0  0  0  0
  -28.4524  -13.8032   21.8123 H   0  0  0  0  0  0
  -25.2743   -9.5648   22.4775 H   0  0  0  0  0  0
  -23.9971   -7.4607   22.7471 H   0  0  0  0  0  0
  -21.0850   -8.8784   19.8937 H   0  0  0  0  0  0
  -22.3714  -10.9676   19.6184 H   0  0  0  0  0  0
  -21.2003   -7.6142   23.9730 H   0  0  0  0  0  0
  -21.1463   -6.0514   25.9078 H   0  0  0  0  0  0
  -22.0614   -2.7619   23.2856 H   0  0  0  0  0  0
  -22.4053  -11.9849   22.4798 H   0  0  0  0  0  0
  -21.1067  -13.1243   22.2648 H   0  0  0  0  0  0
  -24.6651  -15.8548   20.5382 H   0  0  0  0  0  0
  -26.2904  -15.6290   20.1302 H   0  0  0  0  0  0
  -26.7265  -32.5403   23.1180 H   0  0  0  0  0  0
  -25.0206  -33.9743   25.0524 H   0  0  0  0  0  0
  -22.7288  -31.3201   21.4213 H   0  0  0  0  0  0
  -23.3783  -35.9564   23.3305 H   0  0  0  0  0  0
  -24.3593  -36.8869   22.2053 H   0  0  0  0  0  0
  -23.7261  -37.6446   23.6678 H   0  0  0  0  0  0
  -26.1478  -31.5255   20.6493 H   0  0  0  0  0  0
  -26.8560  -30.7873   22.0520 H   0  0  0  0  0  0
  -28.0876  -28.8325   21.2936 H   0  0  0  0  0  0
  -25.8667  -26.0782   18.7665 H   0  0  0  0  0  0
  -23.9616  -27.4391   18.8954 H   0  0  0  0  0  0
  -23.7700  -30.6441   19.4225 H   0  0  0  0  0  0
  -22.7631  -29.2955   19.8528 H   0  0  0  0  0  0
  -25.1286  -36.1917   25.0830 H   0  0  0  0  0  0
  -21.0001  -28.3307   24.1373 H   0  0  0  0  0  0
  -20.5755  -26.2320   23.3600 H   0  0  0  0  0  0
  -21.6649  -26.7517   22.1152 H   0  0  0  0  0  0
  -19.6958  -25.6314   21.1228 H   0  0  0  0  0  0
  -19.6695  -27.3212   20.6757 H   0  0  0  0  0  0
  -17.4222  -26.6705   21.4004 H   0  0  0  0  0  0
  -18.0341  -26.0077   22.9023 H   0  0  0  0  0  0
  -19.7958  -30.7300   24.2208 H   0  0  0  0  0  0
  -17.5038  -31.6263   24.5169 H   0  0  0  0  0  0
  -15.5361  -30.2952   23.7726 H   0  0  0  0  0  0
  -15.8705  -28.0823   22.7067 H   0  0  0  0  0  0
  -24.6011  -30.6923   25.7839 H   0  0  0  0  0  0
  -24.8832  -32.2799   26.4884 H   0  0  0  0  0  0
  -25.8066  -30.8932   27.0322 H   0  0  0  0  0  0
  -26.3038  -29.6639   24.1381 H   0  0  0  0  0  0
  -27.4142  -29.7276   25.4854 H   0  0  0  0  0  0
  -27.8909  -30.4229   23.9574 H   0  0  0  0  0  0
  -27.2796  -33.3682   26.2022 H   0  0  0  0  0  0
  -28.3974  -32.6720   25.0371 H   0  0  0  0  0  0
  -28.0733  -31.8472   26.5540 H   0  0  0  0  0  0
  -28.2580  -38.0085   24.7520 H   0  0  0  0  0  0
  -28.1082  -36.2611   24.6311 H   0  0  0  0  0  0
  -27.2268  -37.1415   25.8863 H   0  0  0  0  0  0
  -20.9460  -29.8802   21.6836 H   0  0  0  0  0  0
  -26.0170  -38.2804   24.1418 H   0  0  0  0  0  0
  -30.0137  -23.6513   21.1867 H   0  0  0  0  0  0
  -28.4077  -18.4653   22.2053 H   0  0  0  0  0  0
  -27.7564  -17.8678   20.7324 H   0  0  0  0  0  0
  -29.2614  -18.1273   18.5498 H   0  0  0  0  0  0
  -30.7732  -18.9744   18.6967 H   0  0  0  0  0  0
  -28.5753  -15.9523   21.8657 H   0  0  0  0  0  0
  -30.0727  -16.7023   22.3131 H   0  0  0  0  0  0
  -31.7236  -17.2188   20.1078 H   0  0  0  0  0  0
  -31.1234  -16.5454   18.6206 H   0  0  0  0  0  0
  -30.4466  -19.2386   21.1135 H   0  0  0  0  0  0
  -26.1130  -23.6963   18.2066 H   0  0  0  0  0  0
  -25.4287  -22.2569   18.9160 H   0  0  0  0  0  0
  -26.3829  -22.1852   17.4279 H   0  0  0  0  0  0
  -26.2097  -20.1603   18.2581 H   0  0  0  0  0  0
  -27.0456  -18.9649   19.1538 H   0  0  0  0  0  0
  -27.7881  -19.6348   17.7093 H   0  0  0  0  0  0
  -26.7748  -24.7442   20.0615 H   0  0  0  0  0  0
  -27.7581  -25.0198   18.5827 H   0  0  0  0  0  0
  1 25  1  0  0  0
  1 30  2  0  0  0
  1 85  1  0  0  0
  2  3  1  0  0  0
  2 25  1  0  0  0
  2 86  1  0  0  0
  2 87  1  0  0  0
  3  4  1  0  0  0
  3 88  1  0  0  0
  3 89  1  0  0  0
  4  5  1  0  0  0
  4 90  1  0  0  0
  4 91  1  0  0  0
  5  6  1  0  0  0
  5 26  1  0  0  0
  5 92  1  0  0  0
  6 25  1  0  0  0
  6 93  1  0  0  0
  6 94  1  0  0  0
  7  8  2  0  0  0
  7 26  1  0  0  0
  7 29  1  0  0  0
  8  9  1  0  0  0
  8 22  1  0  0  0
  9 10  1  0  0  0
  9 27  2  0  0  0
 10 11  2  0  0  0
 10 15  1  0  0  0
 11 12  1  0  0  0
 11 95  1  0  0  0
 12 13  2  0  0  0
 12 96  1  0  0  0
 13 14  1  0  0  0
 13 31  1  0  0  0
 14 15  2  0  0  0
 14 97  1  0  0  0
 15 98  1  0  0  0
 16 17  2  0  0  0
 16 21  1  0  0  0
 16 31  1  0  0  0
 17 18  1  0  0  0
 17 99  1  0  0  0
 18 19  2  0  0  0
 18100  1  0  0  0
 19 20  1  0  0  0
 19 24  1  0  0  0
 20 21  2  0  0  0
 20101  1  0  0  0
 21 23  1  0  0  0
 22 28  1  0  0  0
 22 32  2  0  0  0
 26 27  1  0  0  0
 28102  1  0  0  0
 28103  1  0  0  0
 29104  1  0  0  0
 29105  1  0  0  0
 33 34  1  0  0  0
 33 66  1  0  0  0
 33 70  2  0  0  0
 34 36  1  0  0  0
 34 59  1  0  0  0
 34106  1  0  0  0
 35 44  2  0  0  0
 35 45  1  0  0  0
 35 68  1  0  0  0
 36 56  1  0  0  0
 36107  1  0  0  0
 37 39  1  0  0  0
 37 47  1  0  0  0
 37 66  1  0  0  0
 37108  1  0  0  0
 38 43  2  0  0  0
 38 46  1  0  0  0
 38 47  1  0  0  0
 39 64  1  0  0  0
 39 67  2  0  0  0
 40 52  1  0  0  0
 40 53  2  0  0  0
 40 58  1  0  0  0
 41109  1  0  0  0
 41110  1  0  0  0
 41111  1  0  0  0
 41 48  1  0  0  0
 42 43  1  0  0  0
 42 66  1  0  0  0
 42112  1  0  0  0
 42113  1  0  0  0
 43 44  1  0  0  0
 44114  1  0  0  0
 45 46  2  0  0  0
 45115  1  0  0  0
 46116  1  0  0  0
 47117  1  0  0  0
 47118  1  0  0  0
 48 56  1  0  0  0
 48 65  1  0  0  0
 48119  1  0  0  0
 49 50  1  0  0  0
 49 53  1  0  0  0
 49 64  1  0  0  0
 49120  1  0  0  0
 50 51  1  0  0  0
 50121  1  0  0  0
 50122  1  0  0  0
 51 52  1  0  0  0
 51123  1  0  0  0
 51124  1  0  0  0
 52125  1  0  0  0
 52126  1  0  0  0
 53 54  1  0  0  0
 54 55  2  0  0  0
 54127  1  0  0  0
 55 57  1  0  0  0
 55128  1  0  0  0
 56 69  2  0  0  0
 57 58  2  0  0  0
 57129  1  0  0  0
 58130  1  0  0  0
 59 60  1  0  0  0
 59 61  1  0  0  0
 59 62  1  0  0  0
 60131  1  0  0  0
 60132  1  0  0  0
 60133  1  0  0  0
 61134  1  0  0  0
 61135  1  0  0  0
 61136  1  0  0  0
 62137  1  0  0  0
 62138  1  0  0  0
 62139  1  0  0  0
 63 65  1  0  0  0
 63140  1  0  0  0
 63141  1  0  0  0
 63142  1  0  0  0
 64143  1  0  0  0
 65144  1  0  0  0
 68 83  1  0  0  0
 71 72  2  0  0  0
 71 84  1  0  0  0
 71145  1  0  0  0
 72 73  1  0  0  0
 72 83  1  0  0  0
 73 74  2  0  0  0
 73 81  1  0  0  0
 74 75  1  0  0  0
 74 82  1  0  0  0
 75 84  2  0  0  0
 75 80  1  0  0  0
 76 78  1  0  0  0
 76 80  1  0  0  0
 76146  1  0  0  0
 76147  1  0  0  0
 77 79  1  0  0  0
 77 80  1  0  0  0
 77148  1  0  0  0
 77149  1  0  0  0
 78 85  1  0  0  0
 78150  1  0  0  0
 78151  1  0  0  0
 79 85  1  0  0  0
 79152  1  0  0  0
 79153  1  0  0  0
 80154  1  0  0  0
 81155  1  0  0  0
 81156  1  0  0  0
 81157  1  0  0  0
 82158  1  0  0  0
 82159  1  0  0  0
 82160  1  0  0  0
 83161  1  0  0  0
 83162  1  0  0  0
M  ISO  4   1 100  68 101  83 101  85 100
M  END
> <chiral flag>
0

> <version>
0

> <s_m_source_file>
/data/baiqing/PycharmProjects/Reinvent-master-3.2/result/LINK_invent/BTK/process_docking_weight1_custom_sum_contain_oxygen_bond_distance_aromatic_linkinvent_7_9_3/rearranged_h_0175.sdf

> <i_m_source_file_index>
55

> <r_mmod_Potential_Energy-OPLS-2005>
369.805816650391

> <r_mmod_Stretch_Energy-OPLS-2005>
123.456481933594

> <r_mmod_Bend_Energy-OPLS-2005>
245.722106933594

> <r_mmod_Torsional_Energy-OPLS-2005>
313.4658203125

> <r_mmod_Improper_Torsional_Energy-OPLS-2005>
18.1921730041504

> <r_mmod_Van_der_Waal_Energy-OPLS-2005>
187.20051574707

> <r_mmod_Electrostatic_Energy-OPLS-2005>
-400.715301513672

> <r_mmod_Solvation_Energy-OPLS-2005>
-216.19709777832

> <b_mmod_Minimization_Converged-OPLS-2005>
0

> <r_mmod_RMS_Derivative-OPLS-2005>
3.08361458778381

$$$$
55
                    3D
 Structure written by MMmdl.
177186  0  0  1  0            999 V2000
  -30.6794  -14.5409   20.5720 C   0  0  0  0  0  0
  -30.4308  -12.3602   19.4184 C   0  0  0  0  0  0
  -29.4934  -12.5112   18.2037 C   0  0  0  0  0  0
  -28.0191  -12.3523   18.6244 C   0  0  0  0  0  0
  -27.6553  -13.2109   19.8638 C   0  0  2  0  0  0
  -28.7001  -13.0300   20.9863 C   0  0  0  0  0  0
  -25.2572  -13.8172   20.5697 C   0  0  0  0  0  0
  -24.1843  -13.0446   20.9194 C   0  0  0  0  0  0
  -24.6398  -11.6901   20.8758 C   0  0  0  0  0  0
  -23.9066  -10.4296   21.0408 C   0  0  0  0  0  0
  -24.3619   -9.4211   21.9185 C   0  0  0  0  0  0
  -23.6296   -8.2247   22.0757 C   0  0  0  0  0  0
  -22.4274   -8.0293   21.3544 C   0  0  0  0  0  0
  -21.9916   -9.0261   20.4640 C   0  0  0  0  0  0
  -22.7248  -10.2142   20.3050 C   0  0  0  0  0  0
  -21.6845   -6.0743   22.5278 C   0  0  0  0  0  0
  -21.4007   -6.5642   23.8215 C   0  0  0  0  0  0
  -21.3660   -5.6799   24.9177 C   0  0  0  0  0  0
  -21.6044   -4.3061   24.7222 C   0  0  0  0  0  0
  -21.8822   -3.8155   23.4342 C   0  0  0  0  0  0
  -21.9193   -4.6976   22.3397 C   0  0  0  0  0  0
  -22.7855  -13.5226   21.1854 C   0  0  0  0  0  0
  -22.1663   -4.2158   21.0977 F   0  0  0  0  0  0
  -21.5631   -3.4541   25.7740 F   0  0  0  0  0  0
  -30.0183  -13.3590   20.4202 N   0  0  0  0  0  0
  -26.2996  -12.9342   20.3333 N   0  0  0  0  0  0
  -25.9322  -11.6495   20.5749 N   0  0  0  0  0  0
  -22.0492  -12.8221   22.0400 N   0  0  0  0  0  0
  -25.4282  -15.1896   20.4110 N   0  0  0  0  0  0
  -31.8285  -14.7094   20.1609 O   0  0  0  0  0  0
  -21.6641   -6.8886   21.4239 O   0  0  0  0  0  0
  -22.3542  -14.5537   20.6700 O   0  0  0  0  0  0
  -24.6145  -31.8641   23.2024 C   0  0  0  0  0  0
  -25.8993  -32.4791   23.8335 C   0  0  1  0  0  0
  -27.2577  -27.4120   20.1227 C   0  0  0  0  0  0
  -25.5783  -33.8574   24.2237 N   0  0  0  0  0  0
  -23.4107  -30.4862   21.5408 C   0  0  2  0  0  0
  -24.8666  -28.9389   20.1221 C   0  0  0  0  0  0
  -22.7424  -29.4667   22.4920 C   0  0  0  0  0  0
  -18.0266  -28.1409   22.8507 C   0  0  0  0  0  0
  -24.1488  -36.7361   23.2644 C   0  0  0  0  0  0
  -25.9390  -30.8252   21.3648 C   0  0  0  0  0  0
  -26.0240  -29.4530   20.7224 C   0  0  0  0  0  0
  -27.2227  -28.6997   20.7172 C   0  0  0  0  0  0
  -26.0873  -26.9166   19.5149 C   0  0  0  0  0  0
  -24.8950  -27.6721   19.5106 C   0  0  0  0  0  0
  -23.6272  -29.8084   20.1603 C   0  0  0  0  0  0
  -25.4096  -36.3073   24.0316 C   0  0  1  0  0  0
  -20.5846  -28.3718   23.1315 C   0  0  2  0  0  0
  -20.6745  -26.9459   22.5432 C   0  0  0  0  0  0
  -19.5732  -26.6432   21.5225 C   0  0  0  0  0  0
  -18.1906  -26.7947   22.1650 C   0  0  0  0  0  0
  -19.1511  -28.8871   23.2912 C   0  0  0  0  0  0
  -18.9450  -30.1449   23.8961 C   0  0  0  0  0  0
  -17.6456  -30.6618   24.0578 C   0  0  0  0  0  0
  -25.9019  -34.9442   23.5110 C   0  0  0  0  0  0
  -16.5339  -29.9138   23.6305 C   0  0  0  0  0  0
  -16.7252  -28.6540   23.0352 C   0  0  0  0  0  0
  -26.4408  -31.6559   25.0676 C   0  0  0  0  0  0
  -25.3651  -31.3624   26.1397 C   0  0  0  0  0  0
  -27.0249  -30.2978   24.6086 C   0  0  0  0  0  0
  -27.5985  -32.4310   25.7418 C   0  0  0  0  0  0
  -27.5599  -37.1781   24.8438 C   0  0  0  0  0  0
  -21.4120  -29.3068   22.3693 N   0  0  0  0  0  0
  -26.4276  -37.3779   23.9435 N   0  0  0  0  0  0
  -24.6731  -31.0717   22.0954 N   0  0  0  0  0  0
  -23.4188  -28.8209   23.2972 O   0  0  0  0  0  0
  -28.4186  -26.6646   20.0690 O   0  0  0  0  0  0
  -26.5669  -34.8917   22.4716 O   0  0  0  0  0  0
  -23.5320  -32.1398   23.7390 O   0  0  0  0  0  0
  -29.8872  -21.8836   19.1722 C   0  0  0  0  0  0
  -29.6585  -21.8149   20.5605 C   0  0  0  0  0  0
  -29.1912  -23.0098   21.2072 C   0  0  0  0  0  0
  -29.6950  -23.0993   18.4952 C   0  0  0  0  0  0
  -29.0031  -24.2030   20.4283 C   0  0  0  0  0  0
  -29.5554  -19.1376   20.8928 C   0  0  0  0  0  0
  -30.1271  -20.5303   21.3036 C   0  0  1  0  0  0
  -30.7386  -18.1096   20.9579 C   0  0  1  0  0  0
  -31.9529  -18.9789   21.4536 C   0  0  0  0  0  0
  -30.0095  -23.2224   17.0207 C   0  0  0  0  0  0
  -33.2213  -18.5853   20.6702 C   0  0  0  0  0  0
  -32.2244  -18.8350   22.9807 C   0  0  0  0  0  0
  -27.6620  -22.2109   23.0828 C   0  0  0  0  0  0
  -32.3864  -21.4730   21.7530 C   0  0  0  0  0  0
  -28.9126  -23.0202   22.7141 C   0  0  0  0  0  0
  -28.5354  -25.5667   21.0113 C   0  0  0  0  0  0
  -30.5437  -16.7659   21.7724 C   0  0  0  0  0  0
  -29.2681  -24.2208   19.1039 N   0  0  0  0  0  0
  -29.9729  -15.5635   21.1148 N   0  0  0  0  0  0
  -31.5827  -20.3873   21.1286 N   0  3  2  0  0  0
  -31.4686  -12.4898   19.1077 H   0  0  0  0  0  0
  -30.3657  -11.3539   19.8377 H   0  0  0  0  0  0
  -29.7441  -11.7768   17.4380 H   0  0  0  0  0  0
  -29.6401  -13.4915   17.7475 H   0  0  0  0  0  0
  -27.8520  -11.2982   18.8485 H   0  0  0  0  0  0
  -27.3599  -12.5968   17.7915 H   0  0  0  0  0  0
  -27.6877  -14.2520   19.5425 H   0  0  0  0  0  0
  -28.7008  -11.9999   21.3477 H   0  0  0  0  0  0
  -28.4545  -13.6461   21.8530 H   0  0  0  0  0  0
  -25.2756   -9.5685   22.4772 H   0  0  0  0  0  0
  -24.0000   -7.4634   22.7488 H   0  0  0  0  0  0
  -21.0850   -8.8781   19.8950 H   0  0  0  0  0  0
  -22.3705  -10.9678   19.6173 H   0  0  0  0  0  0
  -21.2004   -7.6147   23.9715 H   0  0  0  0  0  0
  -21.1475   -6.0529   25.9081 H   0  0  0  0  0  0
  -22.0604   -2.7619   23.2842 H   0  0  0  0  0  0
  -22.4097  -11.9873   22.4776 H   0  0  0  0  0  0
  -21.1104  -13.1242   22.2602 H   0  0  0  0  0  0
  -24.6596  -15.8420   20.5196 H   0  0  0  0  0  0
  -26.2795  -15.6299   20.0844 H   0  0  0  0  0  0
  -26.7076  -32.5515   23.1115 H   0  0  0  0  0  0
  -24.9609  -33.9651   25.0158 H   0  0  0  0  0  0
  -22.7032  -31.3045   21.3910 H   0  0  0  0  0  0
  -23.3707  -35.9739   23.3238 H   0  0  0  0  0  0
  -24.3590  -36.9090   22.2081 H   0  0  0  0  0  0
  -23.7292  -37.6554   23.6736 H   0  0  0  0  0  0
  -26.0461  -31.5864   20.5920 H   0  0  0  0  0  0
  -26.8255  -30.8862   21.9837 H   0  0  0  0  0  0
  -28.1189  -29.1010   21.1684 H   0  0  0  0  0  0
  -26.1122  -25.9488   19.0359 H   0  0  0  0  0  0
  -24.0086  -27.2753   19.0353 H   0  0  0  0  0  0
  -23.7420  -30.5790   19.3969 H   0  0  0  0  0  0
  -22.7528  -29.2257   19.8671 H   0  0  0  0  0  0
  -25.1275  -36.1881   25.0803 H   0  0  0  0  0  0
  -20.9924  -28.3322   24.1446 H   0  0  0  0  0  0
  -20.5629  -26.2353   23.3614 H   0  0  0  0  0  0
  -21.6630  -26.7499   22.1252 H   0  0  0  0  0  0
  -19.6887  -25.6351   21.1244 H   0  0  0  0  0  0
  -19.6660  -27.3252   20.6744 H   0  0  0  0  0  0
  -17.4176  -26.6684   21.4041 H   0  0  0  0  0  0
  -18.0313  -26.0097   22.9048 H   0  0  0  0  0  0
  -19.7926  -30.7225   24.2425 H   0  0  0  0  0  0
  -17.5022  -31.6295   24.5211 H   0  0  0  0  0  0
  -15.5336  -30.3072   23.7613 H   0  0  0  0  0  0
  -15.8636  -28.0880   22.7064 H   0  0  0  0  0  0
  -24.5863  -30.6946   25.7686 H   0  0  0  0  0  0
  -24.8781  -32.2755   26.4822 H   0  0  0  0  0  0
  -25.7994  -30.8786   27.0155 H   0  0  0  0  0  0
  -26.2809  -29.6667   24.1224 H   0  0  0  0  0  0
  -27.4069  -29.7241   25.4530 H   0  0  0  0  0  0
  -27.8584  -30.4237   23.9193 H   0  0  0  0  0  0
  -27.2627  -33.3652   26.1926 H   0  0  0  0  0  0
  -28.3796  -32.6815   25.0225 H   0  0  0  0  0  0
  -28.0627  -31.8473   26.5368 H   0  0  0  0  0  0
  -28.2504  -38.0194   24.7610 H   0  0  0  0  0  0
  -28.1211  -36.2704   24.6095 H   0  0  0  0  0  0
  -27.2326  -37.1264   25.8843 H   0  0  0  0  0  0
  -20.9280  -29.8774   21.6896 H   0  0  0  0  0  0
  -26.0125  -38.2832   24.1509 H   0  0  0  0  0  0
  -30.2490  -21.0241   18.6238 H   0  0  0  0  0  0
  -29.1681  -19.1683   19.8733 H   0  0  0  0  0  0
  -28.7160  -18.8556   21.5301 H   0  0  0  0  0  0
  -29.9484  -20.6295   22.3729 H   0  0  0  0  0  0
  -30.9370  -17.8172   19.9241 H   0  0  0  0  0  0
  -30.8354  -22.5691   16.7425 H   0  0  0  0  0  0
  -30.2964  -24.2410   16.7591 H   0  0  0  0  0  0
  -29.1365  -22.9522   16.4275 H   0  0  0  0  0  0
  -33.4617  -17.5338   20.8163 H   0  0  0  0  0  0
  -34.0916  -19.1610   20.9839 H   0  0  0  0  0  0
  -33.0987  -18.7387   19.5980 H   0  0  0  0  0  0
  -32.5737  -17.8432   23.2597 H   0  0  0  0  0  0
  -31.3372  -19.0487   23.5752 H   0  0  0  0  0  0
  -33.0191  -19.4980   23.3240 H   0  0  0  0  0  0
  -27.4646  -22.2698   24.1534 H   0  0  0  0  0  0
  -27.7654  -21.1551   22.8328 H   0  0  0  0  0  0
  -26.7839  -22.5862   22.5567 H   0  0  0  0  0  0
  -32.1970  -22.4260   21.2559 H   0  0  0  0  0  0
  -33.4565  -21.2843   21.6733 H   0  0  0  0  0  0
  -32.1415  -21.6068   22.8062 H   0  0  0  0  0  0
  -28.7863  -24.0333   23.0916 H   0  0  0  0  0  0
  -29.7782  -22.6438   23.2619 H   0  0  0  0  0  0
  -29.2844  -25.8855   21.7378 H   0  0  0  0  0  0
  -27.6101  -25.4201   21.5698 H   0  0  0  0  0  0
  -29.9560  -16.9725   22.6691 H   0  0  0  0  0  0
  -31.5108  -16.4246   22.1405 H   0  0  0  0  0  0
  -29.0097  -15.3526   21.3336 H   0  0  0  0  0  0
  -31.7138  -20.4968   20.1350 H   0  0  0  0  0  0
  1 25  1  0  0  0
  1 30  2  0  0  0
  1 89  1  0  0  0
  2  3  1  0  0  0
  2 25  1  0  0  0
  2 91  1  0  0  0
  2 92  1  0  0  0
  3  4  1  0  0  0
  3 93  1  0  0  0
  3 94  1  0  0  0
  4  5  1  0  0  0
  4 95  1  0  0  0
  4 96  1  0  0  0
  5  6  1  0  0  0
  5 26  1  0  0  0
  5 97  1  0  0  0
  6 25  1  0  0  0
  6 98  1  0  0  0
  6 99  1  0  0  0
  7  8  2  0  0  0
  7 26  1  0  0  0
  7 29  1  0  0  0
  8  9  1  0  0  0
  8 22  1  0  0  0
  9 10  1  0  0  0
  9 27  2  0  0  0
 10 11  2  0  0  0
 10 15  1  0  0  0
 11 12  1  0  0  0
 11100  1  0  0  0
 12 13  2  0  0  0
 12101  1  0  0  0
 13 14  1  0  0  0
 13 31  1  0  0  0
 14 15  2  0  0  0
 14102  1  0  0  0
 15103  1  0  0  0
 16 17  2  0  0  0
 16 21  1  0  0  0
 16 31  1  0  0  0
 17 18  1  0  0  0
 17104  1  0  0  0
 18 19  2  0  0  0
 18105  1  0  0  0
 19 20  1  0  0  0
 19 24  1  0  0  0
 20 21  2  0  0  0
 20106  1  0  0  0
 21 23  1  0  0  0
 22 28  1  0  0  0
 22 32  2  0  0  0
 26 27  1  0  0  0
 28107  1  0  0  0
 28108  1  0  0  0
 29109  1  0  0  0
 29110  1  0  0  0
 33 34  1  0  0  0
 33 66  1  0  0  0
 33 70  2  0  0  0
 34 36  1  0  0  0
 34 59  1  0  0  0
 34111  1  0  0  0
 35 44  2  0  0  0
 35 45  1  0  0  0
 35 68  1  0  0  0
 36 56  1  0  0  0
 36112  1  0  0  0
 37 39  1  0  0  0
 37 47  1  0  0  0
 37 66  1  0  0  0
 37113  1  0  0  0
 38 43  2  0  0  0
 38 46  1  0  0  0
 38 47  1  0  0  0
 39 64  1  0  0  0
 39 67  2  0  0  0
 40 52  1  0  0  0
 40 53  2  0  0  0
 40 58  1  0  0  0
 41114  1  0  0  0
 41115  1  0  0  0
 41116  1  0  0  0
 41 48  1  0  0  0
 42 43  1  0  0  0
 42 66  1  0  0  0
 42117  1  0  0  0
 42118  1  0  0  0
 43 44  1  0  0  0
 44119  1  0  0  0
 45 46  2  0  0  0
 45120  1  0  0  0
 46121  1  0  0  0
 47122  1  0  0  0
 47123  1  0  0  0
 48 56  1  0  0  0
 48 65  1  0  0  0
 48124  1  0  0  0
 49 50  1  0  0  0
 49 53  1  0  0  0
 49 64  1  0  0  0
 49125  1  0  0  0
 50 51  1  0  0  0
 50126  1  0  0  0
 50127  1  0  0  0
 51 52  1  0  0  0
 51128  1  0  0  0
 51129  1  0  0  0
 52130  1  0  0  0
 52131  1  0  0  0
 53 54  1  0  0  0
 54 55  2  0  0  0
 54132  1  0  0  0
 55 57  1  0  0  0
 55133  1  0  0  0
 56 69  2  0  0  0
 57 58  2  0  0  0
 57134  1  0  0  0
 58135  1  0  0  0
 59 60  1  0  0  0
 59 61  1  0  0  0
 59 62  1  0  0  0
 60136  1  0  0  0
 60137  1  0  0  0
 60138  1  0  0  0
 61139  1  0  0  0
 61140  1  0  0  0
 61141  1  0  0  0
 62142  1  0  0  0
 62143  1  0  0  0
 62144  1  0  0  0
 63 65  1  0  0  0
 63145  1  0  0  0
 63146  1  0  0  0
 63147  1  0  0  0
 64148  1  0  0  0
 65149  1  0  0  0
 68 86  1  0  0  0
 71 72  2  0  0  0
 71 74  1  0  0  0
 71150  1  0  0  0
 72 73  1  0  0  0
 72 77  1  0  0  0
 73 75  2  0  0  0
 73 85  1  0  0  0
 74 80  1  0  0  0
 74 88  2  0  0  0
 75 86  1  0  0  0
 75 88  1  0  0  0
 76 77  1  0  0  0
 76 78  1  0  0  0
 76151  1  0  0  0
 76152  1  0  0  0
 77 90  1  0  0  0
 77153  1  0  0  0
 78 79  1  0  0  0
 78 87  1  0  0  0
 78154  1  0  0  0
 79 81  1  0  0  0
 79 82  1  0  0  0
 79 90  1  0  0  0
 80155  1  0  0  0
 80156  1  0  0  0
 80157  1  0  0  0
 81158  1  0  0  0
 81159  1  0  0  0
 81160  1  0  0  0
 82161  1  0  0  0
 82162  1  0  0  0
 82163  1  0  0  0
 83 85  1  0  0  0
 83164  1  0  0  0
 83165  1  0  0  0
 83166  1  0  0  0
 84167  1  0  0  0
 84168  1  0  0  0
 84169  1  0  0  0
 84 90  1  0  0  0
 85170  1  0  0  0
 85171  1  0  0  0
 86172  1  0  0  0
 86173  1  0  0  0
 87 89  1  0  0  0
 87174  1  0  0  0
 87175  1  0  0  0
 89176  1  0  0  0
 90177  1  0  0  0
M  CHG  1  90   1
M  ISO  4   1 100  68 101  86 101  89 100
M  END
> <chiral flag>
0

> <version>
0

> <s_m_source_file>
/data/baiqing/PycharmProjects/Reinvent-master-3.2/result/LINK_invent/BTK/process_docking_weight1_custom_sum_contain_oxygen_bond_distance_aromatic_linkinvent_7_9_3/rearranged_h_0175.sdf

> <i_m_source_file_index>
56

> <r_mmod_Potential_Energy-OPLS-2005>
-183.577285766602

> <r_mmod_Stretch_Energy-OPLS-2005>
58.1039505004883

> <r_mmod_Bend_Energy-OPLS-2005>
147.57551574707

> <r_mmod_Torsional_Energy-OPLS-2005>
321.866271972656

> <r_mmod_Improper_Torsional_Energy-OPLS-2005>
4.36769580841064

> <r_mmod_Van_der_Waal_Energy-OPLS-2005>
152.210403442383

> <r_mmod_Electrostatic_Energy-OPLS-2005>
-448.219146728516

> <r_mmod_Solvation_Energy-OPLS-2005>
-439.393310546875

> <b_mmod_Minimization_Converged-OPLS-2005>
0

> <r_mmod_RMS_Derivative-OPLS-2005>
4.23650550842285

$$$$
56
                    3D
 Structure written by MMmdl.
170180  0  0  1  0            999 V2000
  -30.6280  -14.5894   20.5519 C   0  0  0  0  0  0
  -30.4390  -12.3980   19.3946 C   0  0  0  0  0  0
  -29.4746  -12.5799   18.2031 C   0  0  0  0  0  0
  -27.9990  -12.3886   18.6194 C   0  0  0  0  0  0
  -27.6443  -13.2159   19.8773 C   0  0  2  0  0  0
  -28.6989  -13.0020   20.9738 C   0  0  0  0  0  0
  -25.2460  -13.8064   20.5739 C   0  0  0  0  0  0
  -24.1772  -13.0290   20.9217 C   0  0  0  0  0  0
  -24.6375  -11.6814   20.8795 C   0  0  0  0  0  0
  -23.9044  -10.4203   21.0331 C   0  0  0  0  0  0
  -24.3545   -9.4094   21.9106 C   0  0  0  0  0  0
  -23.6221   -8.2123   22.0690 C   0  0  0  0  0  0
  -22.4215   -8.0198   21.3467 C   0  0  0  0  0  0
  -21.9849   -9.0157   20.4566 C   0  0  0  0  0  0
  -22.7194  -10.2052   20.2982 C   0  0  0  0  0  0
  -21.6804   -6.0762   22.5313 C   0  0  0  0  0  0
  -21.3944   -6.5652   23.8241 C   0  0  0  0  0  0
  -21.3660   -5.6811   24.9205 C   0  0  0  0  0  0
  -21.6036   -4.3062   24.7214 C   0  0  0  0  0  0
  -21.8794   -3.8149   23.4345 C   0  0  0  0  0  0
  -21.9146   -4.6969   22.3405 C   0  0  0  0  0  0
  -22.7747  -13.5032   21.1753 C   0  0  0  0  0  0
  -22.1654   -4.2168   21.0983 F   0  0  0  0  0  0
  -21.5634   -3.4540   25.7727 F   0  0  0  0  0  0
  -30.0153  -13.3745   20.4197 N   0  0  0  0  0  0
  -26.2931  -12.9321   20.3437 N   0  0  0  0  0  0
  -25.9351  -11.6471   20.5929 N   0  0  0  0  0  0
  -22.0414  -12.8039   22.0436 N   0  0  0  0  0  0
  -25.4116  -15.1697   20.3954 N   0  0  0  0  0  0
  -31.7721  -14.7916   20.1364 O   0  0  0  0  0  0
  -21.6534   -6.8815   21.4223 O   0  0  0  0  0  0
  -22.3402  -14.5265   20.6569 O   0  0  0  0  0  0
  -24.6162  -31.8742   23.2159 C   0  0  0  0  0  0
  -25.9040  -32.4849   23.8456 C   0  0  1  0  0  0
  -27.2100  -27.4015   20.1115 C   0  0  0  0  0  0
  -25.5926  -33.8674   24.2381 N   0  0  0  0  0  0
  -23.4019  -30.5067   21.5556 C   0  0  2  0  0  0
  -24.8466  -28.9813   20.1074 C   0  0  0  0  0  0
  -22.7411  -29.4714   22.4948 C   0  0  0  0  0  0
  -18.0296  -28.1381   22.8496 C   0  0  0  0  0  0
  -24.1502  -36.7381   23.2622 C   0  0  0  0  0  0
  -25.9326  -30.8223   21.3820 C   0  0  0  0  0  0
  -25.9976  -29.4446   20.7583 C   0  0  0  0  0  0
  -27.1695  -28.6476   20.7937 C   0  0  0  0  0  0
  -26.0944  -27.0629   19.3297 C   0  0  0  0  0  0
  -24.8884  -27.7796   19.3885 C   0  0  0  0  0  0
  -23.6133  -29.8539   20.1629 C   0  0  0  0  0  0
  -25.4096  -36.3170   24.0354 C   0  0  1  0  0  0
  -20.5882  -28.3675   23.1313 C   0  0  2  0  0  0
  -20.6778  -26.9409   22.5423 C   0  0  0  0  0  0
  -19.5749  -26.6381   21.5218 C   0  0  0  0  0  0
  -18.1927  -26.7930   22.1625 C   0  0  0  0  0  0
  -19.1540  -28.8843   23.2907 C   0  0  0  0  0  0
  -18.9463  -30.1443   23.8913 C   0  0  0  0  0  0
  -17.6457  -30.6576   24.0571 C   0  0  0  0  0  0
  -25.8999  -34.9499   23.5152 C   0  0  0  0  0  0
  -16.5352  -29.9074   23.6335 C   0  0  0  0  0  0
  -16.7282  -28.6510   23.0336 C   0  0  0  0  0  0
  -26.4455  -31.6628   25.0794 C   0  0  0  0  0  0
  -25.3700  -31.3743   26.1516 C   0  0  0  0  0  0
  -27.0238  -30.3072   24.6127 C   0  0  0  0  0  0
  -27.6068  -32.4288   25.7560 C   0  0  0  0  0  0
  -27.5579  -37.1854   24.8445 C   0  0  0  0  0  0
  -21.4126  -29.3067   22.3698 N   0  0  0  0  0  0
  -26.4280  -37.3830   23.9401 N   0  0  0  0  0  0
  -24.6693  -31.0854   22.1076 N   0  0  0  0  0  0
  -23.4185  -28.8233   23.2950 O   0  0  0  0  0  0
  -28.3668  -26.6422   20.0314 O   0  0  0  0  0  0
  -26.5558  -34.8943   22.4695 O   0  0  0  0  0  0
  -23.5363  -32.1506   23.7557 O   0  0  0  0  0  0
  -27.7967  -24.1140   20.3043 C   0  0  0  0  0  0
  -28.4993  -22.8874   20.5649 C   0  0  0  0  0  0
  -28.5862  -25.3180   20.4551 C   0  0  0  0  0  0
  -30.3800  -24.0547   21.1485 C   0  0  0  0  0  0
  -25.7517  -23.9013   18.5860 C   0  0  0  0  0  0
  -25.2838  -23.0527   19.7244 C   0  0  0  0  0  0
  -27.9064  -18.0837   20.2483 C   0  0  0  0  0  0
  -27.6645  -19.1900   21.2712 C   0  0  0  0  0  0
  -29.6725  -19.6291   20.1481 C   0  0  0  0  0  0
  -26.3009  -24.1697   19.9816 C   0  0  0  0  0  0
  -29.4199  -18.0662   20.0377 C   0  0  1  0  0  0
  -31.8179  -24.0271   21.6269 C   0  0  0  0  0  0
  -27.8885  -21.4676   20.4255 C   0  0  0  0  0  0
  -30.1634  -17.1020   21.0525 C   0  0  0  0  0  0
  -29.7850  -22.8962   20.9671 N   0  0  0  0  0  0
  -29.8517  -25.2382   20.8983 N   0  0  0  0  0  0
  -28.6105  -20.2678   20.9727 N   0  0  0  0  0  0
  -29.8358  -15.6300   20.9438 N   0  0  0  0  0  0
  -29.7564  -17.5838   18.6872 N   0  3  0  0  0  0
  -31.4663  -12.5599   19.0572 H   0  0  0  0  0  0
  -30.4132  -11.3712   19.7693 H   0  0  0  0  0  0
  -29.7139  -11.8870   17.3992 H   0  0  0  0  0  0
  -29.5785  -13.5951   17.8235 H   0  0  0  0  0  0
  -27.8232  -11.3312   18.8039 H   0  0  0  0  0  0
  -27.3308  -12.6856   17.8058 H   0  0  0  0  0  0
  -27.6777  -14.2620   19.5828 H   0  0  0  0  0  0
  -28.7325  -11.9526   21.2395 H   0  0  0  0  0  0
  -28.4410  -13.5238   21.8935 H   0  0  0  0  0  0
  -25.2632   -9.5567   22.4766 H   0  0  0  0  0  0
  -23.9935   -7.4434   22.7364 H   0  0  0  0  0  0
  -21.0784   -8.8499   19.8784 H   0  0  0  0  0  0
  -22.3475  -10.9518   19.6148 H   0  0  0  0  0  0
  -21.1919   -7.6142   23.9753 H   0  0  0  0  0  0
  -21.1571   -6.0542   25.9143 H   0  0  0  0  0  0
  -22.0583   -2.7618   23.2816 H   0  0  0  0  0  0
  -22.4124  -11.9725   22.4785 H   0  0  0  0  0  0
  -21.0889  -13.0708   22.2419 H   0  0  0  0  0  0
  -24.6382  -15.8229   20.4493 H   0  0  0  0  0  0
  -26.2643  -15.5906   20.0552 H   0  0  0  0  0  0
  -26.7105  -32.5593   23.1216 H   0  0  0  0  0  0
  -25.0149  -33.9806   25.0580 H   0  0  0  0  0  0
  -22.6903  -31.3260   21.4257 H   0  0  0  0  0  0
  -23.3726  -35.9746   23.3313 H   0  0  0  0  0  0
  -24.3599  -36.8956   22.2026 H   0  0  0  0  0  0
  -23.7277  -37.6618   23.6591 H   0  0  0  0  0  0
  -26.0254  -31.5741   20.5984 H   0  0  0  0  0  0
  -26.8246  -30.8956   21.9885 H   0  0  0  0  0  0
  -28.0486  -29.0014   21.3114 H   0  0  0  0  0  0
  -26.1927  -26.2774   18.6108 H   0  0  0  0  0  0
  -24.0368  -27.4752   18.7973 H   0  0  0  0  0  0
  -23.7124  -30.6385   19.4094 H   0  0  0  0  0  0
  -22.7376  -29.2776   19.8641 H   0  0  0  0  0  0
  -25.1251  -36.2045   25.0846 H   0  0  0  0  0  0
  -20.9968  -28.3253   24.1425 H   0  0  0  0  0  0
  -20.5671  -26.2292   23.3614 H   0  0  0  0  0  0
  -21.6657  -26.7447   22.1217 H   0  0  0  0  0  0
  -19.6902  -25.6280   21.1275 H   0  0  0  0  0  0
  -19.6698  -27.3174   20.6741 H   0  0  0  0  0  0
  -17.4206  -26.6713   21.4011 H   0  0  0  0  0  0
  -18.0316  -26.0050   22.9016 H   0  0  0  0  0  0
  -19.7926  -30.7276   24.2286 H   0  0  0  0  0  0
  -17.4997  -31.6250   24.5172 H   0  0  0  0  0  0
  -15.5334  -30.2960   23.7634 H   0  0  0  0  0  0
  -15.8706  -28.0808   22.7016 H   0  0  0  0  0  0
  -24.5920  -30.7011   25.7880 H   0  0  0  0  0  0
  -24.8822  -32.2903   26.4868 H   0  0  0  0  0  0
  -25.8041  -30.9024   27.0327 H   0  0  0  0  0  0
  -26.2810  -29.6910   24.1057 H   0  0  0  0  0  0
  -27.3868  -29.7200   25.4555 H   0  0  0  0  0  0
  -27.8691  -30.4383   23.9372 H   0  0  0  0  0  0
  -27.2733  -33.3589   26.2141 H   0  0  0  0  0  0
  -28.3898  -32.6787   25.0404 H   0  0  0  0  0  0
  -28.0667  -31.8367   26.5467 H   0  0  0  0  0  0
  -28.2593  -38.0163   24.7503 H   0  0  0  0  0  0
  -28.1095  -36.2696   24.6252 H   0  0  0  0  0  0
  -27.2321  -37.1489   25.8856 H   0  0  0  0  0  0
  -20.9246  -29.8874   21.7021 H   0  0  0  0  0  0
  -26.0208  -38.2922   24.1372 H   0  0  0  0  0  0
  -25.0087  -24.5840   18.1689 H   0  0  0  0  0  0
  -26.3700  -23.3904   17.8482 H   0  0  0  0  0  0
  -25.4993  -22.0093   19.5263 H   0  0  0  0  0  0
  -24.2659  -23.2385   20.0550 H   0  0  0  0  0  0
  -27.4022  -18.3648   19.3247 H   0  0  0  0  0  0
  -27.4879  -17.1429   20.5981 H   0  0  0  0  0  0
  -26.6236  -19.5145   21.2623 H   0  0  0  0  0  0
  -27.8642  -18.8375   22.2861 H   0  0  0  0  0  0
  -29.6113  -20.0657   19.1443 H   0  0  0  0  0  0
  -30.6738  -19.8746   20.5133 H   0  0  0  0  0  0
  -25.8724  -24.9430   20.6136 H   0  0  0  0  0  0
  -31.9195  -23.3888   22.5109 H   0  0  0  0  0  0
  -32.1796  -25.0210   21.8892 H   0  0  0  0  0  0
  -32.4752  -23.6316   20.8492 H   0  0  0  0  0  0
  -27.6118  -21.3034   19.3853 H   0  0  0  0  0  0
  -26.9511  -21.5395   20.9760 H   0  0  0  0  0  0
  -31.2378  -17.2280   20.9370 H   0  0  0  0  0  0
  -29.9641  -17.4464   22.0670 H   0  0  0  0  0  0
  -28.9196  -15.3340   21.2481 H   0  0  0  0  0  0
  -29.8822  -16.5852   18.7180 H   0  0  0  0  0  0
  -30.6209  -17.9898   18.3716 H   0  0  0  0  0  0
  -29.0506  -17.7705   17.9993 H   0  0  0  0  0  0
  1 25  1  0  0  0
  1 30  2  0  0  0
  1 88  1  0  0  0
  2  3  1  0  0  0
  2 25  1  0  0  0
  2 90  1  0  0  0
  2 91  1  0  0  0
  3  4  1  0  0  0
  3 92  1  0  0  0
  3 93  1  0  0  0
  4  5  1  0  0  0
  4 94  1  0  0  0
  4 95  1  0  0  0
  5  6  1  0  0  0
  5 26  1  0  0  0
  5 96  1  0  0  0
  6 25  1  0  0  0
  6 97  1  0  0  0
  6 98  1  0  0  0
  7  8  2  0  0  0
  7 26  1  0  0  0
  7 29  1  0  0  0
  8  9  1  0  0  0
  8 22  1  0  0  0
  9 10  1  0  0  0
  9 27  2  0  0  0
 10 11  2  0  0  0
 10 15  1  0  0  0
 11 12  1  0  0  0
 11 99  1  0  0  0
 12 13  2  0  0  0
 12100  1  0  0  0
 13 14  1  0  0  0
 13 31  1  0  0  0
 14 15  2  0  0  0
 14101  1  0  0  0
 15102  1  0  0  0
 16 17  2  0  0  0
 16 21  1  0  0  0
 16 31  1  0  0  0
 17 18  1  0  0  0
 17103  1  0  0  0
 18 19  2  0  0  0
 18104  1  0  0  0
 19 20  1  0  0  0
 19 24  1  0  0  0
 20 21  2  0  0  0
 20105  1  0  0  0
 21 23  1  0  0  0
 22 28  1  0  0  0
 22 32  2  0  0  0
 26 27  1  0  0  0
 28106  1  0  0  0
 28107  1  0  0  0
 29108  1  0  0  0
 29109  1  0  0  0
 33 34  1  0  0  0
 33 66  1  0  0  0
 33 70  2  0  0  0
 34 36  1  0  0  0
 34 59  1  0  0  0
 34110  1  0  0  0
 35 44  2  0  0  0
 35 45  1  0  0  0
 35 68  1  0  0  0
 36 56  1  0  0  0
 36111  1  0  0  0
 37 39  1  0  0  0
 37 47  1  0  0  0
 37 66  1  0  0  0
 37112  1  0  0  0
 38 43  2  0  0  0
 38 46  1  0  0  0
 38 47  1  0  0  0
 39 64  1  0  0  0
 39 67  2  0  0  0
 40 52  1  0  0  0
 40 53  2  0  0  0
 40 58  1  0  0  0
 41113  1  0  0  0
 41114  1  0  0  0
 41115  1  0  0  0
 41 48  1  0  0  0
 42 43  1  0  0  0
 42 66  1  0  0  0
 42116  1  0  0  0
 42117  1  0  0  0
 43 44  1  0  0  0
 44118  1  0  0  0
 45 46  2  0  0  0
 45119  1  0  0  0
 46120  1  0  0  0
 47121  1  0  0  0
 47122  1  0  0  0
 48 56  1  0  0  0
 48 65  1  0  0  0
 48123  1  0  0  0
 49 50  1  0  0  0
 49 53  1  0  0  0
 49 64  1  0  0  0
 49124  1  0  0  0
 50 51  1  0  0  0
 50125  1  0  0  0
 50126  1  0  0  0
 51 52  1  0  0  0
 51127  1  0  0  0
 51128  1  0  0  0
 52129  1  0  0  0
 52130  1  0  0  0
 53 54  1  0  0  0
 54 55  2  0  0  0
 54131  1  0  0  0
 55 57  1  0  0  0
 55132  1  0  0  0
 56 69  2  0  0  0
 57 58  2  0  0  0
 57133  1  0  0  0
 58134  1  0  0  0
 59 60  1  0  0  0
 59 61  1  0  0  0
 59 62  1  0  0  0
 60135  1  0  0  0
 60136  1  0  0  0
 60137  1  0  0  0
 61138  1  0  0  0
 61139  1  0  0  0
 61140  1  0  0  0
 62141  1  0  0  0
 62142  1  0  0  0
 62143  1  0  0  0
 63 65  1  0  0  0
 63144  1  0  0  0
 63145  1  0  0  0
 63146  1  0  0  0
 64147  1  0  0  0
 65148  1  0  0  0
 68 73  1  0  0  0
 71 72  2  0  0  0
 71 73  1  0  0  0
 71 80  1  0  0  0
 72 83  1  0  0  0
 72 85  1  0  0  0
 73 86  2  0  0  0
 74 82  1  0  0  0
 74 85  2  0  0  0
 74 86  1  0  0  0
 75 76  1  0  0  0
 75 80  1  0  0  0
 75149  1  0  0  0
 75150  1  0  0  0
 76 80  1  0  0  0
 76151  1  0  0  0
 76152  1  0  0  0
 77 78  1  0  0  0
 77 81  1  0  0  0
 77153  1  0  0  0
 77154  1  0  0  0
 78 87  1  0  0  0
 78155  1  0  0  0
 78156  1  0  0  0
 79 81  1  0  0  0
 79 87  1  0  0  0
 79157  1  0  0  0
 79158  1  0  0  0
 80159  1  0  0  0
 81 84  1  0  0  0
 81 89  1  0  0  0
 82160  1  0  0  0
 82161  1  0  0  0
 82162  1  0  0  0
 83 87  1  0  0  0
 83163  1  0  0  0
 83164  1  0  0  0
 84 88  1  0  0  0
 84165  1  0  0  0
 84166  1  0  0  0
 88167  1  0  0  0
 89168  1  0  0  0
 89169  1  0  0  0
 89170  1  0  0  0
M  CHG  1  89   1
M  ISO  4   1 100  68 101  73 101  88 100
M  END
> <chiral flag>
0

> <version>
0

> <s_m_source_file>
/data/baiqing/PycharmProjects/Reinvent-master-3.2/result/LINK_invent/BTK/process_docking_weight1_custom_sum_contain_oxygen_bond_distance_aromatic_linkinvent_7_9_3/rearranged_h_0175.sdf

> <i_m_source_file_index>
57

> <r_mmod_Potential_Energy-OPLS-2005>
-406.052917480469

> <r_mmod_Stretch_Energy-OPLS-2005>
70.6126480102539

> <r_mmod_Bend_Energy-OPLS-2005>
212.64533996582

> <r_mmod_Torsional_Energy-OPLS-2005>
375.462219238281

> <r_mmod_Improper_Torsional_Energy-OPLS-2005>
8.17897033691406

> <r_mmod_Van_der_Waal_Energy-OPLS-2005>
164.681427001953

> <r_mmod_Electrostatic_Energy-OPLS-2005>
-747.334838867188

> <r_mmod_Solvation_Energy-OPLS-2005>
-524.6357421875

> <b_mmod_Minimization_Converged-OPLS-2005>
0

> <r_mmod_RMS_Derivative-OPLS-2005>
14.5634031295776

$$$$
57
                    3D
 Structure written by MMmdl.
184194  0  0  1  0            999 V2000
  -30.6636  -14.7421   20.4586 C   0  0  0  0  0  0
  -30.4145  -12.4608   19.4702 C   0  0  0  0  0  0
  -29.5004  -12.5065   18.2296 C   0  0  0  0  0  0
  -28.0278  -12.3357   18.6468 C   0  0  0  0  0  0
  -27.6342  -13.2427   19.8451 C   0  0  2  0  0  0
  -28.6820  -13.2003   20.9764 C   0  0  0  0  0  0
  -25.2484  -13.8223   20.5722 C   0  0  0  0  0  0
  -24.1784  -13.0449   20.9215 C   0  0  0  0  0  0
  -24.6397  -11.6930   20.8750 C   0  0  0  0  0  0
  -23.9081  -10.4297   21.0405 C   0  0  0  0  0  0
  -24.3630   -9.4211   21.9187 C   0  0  0  0  0  0
  -23.6305   -8.2243   22.0754 C   0  0  0  0  0  0
  -22.4286   -8.0282   21.3539 C   0  0  0  0  0  0
  -21.9924   -9.0256   20.4642 C   0  0  0  0  0  0
  -22.7251  -10.2138   20.3056 C   0  0  0  0  0  0
  -21.6855   -6.0745   22.5281 C   0  0  0  0  0  0
  -21.4012   -6.5645   23.8215 C   0  0  0  0  0  0
  -21.3661   -5.6795   24.9177 C   0  0  0  0  0  0
  -21.6043   -4.3060   24.7223 C   0  0  0  0  0  0
  -21.8819   -3.8153   23.4344 C   0  0  0  0  0  0
  -21.9190   -4.6971   22.3402 C   0  0  0  0  0  0
  -22.7804  -13.5218   21.1869 C   0  0  0  0  0  0
  -22.1658   -4.2157   21.0980 F   0  0  0  0  0  0
  -21.5632   -3.4544   25.7737 F   0  0  0  0  0  0
  -29.9718  -13.5513   20.3739 N   0  0  0  0  0  0
  -26.2911  -12.9451   20.3288 N   0  0  0  0  0  0
  -25.9330  -11.6580   20.5765 N   0  0  0  0  0  0
  -22.0455  -12.8199   22.0426 N   0  0  0  0  0  0
  -25.4185  -15.1953   20.4173 N   0  0  0  0  0  0
  -31.8711  -14.7211   20.1990 O   0  0  0  0  0  0
  -21.6642   -6.8885   21.4243 O   0  0  0  0  0  0
  -22.3481  -14.5519   20.6717 O   0  0  0  0  0  0
  -24.6331  -31.8555   23.1996 C   0  0  0  0  0  0
  -25.9159  -32.4751   23.8334 C   0  0  1  0  0  0
  -27.2107  -27.2517   20.1093 C   0  0  0  0  0  0
  -25.5957  -33.8554   24.2261 N   0  0  0  0  0  0
  -23.4280  -30.4814   21.5447 C   0  0  2  0  0  0
  -24.8706  -28.9337   20.1077 C   0  0  0  0  0  0
  -22.7510  -29.4610   22.4920 C   0  0  0  0  0  0
  -18.0292  -28.1385   22.8486 C   0  0  0  0  0  0
  -24.1494  -36.7275   23.2640 C   0  0  0  0  0  0
  -25.9769  -30.7644   21.3817 C   0  0  0  0  0  0
  -26.0450  -29.3886   20.7183 C   0  0  0  0  0  0
  -27.2139  -28.5589   20.7116 C   0  0  0  0  0  0
  -26.0000  -26.8655   19.4861 C   0  0  0  0  0  0
  -24.8545  -27.6806   19.4838 C   0  0  0  0  0  0
  -23.6441  -29.8226   20.1582 C   0  0  0  0  0  0
  -25.4122  -36.3068   24.0327 C   0  0  1  0  0  0
  -20.5897  -28.3698   23.1268 C   0  0  2  0  0  0
  -20.6785  -26.9414   22.5407 C   0  0  0  0  0  0
  -19.5758  -26.6383   21.5214 C   0  0  0  0  0  0
  -18.1936  -26.7927   22.1624 C   0  0  0  0  0  0
  -19.1545  -28.8861   23.2870 C   0  0  0  0  0  0
  -18.9466  -30.1462   23.8887 C   0  0  0  0  0  0
  -17.6465  -30.6586   24.0563 C   0  0  0  0  0  0
  -25.9067  -34.9439   23.5095 C   0  0  0  0  0  0
  -16.5356  -29.9082   23.6334 C   0  0  0  0  0  0
  -16.7280  -28.6499   23.0357 C   0  0  0  0  0  0
  -26.4517  -31.6570   25.0726 C   0  0  0  0  0  0
  -25.3733  -31.3714   26.1437 C   0  0  0  0  0  0
  -27.0366  -30.2984   24.6219 C   0  0  0  0  0  0
  -27.6072  -32.4304   25.7498 C   0  0  0  0  0  0
  -27.5582  -37.1795   24.8465 C   0  0  0  0  0  0
  -21.4218  -29.3046   22.3660 N   0  0  0  0  0  0
  -26.4296  -37.3769   23.9408 N   0  0  0  0  0  0
  -24.6987  -31.0514   22.0980 N   0  0  0  0  0  0
  -23.4209  -28.8147   23.3020 O   0  0  0  0  0  0
  -28.3118  -26.3601   20.1953 O   0  0  0  0  0  0
  -26.5634  -34.8914   22.4662 O   0  0  0  0  0  0
  -23.5482  -32.1392   23.7285 O   0  0  0  0  0  0
  -28.2316  -21.2269   19.7868 C   0  0  0  0  0  0
  -29.3711  -20.7434   20.4861 C   0  0  0  0  0  0
  -29.8879  -23.2208   20.8306 C   0  0  0  0  0  0
  -30.1843  -21.8048   21.0324 C   0  0  0  0  0  0
  -28.7388  -23.6135   20.0581 C   0  0  0  0  0  0
  -28.8667  -18.1792   21.4026 C   0  0  0  0  0  0
  -29.8992  -18.3981   19.2448 C   0  0  0  0  0  0
  -29.4569  -16.7005   21.5736 C   0  0  0  0  0  0
  -30.5681  -16.9766   19.4024 C   0  0  0  0  0  0
  -32.5432  -21.0138   21.0812 C   0  0  0  0  0  0
  -31.2488  -20.9400   23.1126 C   0  0  0  0  0  0
  -29.7430  -19.1712   20.5754 C   0  0  0  0  0  0
  -33.2443  -20.0803   22.0849 C   0  0  2  0  0  0
  -32.6974  -20.5557   23.4450 C   0  0  2  0  0  0
  -34.7740  -20.1071   21.9619 C   0  0  0  0  0  0
  -30.1372  -25.0588   22.5992 C   0  0  0  0  0  0
  -31.4894  -25.2346   20.4253 C   0  0  0  0  0  0
  -28.3947  -25.0594   19.4396 C   0  0  0  0  0  0
  -30.8152  -24.2980   21.4460 C   0  0  0  0  0  0
  -27.9808  -22.5664   19.6065 N   0  3  0  0  0  0
  -31.3396  -21.4718   21.7631 N   0  0  0  0  0  0
  -29.9965  -15.9797   20.3734 N   0  0  0  0  0  0
  -32.8065  -19.5577   24.5222 N   0  3  0  0  0  0
  -31.4576  -12.5570   19.1648 H   0  0  0  0  0  0
  -30.3413  -11.4930   19.9694 H   0  0  0  0  0  0
  -29.7820  -11.7273   17.5204 H   0  0  0  0  0  0
  -29.6297  -13.4573   17.7099 H   0  0  0  0  0  0
  -27.8849  -11.2880   18.9150 H   0  0  0  0  0  0
  -27.3698  -12.5229   17.7975 H   0  0  0  0  0  0
  -27.6211  -14.2625   19.4588 H   0  0  0  0  0  0
  -28.7237  -12.2091   21.4306 H   0  0  0  0  0  0
  -28.4186  -13.8908   21.7760 H   0  0  0  0  0  0
  -25.2774   -9.5685   22.4766 H   0  0  0  0  0  0
  -24.0013   -7.4635   22.7474 H   0  0  0  0  0  0
  -21.0855   -8.8773   19.8949 H   0  0  0  0  0  0
  -22.3705  -10.9680   19.6166 H   0  0  0  0  0  0
  -21.2001   -7.6151   23.9721 H   0  0  0  0  0  0
  -21.1484   -6.0525   25.9079 H   0  0  0  0  0  0
  -22.0596   -2.7616   23.2843 H   0  0  0  0  0  0
  -22.4078  -11.9862   22.4807 H   0  0  0  0  0  0
  -21.1066  -13.1207   22.2625 H   0  0  0  0  0  0
  -24.6567  -15.8532   20.5397 H   0  0  0  0  0  0
  -26.2812  -15.6352   20.1233 H   0  0  0  0  0  0
  -26.7223  -32.5384   23.1067 H   0  0  0  0  0  0
  -25.0106  -33.9689   25.0410 H   0  0  0  0  0  0
  -22.7245  -31.3044   21.4026 H   0  0  0  0  0  0
  -23.3765  -35.9597   23.3297 H   0  0  0  0  0  0
  -24.3585  -36.8903   22.2055 H   0  0  0  0  0  0
  -23.7235  -37.6469   23.6669 H   0  0  0  0  0  0
  -26.1218  -31.5278   20.6159 H   0  0  0  0  0  0
  -26.8527  -30.8068   22.0175 H   0  0  0  0  0  0
  -28.1116  -28.9031   21.2064 H   0  0  0  0  0  0
  -25.8598  -25.9052   19.0220 H   0  0  0  0  0  0
  -23.9506  -27.3223   19.0105 H   0  0  0  0  0  0
  -23.7695  -30.6030   19.4065 H   0  0  0  0  0  0
  -22.7608  -29.2596   19.8509 H   0  0  0  0  0  0
  -25.1305  -36.1916   25.0820 H   0  0  0  0  0  0
  -20.9982  -28.3276   24.1393 H   0  0  0  0  0  0
  -20.5691  -26.2309   23.3614 H   0  0  0  0  0  0
  -21.6652  -26.7444   22.1194 H   0  0  0  0  0  0
  -19.6919  -25.6293   21.1247 H   0  0  0  0  0  0
  -19.6694  -27.3197   20.6745 H   0  0  0  0  0  0
  -17.4207  -26.6681   21.4024 H   0  0  0  0  0  0
  -18.0329  -26.0066   22.9017 H   0  0  0  0  0  0
  -19.7941  -30.7284   24.2248 H   0  0  0  0  0  0
  -17.5016  -31.6264   24.5165 H   0  0  0  0  0  0
  -15.5355  -30.2982   23.7662 H   0  0  0  0  0  0
  -15.8680  -28.0817   22.7079 H   0  0  0  0  0  0
  -24.5928  -30.7043   25.7759 H   0  0  0  0  0  0
  -24.8904  -32.2878   26.4839 H   0  0  0  0  0  0
  -25.8046  -30.8907   27.0228 H   0  0  0  0  0  0
  -26.2956  -29.6721   24.1240 H   0  0  0  0  0  0
  -27.4042  -29.7252   25.4740 H   0  0  0  0  0  0
  -27.8838  -30.4256   23.9477 H   0  0  0  0  0  0
  -27.2695  -33.3616   26.2054 H   0  0  0  0  0  0
  -28.3897  -32.6833   25.0334 H   0  0  0  0  0  0
  -28.0726  -31.8437   26.5429 H   0  0  0  0  0  0
  -28.2590  -38.0103   24.7522 H   0  0  0  0  0  0
  -28.1090  -36.2629   24.6285 H   0  0  0  0  0  0
  -27.2295  -37.1432   25.8868 H   0  0  0  0  0  0
  -20.9404  -29.8771   21.6864 H   0  0  0  0  0  0
  -26.0173  -38.2841   24.1410 H   0  0  0  0  0  0
  -27.5235  -20.5628   19.3111 H   0  0  0  0  0  0
  -28.7021  -18.5980   22.3958 H   0  0  0  0  0  0
  -27.8759  -18.1145   20.9499 H   0  0  0  0  0  0
  -28.9319  -18.2999   18.7499 H   0  0  0  0  0  0
  -30.5178  -18.9889   18.5676 H   0  0  0  0  0  0
  -28.6879  -16.0826   22.0356 H   0  0  0  0  0  0
  -30.2688  -16.7459   22.3016 H   0  0  0  0  0  0
  -31.6104  -17.1540   19.6749 H   0  0  0  0  0  0
  -30.6025  -16.5072   18.4173 H   0  0  0  0  0  0
  -32.3314  -20.5104   20.1359 H   0  0  0  0  0  0
  -33.1649  -21.8819   20.8550 H   0  0  0  0  0  0
  -30.8607  -21.6865   23.8078 H   0  0  0  0  0  0
  -30.5838  -20.0761   23.1399 H   0  0  0  0  0  0
  -30.7203  -19.1145   21.0409 H   0  0  0  0  0  0
  -32.8969  -19.0625   21.8987 H   0  0  0  0  0  0
  -33.2331  -21.4567   23.7515 H   0  0  0  0  0  0
  -35.1700  -21.1108   22.1197 H   0  0  0  0  0  0
  -35.0883  -19.7804   20.9701 H   0  0  0  0  0  0
  -35.2446  -19.4440   22.6880 H   0  0  0  0  0  0
  -29.8173  -24.3697   23.3820 H   0  0  0  0  0  0
  -29.2596  -25.6167   22.2841 H   0  0  0  0  0  0
  -30.8268  -25.7692   23.0568 H   0  0  0  0  0  0
  -31.9416  -24.6696   19.6093 H   0  0  0  0  0  0
  -32.2896  -25.8002   20.9045 H   0  0  0  0  0  0
  -30.8170  -25.9734   19.9994 H   0  0  0  0  0  0
  -27.5478  -24.9063   18.7824 H   0  0  0  0  0  0
  -29.1852  -25.2291   18.7100 H   0  0  0  0  0  0
  -31.6677  -23.8218   21.9229 H   0  0  0  0  0  0
  -27.1685  -22.8010   19.0316 H   0  0  0  0  0  0
  -32.3313  -18.7046   24.2897 H   0  0  0  0  0  0
  -32.4105  -19.9212   25.3710 H   0  0  0  0  0  0
  -33.7711  -19.3458   24.7044 H   0  0  0  0  0  0
  1 25  1  0  0  0
  1 30  2  0  0  0
  1 92  1  0  0  0
  2  3  1  0  0  0
  2 25  1  0  0  0
  2 94  1  0  0  0
  2 95  1  0  0  0
  3  4  1  0  0  0
  3 96  1  0  0  0
  3 97  1  0  0  0
  4  5  1  0  0  0
  4 98  1  0  0  0
  4 99  1  0  0  0
  5  6  1  0  0  0
  5 26  1  0  0  0
  5100  1  0  0  0
  6 25  1  0  0  0
  6101  1  0  0  0
  6102  1  0  0  0
  7  8  2  0  0  0
  7 26  1  0  0  0
  7 29  1  0  0  0
  8  9  1  0  0  0
  8 22  1  0  0  0
  9 10  1  0  0  0
  9 27  2  0  0  0
 10 11  2  0  0  0
 10 15  1  0  0  0
 11 12  1  0  0  0
 11103  1  0  0  0
 12 13  2  0  0  0
 12104  1  0  0  0
 13 14  1  0  0  0
 13 31  1  0  0  0
 14 15  2  0  0  0
 14105  1  0  0  0
 15106  1  0  0  0
 16 17  2  0  0  0
 16 21  1  0  0  0
 16 31  1  0  0  0
 17 18  1  0  0  0
 17107  1  0  0  0
 18 19  2  0  0  0
 18108  1  0  0  0
 19 20  1  0  0  0
 19 24  1  0  0  0
 20 21  2  0  0  0
 20109  1  0  0  0
 21 23  1  0  0  0
 22 28  1  0  0  0
 22 32  2  0  0  0
 26 27  1  0  0  0
 28110  1  0  0  0
 28111  1  0  0  0
 29112  1  0  0  0
 29113  1  0  0  0
 33 34  1  0  0  0
 33 66  1  0  0  0
 33 70  2  0  0  0
 34 36  1  0  0  0
 34 59  1  0  0  0
 34114  1  0  0  0
 35 44  2  0  0  0
 35 45  1  0  0  0
 35 68  1  0  0  0
 36 56  1  0  0  0
 36115  1  0  0  0
 37 39  1  0  0  0
 37 47  1  0  0  0
 37 66  1  0  0  0
 37116  1  0  0  0
 38 43  2  0  0  0
 38 46  1  0  0  0
 38 47  1  0  0  0
 39 64  1  0  0  0
 39 67  2  0  0  0
 40 52  1  0  0  0
 40 53  2  0  0  0
 40 58  1  0  0  0
 41117  1  0  0  0
 41118  1  0  0  0
 41119  1  0  0  0
 41 48  1  0  0  0
 42 43  1  0  0  0
 42 66  1  0  0  0
 42120  1  0  0  0
 42121  1  0  0  0
 43 44  1  0  0  0
 44122  1  0  0  0
 45 46  2  0  0  0
 45123  1  0  0  0
 46124  1  0  0  0
 47125  1  0  0  0
 47126  1  0  0  0
 48 56  1  0  0  0
 48 65  1  0  0  0
 48127  1  0  0  0
 49 50  1  0  0  0
 49 53  1  0  0  0
 49 64  1  0  0  0
 49128  1  0  0  0
 50 51  1  0  0  0
 50129  1  0  0  0
 50130  1  0  0  0
 51 52  1  0  0  0
 51131  1  0  0  0
 51132  1  0  0  0
 52133  1  0  0  0
 52134  1  0  0  0
 53 54  1  0  0  0
 54 55  2  0  0  0
 54135  1  0  0  0
 55 57  1  0  0  0
 55136  1  0  0  0
 56 69  2  0  0  0
 57 58  2  0  0  0
 57137  1  0  0  0
 58138  1  0  0  0
 59 60  1  0  0  0
 59 61  1  0  0  0
 59 62  1  0  0  0
 60139  1  0  0  0
 60140  1  0  0  0
 60141  1  0  0  0
 61142  1  0  0  0
 61143  1  0  0  0
 61144  1  0  0  0
 62145  1  0  0  0
 62146  1  0  0  0
 62147  1  0  0  0
 63 65  1  0  0  0
 63148  1  0  0  0
 63149  1  0  0  0
 63150  1  0  0  0
 64151  1  0  0  0
 65152  1  0  0  0
 68 88  1  0  0  0
 71 72  2  0  0  0
 71 90  1  0  0  0
 71153  1  0  0  0
 72 74  1  0  0  0
 72 82  1  0  0  0
 73 74  2  0  0  0
 73 75  1  0  0  0
 73 89  1  0  0  0
 74 91  1  0  0  0
 75 88  1  0  0  0
 75 90  2  0  0  0
 76 78  1  0  0  0
 76 82  1  0  0  0
 76154  1  0  0  0
 76155  1  0  0  0
 77 79  1  0  0  0
 77 82  1  0  0  0
 77156  1  0  0  0
 77157  1  0  0  0
 78 92  1  0  0  0
 78158  1  0  0  0
 78159  1  0  0  0
 79 92  1  0  0  0
 79160  1  0  0  0
 79161  1  0  0  0
 80 83  1  0  0  0
 80 91  1  0  0  0
 80162  1  0  0  0
 80163  1  0  0  0
 81 84  1  0  0  0
 81 91  1  0  0  0
 81164  1  0  0  0
 81165  1  0  0  0
 82166  1  0  0  0
 83 84  1  0  0  0
 83 85  1  0  0  0
 83167  1  0  0  0
 84 93  1  0  0  0
 84168  1  0  0  0
 85169  1  0  0  0
 85170  1  0  0  0
 85171  1  0  0  0
 86172  1  0  0  0
 86173  1  0  0  0
 86174  1  0  0  0
 86 89  1  0  0  0
 87 89  1  0  0  0
 87175  1  0  0  0
 87176  1  0  0  0
 87177  1  0  0  0
 88178  1  0  0  0
 88179  1  0  0  0
 89180  1  0  0  0
 90181  1  0  0  0
 93182  1  0  0  0
 93183  1  0  0  0
 93184  1  0  0  0
M  CHG  2  90   1  93   1
M  ISO  4   1 100  68 101  88 101  92 100
M  END
> <chiral flag>
0

> <version>
0

> <s_m_source_file>
/data/baiqing/PycharmProjects/Reinvent-master-3.2/result/LINK_invent/BTK/process_docking_weight1_custom_sum_contain_oxygen_bond_distance_aromatic_linkinvent_7_9_3/rearranged_h_0175.sdf

> <i_m_source_file_index>
58

> <r_mmod_Potential_Energy-OPLS-2005>
283.660339355469

> <r_mmod_Stretch_Energy-OPLS-2005>
137.673614501953

> <r_mmod_Bend_Energy-OPLS-2005>
266.722778320312

> <r_mmod_Torsional_Energy-OPLS-2005>
423.070648193359

> <r_mmod_Improper_Torsional_Energy-OPLS-2005>
20.7302494049072

> <r_mmod_Van_der_Waal_Energy-OPLS-2005>
145.952423095703

> <r_mmod_Electrostatic_Energy-OPLS-2005>
74.5667037963867

> <r_mmod_Solvation_Energy-OPLS-2005>
-875.578247070312

> <b_mmod_Minimization_Converged-OPLS-2005>
0

> <r_mmod_RMS_Derivative-OPLS-2005>
0.910144805908203

$$$$
58
                    3D
 Structure written by MMmdl.
164173  0  0  1  0            999 V2000
  -30.5564  -14.9455   20.3720 C   0  0  0  0  0  0
  -30.4391  -12.5791   19.4840 C   0  0  0  0  0  0
  -29.5174  -12.5007   18.2473 C   0  0  0  0  0  0
  -28.0542  -12.2778   18.6781 C   0  0  0  0  0  0
  -27.6240  -13.2107   19.8379 C   0  0  2  0  0  0
  -28.6771  -13.2922   20.9619 C   0  0  0  0  0  0
  -25.2517  -13.8115   20.5759 C   0  0  0  0  0  0
  -24.1783  -13.0395   20.9235 C   0  0  0  0  0  0
  -24.6351  -11.6855   20.8772 C   0  0  0  0  0  0
  -23.9024  -10.4262   21.0408 C   0  0  0  0  0  0
  -24.3586   -9.4182   21.9190 C   0  0  0  0  0  0
  -23.6288   -8.2220   22.0757 C   0  0  0  0  0  0
  -22.4259   -8.0265   21.3548 C   0  0  0  0  0  0
  -21.9884   -9.0225   20.4658 C   0  0  0  0  0  0
  -22.7204  -10.2114   20.3059 C   0  0  0  0  0  0
  -21.6843   -6.0727   22.5269 C   0  0  0  0  0  0
  -21.3989   -6.5627   23.8196 C   0  0  0  0  0  0
  -21.3658   -5.6779   24.9165 C   0  0  0  0  0  0
  -21.6063   -4.3053   24.7215 C   0  0  0  0  0  0
  -21.8831   -3.8145   23.4327 C   0  0  0  0  0  0
  -21.9192   -4.6962   22.3390 C   0  0  0  0  0  0
  -22.7820  -13.5223   21.1876 C   0  0  0  0  0  0
  -22.1675   -4.2156   21.0963 F   0  0  0  0  0  0
  -21.5637   -3.4536   25.7731 F   0  0  0  0  0  0
  -29.9397  -13.6959   20.3317 N   0  0  0  0  0  0
  -26.2879  -12.9239   20.3311 N   0  0  0  0  0  0
  -25.9276  -11.6416   20.5791 N   0  0  0  0  0  0
  -22.0433  -12.8227   22.0424 N   0  0  0  0  0  0
  -25.4302  -15.1850   20.4231 N   0  0  0  0  0  0
  -31.7835  -14.9644   20.2257 O   0  0  0  0  0  0
  -21.6629   -6.8858   21.4231 O   0  0  0  0  0  0
  -22.3523  -14.5532   20.6720 O   0  0  0  0  0  0
  -24.6436  -31.8463   23.1917 C   0  0  0  0  0  0
  -25.9238  -32.4684   23.8267 C   0  0  1  0  0  0
  -27.2061  -27.1557   20.1407 C   0  0  0  0  0  0
  -25.6004  -33.8487   24.2211 N   0  0  0  0  0  0
  -23.4422  -30.4716   21.5373 C   0  0  2  0  0  0
  -24.8889  -28.9062   20.1070 C   0  0  0  0  0  0
  -22.7543  -29.4579   22.4851 C   0  0  0  0  0  0
  -18.0306  -28.1387   22.8466 C   0  0  0  0  0  0
  -24.1496  -36.7229   23.2630 C   0  0  0  0  0  0
  -25.9976  -30.7260   21.3880 C   0  0  0  0  0  0
  -26.0676  -29.3393   20.7311 C   0  0  0  0  0  0
  -27.2287  -28.4789   20.7373 C   0  0  0  0  0  0
  -26.0136  -26.8412   19.4518 C   0  0  0  0  0  0
  -24.8744  -27.6687   19.4520 C   0  0  0  0  0  0
  -23.6658  -29.8076   20.1539 C   0  0  0  0  0  0
  -25.4113  -36.3011   24.0322 C   0  0  1  0  0  0
  -20.5918  -28.3715   23.1223 C   0  0  2  0  0  0
  -20.6786  -26.9418   22.5396 C   0  0  0  0  0  0
  -19.5769  -26.6385   21.5190 C   0  0  0  0  0  0
  -18.1946  -26.7931   22.1602 C   0  0  0  0  0  0
  -19.1563  -28.8864   23.2841 C   0  0  0  0  0  0
  -18.9481  -30.1459   23.8870 C   0  0  0  0  0  0
  -17.6485  -30.6588   24.0558 C   0  0  0  0  0  0
  -25.9077  -34.9393   23.5064 C   0  0  0  0  0  0
  -16.5365  -29.9074   23.6336 C   0  0  0  0  0  0
  -16.7291  -28.6497   23.0350 C   0  0  0  0  0  0
  -26.4571  -31.6521   25.0687 C   0  0  0  0  0  0
  -25.3772  -31.3731   26.1406 C   0  0  0  0  0  0
  -27.0389  -30.2889   24.6263 C   0  0  0  0  0  0
  -27.6124  -32.4254   25.7468 C   0  0  0  0  0  0
  -27.5586  -37.1752   24.8446 C   0  0  0  0  0  0
  -21.4239  -29.3045   22.3585 N   0  0  0  0  0  0
  -26.4258  -37.3737   23.9444 N   0  0  0  0  0  0
  -24.7141  -31.0352   22.0938 N   0  0  0  0  0  0
  -23.4187  -28.8122   23.2997 O   0  0  0  0  0  0
  -28.2227  -26.1368   20.1852 O   0  0  0  0  0  0
  -26.5647  -34.8902   22.4631 O   0  0  0  0  0  0
  -23.5575  -32.1335   23.7178 O   0  0  0  0  0  0
  -29.3332  -20.4090   20.2165 C   0  0  0  0  0  0
  -29.9633  -21.5644   19.5755 C   0  0  0  0  0  0
  -27.8372  -22.0687   21.1159 C   0  0  0  0  0  0
  -28.4403  -23.2155   20.4679 C   0  0  0  0  0  0
  -28.6209  -18.0319   19.1284 C   0  0  0  0  0  0
  -29.1367  -16.5581   19.0629 C   0  0  0  0  0  0
  -29.6624  -18.8023   19.9263 C   0  0  2  0  0  0
  -30.0039  -17.5825   20.9613 C   0  0  2  0  0  0
  -26.6096  -22.2502   21.9930 C   0  0  0  0  0  0
  -31.3623  -17.7573   21.6551 C   0  0  0  0  0  0
  -32.2981  -22.4266   18.9069 C   0  0  0  0  0  0
  -31.1439  -21.4371   18.6088 C   0  0  0  0  0  0
  -27.7722  -24.7213   20.6255 C   0  0  0  0  0  0
  -28.2556  -20.7472   20.9925 N   0  0  0  0  0  0
  -29.5198  -22.8910   19.6863 N   0  0  0  0  0  0
  -29.8008  -16.1645   20.3315 N   0  0  0  0  0  0
  -31.4738  -12.7311   19.1715 H   0  0  0  0  0  0
  -30.4292  -11.6391   20.0376 H   0  0  0  0  0  0
  -29.8394  -11.6940   17.5871 H   0  0  0  0  0  0
  -29.5996  -13.4213   17.6685 H   0  0  0  0  0  0
  -27.9623  -11.2387   18.9959 H   0  0  0  0  0  0
  -27.3837  -12.3997   17.8259 H   0  0  0  0  0  0
  -27.5488  -14.1840   19.3837 H   0  0  0  0  0  0
  -28.7842  -12.3365   21.4772 H   0  0  0  0  0  0
  -28.3789  -14.0255   21.7143 H   0  0  0  0  0  0
  -25.2726   -9.5704   22.4755 H   0  0  0  0  0  0
  -24.0025   -7.4606   22.7455 H   0  0  0  0  0  0
  -21.0823   -8.8742   19.8961 H   0  0  0  0  0  0
  -22.3653  -10.9651   19.6174 H   0  0  0  0  0  0
  -21.1954   -7.6128   23.9699 H   0  0  0  0  0  0
  -21.1473   -6.0505   25.9066 H   0  0  0  0  0  0
  -22.0613   -2.7611   23.2812 H   0  0  0  0  0  0
  -22.4043  -11.9890   22.4827 H   0  0  0  0  0  0
  -21.1069  -13.1292   22.2630 H   0  0  0  0  0  0
  -24.6733  -15.8479   20.5492 H   0  0  0  0  0  0
  -26.3009  -15.6232   20.1529 H   0  0  0  0  0  0
  -26.7287  -32.5315   23.0979 H   0  0  0  0  0  0
  -25.0189  -33.9580   25.0390 H   0  0  0  0  0  0
  -22.7442  -31.2987   21.3899 H   0  0  0  0  0  0
  -23.3779  -35.9535   23.3220 H   0  0  0  0  0  0
  -24.3609  -36.8927   22.2061 H   0  0  0  0  0  0
  -23.7220  -37.6395   23.6692 H   0  0  0  0  0  0
  -26.1496  -31.4813   20.6158 H   0  0  0  0  0  0
  -26.8689  -30.7759   22.0289 H   0  0  0  0  0  0
  -28.1217  -28.7997   21.2545 H   0  0  0  0  0  0
  -25.9371  -25.9114   18.9083 H   0  0  0  0  0  0
  -23.9820  -27.3378   18.9393 H   0  0  0  0  0  0
  -23.8004  -30.5845   19.3996 H   0  0  0  0  0  0
  -22.7790  -29.2502   19.8457 H   0  0  0  0  0  0
  -25.1290  -36.1805   25.0804 H   0  0  0  0  0  0
  -21.0035  -28.3329   24.1336 H   0  0  0  0  0  0
  -20.5641  -26.2343   23.3615 H   0  0  0  0  0  0
  -21.6664  -26.7396   22.1244 H   0  0  0  0  0  0
  -19.6932  -25.6290   21.1240 H   0  0  0  0  0  0
  -19.6720  -27.3176   20.6701 H   0  0  0  0  0  0
  -17.4221  -26.6679   21.3995 H   0  0  0  0  0  0
  -18.0347  -26.0068   22.8995 H   0  0  0  0  0  0
  -19.7952  -30.7278   24.2235 H   0  0  0  0  0  0
  -17.5035  -31.6264   24.5161 H   0  0  0  0  0  0
  -15.5369  -30.2969   23.7671 H   0  0  0  0  0  0
  -15.8695  -28.0801   22.7075 H   0  0  0  0  0  0
  -24.6020  -30.6961   25.7802 H   0  0  0  0  0  0
  -24.8869  -32.2902   26.4671 H   0  0  0  0  0  0
  -25.8106  -30.9083   27.0273 H   0  0  0  0  0  0
  -26.2976  -29.6626   24.1287 H   0  0  0  0  0  0
  -27.3987  -29.7180   25.4835 H   0  0  0  0  0  0
  -27.8915  -30.4065   23.9571 H   0  0  0  0  0  0
  -27.2751  -33.3600   26.1960 H   0  0  0  0  0  0
  -28.3998  -32.6717   25.0327 H   0  0  0  0  0  0
  -28.0722  -31.8406   26.5452 H   0  0  0  0  0  0
  -28.2522  -38.0128   24.7583 H   0  0  0  0  0  0
  -28.1155  -36.2657   24.6119 H   0  0  0  0  0  0
  -27.2331  -37.1246   25.8852 H   0  0  0  0  0  0
  -20.9426  -29.8761   21.6783 H   0  0  0  0  0  0
  -26.0111  -38.2783   24.1503 H   0  0  0  0  0  0
  -27.6622  -18.0652   19.6493 H   0  0  0  0  0  0
  -28.4626  -18.4555   18.1366 H   0  0  0  0  0  0
  -29.8777  -16.4816   18.2650 H   0  0  0  0  0  0
  -28.3234  -15.9110   18.7655 H   0  0  0  0  0  0
  -30.5254  -18.8092   19.2713 H   0  0  0  0  0  0
  -29.2491  -17.6288   21.7486 H   0  0  0  0  0  0
  -26.8352  -22.8904   22.8459 H   0  0  0  0  0  0
  -26.2462  -21.2992   22.3842 H   0  0  0  0  0  0
  -25.7938  -22.7019   21.4281 H   0  0  0  0  0  0
  -32.1843  -17.6928   20.9426 H   0  0  0  0  0  0
  -31.5180  -16.9948   22.4180 H   0  0  0  0  0  0
  -31.4210  -18.7269   22.1511 H   0  0  0  0  0  0
  -33.1280  -22.2644   18.2179 H   0  0  0  0  0  0
  -32.6840  -22.3062   19.9232 H   0  0  0  0  0  0
  -31.9967  -23.4717   18.7899 H   0  0  0  0  0  0
  -30.7677  -21.5783   17.5904 H   0  0  0  0  0  0
  -31.5705  -20.4369   18.6319 H   0  0  0  0  0  0
  -27.6600  -24.8412   21.7030 H   0  0  0  0  0  0
  -26.7568  -24.5563   20.2764 H   0  0  0  0  0  0
  1 25  1  0  0  0
  1 30  2  0  0  0
  1 86  1  0  0  0
  2  3  1  0  0  0
  2 25  1  0  0  0
  2 87  1  0  0  0
  2 88  1  0  0  0
  3  4  1  0  0  0
  3 89  1  0  0  0
  3 90  1  0  0  0
  4  5  1  0  0  0
  4 91  1  0  0  0
  4 92  1  0  0  0
  5  6  1  0  0  0
  5 26  1  0  0  0
  5 93  1  0  0  0
  6 25  1  0  0  0
  6 94  1  0  0  0
  6 95  1  0  0  0
  7  8  2  0  0  0
  7 26  1  0  0  0
  7 29  1  0  0  0
  8  9  1  0  0  0
  8 22  1  0  0  0
  9 10  1  0  0  0
  9 27  2  0  0  0
 10 11  2  0  0  0
 10 15  1  0  0  0
 11 12  1  0  0  0
 11 96  1  0  0  0
 12 13  2  0  0  0
 12 97  1  0  0  0
 13 14  1  0  0  0
 13 31  1  0  0  0
 14 15  2  0  0  0
 14 98  1  0  0  0
 15 99  1  0  0  0
 16 17  2  0  0  0
 16 21  1  0  0  0
 16 31  1  0  0  0
 17 18  1  0  0  0
 17100  1  0  0  0
 18 19  2  0  0  0
 18101  1  0  0  0
 19 20  1  0  0  0
 19 24  1  0  0  0
 20 21  2  0  0  0
 20102  1  0  0  0
 21 23  1  0  0  0
 22 28  1  0  0  0
 22 32  2  0  0  0
 26 27  1  0  0  0
 28103  1  0  0  0
 28104  1  0  0  0
 29105  1  0  0  0
 29106  1  0  0  0
 33 34  1  0  0  0
 33 66  1  0  0  0
 33 70  2  0  0  0
 34 36  1  0  0  0
 34 59  1  0  0  0
 34107  1  0  0  0
 35 44  2  0  0  0
 35 45  1  0  0  0
 35 68  1  0  0  0
 36 56  1  0  0  0
 36108  1  0  0  0
 37 39  1  0  0  0
 37 47  1  0  0  0
 37 66  1  0  0  0
 37109  1  0  0  0
 38 43  2  0  0  0
 38 46  1  0  0  0
 38 47  1  0  0  0
 39 64  1  0  0  0
 39 67  2  0  0  0
 40 52  1  0  0  0
 40 53  2  0  0  0
 40 58  1  0  0  0
 41110  1  0  0  0
 41111  1  0  0  0
 41112  1  0  0  0
 41 48  1  0  0  0
 42 43  1  0  0  0
 42 66  1  0  0  0
 42113  1  0  0  0
 42114  1  0  0  0
 43 44  1  0  0  0
 44115  1  0  0  0
 45 46  2  0  0  0
 45116  1  0  0  0
 46117  1  0  0  0
 47118  1  0  0  0
 47119  1  0  0  0
 48 56  1  0  0  0
 48 65  1  0  0  0
 48120  1  0  0  0
 49 50  1  0  0  0
 49 53  1  0  0  0
 49 64  1  0  0  0
 49121  1  0  0  0
 50 51  1  0  0  0
 50122  1  0  0  0
 50123  1  0  0  0
 51 52  1  0  0  0
 51124  1  0  0  0
 51125  1  0  0  0
 52126  1  0  0  0
 52127  1  0  0  0
 53 54  1  0  0  0
 54 55  2  0  0  0
 54128  1  0  0  0
 55 57  1  0  0  0
 55129  1  0  0  0
 56 69  2  0  0  0
 57 58  2  0  0  0
 57130  1  0  0  0
 58131  1  0  0  0
 59 60  1  0  0  0
 59 61  1  0  0  0
 59 62  1  0  0  0
 60132  1  0  0  0
 60133  1  0  0  0
 60134  1  0  0  0
 61135  1  0  0  0
 61136  1  0  0  0
 61137  1  0  0  0
 62138  1  0  0  0
 62139  1  0  0  0
 62140  1  0  0  0
 63 65  1  0  0  0
 63141  1  0  0  0
 63142  1  0  0  0
 63143  1  0  0  0
 64144  1  0  0  0
 65145  1  0  0  0
 68 83  1  0  0  0
 71 72  2  0  0  0
 71 84  1  0  0  0
 71 77  1  0  0  0
 72 82  1  0  0  0
 72 85  1  0  0  0
 73 74  1  0  0  0
 73 79  1  0  0  0
 73 84  2  0  0  0
 74 83  1  0  0  0
 74 85  2  0  0  0
 75 76  1  0  0  0
 75 77  1  0  0  0
 75146  1  0  0  0
 75147  1  0  0  0
 76 86  1  0  0  0
 76148  1  0  0  0
 76149  1  0  0  0
 77 78  1  0  0  0
 77150  1  0  0  0
 78 80  1  0  0  0
 78 86  1  0  0  0
 78151  1  0  0  0
 79152  1  0  0  0
 79153  1  0  0  0
 79154  1  0  0  0
 80155  1  0  0  0
 80156  1  0  0  0
 80157  1  0  0  0
 81 82  1  0  0  0
 81158  1  0  0  0
 81159  1  0  0  0
 81160  1  0  0  0
 82161  1  0  0  0
 82162  1  0  0  0
 83163  1  0  0  0
 83164  1  0  0  0
M  ISO  4   1 100  68 101  83 101  86 100
M  END
> <chiral flag>
0

> <version>
0

> <s_m_source_file>
/data/baiqing/PycharmProjects/Reinvent-master-3.2/result/LINK_invent/BTK/process_docking_weight1_custom_sum_contain_oxygen_bond_distance_aromatic_linkinvent_7_9_3/rearranged_h_0175.sdf

> <i_m_source_file_index>
59

> <r_mmod_Potential_Energy-OPLS-2005>
810.48095703125

> <r_mmod_Stretch_Energy-OPLS-2005>
231.9716796875

> <r_mmod_Bend_Energy-OPLS-2005>
316.720153808594

> <r_mmod_Torsional_Energy-OPLS-2005>
335.985382080078

> <r_mmod_Improper_Torsional_Energy-OPLS-2005>
9.4148063659668

> <r_mmod_Van_der_Waal_Energy-OPLS-2005>
137.696823120117

> <r_mmod_Electrostatic_Energy-OPLS-2005>
-205.146484375

> <r_mmod_Solvation_Energy-OPLS-2005>
-209.541870117188

> <b_mmod_Minimization_Converged-OPLS-2005>
0

> <r_mmod_RMS_Derivative-OPLS-2005>
3.32764077186584

$$$$
59
                    3D
 Structure written by MMmdl.
165174  0  0  1  0            999 V2000
  -30.6325  -14.6986   20.4191 C   0  0  0  0  0  0
  -30.4328  -12.4124   19.4847 C   0  0  0  0  0  0
  -29.5170  -12.4936   18.2426 C   0  0  0  0  0  0
  -28.0422  -12.3194   18.6553 C   0  0  0  0  0  0
  -27.6468  -13.2263   19.8523 C   0  0  2  0  0  0
  -28.6901  -13.1607   20.9914 C   0  0  0  0  0  0
  -25.2542  -13.8184   20.5689 C   0  0  0  0  0  0
  -24.1809  -13.0431   20.9193 C   0  0  0  0  0  0
  -24.6386  -11.6912   20.8732 C   0  0  0  0  0  0
  -23.9059  -10.4292   21.0404 C   0  0  0  0  0  0
  -24.3615   -9.4208   21.9181 C   0  0  0  0  0  0
  -23.6290   -8.2245   22.0754 C   0  0  0  0  0  0
  -22.4274   -8.0280   21.3543 C   0  0  0  0  0  0
  -21.9900   -9.0254   20.4646 C   0  0  0  0  0  0
  -22.7230  -10.2133   20.3055 C   0  0  0  0  0  0
  -21.6852   -6.0732   22.5272 C   0  0  0  0  0  0
  -21.4018   -6.5633   23.8206 C   0  0  0  0  0  0
  -21.3660   -5.6784   24.9170 C   0  0  0  0  0  0
  -21.6057   -4.3052   24.7219 C   0  0  0  0  0  0
  -21.8816   -3.8139   23.4340 C   0  0  0  0  0  0
  -21.9186   -4.6958   22.3392 C   0  0  0  0  0  0
  -22.7831  -13.5227   21.1837 C   0  0  0  0  0  0
  -22.1657   -4.2141   21.0974 F   0  0  0  0  0  0
  -21.5629   -3.4530   25.7733 F   0  0  0  0  0  0
  -30.0034  -13.4780   20.4158 N   0  0  0  0  0  0
  -26.2963  -12.9376   20.3281 N   0  0  0  0  0  0
  -25.9321  -11.6523   20.5755 N   0  0  0  0  0  0
  -22.0480  -12.8236   22.0417 N   0  0  0  0  0  0
  -25.4226  -15.1907   20.4104 N   0  0  0  0  0  0
  -31.8296  -14.7791   20.1390 O   0  0  0  0  0  0
  -21.6637   -6.8882   21.4239 O   0  0  0  0  0  0
  -22.3526  -14.5529   20.6680 O   0  0  0  0  0  0
  -24.6301  -31.8575   23.2015 C   0  0  0  0  0  0
  -25.9134  -32.4770   23.8346 C   0  0  1  0  0  0
  -27.2261  -27.2823   20.1089 C   0  0  0  0  0  0
  -25.5934  -33.8564   24.2273 N   0  0  0  0  0  0
  -23.4246  -30.4830   21.5471 C   0  0  2  0  0  0
  -24.8723  -28.9438   20.1105 C   0  0  0  0  0  0
  -22.7502  -29.4614   22.4948 C   0  0  0  0  0  0
  -18.0286  -28.1363   22.8516 C   0  0  0  0  0  0
  -24.1477  -36.7263   23.2646 C   0  0  0  0  0  0
  -25.9713  -30.7819   21.3767 C   0  0  0  0  0  0
  -26.0456  -29.4072   20.7161 C   0  0  0  0  0  0
  -27.2228  -28.5907   20.7043 C   0  0  0  0  0  0
  -26.0238  -26.9012   19.4699 C   0  0  0  0  0  0
  -24.8657  -27.6949   19.4808 C   0  0  0  0  0  0
  -23.6392  -29.8210   20.1630 C   0  0  0  0  0  0
  -25.4107  -36.3074   24.0341 C   0  0  1  0  0  0
  -20.5894  -28.3664   23.1289 C   0  0  2  0  0  0
  -20.6766  -26.9375   22.5423 C   0  0  0  0  0  0
  -19.5733  -26.6374   21.5230 C   0  0  0  0  0  0
  -18.1923  -26.7910   22.1655 C   0  0  0  0  0  0
  -19.1542  -28.8830   23.2898 C   0  0  0  0  0  0
  -18.9462  -30.1440   23.8900 C   0  0  0  0  0  0
  -17.6460  -30.6576   24.0550 C   0  0  0  0  0  0
  -25.9054  -34.9447   23.5107 C   0  0  0  0  0  0
  -16.5352  -29.9070   23.6327 C   0  0  0  0  0  0
  -16.7274  -28.6478   23.0373 C   0  0  0  0  0  0
  -26.4500  -31.6572   25.0708 C   0  0  0  0  0  0
  -25.3723  -31.3723   26.1430 C   0  0  0  0  0  0
  -27.0328  -30.2984   24.6172 C   0  0  0  0  0  0
  -27.6058  -32.4300   25.7485 C   0  0  0  0  0  0
  -27.5570  -37.1799   24.8478 C   0  0  0  0  0  0
  -21.4209  -29.3025   22.3686 N   0  0  0  0  0  0
  -26.4282  -37.3774   23.9420 N   0  0  0  0  0  0
  -24.6949  -31.0569   22.0981 N   0  0  0  0  0  0
  -23.4213  -28.8152   23.3035 O   0  0  0  0  0  0
  -28.3453  -26.4101   20.1682 O   0  0  0  0  0  0
  -26.5626  -34.8924   22.4676 O   0  0  0  0  0  0
  -23.5461  -32.1393   23.7326 O   0  0  0  0  0  0
  -29.2600  -19.0942   21.0171 C   0  0  0  0  0  0
  -29.2417  -20.5181   21.0759 C   0  0  0  0  0  0
  -29.7992  -21.3615   20.0579 C   0  0  0  0  0  0
  -29.8501  -18.5291   19.8370 C   0  0  0  0  0  0
  -30.4189  -20.7408   18.9678 C   0  0  0  0  0  0
  -29.0596  -21.6948   22.0293 C   0  0  0  0  0  0
  -29.8413  -22.6263   20.9539 C   0  0  2  0  0  0
  -31.1911  -21.5066   17.9140 C   0  0  0  0  0  0
  -30.7205  -16.7031   18.1958 C   0  0  0  0  0  0
  -28.1202  -24.4620   18.5901 C   0  0  0  0  0  0
  -27.1376  -24.3486   20.9640 C   0  0  0  0  0  0
  -29.6197  -24.1830   20.5446 C   0  0  0  0  0  0
  -29.8228  -16.9845   19.4320 C   0  0  2  0  0  0
  -28.2676  -24.8985   20.0683 C   0  0  0  0  0  0
  -30.3814  -19.3706   18.8705 N   0  0  0  0  0  0
  -29.8299  -15.8209   20.4175 N   0  0  0  0  0  0
  -31.4795  -12.5113   19.1944 H   0  0  0  0  0  0
  -30.3522  -11.4365   19.9656 H   0  0  0  0  0  0
  -29.7967  -11.7285   17.5173 H   0  0  0  0  0  0
  -29.6476  -13.4556   17.7441 H   0  0  0  0  0  0
  -27.8997  -11.2717   18.9255 H   0  0  0  0  0  0
  -27.3856  -12.5047   17.8047 H   0  0  0  0  0  0
  -27.6438  -14.2460   19.4662 H   0  0  0  0  0  0
  -28.7067  -12.1706   21.4486 H   0  0  0  0  0  0
  -28.4355  -13.8603   21.7896 H   0  0  0  0  0  0
  -25.2766   -9.5677   22.4751 H   0  0  0  0  0  0
  -23.9990   -7.4636   22.7480 H   0  0  0  0  0  0
  -21.0825   -8.8775   19.8957 H   0  0  0  0  0  0
  -22.3691  -10.9670   19.6159 H   0  0  0  0  0  0
  -21.2018   -7.6141   23.9708 H   0  0  0  0  0  0
  -21.1490   -6.0515   25.9071 H   0  0  0  0  0  0
  -22.0597   -2.7600   23.2833 H   0  0  0  0  0  0
  -22.4086  -11.9903   22.4822 H   0  0  0  0  0  0
  -21.1107  -13.1283   22.2633 H   0  0  0  0  0  0
  -24.6514  -15.8408   20.5197 H   0  0  0  0  0  0
  -26.2638  -15.6324   20.0630 H   0  0  0  0  0  0
  -26.7196  -32.5443   23.1093 H   0  0  0  0  0  0
  -25.0051  -33.9694   25.0401 H   0  0  0  0  0  0
  -22.7196  -31.3042   21.4045 H   0  0  0  0  0  0
  -23.3758  -35.9577   23.3320 H   0  0  0  0  0  0
  -24.3558  -36.8863   22.2054 H   0  0  0  0  0  0
  -23.7207  -37.6463   23.6647 H   0  0  0  0  0  0
  -26.1082  -31.5489   20.6120 H   0  0  0  0  0  0
  -26.8484  -30.8280   22.0091 H   0  0  0  0  0  0
  -28.1189  -28.9473   21.1935 H   0  0  0  0  0  0
  -25.9147  -25.9577   18.9737 H   0  0  0  0  0  0
  -23.9676  -27.3304   19.0025 H   0  0  0  0  0  0
  -23.7485  -30.5956   19.4040 H   0  0  0  0  0  0
  -22.7604  -29.2461   19.8665 H   0  0  0  0  0  0
  -25.1287  -36.1930   25.0836 H   0  0  0  0  0  0
  -21.0000  -28.3232   24.1403 H   0  0  0  0  0  0
  -20.5653  -26.2268   23.3626 H   0  0  0  0  0  0
  -21.6631  -26.7387   22.1208 H   0  0  0  0  0  0
  -19.6871  -25.6295   21.1228 H   0  0  0  0  0  0
  -19.6650  -27.3214   20.6778 H   0  0  0  0  0  0
  -17.4184  -26.6672   21.4065 H   0  0  0  0  0  0
  -18.0302  -26.0046   22.9036 H   0  0  0  0  0  0
  -19.7933  -30.7260   24.2278 H   0  0  0  0  0  0
  -17.5005  -31.6265   24.5130 H   0  0  0  0  0  0
  -15.5347  -30.2962   23.7638 H   0  0  0  0  0  0
  -15.8682  -28.0780   22.7101 H   0  0  0  0  0  0
  -24.5928  -30.7026   25.7782 H   0  0  0  0  0  0
  -24.8876  -32.2882   26.4815 H   0  0  0  0  0  0
  -25.8051  -30.8957   27.0231 H   0  0  0  0  0  0
  -26.2904  -29.6764   24.1152 H   0  0  0  0  0  0
  -27.3958  -29.7215   25.4692 H   0  0  0  0  0  0
  -27.8811  -30.4259   23.9440 H   0  0  0  0  0  0
  -27.2673  -33.3618   26.2034 H   0  0  0  0  0  0
  -28.3886  -32.6826   25.0317 H   0  0  0  0  0  0
  -28.0692  -31.8427   26.5424 H   0  0  0  0  0  0
  -28.2617  -38.0071   24.7505 H   0  0  0  0  0  0
  -28.1031  -36.2603   24.6326 H   0  0  0  0  0  0
  -27.2280  -37.1477   25.8881 H   0  0  0  0  0  0
  -20.9383  -29.8751   21.6902 H   0  0  0  0  0  0
  -26.0163  -38.2851   24.1421 H   0  0  0  0  0  0
  -28.8690  -18.4781   21.8135 H   0  0  0  0  0  0
  -29.5903  -21.5600   22.9718 H   0  0  0  0  0  0
  -28.0060  -21.9120   22.1885 H   0  0  0  0  0  0
  -30.8783  -22.5955   21.2925 H   0  0  0  0  0  0
  -32.1144  -21.9083   18.3305 H   0  0  0  0  0  0
  -30.5988  -22.3378   17.5312 H   0  0  0  0  0  0
  -31.4462  -20.8665   17.0687 H   0  0  0  0  0  0
  -31.7711  -16.8936   18.4199 H   0  0  0  0  0  0
  -30.4450  -17.3316   17.3484 H   0  0  0  0  0  0
  -30.6259  -15.6782   17.8386 H   0  0  0  0  0  0
  -27.1774  -24.7001   18.1126 H   0  0  0  0  0  0
  -28.2236  -23.3799   18.5035 H   0  0  0  0  0  0
  -28.9067  -24.9039   17.9782 H   0  0  0  0  0  0
  -26.1479  -24.7310   20.7398 H   0  0  0  0  0  0
  -27.3339  -24.5651   22.0145 H   0  0  0  0  0  0
  -27.0471  -23.2719   20.8484 H   0  0  0  0  0  0
  -30.3978  -24.4490   19.8270 H   0  0  0  0  0  0
  -29.9075  -24.7494   21.4312 H   0  0  0  0  0  0
  -28.8088  -16.8950   19.0401 H   0  0  0  0  0  0
  -28.9208  -15.6593   20.8215 H   0  0  0  0  0  0
  1 25  1  0  0  0
  1 30  2  0  0  0
  1 86  1  0  0  0
  2  3  1  0  0  0
  2 25  1  0  0  0
  2 87  1  0  0  0
  2 88  1  0  0  0
  3  4  1  0  0  0
  3 89  1  0  0  0
  3 90  1  0  0  0
  4  5  1  0  0  0
  4 91  1  0  0  0
  4 92  1  0  0  0
  5  6  1  0  0  0
  5 26  1  0  0  0
  5 93  1  0  0  0
  6 25  1  0  0  0
  6 94  1  0  0  0
  6 95  1  0  0  0
  7  8  2  0  0  0
  7 26  1  0  0  0
  7 29  1  0  0  0
  8  9  1  0  0  0
  8 22  1  0  0  0
  9 10  1  0  0  0
  9 27  2  0  0  0
 10 11  2  0  0  0
 10 15  1  0  0  0
 11 12  1  0  0  0
 11 96  1  0  0  0
 12 13  2  0  0  0
 12 97  1  0  0  0
 13 14  1  0  0  0
 13 31  1  0  0  0
 14 15  2  0  0  0
 14 98  1  0  0  0
 15 99  1  0  0  0
 16 17  2  0  0  0
 16 21  1  0  0  0
 16 31  1  0  0  0
 17 18  1  0  0  0
 17100  1  0  0  0
 18 19  2  0  0  0
 18101  1  0  0  0
 19 20  1  0  0  0
 19 24  1  0  0  0
 20 21  2  0  0  0
 20102  1  0  0  0
 21 23  1  0  0  0
 22 28  1  0  0  0
 22 32  2  0  0  0
 26 27  1  0  0  0
 28103  1  0  0  0
 28104  1  0  0  0
 29105  1  0  0  0
 29106  1  0  0  0
 33 34  1  0  0  0
 33 66  1  0  0  0
 33 70  2  0  0  0
 34 36  1  0  0  0
 34 59  1  0  0  0
 34107  1  0  0  0
 35 44  2  0  0  0
 35 45  1  0  0  0
 35 68  1  0  0  0
 36 56  1  0  0  0
 36108  1  0  0  0
 37 39  1  0  0  0
 37 47  1  0  0  0
 37 66  1  0  0  0
 37109  1  0  0  0
 38 43  2  0  0  0
 38 46  1  0  0  0
 38 47  1  0  0  0
 39 64  1  0  0  0
 39 67  2  0  0  0
 40 52  1  0  0  0
 40 53  2  0  0  0
 40 58  1  0  0  0
 41110  1  0  0  0
 41111  1  0  0  0
 41112  1  0  0  0
 41 48  1  0  0  0
 42 43  1  0  0  0
 42 66  1  0  0  0
 42113  1  0  0  0
 42114  1  0  0  0
 43 44  1  0  0  0
 44115  1  0  0  0
 45 46  2  0  0  0
 45116  1  0  0  0
 46117  1  0  0  0
 47118  1  0  0  0
 47119  1  0  0  0
 48 56  1  0  0  0
 48 65  1  0  0  0
 48120  1  0  0  0
 49 50  1  0  0  0
 49 53  1  0  0  0
 49 64  1  0  0  0
 49121  1  0  0  0
 50 51  1  0  0  0
 50122  1  0  0  0
 50123  1  0  0  0
 51 52  1  0  0  0
 51124  1  0  0  0
 51125  1  0  0  0
 52126  1  0  0  0
 52127  1  0  0  0
 53 54  1  0  0  0
 54 55  2  0  0  0
 54128  1  0  0  0
 55 57  1  0  0  0
 55129  1  0  0  0
 56 69  2  0  0  0
 57 58  2  0  0  0
 57130  1  0  0  0
 58131  1  0  0  0
 59 60  1  0  0  0
 59 61  1  0  0  0
 59 62  1  0  0  0
 60132  1  0  0  0
 60133  1  0  0  0
 60134  1  0  0  0
 61135  1  0  0  0
 61136  1  0  0  0
 61137  1  0  0  0
 62138  1  0  0  0
 62139  1  0  0  0
 62140  1  0  0  0
 63 65  1  0  0  0
 63141  1  0  0  0
 63142  1  0  0  0
 63143  1  0  0  0
 64144  1  0  0  0
 65145  1  0  0  0
 68 84  1  0  0  0
 71 72  2  0  0  0
 71 74  1  0  0  0
 71146  1  0  0  0
 72 73  1  0  0  0
 72 76  1  0  0  0
 73 75  2  0  0  0
 73 77  1  0  0  0
 74 83  1  0  0  0
 74 85  2  0  0  0
 75 78  1  0  0  0
 75 85  1  0  0  0
 76 77  1  0  0  0
 76147  1  0  0  0
 76148  1  0  0  0
 77 82  1  0  0  0
 77149  1  0  0  0
 78150  1  0  0  0
 78151  1  0  0  0
 78152  1  0  0  0
 79153  1  0  0  0
 79154  1  0  0  0
 79155  1  0  0  0
 79 83  1  0  0  0
 80156  1  0  0  0
 80157  1  0  0  0
 80158  1  0  0  0
 80 84  1  0  0  0
 81 84  1  0  0  0
 81159  1  0  0  0
 81160  1  0  0  0
 81161  1  0  0  0
 82 84  1  0  0  0
 82162  1  0  0  0
 82163  1  0  0  0
 83 86  1  0  0  0
 83164  1  0  0  0
 86165  1  0  0  0
M  ISO  4   1 100  68 101  84 101  86 100
M  END
> <chiral flag>
0

> <version>
0

> <s_m_source_file>
/data/baiqing/PycharmProjects/Reinvent-master-3.2/result/LINK_invent/BTK/process_docking_weight1_custom_sum_contain_oxygen_bond_distance_aromatic_linkinvent_7_9_3/rearranged_h_0175.sdf

> <i_m_source_file_index>
60

> <r_mmod_Potential_Energy-OPLS-2005>
391.514892578125

> <r_mmod_Stretch_Energy-OPLS-2005>
129.477035522461

> <r_mmod_Bend_Energy-OPLS-2005>
600.822937011719

> <r_mmod_Torsional_Energy-OPLS-2005>
259.541320800781

> <r_mmod_Improper_Torsional_Energy-OPLS-2005>
20.5552158355713

> <r_mmod_Van_der_Waal_Energy-OPLS-2005>
150.94482421875

> <r_mmod_Electrostatic_Energy-OPLS-2005>
-620.506591796875

> <r_mmod_Solvation_Energy-OPLS-2005>
-219.932891845703

> <b_mmod_Minimization_Converged-OPLS-2005>
0

> <r_mmod_RMS_Derivative-OPLS-2005>
2.44455766677856

$$$$
60
                    3D
 Structure written by MMmdl.
160169  0  0  1  0            999 V2000
  -30.5692  -14.9667   20.4159 C   0  0  0  0  0  0
  -30.4322  -12.6027   19.4992 C   0  0  0  0  0  0
  -29.5187  -12.5305   18.2556 C   0  0  0  0  0  0
  -28.0542  -12.3138   18.6775 C   0  0  0  0  0  0
  -27.6262  -13.2566   19.8336 C   0  0  2  0  0  0
  -28.6694  -13.3177   20.9692 C   0  0  0  0  0  0
  -25.2459  -13.8238   20.5734 C   0  0  0  0  0  0
  -24.1776  -13.0451   20.9229 C   0  0  0  0  0  0
  -24.6401  -11.6938   20.8753 C   0  0  0  0  0  0
  -23.9088  -10.4303   21.0404 C   0  0  0  0  0  0
  -24.3634   -9.4214   21.9182 C   0  0  0  0  0  0
  -23.6306   -8.2249   22.0751 C   0  0  0  0  0  0
  -22.4289   -8.0286   21.3542 C   0  0  0  0  0  0
  -21.9928   -9.0260   20.4643 C   0  0  0  0  0  0
  -22.7259  -10.2139   20.3052 C   0  0  0  0  0  0
  -21.6855   -6.0741   22.5279 C   0  0  0  0  0  0
  -21.4015   -6.5643   23.8214 C   0  0  0  0  0  0
  -21.3661   -5.6793   24.9176 C   0  0  0  0  0  0
  -21.6045   -4.3056   24.7223 C   0  0  0  0  0  0
  -21.8819   -3.8149   23.4344 C   0  0  0  0  0  0
  -21.9193   -4.6967   22.3402 C   0  0  0  0  0  0
  -22.7795  -13.5216   21.1882 C   0  0  0  0  0  0
  -22.1662   -4.2155   21.0979 F   0  0  0  0  0  0
  -21.5629   -3.4539   25.7734 F   0  0  0  0  0  0
  -29.9389  -13.7228   20.3547 N   0  0  0  0  0  0
  -26.2882  -12.9483   20.3253 N   0  0  0  0  0  0
  -25.9337  -11.6602   20.5736 N   0  0  0  0  0  0
  -22.0445  -12.8199   22.0434 N   0  0  0  0  0  0
  -25.4152  -15.1963   20.4191 N   0  0  0  0  0  0
  -31.7794  -14.9736   20.1655 O   0  0  0  0  0  0
  -21.6646   -6.8886   21.4242 O   0  0  0  0  0  0
  -22.3476  -14.5517   20.6723 O   0  0  0  0  0  0
  -24.6469  -31.8422   23.1894 C   0  0  0  0  0  0
  -25.9237  -32.4682   23.8279 C   0  0  1  0  0  0
  -27.2057  -27.1071   20.1463 C   0  0  0  0  0  0
  -25.5978  -33.8488   24.2191 N   0  0  0  0  0  0
  -23.4511  -30.4652   21.5351 C   0  0  2  0  0  0
  -24.8999  -28.8968   20.1068 C   0  0  0  0  0  0
  -22.7583  -29.4548   22.4845 C   0  0  0  0  0  0
  -18.0310  -28.1400   22.8473 C   0  0  0  0  0  0
  -24.1495  -36.7247   23.2641 C   0  0  0  0  0  0
  -26.0115  -30.7059   21.3960 C   0  0  0  0  0  0
  -26.0802  -29.3169   20.7335 C   0  0  0  0  0  0
  -27.2337  -28.4381   20.7400 C   0  0  0  0  0  0
  -26.0017  -26.8125   19.4631 C   0  0  0  0  0  0
  -24.8762  -27.6589   19.4547 C   0  0  0  0  0  0
  -23.6788  -29.8015   20.1527 C   0  0  0  0  0  0
  -25.4126  -36.3020   24.0313 C   0  0  1  0  0  0
  -20.5925  -28.3730   23.1221 C   0  0  2  0  0  0
  -20.6793  -26.9430   22.5398 C   0  0  0  0  0  0
  -19.5765  -26.6383   21.5210 C   0  0  0  0  0  0
  -18.1949  -26.7937   22.1621 C   0  0  0  0  0  0
  -19.1566  -28.8884   23.2840 C   0  0  0  0  0  0
  -18.9480  -30.1477   23.8868 C   0  0  0  0  0  0
  -17.6476  -30.6592   24.0559 C   0  0  0  0  0  0
  -25.9081  -34.9396   23.5057 C   0  0  0  0  0  0
  -16.5367  -29.9084   23.6339 C   0  0  0  0  0  0
  -16.7292  -28.6503   23.0358 C   0  0  0  0  0  0
  -26.4548  -31.6554   25.0728 C   0  0  0  0  0  0
  -25.3727  -31.3747   26.1417 C   0  0  0  0  0  0
  -27.0422  -30.2943   24.6345 C   0  0  0  0  0  0
  -27.6070  -32.4329   25.7513 C   0  0  0  0  0  0
  -27.5574  -37.1781   24.8464 C   0  0  0  0  0  0
  -21.4273  -29.3055   22.3590 N   0  0  0  0  0  0
  -26.4285  -37.3738   23.9406 N   0  0  0  0  0  0
  -24.7230  -31.0260   22.0945 N   0  0  0  0  0  0
  -23.4212  -28.8084   23.2999 O   0  0  0  0  0  0
  -28.2145  -26.0640   20.2361 O   0  0  0  0  0  0
  -26.5655  -34.8895   22.4630 O   0  0  0  0  0  0
  -23.5583  -32.1313   23.7098 O   0  0  0  0  0  0
  -28.2692  -20.6697   21.0767 C   0  0  0  0  0  0
  -27.8853  -22.0716   21.0182 C   0  0  0  0  0  0
  -29.3580  -20.0788   20.3554 C   0  0  0  0  0  0
  -28.5313  -23.1008   20.2461 C   0  0  0  0  0  0
  -30.0450  -21.1070   19.5874 C   0  0  0  0  0  0
  -29.6513  -22.5331   19.5317 C   0  0  0  0  0  0
  -29.2045  -17.1965   21.2300 C   0  0  0  0  0  0
  -30.1185  -17.3787   19.3730 C   0  0  0  0  0  0
  -29.8151  -18.4666   20.4805 C   0  0  0  0  0  0
  -30.4426  -23.4948   18.6509 C   0  0  0  0  0  0
  -30.8766  -20.2285   17.3433 C   0  0  0  0  0  0
  -31.2548  -20.6539   18.7695 C   0  0  0  0  0  0
  -27.7913  -24.5766   19.9854 C   0  0  0  0  0  0
  -29.8406  -16.1944   20.2808 N   0  0  0  0  0  0
  -31.4676  -12.7458   19.1868 H   0  0  0  0  0  0
  -30.4164  -11.6604   20.0490 H   0  0  0  0  0  0
  -29.8428  -11.7284   17.5912 H   0  0  0  0  0  0
  -29.6031  -13.4561   17.6836 H   0  0  0  0  0  0
  -27.9570  -11.2752   18.9956 H   0  0  0  0  0  0
  -27.3890  -12.4332   17.8215 H   0  0  0  0  0  0
  -27.5807  -14.2532   19.3926 H   0  0  0  0  0  0
  -28.7621  -12.3578   21.4791 H   0  0  0  0  0  0
  -28.3691  -14.0486   21.7217 H   0  0  0  0  0  0
  -25.2775   -9.5691   22.4763 H   0  0  0  0  0  0
  -24.0012   -7.4641   22.7472 H   0  0  0  0  0  0
  -21.0858   -8.8780   19.8951 H   0  0  0  0  0  0
  -22.3713  -10.9678   19.6162 H   0  0  0  0  0  0
  -21.2006   -7.6151   23.9723 H   0  0  0  0  0  0
  -21.1483   -6.0520   25.9080 H   0  0  0  0  0  0
  -22.0596   -2.7611   23.2840 H   0  0  0  0  0  0
  -22.4066  -11.9868   22.4830 H   0  0  0  0  0  0
  -21.1056  -13.1210   22.2628 H   0  0  0  0  0  0
  -24.6529  -15.8542   20.5401 H   0  0  0  0  0  0
  -26.2745  -15.6350   20.1130 H   0  0  0  0  0  0
  -26.7299  -32.5276   23.1001 H   0  0  0  0  0  0
  -25.0121  -33.9600   25.0336 H   0  0  0  0  0  0
  -22.7554  -31.2930   21.3827 H   0  0  0  0  0  0
  -23.3762  -35.9575   23.3286 H   0  0  0  0  0  0
  -24.3582  -36.8898   22.2060 H   0  0  0  0  0  0
  -23.7247  -37.6436   23.6691 H   0  0  0  0  0  0
  -26.1748  -31.4613   20.6262 H   0  0  0  0  0  0
  -26.8790  -30.7516   22.0424 H   0  0  0  0  0  0
  -28.1261  -28.7504   21.2643 H   0  0  0  0  0  0
  -25.8736  -25.8771   18.9423 H   0  0  0  0  0  0
  -23.9795  -27.3358   18.9437 H   0  0  0  0  0  0
  -23.8186  -30.5793   19.4011 H   0  0  0  0  0  0
  -22.7922  -29.2479   19.8381 H   0  0  0  0  0  0
  -25.1318  -36.1842   25.0806 H   0  0  0  0  0  0
  -21.0017  -28.3324   24.1342 H   0  0  0  0  0  0
  -20.5691  -26.2344   23.3621 H   0  0  0  0  0  0
  -21.6657  -26.7439   22.1189 H   0  0  0  0  0  0
  -19.6927  -25.6288   21.1256 H   0  0  0  0  0  0
  -19.6701  -27.3178   20.6727 H   0  0  0  0  0  0
  -17.4217  -26.6681   21.4027 H   0  0  0  0  0  0
  -18.0351  -26.0085   22.9023 H   0  0  0  0  0  0
  -19.7955  -30.7303   24.2222 H   0  0  0  0  0  0
  -17.5027  -31.6270   24.5166 H   0  0  0  0  0  0
  -15.5365  -30.2975   23.7682 H   0  0  0  0  0  0
  -15.8693  -28.0813   22.7089 H   0  0  0  0  0  0
  -24.5925  -30.7073   25.7739 H   0  0  0  0  0  0
  -24.8896  -32.2925   26.4776 H   0  0  0  0  0  0
  -25.8011  -30.8968   27.0237 H   0  0  0  0  0  0
  -26.3054  -29.6649   24.1341 H   0  0  0  0  0  0
  -27.4001  -29.7263   25.4943 H   0  0  0  0  0  0
  -27.8978  -30.4161   23.9700 H   0  0  0  0  0  0
  -27.2663  -33.3657   26.2018 H   0  0  0  0  0  0
  -28.3920  -32.6844   25.0368 H   0  0  0  0  0  0
  -28.0697  -31.8501   26.5491 H   0  0  0  0  0  0
  -28.2578  -38.0090   24.7514 H   0  0  0  0  0  0
  -28.1084  -36.2618   24.6290 H   0  0  0  0  0  0
  -27.2290  -37.1422   25.8866 H   0  0  0  0  0  0
  -20.9486  -29.8766   21.6764 H   0  0  0  0  0  0
  -26.0147  -38.2802   24.1414 H   0  0  0  0  0  0
  -27.6764  -20.0185   21.7044 H   0  0  0  0  0  0
  -27.0017  -22.3536   21.5734 H   0  0  0  0  0  0
  -28.1148  -17.1753   21.1847 H   0  0  0  0  0  0
  -29.5319  -17.1136   22.2674 H   0  0  0  0  0  0
  -31.1384  -17.4305   18.9891 H   0  0  0  0  0  0
  -29.4135  -17.4308   18.5425 H   0  0  0  0  0  0
  -30.7729  -18.6031   20.9856 H   0  0  0  0  0  0
  -30.0111  -24.4941   18.6264 H   0  0  0  0  0  0
  -30.4867  -23.1463   17.6204 H   0  0  0  0  0  0
  -31.4601  -23.6059   19.0260 H   0  0  0  0  0  0
  -31.7595  -19.9123   16.7875 H   0  0  0  0  0  0
  -30.4138  -21.0423   16.7866 H   0  0  0  0  0  0
  -30.1724  -19.3979   17.3471 H   0  0  0  0  0  0
  -31.7593  -19.8301   19.2717 H   0  0  0  0  0  0
  -32.0128  -21.4348   18.7320 H   0  0  0  0  0  0
  -26.8318  -24.4677   20.4919 H   0  0  0  0  0  0
  -27.5591  -24.5317   18.9212 H   0  0  0  0  0  0
  1 25  1  0  0  0
  1 30  2  0  0  0
  1 84  1  0  0  0
  2  3  1  0  0  0
  2 25  1  0  0  0
  2 85  1  0  0  0
  2 86  1  0  0  0
  3  4  1  0  0  0
  3 87  1  0  0  0
  3 88  1  0  0  0
  4  5  1  0  0  0
  4 89  1  0  0  0
  4 90  1  0  0  0
  5  6  1  0  0  0
  5 26  1  0  0  0
  5 91  1  0  0  0
  6 25  1  0  0  0
  6 92  1  0  0  0
  6 93  1  0  0  0
  7  8  2  0  0  0
  7 26  1  0  0  0
  7 29  1  0  0  0
  8  9  1  0  0  0
  8 22  1  0  0  0
  9 10  1  0  0  0
  9 27  2  0  0  0
 10 11  2  0  0  0
 10 15  1  0  0  0
 11 12  1  0  0  0
 11 94  1  0  0  0
 12 13  2  0  0  0
 12 95  1  0  0  0
 13 14  1  0  0  0
 13 31  1  0  0  0
 14 15  2  0  0  0
 14 96  1  0  0  0
 15 97  1  0  0  0
 16 17  2  0  0  0
 16 21  1  0  0  0
 16 31  1  0  0  0
 17 18  1  0  0  0
 17 98  1  0  0  0
 18 19  2  0  0  0
 18 99  1  0  0  0
 19 20  1  0  0  0
 19 24  1  0  0  0
 20 21  2  0  0  0
 20100  1  0  0  0
 21 23  1  0  0  0
 22 28  1  0  0  0
 22 32  2  0  0  0
 26 27  1  0  0  0
 28101  1  0  0  0
 28102  1  0  0  0
 29103  1  0  0  0
 29104  1  0  0  0
 33 34  1  0  0  0
 33 66  1  0  0  0
 33 70  2  0  0  0
 34 36  1  0  0  0
 34 59  1  0  0  0
 34105  1  0  0  0
 35 44  2  0  0  0
 35 45  1  0  0  0
 35 68  1  0  0  0
 36 56  1  0  0  0
 36106  1  0  0  0
 37 39  1  0  0  0
 37 47  1  0  0  0
 37 66  1  0  0  0
 37107  1  0  0  0
 38 43  2  0  0  0
 38 46  1  0  0  0
 38 47  1  0  0  0
 39 64  1  0  0  0
 39 67  2  0  0  0
 40 52  1  0  0  0
 40 53  2  0  0  0
 40 58  1  0  0  0
 41108  1  0  0  0
 41109  1  0  0  0
 41110  1  0  0  0
 41 48  1  0  0  0
 42 43  1  0  0  0
 42 66  1  0  0  0
 42111  1  0  0  0
 42112  1  0  0  0
 43 44  1  0  0  0
 44113  1  0  0  0
 45 46  2  0  0  0
 45114  1  0  0  0
 46115  1  0  0  0
 47116  1  0  0  0
 47117  1  0  0  0
 48 56  1  0  0  0
 48 65  1  0  0  0
 48118  1  0  0  0
 49 50  1  0  0  0
 49 53  1  0  0  0
 49 64  1  0  0  0
 49119  1  0  0  0
 50 51  1  0  0  0
 50120  1  0  0  0
 50121  1  0  0  0
 51 52  1  0  0  0
 51122  1  0  0  0
 51123  1  0  0  0
 52124  1  0  0  0
 52125  1  0  0  0
 53 54  1  0  0  0
 54 55  2  0  0  0
 54126  1  0  0  0
 55 57  1  0  0  0
 55127  1  0  0  0
 56 69  2  0  0  0
 57 58  2  0  0  0
 57128  1  0  0  0
 58129  1  0  0  0
 59 60  1  0  0  0
 59 61  1  0  0  0
 59 62  1  0  0  0
 60130  1  0  0  0
 60131  1  0  0  0
 60132  1  0  0  0
 61133  1  0  0  0
 61134  1  0  0  0
 61135  1  0  0  0
 62136  1  0  0  0
 62137  1  0  0  0
 62138  1  0  0  0
 63 65  1  0  0  0
 63139  1  0  0  0
 63140  1  0  0  0
 63141  1  0  0  0
 64142  1  0  0  0
 65143  1  0  0  0
 68 83  1  0  0  0
 71 72  2  0  0  0
 71 73  1  0  0  0
 71144  1  0  0  0
 72 74  1  0  0  0
 72145  1  0  0  0
 73 75  2  0  0  0
 73 79  1  0  0  0
 74 76  2  0  0  0
 74 83  1  0  0  0
 75 76  1  0  0  0
 75 82  1  0  0  0
 76 80  1  0  0  0
 77 79  1  0  0  0
 77 84  1  0  0  0
 77146  1  0  0  0
 77147  1  0  0  0
 78 79  1  0  0  0
 78 84  1  0  0  0
 78148  1  0  0  0
 78149  1  0  0  0
 79150  1  0  0  0
 80151  1  0  0  0
 80152  1  0  0  0
 80153  1  0  0  0
 81 82  1  0  0  0
 81154  1  0  0  0
 81155  1  0  0  0
 81156  1  0  0  0
 82157  1  0  0  0
 82158  1  0  0  0
 83159  1  0  0  0
 83160  1  0  0  0
M  ISO  4   1 100  68 101  83 101  84 100
M  END
> <chiral flag>
0

> <version>
0

> <s_m_source_file>
/data/baiqing/PycharmProjects/Reinvent-master-3.2/result/LINK_invent/BTK/process_docking_weight1_custom_sum_contain_oxygen_bond_distance_aromatic_linkinvent_7_9_3/rearranged_h_0175.sdf

> <i_m_source_file_index>
61

> <r_mmod_Potential_Energy-OPLS-2005>
679.514099121094

> <r_mmod_Stretch_Energy-OPLS-2005>
250.347961425781

> <r_mmod_Bend_Energy-OPLS-2005>
297.875

> <r_mmod_Torsional_Energy-OPLS-2005>
288.143402099609

> <r_mmod_Improper_Torsional_Energy-OPLS-2005>
21.5470390319824

> <r_mmod_Van_der_Waal_Energy-OPLS-2005>
136.295913696289

> <r_mmod_Electrostatic_Energy-OPLS-2005>
-335.41162109375

> <r_mmod_Solvation_Energy-OPLS-2005>
-198.148254394531

> <b_mmod_Minimization_Converged-OPLS-2005>
0

> <r_mmod_RMS_Derivative-OPLS-2005>
0.603344261646271

$$$$
61
                    3D
 Structure written by MMmdl.
160169  0  0  1  0            999 V2000
  -30.5204  -15.1809   20.3853 C   0  0  0  0  0  0
  -30.4187  -12.7560   19.5128 C   0  0  0  0  0  0
  -29.5162  -12.5567   18.2741 C   0  0  0  0  0  0
  -28.0651  -12.2985   18.7100 C   0  0  0  0  0  0
  -27.6072  -13.2749   19.8233 C   0  0  2  0  0  0
  -28.6457  -13.4405   20.9526 C   0  0  0  0  0  0
  -25.2365  -13.8268   20.5760 C   0  0  0  0  0  0
  -24.1724  -13.0451   20.9275 C   0  0  0  0  0  0
  -24.6384  -11.6949   20.8792 C   0  0  0  0  0  0
  -23.9095  -10.4296   21.0427 C   0  0  0  0  0  0
  -24.3635   -9.4200   21.9200 C   0  0  0  0  0  0
  -23.6307   -8.2237   22.0757 C   0  0  0  0  0  0
  -22.4288   -8.0283   21.3546 C   0  0  0  0  0  0
  -21.9935   -9.0261   20.4647 C   0  0  0  0  0  0
  -22.7275  -10.2140   20.3066 C   0  0  0  0  0  0
  -21.6849   -6.0741   22.5281 C   0  0  0  0  0  0
  -21.4012   -6.5643   23.8216 C   0  0  0  0  0  0
  -21.3657   -5.6797   24.9177 C   0  0  0  0  0  0
  -21.6045   -4.3062   24.7228 C   0  0  0  0  0  0
  -21.8816   -3.8156   23.4353 C   0  0  0  0  0  0
  -21.9190   -4.6969   22.3405 C   0  0  0  0  0  0
  -22.7738  -13.5193   21.1917 C   0  0  0  0  0  0
  -22.1660   -4.2152   21.0986 F   0  0  0  0  0  0
  -21.5625   -3.4543   25.7741 F   0  0  0  0  0  0
  -29.8783  -13.9189   20.3085 N   0  0  0  0  0  0
  -26.2788  -12.9543   20.3257 N   0  0  0  0  0  0
  -25.9319  -11.6646   20.5773 N   0  0  0  0  0  0
  -22.0397  -12.8163   22.0464 N   0  0  0  0  0  0
  -25.4013  -15.1993   20.4168 N   0  0  0  0  0  0
  -31.7393  -15.0935   20.1761 O   0  0  0  0  0  0
  -21.6642   -6.8888   21.4250 O   0  0  0  0  0  0
  -22.3422  -14.5496   20.6760 O   0  0  0  0  0  0
  -24.6571  -31.8298   23.1741 C   0  0  0  0  0  0
  -25.9278  -32.4623   23.8187 C   0  0  1  0  0  0
  -27.2114  -26.9786   20.1746 C   0  0  0  0  0  0
  -25.5980  -33.8430   24.2113 N   0  0  0  0  0  0
  -23.4678  -30.4436   21.5213 C   0  0  2  0  0  0
  -24.9184  -28.8408   20.1078 C   0  0  0  0  0  0
  -22.7634  -29.4475   22.4782 C   0  0  0  0  0  0
  -18.0328  -28.1431   22.8484 C   0  0  0  0  0  0
  -24.1482  -36.7195   23.2646 C   0  0  0  0  0  0
  -26.0330  -30.6533   21.3935 C   0  0  0  0  0  0
  -26.1002  -29.2473   20.7398 C   0  0  0  0  0  0
  -27.2416  -28.3354   20.7515 C   0  0  0  0  0  0
  -26.0024  -26.7139   19.4933 C   0  0  0  0  0  0
  -24.8916  -27.5931   19.4651 C   0  0  0  0  0  0
  -23.7031  -29.7623   20.1446 C   0  0  0  0  0  0
  -25.4119  -36.2980   24.0308 C   0  0  1  0  0  0
  -20.5955  -28.3750   23.1207 C   0  0  2  0  0  0
  -20.6803  -26.9441   22.5409 C   0  0  0  0  0  0
  -19.5774  -26.6408   21.5220 C   0  0  0  0  0  0
  -18.1957  -26.7971   22.1632 C   0  0  0  0  0  0
  -19.1592  -28.8910   23.2842 C   0  0  0  0  0  0
  -18.9499  -30.1502   23.8868 C   0  0  0  0  0  0
  -17.6496  -30.6611   24.0573 C   0  0  0  0  0  0
  -25.9093  -34.9367   23.5024 C   0  0  0  0  0  0
  -16.5383  -29.9105   23.6366 C   0  0  0  0  0  0
  -16.7314  -28.6529   23.0376 C   0  0  0  0  0  0
  -26.4560  -31.6537   25.0674 C   0  0  0  0  0  0
  -25.3702  -31.3763   26.1338 C   0  0  0  0  0  0
  -27.0442  -30.2924   24.6331 C   0  0  0  0  0  0
  -27.6082  -32.4309   25.7458 C   0  0  0  0  0  0
  -27.5561  -37.1753   24.8470 C   0  0  0  0  0  0
  -21.4315  -29.3044   22.3540 N   0  0  0  0  0  0
  -26.4269  -37.3710   23.9423 N   0  0  0  0  0  0
  -24.7403  -31.0011   22.0838 N   0  0  0  0  0  0
  -23.4224  -28.8044   23.2995 O   0  0  0  0  0  0
  -28.2334  -25.9119   20.2478 O   0  0  0  0  0  0
  -26.5684  -34.8896   22.4612 O   0  0  0  0  0  0
  -23.5661  -32.1246   23.6877 O   0  0  0  0  0  0
  -30.0610  -19.2660   19.4926 C   0  0  0  0  0  0
  -28.2590  -18.7745   20.8584 C   0  0  0  0  0  0
  -27.2891  -23.5882   21.2683 C   0  0  0  0  0  0
  -30.6998  -17.7672   19.8279 C   0  0  0  0  0  0
  -28.8318  -17.2270   21.1520 C   0  0  0  0  0  0
  -27.4107  -21.9944   21.1748 C   0  0  0  0  0  0
  -29.1853  -20.0831   20.5603 C   0  0  0  0  0  0
  -28.0220  -24.2985   20.1038 C   0  0  2  0  0  0
  -29.1188  -22.9964   19.9642 C   0  0  2  0  0  0
  -29.8391  -23.0377   18.6078 C   0  0  0  0  0  0
  -29.9074  -16.5355   20.3115 N   0  0  0  0  0  0
  -28.4805  -21.5541   20.2232 N   0  3  2  0  0  0
  -31.4441  -12.9197   19.1791 H   0  0  0  0  0  0
  -30.4536  -11.8496   20.1188 H   0  0  0  0  0  0
  -29.8783  -11.7269   17.6664 H   0  0  0  0  0  0
  -29.5576  -13.4451   17.6423 H   0  0  0  0  0  0
  -28.0143  -11.2743   19.0814 H   0  0  0  0  0  0
  -27.3908  -12.3483   17.8540 H   0  0  0  0  0  0
  -27.5260  -14.2446   19.3306 H   0  0  0  0  0  0
  -28.8004  -12.5061   21.4934 H   0  0  0  0  0  0
  -28.3000  -14.1712   21.6854 H   0  0  0  0  0  0
  -25.2771   -9.5665   22.4785 H   0  0  0  0  0  0
  -24.0000   -7.4621   22.7475 H   0  0  0  0  0  0
  -21.0862   -8.8799   19.8949 H   0  0  0  0  0  0
  -22.3741  -10.9684   19.6177 H   0  0  0  0  0  0
  -21.2006   -7.6146   23.9720 H   0  0  0  0  0  0
  -21.1477   -6.0526   25.9078 H   0  0  0  0  0  0
  -22.0597   -2.7618   23.2851 H   0  0  0  0  0  0
  -22.4015  -11.9814   22.4828 H   0  0  0  0  0  0
  -21.1015  -13.1179   22.2691 H   0  0  0  0  0  0
  -24.6338  -15.8526   20.5274 H   0  0  0  0  0  0
  -26.2478  -15.6362   20.0772 H   0  0  0  0  0  0
  -26.7337  -32.5165   23.0895 H   0  0  0  0  0  0
  -25.0111  -33.9520   25.0252 H   0  0  0  0  0  0
  -22.7798  -31.2754   21.3559 H   0  0  0  0  0  0
  -23.3762  -35.9507   23.3296 H   0  0  0  0  0  0
  -24.3576  -36.8858   22.2070 H   0  0  0  0  0  0
  -23.7223  -37.6377   23.6696 H   0  0  0  0  0  0
  -26.2049  -31.3972   20.6136 H   0  0  0  0  0  0
  -26.8965  -30.7107   22.0445 H   0  0  0  0  0  0
  -28.1342  -28.6432   21.2769 H   0  0  0  0  0  0
  -25.8780  -25.7668   18.9917 H   0  0  0  0  0  0
  -23.9935  -27.2811   18.9487 H   0  0  0  0  0  0
  -23.8536  -30.5327   19.3871 H   0  0  0  0  0  0
  -22.8121  -29.2151   19.8300 H   0  0  0  0  0  0
  -25.1327  -36.1772   25.0800 H   0  0  0  0  0  0
  -21.0068  -28.3350   24.1321 H   0  0  0  0  0  0
  -20.5692  -26.2367   23.3642 H   0  0  0  0  0  0
  -21.6665  -26.7435   22.1196 H   0  0  0  0  0  0
  -19.6921  -25.6312   21.1265 H   0  0  0  0  0  0
  -19.6709  -27.3206   20.6741 H   0  0  0  0  0  0
  -17.4232  -26.6746   21.4034 H   0  0  0  0  0  0
  -18.0337  -26.0122   22.9039 H   0  0  0  0  0  0
  -19.7972  -30.7345   24.2214 H   0  0  0  0  0  0
  -17.5047  -31.6289   24.5190 H   0  0  0  0  0  0
  -15.5384  -30.3004   23.7692 H   0  0  0  0  0  0
  -15.8727  -28.0844   22.7098 H   0  0  0  0  0  0
  -24.5918  -30.7068   25.7655 H   0  0  0  0  0  0
  -24.8827  -32.2943   26.4621 H   0  0  0  0  0  0
  -25.7956  -30.9047   27.0202 H   0  0  0  0  0  0
  -26.3086  -29.6617   24.1317 H   0  0  0  0  0  0
  -27.4019  -29.7267   25.4941 H   0  0  0  0  0  0
  -27.9024  -30.4168   23.9718 H   0  0  0  0  0  0
  -27.2714  -33.3685   26.1887 H   0  0  0  0  0  0
  -28.3968  -32.6732   25.0319 H   0  0  0  0  0  0
  -28.0646  -31.8500   26.5485 H   0  0  0  0  0  0
  -28.2565  -38.0064   24.7537 H   0  0  0  0  0  0
  -28.1082  -36.2596   24.6280 H   0  0  0  0  0  0
  -27.2299  -37.1380   25.8881 H   0  0  0  0  0  0
  -20.9537  -29.8740   21.6699 H   0  0  0  0  0  0
  -26.0119  -38.2770   24.1448 H   0  0  0  0  0  0
  -29.4707  -19.1710   18.5806 H   0  0  0  0  0  0
  -30.8936  -19.9107   19.2083 H   0  0  0  0  0  0
  -27.6094  -19.0241   21.6976 H   0  0  0  0  0  0
  -27.5709  -18.6837   20.0173 H   0  0  0  0  0  0
  -27.7619  -23.9118   22.1956 H   0  0  0  0  0  0
  -26.2476  -23.9044   21.3313 H   0  0  0  0  0  0
  -31.4863  -17.9198   20.5683 H   0  0  0  0  0  0
  -31.2298  -17.4495   18.9288 H   0  0  0  0  0  0
  -27.9727  -16.5556   21.1658 H   0  0  0  0  0  0
  -29.2110  -17.2151   22.1753 H   0  0  0  0  0  0
  -26.4661  -21.5556   20.8527 H   0  0  0  0  0  0
  -27.6174  -21.5946   22.1682 H   0  0  0  0  0  0
  -29.8052  -20.2525   21.4411 H   0  0  0  0  0  0
  -27.3867  -24.1964   19.2252 H   0  0  0  0  0  0
  -29.8683  -23.1304   20.7456 H   0  0  0  0  0  0
  -29.1431  -22.8920   17.7817 H   0  0  0  0  0  0
  -30.6043  -22.2658   18.5357 H   0  0  0  0  0  0
  -30.3330  -23.9985   18.4570 H   0  0  0  0  0  0
  -27.9657  -21.3651   19.3751 H   0  0  0  0  0  0
  1 25  1  0  0  0
  1 30  2  0  0  0
  1 81  1  0  0  0
  2  3  1  0  0  0
  2 25  1  0  0  0
  2 83  1  0  0  0
  2 84  1  0  0  0
  3  4  1  0  0  0
  3 85  1  0  0  0
  3 86  1  0  0  0
  4  5  1  0  0  0
  4 87  1  0  0  0
  4 88  1  0  0  0
  5  6  1  0  0  0
  5 26  1  0  0  0
  5 89  1  0  0  0
  6 25  1  0  0  0
  6 90  1  0  0  0
  6 91  1  0  0  0
  7  8  2  0  0  0
  7 26  1  0  0  0
  7 29  1  0  0  0
  8  9  1  0  0  0
  8 22  1  0  0  0
  9 10  1  0  0  0
  9 27  2  0  0  0
 10 11  2  0  0  0
 10 15  1  0  0  0
 11 12  1  0  0  0
 11 92  1  0  0  0
 12 13  2  0  0  0
 12 93  1  0  0  0
 13 14  1  0  0  0
 13 31  1  0  0  0
 14 15  2  0  0  0
 14 94  1  0  0  0
 15 95  1  0  0  0
 16 17  2  0  0  0
 16 21  1  0  0  0
 16 31  1  0  0  0
 17 18  1  0  0  0
 17 96  1  0  0  0
 18 19  2  0  0  0
 18 97  1  0  0  0
 19 20  1  0  0  0
 19 24  1  0  0  0
 20 21  2  0  0  0
 20 98  1  0  0  0
 21 23  1  0  0  0
 22 28  1  0  0  0
 22 32  2  0  0  0
 26 27  1  0  0  0
 28 99  1  0  0  0
 28100  1  0  0  0
 29101  1  0  0  0
 29102  1  0  0  0
 33 34  1  0  0  0
 33 66  1  0  0  0
 33 70  2  0  0  0
 34 36  1  0  0  0
 34 59  1  0  0  0
 34103  1  0  0  0
 35 44  2  0  0  0
 35 45  1  0  0  0
 35 68  1  0  0  0
 36 56  1  0  0  0
 36104  1  0  0  0
 37 39  1  0  0  0
 37 47  1  0  0  0
 37 66  1  0  0  0
 37105  1  0  0  0
 38 43  2  0  0  0
 38 46  1  0  0  0
 38 47  1  0  0  0
 39 64  1  0  0  0
 39 67  2  0  0  0
 40 52  1  0  0  0
 40 53  2  0  0  0
 40 58  1  0  0  0
 41106  1  0  0  0
 41107  1  0  0  0
 41108  1  0  0  0
 41 48  1  0  0  0
 42 43  1  0  0  0
 42 66  1  0  0  0
 42109  1  0  0  0
 42110  1  0  0  0
 43 44  1  0  0  0
 44111  1  0  0  0
 45 46  2  0  0  0
 45112  1  0  0  0
 46113  1  0  0  0
 47114  1  0  0  0
 47115  1  0  0  0
 48 56  1  0  0  0
 48 65  1  0  0  0
 48116  1  0  0  0
 49 50  1  0  0  0
 49 53  1  0  0  0
 49 64  1  0  0  0
 49117  1  0  0  0
 50 51  1  0  0  0
 50118  1  0  0  0
 50119  1  0  0  0
 51 52  1  0  0  0
 51120  1  0  0  0
 51121  1  0  0  0
 52122  1  0  0  0
 52123  1  0  0  0
 53 54  1  0  0  0
 54 55  2  0  0  0
 54124  1  0  0  0
 55 57  1  0  0  0
 55125  1  0  0  0
 56 69  2  0  0  0
 57 58  2  0  0  0
 57126  1  0  0  0
 58127  1  0  0  0
 59 60  1  0  0  0
 59 61  1  0  0  0
 59 62  1  0  0  0
 60128  1  0  0  0
 60129  1  0  0  0
 60130  1  0  0  0
 61131  1  0  0  0
 61132  1  0  0  0
 61133  1  0  0  0
 62134  1  0  0  0
 62135  1  0  0  0
 62136  1  0  0  0
 63 65  1  0  0  0
 63137  1  0  0  0
 63138  1  0  0  0
 63139  1  0  0  0
 64140  1  0  0  0
 65141  1  0  0  0
 68 78  1  0  0  0
 71 74  1  0  0  0
 71142  1  0  0  0
 71143  1  0  0  0
 71 77  1  0  0  0
 72 75  1  0  0  0
 72 77  1  0  0  0
 72144  1  0  0  0
 72145  1  0  0  0
 73 76  1  0  0  0
 73 78  1  0  0  0
 73146  1  0  0  0
 73147  1  0  0  0
 74 81  1  0  0  0
 74148  1  0  0  0
 74149  1  0  0  0
 75 81  1  0  0  0
 75150  1  0  0  0
 75151  1  0  0  0
 76152  1  0  0  0
 76153  1  0  0  0
 76 82  1  0  0  0
 77 82  1  0  0  0
 77154  1  0  0  0
 78 79  1  0  0  0
 78155  1  0  0  0
 79 80  1  0  0  0
 79 82  1  0  0  0
 79156  1  0  0  0
 80157  1  0  0  0
 80158  1  0  0  0
 80159  1  0  0  0
 82160  1  0  0  0
M  CHG  1  82   1
M  ISO  4   1 100  68 101  78 101  81 100
M  END
> <chiral flag>
0

> <version>
0

> <s_m_source_file>
/data/baiqing/PycharmProjects/Reinvent-master-3.2/result/LINK_invent/BTK/process_docking_weight1_custom_sum_contain_oxygen_bond_distance_aromatic_linkinvent_7_9_3/rearranged_h_0175.sdf

> <i_m_source_file_index>
62

> <r_mmod_Potential_Energy-OPLS-2005>
1190.7646484375

> <r_mmod_Stretch_Energy-OPLS-2005>
422.615814208984

> <r_mmod_Bend_Energy-OPLS-2005>
481.0771484375

> <r_mmod_Torsional_Energy-OPLS-2005>
362.854858398438

> <r_mmod_Improper_Torsional_Energy-OPLS-2005>
12.7998037338257

> <r_mmod_Van_der_Waal_Energy-OPLS-2005>
107.471351623535

> <r_mmod_Electrostatic_Energy-OPLS-2005>
-142.230255126953

> <r_mmod_Solvation_Energy-OPLS-2005>
-426.804077148438

> <b_mmod_Minimization_Converged-OPLS-2005>
0

> <r_mmod_RMS_Derivative-OPLS-2005>
2.1910514831543

$$$$
62
                    3D
 Structure written by MMmdl.
159168  0  0  1  0            999 V2000
  -30.4745  -15.1799   20.3780 C   0  0  0  0  0  0
  -30.4350  -12.7495   19.5112 C   0  0  0  0  0  0
  -29.5272  -12.5569   18.2726 C   0  0  0  0  0  0
  -28.0724  -12.2977   18.7027 C   0  0  0  0  0  0
  -27.6127  -13.2668   19.8217 C   0  0  2  0  0  0
  -28.6512  -13.4107   20.9538 C   0  0  0  0  0  0
  -25.2399  -13.8236   20.5747 C   0  0  0  0  0  0
  -24.1746  -13.0434   20.9260 C   0  0  0  0  0  0
  -24.6392  -11.6929   20.8769 C   0  0  0  0  0  0
  -23.9086  -10.4293   21.0412 C   0  0  0  0  0  0
  -24.3630   -9.4207   21.9191 C   0  0  0  0  0  0
  -23.6301   -8.2242   22.0758 C   0  0  0  0  0  0
  -22.4283   -8.0283   21.3547 C   0  0  0  0  0  0
  -21.9922   -9.0259   20.4648 C   0  0  0  0  0  0
  -22.7256  -10.2136   20.3058 C   0  0  0  0  0  0
  -21.6854   -6.0741   22.5283 C   0  0  0  0  0  0
  -21.4011   -6.5643   23.8217 C   0  0  0  0  0  0
  -21.3652   -5.6793   24.9176 C   0  0  0  0  0  0
  -21.6043   -4.3058   24.7226 C   0  0  0  0  0  0
  -21.8817   -3.8151   23.4348 C   0  0  0  0  0  0
  -21.9194   -4.6968   22.3403 C   0  0  0  0  0  0
  -22.7766  -13.5195   21.1908 C   0  0  0  0  0  0
  -22.1663   -4.2157   21.0981 F   0  0  0  0  0  0
  -21.5623   -3.4539   25.7737 F   0  0  0  0  0  0
  -29.8898  -13.8919   20.3245 N   0  0  0  0  0  0
  -26.2819  -12.9495   20.3215 N   0  0  0  0  0  0
  -25.9323  -11.6611   20.5725 N   0  0  0  0  0  0
  -22.0414  -12.8181   22.0458 N   0  0  0  0  0  0
  -25.4031  -15.1966   20.4174 N   0  0  0  0  0  0
  -31.6970  -15.1749   20.1818 O   0  0  0  0  0  0
  -21.6641   -6.8884   21.4245 O   0  0  0  0  0  0
  -22.3452  -14.5499   20.6749 O   0  0  0  0  0  0
  -24.6600  -31.8277   23.1765 C   0  0  0  0  0  0
  -25.9300  -32.4606   23.8204 C   0  0  1  0  0  0
  -27.2085  -26.9662   20.1752 C   0  0  0  0  0  0
  -25.5988  -33.8423   24.2110 N   0  0  0  0  0  0
  -23.4725  -30.4447   21.5244 C   0  0  2  0  0  0
  -24.9237  -28.8459   20.1106 C   0  0  0  0  0  0
  -22.7656  -29.4471   22.4790 C   0  0  0  0  0  0
  -18.0319  -28.1416   22.8476 C   0  0  0  0  0  0
  -24.1479  -36.7194   23.2650 C   0  0  0  0  0  0
  -26.0415  -30.6471   21.4024 C   0  0  0  0  0  0
  -26.1077  -29.2427   20.7442 C   0  0  0  0  0  0
  -27.2483  -28.3241   20.7531 C   0  0  0  0  0  0
  -25.9958  -26.7208   19.4900 C   0  0  0  0  0  0
  -24.8912  -27.6035   19.4631 C   0  0  0  0  0  0
  -23.7100  -29.7694   20.1473 C   0  0  0  0  0  0
  -25.4122  -36.2975   24.0311 C   0  0  1  0  0  0
  -20.5946  -28.3752   23.1194 C   0  0  2  0  0  0
  -20.6801  -26.9434   22.5404 C   0  0  0  0  0  0
  -19.5772  -26.6385   21.5216 C   0  0  0  0  0  0
  -18.1951  -26.7956   22.1619 C   0  0  0  0  0  0
  -19.1584  -28.8904   23.2824 C   0  0  0  0  0  0
  -18.9496  -30.1496   23.8855 C   0  0  0  0  0  0
  -17.6490  -30.6608   24.0562 C   0  0  0  0  0  0
  -25.9094  -34.9361   23.5024 C   0  0  0  0  0  0
  -16.5379  -29.9098   23.6351 C   0  0  0  0  0  0
  -16.7301  -28.6516   23.0373 C   0  0  0  0  0  0
  -26.4566  -31.6537   25.0713 C   0  0  0  0  0  0
  -25.3709  -31.3771   26.1382 C   0  0  0  0  0  0
  -27.0461  -30.2915   24.6420 C   0  0  0  0  0  0
  -27.6069  -32.4344   25.7505 C   0  0  0  0  0  0
  -27.5558  -37.1751   24.8470 C   0  0  0  0  0  0
  -21.4329  -29.3050   22.3546 N   0  0  0  0  0  0
  -26.4259  -37.3715   23.9426 N   0  0  0  0  0  0
  -24.7459  -30.9988   22.0879 N   0  0  0  0  0  0
  -23.4226  -28.8029   23.3006 O   0  0  0  0  0  0
  -28.1943  -25.8562   20.2488 O   0  0  0  0  0  0
  -26.5692  -34.8891   22.4611 O   0  0  0  0  0  0
  -23.5676  -32.1223   23.6882 O   0  0  0  0  0  0
  -29.0877  -20.3430   19.2292 C   0  0  0  0  0  0
  -28.8614  -21.9699   21.4196 C   0  0  0  0  0  0
  -29.4055  -19.5902   20.4288 C   0  0  0  0  0  0
  -28.6867  -21.7704   19.1256 C   0  0  0  0  0  0
  -28.5465  -22.7314   20.2211 C   0  0  0  0  0  0
  -29.2746  -20.5381   21.5395 C   0  0  0  0  0  0
  -30.9660  -18.1617   21.8604 C   0  0  0  0  0  0
  -30.0491  -18.6479   22.9905 C   0  0  0  0  0  0
  -30.1733  -18.0375   20.5512 C   0  0  1  0  0  0
  -28.3674  -22.2657   17.7264 C   0  0  0  0  0  0
  -29.2529  -20.7859   24.0256 C   0  0  0  0  0  0
  -27.7733  -24.2889   20.1250 C   0  0  0  0  0  0
  -29.6166  -20.0394   22.8233 N   0  0  0  0  0  0
  -29.7345  -16.4501   20.4586 N   0  0  0  0  0  0
  -31.4585  -12.9378   19.1848 H   0  0  0  0  0  0
  -30.4798  -11.8348   20.1046 H   0  0  0  0  0  0
  -29.8898  -11.7309   17.6594 H   0  0  0  0  0  0
  -29.5718  -13.4484   17.6451 H   0  0  0  0  0  0
  -28.0165  -11.2705   19.0655 H   0  0  0  0  0  0
  -27.4022  -12.3551   17.8440 H   0  0  0  0  0  0
  -27.5374  -14.2411   19.3378 H   0  0  0  0  0  0
  -28.8023  -12.4666   21.4792 H   0  0  0  0  0  0
  -28.3082  -14.1312   21.6982 H   0  0  0  0  0  0
  -25.2768   -9.5686   22.4776 H   0  0  0  0  0  0
  -24.0007   -7.4630   22.7477 H   0  0  0  0  0  0
  -21.0853   -8.8782   19.8951 H   0  0  0  0  0  0
  -22.3714  -10.9679   19.6171 H   0  0  0  0  0  0
  -21.2002   -7.6154   23.9724 H   0  0  0  0  0  0
  -21.1469   -6.0523   25.9081 H   0  0  0  0  0  0
  -22.0599   -2.7616   23.2846 H   0  0  0  0  0  0
  -22.4032  -11.9842   22.4845 H   0  0  0  0  0  0
  -21.1028  -13.1197   22.2654 H   0  0  0  0  0  0
  -24.6302  -15.8437   20.5287 H   0  0  0  0  0  0
  -26.2405  -15.6401   20.0645 H   0  0  0  0  0  0
  -26.7367  -32.5154   23.0917 H   0  0  0  0  0  0
  -25.0115  -33.9504   25.0246 H   0  0  0  0  0  0
  -22.7832  -31.2756   21.3589 H   0  0  0  0  0  0
  -23.3765  -35.9500   23.3287 H   0  0  0  0  0  0
  -24.3561  -36.8854   22.2068 H   0  0  0  0  0  0
  -23.7203  -37.6366   23.6712 H   0  0  0  0  0  0
  -26.2225  -31.3918   20.6260 H   0  0  0  0  0  0
  -26.9028  -30.6983   22.0568 H   0  0  0  0  0  0
  -28.1437  -28.6257   21.2777 H   0  0  0  0  0  0
  -25.8497  -25.7810   18.9824 H   0  0  0  0  0  0
  -23.9930  -27.2950   18.9458 H   0  0  0  0  0  0
  -23.8647  -30.5418   19.3926 H   0  0  0  0  0  0
  -22.8202  -29.2245   19.8267 H   0  0  0  0  0  0
  -25.1314  -36.1771   25.0800 H   0  0  0  0  0  0
  -21.0033  -28.3353   24.1319 H   0  0  0  0  0  0
  -20.5688  -26.2365   23.3642 H   0  0  0  0  0  0
  -21.6663  -26.7422   22.1202 H   0  0  0  0  0  0
  -19.6930  -25.6286   21.1268 H   0  0  0  0  0  0
  -19.6717  -27.3186   20.6740 H   0  0  0  0  0  0
  -17.4225  -26.6710   21.4018 H   0  0  0  0  0  0
  -18.0334  -26.0112   22.9021 H   0  0  0  0  0  0
  -19.7972  -30.7329   24.2204 H   0  0  0  0  0  0
  -17.5044  -31.6284   24.5175 H   0  0  0  0  0  0
  -15.5379  -30.2987   23.7714 H   0  0  0  0  0  0
  -15.8696  -28.0821   22.7121 H   0  0  0  0  0  0
  -24.5940  -30.7048   25.7714 H   0  0  0  0  0  0
  -24.8836  -32.2958   26.4661 H   0  0  0  0  0  0
  -25.7978  -30.9063   27.0247 H   0  0  0  0  0  0
  -26.3122  -29.6605   24.1401 H   0  0  0  0  0  0
  -27.3984  -29.7269   25.5059 H   0  0  0  0  0  0
  -27.9070  -30.4113   23.9843 H   0  0  0  0  0  0
  -27.2657  -33.3712   26.1926 H   0  0  0  0  0  0
  -28.3966  -32.6796   25.0386 H   0  0  0  0  0  0
  -28.0645  -31.8565   26.5543 H   0  0  0  0  0  0
  -28.2559  -38.0062   24.7541 H   0  0  0  0  0  0
  -28.1066  -36.2597   24.6265 H   0  0  0  0  0  0
  -27.2287  -37.1355   25.8874 H   0  0  0  0  0  0
  -20.9576  -29.8721   21.6664 H   0  0  0  0  0  0
  -26.0104  -38.2761   24.1478 H   0  0  0  0  0  0
  -29.1826  -19.7941   18.3028 H   0  0  0  0  0  0
  -28.7586  -22.5519   22.3219 H   0  0  0  0  0  0
  -31.4431  -17.2219   22.1379 H   0  0  0  0  0  0
  -31.7834  -18.8741   21.7338 H   0  0  0  0  0  0
  -30.5830  -18.5510   23.9372 H   0  0  0  0  0  0
  -29.1733  -18.0006   23.0652 H   0  0  0  0  0  0
  -30.9093  -18.0898   19.7474 H   0  0  0  0  0  0
  -28.7943  -21.6163   16.9614 H   0  0  0  0  0  0
  -28.7697  -23.2662   17.5641 H   0  0  0  0  0  0
  -27.2883  -22.2983   17.5733 H   0  0  0  0  0  0
  -28.1969  -21.0602   24.0143 H   0  0  0  0  0  0
  -29.8498  -21.6947   24.1134 H   0  0  0  0  0  0
  -29.4225  -20.1973   24.9291 H   0  0  0  0  0  0
  -26.9591  -24.1958   20.8445 H   0  0  0  0  0  0
  -27.2747  -24.2359   19.1611 H   0  0  0  0  0  0
  -28.7362  -16.3119   20.5154 H   0  0  0  0  0  0
  1 25  1  0  0  0
  1 30  2  0  0  0
  1 84  1  0  0  0
  2  3  1  0  0  0
  2 25  1  0  0  0
  2 85  1  0  0  0
  2 86  1  0  0  0
  3  4  1  0  0  0
  3 87  1  0  0  0
  3 88  1  0  0  0
  4  5  1  0  0  0
  4 89  1  0  0  0
  4 90  1  0  0  0
  5  6  1  0  0  0
  5 26  1  0  0  0
  5 91  1  0  0  0
  6 25  1  0  0  0
  6 92  1  0  0  0
  6 93  1  0  0  0
  7  8  2  0  0  0
  7 26  1  0  0  0
  7 29  1  0  0  0
  8  9  1  0  0  0
  8 22  1  0  0  0
  9 10  1  0  0  0
  9 27  2  0  0  0
 10 11  2  0  0  0
 10 15  1  0  0  0
 11 12  1  0  0  0
 11 94  1  0  0  0
 12 13  2  0  0  0
 12 95  1  0  0  0
 13 14  1  0  0  0
 13 31  1  0  0  0
 14 15  2  0  0  0
 14 96  1  0  0  0
 15 97  1  0  0  0
 16 17  2  0  0  0
 16 21  1  0  0  0
 16 31  1  0  0  0
 17 18  1  0  0  0
 17 98  1  0  0  0
 18 19  2  0  0  0
 18 99  1  0  0  0
 19 20  1  0  0  0
 19 24  1  0  0  0
 20 21  2  0  0  0
 20100  1  0  0  0
 21 23  1  0  0  0
 22 28  1  0  0  0
 22 32  2  0  0  0
 26 27  1  0  0  0
 28101  1  0  0  0
 28102  1  0  0  0
 29103  1  0  0  0
 29104  1  0  0  0
 33 34  1  0  0  0
 33 66  1  0  0  0
 33 70  2  0  0  0
 34 36  1  0  0  0
 34 59  1  0  0  0
 34105  1  0  0  0
 35 44  2  0  0  0
 35 45  1  0  0  0
 35 68  1  0  0  0
 36 56  1  0  0  0
 36106  1  0  0  0
 37 39  1  0  0  0
 37 47  1  0  0  0
 37 66  1  0  0  0
 37107  1  0  0  0
 38 43  2  0  0  0
 38 46  1  0  0  0
 38 47  1  0  0  0
 39 64  1  0  0  0
 39 67  2  0  0  0
 40 52  1  0  0  0
 40 53  2  0  0  0
 40 58  1  0  0  0
 41108  1  0  0  0
 41109  1  0  0  0
 41110  1  0  0  0
 41 48  1  0  0  0
 42 43  1  0  0  0
 42 66  1  0  0  0
 42111  1  0  0  0
 42112  1  0  0  0
 43 44  1  0  0  0
 44113  1  0  0  0
 45 46  2  0  0  0
 45114  1  0  0  0
 46115  1  0  0  0
 47116  1  0  0  0
 47117  1  0  0  0
 48 56  1  0  0  0
 48 65  1  0  0  0
 48118  1  0  0  0
 49 50  1  0  0  0
 49 53  1  0  0  0
 49 64  1  0  0  0
 49119  1  0  0  0
 50 51  1  0  0  0
 50120  1  0  0  0
 50121  1  0  0  0
 51 52  1  0  0  0
 51122  1  0  0  0
 51123  1  0  0  0
 52124  1  0  0  0
 52125  1  0  0  0
 53 54  1  0  0  0
 54 55  2  0  0  0
 54126  1  0  0  0
 55 57  1  0  0  0
 55127  1  0  0  0
 56 69  2  0  0  0
 57 58  2  0  0  0
 57128  1  0  0  0
 58129  1  0  0  0
 59 60  1  0  0  0
 59 61  1  0  0  0
 59 62  1  0  0  0
 60130  1  0  0  0
 60131  1  0  0  0
 60132  1  0  0  0
 61133  1  0  0  0
 61134  1  0  0  0
 61135  1  0  0  0
 62136  1  0  0  0
 62137  1  0  0  0
 62138  1  0  0  0
 63 65  1  0  0  0
 63139  1  0  0  0
 63140  1  0  0  0
 63141  1  0  0  0
 64142  1  0  0  0
 65143  1  0  0  0
 68 82  1  0  0  0
 71 73  2  0  0  0
 71 74  1  0  0  0
 71144  1  0  0  0
 72 75  1  0  0  0
 72 76  2  0  0  0
 72145  1  0  0  0
 73 76  1  0  0  0
 73 79  1  0  0  0
 74 75  2  0  0  0
 74 80  1  0  0  0
 75 82  1  0  0  0
 76 83  1  0  0  0
 77 78  1  0  0  0
 77 79  1  0  0  0
 77146  1  0  0  0
 77147  1  0  0  0
 78 83  1  0  0  0
 78148  1  0  0  0
 78149  1  0  0  0
 79 84  1  0  0  0
 79150  1  0  0  0
 80151  1  0  0  0
 80152  1  0  0  0
 80153  1  0  0  0
 81 83  1  0  0  0
 81154  1  0  0  0
 81155  1  0  0  0
 81156  1  0  0  0
 82157  1  0  0  0
 82158  1  0  0  0
 84159  1  0  0  0
M  ISO  4   1 100  68 101  82 101  84 100
M  END
> <chiral flag>
0

> <version>
0

> <s_m_source_file>
/data/baiqing/PycharmProjects/Reinvent-master-3.2/result/LINK_invent/BTK/process_docking_weight1_custom_sum_contain_oxygen_bond_distance_aromatic_linkinvent_7_9_3/rearranged_h_0175.sdf

> <i_m_source_file_index>
63

> <r_mmod_Potential_Energy-OPLS-2005>
1038.7138671875

> <r_mmod_Stretch_Energy-OPLS-2005>
460.049530029297

> <r_mmod_Bend_Energy-OPLS-2005>
425.106903076172

> <r_mmod_Torsional_Energy-OPLS-2005>
220.220733642578

> <r_mmod_Improper_Torsional_Energy-OPLS-2005>
10.2091836929321

> <r_mmod_Van_der_Waal_Energy-OPLS-2005>
149.070922851562

> <r_mmod_Electrostatic_Energy-OPLS-2005>
-382.627258300781

> <r_mmod_Solvation_Energy-OPLS-2005>
-233.269744873047

> <b_mmod_Minimization_Converged-OPLS-2005>
0

> <r_mmod_RMS_Derivative-OPLS-2005>
1.20023345947266

$$$$
63
                    3D
 Structure written by MMmdl.
165174  0  0  1  0            999 V2000
  -30.6555  -14.6459   20.4894 C   0  0  0  0  0  0
  -30.4296  -12.4028   19.4501 C   0  0  0  0  0  0
  -29.5036  -12.4959   18.2210 C   0  0  0  0  0  0
  -28.0298  -12.3297   18.6396 C   0  0  0  0  0  0
  -27.6472  -13.2211   19.8520 C   0  0  2  0  0  0
  -28.6927  -13.1215   20.9836 C   0  0  0  0  0  0
  -25.2557  -13.8179   20.5674 C   0  0  0  0  0  0
  -24.1834  -13.0439   20.9197 C   0  0  0  0  0  0
  -24.6405  -11.6908   20.8742 C   0  0  0  0  0  0
  -23.9069  -10.4296   21.0413 C   0  0  0  0  0  0
  -24.3625   -9.4212   21.9190 C   0  0  0  0  0  0
  -23.6298   -8.2247   22.0761 C   0  0  0  0  0  0
  -22.4280   -8.0291   21.3548 C   0  0  0  0  0  0
  -21.9912   -9.0267   20.4650 C   0  0  0  0  0  0
  -22.7241  -10.2145   20.3063 C   0  0  0  0  0  0
  -21.6860   -6.0741   22.5280 C   0  0  0  0  0  0
  -21.4018   -6.5639   23.8212 C   0  0  0  0  0  0
  -21.3654   -5.6788   24.9171 C   0  0  0  0  0  0
  -21.6048   -4.3052   24.7219 C   0  0  0  0  0  0
  -21.8821   -3.8148   23.4341 C   0  0  0  0  0  0
  -21.9198   -4.6966   22.3393 C   0  0  0  0  0  0
  -22.7854  -13.5239   21.1831 C   0  0  0  0  0  0
  -22.1661   -4.2156   21.0973 F   0  0  0  0  0  0
  -21.5624   -3.4535   25.7728 F   0  0  0  0  0  0
  -29.9987  -13.4492   20.3998 N   0  0  0  0  0  0
  -26.2974  -12.9362   20.3281 N   0  0  0  0  0  0
  -25.9337  -11.6516   20.5764 N   0  0  0  0  0  0
  -22.0481  -12.8262   22.0390 N   0  0  0  0  0  0
  -25.4276  -15.1901   20.4080 N   0  0  0  0  0  0
  -31.8423  -14.7322   20.1648 O   0  0  0  0  0  0
  -21.6644   -6.8886   21.4240 O   0  0  0  0  0  0
  -22.3542  -14.5526   20.6644 O   0  0  0  0  0  0
  -24.6236  -31.8601   23.2018 C   0  0  0  0  0  0
  -25.9093  -32.4783   23.8345 C   0  0  1  0  0  0
  -27.2297  -27.3304   20.1325 C   0  0  0  0  0  0
  -25.5914  -33.8587   24.2287 N   0  0  0  0  0  0
  -23.4168  -30.4787   21.5470 C   0  0  2  0  0  0
  -24.8653  -28.9291   20.1170 C   0  0  0  0  0  0
  -22.7467  -29.4606   22.4993 C   0  0  0  0  0  0
  -18.0279  -28.1346   22.8509 C   0  0  0  0  0  0
  -24.1486  -36.7281   23.2643 C   0  0  0  0  0  0
  -25.9545  -30.7953   21.3709 C   0  0  0  0  0  0
  -26.0307  -29.4220   20.7166 C   0  0  0  0  0  0
  -27.2176  -28.6360   20.7069 C   0  0  0  0  0  0
  -26.0466  -26.8819   19.5079 C   0  0  0  0  0  0
  -24.8755  -27.6660   19.4992 C   0  0  0  0  0  0
  -23.6295  -29.8047   20.1650 C   0  0  0  0  0  0
  -25.4117  -36.3095   24.0341 C   0  0  1  0  0  0
  -20.5876  -28.3652   23.1314 C   0  0  2  0  0  0
  -20.6768  -26.9388   22.5418 C   0  0  0  0  0  0
  -19.5745  -26.6368   21.5214 C   0  0  0  0  0  0
  -18.1920  -26.7899   22.1621 C   0  0  0  0  0  0
  -19.1529  -28.8820   23.2900 C   0  0  0  0  0  0
  -18.9446  -30.1422   23.8913 C   0  0  0  0  0  0
  -17.6447  -30.6563   24.0552 C   0  0  0  0  0  0
  -25.9051  -34.9459   23.5119 C   0  0  0  0  0  0
  -16.5339  -29.9056   23.6326 C   0  0  0  0  0  0
  -16.7264  -28.6454   23.0387 C   0  0  0  0  0  0
  -26.4497  -31.6586   25.0707 C   0  0  0  0  0  0
  -25.3728  -31.3694   26.1430 C   0  0  0  0  0  0
  -27.0368  -30.3025   24.6144 C   0  0  0  0  0  0
  -27.6074  -32.4322   25.7456 C   0  0  0  0  0  0
  -27.5593  -37.1799   24.8474 C   0  0  0  0  0  0
  -21.4186  -29.3003   22.3720 N   0  0  0  0  0  0
  -26.4306  -37.3784   23.9411 N   0  0  0  0  0  0
  -24.6835  -31.0615   22.0967 N   0  0  0  0  0  0
  -23.4199  -28.8177   23.3094 O   0  0  0  0  0  0
  -28.3763  -26.5312   20.1515 O   0  0  0  0  0  0
  -26.5631  -34.8931   22.4695 O   0  0  0  0  0  0
  -23.5406  -32.1390   23.7362 O   0  0  0  0  0  0
  -29.3810  -21.2379   19.9752 C   0  0  0  0  0  0
  -29.6248  -20.9191   21.3388 C   0  0  0  0  0  0
  -29.8140  -19.5503   21.7344 C   0  0  0  0  0  0
  -29.2524  -20.0996   19.1203 C   0  0  0  0  0  0
  -29.8176  -18.5048   20.7613 C   0  0  0  0  0  0
  -28.5758  -23.3304   18.4582 C   0  0  0  0  0  0
  -29.5979  -22.6460   19.3184 C   0  0  1  0  0  0
  -29.2623  -24.1976   19.5023 C   0  0  1  0  0  0
  -29.8026  -22.0416   22.3531 C   0  0  0  0  0  0
  -30.1208  -19.2139   23.1914 C   0  0  0  0  0  0
  -28.9863  -20.2699   17.6360 C   0  0  0  0  0  0
  -30.4446  -25.0876   19.1263 C   0  0  0  0  0  0
  -30.5546  -17.1276   20.9951 C   0  0  0  0  0  0
  -28.2930  -25.0666   20.3848 C   0  0  0  0  0  0
  -29.4691  -18.8038   19.4907 N   0  0  0  0  0  0
  -29.9350  -15.7760   20.7779 N   0  0  0  0  0  0
  -31.4695  -12.5197   19.1390 H   0  0  0  0  0  0
  -30.3662  -11.4178   19.9148 H   0  0  0  0  0  0
  -29.7734  -11.7377   17.4841 H   0  0  0  0  0  0
  -29.6407  -13.4611   17.7312 H   0  0  0  0  0  0
  -27.8789  -11.2790   18.8914 H   0  0  0  0  0  0
  -27.3719  -12.5348   17.7946 H   0  0  0  0  0  0
  -27.6535  -14.2488   19.4898 H   0  0  0  0  0  0
  -28.7119  -12.1177   21.4104 H   0  0  0  0  0  0
  -28.4443  -13.7982   21.8031 H   0  0  0  0  0  0
  -25.2785   -9.5683   22.4755 H   0  0  0  0  0  0
  -24.0012   -7.4640   22.7486 H   0  0  0  0  0  0
  -21.0840   -8.8783   19.8964 H   0  0  0  0  0  0
  -22.3704  -10.9684   19.6167 H   0  0  0  0  0  0
  -21.2012   -7.6148   23.9714 H   0  0  0  0  0  0
  -21.1470   -6.0517   25.9072 H   0  0  0  0  0  0
  -22.0608   -2.7614   23.2833 H   0  0  0  0  0  0
  -22.4086  -11.9949   22.4831 H   0  0  0  0  0  0
  -21.1101  -13.1317   22.2544 H   0  0  0  0  0  0
  -24.6627  -15.8477   20.5223 H   0  0  0  0  0  0
  -26.2716  -15.6276   20.0606 H   0  0  0  0  0  0
  -26.7170  -32.5470   23.1106 H   0  0  0  0  0  0
  -25.0083  -33.9728   25.0449 H   0  0  0  0  0  0
  -22.7071  -31.2952   21.4019 H   0  0  0  0  0  0
  -23.3767  -35.9593   23.3304 H   0  0  0  0  0  0
  -24.3563  -36.8898   22.2054 H   0  0  0  0  0  0
  -23.7209  -37.6474   23.6656 H   0  0  0  0  0  0
  -26.0863  -31.5589   20.6031 H   0  0  0  0  0  0
  -26.8328  -30.8434   22.0022 H   0  0  0  0  0  0
  -28.1196  -29.0156   21.1657 H   0  0  0  0  0  0
  -26.0200  -25.9206   19.0157 H   0  0  0  0  0  0
  -23.9864  -27.2858   19.0157 H   0  0  0  0  0  0
  -23.7397  -30.5735   19.4000 H   0  0  0  0  0  0
  -22.7506  -29.2265   19.8736 H   0  0  0  0  0  0
  -25.1296  -36.1958   25.0834 H   0  0  0  0  0  0
  -20.9959  -28.3202   24.1441 H   0  0  0  0  0  0
  -20.5660  -26.2267   23.3608 H   0  0  0  0  0  0
  -21.6637  -26.7426   22.1208 H   0  0  0  0  0  0
  -19.6906  -25.6279   21.1234 H   0  0  0  0  0  0
  -19.6665  -27.3192   20.6747 H   0  0  0  0  0  0
  -17.4206  -26.6693   21.3997 H   0  0  0  0  0  0
  -18.0286  -26.0001   22.8968 H   0  0  0  0  0  0
  -19.7915  -30.7230   24.2304 H   0  0  0  0  0  0
  -17.4988  -31.6250   24.5133 H   0  0  0  0  0  0
  -15.5333  -30.2960   23.7607 H   0  0  0  0  0  0
  -15.8667  -28.0734   22.7156 H   0  0  0  0  0  0
  -24.5882  -30.7094   25.7708 H   0  0  0  0  0  0
  -24.8944  -32.2855   26.4900 H   0  0  0  0  0  0
  -25.8024  -30.8793   27.0175 H   0  0  0  0  0  0
  -26.2944  -29.6736   24.1219 H   0  0  0  0  0  0
  -27.4160  -29.7309   25.4622 H   0  0  0  0  0  0
  -27.8760  -30.4336   23.9311 H   0  0  0  0  0  0
  -27.2700  -33.3610   26.2064 H   0  0  0  0  0  0
  -28.3842  -32.6909   25.0248 H   0  0  0  0  0  0
  -28.0802  -31.8438   26.5329 H   0  0  0  0  0  0
  -28.2632  -38.0081   24.7539 H   0  0  0  0  0  0
  -28.1079  -36.2623   24.6289 H   0  0  0  0  0  0
  -27.2314  -37.1430   25.8879 H   0  0  0  0  0  0
  -20.9385  -29.8690   21.6887 H   0  0  0  0  0  0
  -26.0201  -38.2876   24.1371 H   0  0  0  0  0  0
  -27.5297  -23.0869   18.6351 H   0  0  0  0  0  0
  -28.8264  -23.5041   17.4138 H   0  0  0  0  0  0
  -30.5634  -22.4899   18.8421 H   0  0  0  0  0  0
  -29.9697  -23.0090   21.8853 H   0  0  0  0  0  0
  -30.6681  -21.8577   22.9899 H   0  0  0  0  0  0
  -28.9196  -22.1250   22.9865 H   0  0  0  0  0  0
  -29.6757  -19.9230   23.8883 H   0  0  0  0  0  0
  -31.1983  -19.1958   23.3600 H   0  0  0  0  0  0
  -29.7133  -18.2392   23.4612 H   0  0  0  0  0  0
  -29.7708  -20.8665   17.1701 H   0  0  0  0  0  0
  -28.0302  -20.7681   17.4770 H   0  0  0  0  0  0
  -28.9460  -19.3113   17.1176 H   0  0  0  0  0  0
  -31.1822  -24.5514   18.5298 H   0  0  0  0  0  0
  -30.9444  -25.4553   20.0235 H   0  0  0  0  0  0
  -30.1178  -25.9398   18.5298 H   0  0  0  0  0  0
  -30.9758  -17.0985   21.9975 H   0  0  0  0  0  0
  -31.4332  -17.1956   20.3530 H   0  0  0  0  0  0
  -28.5687  -24.9095   21.4272 H   0  0  0  0  0  0
  -27.2782  -24.6810   20.3040 H   0  0  0  0  0  0
  -28.9457  -15.6894   20.9486 H   0  0  0  0  0  0
  1 25  1  0  0  0
  1 30  2  0  0  0
  1 86  1  0  0  0
  2  3  1  0  0  0
  2 25  1  0  0  0
  2 87  1  0  0  0
  2 88  1  0  0  0
  3  4  1  0  0  0
  3 89  1  0  0  0
  3 90  1  0  0  0
  4  5  1  0  0  0
  4 91  1  0  0  0
  4 92  1  0  0  0
  5  6  1  0  0  0
  5 26  1  0  0  0
  5 93  1  0  0  0
  6 25  1  0  0  0
  6 94  1  0  0  0
  6 95  1  0  0  0
  7  8  2  0  0  0
  7 26  1  0  0  0
  7 29  1  0  0  0
  8  9  1  0  0  0
  8 22  1  0  0  0
  9 10  1  0  0  0
  9 27  2  0  0  0
 10 11  2  0  0  0
 10 15  1  0  0  0
 11 12  1  0  0  0
 11 96  1  0  0  0
 12 13  2  0  0  0
 12 97  1  0  0  0
 13 14  1  0  0  0
 13 31  1  0  0  0
 14 15  2  0  0  0
 14 98  1  0  0  0
 15 99  1  0  0  0
 16 17  2  0  0  0
 16 21  1  0  0  0
 16 31  1  0  0  0
 17 18  1  0  0  0
 17100  1  0  0  0
 18 19  2  0  0  0
 18101  1  0  0  0
 19 20  1  0  0  0
 19 24  1  0  0  0
 20 21  2  0  0  0
 20102  1  0  0  0
 21 23  1  0  0  0
 22 28  1  0  0  0
 22 32  2  0  0  0
 26 27  1  0  0  0
 28103  1  0  0  0
 28104  1  0  0  0
 29105  1  0  0  0
 29106  1  0  0  0
 33 34  1  0  0  0
 33 66  1  0  0  0
 33 70  2  0  0  0
 34 36  1  0  0  0
 34 59  1  0  0  0
 34107  1  0  0  0
 35 44  2  0  0  0
 35 45  1  0  0  0
 35 68  1  0  0  0
 36 56  1  0  0  0
 36108  1  0  0  0
 37 39  1  0  0  0
 37 47  1  0  0  0
 37 66  1  0  0  0
 37109  1  0  0  0
 38 43  2  0  0  0
 38 46  1  0  0  0
 38 47  1  0  0  0
 39 64  1  0  0  0
 39 67  2  0  0  0
 40 52  1  0  0  0
 40 53  2  0  0  0
 40 58  1  0  0  0
 41110  1  0  0  0
 41111  1  0  0  0
 41112  1  0  0  0
 41 48  1  0  0  0
 42 43  1  0  0  0
 42 66  1  0  0  0
 42113  1  0  0  0
 42114  1  0  0  0
 43 44  1  0  0  0
 44115  1  0  0  0
 45 46  2  0  0  0
 45116  1  0  0  0
 46117  1  0  0  0
 47118  1  0  0  0
 47119  1  0  0  0
 48 56  1  0  0  0
 48 65  1  0  0  0
 48120  1  0  0  0
 49 50  1  0  0  0
 49 53  1  0  0  0
 49 64  1  0  0  0
 49121  1  0  0  0
 50 51  1  0  0  0
 50122  1  0  0  0
 50123  1  0  0  0
 51 52  1  0  0  0
 51124  1  0  0  0
 51125  1  0  0  0
 52126  1  0  0  0
 52127  1  0  0  0
 53 54  1  0  0  0
 54 55  2  0  0  0
 54128  1  0  0  0
 55 57  1  0  0  0
 55129  1  0  0  0
 56 69  2  0  0  0
 57 58  2  0  0  0
 57130  1  0  0  0
 58131  1  0  0  0
 59 60  1  0  0  0
 59 61  1  0  0  0
 59 62  1  0  0  0
 60132  1  0  0  0
 60133  1  0  0  0
 60134  1  0  0  0
 61135  1  0  0  0
 61136  1  0  0  0
 61137  1  0  0  0
 62138  1  0  0  0
 62139  1  0  0  0
 62140  1  0  0  0
 63 65  1  0  0  0
 63141  1  0  0  0
 63142  1  0  0  0
 63143  1  0  0  0
 64144  1  0  0  0
 65145  1  0  0  0
 68 84  1  0  0  0
 71 72  2  0  0  0
 71 74  1  0  0  0
 71 77  1  0  0  0
 72 73  1  0  0  0
 72 79  1  0  0  0
 73 75  2  0  0  0
 73 80  1  0  0  0
 74 81  1  0  0  0
 74 85  2  0  0  0
 75 83  1  0  0  0
 75 85  1  0  0  0
 76 77  1  0  0  0
 76 78  1  0  0  0
 76146  1  0  0  0
 76147  1  0  0  0
 77 78  1  0  0  0
 77148  1  0  0  0
 78 82  1  0  0  0
 78 84  1  0  0  0
 79149  1  0  0  0
 79150  1  0  0  0
 79151  1  0  0  0
 80152  1  0  0  0
 80153  1  0  0  0
 80154  1  0  0  0
 81155  1  0  0  0
 81156  1  0  0  0
 81157  1  0  0  0
 82158  1  0  0  0
 82159  1  0  0  0
 82160  1  0  0  0
 83 86  1  0  0  0
 83161  1  0  0  0
 83162  1  0  0  0
 84163  1  0  0  0
 84164  1  0  0  0
 86165  1  0  0  0
M  ISO  4   1 100  68 101  84 101  86 100
M  END
> <chiral flag>
0

> <version>
0

> <s_m_source_file>
/data/baiqing/PycharmProjects/Reinvent-master-3.2/result/LINK_invent/BTK/process_docking_weight1_custom_sum_contain_oxygen_bond_distance_aromatic_linkinvent_7_9_3/rearranged_h_0175.sdf

> <i_m_source_file_index>
64

> <r_mmod_Potential_Energy-OPLS-2005>
-63.9006423950195

> <r_mmod_Stretch_Energy-OPLS-2005>
86.0793685913086

> <r_mmod_Bend_Energy-OPLS-2005>
208.935577392578

> <r_mmod_Torsional_Energy-OPLS-2005>
279.245574951172

> <r_mmod_Improper_Torsional_Energy-OPLS-2005>
9.58134078979492

> <r_mmod_Van_der_Waal_Energy-OPLS-2005>
157.109390258789

> <r_mmod_Electrostatic_Energy-OPLS-2005>
-635.455993652344

> <r_mmod_Solvation_Energy-OPLS-2005>
-216.716262817383

> <b_mmod_Minimization_Converged-OPLS-2005>
0

> <r_mmod_RMS_Derivative-OPLS-2005>
1.86315655708313

$$$$
64
                    3D
 Structure written by MMmdl.
160170  0  0  1  0            999 V2000
  -30.6309  -14.6100   20.5297 C   0  0  0  0  0  0
  -30.4289  -12.3865   19.4284 C   0  0  0  0  0  0
  -29.5018  -12.5356   18.2015 C   0  0  0  0  0  0
  -28.0205  -12.3840   18.6087 C   0  0  0  0  0  0
  -27.6548  -13.2153   19.8702 C   0  0  2  0  0  0
  -28.7021  -12.9963   20.9810 C   0  0  0  0  0  0
  -25.2550  -13.8178   20.5667 C   0  0  0  0  0  0
  -24.1803  -13.0448   20.9132 C   0  0  0  0  0  0
  -24.6367  -11.6917   20.8669 C   0  0  0  0  0  0
  -23.9032  -10.4299   21.0354 C   0  0  0  0  0  0
  -24.3598   -9.4229   21.9144 C   0  0  0  0  0  0
  -23.6277   -8.2266   22.0749 C   0  0  0  0  0  0
  -22.4264   -8.0275   21.3538 C   0  0  0  0  0  0
  -21.9870   -9.0240   20.4644 C   0  0  0  0  0  0
  -22.7191  -10.2123   20.3026 C   0  0  0  0  0  0
  -21.6858   -6.0710   22.5269 C   0  0  0  0  0  0
  -21.4028   -6.5619   23.8203 C   0  0  0  0  0  0
  -21.3664   -5.6772   24.9166 C   0  0  0  0  0  0
  -21.6048   -4.3033   24.7224 C   0  0  0  0  0  0
  -21.8827   -3.8119   23.4348 C   0  0  0  0  0  0
  -21.9203   -4.6933   22.3399 C   0  0  0  0  0  0
  -22.7829  -13.5249   21.1813 C   0  0  0  0  0  0
  -22.1666   -4.2117   21.0975 F   0  0  0  0  0  0
  -21.5626   -3.4524   25.7736 F   0  0  0  0  0  0
  -30.0045  -13.3907   20.4270 N   0  0  0  0  0  0
  -26.2985  -12.9357   20.3328 N   0  0  0  0  0  0
  -25.9299  -11.6505   20.5696 N   0  0  0  0  0  0
  -22.0477  -12.8248   22.0382 N   0  0  0  0  0  0
  -25.4236  -15.1908   20.4131 N   0  0  0  0  0  0
  -31.7860  -14.7474   20.1047 O   0  0  0  0  0  0
  -21.6653   -6.8858   21.4229 O   0  0  0  0  0  0
  -22.3512  -14.5560   20.6671 O   0  0  0  0  0  0
  -24.6247  -31.8599   23.1967 C   0  0  0  0  0  0
  -25.9099  -32.4765   23.8307 C   0  0  1  0  0  0
  -27.2376  -27.3531   20.0870 C   0  0  0  0  0  0
  -25.5937  -33.8564   24.2261 N   0  0  0  0  0  0
  -23.4155  -30.4799   21.5404 C   0  0  2  0  0  0
  -24.8576  -28.9238   20.1122 C   0  0  0  0  0  0
  -22.7457  -29.4628   22.4953 C   0  0  0  0  0  0
  -18.0296  -28.1394   22.8493 C   0  0  0  0  0  0
  -24.1493  -36.7289   23.2634 C   0  0  0  0  0  0
  -25.9495  -30.7953   21.3600 C   0  0  0  0  0  0
  -26.0221  -29.4220   20.7074 C   0  0  0  0  0  0
  -27.2098  -28.6431   20.6893 C   0  0  0  0  0  0
  -26.0484  -26.8821   19.4896 C   0  0  0  0  0  0
  -24.8683  -27.6554   19.5026 C   0  0  0  0  0  0
  -23.6256  -29.8021   20.1593 C   0  0  0  0  0  0
  -25.4113  -36.3073   24.0341 C   0  0  1  0  0  0
  -20.5890  -28.3690   23.1293 C   0  0  2  0  0  0
  -20.6779  -26.9418   22.5404 C   0  0  0  0  0  0
  -19.5755  -26.6404   21.5203 C   0  0  0  0  0  0
  -18.1935  -26.7949   22.1618 C   0  0  0  0  0  0
  -19.1546  -28.8860   23.2896 C   0  0  0  0  0  0
  -18.9471  -30.1461   23.8914 C   0  0  0  0  0  0
  -17.6475  -30.6596   24.0565 C   0  0  0  0  0  0
  -25.9052  -34.9452   23.5101 C   0  0  0  0  0  0
  -16.5366  -29.9102   23.6318 C   0  0  0  0  0  0
  -16.7289  -28.6512   23.0357 C   0  0  0  0  0  0
  -26.4487  -31.6584   25.0685 C   0  0  0  0  0  0
  -25.3740  -31.3728   26.1434 C   0  0  0  0  0  0
  -27.0309  -30.3028   24.6086 C   0  0  0  0  0  0
  -27.6051  -32.4311   25.7461 C   0  0  0  0  0  0
  -27.5585  -37.1796   24.8468 C   0  0  0  0  0  0
  -21.4182  -29.3047   22.3701 N   0  0  0  0  0  0
  -26.4291  -37.3773   23.9414 N   0  0  0  0  0  0
  -24.6817  -31.0622   22.0903 N   0  0  0  0  0  0
  -23.4194  -28.8190   23.3047 O   0  0  0  0  0  0
  -28.4110  -26.6013   20.1086 O   0  0  0  0  0  0
  -26.5609  -34.8923   22.4664 O   0  0  0  0  0  0
  -23.5420  -32.1402   23.7325 O   0  0  0  0  0  0
  -29.4128  -20.4873   21.5787 C   0  0  0  0  0  0
  -29.0952  -19.6094   20.5193 C   0  0  0  0  0  0
  -28.6365  -21.6845   19.2297 C   0  0  0  0  0  0
  -28.7048  -20.2535   19.3159 C   0  0  0  0  0  0
  -28.8983  -22.4705   20.3885 C   0  0  0  0  0  0
  -28.9840  -17.5275   22.1472 C   0  0  0  0  0  0
  -29.9189  -24.8339   19.9229 C   0  0  0  0  0  0
  -29.0984  -15.9997   21.9842 C   0  0  0  0  0  0
  -30.0533  -17.0639   20.0962 C   0  0  0  0  0  0
  -29.0090  -18.0493   20.7150 C   0  0  2  0  0  0
  -28.8234  -24.0245   20.5630 C   0  0  1  0  0  0
  -28.4870  -25.2217   19.6088 C   0  0  2  0  0  0
  -28.2988  -22.3678   17.9087 C   0  0  0  0  0  0
  -29.3143  -21.8415   21.5153 N   0  0  0  0  0  0
  -29.8504  -15.7298   20.7476 N   0  0  0  0  0  0
  -28.2512  -19.2709   17.9637 Cl  0  0  0  0  0  0
  -31.4718  -12.5035   19.1315 H   0  0  0  0  0  0
  -30.3513  -11.3779   19.8381 H   0  0  0  0  0  0
  -29.7568  -11.7964   17.4413 H   0  0  0  0  0  0
  -29.6588  -13.5112   17.7374 H   0  0  0  0  0  0
  -27.8375  -11.3263   18.7961 H   0  0  0  0  0  0
  -27.3728  -12.6610   17.7747 H   0  0  0  0  0  0
  -27.6914  -14.2639   19.5760 H   0  0  0  0  0  0
  -28.7190  -11.9448   21.2707 H   0  0  0  0  0  0
  -28.4542  -13.5197   21.8978 H   0  0  0  0  0  0
  -25.2763   -9.5732   22.4679 H   0  0  0  0  0  0
  -23.9995   -7.4691   22.7496 H   0  0  0  0  0  0
  -21.0783   -8.8744   19.8977 H   0  0  0  0  0  0
  -22.3630  -10.9636   19.6113 H   0  0  0  0  0  0
  -21.2025   -7.6130   23.9689 H   0  0  0  0  0  0
  -21.1477   -6.0505   25.9063 H   0  0  0  0  0  0
  -22.0603   -2.7576   23.2859 H   0  0  0  0  0  0
  -22.4110  -11.9947   22.4821 H   0  0  0  0  0  0
  -21.1100  -13.1271   22.2601 H   0  0  0  0  0  0
  -24.6499  -15.8381   20.5207 H   0  0  0  0  0  0
  -26.2804  -15.6381   20.1120 H   0  0  0  0  0  0
  -26.7170  -32.5415   23.1049 H   0  0  0  0  0  0
  -25.0113  -33.9681   25.0429 H   0  0  0  0  0  0
  -22.7080  -31.2987   21.3908 H   0  0  0  0  0  0
  -23.3754  -35.9622   23.3296 H   0  0  0  0  0  0
  -24.3573  -36.8896   22.2040 H   0  0  0  0  0  0
  -23.7259  -37.6507   23.6646 H   0  0  0  0  0  0
  -26.0704  -31.5531   20.5848 H   0  0  0  0  0  0
  -26.8344  -30.8486   21.9823 H   0  0  0  0  0  0
  -28.1086  -29.0234   21.1533 H   0  0  0  0  0  0
  -26.0086  -25.9119   19.0164 H   0  0  0  0  0  0
  -23.9703  -27.2637   19.0435 H   0  0  0  0  0  0
  -23.7427  -30.5683   19.3923 H   0  0  0  0  0  0
  -22.7446  -29.2285   19.8649 H   0  0  0  0  0  0
  -25.1292  -36.1913   25.0841 H   0  0  0  0  0  0
  -20.9967  -28.3255   24.1421 H   0  0  0  0  0  0
  -20.5661  -26.2304   23.3603 H   0  0  0  0  0  0
  -21.6651  -26.7455   22.1195 H   0  0  0  0  0  0
  -19.6901  -25.6316   21.1221 H   0  0  0  0  0  0
  -19.6680  -27.3219   20.6732 H   0  0  0  0  0  0
  -17.4200  -26.6709   21.4023 H   0  0  0  0  0  0
  -18.0332  -26.0099   22.9019 H   0  0  0  0  0  0
  -19.7958  -30.7269   24.2282 H   0  0  0  0  0  0
  -17.5041  -31.6263   24.5194 H   0  0  0  0  0  0
  -15.5367  -30.3010   23.7639 H   0  0  0  0  0  0
  -15.8692  -28.0820   22.7080 H   0  0  0  0  0  0
  -24.5908  -30.7069   25.7793 H   0  0  0  0  0  0
  -24.8925  -32.2885   26.4875 H   0  0  0  0  0  0
  -25.8082  -30.8916   27.0204 H   0  0  0  0  0  0
  -26.2854  -29.6805   24.1120 H   0  0  0  0  0  0
  -27.4059  -29.7253   25.4540 H   0  0  0  0  0  0
  -27.8698  -30.4346   23.9251 H   0  0  0  0  0  0
  -27.2670  -33.3604   26.2060 H   0  0  0  0  0  0
  -28.3859  -32.6887   25.0295 H   0  0  0  0  0  0
  -28.0734  -31.8426   26.5358 H   0  0  0  0  0  0
  -28.2610  -38.0088   24.7516 H   0  0  0  0  0  0
  -28.1080  -36.2620   24.6295 H   0  0  0  0  0  0
  -27.2295  -37.1443   25.8870 H   0  0  0  0  0  0
  -20.9372  -29.8776   21.6908 H   0  0  0  0  0  0
  -26.0176  -38.2853   24.1416 H   0  0  0  0  0  0
  -29.7060  -20.1092   22.5455 H   0  0  0  0  0  0
  -29.8518  -17.8876   22.7010 H   0  0  0  0  0  0
  -28.0859  -17.8257   22.6910 H   0  0  0  0  0  0
  -30.4914  -24.3558   19.1299 H   0  0  0  0  0  0
  -30.5041  -25.4752   20.5809 H   0  0  0  0  0  0
  -28.0881  -15.6031   21.8919 H   0  0  0  0  0  0
  -29.5690  -15.5373   22.8525 H   0  0  0  0  0  0
  -31.0661  -17.4081   20.3095 H   0  0  0  0  0  0
  -29.9483  -16.9885   19.0131 H   0  0  0  0  0  0
  -28.0407  -17.7750   20.2920 H   0  0  0  0  0  0
  -28.5751  -24.2384   21.6008 H   0  0  0  0  0  0
  -28.1546  -25.0861   18.5811 H   0  0  0  0  0  0
  -29.0379  -23.1382   17.6931 H   0  0  0  0  0  0
  -27.3137  -22.8354   17.9434 H   0  0  0  0  0  0
  -28.3256  -21.6972   17.0505 H   0  0  0  0  0  0
  1 25  1  0  0  0
  1 30  2  0  0  0
  1 85  1  0  0  0
  2  3  1  0  0  0
  2 25  1  0  0  0
  2 87  1  0  0  0
  2 88  1  0  0  0
  3  4  1  0  0  0
  3 89  1  0  0  0
  3 90  1  0  0  0
  4  5  1  0  0  0
  4 91  1  0  0  0
  4 92  1  0  0  0
  5  6  1  0  0  0
  5 26  1  0  0  0
  5 93  1  0  0  0
  6 25  1  0  0  0
  6 94  1  0  0  0
  6 95  1  0  0  0
  7  8  2  0  0  0
  7 26  1  0  0  0
  7 29  1  0  0  0
  8  9  1  0  0  0
  8 22  1  0  0  0
  9 10  1  0  0  0
  9 27  2  0  0  0
 10 11  2  0  0  0
 10 15  1  0  0  0
 11 12  1  0  0  0
 11 96  1  0  0  0
 12 13  2  0  0  0
 12 97  1  0  0  0
 13 14  1  0  0  0
 13 31  1  0  0  0
 14 15  2  0  0  0
 14 98  1  0  0  0
 15 99  1  0  0  0
 16 17  2  0  0  0
 16 21  1  0  0  0
 16 31  1  0  0  0
 17 18  1  0  0  0
 17100  1  0  0  0
 18 19  2  0  0  0
 18101  1  0  0  0
 19 20  1  0  0  0
 19 24  1  0  0  0
 20 21  2  0  0  0
 20102  1  0  0  0
 21 23  1  0  0  0
 22 28  1  0  0  0
 22 32  2  0  0  0
 26 27  1  0  0  0
 28103  1  0  0  0
 28104  1  0  0  0
 29105  1  0  0  0
 29106  1  0  0  0
 33 34  1  0  0  0
 33 66  1  0  0  0
 33 70  2  0  0  0
 34 36  1  0  0  0
 34 59  1  0  0  0
 34107  1  0  0  0
 35 44  2  0  0  0
 35 45  1  0  0  0
 35 68  1  0  0  0
 36 56  1  0  0  0
 36108  1  0  0  0
 37 39  1  0  0  0
 37 47  1  0  0  0
 37 66  1  0  0  0
 37109  1  0  0  0
 38 43  2  0  0  0
 38 46  1  0  0  0
 38 47  1  0  0  0
 39 64  1  0  0  0
 39 67  2  0  0  0
 40 52  1  0  0  0
 40 53  2  0  0  0
 40 58  1  0  0  0
 41110  1  0  0  0
 41111  1  0  0  0
 41112  1  0  0  0
 41 48  1  0  0  0
 42 43  1  0  0  0
 42 66  1  0  0  0
 42113  1  0  0  0
 42114  1  0  0  0
 43 44  1  0  0  0
 44115  1  0  0  0
 45 46  2  0  0  0
 45116  1  0  0  0
 46117  1  0  0  0
 47118  1  0  0  0
 47119  1  0  0  0
 48 56  1  0  0  0
 48 65  1  0  0  0
 48120  1  0  0  0
 49 50  1  0  0  0
 49 53  1  0  0  0
 49 64  1  0  0  0
 49121  1  0  0  0
 50 51  1  0  0  0
 50122  1  0  0  0
 50123  1  0  0  0
 51 52  1  0  0  0
 51124  1  0  0  0
 51125  1  0  0  0
 52126  1  0  0  0
 52127  1  0  0  0
 53 54  1  0  0  0
 54 55  2  0  0  0
 54128  1  0  0  0
 55 57  1  0  0  0
 55129  1  0  0  0
 56 69  2  0  0  0
 57 58  2  0  0  0
 57130  1  0  0  0
 58131  1  0  0  0
 59 60  1  0  0  0
 59 61  1  0  0  0
 59 62  1  0  0  0
 60132  1  0  0  0
 60133  1  0  0  0
 60134  1  0  0  0
 61135  1  0  0  0
 61136  1  0  0  0
 61137  1  0  0  0
 62138  1  0  0  0
 62139  1  0  0  0
 62140  1  0  0  0
 63 65  1  0  0  0
 63141  1  0  0  0
 63142  1  0  0  0
 63143  1  0  0  0
 64144  1  0  0  0
 65145  1  0  0  0
 68 82  1  0  0  0
 71 72  2  0  0  0
 71 84  1  0  0  0
 71146  1  0  0  0
 72 74  1  0  0  0
 72 80  1  0  0  0
 73 74  2  0  0  0
 73 75  1  0  0  0
 73 83  1  0  0  0
 74 86  1  0  0  0
 75 84  2  0  0  0
 75 81  1  0  0  0
 76 78  1  0  0  0
 76 80  1  0  0  0
 76147  1  0  0  0
 76148  1  0  0  0
 77 81  1  0  0  0
 77 82  1  0  0  0
 77149  1  0  0  0
 77150  1  0  0  0
 78 85  1  0  0  0
 78151  1  0  0  0
 78152  1  0  0  0
 79 80  1  0  0  0
 79 85  1  0  0  0
 79153  1  0  0  0
 79154  1  0  0  0
 80155  1  0  0  0
 81 82  1  0  0  0
 81156  1  0  0  0
 82157  1  0  0  0
 83158  1  0  0  0
 83159  1  0  0  0
 83160  1  0  0  0
M  ISO  4   1 100  68 101  82 101  85 100
M  END
> <chiral flag>
0

> <version>
0

> <s_m_source_file>
/data/baiqing/PycharmProjects/Reinvent-master-3.2/result/LINK_invent/BTK/process_docking_weight1_custom_sum_contain_oxygen_bond_distance_aromatic_linkinvent_7_9_3/rearranged_h_0175.sdf

> <i_m_source_file_index>
65

> <r_mmod_Potential_Energy-OPLS-2005>
102.524917602539

> <r_mmod_Stretch_Energy-OPLS-2005>
73.1017837524414

> <r_mmod_Bend_Energy-OPLS-2005>
199.538146972656

> <r_mmod_Torsional_Energy-OPLS-2005>
325.432342529297

> <r_mmod_Improper_Torsional_Energy-OPLS-2005>
12.599139213562

> <r_mmod_Van_der_Waal_Energy-OPLS-2005>
143.218414306641

> <r_mmod_Electrostatic_Energy-OPLS-2005>
-472.541809082031

> <r_mmod_Solvation_Energy-OPLS-2005>
-211.647750854492

> <b_mmod_Minimization_Converged-OPLS-2005>
0

> <r_mmod_RMS_Derivative-OPLS-2005>
3.01831698417664

$$$$
65
                    3D
 Structure written by MMmdl.
160169  0  0  1  0            999 V2000
  -30.6091  -14.7742   20.4945 C   0  0  0  0  0  0
  -30.4279  -12.4809   19.4860 C   0  0  0  0  0  0
  -29.5109  -12.5245   18.2436 C   0  0  0  0  0  0
  -28.0367  -12.3450   18.6495 C   0  0  0  0  0  0
  -27.6407  -13.2365   19.8565 C   0  0  2  0  0  0
  -28.6801  -13.1765   20.9968 C   0  0  0  0  0  0
  -25.2521  -13.8204   20.5713 C   0  0  0  0  0  0
  -24.1808  -13.0444   20.9189 C   0  0  0  0  0  0
  -24.6394  -11.6920   20.8727 C   0  0  0  0  0  0
  -23.9075  -10.4295   21.0408 C   0  0  0  0  0  0
  -24.3634   -9.4217   21.9179 C   0  0  0  0  0  0
  -23.6308   -8.2252   22.0753 C   0  0  0  0  0  0
  -22.4292   -8.0287   21.3546 C   0  0  0  0  0  0
  -21.9928   -9.0261   20.4648 C   0  0  0  0  0  0
  -22.7249  -10.2139   20.3056 C   0  0  0  0  0  0
  -21.6868   -6.0752   22.5286 C   0  0  0  0  0  0
  -21.4010   -6.5648   23.8217 C   0  0  0  0  0  0
  -21.3656   -5.6798   24.9169 C   0  0  0  0  0  0
  -21.6057   -4.3063   24.7225 C   0  0  0  0  0  0
  -21.8814   -3.8158   23.4338 C   0  0  0  0  0  0
  -21.9194   -4.6980   22.3396 C   0  0  0  0  0  0
  -22.7834  -13.5232   21.1821 C   0  0  0  0  0  0
  -22.1667   -4.2167   21.0980 F   0  0  0  0  0  0
  -21.5626   -3.4542   25.7729 F   0  0  0  0  0  0
  -29.9783  -13.5454   20.4196 N   0  0  0  0  0  0
  -26.2941  -12.9415   20.3297 N   0  0  0  0  0  0
  -25.9329  -11.6550   20.5752 N   0  0  0  0  0  0
  -22.0493  -12.8231   22.0400 N   0  0  0  0  0  0
  -25.4241  -15.1927   20.4157 N   0  0  0  0  0  0
  -31.7725  -14.8677   20.0899 O   0  0  0  0  0  0
  -21.6650   -6.8896   21.4248 O   0  0  0  0  0  0
  -22.3515  -14.5536   20.6668 O   0  0  0  0  0  0
  -24.6371  -31.8537   23.2012 C   0  0  0  0  0  0
  -25.9188  -32.4733   23.8342 C   0  0  1  0  0  0
  -27.1834  -27.1881   20.1376 C   0  0  0  0  0  0
  -25.5975  -33.8536   24.2256 N   0  0  0  0  0  0
  -23.4345  -30.4818   21.5475 C   0  0  2  0  0  0
  -24.8776  -28.9327   20.1113 C   0  0  0  0  0  0
  -22.7518  -29.4608   22.4902 C   0  0  0  0  0  0
  -18.0296  -28.1408   22.8470 C   0  0  0  0  0  0
  -24.1494  -36.7269   23.2633 C   0  0  0  0  0  0
  -25.9905  -30.7348   21.4054 C   0  0  0  0  0  0
  -26.0511  -29.3543   20.7477 C   0  0  0  0  0  0
  -27.2041  -28.4882   20.7680 C   0  0  0  0  0  0
  -26.0272  -26.9271   19.3741 C   0  0  0  0  0  0
  -24.8727  -27.7239   19.4114 C   0  0  0  0  0  0
  -23.6532  -29.8259   20.1617 C   0  0  0  0  0  0
  -25.4120  -36.3054   24.0322 C   0  0  1  0  0  0
  -20.5902  -28.3717   23.1243 C   0  0  2  0  0  0
  -20.6785  -26.9429   22.5394 C   0  0  0  0  0  0
  -19.5753  -26.6392   21.5205 C   0  0  0  0  0  0
  -18.1933  -26.7945   22.1618 C   0  0  0  0  0  0
  -19.1551  -28.8884   23.2846 C   0  0  0  0  0  0
  -18.9473  -30.1481   23.8861 C   0  0  0  0  0  0
  -17.6478  -30.6595   24.0573 C   0  0  0  0  0  0
  -25.9074  -34.9421   23.5090 C   0  0  0  0  0  0
  -16.5362  -29.9088   23.6351 C   0  0  0  0  0  0
  -16.7287  -28.6515   23.0347 C   0  0  0  0  0  0
  -26.4529  -31.6565   25.0753 C   0  0  0  0  0  0
  -25.3722  -31.3751   26.1452 C   0  0  0  0  0  0
  -27.0409  -30.2962   24.6340 C   0  0  0  0  0  0
  -27.6078  -32.4321   25.7515 C   0  0  0  0  0  0
  -27.5577  -37.1780   24.8461 C   0  0  0  0  0  0
  -21.4225  -29.3056   22.3628 N   0  0  0  0  0  0
  -26.4296  -37.3757   23.9407 N   0  0  0  0  0  0
  -24.7068  -31.0432   22.1052 N   0  0  0  0  0  0
  -23.4190  -28.8107   23.2993 O   0  0  0  0  0  0
  -28.2002  -26.1795   20.2003 O   0  0  0  0  0  0
  -26.5633  -34.8904   22.4649 O   0  0  0  0  0  0
  -23.5505  -32.1411   23.7261 O   0  0  0  0  0  0
  -30.3570  -21.4452   21.8905 C   0  0  0  0  0  0
  -30.4869  -22.7757   22.3324 C   0  0  0  0  0  0
  -29.5063  -21.1851   20.8150 C   0  0  0  0  0  0
  -28.9345  -23.5436   20.8081 C   0  0  0  0  0  0
  -29.9989  -18.0544   22.0932 C   0  0  0  0  0  0
  -29.8681  -16.4937   22.1562 C   0  0  0  0  0  0
  -29.7553  -17.1826   19.9340 C   0  0  0  0  0  0
  -29.3029  -18.4553   20.7931 C   0  0  2  0  0  0
  -31.4390  -23.1408   23.4528 C   0  0  0  0  0  0
  -26.6311  -24.0457   19.8418 C   0  0  0  0  0  0
  -27.8366  -24.7100   20.5566 C   0  0  2  0  0  0
  -29.7879  -23.7973   21.7972 N   0  0  0  0  0  0
  -28.8187  -22.2651   20.2825 N   0  0  0  0  0  0
  -29.8708  -15.9301   20.7903 N   0  0  0  0  0  0
  -29.4672  -19.8657   20.2057 N   0  0  0  0  0  0
  -31.4694  -12.6047   19.1865 H   0  0  0  0  0  0
  -30.3738  -11.5035   19.9679 H   0  0  0  0  0  0
  -29.7995  -11.7532   17.5276 H   0  0  0  0  0  0
  -29.6360  -13.4800   17.7329 H   0  0  0  0  0  0
  -27.8861  -11.2926   18.8944 H   0  0  0  0  0  0
  -27.3862  -12.5534   17.7987 H   0  0  0  0  0  0
  -27.6343  -14.2596   19.4808 H   0  0  0  0  0  0
  -28.7206  -12.1782   21.4351 H   0  0  0  0  0  0
  -28.4014  -13.8553   21.8023 H   0  0  0  0  0  0
  -25.2783   -9.5695   22.4743 H   0  0  0  0  0  0
  -24.0025   -7.4652   22.7464 H   0  0  0  0  0  0
  -21.0868   -8.8777   19.8949 H   0  0  0  0  0  0
  -22.3713  -10.9677   19.6164 H   0  0  0  0  0  0
  -21.1998   -7.6157   23.9721 H   0  0  0  0  0  0
  -21.1486   -6.0529   25.9076 H   0  0  0  0  0  0
  -22.0595   -2.7625   23.2835 H   0  0  0  0  0  0
  -22.4137  -11.9914   22.4804 H   0  0  0  0  0  0
  -21.1100  -13.1239   22.2571 H   0  0  0  0  0  0
  -24.6635  -15.8524   20.5316 H   0  0  0  0  0  0
  -26.2889  -15.6318   20.1266 H   0  0  0  0  0  0
  -26.7237  -32.5337   23.1050 H   0  0  0  0  0  0
  -25.0110  -33.9671   25.0400 H   0  0  0  0  0  0
  -22.7346  -31.3083   21.4050 H   0  0  0  0  0  0
  -23.3761  -35.9595   23.3288 H   0  0  0  0  0  0
  -24.3589  -36.8905   22.2049 H   0  0  0  0  0  0
  -23.7249  -37.6467   23.6668 H   0  0  0  0  0  0
  -26.1545  -31.4929   20.6377 H   0  0  0  0  0  0
  -26.8592  -30.7718   22.0493 H   0  0  0  0  0  0
  -28.0843  -28.7908   21.3164 H   0  0  0  0  0  0
  -25.9867  -26.0849   18.7068 H   0  0  0  0  0  0
  -23.9940  -27.4216   18.8582 H   0  0  0  0  0  0
  -23.7829  -30.6093   19.4139 H   0  0  0  0  0  0
  -22.7677  -29.2680   19.8497 H   0  0  0  0  0  0
  -25.1299  -36.1887   25.0818 H   0  0  0  0  0  0
  -21.0002  -28.3312   24.1361 H   0  0  0  0  0  0
  -20.5701  -26.2331   23.3609 H   0  0  0  0  0  0
  -21.6645  -26.7454   22.1170 H   0  0  0  0  0  0
  -19.6920  -25.6299   21.1243 H   0  0  0  0  0  0
  -19.6692  -27.3190   20.6727 H   0  0  0  0  0  0
  -17.4203  -26.6698   21.4023 H   0  0  0  0  0  0
  -18.0330  -26.0098   22.9025 H   0  0  0  0  0  0
  -19.7956  -30.7318   24.2192 H   0  0  0  0  0  0
  -17.5030  -31.6265   24.5181 H   0  0  0  0  0  0
  -15.5363  -30.2974   23.7710 H   0  0  0  0  0  0
  -15.8691  -28.0845   22.7056 H   0  0  0  0  0  0
  -24.5902  -30.7105   25.7759 H   0  0  0  0  0  0
  -24.8912  -32.2938   26.4817 H   0  0  0  0  0  0
  -25.7997  -30.8949   27.0263 H   0  0  0  0  0  0
  -26.3048  -29.6663   24.1338 H   0  0  0  0  0  0
  -27.4012  -29.7272   25.4917 H   0  0  0  0  0  0
  -27.8955  -30.4196   23.9687 H   0  0  0  0  0  0
  -27.2697  -33.3636   26.2056 H   0  0  0  0  0  0
  -28.3893  -32.6849   25.0342 H   0  0  0  0  0  0
  -28.0746  -31.8476   26.5451 H   0  0  0  0  0  0
  -28.2578  -38.0089   24.7522 H   0  0  0  0  0  0
  -28.1093  -36.2622   24.6273 H   0  0  0  0  0  0
  -27.2299  -37.1405   25.8865 H   0  0  0  0  0  0
  -20.9421  -29.8790   21.6836 H   0  0  0  0  0  0
  -26.0165  -38.2829   24.1409 H   0  0  0  0  0  0
  -30.9521  -20.6626   22.3350 H   0  0  0  0  0  0
  -31.0543  -18.3258   22.0632 H   0  0  0  0  0  0
  -29.5594  -18.5340   22.9683 H   0  0  0  0  0  0
  -28.9182  -16.2199   22.6193 H   0  0  0  0  0  0
  -30.6569  -16.0625   22.7758 H   0  0  0  0  0  0
  -30.7294  -17.3699   19.4799 H   0  0  0  0  0  0
  -29.0597  -17.0011   19.1126 H   0  0  0  0  0  0
  -28.2303  -18.3491   20.9738 H   0  0  0  0  0  0
  -32.4443  -23.2948   23.0606 H   0  0  0  0  0  0
  -31.4785  -22.3493   24.2017 H   0  0  0  0  0  0
  -31.1246  -24.0575   23.9504 H   0  0  0  0  0  0
  -25.6846  -24.5391   20.0475 H   0  0  0  0  0  0
  -26.4480  -23.0411   20.2224 H   0  0  0  0  0  0
  -26.7938  -23.9579   18.7673 H   0  0  0  0  0  0
  -27.4548  -24.8521   21.5688 H   0  0  0  0  0  0
  -29.0365  -19.9249   19.2897 H   0  0  0  0  0  0
  1 25  1  0  0  0
  1 30  2  0  0  0
  1 84  1  0  0  0
  2  3  1  0  0  0
  2 25  1  0  0  0
  2 86  1  0  0  0
  2 87  1  0  0  0
  3  4  1  0  0  0
  3 88  1  0  0  0
  3 89  1  0  0  0
  4  5  1  0  0  0
  4 90  1  0  0  0
  4 91  1  0  0  0
  5  6  1  0  0  0
  5 26  1  0  0  0
  5 92  1  0  0  0
  6 25  1  0  0  0
  6 93  1  0  0  0
  6 94  1  0  0  0
  7  8  2  0  0  0
  7 26  1  0  0  0
  7 29  1  0  0  0
  8  9  1  0  0  0
  8 22  1  0  0  0
  9 10  1  0  0  0
  9 27  2  0  0  0
 10 11  2  0  0  0
 10 15  1  0  0  0
 11 12  1  0  0  0
 11 95  1  0  0  0
 12 13  2  0  0  0
 12 96  1  0  0  0
 13 14  1  0  0  0
 13 31  1  0  0  0
 14 15  2  0  0  0
 14 97  1  0  0  0
 15 98  1  0  0  0
 16 17  2  0  0  0
 16 21  1  0  0  0
 16 31  1  0  0  0
 17 18  1  0  0  0
 17 99  1  0  0  0
 18 19  2  0  0  0
 18100  1  0  0  0
 19 20  1  0  0  0
 19 24  1  0  0  0
 20 21  2  0  0  0
 20101  1  0  0  0
 21 23  1  0  0  0
 22 28  1  0  0  0
 22 32  2  0  0  0
 26 27  1  0  0  0
 28102  1  0  0  0
 28103  1  0  0  0
 29104  1  0  0  0
 29105  1  0  0  0
 33 34  1  0  0  0
 33 66  1  0  0  0
 33 70  2  0  0  0
 34 36  1  0  0  0
 34 59  1  0  0  0
 34106  1  0  0  0
 35 44  2  0  0  0
 35 45  1  0  0  0
 35 68  1  0  0  0
 36 56  1  0  0  0
 36107  1  0  0  0
 37 39  1  0  0  0
 37 47  1  0  0  0
 37 66  1  0  0  0
 37108  1  0  0  0
 38 43  2  0  0  0
 38 46  1  0  0  0
 38 47  1  0  0  0
 39 64  1  0  0  0
 39 67  2  0  0  0
 40 52  1  0  0  0
 40 53  2  0  0  0
 40 58  1  0  0  0
 41109  1  0  0  0
 41110  1  0  0  0
 41111  1  0  0  0
 41 48  1  0  0  0
 42 43  1  0  0  0
 42 66  1  0  0  0
 42112  1  0  0  0
 42113  1  0  0  0
 43 44  1  0  0  0
 44114  1  0  0  0
 45 46  2  0  0  0
 45115  1  0  0  0
 46116  1  0  0  0
 47117  1  0  0  0
 47118  1  0  0  0
 48 56  1  0  0  0
 48 65  1  0  0  0
 48119  1  0  0  0
 49 50  1  0  0  0
 49 53  1  0  0  0
 49 64  1  0  0  0
 49120  1  0  0  0
 50 51  1  0  0  0
 50121  1  0  0  0
 50122  1  0  0  0
 51 52  1  0  0  0
 51123  1  0  0  0
 51124  1  0  0  0
 52125  1  0  0  0
 52126  1  0  0  0
 53 54  1  0  0  0
 54 55  2  0  0  0
 54127  1  0  0  0
 55 57  1  0  0  0
 55128  1  0  0  0
 56 69  2  0  0  0
 57 58  2  0  0  0
 57129  1  0  0  0
 58130  1  0  0  0
 59 60  1  0  0  0
 59 61  1  0  0  0
 59 62  1  0  0  0
 60131  1  0  0  0
 60132  1  0  0  0
 60133  1  0  0  0
 61134  1  0  0  0
 61135  1  0  0  0
 61136  1  0  0  0
 62137  1  0  0  0
 62138  1  0  0  0
 62139  1  0  0  0
 63 65  1  0  0  0
 63140  1  0  0  0
 63141  1  0  0  0
 63142  1  0  0  0
 64143  1  0  0  0
 65144  1  0  0  0
 68 81  1  0  0  0
 71 72  2  0  0  0
 71 73  1  0  0  0
 71145  1  0  0  0
 72 79  1  0  0  0
 72 82  1  0  0  0
 73 83  2  0  0  0
 73 85  1  0  0  0
 74 81  1  0  0  0
 74 82  2  0  0  0
 74 83  1  0  0  0
 75 76  1  0  0  0
 75 78  1  0  0  0
 75146  1  0  0  0
 75147  1  0  0  0
 76 84  1  0  0  0
 76148  1  0  0  0
 76149  1  0  0  0
 77 78  1  0  0  0
 77 84  1  0  0  0
 77150  1  0  0  0
 77151  1  0  0  0
 78 85  1  0  0  0
 78152  1  0  0  0
 79153  1  0  0  0
 79154  1  0  0  0
 79155  1  0  0  0
 80156  1  0  0  0
 80157  1  0  0  0
 80158  1  0  0  0
 80 81  1  0  0  0
 81159  1  0  0  0
 85160  1  0  0  0
M  ISO  4   1 100  68 101  81 101  84 100
M  END
> <chiral flag>
0

> <version>
0

> <s_m_source_file>
/data/baiqing/PycharmProjects/Reinvent-master-3.2/result/LINK_invent/BTK/process_docking_weight1_custom_sum_contain_oxygen_bond_distance_aromatic_linkinvent_7_9_3/rearranged_h_0175.sdf

> <i_m_source_file_index>
66

> <r_mmod_Potential_Energy-OPLS-2005>
18.3073844909668

> <r_mmod_Stretch_Energy-OPLS-2005>
155.12255859375

> <r_mmod_Bend_Energy-OPLS-2005>
258.201751708984

> <r_mmod_Torsional_Energy-OPLS-2005>
359.952941894531

> <r_mmod_Improper_Torsional_Energy-OPLS-2005>
14.4734573364258

> <r_mmod_Van_der_Waal_Energy-OPLS-2005>
154.348495483398

> <r_mmod_Electrostatic_Energy-OPLS-2005>
-821.652465820312

> <r_mmod_Solvation_Energy-OPLS-2005>
-226.824523925781

> <b_mmod_Minimization_Converged-OPLS-2005>
0

> <r_mmod_RMS_Derivative-OPLS-2005>
2.88061499595642

$$$$
66
                    3D
 Structure written by MMmdl.
167177  0  0  1  0            999 V2000
  -30.7007  -14.6516   20.5793 C   0  0  0  0  0  0
  -30.4501  -12.4285   19.4594 C   0  0  0  0  0  0
  -29.5142  -12.5236   18.2322 C   0  0  0  0  0  0
  -28.0302  -12.3899   18.6346 C   0  0  0  0  0  0
  -27.6682  -13.2212   19.8909 C   0  0  2  0  0  0
  -28.7243  -13.0243   21.0041 C   0  0  0  0  0  0
  -25.2606  -13.8177   20.5616 C   0  0  0  0  0  0
  -24.1909  -13.0458   20.9195 C   0  0  0  0  0  0
  -24.6496  -11.6930   20.8821 C   0  0  0  0  0  0
  -23.9131  -10.4322   21.0433 C   0  0  0  0  0  0
  -24.3663   -9.4226   21.9228 C   0  0  0  0  0  0
  -23.6331   -8.2257   22.0786 C   0  0  0  0  0  0
  -22.4325   -8.0305   21.3562 C   0  0  0  0  0  0
  -21.9970   -9.0295   20.4659 C   0  0  0  0  0  0
  -22.7307  -10.2183   20.3077 C   0  0  0  0  0  0
  -21.6855   -6.0761   22.5271 C   0  0  0  0  0  0
  -21.4016   -6.5667   23.8209 C   0  0  0  0  0  0
  -21.3659   -5.6812   24.9165 C   0  0  0  0  0  0
  -21.6051   -4.3067   24.7209 C   0  0  0  0  0  0
  -21.8838   -3.8171   23.4335 C   0  0  0  0  0  0
  -21.9207   -4.6987   22.3386 C   0  0  0  0  0  0
  -22.7933  -13.5222   21.1845 C   0  0  0  0  0  0
  -22.1672   -4.2183   21.0968 F   0  0  0  0  0  0
  -21.5618   -3.4545   25.7715 F   0  0  0  0  0  0
  -30.0185  -13.4516   20.4471 N   0  0  0  0  0  0
  -26.3109  -12.9398   20.3484 N   0  0  0  0  0  0
  -25.9438  -11.6551   20.5935 N   0  0  0  0  0  0
  -22.0594  -12.8221   22.0400 N   0  0  0  0  0  0
  -25.4269  -15.1870   20.3746 N   0  0  0  0  0  0
  -31.8639  -14.7115   20.1708 O   0  0  0  0  0  0
  -21.6663   -6.8913   21.4248 O   0  0  0  0  0  0
  -22.3632  -14.5551   20.6694 O   0  0  0  0  0  0
  -24.6276  -31.8580   23.1953 C   0  0  0  0  0  0
  -25.9096  -32.4795   23.8316 C   0  0  1  0  0  0
  -27.2453  -27.3343   20.1162 C   0  0  0  0  0  0
  -25.5887  -33.8591   24.2229 N   0  0  0  0  0  0
  -23.4210  -30.4755   21.5422 C   0  0  2  0  0  0
  -24.8678  -28.9249   20.1181 C   0  0  0  0  0  0
  -22.7495  -29.4600   22.4972 C   0  0  0  0  0  0
  -18.0301  -28.1375   22.8424 C   0  0  0  0  0  0
  -24.1492  -36.7311   23.2635 C   0  0  0  0  0  0
  -25.9622  -30.7979   21.3553 C   0  0  0  0  0  0
  -26.0376  -29.4223   20.7076 C   0  0  0  0  0  0
  -27.2259  -28.6378   20.6933 C   0  0  0  0  0  0
  -26.0477  -26.8766   19.5209 C   0  0  0  0  0  0
  -24.8711  -27.6502   19.5251 C   0  0  0  0  0  0
  -23.6333  -29.7971   20.1652 C   0  0  0  0  0  0
  -25.4114  -36.3089   24.0330 C   0  0  1  0  0  0
  -20.5862  -28.3705   23.1280 C   0  0  2  0  0  0
  -20.6876  -26.9441   22.5384 C   0  0  0  0  0  0
  -19.5858  -26.6386   21.5198 C   0  0  0  0  0  0
  -18.2018  -26.7933   22.1538 C   0  0  0  0  0  0
  -19.1515  -28.8859   23.2858 C   0  0  0  0  0  0
  -18.9382  -30.1444   23.8871 C   0  0  0  0  0  0
  -17.6371  -30.6539   24.0501 C   0  0  0  0  0  0
  -25.9052  -34.9465   23.5095 C   0  0  0  0  0  0
  -16.5282  -29.9011   23.6275 C   0  0  0  0  0  0
  -16.7269  -28.6443   23.0285 C   0  0  0  0  0  0
  -26.4459  -31.6612   25.0706 C   0  0  0  0  0  0
  -25.3710  -31.3773   26.1468 C   0  0  0  0  0  0
  -27.0295  -30.3032   24.6153 C   0  0  0  0  0  0
  -27.6013  -32.4350   25.7497 C   0  0  0  0  0  0
  -27.5562  -37.1794   24.8454 C   0  0  0  0  0  0
  -21.4191  -29.3064   22.3729 N   0  0  0  0  0  0
  -26.4274  -37.3793   23.9400 N   0  0  0  0  0  0
  -24.6903  -31.0620   22.0872 N   0  0  0  0  0  0
  -23.4218  -28.8166   23.3068 O   0  0  0  0  0  0
  -28.3953  -26.5379   20.1600 O   0  0  0  0  0  0
  -26.5649  -34.8935   22.4671 O   0  0  0  0  0  0
  -23.5445  -32.1326   23.7307 O   0  0  0  0  0  0
  -28.5471  -20.4410   19.7225 C   0  0  0  0  0  0
  -29.6953  -21.8754   21.6969 C   0  0  0  0  0  0
  -28.9744  -22.6632   20.7355 C   0  0  0  0  0  0
  -28.3819  -21.8584   19.7085 C   0  0  0  0  0  0
  -29.2641  -19.7676   20.7327 C   0  0  0  0  0  0
  -28.3751  -25.1381   19.9843 C   0  0  0  0  0  0
  -28.8954  -24.2167   20.8667 C   0  0  0  0  0  0
  -26.2087  -23.0714   18.7660 C   0  0  0  0  0  0
  -26.2755  -21.6851   18.1922 C   0  0  0  0  0  0
  -28.5412  -17.5186   21.9326 C   0  0  0  0  0  0
  -28.8809  -16.0166   21.7906 C   0  0  0  0  0  0
  -27.5537  -22.3979   18.5794 C   0  0  0  0  0  0
  -29.2590  -18.1830   20.7688 C   0  0  2  0  0  0
  -30.5253  -17.2709   20.6483 C   0  0  2  0  0  0
  -29.4908  -24.7837   22.1546 C   0  0  0  0  0  0
  -31.2929  -17.5350   19.3325 C   0  0  0  0  0  0
  -29.8356  -20.5078   21.7130 N   0  0  0  0  0  0
  -30.0455  -15.8467   20.8933 N   0  0  0  0  0  0
  -31.4805  -12.5663   19.1357 H   0  0  0  0  0  0
  -30.4219  -11.4268   19.8936 H   0  0  0  0  0  0
  -29.7643  -11.7451   17.5133 H   0  0  0  0  0  0
  -29.6762  -13.4740   17.7176 H   0  0  0  0  0  0
  -27.8278  -11.3360   18.8122 H   0  0  0  0  0  0
  -27.3900  -12.6859   17.8059 H   0  0  0  0  0  0
  -27.7007  -14.2630   19.5724 H   0  0  0  0  0  0
  -28.7704  -11.9710   21.2874 H   0  0  0  0  0  0
  -28.4730  -13.5215   21.9362 H   0  0  0  0  0  0
  -25.2800   -9.5688   22.4822 H   0  0  0  0  0  0
  -24.0022   -7.4657   22.7498 H   0  0  0  0  0  0
  -21.0898   -8.8817   19.8966 H   0  0  0  0  0  0
  -22.3751  -10.9722   19.6185 H   0  0  0  0  0  0
  -21.2014   -7.6176   23.9696 H   0  0  0  0  0  0
  -21.1442   -6.0553   25.9061 H   0  0  0  0  0  0
  -22.0616   -2.7630   23.2806 H   0  0  0  0  0  0
  -22.4149  -11.9862   22.4789 H   0  0  0  0  0  0
  -21.1229  -13.1299   22.2586 H   0  0  0  0  0  0
  -24.6565  -15.8436   20.4284 H   0  0  0  0  0  0
  -26.2746  -15.6015   20.0128 H   0  0  0  0  0  0
  -26.7189  -32.5465   23.1098 H   0  0  0  0  0  0
  -25.0019  -33.9730   25.0363 H   0  0  0  0  0  0
  -22.7132  -31.2932   21.3897 H   0  0  0  0  0  0
  -23.3735  -35.9658   23.3319 H   0  0  0  0  0  0
  -24.3610  -36.8910   22.2043 H   0  0  0  0  0  0
  -23.7262  -37.6523   23.6666 H   0  0  0  0  0  0
  -26.0852  -31.5523   20.5763 H   0  0  0  0  0  0
  -26.8515  -30.8597   21.9728 H   0  0  0  0  0  0
  -28.1319  -29.0237   21.1449 H   0  0  0  0  0  0
  -26.0052  -25.8988   19.0740 H   0  0  0  0  0  0
  -23.9732  -27.2398   19.0831 H   0  0  0  0  0  0
  -23.7421  -30.5622   19.3960 H   0  0  0  0  0  0
  -22.7580  -29.2121   19.8784 H   0  0  0  0  0  0
  -25.1287  -36.1927   25.0826 H   0  0  0  0  0  0
  -20.9906  -28.3332   24.1396 H   0  0  0  0  0  0
  -20.5896  -26.2276   23.3564 H   0  0  0  0  0  0
  -21.6760  -26.7649   22.1156 H   0  0  0  0  0  0
  -19.7070  -25.6300   21.1215 H   0  0  0  0  0  0
  -19.6738  -27.3210   20.6741 H   0  0  0  0  0  0
  -17.4367  -26.6627   21.3869 H   0  0  0  0  0  0
  -18.0415  -26.0063   22.8900 H   0  0  0  0  0  0
  -19.7833  -30.7257   24.2266 H   0  0  0  0  0  0
  -17.4855  -31.6191   24.5119 H   0  0  0  0  0  0
  -15.5244  -30.2837   23.7597 H   0  0  0  0  0  0
  -15.8697  -28.0734   22.6968 H   0  0  0  0  0  0
  -24.5851  -30.7143   25.7829 H   0  0  0  0  0  0
  -24.8967  -32.2974   26.4912 H   0  0  0  0  0  0
  -25.8066  -30.8943   27.0230 H   0  0  0  0  0  0
  -26.2850  -29.6813   24.1168 H   0  0  0  0  0  0
  -27.3967  -29.7270   25.4652 H   0  0  0  0  0  0
  -27.8748  -30.4328   23.9389 H   0  0  0  0  0  0
  -27.2576  -33.3619   26.2123 H   0  0  0  0  0  0
  -28.3824  -32.6958   25.0337 H   0  0  0  0  0  0
  -28.0717  -31.8451   26.5389 H   0  0  0  0  0  0
  -28.2585  -38.0073   24.7494 H   0  0  0  0  0  0
  -28.1029  -36.2604   24.6279 H   0  0  0  0  0  0
  -27.2307  -37.1483   25.8861 H   0  0  0  0  0  0
  -20.9408  -29.8761   21.6907 H   0  0  0  0  0  0
  -26.0143  -38.2864   24.1377 H   0  0  0  0  0  0
  -28.0791  -19.8449   18.9527 H   0  0  0  0  0  0
  -30.1916  -22.3486   22.5317 H   0  0  0  0  0  0
  -27.9435  -24.8885   19.0303 H   0  0  0  0  0  0
  -25.8409  -23.1847   19.7852 H   0  0  0  0  0  0
  -25.9208  -23.8541   18.0659 H   0  0  0  0  0  0
  -26.0754  -21.5654   17.1287 H   0  0  0  0  0  0
  -25.8969  -20.8942   18.8372 H   0  0  0  0  0  0
  -28.9085  -17.9077   22.8842 H   0  0  0  0  0  0
  -27.4671  -17.6964   21.8939 H   0  0  0  0  0  0
  -28.0047  -15.5477   21.3563 H   0  0  0  0  0  0
  -29.0608  -15.5707   22.7706 H   0  0  0  0  0  0
  -28.1950  -22.7187   17.7618 H   0  0  0  0  0  0
  -28.6791  -17.9116   19.8856 H   0  0  0  0  0  0
  -31.1959  -17.5270   21.4717 H   0  0  0  0  0  0
  -30.5545  -24.5512   22.2129 H   0  0  0  0  0  0
  -29.4153  -25.8682   22.2147 H   0  0  0  0  0  0
  -28.9889  -24.3900   23.0416 H   0  0  0  0  0  0
  -30.7529  -17.1655   18.4614 H   0  0  0  0  0  0
  -32.2890  -17.0964   19.3361 H   0  0  0  0  0  0
  -31.4426  -18.6076   19.1945 H   0  0  0  0  0  0
  1 25  1  0  0  0
  1 30  2  0  0  0
  1 88  1  0  0  0
  2  3  1  0  0  0
  2 25  1  0  0  0
  2 89  1  0  0  0
  2 90  1  0  0  0
  3  4  1  0  0  0
  3 91  1  0  0  0
  3 92  1  0  0  0
  4  5  1  0  0  0
  4 93  1  0  0  0
  4 94  1  0  0  0
  5  6  1  0  0  0
  5 26  1  0  0  0
  5 95  1  0  0  0
  6 25  1  0  0  0
  6 96  1  0  0  0
  6 97  1  0  0  0
  7  8  2  0  0  0
  7 26  1  0  0  0
  7 29  1  0  0  0
  8  9  1  0  0  0
  8 22  1  0  0  0
  9 10  1  0  0  0
  9 27  2  0  0  0
 10 11  2  0  0  0
 10 15  1  0  0  0
 11 12  1  0  0  0
 11 98  1  0  0  0
 12 13  2  0  0  0
 12 99  1  0  0  0
 13 14  1  0  0  0
 13 31  1  0  0  0
 14 15  2  0  0  0
 14100  1  0  0  0
 15101  1  0  0  0
 16 17  2  0  0  0
 16 21  1  0  0  0
 16 31  1  0  0  0
 17 18  1  0  0  0
 17102  1  0  0  0
 18 19  2  0  0  0
 18103  1  0  0  0
 19 20  1  0  0  0
 19 24  1  0  0  0
 20 21  2  0  0  0
 20104  1  0  0  0
 21 23  1  0  0  0
 22 28  1  0  0  0
 22 32  2  0  0  0
 26 27  1  0  0  0
 28105  1  0  0  0
 28106  1  0  0  0
 29107  1  0  0  0
 29108  1  0  0  0
 33 34  1  0  0  0
 33 66  1  0  0  0
 33 70  2  0  0  0
 34 36  1  0  0  0
 34 59  1  0  0  0
 34109  1  0  0  0
 35 44  2  0  0  0
 35 45  1  0  0  0
 35 68  1  0  0  0
 36 56  1  0  0  0
 36110  1  0  0  0
 37 39  1  0  0  0
 37 47  1  0  0  0
 37 66  1  0  0  0
 37111  1  0  0  0
 38 43  2  0  0  0
 38 46  1  0  0  0
 38 47  1  0  0  0
 39 64  1  0  0  0
 39 67  2  0  0  0
 40 52  1  0  0  0
 40 53  2  0  0  0
 40 58  1  0  0  0
 41112  1  0  0  0
 41113  1  0  0  0
 41114  1  0  0  0
 41 48  1  0  0  0
 42 43  1  0  0  0
 42 66  1  0  0  0
 42115  1  0  0  0
 42116  1  0  0  0
 43 44  1  0  0  0
 44117  1  0  0  0
 45 46  2  0  0  0
 45118  1  0  0  0
 46119  1  0  0  0
 47120  1  0  0  0
 47121  1  0  0  0
 48 56  1  0  0  0
 48 65  1  0  0  0
 48122  1  0  0  0
 49 50  1  0  0  0
 49 53  1  0  0  0
 49 64  1  0  0  0
 49123  1  0  0  0
 50 51  1  0  0  0
 50124  1  0  0  0
 50125  1  0  0  0
 51 52  1  0  0  0
 51126  1  0  0  0
 51127  1  0  0  0
 52128  1  0  0  0
 52129  1  0  0  0
 53 54  1  0  0  0
 54 55  2  0  0  0
 54130  1  0  0  0
 55 57  1  0  0  0
 55131  1  0  0  0
 56 69  2  0  0  0
 57 58  2  0  0  0
 57132  1  0  0  0
 58133  1  0  0  0
 59 60  1  0  0  0
 59 61  1  0  0  0
 59 62  1  0  0  0
 60134  1  0  0  0
 60135  1  0  0  0
 60136  1  0  0  0
 61137  1  0  0  0
 61138  1  0  0  0
 61139  1  0  0  0
 62140  1  0  0  0
 62141  1  0  0  0
 62142  1  0  0  0
 63 65  1  0  0  0
 63143  1  0  0  0
 63144  1  0  0  0
 63145  1  0  0  0
 64146  1  0  0  0
 65147  1  0  0  0
 68 76  1  0  0  0
 71 74  2  0  0  0
 71 75  1  0  0  0
 71148  1  0  0  0
 72 73  2  0  0  0
 72 87  1  0  0  0
 72149  1  0  0  0
 73 74  1  0  0  0
 73 77  1  0  0  0
 74 82  1  0  0  0
 75 87  2  0  0  0
 75 83  1  0  0  0
 76 77  2  0  0  0
 76150  1  0  0  0
 77 85  1  0  0  0
 78 79  1  0  0  0
 78 82  1  0  0  0
 78151  1  0  0  0
 78152  1  0  0  0
 79 82  1  0  0  0
 79153  1  0  0  0
 79154  1  0  0  0
 80 81  1  0  0  0
 80 83  1  0  0  0
 80155  1  0  0  0
 80156  1  0  0  0
 81 88  1  0  0  0
 81157  1  0  0  0
 81158  1  0  0  0
 82159  1  0  0  0
 83 84  1  0  0  0
 83160  1  0  0  0
 84 86  1  0  0  0
 84 88  1  0  0  0
 84161  1  0  0  0
 85162  1  0  0  0
 85163  1  0  0  0
 85164  1  0  0  0
 86165  1  0  0  0
 86166  1  0  0  0
 86167  1  0  0  0
M  ISO  4   1 100  68 101  76 101  88 100
M  END
> <chiral flag>
0

> <version>
0

> <s_m_source_file>
/data/baiqing/PycharmProjects/Reinvent-master-3.2/result/LINK_invent/BTK/process_docking_weight1_custom_sum_contain_oxygen_bond_distance_aromatic_linkinvent_7_9_3/rearranged_h_0175.sdf

> <i_m_source_file_index>
67

> <r_mmod_Potential_Energy-OPLS-2005>
277.272888183594

> <r_mmod_Stretch_Energy-OPLS-2005>
99.5272064208984

> <r_mmod_Bend_Energy-OPLS-2005>
213.390594482422

> <r_mmod_Torsional_Energy-OPLS-2005>
317.781982421875

> <r_mmod_Improper_Torsional_Energy-OPLS-2005>
7.88055372238159

> <r_mmod_Van_der_Waal_Energy-OPLS-2005>
154.884994506836

> <r_mmod_Electrostatic_Energy-OPLS-2005>
-354.578704833984

> <r_mmod_Solvation_Energy-OPLS-2005>
-204.958786010742

> <b_mmod_Minimization_Converged-OPLS-2005>
0

> <r_mmod_RMS_Derivative-OPLS-2005>
6.09026861190796

$$$$
67
                    3D
 Structure written by MMmdl.
167176  0  0  1  0            999 V2000
  -30.6559  -14.6646   20.4388 C   0  0  0  0  0  0
  -30.4236  -12.3998   19.4675 C   0  0  0  0  0  0
  -29.5068  -12.4831   18.2274 C   0  0  0  0  0  0
  -28.0281  -12.3344   18.6372 C   0  0  0  0  0  0
  -27.6438  -13.2283   19.8479 C   0  0  2  0  0  0
  -28.6896  -13.1528   20.9823 C   0  0  0  0  0  0
  -25.2520  -13.8199   20.5676 C   0  0  0  0  0  0
  -24.1810  -13.0440   20.9195 C   0  0  0  0  0  0
  -24.6401  -11.6921   20.8731 C   0  0  0  0  0  0
  -23.9076  -10.4295   21.0393 C   0  0  0  0  0  0
  -24.3621   -9.4216   21.9174 C   0  0  0  0  0  0
  -23.6296   -8.2250   22.0750 C   0  0  0  0  0  0
  -22.4276   -8.0286   21.3536 C   0  0  0  0  0  0
  -21.9912   -9.0264   20.4639 C   0  0  0  0  0  0
  -22.7249  -10.2136   20.3043 C   0  0  0  0  0  0
  -21.6853   -6.0737   22.5272 C   0  0  0  0  0  0
  -21.4026   -6.5635   23.8211 C   0  0  0  0  0  0
  -21.3660   -5.6780   24.9166 C   0  0  0  0  0  0
  -21.6041   -4.3044   24.7213 C   0  0  0  0  0  0
  -21.8822   -3.8144   23.4329 C   0  0  0  0  0  0
  -21.9202   -4.6964   22.3386 C   0  0  0  0  0  0
  -22.7822  -13.5208   21.1855 C   0  0  0  0  0  0
  -22.1665   -4.2158   21.0960 F   0  0  0  0  0  0
  -21.5632   -3.4525   25.7722 F   0  0  0  0  0  0
  -29.9985  -13.4644   20.3985 N   0  0  0  0  0  0
  -26.2950  -12.9398   20.3274 N   0  0  0  0  0  0
  -25.9333  -11.6543   20.5751 N   0  0  0  0  0  0
  -22.0466  -12.8204   22.0407 N   0  0  0  0  0  0
  -25.4216  -15.1915   20.4074 N   0  0  0  0  0  0
  -31.8490  -14.7387   20.1392 O   0  0  0  0  0  0
  -21.6643   -6.8881   21.4232 O   0  0  0  0  0  0
  -22.3505  -14.5525   20.6710 O   0  0  0  0  0  0
  -24.6236  -31.8596   23.2028 C   0  0  0  0  0  0
  -25.9103  -32.4772   23.8345 C   0  0  1  0  0  0
  -27.2225  -27.3233   20.1068 C   0  0  0  0  0  0
  -25.5924  -33.8573   24.2286 N   0  0  0  0  0  0
  -23.4164  -30.4811   21.5465 C   0  0  2  0  0  0
  -24.8629  -28.9411   20.1052 C   0  0  0  0  0  0
  -22.7475  -29.4596   22.4956 C   0  0  0  0  0  0
  -18.0291  -28.1388   22.8486 C   0  0  0  0  0  0
  -24.1479  -36.7275   23.2635 C   0  0  0  0  0  0
  -25.9547  -30.7899   21.3736 C   0  0  0  0  0  0
  -26.0281  -29.4161   20.7190 C   0  0  0  0  0  0
  -27.2058  -28.6131   20.7227 C   0  0  0  0  0  0
  -26.0320  -26.8978   19.4787 C   0  0  0  0  0  0
  -24.8665  -27.6867   19.4789 C   0  0  0  0  0  0
  -23.6289  -29.8178   20.1595 C   0  0  0  0  0  0
  -25.4104  -36.3071   24.0326 C   0  0  1  0  0  0
  -20.5887  -28.3668   23.1312 C   0  0  2  0  0  0
  -20.6773  -26.9393   22.5425 C   0  0  0  0  0  0
  -19.5746  -26.6386   21.5221 C   0  0  0  0  0  0
  -18.1927  -26.7935   22.1630 C   0  0  0  0  0  0
  -19.1543  -28.8850   23.2889 C   0  0  0  0  0  0
  -18.9458  -30.1457   23.8894 C   0  0  0  0  0  0
  -17.6455  -30.6579   24.0574 C   0  0  0  0  0  0
  -25.9044  -34.9442   23.5104 C   0  0  0  0  0  0
  -16.5354  -29.9068   23.6337 C   0  0  0  0  0  0
  -16.7279  -28.6501   23.0338 C   0  0  0  0  0  0
  -26.4502  -31.6563   25.0693 C   0  0  0  0  0  0
  -25.3748  -31.3692   26.1422 C   0  0  0  0  0  0
  -27.0333  -30.2994   24.6096 C   0  0  0  0  0  0
  -27.6060  -32.4295   25.7484 C   0  0  0  0  0  0
  -27.5570  -37.1786   24.8461 C   0  0  0  0  0  0
  -21.4192  -29.3013   22.3706 N   0  0  0  0  0  0
  -26.4282  -37.3763   23.9412 N   0  0  0  0  0  0
  -24.6838  -31.0607   22.0982 N   0  0  0  0  0  0
  -23.4208  -28.8133   23.3028 O   0  0  0  0  0  0
  -28.3451  -26.4858   20.1820 O   0  0  0  0  0  0
  -26.5605  -34.8921   22.4666 O   0  0  0  0  0  0
  -23.5408  -32.1405   23.7359 O   0  0  0  0  0  0
  -29.7181  -21.8634   20.6113 C   0  0  0  0  0  0
  -29.5208  -23.2830   20.5514 C   0  0  0  0  0  0
  -28.5579  -23.8479   19.6612 C   0  0  0  0  0  0
  -27.7749  -22.8790   18.9650 C   0  0  0  0  0  0
  -28.9711  -20.9939   19.7820 C   0  0  0  0  0  0
  -30.5598  -18.5021   17.6994 C   0  0  0  0  0  0
  -29.3273  -19.3168   18.0618 C   0  0  0  0  0  0
  -29.3277  -18.4300   20.3703 C   0  0  0  0  0  0
  -30.3142  -17.2092   19.9704 C   0  0  2  0  0  0
  -30.5928  -17.1454   18.4245 C   0  0  2  0  0  0
  -30.4144  -24.1866   21.3808 C   0  0  0  0  0  0
  -26.6795  -23.2751   17.9894 C   0  0  0  0  0  0
  -28.5492  -25.3783   19.2347 C   0  0  0  0  0  0
  -27.9745  -21.5303   19.0366 N   0  0  0  0  0  0
  -29.3726  -19.6403   19.4824 N   0  0  0  0  0  0
  -29.9063  -15.8202   20.4557 N   0  0  0  0  0  0
  -31.8817  -16.4900   18.1307 N   0  3  0  0  0  0
  -31.4692  -12.4959   19.1690 H   0  0  0  0  0  0
  -30.3400  -11.4225   19.9462 H   0  0  0  0  0  0
  -29.7696  -11.7048   17.5094 H   0  0  0  0  0  0
  -29.6594  -13.4334   17.7156 H   0  0  0  0  0  0
  -27.8599  -11.2849   18.8822 H   0  0  0  0  0  0
  -27.3796  -12.5533   17.7881 H   0  0  0  0  0  0
  -27.6417  -14.2512   19.4718 H   0  0  0  0  0  0
  -28.7010  -12.1597   21.4338 H   0  0  0  0  0  0
  -28.4405  -13.8507   21.7836 H   0  0  0  0  0  0
  -25.2763   -9.5703   22.4755 H   0  0  0  0  0  0
  -24.0009   -7.4639   22.7462 H   0  0  0  0  0  0
  -21.0851   -8.8767   19.8937 H   0  0  0  0  0  0
  -22.3695  -10.9665   19.6146 H   0  0  0  0  0  0
  -21.2016   -7.6145   23.9713 H   0  0  0  0  0  0
  -21.1482   -6.0511   25.9072 H   0  0  0  0  0  0
  -22.0603   -2.7608   23.2826 H   0  0  0  0  0  0
  -22.4043  -11.9847   22.4800 H   0  0  0  0  0  0
  -21.1088  -13.1245   22.2595 H   0  0  0  0  0  0
  -24.6484  -15.8416   20.5084 H   0  0  0  0  0  0
  -26.2615  -15.6349   20.0612 H   0  0  0  0  0  0
  -26.7149  -32.5462   23.1075 H   0  0  0  0  0  0
  -25.0083  -33.9712   25.0440 H   0  0  0  0  0  0
  -22.7072  -31.2993   21.4066 H   0  0  0  0  0  0
  -23.3748  -35.9595   23.3286 H   0  0  0  0  0  0
  -24.3574  -36.8913   22.2051 H   0  0  0  0  0  0
  -23.7226  -37.6469   23.6670 H   0  0  0  0  0  0
  -26.0760  -31.5507   20.6016 H   0  0  0  0  0  0
  -26.8397  -30.8470   21.9949 H   0  0  0  0  0  0
  -28.0970  -28.9667   21.2218 H   0  0  0  0  0  0
  -25.9652  -25.9307   19.0124 H   0  0  0  0  0  0
  -23.9707  -27.3154   19.0006 H   0  0  0  0  0  0
  -23.7404  -30.5941   19.4015 H   0  0  0  0  0  0
  -22.7503  -29.2415   19.8626 H   0  0  0  0  0  0
  -25.1277  -36.1913   25.0813 H   0  0  0  0  0  0
  -20.9975  -28.3242   24.1436 H   0  0  0  0  0  0
  -20.5694  -26.2259   23.3612 H   0  0  0  0  0  0
  -21.6640  -26.7431   22.1211 H   0  0  0  0  0  0
  -19.6898  -25.6300   21.1235 H   0  0  0  0  0  0
  -19.6696  -27.3217   20.6768 H   0  0  0  0  0  0
  -17.4199  -26.6708   21.4025 H   0  0  0  0  0  0
  -18.0308  -26.0085   22.9031 H   0  0  0  0  0  0
  -19.7925  -30.7286   24.2259 H   0  0  0  0  0  0
  -17.4995  -31.6258   24.5176 H   0  0  0  0  0  0
  -15.5349  -30.2949   23.7658 H   0  0  0  0  0  0
  -15.8693  -28.0814   22.7035 H   0  0  0  0  0  0
  -24.5928  -30.7023   25.7760 H   0  0  0  0  0  0
  -24.8924  -32.2854   26.4832 H   0  0  0  0  0  0
  -25.8084  -30.8888   27.0198 H   0  0  0  0  0  0
  -26.2871  -29.6762   24.1139 H   0  0  0  0  0  0
  -27.4085  -29.7218   25.4554 H   0  0  0  0  0  0
  -27.8722  -30.4293   23.9255 H   0  0  0  0  0  0
  -27.2658  -33.3598   26.2044 H   0  0  0  0  0  0
  -28.3888  -32.6847   25.0329 H   0  0  0  0  0  0
  -28.0691  -31.8422   26.5423 H   0  0  0  0  0  0
  -28.2566  -38.0099   24.7515 H   0  0  0  0  0  0
  -28.1088  -36.2631   24.6272 H   0  0  0  0  0  0
  -27.2291  -37.1417   25.8864 H   0  0  0  0  0  0
  -20.9367  -29.8733   21.6918 H   0  0  0  0  0  0
  -26.0161  -38.2827   24.1449 H   0  0  0  0  0  0
  -30.5194  -21.4589   21.2142 H   0  0  0  0  0  0
  -31.4480  -19.0908   17.9351 H   0  0  0  0  0  0
  -30.5760  -18.3486   16.6188 H   0  0  0  0  0  0
  -28.4102  -18.7696   17.8350 H   0  0  0  0  0  0
  -29.3229  -20.2137   17.4391 H   0  0  0  0  0  0
  -29.5312  -18.7415   21.3950 H   0  0  0  0  0  0
  -28.2981  -18.0734   20.3659 H   0  0  0  0  0  0
  -31.2605  -17.4513   20.4568 H   0  0  0  0  0  0
  -29.8058  -16.5336   17.9774 H   0  0  0  0  0  0
  -30.9221  -23.6270   22.1668 H   0  0  0  0  0  0
  -29.8301  -24.9707   21.8632 H   0  0  0  0  0  0
  -31.1725  -24.6571   20.7547 H   0  0  0  0  0  0
  -25.8921  -23.8236   18.5028 H   0  0  0  0  0  0
  -26.2120  -22.4004   17.5362 H   0  0  0  0  0  0
  -27.0719  -23.8831   17.1746 H   0  0  0  0  0  0
  -27.9700  -25.5363   18.3292 H   0  0  0  0  0  0
  -29.5647  -25.5467   18.8753 H   0  0  0  0  0  0
  -28.9263  -15.6901   20.6537 H   0  0  0  0  0  0
  -32.6444  -17.1317   18.2579 H   0  0  0  0  0  0
  -31.9099  -16.1371   17.1903 H   0  0  0  0  0  0
  -32.0161  -15.7198   18.7842 H   0  0  0  0  0  0
  1 25  1  0  0  0
  1 30  2  0  0  0
  1 86  1  0  0  0
  2  3  1  0  0  0
  2 25  1  0  0  0
  2 88  1  0  0  0
  2 89  1  0  0  0
  3  4  1  0  0  0
  3 90  1  0  0  0
  3 91  1  0  0  0
  4  5  1  0  0  0
  4 92  1  0  0  0
  4 93  1  0  0  0
  5  6  1  0  0  0
  5 26  1  0  0  0
  5 94  1  0  0  0
  6 25  1  0  0  0
  6 95  1  0  0  0
  6 96  1  0  0  0
  7  8  2  0  0  0
  7 26  1  0  0  0
  7 29  1  0  0  0
  8  9  1  0  0  0
  8 22  1  0  0  0
  9 10  1  0  0  0
  9 27  2  0  0  0
 10 11  2  0  0  0
 10 15  1  0  0  0
 11 12  1  0  0  0
 11 97  1  0  0  0
 12 13  2  0  0  0
 12 98  1  0  0  0
 13 14  1  0  0  0
 13 31  1  0  0  0
 14 15  2  0  0  0
 14 99  1  0  0  0
 15100  1  0  0  0
 16 17  2  0  0  0
 16 21  1  0  0  0
 16 31  1  0  0  0
 17 18  1  0  0  0
 17101  1  0  0  0
 18 19  2  0  0  0
 18102  1  0  0  0
 19 20  1  0  0  0
 19 24  1  0  0  0
 20 21  2  0  0  0
 20103  1  0  0  0
 21 23  1  0  0  0
 22 28  1  0  0  0
 22 32  2  0  0  0
 26 27  1  0  0  0
 28104  1  0  0  0
 28105  1  0  0  0
 29106  1  0  0  0
 29107  1  0  0  0
 33 34  1  0  0  0
 33 66  1  0  0  0
 33 70  2  0  0  0
 34 36  1  0  0  0
 34 59  1  0  0  0
 34108  1  0  0  0
 35 44  2  0  0  0
 35 45  1  0  0  0
 35 68  1  0  0  0
 36 56  1  0  0  0
 36109  1  0  0  0
 37 39  1  0  0  0
 37 47  1  0  0  0
 37 66  1  0  0  0
 37110  1  0  0  0
 38 43  2  0  0  0
 38 46  1  0  0  0
 38 47  1  0  0  0
 39 64  1  0  0  0
 39 67  2  0  0  0
 40 52  1  0  0  0
 40 53  2  0  0  0
 40 58  1  0  0  0
 41111  1  0  0  0
 41112  1  0  0  0
 41113  1  0  0  0
 41 48  1  0  0  0
 42 43  1  0  0  0
 42 66  1  0  0  0
 42114  1  0  0  0
 42115  1  0  0  0
 43 44  1  0  0  0
 44116  1  0  0  0
 45 46  2  0  0  0
 45117  1  0  0  0
 46118  1  0  0  0
 47119  1  0  0  0
 47120  1  0  0  0
 48 56  1  0  0  0
 48 65  1  0  0  0
 48121  1  0  0  0
 49 50  1  0  0  0
 49 53  1  0  0  0
 49 64  1  0  0  0
 49122  1  0  0  0
 50 51  1  0  0  0
 50123  1  0  0  0
 50124  1  0  0  0
 51 52  1  0  0  0
 51125  1  0  0  0
 51126  1  0  0  0
 52127  1  0  0  0
 52128  1  0  0  0
 53 54  1  0  0  0
 54 55  2  0  0  0
 54129  1  0  0  0
 55 57  1  0  0  0
 55130  1  0  0  0
 56 69  2  0  0  0
 57 58  2  0  0  0
 57131  1  0  0  0
 58132  1  0  0  0
 59 60  1  0  0  0
 59 61  1  0  0  0
 59 62  1  0  0  0
 60133  1  0  0  0
 60134  1  0  0  0
 60135  1  0  0  0
 61136  1  0  0  0
 61137  1  0  0  0
 61138  1  0  0  0
 62139  1  0  0  0
 62140  1  0  0  0
 62141  1  0  0  0
 63 65  1  0  0  0
 63142  1  0  0  0
 63143  1  0  0  0
 63144  1  0  0  0
 64145  1  0  0  0
 65146  1  0  0  0
 68 83  1  0  0  0
 71 72  2  0  0  0
 71 75  1  0  0  0
 71147  1  0  0  0
 72 73  1  0  0  0
 72 81  1  0  0  0
 73 74  2  0  0  0
 73 83  1  0  0  0
 74 82  1  0  0  0
 74 84  1  0  0  0
 75 84  2  0  0  0
 75 85  1  0  0  0
 76 77  1  0  0  0
 76 80  1  0  0  0
 76148  1  0  0  0
 76149  1  0  0  0
 77 85  1  0  0  0
 77150  1  0  0  0
 77151  1  0  0  0
 78 79  1  0  0  0
 78 85  1  0  0  0
 78152  1  0  0  0
 78153  1  0  0  0
 79 80  1  0  0  0
 79 86  1  0  0  0
 79154  1  0  0  0
 80 87  1  0  0  0
 80155  1  0  0  0
 81156  1  0  0  0
 81157  1  0  0  0
 81158  1  0  0  0
 82159  1  0  0  0
 82160  1  0  0  0
 82161  1  0  0  0
 83162  1  0  0  0
 83163  1  0  0  0
 86164  1  0  0  0
 87165  1  0  0  0
 87166  1  0  0  0
 87167  1  0  0  0
M  CHG  1  87   1
M  ISO  4   1 100  68 101  83 101  86 100
M  END
> <chiral flag>
0

> <version>
0

> <s_m_source_file>
/data/baiqing/PycharmProjects/Reinvent-master-3.2/result/LINK_invent/BTK/process_docking_weight1_custom_sum_contain_oxygen_bond_distance_aromatic_linkinvent_7_9_3/rearranged_h_0175.sdf

> <i_m_source_file_index>
68

> <r_mmod_Potential_Energy-OPLS-2005>
-339.569976806641

> <r_mmod_Stretch_Energy-OPLS-2005>
91.3577651977539

> <r_mmod_Bend_Energy-OPLS-2005>
169.495544433594

> <r_mmod_Torsional_Energy-OPLS-2005>
321.971954345703

> <r_mmod_Improper_Torsional_Energy-OPLS-2005>
15.4312601089478

> <r_mmod_Van_der_Waal_Energy-OPLS-2005>
166.838790893555

> <r_mmod_Electrostatic_Energy-OPLS-2005>
-686.228393554688

> <r_mmod_Solvation_Energy-OPLS-2005>
-475.296508789062

> <b_mmod_Minimization_Converged-OPLS-2005>
0

> <r_mmod_RMS_Derivative-OPLS-2005>
2.3608067035675

$$$$
68
                    3D
 Structure written by MMmdl.
163172  0  0  1  0            999 V2000
  -30.4905  -15.3801   20.3728 C   0  0  0  0  0  0
  -30.4144  -12.9214   19.4893 C   0  0  0  0  0  0
  -29.5192  -12.5947   18.2719 C   0  0  0  0  0  0
  -28.0849  -12.2898   18.7304 C   0  0  0  0  0  0
  -27.5995  -13.2904   19.8061 C   0  0  2  0  0  0
  -28.6418  -13.5664   20.9129 C   0  0  0  0  0  0
  -25.2358  -13.8274   20.5808 C   0  0  0  0  0  0
  -24.1727  -13.0442   20.9293 C   0  0  0  0  0  0
  -24.6405  -11.6952   20.8820 C   0  0  0  0  0  0
  -23.9101  -10.4294   21.0423 C   0  0  0  0  0  0
  -24.3648   -9.4204   21.9186 C   0  0  0  0  0  0
  -23.6310   -8.2249   22.0761 C   0  0  0  0  0  0
  -22.4285   -8.0294   21.3561 C   0  0  0  0  0  0
  -21.9923   -9.0268   20.4671 C   0  0  0  0  0  0
  -22.7269  -10.2132   20.3071 C   0  0  0  0  0  0
  -21.6853   -6.0750   22.5269 C   0  0  0  0  0  0
  -21.4028   -6.5644   23.8205 C   0  0  0  0  0  0
  -21.3676   -5.6792   24.9164 C   0  0  0  0  0  0
  -21.6033   -4.3051   24.7219 C   0  0  0  0  0  0
  -21.8806   -3.8155   23.4331 C   0  0  0  0  0  0
  -21.9178   -4.6980   22.3391 C   0  0  0  0  0  0
  -22.7735  -13.5205   21.1900 C   0  0  0  0  0  0
  -22.1651   -4.2167   21.0978 F   0  0  0  0  0  0
  -21.5639   -3.4540   25.7738 F   0  0  0  0  0  0
  -29.8261  -14.1132   20.2232 N   0  0  0  0  0  0
  -26.2788  -12.9567   20.3254 N   0  0  0  0  0  0
  -25.9338  -11.6662   20.5741 N   0  0  0  0  0  0
  -22.0358  -12.8232   22.0451 N   0  0  0  0  0  0
  -25.3967  -15.2017   20.4279 N   0  0  0  0  0  0
  -31.7172  -15.1788   20.3229 O   0  0  0  0  0  0
  -21.6639   -6.8898   21.4231 O   0  0  0  0  0  0
  -22.3430  -14.5493   20.6686 O   0  0  0  0  0  0
  -24.6689  -31.8181   23.1677 C   0  0  0  0  0  0
  -25.9348  -32.4555   23.8163 C   0  0  1  0  0  0
  -27.2059  -26.8597   20.1950 C   0  0  0  0  0  0
  -25.5989  -33.8377   24.2059 N   0  0  0  0  0  0
  -23.4854  -30.4296   21.5206 C   0  0  2  0  0  0
  -24.9367  -28.8051   20.1146 C   0  0  0  0  0  0
  -22.7691  -29.4402   22.4776 C   0  0  0  0  0  0
  -18.0315  -28.1415   22.8449 C   0  0  0  0  0  0
  -24.1495  -36.7189   23.2644 C   0  0  0  0  0  0
  -26.0599  -30.6006   21.4115 C   0  0  0  0  0  0
  -26.1237  -29.1844   20.7533 C   0  0  0  0  0  0
  -27.2532  -28.2376   20.7621 C   0  0  0  0  0  0
  -25.9885  -26.6497   19.5069 C   0  0  0  0  0  0
  -24.9002  -27.5602   19.4679 C   0  0  0  0  0  0
  -23.7302  -29.7459   20.1472 C   0  0  0  0  0  0
  -25.4138  -36.2950   24.0289 C   0  0  1  0  0  0
  -20.5939  -28.3775   23.1166 C   0  0  2  0  0  0
  -20.6797  -26.9446   22.5399 C   0  0  0  0  0  0
  -19.5789  -26.6374   21.5200 C   0  0  0  0  0  0
  -18.1964  -26.7941   22.1599 C   0  0  0  0  0  0
  -19.1574  -28.8915   23.2803 C   0  0  0  0  0  0
  -18.9488  -30.1500   23.8848 C   0  0  0  0  0  0
  -17.6484  -30.6618   24.0542 C   0  0  0  0  0  0
  -25.9098  -34.9335   23.4997 C   0  0  0  0  0  0
  -16.5374  -29.9093   23.6348 C   0  0  0  0  0  0
  -16.7296  -28.6510   23.0364 C   0  0  0  0  0  0
  -26.4571  -31.6532   25.0729 C   0  0  0  0  0  0
  -25.3674  -31.3813   26.1376 C   0  0  0  0  0  0
  -27.0471  -30.2882   24.6524 C   0  0  0  0  0  0
  -27.6055  -32.4354   25.7531 C   0  0  0  0  0  0
  -27.5577  -37.1745   24.8451 C   0  0  0  0  0  0
  -21.4356  -29.3046   22.3503 N   0  0  0  0  0  0
  -26.4274  -37.3704   23.9404 N   0  0  0  0  0  0
  -24.7605  -30.9776   22.0861 N   0  0  0  0  0  0
  -23.4207  -28.7962   23.3037 O   0  0  0  0  0  0
  -28.1844  -25.7129   20.2521 O   0  0  0  0  0  0
  -26.5727  -34.8871   22.4600 O   0  0  0  0  0  0
  -23.5741  -32.1174   23.6731 O   0  0  0  0  0  0
  -31.0019  -21.4397   19.7490 C   0  0  0  0  0  0
  -30.5846  -20.0807   19.9254 C   0  0  0  0  0  0
  -29.2661  -19.7756   20.2927 C   0  0  0  0  0  0
  -30.1751  -22.6089   19.8911 C   0  0  0  0  0  0
  -28.3987  -21.0613   20.4239 C   0  0  0  0  0  0
  -28.7895  -22.5556   20.2146 C   0  0  0  0  0  0
  -29.0270  -18.0563   20.5341 C   0  0  0  0  0  0
  -30.9087  -17.5858   19.1613 C   0  0  0  0  0  0
  -31.5633  -18.8944   19.7584 C   0  0  2  0  0  0
  -30.8247  -23.9719   19.7075 C   0  0  0  0  0  0
  -32.3139  -18.6086   21.0739 C   0  0  0  0  0  0
  -26.8552  -20.5201   22.3562 C   0  0  0  0  0  0
  -26.9597  -20.8155   20.8527 C   0  0  0  0  0  0
  -27.8421  -24.0699   20.2505 C   0  0  0  0  0  0
  -30.0151  -16.7985   20.0671 N   0  0  0  0  0  0
  -31.4200  -13.1299   19.1212 H   0  0  0  0  0  0
  -30.5176  -12.0582   20.1487 H   0  0  0  0  0  0
  -29.9304  -11.7575   17.7056 H   0  0  0  0  0  0
  -29.5078  -13.4450   17.5885 H   0  0  0  0  0  0
  -28.0786  -11.2824   19.1456 H   0  0  0  0  0  0
  -27.4034  -12.2743   17.8802 H   0  0  0  0  0  0
  -27.4770  -14.2281   19.2624 H   0  0  0  0  0  0
  -28.8657  -12.6690   21.4958 H   0  0  0  0  0  0
  -28.2627  -14.3121   21.6142 H   0  0  0  0  0  0
  -25.2790   -9.5714   22.4753 H   0  0  0  0  0  0
  -24.0040   -7.4649   22.7490 H   0  0  0  0  0  0
  -21.0841   -8.8789   19.8987 H   0  0  0  0  0  0
  -22.3719  -10.9672   19.6201 H   0  0  0  0  0  0
  -21.2030   -7.6146   23.9716 H   0  0  0  0  0  0
  -21.1524   -6.0524   25.9073 H   0  0  0  0  0  0
  -22.0574   -2.7616   23.2791 H   0  0  0  0  0  0
  -22.3954  -11.9953   22.4953 H   0  0  0  0  0  0
  -21.0968  -13.1265   22.2632 H   0  0  0  0  0  0
  -24.6281  -15.8545   20.5447 H   0  0  0  0  0  0
  -26.2489  -15.6480   20.1155 H   0  0  0  0  0  0
  -26.7403  -32.5061   23.0855 H   0  0  0  0  0  0
  -25.0080  -33.9459   25.0168 H   0  0  0  0  0  0
  -22.8025  -31.2631   21.3479 H   0  0  0  0  0  0
  -23.3783  -35.9490   23.3251 H   0  0  0  0  0  0
  -24.3565  -36.8906   22.2070 H   0  0  0  0  0  0
  -23.7223  -37.6343   23.6743 H   0  0  0  0  0  0
  -26.2498  -31.3367   20.6301 H   0  0  0  0  0  0
  -26.9162  -30.6549   22.0709 H   0  0  0  0  0  0
  -28.1530  -28.5266   21.2849 H   0  0  0  0  0  0
  -25.8401  -25.7033   19.0091 H   0  0  0  0  0  0
  -24.0011  -27.2649   18.9440 H   0  0  0  0  0  0
  -23.8993  -30.5161   19.3939 H   0  0  0  0  0  0
  -22.8367  -29.2112   19.8194 H   0  0  0  0  0  0
  -25.1329  -36.1735   25.0781 H   0  0  0  0  0  0
  -21.0019  -28.3397   24.1295 H   0  0  0  0  0  0
  -20.5691  -26.2382   23.3644 H   0  0  0  0  0  0
  -21.6670  -26.7431   22.1217 H   0  0  0  0  0  0
  -19.6960  -25.6267   21.1289 H   0  0  0  0  0  0
  -19.6748  -27.3136   20.6693 H   0  0  0  0  0  0
  -17.4232  -26.6669   21.4002 H   0  0  0  0  0  0
  -18.0375  -26.0109   22.9031 H   0  0  0  0  0  0
  -19.7972  -30.7315   24.2209 H   0  0  0  0  0  0
  -17.5044  -31.6291   24.5164 H   0  0  0  0  0  0
  -15.5376  -30.2978   23.7721 H   0  0  0  0  0  0
  -15.8687  -28.0814   22.7114 H   0  0  0  0  0  0
  -24.5786  -30.7266   25.7642 H   0  0  0  0  0  0
  -24.8958  -32.3047   26.4761 H   0  0  0  0  0  0
  -25.7866  -30.8942   27.0193 H   0  0  0  0  0  0
  -26.3144  -29.6540   24.1523 H   0  0  0  0  0  0
  -27.3940  -29.7278   25.5218 H   0  0  0  0  0  0
  -27.9119  -30.4030   23.9985 H   0  0  0  0  0  0
  -27.2597  -33.3657   26.2047 H   0  0  0  0  0  0
  -28.3897  -32.6930   25.0398 H   0  0  0  0  0  0
  -28.0700  -31.8546   26.5512 H   0  0  0  0  0  0
  -28.2544  -38.0094   24.7539 H   0  0  0  0  0  0
  -28.1129  -36.2619   24.6214 H   0  0  0  0  0  0
  -27.2301  -37.1305   25.8858 H   0  0  0  0  0  0
  -20.9609  -29.8701   21.6594 H   0  0  0  0  0  0
  -26.0116  -38.2746   24.1462 H   0  0  0  0  0  0
  -32.0423  -21.5984   19.4967 H   0  0  0  0  0  0
  -28.0527  -17.8355   20.0967 H   0  0  0  0  0  0
  -28.8863  -17.9304   21.6089 H   0  0  0  0  0  0
  -31.7069  -16.9666   18.7486 H   0  0  0  0  0  0
  -30.3346  -17.8607   18.2732 H   0  0  0  0  0  0
  -32.3137  -19.2163   19.0322 H   0  0  0  0  0  0
  -31.8775  -23.8999   19.4334 H   0  0  0  0  0  0
  -30.7674  -24.5383   20.6393 H   0  0  0  0  0  0
  -30.3186  -24.5412   18.9271 H   0  0  0  0  0  0
  -31.6193  -18.4121   21.8916 H   0  0  0  0  0  0
  -32.9417  -19.4501   21.3727 H   0  0  0  0  0  0
  -32.9621  -17.7380   20.9775 H   0  0  0  0  0  0
  -25.8165  -20.3964   22.6647 H   0  0  0  0  0  0
  -27.2863  -21.3269   22.9541 H   0  0  0  0  0  0
  -27.3856  -19.6034   22.6133 H   0  0  0  0  0  0
  -26.5508  -19.9817   20.2779 H   0  0  0  0  0  0
  -26.3407  -21.6779   20.6034 H   0  0  0  0  0  0
  -27.1923  -23.9451   21.1172 H   0  0  0  0  0  0
  -27.1722  -23.9435   19.4000 H   0  0  0  0  0  0
  1 25  1  0  0  0
  1 30  2  0  0  0
  1 85  1  0  0  0
  2  3  1  0  0  0
  2 25  1  0  0  0
  2 86  1  0  0  0
  2 87  1  0  0  0
  3  4  1  0  0  0
  3 88  1  0  0  0
  3 89  1  0  0  0
  4  5  1  0  0  0
  4 90  1  0  0  0
  4 91  1  0  0  0
  5  6  1  0  0  0
  5 26  1  0  0  0
  5 92  1  0  0  0
  6 25  1  0  0  0
  6 93  1  0  0  0
  6 94  1  0  0  0
  7  8  2  0  0  0
  7 26  1  0  0  0
  7 29  1  0  0  0
  8  9  1  0  0  0
  8 22  1  0  0  0
  9 10  1  0  0  0
  9 27  2  0  0  0
 10 11  2  0  0  0
 10 15  1  0  0  0
 11 12  1  0  0  0
 11 95  1  0  0  0
 12 13  2  0  0  0
 12 96  1  0  0  0
 13 14  1  0  0  0
 13 31  1  0  0  0
 14 15  2  0  0  0
 14 97  1  0  0  0
 15 98  1  0  0  0
 16 17  2  0  0  0
 16 21  1  0  0  0
 16 31  1  0  0  0
 17 18  1  0  0  0
 17 99  1  0  0  0
 18 19  2  0  0  0
 18100  1  0  0  0
 19 20  1  0  0  0
 19 24  1  0  0  0
 20 21  2  0  0  0
 20101  1  0  0  0
 21 23  1  0  0  0
 22 28  1  0  0  0
 22 32  2  0  0  0
 26 27  1  0  0  0
 28102  1  0  0  0
 28103  1  0  0  0
 29104  1  0  0  0
 29105  1  0  0  0
 33 34  1  0  0  0
 33 66  1  0  0  0
 33 70  2  0  0  0
 34 36  1  0  0  0
 34 59  1  0  0  0
 34106  1  0  0  0
 35 44  2  0  0  0
 35 45  1  0  0  0
 35 68  1  0  0  0
 36 56  1  0  0  0
 36107  1  0  0  0
 37 39  1  0  0  0
 37 47  1  0  0  0
 37 66  1  0  0  0
 37108  1  0  0  0
 38 43  2  0  0  0
 38 46  1  0  0  0
 38 47  1  0  0  0
 39 64  1  0  0  0
 39 67  2  0  0  0
 40 52  1  0  0  0
 40 53  2  0  0  0
 40 58  1  0  0  0
 41109  1  0  0  0
 41110  1  0  0  0
 41111  1  0  0  0
 41 48  1  0  0  0
 42 43  1  0  0  0
 42 66  1  0  0  0
 42112  1  0  0  0
 42113  1  0  0  0
 43 44  1  0  0  0
 44114  1  0  0  0
 45 46  2  0  0  0
 45115  1  0  0  0
 46116  1  0  0  0
 47117  1  0  0  0
 47118  1  0  0  0
 48 56  1  0  0  0
 48 65  1  0  0  0
 48119  1  0  0  0
 49 50  1  0  0  0
 49 53  1  0  0  0
 49 64  1  0  0  0
 49120  1  0  0  0
 50 51  1  0  0  0
 50121  1  0  0  0
 50122  1  0  0  0
 51 52  1  0  0  0
 51123  1  0  0  0
 51124  1  0  0  0
 52125  1  0  0  0
 52126  1  0  0  0
 53 54  1  0  0  0
 54 55  2  0  0  0
 54127  1  0  0  0
 55 57  1  0  0  0
 55128  1  0  0  0
 56 69  2  0  0  0
 57 58  2  0  0  0
 57129  1  0  0  0
 58130  1  0  0  0
 59 60  1  0  0  0
 59 61  1  0  0  0
 59 62  1  0  0  0
 60131  1  0  0  0
 60132  1  0  0  0
 60133  1  0  0  0
 61134  1  0  0  0
 61135  1  0  0  0
 61136  1  0  0  0
 62137  1  0  0  0
 62138  1  0  0  0
 62139  1  0  0  0
 63 65  1  0  0  0
 63140  1  0  0  0
 63141  1  0  0  0
 63142  1  0  0  0
 64143  1  0  0  0
 65144  1  0  0  0
 68 84  1  0  0  0
 71 72  2  0  0  0
 71 74  1  0  0  0
 71145  1  0  0  0
 72 73  1  0  0  0
 72 79  1  0  0  0
 73 75  2  0  0  0
 73 77  1  0  0  0
 74 76  2  0  0  0
 74 80  1  0  0  0
 75 76  1  0  0  0
 75 83  1  0  0  0
 76 84  1  0  0  0
 77 85  1  0  0  0
 77146  1  0  0  0
 77147  1  0  0  0
 78 79  1  0  0  0
 78 85  1  0  0  0
 78148  1  0  0  0
 78149  1  0  0  0
 79 81  1  0  0  0
 79150  1  0  0  0
 80151  1  0  0  0
 80152  1  0  0  0
 80153  1  0  0  0
 81154  1  0  0  0
 81155  1  0  0  0
 81156  1  0  0  0
 82 83  1  0  0  0
 82157  1  0  0  0
 82158  1  0  0  0
 82159  1  0  0  0
 83160  1  0  0  0
 83161  1  0  0  0
 84162  1  0  0  0
 84163  1  0  0  0
M  ISO  4   1 100  68 101  84 101  85 100
M  END
> <chiral flag>
0

> <version>
0

> <s_m_source_file>
/data/baiqing/PycharmProjects/Reinvent-master-3.2/result/LINK_invent/BTK/process_docking_weight1_custom_sum_contain_oxygen_bond_distance_aromatic_linkinvent_7_9_3/rearranged_h_0175.sdf

> <i_m_source_file_index>
69

> <r_mmod_Potential_Energy-OPLS-2005>
1651.36267089844

> <r_mmod_Stretch_Energy-OPLS-2005>
663.761352539062

> <r_mmod_Bend_Energy-OPLS-2005>
477.754364013672

> <r_mmod_Torsional_Energy-OPLS-2005>
305.248138427734

> <r_mmod_Improper_Torsional_Energy-OPLS-2005>
21.0071258544922

> <r_mmod_Van_der_Waal_Energy-OPLS-2005>
133.805236816406

> <r_mmod_Electrostatic_Energy-OPLS-2005>
-334.523773193359

> <r_mmod_Solvation_Energy-OPLS-2005>
-193.536972045898

> <b_mmod_Minimization_Converged-OPLS-2005>
0

> <r_mmod_RMS_Derivative-OPLS-2005>
4.15961933135986

$$$$
69
                    3D
 Structure written by MMmdl.
167176  0  0  1  0            999 V2000
  -30.4979  -15.1465   20.4306 C   0  0  0  0  0  0
  -30.4300  -12.7358   19.5163 C   0  0  0  0  0  0
  -29.5276  -12.5469   18.2734 C   0  0  0  0  0  0
  -28.0677  -12.3134   18.6976 C   0  0  0  0  0  0
  -27.6112  -13.2752   19.8247 C   0  0  2  0  0  0
  -28.6442  -13.4020   20.9621 C   0  0  0  0  0  0
  -25.2398  -13.8240   20.5815 C   0  0  0  0  0  0
  -24.1740  -13.0440   20.9275 C   0  0  0  0  0  0
  -24.6373  -11.6918   20.8750 C   0  0  0  0  0  0
  -23.9074  -10.4285   21.0404 C   0  0  0  0  0  0
  -24.3625   -9.4201   21.9185 C   0  0  0  0  0  0
  -23.6298   -8.2242   22.0748 C   0  0  0  0  0  0
  -22.4279   -8.0290   21.3539 C   0  0  0  0  0  0
  -21.9906   -9.0267   20.4647 C   0  0  0  0  0  0
  -22.7235  -10.2141   20.3061 C   0  0  0  0  0  0
  -21.6848   -6.0735   22.5261 C   0  0  0  0  0  0
  -21.4010   -6.5634   23.8200 C   0  0  0  0  0  0
  -21.3671   -5.6783   24.9167 C   0  0  0  0  0  0
  -21.6044   -4.3044   24.7215 C   0  0  0  0  0  0
  -21.8815   -3.8135   23.4336 C   0  0  0  0  0  0
  -21.9194   -4.6957   22.3393 C   0  0  0  0  0  0
  -22.7758  -13.5211   21.1903 C   0  0  0  0  0  0
  -22.1662   -4.2145   21.0973 F   0  0  0  0  0  0
  -21.5638   -3.4528   25.7733 F   0  0  0  0  0  0
  -29.8878  -13.8742   20.3407 N   0  0  0  0  0  0
  -26.2806  -12.9516   20.3235 N   0  0  0  0  0  0
  -25.9302  -11.6612   20.5692 N   0  0  0  0  0  0
  -22.0399  -12.8227   22.0447 N   0  0  0  0  0  0
  -25.4082  -15.1983   20.4313 N   0  0  0  0  0  0
  -31.7223  -15.1170   20.2296 O   0  0  0  0  0  0
  -21.6630   -6.8892   21.4230 O   0  0  0  0  0  0
  -22.3436  -14.5503   20.6712 O   0  0  0  0  0  0
  -24.6590  -31.8293   23.1720 C   0  0  0  0  0  0
  -25.9300  -32.4612   23.8167 C   0  0  1  0  0  0
  -27.2081  -26.9661   20.2135 C   0  0  0  0  0  0
  -25.5992  -33.8418   24.2070 N   0  0  0  0  0  0
  -23.4699  -30.4474   21.5166 C   0  0  2  0  0  0
  -24.9234  -28.8408   20.1107 C   0  0  0  0  0  0
  -22.7632  -29.4509   22.4723 C   0  0  0  0  0  0
  -18.0318  -28.1447   22.8481 C   0  0  0  0  0  0
  -24.1486  -36.7185   23.2646 C   0  0  0  0  0  0
  -26.0356  -30.6590   21.3919 C   0  0  0  0  0  0
  -26.1057  -29.2508   20.7397 C   0  0  0  0  0  0
  -27.2448  -28.3372   20.7616 C   0  0  0  0  0  0
  -26.0020  -26.6963   19.5280 C   0  0  0  0  0  0
  -24.8970  -27.5846   19.4847 C   0  0  0  0  0  0
  -23.7110  -29.7661   20.1418 C   0  0  0  0  0  0
  -25.4124  -36.2943   24.0292 C   0  0  1  0  0  0
  -20.5943  -28.3783   23.1159 C   0  0  2  0  0  0
  -20.6791  -26.9449   22.5411 C   0  0  0  0  0  0
  -19.5750  -26.6412   21.5228 C   0  0  0  0  0  0
  -18.1943  -26.7984   22.1646 C   0  0  0  0  0  0
  -19.1583  -28.8922   23.2830 C   0  0  0  0  0  0
  -18.9517  -30.1532   23.8840 C   0  0  0  0  0  0
  -17.6504  -30.6629   24.0564 C   0  0  0  0  0  0
  -25.9091  -34.9346   23.4973 C   0  0  0  0  0  0
  -16.5384  -29.9128   23.6364 C   0  0  0  0  0  0
  -16.7302  -28.6562   23.0351 C   0  0  0  0  0  0
  -26.4554  -31.6554   25.0684 C   0  0  0  0  0  0
  -25.3681  -31.3846   26.1334 C   0  0  0  0  0  0
  -27.0427  -30.2905   24.6448 C   0  0  0  0  0  0
  -27.6032  -32.4380   25.7509 C   0  0  0  0  0  0
  -27.5542  -37.1741   24.8452 C   0  0  0  0  0  0
  -21.4293  -29.3059   22.3468 N   0  0  0  0  0  0
  -26.4241  -37.3703   23.9413 N   0  0  0  0  0  0
  -24.7407  -31.0056   22.0798 N   0  0  0  0  0  0
  -23.4210  -28.8093   23.2968 O   0  0  0  0  0  0
  -28.2150  -25.8903   20.3426 O   0  0  0  0  0  0
  -26.5676  -34.8867   22.4554 O   0  0  0  0  0  0
  -23.5682  -32.1213   23.6867 O   0  0  0  0  0  0
  -30.7287  -21.9822   21.0497 C   0  0  0  0  0  0
  -30.7163  -22.9356   22.1019 C   0  0  0  0  0  0
  -29.4329  -21.7295   20.6977 C   0  0  0  0  0  0
  -29.4933  -23.5549   22.0833 C   0  0  0  0  0  0
  -29.0968  -18.9812   19.4885 C   0  0  0  0  0  0
  -30.1182  -19.0899   21.5381 C   0  0  0  0  0  0
  -29.0088  -17.3057   19.6355 C   0  0  0  0  0  0
  -30.0724  -17.4485   21.7386 C   0  0  0  0  0  0
  -29.0632  -20.0315   20.7275 C   0  0  0  0  0  0
  -31.8466  -23.1537   23.0718 C   0  0  0  0  0  0
  -29.8551  -25.5854   23.6244 C   0  0  0  0  0  0
  -28.1664  -23.8147   24.2154 C   0  0  0  0  0  0
  -27.9236  -24.3180   20.1911 C   0  0  0  0  0  0
  -28.8754  -24.5455   23.0586 C   0  0  0  0  0  0
  -28.8569  -23.1640   20.8990 N   0  0  0  0  0  0
  -29.8171  -16.4435   20.6212 N   0  0  0  0  0  0
  -31.4586  -12.9105   19.1939 H   0  0  0  0  0  0
  -30.4708  -11.8171   20.1013 H   0  0  0  0  0  0
  -29.8790  -11.7045   17.6732 H   0  0  0  0  0  0
  -29.5853  -13.4282   17.6331 H   0  0  0  0  0  0
  -27.9919  -11.2813   19.0437 H   0  0  0  0  0  0
  -27.4033  -12.3913   17.8353 H   0  0  0  0  0  0
  -27.5444  -14.2581   19.3526 H   0  0  0  0  0  0
  -28.7870  -12.4516   21.4792 H   0  0  0  0  0  0
  -28.3083  -14.1163   21.7155 H   0  0  0  0  0  0
  -25.2777   -9.5673   22.4766 H   0  0  0  0  0  0
  -23.9992   -7.4622   22.7469 H   0  0  0  0  0  0
  -21.0827   -8.8789   19.8972 H   0  0  0  0  0  0
  -22.3676  -10.9694   19.6183 H   0  0  0  0  0  0
  -21.1997   -7.6130   23.9710 H   0  0  0  0  0  0
  -21.1500   -6.0506   25.9077 H   0  0  0  0  0  0
  -22.0589   -2.7591   23.2816 H   0  0  0  0  0  0
  -22.3988  -11.9929   22.4935 H   0  0  0  0  0  0
  -21.1005  -13.1258   22.2631 H   0  0  0  0  0  0
  -24.6448  -15.8513   20.5793 H   0  0  0  0  0  0
  -26.2616  -15.6445   20.1203 H   0  0  0  0  0  0
  -26.7362  -32.5226   23.0893 H   0  0  0  0  0  0
  -25.0122  -33.9486   25.0205 H   0  0  0  0  0  0
  -22.7811  -31.2779   21.3476 H   0  0  0  0  0  0
  -23.3747  -35.9514   23.3285 H   0  0  0  0  0  0
  -24.3573  -36.8851   22.2067 H   0  0  0  0  0  0
  -23.7257  -37.6381   23.6704 H   0  0  0  0  0  0
  -26.2085  -31.4138   20.6200 H   0  0  0  0  0  0
  -26.8927  -30.7160   22.0505 H   0  0  0  0  0  0
  -28.1454  -28.6452   21.2750 H   0  0  0  0  0  0
  -25.8737  -25.7308   19.0624 H   0  0  0  0  0  0
  -23.9898  -27.2688   18.9873 H   0  0  0  0  0  0
  -23.8615  -30.5313   19.3787 H   0  0  0  0  0  0
  -22.8197  -29.2210   19.8295 H   0  0  0  0  0  0
  -25.1343  -36.1696   25.0788 H   0  0  0  0  0  0
  -21.0073  -28.3426   24.1266 H   0  0  0  0  0  0
  -20.5671  -26.2412   23.3673 H   0  0  0  0  0  0
  -21.6666  -26.7437   22.1213 H   0  0  0  0  0  0
  -19.6886  -25.6317   21.1298 H   0  0  0  0  0  0
  -19.6682  -27.3174   20.6708 H   0  0  0  0  0  0
  -17.4214  -26.6721   21.4056 H   0  0  0  0  0  0
  -18.0327  -26.0156   22.9064 H   0  0  0  0  0  0
  -19.7990  -30.7386   24.2162 H   0  0  0  0  0  0
  -17.5057  -31.6287   24.5207 H   0  0  0  0  0  0
  -15.5392  -30.3004   23.7732 H   0  0  0  0  0  0
  -15.8710  -28.0878   22.7057 H   0  0  0  0  0  0
  -24.5819  -30.7249   25.7633 H   0  0  0  0  0  0
  -24.8952  -32.3088   26.4674 H   0  0  0  0  0  0
  -25.7916  -30.9059   27.0169 H   0  0  0  0  0  0
  -26.3086  -29.6591   24.1434 H   0  0  0  0  0  0
  -27.3857  -29.7296   25.5153 H   0  0  0  0  0  0
  -27.9070  -30.4029   23.9898 H   0  0  0  0  0  0
  -27.2525  -33.3645   26.2071 H   0  0  0  0  0  0
  -28.3865  -32.7027   25.0384 H   0  0  0  0  0  0
  -28.0659  -31.8561   26.5481 H   0  0  0  0  0  0
  -28.2537  -38.0054   24.7522 H   0  0  0  0  0  0
  -28.1051  -36.2595   24.6245 H   0  0  0  0  0  0
  -27.2264  -37.1345   25.8851 H   0  0  0  0  0  0
  -20.9504  -29.8742   21.6611 H   0  0  0  0  0  0
  -26.0059  -38.2739   24.1491 H   0  0  0  0  0  0
  -31.5583  -21.3035   20.9050 H   0  0  0  0  0  0
  -28.2821  -19.2735   18.8310 H   0  0  0  0  0  0
  -29.9974  -19.1895   18.9108 H   0  0  0  0  0  0
  -31.0961  -19.2559   21.0866 H   0  0  0  0  0  0
  -30.2051  -19.5216   22.5360 H   0  0  0  0  0  0
  -29.1774  -16.8725   18.6465 H   0  0  0  0  0  0
  -27.9689  -17.0689   19.8655 H   0  0  0  0  0  0
  -29.3322  -17.2342   22.5080 H   0  0  0  0  0  0
  -31.0201  -17.1613   22.1989 H   0  0  0  0  0  0
  -28.0943  -19.9236   21.2203 H   0  0  0  0  0  0
  -32.1790  -24.1907   23.0645 H   0  0  0  0  0  0
  -32.6955  -22.5322   22.7911 H   0  0  0  0  0  0
  -31.5511  -22.8916   24.0906 H   0  0  0  0  0  0
  -30.5608  -25.9234   22.8669 H   0  0  0  0  0  0
  -30.4155  -25.1916   24.4747 H   0  0  0  0  0  0
  -29.3079  -26.4630   23.9747 H   0  0  0  0  0  0
  -27.3367  -23.2181   23.8393 H   0  0  0  0  0  0
  -27.7456  -24.5120   24.9394 H   0  0  0  0  0  0
  -28.8471  -23.1459   24.7464 H   0  0  0  0  0  0
  -27.9436  -24.0997   19.1233 H   0  0  0  0  0  0
  -26.8997  -24.1457   20.5278 H   0  0  0  0  0  0
  -28.0900  -25.1149   22.5704 H   0  0  0  0  0  0
  1 25  1  0  0  0
  1 30  2  0  0  0
  1 86  1  0  0  0
  2  3  1  0  0  0
  2 25  1  0  0  0
  2 87  1  0  0  0
  2 88  1  0  0  0
  3  4  1  0  0  0
  3 89  1  0  0  0
  3 90  1  0  0  0
  4  5  1  0  0  0
  4 91  1  0  0  0
  4 92  1  0  0  0
  5  6  1  0  0  0
  5 26  1  0  0  0
  5 93  1  0  0  0
  6 25  1  0  0  0
  6 94  1  0  0  0
  6 95  1  0  0  0
  7  8  2  0  0  0
  7 26  1  0  0  0
  7 29  1  0  0  0
  8  9  1  0  0  0
  8 22  1  0  0  0
  9 10  1  0  0  0
  9 27  2  0  0  0
 10 11  2  0  0  0
 10 15  1  0  0  0
 11 12  1  0  0  0
 11 96  1  0  0  0
 12 13  2  0  0  0
 12 97  1  0  0  0
 13 14  1  0  0  0
 13 31  1  0  0  0
 14 15  2  0  0  0
 14 98  1  0  0  0
 15 99  1  0  0  0
 16 17  2  0  0  0
 16 21  1  0  0  0
 16 31  1  0  0  0
 17 18  1  0  0  0
 17100  1  0  0  0
 18 19  2  0  0  0
 18101  1  0  0  0
 19 20  1  0  0  0
 19 24  1  0  0  0
 20 21  2  0  0  0
 20102  1  0  0  0
 21 23  1  0  0  0
 22 28  1  0  0  0
 22 32  2  0  0  0
 26 27  1  0  0  0
 28103  1  0  0  0
 28104  1  0  0  0
 29105  1  0  0  0
 29106  1  0  0  0
 33 34  1  0  0  0
 33 66  1  0  0  0
 33 70  2  0  0  0
 34 36  1  0  0  0
 34 59  1  0  0  0
 34107  1  0  0  0
 35 44  2  0  0  0
 35 45  1  0  0  0
 35 68  1  0  0  0
 36 56  1  0  0  0
 36108  1  0  0  0
 37 39  1  0  0  0
 37 47  1  0  0  0
 37 66  1  0  0  0
 37109  1  0  0  0
 38 43  2  0  0  0
 38 46  1  0  0  0
 38 47  1  0  0  0
 39 64  1  0  0  0
 39 67  2  0  0  0
 40 52  1  0  0  0
 40 53  2  0  0  0
 40 58  1  0  0  0
 41110  1  0  0  0
 41111  1  0  0  0
 41112  1  0  0  0
 41 48  1  0  0  0
 42 43  1  0  0  0
 42 66  1  0  0  0
 42113  1  0  0  0
 42114  1  0  0  0
 43 44  1  0  0  0
 44115  1  0  0  0
 45 46  2  0  0  0
 45116  1  0  0  0
 46117  1  0  0  0
 47118  1  0  0  0
 47119  1  0  0  0
 48 56  1  0  0  0
 48 65  1  0  0  0
 48120  1  0  0  0
 49 50  1  0  0  0
 49 53  1  0  0  0
 49 64  1  0  0  0
 49121  1  0  0  0
 50 51  1  0  0  0
 50122  1  0  0  0
 50123  1  0  0  0
 51 52  1  0  0  0
 51124  1  0  0  0
 51125  1  0  0  0
 52126  1  0  0  0
 52127  1  0  0  0
 53 54  1  0  0  0
 54 55  2  0  0  0
 54128  1  0  0  0
 55 57  1  0  0  0
 55129  1  0  0  0
 56 69  2  0  0  0
 57 58  2  0  0  0
 57130  1  0  0  0
 58131  1  0  0  0
 59 60  1  0  0  0
 59 61  1  0  0  0
 59 62  1  0  0  0
 60132  1  0  0  0
 60133  1  0  0  0
 60134  1  0  0  0
 61135  1  0  0  0
 61136  1  0  0  0
 61137  1  0  0  0
 62138  1  0  0  0
 62139  1  0  0  0
 62140  1  0  0  0
 63 65  1  0  0  0
 63141  1  0  0  0
 63142  1  0  0  0
 63143  1  0  0  0
 64144  1  0  0  0
 65145  1  0  0  0
 68 83  1  0  0  0
 71 72  1  0  0  0
 71 73  2  0  0  0
 71146  1  0  0  0
 72 74  2  0  0  0
 72 80  1  0  0  0
 73 85  1  0  0  0
 73 79  1  0  0  0
 74 84  1  0  0  0
 74 85  1  0  0  0
 75 77  1  0  0  0
 75 79  1  0  0  0
 75147  1  0  0  0
 75148  1  0  0  0
 76 78  1  0  0  0
 76 79  1  0  0  0
 76149  1  0  0  0
 76150  1  0  0  0
 77 86  1  0  0  0
 77151  1  0  0  0
 77152  1  0  0  0
 78 86  1  0  0  0
 78153  1  0  0  0
 78154  1  0  0  0
 79155  1  0  0  0
 80156  1  0  0  0
 80157  1  0  0  0
 80158  1  0  0  0
 81159  1  0  0  0
 81160  1  0  0  0
 81161  1  0  0  0
 81 84  1  0  0  0
 82 84  1  0  0  0
 82162  1  0  0  0
 82163  1  0  0  0
 82164  1  0  0  0
 83 85  1  0  0  0
 83165  1  0  0  0
 83166  1  0  0  0
 84167  1  0  0  0
M  ISO  4   1 100  68 101  83 101  86 100
M  END
> <chiral flag>
0

> <version>
0

> <s_m_source_file>
/data/baiqing/PycharmProjects/Reinvent-master-3.2/result/LINK_invent/BTK/process_docking_weight1_custom_sum_contain_oxygen_bond_distance_aromatic_linkinvent_7_9_3/rearranged_h_0175.sdf

> <i_m_source_file_index>
70

> <r_mmod_Potential_Energy-OPLS-2005>
1487.478515625

> <r_mmod_Stretch_Energy-OPLS-2005>
481.17138671875

> <r_mmod_Bend_Energy-OPLS-2005>
489.416809082031

> <r_mmod_Torsional_Energy-OPLS-2005>
527.137329101562

> <r_mmod_Improper_Torsional_Energy-OPLS-2005>
14.5974788665771

> <r_mmod_Van_der_Waal_Energy-OPLS-2005>
111.778305053711

> <r_mmod_Electrostatic_Energy-OPLS-2005>
-308.086578369141

> <r_mmod_Solvation_Energy-OPLS-2005>
-198.12223815918

> <b_mmod_Minimization_Converged-OPLS-2005>
0

> <r_mmod_RMS_Derivative-OPLS-2005>
6.02014017105103

$$$$
70
                    3D
 Structure written by MMmdl.
162171  0  0  1  0            999 V2000
  -30.6504  -14.6816   20.5065 C   0  0  0  0  0  0
  -30.4273  -12.4371   19.4422 C   0  0  0  0  0  0
  -29.4944  -12.5194   18.2147 C   0  0  0  0  0  0
  -28.0220  -12.3460   18.6352 C   0  0  0  0  0  0
  -27.6410  -13.2335   19.8496 C   0  0  2  0  0  0
  -28.6885  -13.1380   20.9772 C   0  0  0  0  0  0
  -25.2513  -13.8201   20.5683 C   0  0  0  0  0  0
  -24.1795  -13.0444   20.9187 C   0  0  0  0  0  0
  -24.6397  -11.6928   20.8735 C   0  0  0  0  0  0
  -23.9087  -10.4297   21.0421 C   0  0  0  0  0  0
  -24.3640   -9.4202   21.9197 C   0  0  0  0  0  0
  -23.6301   -8.2236   22.0762 C   0  0  0  0  0  0
  -22.4287   -8.0282   21.3553 C   0  0  0  0  0  0
  -21.9939   -9.0244   20.4642 C   0  0  0  0  0  0
  -22.7270  -10.2119   20.3045 C   0  0  0  0  0  0
  -21.6851   -6.0743   22.5281 C   0  0  0  0  0  0
  -21.3999   -6.5642   23.8210 C   0  0  0  0  0  0
  -21.3653   -5.6795   24.9176 C   0  0  0  0  0  0
  -21.6048   -4.3063   24.7219 C   0  0  0  0  0  0
  -21.8810   -3.8156   23.4333 C   0  0  0  0  0  0
  -21.9184   -4.6973   22.3398 C   0  0  0  0  0  0
  -22.7814  -13.5220   21.1855 C   0  0  0  0  0  0
  -22.1668   -4.2168   21.0982 F   0  0  0  0  0  0
  -21.5636   -3.4557   25.7727 F   0  0  0  0  0  0
  -29.9900  -13.4843   20.3917 N   0  0  0  0  0  0
  -26.2927  -12.9406   20.3275 N   0  0  0  0  0  0
  -25.9320  -11.6537   20.5740 N   0  0  0  0  0  0
  -22.0465  -12.8160   22.0379 N   0  0  0  0  0  0
  -25.4192  -15.1916   20.4096 N   0  0  0  0  0  0
  -31.8412  -14.7626   20.1938 O   0  0  0  0  0  0
  -21.6643   -6.8889   21.4250 O   0  0  0  0  0  0
  -22.3488  -14.5549   20.6770 O   0  0  0  0  0  0
  -24.6238  -31.8582   23.1978 C   0  0  0  0  0  0
  -25.9062  -32.4781   23.8321 C   0  0  1  0  0  0
  -27.2338  -27.3092   20.1342 C   0  0  0  0  0  0
  -25.5872  -33.8572   24.2261 N   0  0  0  0  0  0
  -23.4175  -30.4736   21.5430 C   0  0  2  0  0  0
  -24.8694  -28.9137   20.1193 C   0  0  0  0  0  0
  -22.7426  -29.4616   22.4999 C   0  0  0  0  0  0
  -18.0257  -28.1384   22.8519 C   0  0  0  0  0  0
  -24.1449  -36.7263   23.2641 C   0  0  0  0  0  0
  -25.9555  -30.7873   21.3627 C   0  0  0  0  0  0
  -26.0363  -29.4064   20.7184 C   0  0  0  0  0  0
  -27.2241  -28.6170   20.7113 C   0  0  0  0  0  0
  -26.0476  -26.8622   19.5180 C   0  0  0  0  0  0
  -24.8772  -27.6486   19.5095 C   0  0  0  0  0  0
  -23.6283  -29.7855   20.1661 C   0  0  0  0  0  0
  -25.4088  -36.3098   24.0347 C   0  0  1  0  0  0
  -20.5855  -28.3687   23.1300 C   0  0  2  0  0  0
  -20.6768  -26.9419   22.5413 C   0  0  0  0  0  0
  -19.5738  -26.6409   21.5215 C   0  0  0  0  0  0
  -18.1899  -26.7944   22.1607 C   0  0  0  0  0  0
  -19.1512  -28.8855   23.2910 C   0  0  0  0  0  0
  -18.9435  -30.1456   23.8934 C   0  0  0  0  0  0
  -17.6438  -30.6601   24.0573 C   0  0  0  0  0  0
  -25.9038  -34.9461   23.5119 C   0  0  0  0  0  0
  -16.5328  -29.9102   23.6366 C   0  0  0  0  0  0
  -16.7240  -28.6507   23.0409 C   0  0  0  0  0  0
  -26.4492  -31.6584   25.0669 C   0  0  0  0  0  0
  -25.3728  -31.3618   26.1362 C   0  0  0  0  0  0
  -27.0393  -30.3048   24.6089 C   0  0  0  0  0  0
  -27.6050  -32.4334   25.7447 C   0  0  0  0  0  0
  -27.5586  -37.1753   24.8450 C   0  0  0  0  0  0
  -21.4144  -29.3023   22.3698 N   0  0  0  0  0  0
  -26.4251  -37.3805   23.9452 N   0  0  0  0  0  0
  -24.6850  -31.0550   22.0936 N   0  0  0  0  0  0
  -23.4137  -28.8179   23.3110 O   0  0  0  0  0  0
  -28.3617  -26.4790   20.1002 O   0  0  0  0  0  0
  -26.5639  -34.8950   22.4707 O   0  0  0  0  0  0
  -23.5394  -32.1379   23.7292 O   0  0  0  0  0  0
  -29.9469  -20.9943   21.6871 C   0  0  0  0  0  0
  -29.3650  -21.3665   20.4541 C   0  0  0  0  0  0
  -30.2902  -19.6419   21.9708 C   0  0  0  0  0  0
  -29.0690  -20.2497   19.6041 C   0  0  0  0  0  0
  -29.9854  -18.5904   21.0563 C   0  0  0  0  0  0
  -30.4015  -23.8200   20.5096 C   0  0  0  0  0  0
  -29.7916  -24.9377   21.3867 C   0  0  0  0  0  0
  -27.9790  -23.7933   20.2976 C   0  0  0  0  0  0
  -29.2589  -22.9039   20.0146 C   0  0  2  0  0  0
  -28.3658  -25.2201   20.8852 C   0  0  2  0  0  0
  -31.0500  -19.3679   23.2626 C   0  0  0  0  0  0
  -28.4604  -20.4627   18.2288 C   0  0  0  0  0  0
  -30.5481  -17.1174   21.2989 C   0  0  0  0  0  0
  -29.3546  -18.9310   19.8990 N   0  0  0  0  0  0
  -29.9390  -15.8207   20.8163 N   0  0  0  0  0  0
  -31.4657  -12.5669   19.1298 H   0  0  0  0  0  0
  -30.3749  -11.4504   19.9036 H   0  0  0  0  0  0
  -29.7636  -11.7657   17.4748 H   0  0  0  0  0  0
  -29.6205  -13.4846   17.7225 H   0  0  0  0  0  0
  -27.8666  -11.2947   18.8782 H   0  0  0  0  0  0
  -27.3643  -12.5597   17.7915 H   0  0  0  0  0  0
  -27.6447  -14.2629   19.4857 H   0  0  0  0  0  0
  -28.7128  -12.1289   21.3909 H   0  0  0  0  0  0
  -28.4342  -13.8036   21.8037 H   0  0  0  0  0  0
  -25.2777   -9.5668   22.4776 H   0  0  0  0  0  0
  -24.0007   -7.4621   22.7482 H   0  0  0  0  0  0
  -21.0874   -8.8743   19.8928 H   0  0  0  0  0  0
  -22.3749  -10.9649   19.6138 H   0  0  0  0  0  0
  -21.1978   -7.6139   23.9726 H   0  0  0  0  0  0
  -21.1495   -6.0531   25.9088 H   0  0  0  0  0  0
  -22.0592   -2.7616   23.2835 H   0  0  0  0  0  0
  -22.4105  -11.9791   22.4696 H   0  0  0  0  0  0
  -21.1060  -13.1119   22.2598 H   0  0  0  0  0  0
  -24.6476  -15.8435   20.5136 H   0  0  0  0  0  0
  -26.2622  -15.6323   20.0658 H   0  0  0  0  0  0
  -26.7114  -32.5476   23.1060 H   0  0  0  0  0  0
  -25.0021  -33.9741   25.0409 H   0  0  0  0  0  0
  -22.7119  -31.2922   21.3859 H   0  0  0  0  0  0
  -23.3790  -35.9507   23.3219 H   0  0  0  0  0  0
  -24.3573  -36.8963   22.2074 H   0  0  0  0  0  0
  -23.7063  -37.6387   23.6704 H   0  0  0  0  0  0
  -26.0643  -31.5392   20.5807 H   0  0  0  0  0  0
  -26.8470  -30.8585   21.9748 H   0  0  0  0  0  0
  -28.1305  -28.9966   21.1625 H   0  0  0  0  0  0
  -26.0270  -25.8937   19.0412 H   0  0  0  0  0  0
  -23.9817  -27.2672   19.0385 H   0  0  0  0  0  0
  -23.7190  -30.5477   19.3913 H   0  0  0  0  0  0
  -22.7566  -29.1903   19.8853 H   0  0  0  0  0  0
  -25.1237  -36.1961   25.0836 H   0  0  0  0  0  0
  -20.9927  -28.3255   24.1428 H   0  0  0  0  0  0
  -20.5700  -26.2288   23.3599 H   0  0  0  0  0  0
  -21.6633  -26.7495   22.1137 H   0  0  0  0  0  0
  -19.6916  -25.6341   21.1199 H   0  0  0  0  0  0
  -19.6668  -27.3269   20.6775 H   0  0  0  0  0  0
  -17.4176  -26.6736   21.3989 H   0  0  0  0  0  0
  -18.0280  -26.0046   22.8949 H   0  0  0  0  0  0
  -19.7914  -30.7277   24.2295 H   0  0  0  0  0  0
  -17.4989  -31.6303   24.5131 H   0  0  0  0  0  0
  -15.5334  -30.3007   23.7712 H   0  0  0  0  0  0
  -15.8621  -28.0816   22.7169 H   0  0  0  0  0  0
  -24.5978  -30.6919   25.7598 H   0  0  0  0  0  0
  -24.8840  -32.2732   26.4824 H   0  0  0  0  0  0
  -25.8054  -30.8744   27.0113 H   0  0  0  0  0  0
  -26.2963  -29.6727   24.1206 H   0  0  0  0  0  0
  -27.4245  -29.7348   25.4557 H   0  0  0  0  0  0
  -27.8740  -30.4381   23.9195 H   0  0  0  0  0  0
  -27.2691  -33.3708   26.1893 H   0  0  0  0  0  0
  -28.3942  -32.6768   25.0314 H   0  0  0  0  0  0
  -28.0622  -31.8521   26.5471 H   0  0  0  0  0  0
  -28.2469  -38.0181   24.7748 H   0  0  0  0  0  0
  -28.1225  -36.2749   24.5977 H   0  0  0  0  0  0
  -27.2344  -37.0991   25.8842 H   0  0  0  0  0  0
  -20.9338  -29.8712   21.6865 H   0  0  0  0  0  0
  -26.0148  -38.2854   24.1604 H   0  0  0  0  0  0
  -30.2120  -21.7626   22.3986 H   0  0  0  0  0  0
  -31.2117  -23.2926   21.0116 H   0  0  0  0  0  0
  -30.8612  -24.2919   19.6390 H   0  0  0  0  0  0
  -30.4135  -25.8348   21.4006 H   0  0  0  0  0  0
  -29.7373  -24.5850   22.4167 H   0  0  0  0  0  0
  -27.3812  -23.2885   21.0570 H   0  0  0  0  0  0
  -27.3389  -23.8719   19.4193 H   0  0  0  0  0  0
  -29.3806  -22.8947   18.9314 H   0  0  0  0  0  0
  -27.7331  -25.4131   21.7554 H   0  0  0  0  0  0
  -31.3557  -20.2931   23.7544 H   0  0  0  0  0  0
  -31.9620  -18.8006   23.0752 H   0  0  0  0  0  0
  -30.4266  -18.8070   23.9593 H   0  0  0  0  0  0
  -27.8047  -21.3328   18.2034 H   0  0  0  0  0  0
  -27.8638  -19.6025   17.9272 H   0  0  0  0  0  0
  -29.2488  -20.6073   17.4887 H   0  0  0  0  0  0
  -30.5899  -16.9641   22.3779 H   0  0  0  0  0  0
  -31.5929  -17.1488   20.9871 H   0  0  0  0  0  0
  -28.9405  -15.7372   20.9184 H   0  0  0  0  0  0
  1 25  1  0  0  0
  1 30  2  0  0  0
  1 85  1  0  0  0
  2  3  1  0  0  0
  2 25  1  0  0  0
  2 86  1  0  0  0
  2 87  1  0  0  0
  3  4  1  0  0  0
  3 88  1  0  0  0
  3 89  1  0  0  0
  4  5  1  0  0  0
  4 90  1  0  0  0
  4 91  1  0  0  0
  5  6  1  0  0  0
  5 26  1  0  0  0
  5 92  1  0  0  0
  6 25  1  0  0  0
  6 93  1  0  0  0
  6 94  1  0  0  0
  7  8  2  0  0  0
  7 26  1  0  0  0
  7 29  1  0  0  0
  8  9  1  0  0  0
  8 22  1  0  0  0
  9 10  1  0  0  0
  9 27  2  0  0  0
 10 11  2  0  0  0
 10 15  1  0  0  0
 11 12  1  0  0  0
 11 95  1  0  0  0
 12 13  2  0  0  0
 12 96  1  0  0  0
 13 14  1  0  0  0
 13 31  1  0  0  0
 14 15  2  0  0  0
 14 97  1  0  0  0
 15 98  1  0  0  0
 16 17  2  0  0  0
 16 21  1  0  0  0
 16 31  1  0  0  0
 17 18  1  0  0  0
 17 99  1  0  0  0
 18 19  2  0  0  0
 18100  1  0  0  0
 19 20  1  0  0  0
 19 24  1  0  0  0
 20 21  2  0  0  0
 20101  1  0  0  0
 21 23  1  0  0  0
 22 28  1  0  0  0
 22 32  2  0  0  0
 26 27  1  0  0  0
 28102  1  0  0  0
 28103  1  0  0  0
 29104  1  0  0  0
 29105  1  0  0  0
 33 34  1  0  0  0
 33 66  1  0  0  0
 33 70  2  0  0  0
 34 36  1  0  0  0
 34 59  1  0  0  0
 34106  1  0  0  0
 35 44  2  0  0  0
 35 45  1  0  0  0
 35 68  1  0  0  0
 36 56  1  0  0  0
 36107  1  0  0  0
 37 39  1  0  0  0
 37 47  1  0  0  0
 37 66  1  0  0  0
 37108  1  0  0  0
 38 43  2  0  0  0
 38 46  1  0  0  0
 38 47  1  0  0  0
 39 64  1  0  0  0
 39 67  2  0  0  0
 40 52  1  0  0  0
 40 53  2  0  0  0
 40 58  1  0  0  0
 41109  1  0  0  0
 41110  1  0  0  0
 41111  1  0  0  0
 41 48  1  0  0  0
 42 43  1  0  0  0
 42 66  1  0  0  0
 42112  1  0  0  0
 42113  1  0  0  0
 43 44  1  0  0  0
 44114  1  0  0  0
 45 46  2  0  0  0
 45115  1  0  0  0
 46116  1  0  0  0
 47117  1  0  0  0
 47118  1  0  0  0
 48 56  1  0  0  0
 48 65  1  0  0  0
 48119  1  0  0  0
 49 50  1  0  0  0
 49 53  1  0  0  0
 49 64  1  0  0  0
 49120  1  0  0  0
 50 51  1  0  0  0
 50121  1  0  0  0
 50122  1  0  0  0
 51 52  1  0  0  0
 51123  1  0  0  0
 51124  1  0  0  0
 52125  1  0  0  0
 52126  1  0  0  0
 53 54  1  0  0  0
 54 55  2  0  0  0
 54127  1  0  0  0
 55 57  1  0  0  0
 55128  1  0  0  0
 56 69  2  0  0  0
 57 58  2  0  0  0
 57129  1  0  0  0
 58130  1  0  0  0
 59 60  1  0  0  0
 59 61  1  0  0  0
 59 62  1  0  0  0
 60131  1  0  0  0
 60132  1  0  0  0
 60133  1  0  0  0
 61134  1  0  0  0
 61135  1  0  0  0
 61136  1  0  0  0
 62137  1  0  0  0
 62138  1  0  0  0
 62139  1  0  0  0
 63 65  1  0  0  0
 63140  1  0  0  0
 63141  1  0  0  0
 63142  1  0  0  0
 64143  1  0  0  0
 65144  1  0  0  0
 68 80  1  0  0  0
 71 72  2  0  0  0
 71 73  1  0  0  0
 71145  1  0  0  0
 72 74  1  0  0  0
 72 79  1  0  0  0
 73 75  2  0  0  0
 73 81  1  0  0  0
 74 82  1  0  0  0
 74 84  2  0  0  0
 75 83  1  0  0  0
 75 84  1  0  0  0
 76 77  1  0  0  0
 76 79  1  0  0  0
 76146  1  0  0  0
 76147  1  0  0  0
 77 80  1  0  0  0
 77148  1  0  0  0
 77149  1  0  0  0
 78 79  1  0  0  0
 78 80  1  0  0  0
 78150  1  0  0  0
 78151  1  0  0  0
 79152  1  0  0  0
 80153  1  0  0  0
 81154  1  0  0  0
 81155  1  0  0  0
 81156  1  0  0  0
 82157  1  0  0  0
 82158  1  0  0  0
 82159  1  0  0  0
 83 85  1  0  0  0
 83160  1  0  0  0
 83161  1  0  0  0
 85162  1  0  0  0
M  ISO  4   1 100  68 101  80 101  85 100
M  END
> <chiral flag>
0

> <version>
0

> <s_m_source_file>
/data/baiqing/PycharmProjects/Reinvent-master-3.2/result/LINK_invent/BTK/process_docking_weight1_custom_sum_contain_oxygen_bond_distance_aromatic_linkinvent_7_9_3/rearranged_h_0175.sdf

> <i_m_source_file_index>
71

> <r_mmod_Potential_Energy-OPLS-2005>
-68.3376541137695

> <r_mmod_Stretch_Energy-OPLS-2005>
93.8055801391602

> <r_mmod_Bend_Energy-OPLS-2005>
194.232162475586

> <r_mmod_Torsional_Energy-OPLS-2005>
298.449676513672

> <r_mmod_Improper_Torsional_Energy-OPLS-2005>
5.51860094070435

> <r_mmod_Van_der_Waal_Energy-OPLS-2005>
138.524307250977

> <r_mmod_Electrostatic_Energy-OPLS-2005>
-635.903015136719

> <r_mmod_Solvation_Energy-OPLS-2005>
-220.263107299805

> <b_mmod_Minimization_Converged-OPLS-2005>
0

> <r_mmod_RMS_Derivative-OPLS-2005>
3.83745455741882

$$$$
71
                    3D
 Structure written by MMmdl.
159168  0  0  1  0            999 V2000
  -30.5390  -15.0599   20.3060 C   0  0  0  0  0  0
  -30.4438  -12.6252   19.5028 C   0  0  0  0  0  0
  -29.5101  -12.3693   18.2904 C   0  0  0  0  0  0
  -28.0434  -12.2293   18.7138 C   0  0  0  0  0  0
  -27.6133  -13.2476   19.7980 C   0  0  2  0  0  0
  -28.6633  -13.3937   20.9119 C   0  0  0  0  0  0
  -25.2448  -13.8251   20.5729 C   0  0  0  0  0  0
  -24.1762  -13.0476   20.9260 C   0  0  0  0  0  0
  -24.6368  -11.6958   20.8801 C   0  0  0  0  0  0
  -23.9065  -10.4315   21.0435 C   0  0  0  0  0  0
  -24.3622   -9.4220   21.9198 C   0  0  0  0  0  0
  -23.6303   -8.2248   22.0755 C   0  0  0  0  0  0
  -22.4285   -8.0284   21.3545 C   0  0  0  0  0  0
  -21.9922   -9.0262   20.4650 C   0  0  0  0  0  0
  -22.7245  -10.2148   20.3074 C   0  0  0  0  0  0
  -21.6856   -6.0737   22.5276 C   0  0  0  0  0  0
  -21.4014   -6.5641   23.8209 C   0  0  0  0  0  0
  -21.3659   -5.6794   24.9171 C   0  0  0  0  0  0
  -21.6044   -4.3057   24.7223 C   0  0  0  0  0  0
  -21.8818   -3.8148   23.4344 C   0  0  0  0  0  0
  -21.9195   -4.6964   22.3401 C   0  0  0  0  0  0
  -22.7782  -13.5239   21.1902 C   0  0  0  0  0  0
  -22.1666   -4.2149   21.0979 F   0  0  0  0  0  0
  -21.5631   -3.4542   25.7737 F   0  0  0  0  0  0
  -29.9275  -13.7938   20.2758 N   0  0  0  0  0  0
  -26.2836  -12.9478   20.3191 N   0  0  0  0  0  0
  -25.9292  -11.6620   20.5803 N   0  0  0  0  0  0
  -22.0441  -12.8212   22.0451 N   0  0  0  0  0  0
  -25.4162  -15.1970   20.4147 N   0  0  0  0  0  0
  -31.7771  -15.0473   20.3212 O   0  0  0  0  0  0
  -21.6649   -6.8880   21.4237 O   0  0  0  0  0  0
  -22.3463  -14.5539   20.6743 O   0  0  0  0  0  0
  -24.6464  -31.8402   23.1843 C   0  0  0  0  0  0
  -25.9220  -32.4676   23.8246 C   0  0  1  0  0  0
  -27.2146  -27.0970   20.1774 C   0  0  0  0  0  0
  -25.5954  -33.8481   24.2166 N   0  0  0  0  0  0
  -23.4518  -30.4570   21.5307 C   0  0  2  0  0  0
  -24.9015  -28.8711   20.1163 C   0  0  0  0  0  0
  -22.7579  -29.4526   22.4852 C   0  0  0  0  0  0
  -18.0304  -28.1403   22.8481 C   0  0  0  0  0  0
  -24.1485  -36.7235   23.2646 C   0  0  0  0  0  0
  -26.0087  -30.7045   21.3855 C   0  0  0  0  0  0
  -26.0801  -29.3090   20.7344 C   0  0  0  0  0  0
  -27.2395  -28.4409   20.7400 C   0  0  0  0  0  0
  -26.0112  -26.7640   19.5216 C   0  0  0  0  0  0
  -24.8817  -27.6135   19.4920 C   0  0  0  0  0  0
  -23.6806  -29.7794   20.1527 C   0  0  0  0  0  0
  -25.4121  -36.3016   24.0315 C   0  0  1  0  0  0
  -20.5920  -28.3724   23.1234 C   0  0  2  0  0  0
  -20.6786  -26.9425   22.5405 C   0  0  0  0  0  0
  -19.5760  -26.6389   21.5212 C   0  0  0  0  0  0
  -18.1942  -26.7944   22.1625 C   0  0  0  0  0  0
  -19.1564  -28.8883   23.2850 C   0  0  0  0  0  0
  -18.9480  -30.1478   23.8875 C   0  0  0  0  0  0
  -17.6478  -30.6599   24.0562 C   0  0  0  0  0  0
  -25.9076  -34.9397   23.5052 C   0  0  0  0  0  0
  -16.5365  -29.9092   23.6343 C   0  0  0  0  0  0
  -16.7290  -28.6509   23.0365 C   0  0  0  0  0  0
  -26.4537  -31.6559   25.0701 C   0  0  0  0  0  0
  -25.3718  -31.3751   26.1392 C   0  0  0  0  0  0
  -27.0409  -30.2957   24.6293 C   0  0  0  0  0  0
  -27.6061  -32.4332   25.7490 C   0  0  0  0  0  0
  -27.5568  -37.1772   24.8470 C   0  0  0  0  0  0
  -21.4268  -29.3043   22.3602 N   0  0  0  0  0  0
  -26.4277  -37.3737   23.9416 N   0  0  0  0  0  0
  -24.7227  -31.0230   22.0889 N   0  0  0  0  0  0
  -23.4207  -28.8085   23.3024 O   0  0  0  0  0  0
  -28.2718  -26.1073   20.1942 O   0  0  0  0  0  0
  -26.5667  -34.8904   22.4634 O   0  0  0  0  0  0
  -23.5575  -32.1287   23.7048 O   0  0  0  0  0  0
  -29.3146  -18.4616   18.6965 C   0  0  0  0  0  0
  -29.4805  -17.5514   17.6382 C   0  0  0  0  0  0
  -29.6185  -17.8283   19.8553 C   0  0  0  0  0  0
  -29.9977  -16.3945   18.1717 C   0  0  0  0  0  0
  -29.5036  -18.9696   20.8894 C   0  0  0  0  0  0
  -29.1331  -20.3705   20.1938 C   0  0  0  0  0  0
  -29.0095  -21.7118   20.6844 C   0  0  0  0  0  0
  -28.9795  -19.9511   18.7350 C   0  0  0  0  0  0
  -29.2771  -17.8661   16.1767 C   0  0  0  0  0  0
  -30.6548  -15.3818   17.2779 C   0  0  0  0  0  0
  -30.2534  -23.6514   19.5552 C   0  0  0  0  0  0
  -28.0650  -24.5924   20.5789 C   0  0  0  0  0  0
  -28.8401  -23.2044   19.9514 C   0  0  2  0  0  0
  -29.9498  -16.3739   19.6003 N   0  0  0  0  0  0
  -29.6974  -18.8064   22.0967 O   0  0  0  0  0  0
  -31.4676  -12.7886   19.1637 H   0  0  0  0  0  0
  -30.4870  -11.7430   20.1434 H   0  0  0  0  0  0
  -29.8264  -11.4625   17.7734 H   0  0  0  0  0  0
  -29.5644  -13.1450   17.5456 H   0  0  0  0  0  0
  -27.9336  -11.2155   19.1000 H   0  0  0  0  0  0
  -27.3855  -12.2926   17.8460 H   0  0  0  0  0  0
  -27.5469  -14.2105   19.2895 H   0  0  0  0  0  0
  -28.7753  -12.4667   21.4768 H   0  0  0  0  0  0
  -28.3514  -14.1584   21.6253 H   0  0  0  0  0  0
  -25.2763   -9.5698   22.4778 H   0  0  0  0  0  0
  -24.0016   -7.4634   22.7466 H   0  0  0  0  0  0
  -21.0859   -8.8780   19.8949 H   0  0  0  0  0  0
  -22.3700  -10.9691   19.6190 H   0  0  0  0  0  0
  -21.2005   -7.6148   23.9711 H   0  0  0  0  0  0
  -21.1482   -6.0525   25.9074 H   0  0  0  0  0  0
  -22.0597   -2.7610   23.2845 H   0  0  0  0  0  0
  -22.4082  -11.9881   22.4833 H   0  0  0  0  0  0
  -21.1052  -13.1209   22.2660 H   0  0  0  0  0  0
  -24.6529  -15.8546   20.5309 H   0  0  0  0  0  0
  -26.2719  -15.6348   20.0968 H   0  0  0  0  0  0
  -26.7285  -32.5273   23.0971 H   0  0  0  0  0  0
  -25.0078  -33.9589   25.0299 H   0  0  0  0  0  0
  -22.7561  -31.2834   21.3717 H   0  0  0  0  0  0
  -23.3757  -35.9555   23.3295 H   0  0  0  0  0  0
  -24.3568  -36.8882   22.2061 H   0  0  0  0  0  0
  -23.7229  -37.6422   23.6693 H   0  0  0  0  0  0
  -26.1639  -31.4537   20.6080 H   0  0  0  0  0  0
  -26.8795  -30.7606   22.0271 H   0  0  0  0  0  0
  -28.1415  -28.7769   21.2321 H   0  0  0  0  0  0
  -25.9289  -25.8014   19.0377 H   0  0  0  0  0  0
  -23.9833  -27.2737   18.9950 H   0  0  0  0  0  0
  -23.8216  -30.5500   19.3941 H   0  0  0  0  0  0
  -22.7944  -29.2228   19.8421 H   0  0  0  0  0  0
  -25.1312  -36.1829   25.0806 H   0  0  0  0  0  0
  -21.0011  -28.3311   24.1356 H   0  0  0  0  0  0
  -20.5674  -26.2336   23.3625 H   0  0  0  0  0  0
  -21.6651  -26.7428   22.1204 H   0  0  0  0  0  0
  -19.6918  -25.6296   21.1254 H   0  0  0  0  0  0
  -19.6698  -27.3190   20.6735 H   0  0  0  0  0  0
  -17.4210  -26.6689   21.4029 H   0  0  0  0  0  0
  -18.0339  -26.0094   22.9029 H   0  0  0  0  0  0
  -19.7954  -30.7302   24.2234 H   0  0  0  0  0  0
  -17.5029  -31.6277   24.5166 H   0  0  0  0  0  0
  -15.5364  -30.2986   23.7686 H   0  0  0  0  0  0
  -15.8688  -28.0820   22.7098 H   0  0  0  0  0  0
  -24.5912  -30.7082   25.7714 H   0  0  0  0  0  0
  -24.8890  -32.2932   26.4749 H   0  0  0  0  0  0
  -25.8002  -30.8975   27.0212 H   0  0  0  0  0  0
  -26.3031  -29.6671   24.1295 H   0  0  0  0  0  0
  -27.4019  -29.7266   25.4870 H   0  0  0  0  0  0
  -27.8940  -30.4199   23.9619 H   0  0  0  0  0  0
  -27.2655  -33.3661   26.1994 H   0  0  0  0  0  0
  -28.3913  -32.6843   25.0347 H   0  0  0  0  0  0
  -28.0682  -31.8503   26.5467 H   0  0  0  0  0  0
  -28.2582  -38.0072   24.7519 H   0  0  0  0  0  0
  -28.1067  -36.2602   24.6295 H   0  0  0  0  0  0
  -27.2287  -37.1416   25.8874 H   0  0  0  0  0  0
  -20.9484  -29.8738   21.6762 H   0  0  0  0  0  0
  -26.0134  -38.2798   24.1436 H   0  0  0  0  0  0
  -29.1717  -21.8068   21.7486 H   0  0  0  0  0  0
  -27.9581  -20.1224   18.3944 H   0  0  0  0  0  0
  -29.6618  -20.5163   18.0994 H   0  0  0  0  0  0
  -28.6482  -18.7479   16.0519 H   0  0  0  0  0  0
  -28.7904  -17.0347   15.6660 H   0  0  0  0  0  0
  -30.2336  -18.0583   15.6902 H   0  0  0  0  0  0
  -31.4054  -15.8795   16.6632 H   0  0  0  0  0  0
  -29.9375  -14.9589   16.5756 H   0  0  0  0  0  0
  -31.1969  -14.5929   17.7861 H   0  0  0  0  0  0
  -30.7819  -22.8687   19.0099 H   0  0  0  0  0  0
  -30.8468  -23.9055   20.4342 H   0  0  0  0  0  0
  -30.2217  -24.5314   18.9118 H   0  0  0  0  0  0
  -28.2884  -24.5808   21.6458 H   0  0  0  0  0  0
  -26.9951  -24.3888   20.5422 H   0  0  0  0  0  0
  -28.3272  -22.9862   19.0138 H   0  0  0  0  0  0
  1 25  1  0  0  0
  1 30  2  0  0  0
  1 84  1  0  0  0
  2  3  1  0  0  0
  2 25  1  0  0  0
  2 86  1  0  0  0
  2 87  1  0  0  0
  3  4  1  0  0  0
  3 88  1  0  0  0
  3 89  1  0  0  0
  4  5  1  0  0  0
  4 90  1  0  0  0
  4 91  1  0  0  0
  5  6  1  0  0  0
  5 26  1  0  0  0
  5 92  1  0  0  0
  6 25  1  0  0  0
  6 93  1  0  0  0
  6 94  1  0  0  0
  7  8  2  0  0  0
  7 26  1  0  0  0
  7 29  1  0  0  0
  8  9  1  0  0  0
  8 22  1  0  0  0
  9 10  1  0  0  0
  9 27  2  0  0  0
 10 11  2  0  0  0
 10 15  1  0  0  0
 11 12  1  0  0  0
 11 95  1  0  0  0
 12 13  2  0  0  0
 12 96  1  0  0  0
 13 14  1  0  0  0
 13 31  1  0  0  0
 14 15  2  0  0  0
 14 97  1  0  0  0
 15 98  1  0  0  0
 16 17  2  0  0  0
 16 21  1  0  0  0
 16 31  1  0  0  0
 17 18  1  0  0  0
 17 99  1  0  0  0
 18 19  2  0  0  0
 18100  1  0  0  0
 19 20  1  0  0  0
 19 24  1  0  0  0
 20 21  2  0  0  0
 20101  1  0  0  0
 21 23  1  0  0  0
 22 28  1  0  0  0
 22 32  2  0  0  0
 26 27  1  0  0  0
 28102  1  0  0  0
 28103  1  0  0  0
 29104  1  0  0  0
 29105  1  0  0  0
 33 34  1  0  0  0
 33 66  1  0  0  0
 33 70  2  0  0  0
 34 36  1  0  0  0
 34 59  1  0  0  0
 34106  1  0  0  0
 35 44  2  0  0  0
 35 45  1  0  0  0
 35 68  1  0  0  0
 36 56  1  0  0  0
 36107  1  0  0  0
 37 39  1  0  0  0
 37 47  1  0  0  0
 37 66  1  0  0  0
 37108  1  0  0  0
 38 43  2  0  0  0
 38 46  1  0  0  0
 38 47  1  0  0  0
 39 64  1  0  0  0
 39 67  2  0  0  0
 40 52  1  0  0  0
 40 53  2  0  0  0
 40 58  1  0  0  0
 41109  1  0  0  0
 41110  1  0  0  0
 41111  1  0  0  0
 41 48  1  0  0  0
 42 43  1  0  0  0
 42 66  1  0  0  0
 42112  1  0  0  0
 42113  1  0  0  0
 43 44  1  0  0  0
 44114  1  0  0  0
 45 46  2  0  0  0
 45115  1  0  0  0
 46116  1  0  0  0
 47117  1  0  0  0
 47118  1  0  0  0
 48 56  1  0  0  0
 48 65  1  0  0  0
 48119  1  0  0  0
 49 50  1  0  0  0
 49 53  1  0  0  0
 49 64  1  0  0  0
 49120  1  0  0  0
 50 51  1  0  0  0
 50121  1  0  0  0
 50122  1  0  0  0
 51 52  1  0  0  0
 51123  1  0  0  0
 51124  1  0  0  0
 52125  1  0  0  0
 52126  1  0  0  0
 53 54  1  0  0  0
 54 55  2  0  0  0
 54127  1  0  0  0
 55 57  1  0  0  0
 55128  1  0  0  0
 56 69  2  0  0  0
 57 58  2  0  0  0
 57129  1  0  0  0
 58130  1  0  0  0
 59 60  1  0  0  0
 59 61  1  0  0  0
 59 62  1  0  0  0
 60131  1  0  0  0
 60132  1  0  0  0
 60133  1  0  0  0
 61134  1  0  0  0
 61135  1  0  0  0
 61136  1  0  0  0
 62137  1  0  0  0
 62138  1  0  0  0
 62139  1  0  0  0
 63 65  1  0  0  0
 63140  1  0  0  0
 63141  1  0  0  0
 63142  1  0  0  0
 64143  1  0  0  0
 65144  1  0  0  0
 68 82  1  0  0  0
 71 72  1  0  0  0
 71 73  2  0  0  0
 71 78  1  0  0  0
 72 74  2  0  0  0
 72 79  1  0  0  0
 73 75  1  0  0  0
 73 84  1  0  0  0
 74 80  1  0  0  0
 74 84  1  0  0  0
 75 76  1  0  0  0
 75 85  2  0  0  0
 76 77  2  0  0  0
 76 78  1  0  0  0
 77 83  1  0  0  0
 77145  1  0  0  0
 78146  1  0  0  0
 78147  1  0  0  0
 79148  1  0  0  0
 79149  1  0  0  0
 79150  1  0  0  0
 80151  1  0  0  0
 80152  1  0  0  0
 80153  1  0  0  0
 81154  1  0  0  0
 81155  1  0  0  0
 81156  1  0  0  0
 81 83  1  0  0  0
 82 83  1  0  0  0
 82157  1  0  0  0
 82158  1  0  0  0
 83159  1  0  0  0
M  ISO  4   1 100  68 101  82 101  84 100
M  END
> <chiral flag>
0

> <version>
0

> <s_m_source_file>
/data/baiqing/PycharmProjects/Reinvent-master-3.2/result/LINK_invent/BTK/process_docking_weight1_custom_sum_contain_oxygen_bond_distance_aromatic_linkinvent_7_9_3/rearranged_h_0175.sdf

> <i_m_source_file_index>
72

> <r_mmod_Potential_Energy-OPLS-2005>
1014.89086914062

> <r_mmod_Stretch_Energy-OPLS-2005>
321.295227050781

> <r_mmod_Bend_Energy-OPLS-2005>
452.303466796875

> <r_mmod_Torsional_Energy-OPLS-2005>
303.837249755859

> <r_mmod_Improper_Torsional_Energy-OPLS-2005>
29.6926250457764

> <r_mmod_Van_der_Waal_Energy-OPLS-2005>
105.83325958252

> <r_mmod_Electrostatic_Energy-OPLS-2005>
-267.954711914062

> <r_mmod_Solvation_Energy-OPLS-2005>
-199.63330078125

> <b_mmod_Minimization_Converged-OPLS-2005>
0

> <r_mmod_RMS_Derivative-OPLS-2005>
0.441129297018051

$$$$
72
                    3D
 Structure written by MMmdl.
170179  0  0  1  0            999 V2000
  -30.7705  -14.4111   20.6240 C   0  0  0  0  0  0
  -30.4072  -12.2935   19.4166 C   0  0  0  0  0  0
  -29.4848  -12.5055   18.2019 C   0  0  0  0  0  0
  -28.0093  -12.3585   18.6164 C   0  0  0  0  0  0
  -27.6574  -13.2020   19.8684 C   0  0  2  0  0  0
  -28.6985  -13.0061   20.9950 C   0  0  0  0  0  0
  -25.2591  -13.8153   20.5685 C   0  0  0  0  0  0
  -24.1841  -13.0443   20.9193 C   0  0  0  0  0  0
  -24.6385  -11.6905   20.8746 C   0  0  0  0  0  0
  -23.9055  -10.4292   21.0418 C   0  0  0  0  0  0
  -24.3614   -9.4212   21.9195 C   0  0  0  0  0  0
  -23.6292   -8.2246   22.0756 C   0  0  0  0  0  0
  -22.4274   -8.0281   21.3547 C   0  0  0  0  0  0
  -21.9911   -9.0252   20.4648 C   0  0  0  0  0  0
  -22.7234  -10.2133   20.3059 C   0  0  0  0  0  0
  -21.6858   -6.0738   22.5276 C   0  0  0  0  0  0
  -21.4009   -6.5637   23.8209 C   0  0  0  0  0  0
  -21.3656   -5.6789   24.9170 C   0  0  0  0  0  0
  -21.6049   -4.3054   24.7219 C   0  0  0  0  0  0
  -21.8818   -3.8146   23.4339 C   0  0  0  0  0  0
  -21.9193   -4.6967   22.3398 C   0  0  0  0  0  0
  -22.7862  -13.5247   21.1853 C   0  0  0  0  0  0
  -22.1665   -4.2154   21.0976 F   0  0  0  0  0  0
  -21.5635   -3.4537   25.7734 F   0  0  0  0  0  0
  -30.0360  -13.2804   20.4440 N   0  0  0  0  0  0
  -26.3004  -12.9307   20.3341 N   0  0  0  0  0  0
  -25.9306  -11.6475   20.5768 N   0  0  0  0  0  0
  -22.0494  -12.8233   22.0397 N   0  0  0  0  0  0
  -25.4343  -15.1866   20.4072 N   0  0  0  0  0  0
  -31.8622  -14.5876   20.0738 O   0  0  0  0  0  0
  -21.6640   -6.8879   21.4241 O   0  0  0  0  0  0
  -22.3563  -14.5569   20.6720 O   0  0  0  0  0  0
  -24.6109  -31.8705   23.2133 C   0  0  0  0  0  0
  -25.9016  -32.4842   23.8420 C   0  0  1  0  0  0
  -27.2414  -27.4649   20.0952 C   0  0  0  0  0  0
  -25.5890  -33.8643   24.2355 N   0  0  0  0  0  0
  -23.3981  -30.4913   21.5535 C   0  0  2  0  0  0
  -24.8488  -28.9609   20.1177 C   0  0  0  0  0  0
  -22.7391  -29.4657   22.5025 C   0  0  0  0  0  0
  -18.0262  -28.1370   22.8492 C   0  0  0  0  0  0
  -24.1483  -36.7317   23.2638 C   0  0  0  0  0  0
  -25.9226  -30.8434   21.3645 C   0  0  0  0  0  0
  -26.0032  -29.4772   20.7197 C   0  0  0  0  0  0
  -27.2026  -28.7338   20.7173 C   0  0  0  0  0  0
  -26.0782  -26.9631   19.4801 C   0  0  0  0  0  0
  -24.8783  -27.6993   19.4974 C   0  0  0  0  0  0
  -23.6063  -29.8204   20.1685 C   0  0  0  0  0  0
  -25.4110  -36.3134   24.0343 C   0  0  1  0  0  0
  -20.5848  -28.3646   23.1335 C   0  0  2  0  0  0
  -20.6756  -26.9389   22.5418 C   0  0  0  0  0  0
  -19.5735  -26.6374   21.5221 C   0  0  0  0  0  0
  -18.1905  -26.7919   22.1615 C   0  0  0  0  0  0
  -19.1512  -28.8825   23.2909 C   0  0  0  0  0  0
  -18.9442  -30.1440   23.8908 C   0  0  0  0  0  0
  -17.6448  -30.6583   24.0562 C   0  0  0  0  0  0
  -25.9028  -34.9490   23.5143 C   0  0  0  0  0  0
  -16.5337  -29.9083   23.6332 C   0  0  0  0  0  0
  -16.7251  -28.6500   23.0353 C   0  0  0  0  0  0
  -26.4461  -31.6609   25.0731 C   0  0  0  0  0  0
  -25.3740  -31.3690   26.1484 C   0  0  0  0  0  0
  -27.0294  -30.3065   24.6074 C   0  0  0  0  0  0
  -27.6044  -32.4321   25.7498 C   0  0  0  0  0  0
  -27.5590  -37.1809   24.8464 C   0  0  0  0  0  0
  -21.4123  -29.3028   22.3767 N   0  0  0  0  0  0
  -26.4299  -37.3811   23.9419 N   0  0  0  0  0  0
  -24.6617  -31.0821   22.1028 N   0  0  0  0  0  0
  -23.4173  -28.8200   23.3056 O   0  0  0  0  0  0
  -28.3719  -26.6861   20.0394 O   0  0  0  0  0  0
  -26.5585  -34.8929   22.4700 O   0  0  0  0  0  0
  -23.5311  -32.1449   23.7541 O   0  0  0  0  0  0
  -30.4037  -21.1297   22.7661 C   0  0  0  0  0  0
  -30.2517  -22.4110   22.2019 C   0  0  0  0  0  0
  -28.0020  -20.9256   22.7293 C   0  0  0  0  0  0
  -29.2544  -20.3598   23.0386 C   0  0  0  0  0  0
  -28.9549  -22.8922   21.9414 C   0  0  0  0  0  0
  -30.3823  -16.7468   23.5801 C   0  0  0  0  0  0
  -28.8712  -17.4461   21.8301 C   0  0  0  0  0  0
  -31.0814  -15.7300   22.6472 C   0  0  1  0  0  0
  -29.5312  -16.4857   20.8162 C   0  0  1  0  0  0
  -31.5259  -14.5020   23.4773 C   0  0  0  0  0  0
  -30.3776  -17.2805   19.7903 C   0  0  0  0  0  0
  -29.3561  -18.9937   23.7211 C   0  0  0  0  0  0
  -29.7406  -25.1837   21.3308 C   0  0  0  0  0  0
  -29.1378  -26.5960   21.2366 C   0  0  0  0  0  0
  -27.8563  -22.1582   22.1903 N   0  0  0  0  0  0
  -30.2688  -15.3593   21.4573 N   0  0  0  0  0  0
  -28.7015  -24.1615   21.4182 N   0  0  0  0  0  0
  -29.8522  -17.9070   22.8339 N   0  3  1  0  0  0
  -31.4532  -12.3673   19.1140 H   0  0  0  0  0  0
  -30.2894  -11.2841   19.8134 H   0  0  0  0  0  0
  -29.7258  -11.7878   17.4165 H   0  0  0  0  0  0
  -29.6522  -13.4957   17.7752 H   0  0  0  0  0  0
  -27.8225  -11.3025   18.8152 H   0  0  0  0  0  0
  -27.3570  -12.6302   17.7854 H   0  0  0  0  0  0
  -27.6900  -14.2408   19.5497 H   0  0  0  0  0  0
  -28.6651  -11.9817   21.3681 H   0  0  0  0  0  0
  -28.4564  -13.6376   21.8508 H   0  0  0  0  0  0
  -25.2761   -9.5687   22.4772 H   0  0  0  0  0  0
  -24.0004   -7.4633   22.7474 H   0  0  0  0  0  0
  -21.0847   -8.8768   19.8944 H   0  0  0  0  0  0
  -22.3705  -10.9674   19.6164 H   0  0  0  0  0  0
  -21.1992   -7.6144   23.9715 H   0  0  0  0  0  0
  -21.1484   -6.0518   25.9072 H   0  0  0  0  0  0
  -22.0600   -2.7609   23.2838 H   0  0  0  0  0  0
  -22.4095  -11.9871   22.4753 H   0  0  0  0  0  0
  -21.1109  -13.1261   22.2602 H   0  0  0  0  0  0
  -24.6626  -15.8387   20.4959 H   0  0  0  0  0  0
  -26.2675  -15.6108   20.0223 H   0  0  0  0  0  0
  -26.7098  -32.5574   23.1201 H   0  0  0  0  0  0
  -25.0087  -33.9826   25.0528 H   0  0  0  0  0  0
  -22.6857  -31.3066   21.4137 H   0  0  0  0  0  0
  -23.3765  -35.9628   23.3286 H   0  0  0  0  0  0
  -24.3590  -36.8946   22.2057 H   0  0  0  0  0  0
  -23.7195  -37.6501   23.6657 H   0  0  0  0  0  0
  -26.0266  -31.6066   20.5921 H   0  0  0  0  0  0
  -26.8134  -30.9046   21.9777 H   0  0  0  0  0  0
  -28.0924  -29.1394   21.1787 H   0  0  0  0  0  0
  -26.1006  -25.9965   18.9961 H   0  0  0  0  0  0
  -23.9921  -27.2965   19.0266 H   0  0  0  0  0  0
  -23.7053  -30.5931   19.4056 H   0  0  0  0  0  0
  -22.7339  -29.2319   19.8776 H   0  0  0  0  0  0
  -25.1284  -36.2007   25.0838 H   0  0  0  0  0  0
  -20.9923  -28.3195   24.1459 H   0  0  0  0  0  0
  -20.5674  -26.2249   23.3602 H   0  0  0  0  0  0
  -21.6626  -26.7451   22.1195 H   0  0  0  0  0  0
  -19.6896  -25.6283   21.1248 H   0  0  0  0  0  0
  -19.6685  -27.3194   20.6758 H   0  0  0  0  0  0
  -17.4189  -26.6694   21.4004 H   0  0  0  0  0  0
  -18.0287  -26.0049   22.8991 H   0  0  0  0  0  0
  -19.7920  -30.7259   24.2274 H   0  0  0  0  0  0
  -17.5002  -31.6271   24.5140 H   0  0  0  0  0  0
  -15.5341  -30.2993   23.7650 H   0  0  0  0  0  0
  -15.8646  -28.0829   22.7063 H   0  0  0  0  0  0
  -24.5903  -30.7058   25.7797 H   0  0  0  0  0  0
  -24.8947  -32.2839   26.4979 H   0  0  0  0  0  0
  -25.8093  -30.8807   27.0211 H   0  0  0  0  0  0
  -26.2827  -29.6831   24.1140 H   0  0  0  0  0  0
  -27.4101  -29.7288   25.4507 H   0  0  0  0  0  0
  -27.8643  -30.4407   23.9190 H   0  0  0  0  0  0
  -27.2673  -33.3618   26.2093 H   0  0  0  0  0  0
  -28.3851  -32.6883   25.0323 H   0  0  0  0  0  0
  -28.0712  -31.8432   26.5403 H   0  0  0  0  0  0
  -28.2586  -38.0128   24.7568 H   0  0  0  0  0  0
  -28.1112  -36.2666   24.6228 H   0  0  0  0  0  0
  -27.2313  -37.1377   25.8864 H   0  0  0  0  0  0
  -20.9283  -29.8755   21.6993 H   0  0  0  0  0  0
  -26.0193  -38.2889   24.1446 H   0  0  0  0  0  0
  -31.3915  -20.7557   22.9936 H   0  0  0  0  0  0
  -31.1336  -23.0001   21.9905 H   0  0  0  0  0  0
  -27.0882  -20.3862   22.9308 H   0  0  0  0  0  0
  -31.0941  -17.0889   24.3335 H   0  0  0  0  0  0
  -29.5677  -16.2642   24.1239 H   0  0  0  0  0  0
  -28.0437  -16.9440   22.3351 H   0  0  0  0  0  0
  -28.4314  -18.2968   21.3079 H   0  0  0  0  0  0
  -31.9888  -16.2099   22.2722 H   0  0  0  0  0  0
  -28.7081  -16.0525   20.2509 H   0  0  0  0  0  0
  -30.6693  -13.9116   23.8052 H   0  0  0  0  0  0
  -32.0708  -14.8094   24.3708 H   0  0  0  0  0  0
  -32.1948  -13.8435   22.9220 H   0  0  0  0  0  0
  -31.2910  -17.6789   20.2329 H   0  0  0  0  0  0
  -29.8164  -18.1234   19.3842 H   0  0  0  0  0  0
  -30.6668  -16.6717   18.9331 H   0  0  0  0  0  0
  -28.3936  -18.7121   24.1525 H   0  0  0  0  0  0
  -30.0344  -19.1120   24.5678 H   0  0  0  0  0  0
  -30.3802  -25.1351   22.2126 H   0  0  0  0  0  0
  -30.3721  -24.9843   20.4643 H   0  0  0  0  0  0
  -29.9306  -27.3445   21.2139 H   0  0  0  0  0  0
  -28.5338  -26.7906   22.1257 H   0  0  0  0  0  0
  -27.7429  -24.4516   21.2619 H   0  0  0  0  0  0
  -30.6367  -18.2908   22.3310 H   0  0  0  0  0  0
  1 25  1  0  0  0
  1 30  2  0  0  0
  1 86  1  0  0  0
  2  3  1  0  0  0
  2 25  1  0  0  0
  2 89  1  0  0  0
  2 90  1  0  0  0
  3  4  1  0  0  0
  3 91  1  0  0  0
  3 92  1  0  0  0
  4  5  1  0  0  0
  4 93  1  0  0  0
  4 94  1  0  0  0
  5  6  1  0  0  0
  5 26  1  0  0  0
  5 95  1  0  0  0
  6 25  1  0  0  0
  6 96  1  0  0  0
  6 97  1  0  0  0
  7  8  2  0  0  0
  7 26  1  0  0  0
  7 29  1  0  0  0
  8  9  1  0  0  0
  8 22  1  0  0  0
  9 10  1  0  0  0
  9 27  2  0  0  0
 10 11  2  0  0  0
 10 15  1  0  0  0
 11 12  1  0  0  0
 11 98  1  0  0  0
 12 13  2  0  0  0
 12 99  1  0  0  0
 13 14  1  0  0  0
 13 31  1  0  0  0
 14 15  2  0  0  0
 14100  1  0  0  0
 15101  1  0  0  0
 16 17  2  0  0  0
 16 21  1  0  0  0
 16 31  1  0  0  0
 17 18  1  0  0  0
 17102  1  0  0  0
 18 19  2  0  0  0
 18103  1  0  0  0
 19 20  1  0  0  0
 19 24  1  0  0  0
 20 21  2  0  0  0
 20104  1  0  0  0
 21 23  1  0  0  0
 22 28  1  0  0  0
 22 32  2  0  0  0
 26 27  1  0  0  0
 28105  1  0  0  0
 28106  1  0  0  0
 29107  1  0  0  0
 29108  1  0  0  0
 33 34  1  0  0  0
 33 66  1  0  0  0
 33 70  2  0  0  0
 34 36  1  0  0  0
 34 59  1  0  0  0
 34109  1  0  0  0
 35 44  2  0  0  0
 35 45  1  0  0  0
 35 68  1  0  0  0
 36 56  1  0  0  0
 36110  1  0  0  0
 37 39  1  0  0  0
 37 47  1  0  0  0
 37 66  1  0  0  0
 37111  1  0  0  0
 38 43  2  0  0  0
 38 46  1  0  0  0
 38 47  1  0  0  0
 39 64  1  0  0  0
 39 67  2  0  0  0
 40 52  1  0  0  0
 40 53  2  0  0  0
 40 58  1  0  0  0
 41112  1  0  0  0
 41113  1  0  0  0
 41114  1  0  0  0
 41 48  1  0  0  0
 42 43  1  0  0  0
 42 66  1  0  0  0
 42115  1  0  0  0
 42116  1  0  0  0
 43 44  1  0  0  0
 44117  1  0  0  0
 45 46  2  0  0  0
 45118  1  0  0  0
 46119  1  0  0  0
 47120  1  0  0  0
 47121  1  0  0  0
 48 56  1  0  0  0
 48 65  1  0  0  0
 48122  1  0  0  0
 49 50  1  0  0  0
 49 53  1  0  0  0
 49 64  1  0  0  0
 49123  1  0  0  0
 50 51  1  0  0  0
 50124  1  0  0  0
 50125  1  0  0  0
 51 52  1  0  0  0
 51126  1  0  0  0
 51127  1  0  0  0
 52128  1  0  0  0
 52129  1  0  0  0
 53 54  1  0  0  0
 54 55  2  0  0  0
 54130  1  0  0  0
 55 57  1  0  0  0
 55131  1  0  0  0
 56 69  2  0  0  0
 57 58  2  0  0  0
 57132  1  0  0  0
 58133  1  0  0  0
 59 60  1  0  0  0
 59 61  1  0  0  0
 59 62  1  0  0  0
 60134  1  0  0  0
 60135  1  0  0  0
 60136  1  0  0  0
 61137  1  0  0  0
 61138  1  0  0  0
 61139  1  0  0  0
 62140  1  0  0  0
 62141  1  0  0  0
 62142  1  0  0  0
 63 65  1  0  0  0
 63143  1  0  0  0
 63144  1  0  0  0
 63145  1  0  0  0
 64146  1  0  0  0
 65147  1  0  0  0
 68 84  1  0  0  0
 71 72  2  0  0  0
 71 74  1  0  0  0
 71148  1  0  0  0
 72 75  1  0  0  0
 72149  1  0  0  0
 73 74  2  0  0  0
 73 85  1  0  0  0
 73150  1  0  0  0
 74 82  1  0  0  0
 75 85  2  0  0  0
 75 87  1  0  0  0
 76 78  1  0  0  0
 76 88  1  0  0  0
 76151  1  0  0  0
 76152  1  0  0  0
 77 79  1  0  0  0
 77 88  1  0  0  0
 77153  1  0  0  0
 77154  1  0  0  0
 78 80  1  0  0  0
 78 86  1  0  0  0
 78155  1  0  0  0
 79 81  1  0  0  0
 79 86  1  0  0  0
 79156  1  0  0  0
 80157  1  0  0  0
 80158  1  0  0  0
 80159  1  0  0  0
 81160  1  0  0  0
 81161  1  0  0  0
 81162  1  0  0  0
 82163  1  0  0  0
 82164  1  0  0  0
 82 88  1  0  0  0
 83 84  1  0  0  0
 83 87  1  0  0  0
 83165  1  0  0  0
 83166  1  0  0  0
 84167  1  0  0  0
 84168  1  0  0  0
 87169  1  0  0  0
 88170  1  0  0  0
M  CHG  1  88   1
M  ISO  4   1 100  68 101  84 101  86 100
M  END
> <chiral flag>
0

> <version>
0

> <s_m_source_file>
/data/baiqing/PycharmProjects/Reinvent-master-3.2/result/LINK_invent/BTK/process_docking_weight1_custom_sum_contain_oxygen_bond_distance_aromatic_linkinvent_7_9_3/rearranged_h_0175.sdf

> <i_m_source_file_index>
73

> <r_mmod_Potential_Energy-OPLS-2005>
-119.451263427734

> <r_mmod_Stretch_Energy-OPLS-2005>
38.5236968994141

> <r_mmod_Bend_Energy-OPLS-2005>
115.56421661377

> <r_mmod_Torsional_Energy-OPLS-2005>
394.003356933594

> <r_mmod_Improper_Torsional_Energy-OPLS-2005>
5.5110969543457

> <r_mmod_Van_der_Waal_Energy-OPLS-2005>
159.45881652832

> <r_mmod_Electrostatic_Energy-OPLS-2005>
-400.328948974609

> <r_mmod_Solvation_Energy-OPLS-2005>
-441.462493896484

> <b_mmod_Minimization_Converged-OPLS-2005>
0

> <r_mmod_RMS_Derivative-OPLS-2005>
1.15712738037109

$$$$
73
                    3D
 Structure written by MMmdl.
176186  0  0  1  0            999 V2000
  -30.7788  -14.5658   20.2487 C   0  0  0  0  0  0
  -30.4003  -12.3040   19.4079 C   0  0  0  0  0  0
  -29.4307  -12.3584   18.2066 C   0  0  0  0  0  0
  -27.9833  -12.2447   18.6756 C   0  0  0  0  0  0
  -27.6423  -13.2218   19.8292 C   0  0  2  0  0  0
  -28.7307  -13.2072   20.9290 C   0  0  0  0  0  0
  -25.2584  -13.8268   20.5836 C   0  0  0  0  0  0
  -24.1829  -13.0532   20.9331 C   0  0  0  0  0  0
  -24.6375  -11.7000   20.8890 C   0  0  0  0  0  0
  -23.9060  -10.4352   21.0481 C   0  0  0  0  0  0
  -24.3616   -9.4243   21.9230 C   0  0  0  0  0  0
  -23.6306   -8.2263   22.0768 C   0  0  0  0  0  0
  -22.4273   -8.0330   21.3574 C   0  0  0  0  0  0
  -21.9926   -9.0308   20.4656 C   0  0  0  0  0  0
  -22.7262  -10.2190   20.3097 C   0  0  0  0  0  0
  -21.6846   -6.0781   22.5298 C   0  0  0  0  0  0
  -21.4019   -6.5672   23.8238 C   0  0  0  0  0  0
  -21.3656   -5.6810   24.9182 C   0  0  0  0  0  0
  -21.6037   -4.3082   24.7228 C   0  0  0  0  0  0
  -21.8806   -3.8190   23.4343 C   0  0  0  0  0  0
  -21.9171   -4.7011   22.3406 C   0  0  0  0  0  0
  -22.7819  -13.5317   21.1893 C   0  0  0  0  0  0
  -22.1644   -4.2203   21.0987 F   0  0  0  0  0  0
  -21.5599   -3.4560   25.7734 F   0  0  0  0  0  0
  -30.0450  -13.4145   20.2959 N   0  0  0  0  0  0
  -26.3007  -12.9467   20.3455 N   0  0  0  0  0  0
  -25.9324  -11.6629   20.5993 N   0  0  0  0  0  0
  -22.0351  -12.8365   22.0411 N   0  0  0  0  0  0
  -25.4278  -15.1973   20.4152 N   0  0  0  0  0  0
  -31.9902  -14.5676   20.4229 O   0  0  0  0  0  0
  -21.6628   -6.8935   21.4277 O   0  0  0  0  0  0
  -22.3537  -14.5586   20.6648 O   0  0  0  0  0  0
  -24.6189  -31.8704   23.2093 C   0  0  0  0  0  0
  -25.9095  -32.4841   23.8383 C   0  0  1  0  0  0
  -27.2153  -27.4163   20.0959 C   0  0  0  0  0  0
  -25.5966  -33.8652   24.2317 N   0  0  0  0  0  0
  -23.4023  -30.5011   21.5486 C   0  0  2  0  0  0
  -24.8457  -28.9792   20.0953 C   0  0  0  0  0  0
  -22.7412  -29.4739   22.4966 C   0  0  0  0  0  0
  -18.0303  -28.1382   22.8481 C   0  0  0  0  0  0
  -24.1484  -36.7341   23.2634 C   0  0  0  0  0  0
  -25.9363  -30.8298   21.3664 C   0  0  0  0  0  0
  -26.0082  -29.4664   20.7097 C   0  0  0  0  0  0
  -27.1946  -28.6913   20.7093 C   0  0  0  0  0  0
  -26.0411  -26.9767   19.4320 C   0  0  0  0  0  0
  -24.8660  -27.7423   19.4379 C   0  0  0  0  0  0
  -23.6023  -29.8379   20.1605 C   0  0  0  0  0  0
  -25.4107  -36.3126   24.0321 C   0  0  1  0  0  0
  -20.5894  -28.3698   23.1264 C   0  0  2  0  0  0
  -20.6799  -26.9441   22.5375 C   0  0  0  0  0  0
  -19.5771  -26.6389   21.5185 C   0  0  0  0  0  0
  -18.1948  -26.7932   22.1607 C   0  0  0  0  0  0
  -19.1554  -28.8855   23.2873 C   0  0  0  0  0  0
  -18.9497  -30.1442   23.8899 C   0  0  0  0  0  0
  -17.6505  -30.6591   24.0569 C   0  0  0  0  0  0
  -25.9034  -34.9496   23.5107 C   0  0  0  0  0  0
  -16.5389  -29.9088   23.6345 C   0  0  0  0  0  0
  -16.7290  -28.6508   23.0361 C   0  0  0  0  0  0
  -26.4489  -31.6630   25.0727 C   0  0  0  0  0  0
  -25.3744  -31.3814   26.1468 C   0  0  0  0  0  0
  -27.0314  -30.3061   24.6149 C   0  0  0  0  0  0
  -27.6046  -32.4351   25.7518 C   0  0  0  0  0  0
  -27.5584  -37.1824   24.8451 C   0  0  0  0  0  0
  -21.4142  -29.3062   22.3650 N   0  0  0  0  0  0
  -26.4295  -37.3805   23.9397 N   0  0  0  0  0  0
  -24.6707  -31.0814   22.0988 N   0  0  0  0  0  0
  -23.4175  -28.8302   23.3016 O   0  0  0  0  0  0
  -28.3346  -26.6019   20.1698 O   0  0  0  0  0  0
  -26.5582  -34.8942   22.4643 O   0  0  0  0  0  0
  -23.5380  -32.1474   23.7486 O   0  0  0  0  0  0
  -30.0549  -17.0152   19.8470 C   0  0  0  0  0  0
  -30.3392  -15.7117   19.3358 C   0  0  0  0  0  0
  -29.8960  -18.1247   18.9582 C   0  0  0  0  0  0
  -29.8307  -17.8438   17.5708 C   0  0  0  0  0  0
  -30.5443  -15.6610   17.9262 C   0  0  0  0  0  0
  -31.1099  -19.9823   20.3827 C   0  0  0  0  0  0
  -29.9335  -18.7295   15.0581 C   0  0  0  0  0  0
  -30.5098  -19.8063   15.9338 C   0  0  0  0  0  0
  -30.7541  -21.4126   20.8464 C   0  0  0  0  0  0
  -29.9848  -19.6045   19.4032 C   0  0  2  0  0  0
  -29.4726  -18.8547   16.4989 C   0  0  0  0  0  0
  -29.4351  -21.7674   20.1284 C   0  0  1  0  0  0
  -28.7370  -20.3904   19.8914 C   0  0  0  0  0  0
  -31.4829  -14.6925   17.2037 C   0  0  0  0  0  0
  -28.1421  -19.7600   21.1735 C   0  0  0  0  0  0
  -27.6241  -20.4779   18.8322 C   0  0  0  0  0  0
  -29.1492  -24.2215   20.6899 C   0  0  0  0  0  0
  -28.0211  -25.1904   20.2713 C   0  0  0  0  0  0
  -30.1439  -16.6331   17.0878 N   0  0  0  0  0  0
  -28.6239  -22.8203   20.7944 N   0  3  0  0  0  0
  -31.4356  -12.3548   19.0753 H   0  0  0  0  0  0
  -30.3110  -11.3538   19.9362 H   0  0  0  0  0  0
  -29.6651  -11.5674   17.4926 H   0  0  0  0  0  0
  -29.4753  -13.2890   17.6656 H   0  0  0  0  0  0
  -27.8421  -11.2145   19.0003 H   0  0  0  0  0  0
  -27.3016  -12.3933   17.8379 H   0  0  0  0  0  0
  -27.6306  -14.2232   19.3974 H   0  0  0  0  0  0
  -28.7167  -12.2602   21.4679 H   0  0  0  0  0  0
  -28.5474  -13.9896   21.6684 H   0  0  0  0  0  0
  -25.2727   -9.5720   22.4856 H   0  0  0  0  0  0
  -24.0031   -7.4609   22.7435 H   0  0  0  0  0  0
  -21.0880   -8.8853   19.8905 H   0  0  0  0  0  0
  -22.3742  -10.9773   19.6240 H   0  0  0  0  0  0
  -21.2042   -7.6172   23.9808 H   0  0  0  0  0  0
  -21.1475   -6.0495   25.9095 H   0  0  0  0  0  0
  -22.0575   -2.7663   23.2802 H   0  0  0  0  0  0
  -22.3885  -12.0137   22.5082 H   0  0  0  0  0  0
  -21.0922  -13.1419   22.2397 H   0  0  0  0  0  0
  -24.6705  -15.8617   20.5299 H   0  0  0  0  0  0
  -26.2874  -15.6312   20.1071 H   0  0  0  0  0  0
  -26.7197  -32.5520   23.1166 H   0  0  0  0  0  0
  -25.0173  -33.9778   25.0517 H   0  0  0  0  0  0
  -22.6922  -31.3211   21.4154 H   0  0  0  0  0  0
  -23.3732  -35.9686   23.3286 H   0  0  0  0  0  0
  -24.3598  -36.8975   22.2054 H   0  0  0  0  0  0
  -23.7244  -37.6545   23.6663 H   0  0  0  0  0  0
  -26.0526  -31.5947   20.5970 H   0  0  0  0  0  0
  -26.8272  -30.8814   21.9830 H   0  0  0  0  0  0
  -28.0838  -29.0515   21.2107 H   0  0  0  0  0  0
  -26.0039  -26.0465   18.8903 H   0  0  0  0  0  0
  -23.9919  -27.3792   18.9115 H   0  0  0  0  0  0
  -23.6768  -30.6102   19.3936 H   0  0  0  0  0  0
  -22.7286  -29.2425   19.8856 H   0  0  0  0  0  0
  -25.1282  -36.1985   25.0816 H   0  0  0  0  0  0
  -21.0023  -28.3313   24.1368 H   0  0  0  0  0  0
  -20.5714  -26.2344   23.3575 H   0  0  0  0  0  0
  -21.6667  -26.7484   22.1169 H   0  0  0  0  0  0
  -19.6935  -25.6293   21.1226 H   0  0  0  0  0  0
  -19.6693  -27.3179   20.6693 H   0  0  0  0  0  0
  -17.4211  -26.6679   21.4008 H   0  0  0  0  0  0
  -18.0371  -26.0074   22.9010 H   0  0  0  0  0  0
  -19.7982  -30.7240   24.2274 H   0  0  0  0  0  0
  -17.5079  -31.6273   24.5159 H   0  0  0  0  0  0
  -15.5389  -30.2997   23.7662 H   0  0  0  0  0  0
  -15.8697  -28.0801   22.7097 H   0  0  0  0  0  0
  -24.5822  -30.7278   25.7811 H   0  0  0  0  0  0
  -24.9047  -32.3017   26.4945 H   0  0  0  0  0  0
  -25.8029  -30.8923   27.0218 H   0  0  0  0  0  0
  -26.2866  -29.6834   24.1175 H   0  0  0  0  0  0
  -27.4042  -29.7295   25.4626 H   0  0  0  0  0  0
  -27.8725  -30.4364   23.9337 H   0  0  0  0  0  0
  -27.2653  -33.3636   26.2118 H   0  0  0  0  0  0
  -28.3862  -32.6946   25.0376 H   0  0  0  0  0  0
  -28.0720  -31.8484   26.5429 H   0  0  0  0  0  0
  -28.2586  -38.0132   24.7500 H   0  0  0  0  0  0
  -28.1081  -36.2660   24.6250 H   0  0  0  0  0  0
  -27.2310  -37.1454   25.8856 H   0  0  0  0  0  0
  -20.9312  -29.8758   21.6849 H   0  0  0  0  0  0
  -26.0179  -38.2890   24.1367 H   0  0  0  0  0  0
  -30.0868  -17.1874   20.9128 H   0  0  0  0  0  0
  -31.1395  -19.3105   21.2401 H   0  0  0  0  0  0
  -32.0911  -19.9461   19.9077 H   0  0  0  0  0  0
  -30.5882  -17.9045   14.7852 H   0  0  0  0  0  0
  -29.2314  -19.0393   14.2870 H   0  0  0  0  0  0
  -30.2044  -20.8272   15.7061 H   0  0  0  0  0  0
  -31.5374  -19.6837   16.2703 H   0  0  0  0  0  0
  -31.5446  -22.1209   20.5992 H   0  0  0  0  0  0
  -30.6390  -21.4310   21.9308 H   0  0  0  0  0  0
  -30.3079  -20.1254   18.5042 H   0  0  0  0  0  0
  -28.4620  -19.2250   16.6323 H   0  0  0  0  0  0
  -29.6887  -22.1694   19.1425 H   0  0  0  0  0  0
  -32.0602  -14.0461   17.8597 H   0  0  0  0  0  0
  -32.2215  -15.2699   16.6437 H   0  0  0  0  0  0
  -30.9679  -14.0791   16.4679 H   0  0  0  0  0  0
  -28.8595  -19.7044   21.9922 H   0  0  0  0  0  0
  -27.7840  -18.7471   20.9832 H   0  0  0  0  0  0
  -27.2874  -20.3306   21.5370 H   0  0  0  0  0  0
  -27.9363  -21.0338   17.9476 H   0  0  0  0  0  0
  -26.7389  -20.9741   19.2266 H   0  0  0  0  0  0
  -27.3053  -19.4830   18.5202 H   0  0  0  0  0  0
  -29.5673  -24.5130   21.6537 H   0  0  0  0  0  0
  -29.9616  -24.2877   19.9642 H   0  0  0  0  0  0
  -27.2048  -25.0703   20.9882 H   0  0  0  0  0  0
  -27.6578  -24.8357   19.3072 H   0  0  0  0  0  0
  -28.4671  -22.5683   21.7589 H   0  0  0  0  0  0
  -27.7252  -22.8147   20.3396 H   0  0  0  0  0  0
  1 25  1  0  0  0
  1 30  2  0  0  0
  1 72  1  0  0  0
  2  3  1  0  0  0
  2 25  1  0  0  0
  2 91  1  0  0  0
  2 92  1  0  0  0
  3  4  1  0  0  0
  3 93  1  0  0  0
  3 94  1  0  0  0
  4  5  1  0  0  0
  4 95  1  0  0  0
  4 96  1  0  0  0
  5  6  1  0  0  0
  5 26  1  0  0  0
  5 97  1  0  0  0
  6 25  1  0  0  0
  6 98  1  0  0  0
  6 99  1  0  0  0
  7  8  2  0  0  0
  7 26  1  0  0  0
  7 29  1  0  0  0
  8  9  1  0  0  0
  8 22  1  0  0  0
  9 10  1  0  0  0
  9 27  2  0  0  0
 10 11  2  0  0  0
 10 15  1  0  0  0
 11 12  1  0  0  0
 11100  1  0  0  0
 12 13  2  0  0  0
 12101  1  0  0  0
 13 14  1  0  0  0
 13 31  1  0  0  0
 14 15  2  0  0  0
 14102  1  0  0  0
 15103  1  0  0  0
 16 17  2  0  0  0
 16 21  1  0  0  0
 16 31  1  0  0  0
 17 18  1  0  0  0
 17104  1  0  0  0
 18 19  2  0  0  0
 18105  1  0  0  0
 19 20  1  0  0  0
 19 24  1  0  0  0
 20 21  2  0  0  0
 20106  1  0  0  0
 21 23  1  0  0  0
 22 28  1  0  0  0
 22 32  2  0  0  0
 26 27  1  0  0  0
 28107  1  0  0  0
 28108  1  0  0  0
 29109  1  0  0  0
 29110  1  0  0  0
 33 34  1  0  0  0
 33 66  1  0  0  0
 33 70  2  0  0  0
 34 36  1  0  0  0
 34 59  1  0  0  0
 34111  1  0  0  0
 35 44  2  0  0  0
 35 45  1  0  0  0
 35 68  1  0  0  0
 36 56  1  0  0  0
 36112  1  0  0  0
 37 39  1  0  0  0
 37 47  1  0  0  0
 37 66  1  0  0  0
 37113  1  0  0  0
 38 43  2  0  0  0
 38 46  1  0  0  0
 38 47  1  0  0  0
 39 64  1  0  0  0
 39 67  2  0  0  0
 40 52  1  0  0  0
 40 53  2  0  0  0
 40 58  1  0  0  0
 41114  1  0  0  0
 41115  1  0  0  0
 41116  1  0  0  0
 41 48  1  0  0  0
 42 43  1  0  0  0
 42 66  1  0  0  0
 42117  1  0  0  0
 42118  1  0  0  0
 43 44  1  0  0  0
 44119  1  0  0  0
 45 46  2  0  0  0
 45120  1  0  0  0
 46121  1  0  0  0
 47122  1  0  0  0
 47123  1  0  0  0
 48 56  1  0  0  0
 48 65  1  0  0  0
 48124  1  0  0  0
 49 50  1  0  0  0
 49 53  1  0  0  0
 49 64  1  0  0  0
 49125  1  0  0  0
 50 51  1  0  0  0
 50126  1  0  0  0
 50127  1  0  0  0
 51 52  1  0  0  0
 51128  1  0  0  0
 51129  1  0  0  0
 52130  1  0  0  0
 52131  1  0  0  0
 53 54  1  0  0  0
 54 55  2  0  0  0
 54132  1  0  0  0
 55 57  1  0  0  0
 55133  1  0  0  0
 56 69  2  0  0  0
 57 58  2  0  0  0
 57134  1  0  0  0
 58135  1  0  0  0
 59 60  1  0  0  0
 59 61  1  0  0  0
 59 62  1  0  0  0
 60136  1  0  0  0
 60137  1  0  0  0
 60138  1  0  0  0
 61139  1  0  0  0
 61140  1  0  0  0
 61141  1  0  0  0
 62142  1  0  0  0
 62143  1  0  0  0
 62144  1  0  0  0
 63 65  1  0  0  0
 63145  1  0  0  0
 63146  1  0  0  0
 63147  1  0  0  0
 64148  1  0  0  0
 65149  1  0  0  0
 68 88  1  0  0  0
 71 72  2  0  0  0
 71 73  1  0  0  0
 71150  1  0  0  0
 72 75  1  0  0  0
 73 74  2  0  0  0
 73 80  1  0  0  0
 74 89  1  0  0  0
 74 81  1  0  0  0
 75 84  1  0  0  0
 75 89  2  0  0  0
 76 79  1  0  0  0
 76 80  1  0  0  0
 76151  1  0  0  0
 76152  1  0  0  0
 77 78  1  0  0  0
 77 81  1  0  0  0
 77153  1  0  0  0
 77154  1  0  0  0
 78 81  1  0  0  0
 78155  1  0  0  0
 78156  1  0  0  0
 79 82  1  0  0  0
 79157  1  0  0  0
 79158  1  0  0  0
 80 83  1  0  0  0
 80159  1  0  0  0
 81160  1  0  0  0
 82 83  1  0  0  0
 82 90  1  0  0  0
 82161  1  0  0  0
 83 85  1  0  0  0
 83 86  1  0  0  0
 84162  1  0  0  0
 84163  1  0  0  0
 84164  1  0  0  0
 85165  1  0  0  0
 85166  1  0  0  0
 85167  1  0  0  0
 86168  1  0  0  0
 86169  1  0  0  0
 86170  1  0  0  0
 87 88  1  0  0  0
 87 90  1  0  0  0
 87171  1  0  0  0
 87172  1  0  0  0
 88173  1  0  0  0
 88174  1  0  0  0
 90175  1  0  0  0
 90176  1  0  0  0
M  CHG  1  90   1
M  ISO  4   1 100  68 101  72 100  88 101
M  END
> <chiral flag>
0

> <version>
0

> <s_m_source_file>
/data/baiqing/PycharmProjects/Reinvent-master-3.2/result/LINK_invent/BTK/process_docking_weight1_custom_sum_contain_oxygen_bond_distance_aromatic_linkinvent_7_9_3/rearranged_h_0175.sdf

> <i_m_source_file_index>
74

> <r_mmod_Potential_Energy-OPLS-2005>
72.0918502807617

> <r_mmod_Stretch_Energy-OPLS-2005>
49.6571273803711

> <r_mmod_Bend_Energy-OPLS-2005>
178.283798217773

> <r_mmod_Torsional_Energy-OPLS-2005>
402.37158203125

> <r_mmod_Improper_Torsional_Energy-OPLS-2005>
26.5630569458008

> <r_mmod_Van_der_Waal_Energy-OPLS-2005>
161.340896606445

> <r_mmod_Electrostatic_Energy-OPLS-2005>
-381.789672851562

> <r_mmod_Solvation_Energy-OPLS-2005>
-440.717803955078

> <b_mmod_Minimization_Converged-OPLS-2005>
0

> <r_mmod_RMS_Derivative-OPLS-2005>
4.99847841262817

$$$$
74
                    3D
 Structure written by MMmdl.
161171  0  0  1  0            999 V2000
  -30.5173  -15.1148   20.4031 C   0  0  0  0  0  0
  -30.4269  -12.7060   19.5188 C   0  0  0  0  0  0
  -29.5223  -12.5522   18.2745 C   0  0  0  0  0  0
  -28.0629  -12.3121   18.6967 C   0  0  0  0  0  0
  -27.6156  -13.2704   19.8311 C   0  0  2  0  0  0
  -28.6529  -13.3942   20.9672 C   0  0  0  0  0  0
  -25.2402  -13.8255   20.5752 C   0  0  0  0  0  0
  -24.1742  -13.0448   20.9247 C   0  0  0  0  0  0
  -24.6389  -11.6941   20.8766 C   0  0  0  0  0  0
  -23.9090  -10.4297   21.0406 C   0  0  0  0  0  0
  -24.3634   -9.4207   21.9184 C   0  0  0  0  0  0
  -23.6304   -8.2246   22.0755 C   0  0  0  0  0  0
  -22.4288   -8.0282   21.3544 C   0  0  0  0  0  0
  -21.9925   -9.0256   20.4647 C   0  0  0  0  0  0
  -22.7260  -10.2135   20.3055 C   0  0  0  0  0  0
  -21.6860   -6.0736   22.5276 C   0  0  0  0  0  0
  -21.4018   -6.5641   23.8209 C   0  0  0  0  0  0
  -21.3657   -5.6795   24.9171 C   0  0  0  0  0  0
  -21.6043   -4.3057   24.7222 C   0  0  0  0  0  0
  -21.8820   -3.8147   23.4346 C   0  0  0  0  0  0
  -21.9194   -4.6962   22.3401 C   0  0  0  0  0  0
  -22.7761  -13.5201   21.1890 C   0  0  0  0  0  0
  -22.1665   -4.2149   21.0980 F   0  0  0  0  0  0
  -21.5625   -3.4540   25.7736 F   0  0  0  0  0  0
  -29.9007  -13.8485   20.3418 N   0  0  0  0  0  0
  -26.2829  -12.9524   20.3259 N   0  0  0  0  0  0
  -25.9330  -11.6632   20.5753 N   0  0  0  0  0  0
  -22.0426  -12.8179   22.0447 N   0  0  0  0  0  0
  -25.4068  -15.1982   20.4196 N   0  0  0  0  0  0
  -31.7272  -15.0915   20.1431 O   0  0  0  0  0  0
  -21.6649   -6.8881   21.4240 O   0  0  0  0  0  0
  -22.3435  -14.5500   20.6731 O   0  0  0  0  0  0
  -24.6541  -31.8322   23.1772 C   0  0  0  0  0  0
  -25.9264  -32.4627   23.8208 C   0  0  1  0  0  0
  -27.2109  -27.0122   20.1649 C   0  0  0  0  0  0
  -25.5971  -33.8436   24.2129 N   0  0  0  0  0  0
  -23.4644  -30.4481   21.5228 C   0  0  2  0  0  0
  -24.9154  -28.8547   20.1024 C   0  0  0  0  0  0
  -22.7631  -29.4481   22.4783 C   0  0  0  0  0  0
  -18.0317  -28.1410   22.8469 C   0  0  0  0  0  0
  -24.1488  -36.7221   23.2650 C   0  0  0  0  0  0
  -26.0279  -30.6635   21.3965 C   0  0  0  0  0  0
  -26.0930  -29.2631   20.7389 C   0  0  0  0  0  0
  -27.2332  -28.3572   20.7556 C   0  0  0  0  0  0
  -26.0092  -26.7387   19.4735 C   0  0  0  0  0  0
  -24.8941  -27.6106   19.4525 C   0  0  0  0  0  0
  -23.6990  -29.7738   20.1437 C   0  0  0  0  0  0
  -25.4122  -36.2986   24.0312 C   0  0  1  0  0  0
  -20.5941  -28.3740   23.1209 C   0  0  2  0  0  0
  -20.6790  -26.9427   22.5410 C   0  0  0  0  0  0
  -19.5764  -26.6378   21.5221 C   0  0  0  0  0  0
  -18.1947  -26.7945   22.1627 C   0  0  0  0  0  0
  -19.1580  -28.8888   23.2829 C   0  0  0  0  0  0
  -18.9498  -30.1483   23.8860 C   0  0  0  0  0  0
  -17.6493  -30.6595   24.0555 C   0  0  0  0  0  0
  -25.9083  -34.9369   23.5038 C   0  0  0  0  0  0
  -16.5381  -29.9090   23.6337 C   0  0  0  0  0  0
  -16.7301  -28.6511   23.0353 C   0  0  0  0  0  0
  -26.4550  -31.6531   25.0697 C   0  0  0  0  0  0
  -25.3706  -31.3765   26.1379 C   0  0  0  0  0  0
  -27.0431  -30.2907   24.6366 C   0  0  0  0  0  0
  -27.6054  -32.4325   25.7490 C   0  0  0  0  0  0
  -27.5568  -37.1766   24.8470 C   0  0  0  0  0  0
  -21.4307  -29.3044   22.3557 N   0  0  0  0  0  0
  -26.4272  -37.3716   23.9422 N   0  0  0  0  0  0
  -24.7362  -31.0065   22.0868 N   0  0  0  0  0  0
  -23.4225  -28.8042   23.2984 O   0  0  0  0  0  0
  -28.2290  -25.9606   20.3039 O   0  0  0  0  0  0
  -26.5682  -34.8889   22.4625 O   0  0  0  0  0  0
  -23.5627  -32.1272   23.6899 O   0  0  0  0  0  0
  -27.8679  -21.8064   22.6658 C   0  0  0  0  0  0
  -27.8961  -22.9683   21.8737 C   0  0  0  0  0  0
  -28.3658  -20.5384   22.2655 C   0  0  0  0  0  0
  -28.9035  -20.2950   20.9606 C   0  0  0  0  0  0
  -28.4122  -22.9679   20.5730 C   0  0  0  0  0  0
  -28.9003  -21.5811   20.1369 C   0  0  0  0  0  0
  -28.4490  -19.7425   24.7982 C   0  0  0  0  0  0
  -29.5491  -19.0246   24.0638 C   0  0  0  0  0  0
  -28.8716  -17.2288   21.1736 C   0  0  0  0  0  0
  -30.1340  -17.7351   19.6144 C   0  0  0  0  0  0
  -28.3040  -19.4556   23.3140 C   0  0  0  0  0  0
  -29.4799  -18.6748   20.7382 C   0  0  0  0  0  0
  -29.4417  -21.4738   18.7264 C   0  0  0  0  0  0
  -28.2307  -24.4469   19.7518 C   0  0  0  0  0  0
  -29.8211  -16.4009   20.3235 N   0  0  0  0  0  0
  -31.4563  -12.8691   19.1977 H   0  0  0  0  0  0
  -30.4467  -11.7843   20.1023 H   0  0  0  0  0  0
  -29.8721  -11.7321   17.6462 H   0  0  0  0  0  0
  -29.5835  -13.4559   17.6666 H   0  0  0  0  0  0
  -27.9857  -11.2787   19.0367 H   0  0  0  0  0  0
  -27.3976  -12.4026   17.8372 H   0  0  0  0  0  0
  -27.5498  -14.2530   19.3616 H   0  0  0  0  0  0
  -28.7845  -12.4497   21.4976 H   0  0  0  0  0  0
  -28.3223  -14.1274   21.7047 H   0  0  0  0  0  0
  -25.2775   -9.5688   22.4766 H   0  0  0  0  0  0
  -24.0009   -7.4641   22.7480 H   0  0  0  0  0  0
  -21.0854   -8.8775   19.8958 H   0  0  0  0  0  0
  -22.3709  -10.9673   19.6167 H   0  0  0  0  0  0
  -21.2017   -7.6150   23.9712 H   0  0  0  0  0  0
  -21.1477   -6.0526   25.9075 H   0  0  0  0  0  0
  -22.0601   -2.7609   23.2844 H   0  0  0  0  0  0
  -22.4066  -11.9843   22.4823 H   0  0  0  0  0  0
  -21.1039  -13.1178   22.2665 H   0  0  0  0  0  0
  -24.6411  -15.8531   20.5356 H   0  0  0  0  0  0
  -26.2574  -15.6349   20.0890 H   0  0  0  0  0  0
  -26.7323  -32.5197   23.0912 H   0  0  0  0  0  0
  -25.0092  -33.9525   25.0262 H   0  0  0  0  0  0
  -22.7729  -31.2774   21.3588 H   0  0  0  0  0  0
  -23.3756  -35.9547   23.3287 H   0  0  0  0  0  0
  -24.3582  -36.8878   22.2073 H   0  0  0  0  0  0
  -23.7233  -37.6405   23.6702 H   0  0  0  0  0  0
  -26.2001  -31.4078   20.6179 H   0  0  0  0  0  0
  -26.8932  -30.7178   22.0451 H   0  0  0  0  0  0
  -28.1204  -28.6577   21.2944 H   0  0  0  0  0  0
  -25.8789  -25.7897   18.9781 H   0  0  0  0  0  0
  -23.9956  -27.2940   18.9399 H   0  0  0  0  0  0
  -23.8501  -30.5477   19.3903 H   0  0  0  0  0  0
  -22.8094  -29.2271   19.8258 H   0  0  0  0  0  0
  -25.1304  -36.1791   25.0800 H   0  0  0  0  0  0
  -21.0039  -28.3343   24.1329 H   0  0  0  0  0  0
  -20.5675  -26.2357   23.3643 H   0  0  0  0  0  0
  -21.6648  -26.7407   22.1210 H   0  0  0  0  0  0
  -19.6924  -25.6283   21.1261 H   0  0  0  0  0  0
  -19.6704  -27.3173   20.6743 H   0  0  0  0  0  0
  -17.4216  -26.6703   21.4027 H   0  0  0  0  0  0
  -18.0322  -26.0108   22.9044 H   0  0  0  0  0  0
  -19.7977  -30.7305   24.2212 H   0  0  0  0  0  0
  -17.5052  -31.6271   24.5169 H   0  0  0  0  0  0
  -15.5382  -30.2982   23.7679 H   0  0  0  0  0  0
  -15.8707  -28.0819   22.7083 H   0  0  0  0  0  0
  -24.5916  -30.7055   25.7735 H   0  0  0  0  0  0
  -24.8858  -32.2957   26.4676 H   0  0  0  0  0  0
  -25.7988  -30.9058   27.0237 H   0  0  0  0  0  0
  -26.3076  -29.6607   24.1353 H   0  0  0  0  0  0
  -27.3988  -29.7223   25.4972 H   0  0  0  0  0  0
  -27.9003  -30.4115   23.9739 H   0  0  0  0  0  0
  -27.2623  -33.3662   26.1949 H   0  0  0  0  0  0
  -28.3926  -32.6831   25.0367 H   0  0  0  0  0  0
  -28.0647  -31.8533   26.5507 H   0  0  0  0  0  0
  -28.2554  -38.0094   24.7521 H   0  0  0  0  0  0
  -28.1087  -36.2618   24.6262 H   0  0  0  0  0  0
  -27.2297  -37.1369   25.8877 H   0  0  0  0  0  0
  -20.9522  -29.8772   21.6741 H   0  0  0  0  0  0
  -26.0122  -38.2770   24.1445 H   0  0  0  0  0  0
  -27.4364  -21.9108   23.6513 H   0  0  0  0  0  0
  -27.4846  -23.8846   22.2760 H   0  0  0  0  0  0
  -28.6770  -20.7513   25.1356 H   0  0  0  0  0  0
  -27.8551  -19.1453   25.4875 H   0  0  0  0  0  0
  -29.6788  -17.9693   24.2945 H   0  0  0  0  0  0
  -30.4676  -19.5818   23.8892 H   0  0  0  0  0  0
  -27.8317  -17.1152   20.8644 H   0  0  0  0  0  0
  -28.9532  -17.0093   22.2364 H   0  0  0  0  0  0
  -31.1982  -17.9272   19.4673 H   0  0  0  0  0  0
  -29.6168  -17.8218   18.6580 H   0  0  0  0  0  0
  -27.5534  -18.7111   23.0559 H   0  0  0  0  0  0
  -30.3368  -18.7866   21.4037 H   0  0  0  0  0  0
  -29.4979  -20.4346   18.4014 H   0  0  0  0  0  0
  -30.4408  -21.9061   18.6692 H   0  0  0  0  0  0
  -28.7987  -22.0060   18.0258 H   0  0  0  0  0  0
  -27.3368  -24.3027   19.1504 H   0  0  0  0  0  0
  -29.0368  -24.4448   19.0178 H   0  0  0  0  0  0
  1 25  1  0  0  0
  1 30  2  0  0  0
  1 85  1  0  0  0
  2  3  1  0  0  0
  2 25  1  0  0  0
  2 86  1  0  0  0
  2 87  1  0  0  0
  3  4  1  0  0  0
  3 88  1  0  0  0
  3 89  1  0  0  0
  4  5  1  0  0  0
  4 90  1  0  0  0
  4 91  1  0  0  0
  5  6  1  0  0  0
  5 26  1  0  0  0
  5 92  1  0  0  0
  6 25  1  0  0  0
  6 93  1  0  0  0
  6 94  1  0  0  0
  7  8  2  0  0  0
  7 26  1  0  0  0
  7 29  1  0  0  0
  8  9  1  0  0  0
  8 22  1  0  0  0
  9 10  1  0  0  0
  9 27  2  0  0  0
 10 11  2  0  0  0
 10 15  1  0  0  0
 11 12  1  0  0  0
 11 95  1  0  0  0
 12 13  2  0  0  0
 12 96  1  0  0  0
 13 14  1  0  0  0
 13 31  1  0  0  0
 14 15  2  0  0  0
 14 97  1  0  0  0
 15 98  1  0  0  0
 16 17  2  0  0  0
 16 21  1  0  0  0
 16 31  1  0  0  0
 17 18  1  0  0  0
 17 99  1  0  0  0
 18 19  2  0  0  0
 18100  1  0  0  0
 19 20  1  0  0  0
 19 24  1  0  0  0
 20 21  2  0  0  0
 20101  1  0  0  0
 21 23  1  0  0  0
 22 28  1  0  0  0
 22 32  2  0  0  0
 26 27  1  0  0  0
 28102  1  0  0  0
 28103  1  0  0  0
 29104  1  0  0  0
 29105  1  0  0  0
 33 34  1  0  0  0
 33 66  1  0  0  0
 33 70  2  0  0  0
 34 36  1  0  0  0
 34 59  1  0  0  0
 34106  1  0  0  0
 35 44  2  0  0  0
 35 45  1  0  0  0
 35 68  1  0  0  0
 36 56  1  0  0  0
 36107  1  0  0  0
 37 39  1  0  0  0
 37 47  1  0  0  0
 37 66  1  0  0  0
 37108  1  0  0  0
 38 43  2  0  0  0
 38 46  1  0  0  0
 38 47  1  0  0  0
 39 64  1  0  0  0
 39 67  2  0  0  0
 40 52  1  0  0  0
 40 53  2  0  0  0
 40 58  1  0  0  0
 41109  1  0  0  0
 41110  1  0  0  0
 41111  1  0  0  0
 41 48  1  0  0  0
 42 43  1  0  0  0
 42 66  1  0  0  0
 42112  1  0  0  0
 42113  1  0  0  0
 43 44  1  0  0  0
 44114  1  0  0  0
 45 46  2  0  0  0
 45115  1  0  0  0
 46116  1  0  0  0
 47117  1  0  0  0
 47118  1  0  0  0
 48 56  1  0  0  0
 48 65  1  0  0  0
 48119  1  0  0  0
 49 50  1  0  0  0
 49 53  1  0  0  0
 49 64  1  0  0  0
 49120  1  0  0  0
 50 51  1  0  0  0
 50121  1  0  0  0
 50122  1  0  0  0
 51 52  1  0  0  0
 51123  1  0  0  0
 51124  1  0  0  0
 52125  1  0  0  0
 52126  1  0  0  0
 53 54  1  0  0  0
 54 55  2  0  0  0
 54127  1  0  0  0
 55 57  1  0  0  0
 55128  1  0  0  0
 56 69  2  0  0  0
 57 58  2  0  0  0
 57129  1  0  0  0
 58130  1  0  0  0
 59 60  1  0  0  0
 59 61  1  0  0  0
 59 62  1  0  0  0
 60131  1  0  0  0
 60132  1  0  0  0
 60133  1  0  0  0
 61134  1  0  0  0
 61135  1  0  0  0
 61136  1  0  0  0
 62137  1  0  0  0
 62138  1  0  0  0
 62139  1  0  0  0
 63 65  1  0  0  0
 63140  1  0  0  0
 63141  1  0  0  0
 63142  1  0  0  0
 64143  1  0  0  0
 65144  1  0  0  0
 68 84  1  0  0  0
 71 72  2  0  0  0
 71 73  1  0  0  0
 71145  1  0  0  0
 72 75  1  0  0  0
 72146  1  0  0  0
 73 74  2  0  0  0
 73 81  1  0  0  0
 74 76  1  0  0  0
 74 82  1  0  0  0
 75 76  2  0  0  0
 75 84  1  0  0  0
 76 83  1  0  0  0
 77 78  1  0  0  0
 77 81  1  0  0  0
 77147  1  0  0  0
 77148  1  0  0  0
 78 81  1  0  0  0
 78149  1  0  0  0
 78150  1  0  0  0
 79 82  1  0  0  0
 79 85  1  0  0  0
 79151  1  0  0  0
 79152  1  0  0  0
 80 82  1  0  0  0
 80 85  1  0  0  0
 80153  1  0  0  0
 80154  1  0  0  0
 81155  1  0  0  0
 82156  1  0  0  0
 83157  1  0  0  0
 83158  1  0  0  0
 83159  1  0  0  0
 84160  1  0  0  0
 84161  1  0  0  0
M  ISO  4   1 100  68 101  84 101  85 100
M  END
> <chiral flag>
0

> <version>
0

> <s_m_source_file>
/data/baiqing/PycharmProjects/Reinvent-master-3.2/result/LINK_invent/BTK/process_docking_weight1_custom_sum_contain_oxygen_bond_distance_aromatic_linkinvent_7_9_3/rearranged_h_0175.sdf

> <i_m_source_file_index>
75

> <r_mmod_Potential_Energy-OPLS-2005>
1027.82263183594

> <r_mmod_Stretch_Energy-OPLS-2005>
396.648376464844

> <r_mmod_Bend_Energy-OPLS-2005>
400.993865966797

> <r_mmod_Torsional_Energy-OPLS-2005>
299.708984375

> <r_mmod_Improper_Torsional_Energy-OPLS-2005>
15.3200178146362

> <r_mmod_Van_der_Waal_Energy-OPLS-2005>
123.772048950195

> <r_mmod_Electrostatic_Energy-OPLS-2005>
-331.266021728516

> <r_mmod_Solvation_Energy-OPLS-2005>
-203.32746887207

> <b_mmod_Minimization_Converged-OPLS-2005>
0

> <r_mmod_RMS_Derivative-OPLS-2005>
1.13905811309814

$$$$
75
                    3D
 Structure written by MMmdl.
181192  0  0  1  0            999 V2000
  -30.5936  -14.5674   20.4898 C   0  0  0  0  0  0
  -30.4630  -12.3445   19.4261 C   0  0  0  0  0  0
  -29.5160  -12.4879   18.2100 C   0  0  0  0  0  0
  -28.0355  -12.3062   18.6169 C   0  0  0  0  0  0
  -27.6587  -13.1584   19.8514 C   0  0  2  0  0  0
  -28.7104  -12.9622   20.9746 C   0  0  0  0  0  0
  -25.2675  -13.8033   20.5626 C   0  0  0  0  0  0
  -24.1866  -13.0384   20.9156 C   0  0  0  0  0  0
  -24.6353  -11.6833   20.8719 C   0  0  0  0  0  0
  -23.8999  -10.4266   21.0421 C   0  0  0  0  0  0
  -24.3576   -9.4191   21.9186 C   0  0  0  0  0  0
  -23.6258   -8.2230   22.0751 C   0  0  0  0  0  0
  -22.4237   -8.0271   21.3542 C   0  0  0  0  0  0
  -21.9868   -9.0244   20.4646 C   0  0  0  0  0  0
  -22.7194  -10.2119   20.3059 C   0  0  0  0  0  0
  -21.6848   -6.0729   22.5280 C   0  0  0  0  0  0
  -21.4022   -6.5636   23.8214 C   0  0  0  0  0  0
  -21.3647   -5.6781   24.9172 C   0  0  0  0  0  0
  -21.6030   -4.3044   24.7220 C   0  0  0  0  0  0
  -21.8829   -3.8140   23.4347 C   0  0  0  0  0  0
  -21.9193   -4.6959   22.3402 C   0  0  0  0  0  0
  -22.7915  -13.5251   21.1820 C   0  0  0  0  0  0
  -22.1661   -4.2149   21.0978 F   0  0  0  0  0  0
  -21.5610   -3.4526   25.7731 F   0  0  0  0  0  0
  -30.0365  -13.3200   20.4401 N   0  0  0  0  0  0
  -26.3011  -12.9069   20.3222 N   0  0  0  0  0  0
  -25.9252  -11.6291   20.5700 N   0  0  0  0  0  0
  -22.0512  -12.8288   22.0387 N   0  0  0  0  0  0
  -25.4457  -15.1751   20.4073 N   0  0  0  0  0  0
  -31.7951  -14.7391   20.2548 O   0  0  0  0  0  0
  -21.6615   -6.8863   21.4234 O   0  0  0  0  0  0
  -22.3635  -14.5565   20.6654 O   0  0  0  0  0  0
  -24.6134  -31.8690   23.2104 C   0  0  0  0  0  0
  -25.9030  -32.4831   23.8398 C   0  0  1  0  0  0
  -27.2432  -27.4408   20.1133 C   0  0  0  0  0  0
  -25.5899  -33.8621   24.2343 N   0  0  0  0  0  0
  -23.4035  -30.4925   21.5486 C   0  0  2  0  0  0
  -24.8554  -28.9541   20.1211 C   0  0  0  0  0  0
  -22.7411  -29.4674   22.4978 C   0  0  0  0  0  0
  -18.0276  -28.1386   22.8494 C   0  0  0  0  0  0
  -24.1482  -36.7316   23.2638 C   0  0  0  0  0  0
  -25.9314  -30.8362   21.3636 C   0  0  0  0  0  0
  -26.0116  -29.4655   20.7250 C   0  0  0  0  0  0
  -27.2096  -28.7148   20.7228 C   0  0  0  0  0  0
  -26.0784  -26.9506   19.4892 C   0  0  0  0  0  0
  -24.8825  -27.6920   19.5018 C   0  0  0  0  0  0
  -23.6167  -29.8209   20.1647 C   0  0  0  0  0  0
  -25.4097  -36.3112   24.0348 C   0  0  1  0  0  0
  -20.5866  -28.3672   23.1310 C   0  0  2  0  0  0
  -20.6761  -26.9403   22.5415 C   0  0  0  0  0  0
  -19.5740  -26.6393   21.5212 C   0  0  0  0  0  0
  -18.1924  -26.7933   22.1625 C   0  0  0  0  0  0
  -19.1525  -28.8842   23.2908 C   0  0  0  0  0  0
  -18.9454  -30.1447   23.8921 C   0  0  0  0  0  0
  -17.6457  -30.6589   24.0567 C   0  0  0  0  0  0
  -25.9023  -34.9476   23.5139 C   0  0  0  0  0  0
  -16.5349  -29.9095   23.6316 C   0  0  0  0  0  0
  -16.7267  -28.6509   23.0344 C   0  0  0  0  0  0
  -26.4470  -31.6593   25.0712 C   0  0  0  0  0  0
  -25.3759  -31.3677   26.1483 C   0  0  0  0  0  0
  -27.0294  -30.3041   24.6043 C   0  0  0  0  0  0
  -27.6053  -32.4302   25.7478 C   0  0  0  0  0  0
  -27.5578  -37.1816   24.8471 C   0  0  0  0  0  0
  -21.4138  -29.3052   22.3722 N   0  0  0  0  0  0
  -26.4288  -37.3798   23.9418 N   0  0  0  0  0  0
  -24.6677  -31.0798   22.1003 N   0  0  0  0  0  0
  -23.4183  -28.8204   23.3016 O   0  0  0  0  0  0
  -28.4082  -26.7122   20.0443 O   0  0  0  0  0  0
  -26.5577  -34.8931   22.4695 O   0  0  0  0  0  0
  -23.5321  -32.1439   23.7496 O   0  0  0  0  0  0
  -30.2217  -19.6029   20.4529 C   0  0  0  0  0  0
  -30.1966  -18.4301   22.5552 C   0  0  0  0  0  0
  -30.1036  -18.3845   21.1530 C   0  0  0  0  0  0
  -30.2267  -20.8163   21.1713 C   0  0  0  0  0  0
  -30.1234  -20.7532   22.5712 C   0  0  0  0  0  0
  -32.1053  -23.6955   19.3044 C   0  0  0  0  0  0
  -32.7953  -22.8431   20.3437 C   0  0  0  0  0  0
  -29.4149  -17.2354   20.4695 C   0  0  2  0  0  0
  -30.2094  -22.1586   20.4386 C   0  0  2  0  0  0
  -29.5547  -15.7058   20.5138 C   0  0  1  0  0  0
  -31.5287  -22.3463   19.6818 C   0  0  0  0  0  0
  -29.7537  -23.3815   21.3192 C   0  0  2  0  0  0
  -29.7812  -22.0209   23.3646 C   0  0  0  0  0  0
  -29.7187  -16.5647   19.1983 C   0  0  0  0  0  0
  -31.0140  -22.6155   24.0642 C   0  0  0  0  0  0
  -28.6765  -21.7287   24.4001 C   0  0  0  0  0  0
  -31.0431  -16.9322   18.5288 C   0  0  0  0  0  0
  -28.6426  -16.4852   18.1281 C   0  0  0  0  0  0
  -27.3714  -23.6518   20.4019 C   0  0  0  0  0  0
  -28.6454  -25.7610   21.0946 C   0  0  0  0  0  0
  -28.7635  -24.3108   20.5420 C   0  0  2  0  0  0
  -30.2204  -19.5869   23.2523 N   0  0  0  0  0  0
  -29.1208  -22.9911   22.5398 O   0  0  0  0  0  0
  -31.4999  -12.4957   19.1214 H   0  0  0  0  0  0
  -30.4162  -11.3338   19.8338 H   0  0  0  0  0  0
  -29.7816  -11.7615   17.4417 H   0  0  0  0  0  0
  -29.6539  -13.4679   17.7521 H   0  0  0  0  0  0
  -27.8742  -11.2500   18.8340 H   0  0  0  0  0  0
  -27.3827  -12.5463   17.7784 H   0  0  0  0  0  0
  -27.6683  -14.1764   19.4818 H   0  0  0  0  0  0
  -28.7184  -11.9213   21.2991 H   0  0  0  0  0  0
  -28.4671  -13.5307   21.8732 H   0  0  0  0  0  0
  -25.2724   -9.5677   22.4742 H   0  0  0  0  0  0
  -23.9969   -7.4633   22.7478 H   0  0  0  0  0  0
  -21.0795   -8.8776   19.8967 H   0  0  0  0  0  0
  -22.3662  -10.9659   19.6167 H   0  0  0  0  0  0
  -21.2036   -7.6145   23.9727 H   0  0  0  0  0  0
  -21.1441   -6.0500   25.9071 H   0  0  0  0  0  0
  -22.0620   -2.7605   23.2843 H   0  0  0  0  0  0
  -22.4069  -11.9954   22.4815 H   0  0  0  0  0  0
  -21.1146  -13.1375   22.2549 H   0  0  0  0  0  0
  -24.6837  -15.8326   20.5337 H   0  0  0  0  0  0
  -26.2976  -15.6160   20.0880 H   0  0  0  0  0  0
  -26.7106  -32.5564   23.1170 H   0  0  0  0  0  0
  -25.0097  -33.9771   25.0519 H   0  0  0  0  0  0
  -22.6926  -31.3095   21.4049 H   0  0  0  0  0  0
  -23.3737  -35.9659   23.3309 H   0  0  0  0  0  0
  -24.3583  -36.8907   22.2052 H   0  0  0  0  0  0
  -23.7240  -37.6530   23.6633 H   0  0  0  0  0  0
  -26.0364  -31.5935   20.5848 H   0  0  0  0  0  0
  -26.8226  -30.9005   21.9758 H   0  0  0  0  0  0
  -28.1066  -29.1126   21.1759 H   0  0  0  0  0  0
  -26.0976  -26.0075   18.9692 H   0  0  0  0  0  0
  -24.0001  -27.2951   19.0200 H   0  0  0  0  0  0
  -23.7306  -30.5944   19.4046 H   0  0  0  0  0  0
  -22.7412  -29.2428   19.8630 H   0  0  0  0  0  0
  -25.1270  -36.1987   25.0843 H   0  0  0  0  0  0
  -20.9970  -28.3239   24.1426 H   0  0  0  0  0  0
  -20.5654  -26.2283   23.3612 H   0  0  0  0  0  0
  -21.6636  -26.7449   22.1211 H   0  0  0  0  0  0
  -19.6892  -25.6308   21.1230 H   0  0  0  0  0  0
  -19.6664  -27.3213   20.6750 H   0  0  0  0  0  0
  -17.4190  -26.6691   21.4029 H   0  0  0  0  0  0
  -18.0314  -26.0077   22.9019 H   0  0  0  0  0  0
  -19.7934  -30.7262   24.2296 H   0  0  0  0  0  0
  -17.5014  -31.6267   24.5182 H   0  0  0  0  0  0
  -15.5349  -30.3009   23.7627 H   0  0  0  0  0  0
  -15.8670  -28.0842   22.7035 H   0  0  0  0  0  0
  -24.5948  -30.6991   25.7846 H   0  0  0  0  0  0
  -24.8938  -32.2819   26.4945 H   0  0  0  0  0  0
  -25.8158  -30.8867   27.0226 H   0  0  0  0  0  0
  -26.2811  -29.6808   24.1132 H   0  0  0  0  0  0
  -27.4127  -29.7262   25.4459 H   0  0  0  0  0  0
  -27.8616  -30.4374   23.9130 H   0  0  0  0  0  0
  -27.2671  -33.3590   26.2076 H   0  0  0  0  0  0
  -28.3858  -32.6870   25.0306 H   0  0  0  0  0  0
  -28.0719  -31.8411   26.5379 H   0  0  0  0  0  0
  -28.2615  -38.0096   24.7510 H   0  0  0  0  0  0
  -28.1056  -36.2631   24.6305 H   0  0  0  0  0  0
  -27.2303  -37.1481   25.8878 H   0  0  0  0  0  0
  -20.9288  -29.8803   21.6974 H   0  0  0  0  0  0
  -26.0177  -38.2879   24.1416 H   0  0  0  0  0  0
  -30.1340  -19.6245   19.3764 H   0  0  0  0  0  0
  -30.0573  -17.5340   23.1406 H   0  0  0  0  0  0
  -32.5834  -23.7782   18.3299 H   0  0  0  0  0  0
  -31.6055  -24.6000   19.6450 H   0  0  0  0  0  0
  -32.7542  -23.1917   21.3709 H   0  0  0  0  0  0
  -33.7198  -22.3382   20.0696 H   0  0  0  0  0  0
  -28.3742  -17.5530   20.5414 H   0  0  0  0  0  0
  -29.4652  -22.0210   19.6548 H   0  0  0  0  0  0
  -28.5849  -15.4103   20.8852 H   0  0  0  0  0  0
  -31.6825  -21.5736   18.9307 H   0  0  0  0  0  0
  -30.6237  -23.9623   21.6200 H   0  0  0  0  0  0
  -31.4327  -21.9027   24.7746 H   0  0  0  0  0  0
  -30.7601  -23.5209   24.6139 H   0  0  0  0  0  0
  -31.8042  -22.8639   23.3626 H   0  0  0  0  0  0
  -29.0083  -21.0095   25.1487 H   0  0  0  0  0  0
  -27.7912  -21.3131   23.9186 H   0  0  0  0  0  0
  -28.3720  -22.6321   24.9290 H   0  0  0  0  0  0
  -31.8133  -17.1547   19.2684 H   0  0  0  0  0  0
  -30.9291  -17.8146   17.8990 H   0  0  0  0  0  0
  -31.3938  -16.1104   17.9043 H   0  0  0  0  0  0
  -27.6640  -16.2936   18.5679 H   0  0  0  0  0  0
  -28.8657  -15.6933   17.4141 H   0  0  0  0  0  0
  -28.5763  -17.4292   17.5854 H   0  0  0  0  0  0
  -26.7999  -23.7228   21.3274 H   0  0  0  0  0  0
  -27.4302  -22.5949   20.1474 H   0  0  0  0  0  0
  -26.7887  -24.1169   19.6132 H   0  0  0  0  0  0
  -29.5860  -26.0540   21.5605 H   0  0  0  0  0  0
  -27.8940  -25.8206   21.8838 H   0  0  0  0  0  0
  -29.1810  -24.4116   19.5396 H   0  0  0  0  0  0
  1 25  1  0  0  0
  1 30  2  0  0  0
  1 80  1  0  0  0
  2  3  1  0  0  0
  2 25  1  0  0  0
  2 94  1  0  0  0
  2 95  1  0  0  0
  3  4  1  0  0  0
  3 96  1  0  0  0
  3 97  1  0  0  0
  4  5  1  0  0  0
  4 98  1  0  0  0
  4 99  1  0  0  0
  5  6  1  0  0  0
  5 26  1  0  0  0
  5100  1  0  0  0
  6 25  1  0  0  0
  6101  1  0  0  0
  6102  1  0  0  0
  7  8  2  0  0  0
  7 26  1  0  0  0
  7 29  1  0  0  0
  8  9  1  0  0  0
  8 22  1  0  0  0
  9 10  1  0  0  0
  9 27  2  0  0  0
 10 11  2  0  0  0
 10 15  1  0  0  0
 11 12  1  0  0  0
 11103  1  0  0  0
 12 13  2  0  0  0
 12104  1  0  0  0
 13 14  1  0  0  0
 13 31  1  0  0  0
 14 15  2  0  0  0
 14105  1  0  0  0
 15106  1  0  0  0
 16 17  2  0  0  0
 16 21  1  0  0  0
 16 31  1  0  0  0
 17 18  1  0  0  0
 17107  1  0  0  0
 18 19  2  0  0  0
 18108  1  0  0  0
 19 20  1  0  0  0
 19 24  1  0  0  0
 20 21  2  0  0  0
 20109  1  0  0  0
 21 23  1  0  0  0
 22 28  1  0  0  0
 22 32  2  0  0  0
 26 27  1  0  0  0
 28110  1  0  0  0
 28111  1  0  0  0
 29112  1  0  0  0
 29113  1  0  0  0
 33 34  1  0  0  0
 33 66  1  0  0  0
 33 70  2  0  0  0
 34 36  1  0  0  0
 34 59  1  0  0  0
 34114  1  0  0  0
 35 44  2  0  0  0
 35 45  1  0  0  0
 35 68  1  0  0  0
 36 56  1  0  0  0
 36115  1  0  0  0
 37 39  1  0  0  0
 37 47  1  0  0  0
 37 66  1  0  0  0
 37116  1  0  0  0
 38 43  2  0  0  0
 38 46  1  0  0  0
 38 47  1  0  0  0
 39 64  1  0  0  0
 39 67  2  0  0  0
 40 52  1  0  0  0
 40 53  2  0  0  0
 40 58  1  0  0  0
 41117  1  0  0  0
 41118  1  0  0  0
 41119  1  0  0  0
 41 48  1  0  0  0
 42 43  1  0  0  0
 42 66  1  0  0  0
 42120  1  0  0  0
 42121  1  0  0  0
 43 44  1  0  0  0
 44122  1  0  0  0
 45 46  2  0  0  0
 45123  1  0  0  0
 46124  1  0  0  0
 47125  1  0  0  0
 47126  1  0  0  0
 48 56  1  0  0  0
 48 65  1  0  0  0
 48127  1  0  0  0
 49 50  1  0  0  0
 49 53  1  0  0  0
 49 64  1  0  0  0
 49128  1  0  0  0
 50 51  1  0  0  0
 50129  1  0  0  0
 50130  1  0  0  0
 51 52  1  0  0  0
 51131  1  0  0  0
 51132  1  0  0  0
 52133  1  0  0  0
 52134  1  0  0  0
 53 54  1  0  0  0
 54 55  2  0  0  0
 54135  1  0  0  0
 55 57  1  0  0  0
 55136  1  0  0  0
 56 69  2  0  0  0
 57 58  2  0  0  0
 57137  1  0  0  0
 58138  1  0  0  0
 59 60  1  0  0  0
 59 61  1  0  0  0
 59 62  1  0  0  0
 60139  1  0  0  0
 60140  1  0  0  0
 60141  1  0  0  0
 61142  1  0  0  0
 61143  1  0  0  0
 61144  1  0  0  0
 62145  1  0  0  0
 62146  1  0  0  0
 62147  1  0  0  0
 63 65  1  0  0  0
 63148  1  0  0  0
 63149  1  0  0  0
 63150  1  0  0  0
 64151  1  0  0  0
 65152  1  0  0  0
 68 90  1  0  0  0
 71 73  2  0  0  0
 71 74  1  0  0  0
 71153  1  0  0  0
 72 73  1  0  0  0
 72 92  2  0  0  0
 72154  1  0  0  0
 73 78  1  0  0  0
 74 75  2  0  0  0
 74 79  1  0  0  0
 75 83  1  0  0  0
 75 92  1  0  0  0
 76 77  1  0  0  0
 76155  1  0  0  0
 76156  1  0  0  0
 76 81  1  0  0  0
 77 81  1  0  0  0
 77157  1  0  0  0
 77158  1  0  0  0
 78 80  1  0  0  0
 78 84  1  0  0  0
 78159  1  0  0  0
 79 81  1  0  0  0
 79 82  1  0  0  0
 79160  1  0  0  0
 80 84  1  0  0  0
 80161  1  0  0  0
 81162  1  0  0  0
 82 91  1  0  0  0
 82 93  1  0  0  0
 82163  1  0  0  0
 83 85  1  0  0  0
 83 86  1  0  0  0
 83 93  1  0  0  0
 84 87  1  0  0  0
 84 88  1  0  0  0
 85164  1  0  0  0
 85165  1  0  0  0
 85166  1  0  0  0
 86167  1  0  0  0
 86168  1  0  0  0
 86169  1  0  0  0
 87170  1  0  0  0
 87171  1  0  0  0
 87172  1  0  0  0
 88173  1  0  0  0
 88174  1  0  0  0
 88175  1  0  0  0
 89176  1  0  0  0
 89177  1  0  0  0
 89178  1  0  0  0
 89 91  1  0  0  0
 90 91  1  0  0  0
 90179  1  0  0  0
 90180  1  0  0  0
 91181  1  0  0  0
M  ISO  4   1 100  68 101  80 100  90 101
M  END
> <chiral flag>
0

> <version>
0

> <s_m_source_file>
/data/baiqing/PycharmProjects/Reinvent-master-3.2/result/LINK_invent/BTK/process_docking_weight1_custom_sum_contain_oxygen_bond_distance_aromatic_linkinvent_7_9_3/rearranged_h_0175.sdf

> <i_m_source_file_index>
76

> <r_mmod_Potential_Energy-OPLS-2005>
189.550933837891

> <r_mmod_Stretch_Energy-OPLS-2005>
54.1773529052734

> <r_mmod_Bend_Energy-OPLS-2005>
226.982543945312

> <r_mmod_Torsional_Energy-OPLS-2005>
328.263793945312

> <r_mmod_Improper_Torsional_Energy-OPLS-2005>
14.2696361541748

> <r_mmod_Van_der_Waal_Energy-OPLS-2005>
153.78938293457

> <r_mmod_Electrostatic_Energy-OPLS-2005>
-419.538604736328

> <r_mmod_Solvation_Energy-OPLS-2005>
-194.465148925781

> <b_mmod_Minimization_Converged-OPLS-2005>
0

> <r_mmod_RMS_Derivative-OPLS-2005>
2.01297187805176

$$$$
76
                    3D
 Structure written by MMmdl.
162171  0  0  1  0            999 V2000
  -30.6696  -14.5754   20.5430 C   0  0  0  0  0  0
  -30.4250  -12.3649   19.4438 C   0  0  0  0  0  0
  -29.4960  -12.4956   18.2189 C   0  0  0  0  0  0
  -28.0206  -12.3363   18.6359 C   0  0  0  0  0  0
  -27.6492  -13.2117   19.8622 C   0  0  2  0  0  0
  -28.6934  -13.0677   20.9919 C   0  0  0  0  0  0
  -25.2550  -13.8174   20.5708 C   0  0  0  0  0  0
  -24.1812  -13.0449   20.9221 C   0  0  0  0  0  0
  -24.6380  -11.6914   20.8780 C   0  0  0  0  0  0
  -23.9058  -10.4299   21.0428 C   0  0  0  0  0  0
  -24.3613   -9.4210   21.9201 C   0  0  0  0  0  0
  -23.6296   -8.2241   22.0753 C   0  0  0  0  0  0
  -22.4277   -8.0279   21.3546 C   0  0  0  0  0  0
  -21.9921   -9.0253   20.4644 C   0  0  0  0  0  0
  -22.7240  -10.2137   20.3068 C   0  0  0  0  0  0
  -21.6853   -6.0742   22.5287 C   0  0  0  0  0  0
  -21.4008   -6.5646   23.8216 C   0  0  0  0  0  0
  -21.3658   -5.6801   24.9182 C   0  0  0  0  0  0
  -21.6039   -4.3064   24.7236 C   0  0  0  0  0  0
  -21.8816   -3.8154   23.4359 C   0  0  0  0  0  0
  -21.9189   -4.6972   22.3413 C   0  0  0  0  0  0
  -22.7836  -13.5251   21.1858 C   0  0  0  0  0  0
  -22.1657   -4.2156   21.0992 F   0  0  0  0  0  0
  -21.5631   -3.4548   25.7748 F   0  0  0  0  0  0
  -30.0084  -13.3857   20.4211 N   0  0  0  0  0  0
  -26.2965  -12.9342   20.3344 N   0  0  0  0  0  0
  -25.9302  -11.6505   20.5798 N   0  0  0  0  0  0
  -22.0471  -12.8240   22.0400 N   0  0  0  0  0  0
  -25.4306  -15.1893   20.4081 N   0  0  0  0  0  0
  -31.8384  -14.6980   20.1633 O   0  0  0  0  0  0
  -21.6633   -6.8881   21.4243 O   0  0  0  0  0  0
  -22.3530  -14.5553   20.6689 O   0  0  0  0  0  0
  -24.6143  -31.8662   23.2072 C   0  0  0  0  0  0
  -25.9012  -32.4827   23.8375 C   0  0  1  0  0  0
  -27.2267  -27.3917   20.1024 C   0  0  0  0  0  0
  -25.5864  -33.8633   24.2300 N   0  0  0  0  0  0
  -23.4061  -30.4843   21.5520 C   0  0  2  0  0  0
  -24.8536  -28.9448   20.1174 C   0  0  0  0  0  0
  -22.7414  -29.4602   22.5013 C   0  0  0  0  0  0
  -18.0258  -28.1377   22.8470 C   0  0  0  0  0  0
  -24.1487  -36.7321   23.2635 C   0  0  0  0  0  0
  -25.9393  -30.8202   21.3626 C   0  0  0  0  0  0
  -26.0169  -29.4501   20.7105 C   0  0  0  0  0  0
  -27.2102  -28.6842   20.6912 C   0  0  0  0  0  0
  -26.0481  -26.9132   19.4970 C   0  0  0  0  0  0
  -24.8662  -27.6792   19.5062 C   0  0  0  0  0  0
  -23.6148  -29.8139   20.1684 C   0  0  0  0  0  0
  -25.4114  -36.3127   24.0325 C   0  0  1  0  0  0
  -20.5841  -28.3635   23.1346 C   0  0  2  0  0  0
  -20.6755  -26.9371   22.5435 C   0  0  0  0  0  0
  -19.5740  -26.6374   21.5225 C   0  0  0  0  0  0
  -18.1906  -26.7928   22.1612 C   0  0  0  0  0  0
  -19.1502  -28.8828   23.2897 C   0  0  0  0  0  0
  -18.9439  -30.1436   23.8897 C   0  0  0  0  0  0
  -17.6444  -30.6582   24.0541 C   0  0  0  0  0  0
  -25.9042  -34.9480   23.5128 C   0  0  0  0  0  0
  -16.5328  -29.9071   23.6335 C   0  0  0  0  0  0
  -16.7247  -28.6493   23.0346 C   0  0  0  0  0  0
  -26.4431  -31.6631   25.0718 C   0  0  0  0  0  0
  -25.3669  -31.3755   26.1454 C   0  0  0  0  0  0
  -27.0277  -30.3080   24.6114 C   0  0  0  0  0  0
  -27.6033  -32.4335   25.7452 C   0  0  0  0  0  0
  -27.5590  -37.1800   24.8453 C   0  0  0  0  0  0
  -21.4134  -29.3004   22.3775 N   0  0  0  0  0  0
  -26.4302  -37.3807   23.9404 N   0  0  0  0  0  0
  -24.6724  -31.0705   22.0997 N   0  0  0  0  0  0
  -23.4178  -28.8130   23.3046 O   0  0  0  0  0  0
  -28.3808  -26.6276   20.0723 O   0  0  0  0  0  0
  -26.5630  -34.8917   22.4697 O   0  0  0  0  0  0
  -23.5323  -32.1405   23.7454 O   0  0  0  0  0  0
  -29.8183  -18.1564   20.6947 C   0  0  0  0  0  0
  -31.7072  -18.2552   22.6639 C   0  0  0  0  0  0
  -30.2933  -19.4560   21.0834 C   0  0  0  0  0  0
  -31.2874  -19.4697   22.0955 C   0  0  0  0  0  0
  -30.3551  -16.9603   21.2803 C   0  0  0  0  0  0
  -29.4099  -20.6666   18.9069 C   0  0  0  0  0  0
  -28.9609  -22.1043   18.5472 C   0  0  0  0  0  0
  -29.9522  -20.7895   20.3309 C   0  0  1  0  0  0
  -28.9901  -21.8998   20.8932 C   0  0  1  0  0  0
  -29.3383  -22.5082   22.2600 C   0  0  0  0  0  0
  -28.0157  -24.0792   19.7777 C   0  0  0  0  0  0
  -28.3434  -25.3124   20.6953 C   0  0  0  0  0  0
  -31.2634  -17.0452   22.2741 N   0  0  0  0  0  0
  -29.9064  -15.6612   20.8585 N   0  0  0  0  0  0
  -28.9927  -22.9198   19.7915 N   0  3  2  0  0  0
  -32.0887  -20.9139   22.6108 Cl  0  0  0  0  0  0
  -31.4686  -12.4778   19.1434 H   0  0  0  0  0  0
  -30.3472  -11.3712   19.8870 H   0  0  0  0  0  0
  -29.7557  -11.7473   17.4689 H   0  0  0  0  0  0
  -29.6398  -13.4689   17.7463 H   0  0  0  0  0  0
  -27.8579  -11.2838   18.8734 H   0  0  0  0  0  0
  -27.3624  -12.5645   17.7973 H   0  0  0  0  0  0
  -27.6675  -14.2447   19.5152 H   0  0  0  0  0  0
  -28.6982  -12.0511   21.3890 H   0  0  0  0  0  0
  -28.4509  -13.7173   21.8353 H   0  0  0  0  0  0
  -25.2757   -9.5687   22.4779 H   0  0  0  0  0  0
  -24.0009   -7.4630   22.7471 H   0  0  0  0  0  0
  -21.0860   -8.8773   19.8944 H   0  0  0  0  0  0
  -22.3709  -10.9678   19.6176 H   0  0  0  0  0  0
  -21.1989   -7.6152   23.9725 H   0  0  0  0  0  0
  -21.1484   -6.0532   25.9085 H   0  0  0  0  0  0
  -22.0594   -2.7617   23.2862 H   0  0  0  0  0  0
  -22.4072  -11.9898   22.4793 H   0  0  0  0  0  0
  -21.1076  -13.1246   22.2563 H   0  0  0  0  0  0
  -24.6673  -15.8503   20.5069 H   0  0  0  0  0  0
  -26.2734  -15.6168   20.0465 H   0  0  0  0  0  0
  -26.7053  -32.5528   23.1106 H   0  0  0  0  0  0
  -24.9999  -33.9819   25.0434 H   0  0  0  0  0  0
  -22.6929  -31.2998   21.4098 H   0  0  0  0  0  0
  -23.3772  -35.9635   23.3297 H   0  0  0  0  0  0
  -24.3578  -36.8962   22.2055 H   0  0  0  0  0  0
  -23.7212  -37.6499   23.6669 H   0  0  0  0  0  0
  -26.0487  -31.5806   20.5880 H   0  0  0  0  0  0
  -26.8301  -30.8819   21.9754 H   0  0  0  0  0  0
  -28.1140  -29.0749   21.1363 H   0  0  0  0  0  0
  -26.0409  -25.9536   19.0008 H   0  0  0  0  0  0
  -23.9706  -27.2896   19.0431 H   0  0  0  0  0  0
  -23.7167  -30.5899   19.4090 H   0  0  0  0  0  0
  -22.7388  -29.2327   19.8741 H   0  0  0  0  0  0
  -25.1286  -36.1998   25.0820 H   0  0  0  0  0  0
  -20.9899  -28.3190   24.1484 H   0  0  0  0  0  0
  -20.5696  -26.2219   23.3607 H   0  0  0  0  0  0
  -21.6622  -26.7451   22.1190 H   0  0  0  0  0  0
  -19.6910  -25.6301   21.1223 H   0  0  0  0  0  0
  -19.6708  -27.3214   20.6784 H   0  0  0  0  0  0
  -17.4190  -26.6667   21.4001 H   0  0  0  0  0  0
  -18.0276  -26.0090   22.9024 H   0  0  0  0  0  0
  -19.7915  -30.7236   24.2271 H   0  0  0  0  0  0
  -17.4999  -31.6262   24.5142 H   0  0  0  0  0  0
  -15.5326  -30.2960   23.7697 H   0  0  0  0  0  0
  -15.8639  -28.0808   22.7085 H   0  0  0  0  0  0
  -24.5821  -30.7138   25.7762 H   0  0  0  0  0  0
  -24.8861  -32.2926   26.4880 H   0  0  0  0  0  0
  -25.7962  -30.8902   27.0231 H   0  0  0  0  0  0
  -26.2852  -29.6836   24.1135 H   0  0  0  0  0  0
  -27.4031  -29.7312   25.4581 H   0  0  0  0  0  0
  -27.8675  -30.4423   23.9291 H   0  0  0  0  0  0
  -27.2708  -33.3654   26.2024 H   0  0  0  0  0  0
  -28.3824  -32.6867   25.0253 H   0  0  0  0  0  0
  -28.0711  -31.8451   26.5353 H   0  0  0  0  0  0
  -28.2585  -38.0117   24.7559 H   0  0  0  0  0  0
  -28.1106  -36.2659   24.6214 H   0  0  0  0  0  0
  -27.2311  -37.1379   25.8850 H   0  0  0  0  0  0
  -20.9306  -29.8722   21.6985 H   0  0  0  0  0  0
  -26.0200  -38.2883   24.1425 H   0  0  0  0  0  0
  -29.0981  -18.0663   19.8949 H   0  0  0  0  0  0
  -32.4635  -18.2494   23.4358 H   0  0  0  0  0  0
  -30.1464  -20.2674   18.2098 H   0  0  0  0  0  0
  -28.5423  -20.0066   18.8902 H   0  0  0  0  0  0
  -27.9510  -22.0769   18.1338 H   0  0  0  0  0  0
  -29.6102  -22.5525   17.7949 H   0  0  0  0  0  0
  -30.9277  -21.2645   20.2086 H   0  0  0  0  0  0
  -27.9872  -21.4751   20.9707 H   0  0  0  0  0  0
  -30.2659  -23.0798   22.2300 H   0  0  0  0  0  0
  -29.4374  -21.7346   23.0208 H   0  0  0  0  0  0
  -28.5484  -23.1748   22.6034 H   0  0  0  0  0  0
  -27.9974  -24.4626   18.7560 H   0  0  0  0  0  0
  -27.0061  -23.7176   19.9730 H   0  0  0  0  0  0
  -29.3261  -25.1760   21.1449 H   0  0  0  0  0  0
  -27.6476  -25.3310   21.5364 H   0  0  0  0  0  0
  -28.9151  -15.4992   20.9237 H   0  0  0  0  0  0
  -29.9167  -23.3297   19.7964 H   0  0  0  0  0  0
  1 25  1  0  0  0
  1 30  2  0  0  0
  1 84  1  0  0  0
  2  3  1  0  0  0
  2 25  1  0  0  0
  2 87  1  0  0  0
  2 88  1  0  0  0
  3  4  1  0  0  0
  3 89  1  0  0  0
  3 90  1  0  0  0
  4  5  1  0  0  0
  4 91  1  0  0  0
  4 92  1  0  0  0
  5  6  1  0  0  0
  5 26  1  0  0  0
  5 93  1  0  0  0
  6 25  1  0  0  0
  6 94  1  0  0  0
  6 95  1  0  0  0
  7  8  2  0  0  0
  7 26  1  0  0  0
  7 29  1  0  0  0
  8  9  1  0  0  0
  8 22  1  0  0  0
  9 10  1  0  0  0
  9 27  2  0  0  0
 10 11  2  0  0  0
 10 15  1  0  0  0
 11 12  1  0  0  0
 11 96  1  0  0  0
 12 13  2  0  0  0
 12 97  1  0  0  0
 13 14  1  0  0  0
 13 31  1  0  0  0
 14 15  2  0  0  0
 14 98  1  0  0  0
 15 99  1  0  0  0
 16 17  2  0  0  0
 16 21  1  0  0  0
 16 31  1  0  0  0
 17 18  1  0  0  0
 17100  1  0  0  0
 18 19  2  0  0  0
 18101  1  0  0  0
 19 20  1  0  0  0
 19 24  1  0  0  0
 20 21  2  0  0  0
 20102  1  0  0  0
 21 23  1  0  0  0
 22 28  1  0  0  0
 22 32  2  0  0  0
 26 27  1  0  0  0
 28103  1  0  0  0
 28104  1  0  0  0
 29105  1  0  0  0
 29106  1  0  0  0
 33 34  1  0  0  0
 33 66  1  0  0  0
 33 70  2  0  0  0
 34 36  1  0  0  0
 34 59  1  0  0  0
 34107  1  0  0  0
 35 44  2  0  0  0
 35 45  1  0  0  0
 35 68  1  0  0  0
 36 56  1  0  0  0
 36108  1  0  0  0
 37 39  1  0  0  0
 37 47  1  0  0  0
 37 66  1  0  0  0
 37109  1  0  0  0
 38 43  2  0  0  0
 38 46  1  0  0  0
 38 47  1  0  0  0
 39 64  1  0  0  0
 39 67  2  0  0  0
 40 52  1  0  0  0
 40 53  2  0  0  0
 40 58  1  0  0  0
 41110  1  0  0  0
 41111  1  0  0  0
 41112  1  0  0  0
 41 48  1  0  0  0
 42 43  1  0  0  0
 42 66  1  0  0  0
 42113  1  0  0  0
 42114  1  0  0  0
 43 44  1  0  0  0
 44115  1  0  0  0
 45 46  2  0  0  0
 45116  1  0  0  0
 46117  1  0  0  0
 47118  1  0  0  0
 47119  1  0  0  0
 48 56  1  0  0  0
 48 65  1  0  0  0
 48120  1  0  0  0
 49 50  1  0  0  0
 49 53  1  0  0  0
 49 64  1  0  0  0
 49121  1  0  0  0
 50 51  1  0  0  0
 50122  1  0  0  0
 50123  1  0  0  0
 51 52  1  0  0  0
 51124  1  0  0  0
 51125  1  0  0  0
 52126  1  0  0  0
 52127  1  0  0  0
 53 54  1  0  0  0
 54 55  2  0  0  0
 54128  1  0  0  0
 55 57  1  0  0  0
 55129  1  0  0  0
 56 69  2  0  0  0
 57 58  2  0  0  0
 57130  1  0  0  0
 58131  1  0  0  0
 59 60  1  0  0  0
 59 61  1  0  0  0
 59 62  1  0  0  0
 60132  1  0  0  0
 60133  1  0  0  0
 60134  1  0  0  0
 61135  1  0  0  0
 61136  1  0  0  0
 61137  1  0  0  0
 62138  1  0  0  0
 62139  1  0  0  0
 62140  1  0  0  0
 63 65  1  0  0  0
 63141  1  0  0  0
 63142  1  0  0  0
 63143  1  0  0  0
 64144  1  0  0  0
 65145  1  0  0  0
 68 82  1  0  0  0
 71 73  2  0  0  0
 71 75  1  0  0  0
 71146  1  0  0  0
 72 74  2  0  0  0
 72 83  1  0  0  0
 72147  1  0  0  0
 73 74  1  0  0  0
 73 78  1  0  0  0
 74 86  1  0  0  0
 75 83  2  0  0  0
 75 84  1  0  0  0
 76 77  1  0  0  0
 76 78  1  0  0  0
 76148  1  0  0  0
 76149  1  0  0  0
 77 85  1  0  0  0
 77150  1  0  0  0
 77151  1  0  0  0
 78 79  1  0  0  0
 78152  1  0  0  0
 79 80  1  0  0  0
 79 85  1  0  0  0
 79153  1  0  0  0
 80154  1  0  0  0
 80155  1  0  0  0
 80156  1  0  0  0
 81 82  1  0  0  0
 81157  1  0  0  0
 81158  1  0  0  0
 81 85  1  0  0  0
 82159  1  0  0  0
 82160  1  0  0  0
 84161  1  0  0  0
 85162  1  0  0  0
M  CHG  1  85   1
M  ISO  4   1 100  68 101  82 101  84 100
M  END
> <chiral flag>
0

> <version>
0

> <s_m_source_file>
/data/baiqing/PycharmProjects/Reinvent-master-3.2/result/LINK_invent/BTK/process_docking_weight1_custom_sum_contain_oxygen_bond_distance_aromatic_linkinvent_7_9_3/rearranged_h_0175.sdf

> <i_m_source_file_index>
77

> <r_mmod_Potential_Energy-OPLS-2005>
-76.6417770385742

> <r_mmod_Stretch_Energy-OPLS-2005>
58.4355545043945

> <r_mmod_Bend_Energy-OPLS-2005>
172.42919921875

> <r_mmod_Torsional_Energy-OPLS-2005>
309.988494873047

> <r_mmod_Improper_Torsional_Energy-OPLS-2005>
7.18701076507568

> <r_mmod_Van_der_Waal_Energy-OPLS-2005>
143.646392822266

> <r_mmod_Electrostatic_Energy-OPLS-2005>
-332.345672607422

> <r_mmod_Solvation_Energy-OPLS-2005>
-462.447540283203

> <b_mmod_Minimization_Converged-OPLS-2005>
0

> <r_mmod_RMS_Derivative-OPLS-2005>
2.64778780937195

$$$$
77
                    3D
 Structure written by MMmdl.
159168  0  0  1  0            999 V2000
  -30.5971  -14.8997   20.4534 C   0  0  0  0  0  0
  -30.4423  -12.5663   19.4852 C   0  0  0  0  0  0
  -29.5210  -12.5340   18.2447 C   0  0  0  0  0  0
  -28.0475  -12.3430   18.6536 C   0  0  0  0  0  0
  -27.6352  -13.2499   19.8444 C   0  0  2  0  0  0
  -28.6872  -13.2185   20.9759 C   0  0  0  0  0  0
  -25.2427  -13.8211   20.5691 C   0  0  0  0  0  0
  -24.1767  -13.0409   20.9249 C   0  0  0  0  0  0
  -24.6407  -11.6918   20.8764 C   0  0  0  0  0  0
  -23.9091  -10.4287   21.0409 C   0  0  0  0  0  0
  -24.3646   -9.4199   21.9177 C   0  0  0  0  0  0
  -23.6313   -8.2235   22.0743 C   0  0  0  0  0  0
  -22.4289   -8.0283   21.3546 C   0  0  0  0  0  0
  -21.9929   -9.0252   20.4639 C   0  0  0  0  0  0
  -22.7266  -10.2129   20.3044 C   0  0  0  0  0  0
  -21.6841   -6.0727   22.5275 C   0  0  0  0  0  0
  -21.4013   -6.5625   23.8217 C   0  0  0  0  0  0
  -21.3666   -5.6774   24.9173 C   0  0  0  0  0  0
  -21.6041   -4.3034   24.7211 C   0  0  0  0  0  0
  -21.8822   -3.8131   23.4332 C   0  0  0  0  0  0
  -21.9194   -4.6957   22.3394 C   0  0  0  0  0  0
  -22.7786  -13.5181   21.1876 C   0  0  0  0  0  0
  -22.1670   -4.2146   21.0968 F   0  0  0  0  0  0
  -21.5637   -3.4521   25.7725 F   0  0  0  0  0  0
  -29.9605  -13.6571   20.3834 N   0  0  0  0  0  0
  -26.2904  -12.9471   20.3280 N   0  0  0  0  0  0
  -25.9346  -11.6590   20.5762 N   0  0  0  0  0  0
  -22.0441  -12.8187   22.0461 N   0  0  0  0  0  0
  -25.3937  -15.1930   20.4013 N   0  0  0  0  0  0
  -31.7870  -14.9287   20.1184 O   0  0  0  0  0  0
  -21.6647   -6.8878   21.4240 O   0  0  0  0  0  0
  -22.3453  -14.5455   20.6689 O   0  0  0  0  0  0
  -24.6407  -31.8450   23.1900 C   0  0  0  0  0  0
  -25.9184  -32.4709   23.8276 C   0  0  1  0  0  0
  -27.2162  -27.1432   20.1433 C   0  0  0  0  0  0
  -25.5947  -33.8519   24.2190 N   0  0  0  0  0  0
  -23.4454  -30.4672   21.5334 C   0  0  2  0  0  0
  -24.8981  -28.9038   20.1023 C   0  0  0  0  0  0
  -22.7561  -29.4547   22.4823 C   0  0  0  0  0  0
  -18.0307  -28.1401   22.8467 C   0  0  0  0  0  0
  -24.1499  -36.7272   23.2639 C   0  0  0  0  0  0
  -26.0024  -30.7197   21.3943 C   0  0  0  0  0  0
  -26.0716  -29.3334   20.7321 C   0  0  0  0  0  0
  -27.2254  -28.4652   20.7462 C   0  0  0  0  0  0
  -26.0122  -26.8197   19.4711 C   0  0  0  0  0  0
  -24.8820  -27.6613   19.4569 C   0  0  0  0  0  0
  -23.6734  -29.8026   20.1501 C   0  0  0  0  0  0
  -25.4133  -36.3044   24.0299 C   0  0  1  0  0  0
  -20.5919  -28.3731   23.1219 C   0  0  2  0  0  0
  -20.6802  -26.9431   22.5398 C   0  0  0  0  0  0
  -19.5781  -26.6382   21.5211 C   0  0  0  0  0  0
  -18.1952  -26.7937   22.1616 C   0  0  0  0  0  0
  -19.1566  -28.8884   23.2836 C   0  0  0  0  0  0
  -18.9483  -30.1476   23.8866 C   0  0  0  0  0  0
  -17.6483  -30.6596   24.0561 C   0  0  0  0  0  0
  -25.9068  -34.9414   23.5049 C   0  0  0  0  0  0
  -16.5372  -29.9089   23.6342 C   0  0  0  0  0  0
  -16.7292  -28.6510   23.0353 C   0  0  0  0  0  0
  -26.4500  -31.6589   25.0725 C   0  0  0  0  0  0
  -25.3664  -31.3806   26.1405 C   0  0  0  0  0  0
  -27.0382  -30.2982   24.6349 C   0  0  0  0  0  0
  -27.6018  -32.4369   25.7511 C   0  0  0  0  0  0
  -27.5573  -37.1795   24.8454 C   0  0  0  0  0  0
  -21.4256  -29.3056   22.3581 N   0  0  0  0  0  0
  -26.4295  -37.3750   23.9383 N   0  0  0  0  0  0
  -24.7157  -31.0306   22.0945 N   0  0  0  0  0  0
  -23.4208  -28.8075   23.2952 O   0  0  0  0  0  0
  -28.2674  -26.1612   20.2745 O   0  0  0  0  0  0
  -26.5650  -34.8898   22.4630 O   0  0  0  0  0  0
  -23.5525  -32.1324   23.7126 O   0  0  0  0  0  0
  -29.9448  -22.6530   19.9223 C   0  0  0  0  0  0
  -30.1787  -21.2188   20.0381 C   0  0  0  0  0  0
  -28.6679  -23.2807   20.1126 C   0  0  0  0  0  0
  -29.1270  -20.3052   20.3712 C   0  0  0  0  0  0
  -27.6972  -22.2904   20.4826 C   0  0  0  0  0  0
  -28.5439  -17.9674   21.6043 C   0  0  0  0  0  0
  -28.7223  -16.4207   21.4203 C   0  0  0  0  0  0
  -30.3227  -17.5704   20.1550 C   0  0  0  0  0  0
  -29.1225  -18.6499   20.3635 C   0  0  2  0  0  0
  -31.5613  -20.6771   19.7265 C   0  0  0  0  0  0
  -26.2537  -22.6982   20.6997 C   0  0  0  0  0  0
  -28.2946  -24.7910   19.5572 C   0  0  0  0  0  0
  -27.9217  -20.9231   20.5983 N   0  0  0  0  0  0
  -29.8945  -16.1400   20.5728 N   0  0  0  0  0  0
  -31.4755  -12.7160   19.1680 H   0  0  0  0  0  0
  -30.4367  -11.6034   19.9993 H   0  0  0  0  0  0
  -29.8265  -11.7351   17.5689 H   0  0  0  0  0  0
  -29.6320  -13.4647   17.6860 H   0  0  0  0  0  0
  -27.9145  -11.2960   18.9255 H   0  0  0  0  0  0
  -27.3932  -12.5197   17.7983 H   0  0  0  0  0  0
  -27.6092  -14.2650   19.4473 H   0  0  0  0  0  0
  -28.7758  -12.2119   21.3857 H   0  0  0  0  0  0
  -28.3923  -13.8425   21.8151 H   0  0  0  0  0  0
  -25.2799   -9.5665   22.4741 H   0  0  0  0  0  0
  -24.0008   -7.4620   22.7448 H   0  0  0  0  0  0
  -21.0859   -8.8785   19.8946 H   0  0  0  0  0  0
  -22.3739  -10.9668   19.6146 H   0  0  0  0  0  0
  -21.2013   -7.6135   23.9731 H   0  0  0  0  0  0
  -21.1492   -6.0493   25.9082 H   0  0  0  0  0  0
  -22.0601   -2.7588   23.2829 H   0  0  0  0  0  0
  -22.4048  -11.9876   22.4912 H   0  0  0  0  0  0
  -21.1036  -13.1197   22.2588 H   0  0  0  0  0  0
  -24.6177  -15.8355   20.5174 H   0  0  0  0  0  0
  -26.2260  -15.6417   20.0429 H   0  0  0  0  0  0
  -26.7240  -32.5316   23.0991 H   0  0  0  0  0  0
  -25.0085  -33.9644   25.0332 H   0  0  0  0  0  0
  -22.7460  -31.2925   21.3811 H   0  0  0  0  0  0
  -23.3746  -35.9622   23.3329 H   0  0  0  0  0  0
  -24.3574  -36.8884   22.2048 H   0  0  0  0  0  0
  -23.7276  -37.6479   23.6675 H   0  0  0  0  0  0
  -26.1643  -31.4756   20.6244 H   0  0  0  0  0  0
  -26.8693  -30.7650   22.0421 H   0  0  0  0  0  0
  -28.1120  -28.7854   21.2769 H   0  0  0  0  0  0
  -25.8617  -25.8744   18.9793 H   0  0  0  0  0  0
  -23.9831  -27.3289   18.9543 H   0  0  0  0  0  0
  -23.8082  -30.5797   19.3969 H   0  0  0  0  0  0
  -22.7904  -29.2417   19.8359 H   0  0  0  0  0  0
  -25.1332  -36.1880   25.0789 H   0  0  0  0  0  0
  -21.0011  -28.3344   24.1336 H   0  0  0  0  0  0
  -20.5720  -26.2345   23.3620 H   0  0  0  0  0  0
  -21.6666  -26.7437   22.1184 H   0  0  0  0  0  0
  -19.6941  -25.6281   21.1266 H   0  0  0  0  0  0
  -19.6730  -27.3167   20.6723 H   0  0  0  0  0  0
  -17.4225  -26.6663   21.4022 H   0  0  0  0  0  0
  -18.0356  -26.0093   22.9029 H   0  0  0  0  0  0
  -19.7966  -30.7299   24.2212 H   0  0  0  0  0  0
  -17.5044  -31.6274   24.5173 H   0  0  0  0  0  0
  -15.5373  -30.2992   23.7687 H   0  0  0  0  0  0
  -15.8684  -28.0828   22.7076 H   0  0  0  0  0  0
  -24.5822  -30.7189   25.7701 H   0  0  0  0  0  0
  -24.8874  -32.3008   26.4758 H   0  0  0  0  0  0
  -25.7895  -30.8996   27.0228 H   0  0  0  0  0  0
  -26.3014  -29.6692   24.1330 H   0  0  0  0  0  0
  -27.3947  -29.7304   25.4950 H   0  0  0  0  0  0
  -27.8945  -30.4212   23.9716 H   0  0  0  0  0  0
  -27.2581  -33.3676   26.2039 H   0  0  0  0  0  0
  -28.3841  -32.6919   25.0353 H   0  0  0  0  0  0
  -28.0673  -31.8538   26.5465 H   0  0  0  0  0  0
  -28.2583  -38.0095   24.7476 H   0  0  0  0  0  0
  -28.1068  -36.2610   24.6325 H   0  0  0  0  0  0
  -27.2272  -37.1495   25.8852 H   0  0  0  0  0  0
  -20.9461  -29.8785   21.6771 H   0  0  0  0  0  0
  -26.0166  -38.2819   24.1384 H   0  0  0  0  0  0
  -30.7597  -23.2799   19.5887 H   0  0  0  0  0  0
  -27.5027  -18.2469   21.7681 H   0  0  0  0  0  0
  -29.1043  -18.2992   22.4784 H   0  0  0  0  0  0
  -28.8111  -15.9342   22.3924 H   0  0  0  0  0  0
  -27.8422  -16.0197   20.9268 H   0  0  0  0  0  0
  -31.1697  -17.8449   20.7846 H   0  0  0  0  0  0
  -30.6853  -17.5805   19.1274 H   0  0  0  0  0  0
  -28.4282  -18.4325   19.5493 H   0  0  0  0  0  0
  -31.5375  -20.0677   18.8229 H   0  0  0  0  0  0
  -31.9285  -20.0639   20.5500 H   0  0  0  0  0  0
  -32.2854  -21.4763   19.5724 H   0  0  0  0  0  0
  -25.8000  -22.9917   19.7544 H   0  0  0  0  0  0
  -26.1937  -23.5433   21.3854 H   0  0  0  0  0  0
  -25.6588  -21.8857   21.1209 H   0  0  0  0  0  0
  -27.3971  -24.6310   18.9720 H   0  0  0  0  0  0
  -29.0417  -24.9615   18.7822 H   0  0  0  0  0  0
  1 25  1  0  0  0
  1 30  2  0  0  0
  1 84  1  0  0  0
  2  3  1  0  0  0
  2 25  1  0  0  0
  2 85  1  0  0  0
  2 86  1  0  0  0
  3  4  1  0  0  0
  3 87  1  0  0  0
  3 88  1  0  0  0
  4  5  1  0  0  0
  4 89  1  0  0  0
  4 90  1  0  0  0
  5  6  1  0  0  0
  5 26  1  0  0  0
  5 91  1  0  0  0
  6 25  1  0  0  0
  6 92  1  0  0  0
  6 93  1  0  0  0
  7  8  2  0  0  0
  7 26  1  0  0  0
  7 29  1  0  0  0
  8  9  1  0  0  0
  8 22  1  0  0  0
  9 10  1  0  0  0
  9 27  2  0  0  0
 10 11  2  0  0  0
 10 15  1  0  0  0
 11 12  1  0  0  0
 11 94  1  0  0  0
 12 13  2  0  0  0
 12 95  1  0  0  0
 13 14  1  0  0  0
 13 31  1  0  0  0
 14 15  2  0  0  0
 14 96  1  0  0  0
 15 97  1  0  0  0
 16 17  2  0  0  0
 16 21  1  0  0  0
 16 31  1  0  0  0
 17 18  1  0  0  0
 17 98  1  0  0  0
 18 19  2  0  0  0
 18 99  1  0  0  0
 19 20  1  0  0  0
 19 24  1  0  0  0
 20 21  2  0  0  0
 20100  1  0  0  0
 21 23  1  0  0  0
 22 28  1  0  0  0
 22 32  2  0  0  0
 26 27  1  0  0  0
 28101  1  0  0  0
 28102  1  0  0  0
 29103  1  0  0  0
 29104  1  0  0  0
 33 34  1  0  0  0
 33 66  1  0  0  0
 33 70  2  0  0  0
 34 36  1  0  0  0
 34 59  1  0  0  0
 34105  1  0  0  0
 35 44  2  0  0  0
 35 45  1  0  0  0
 35 68  1  0  0  0
 36 56  1  0  0  0
 36106  1  0  0  0
 37 39  1  0  0  0
 37 47  1  0  0  0
 37 66  1  0  0  0
 37107  1  0  0  0
 38 43  2  0  0  0
 38 46  1  0  0  0
 38 47  1  0  0  0
 39 64  1  0  0  0
 39 67  2  0  0  0
 40 52  1  0  0  0
 40 53  2  0  0  0
 40 58  1  0  0  0
 41108  1  0  0  0
 41109  1  0  0  0
 41110  1  0  0  0
 41 48  1  0  0  0
 42 43  1  0  0  0
 42 66  1  0  0  0
 42111  1  0  0  0
 42112  1  0  0  0
 43 44  1  0  0  0
 44113  1  0  0  0
 45 46  2  0  0  0
 45114  1  0  0  0
 46115  1  0  0  0
 47116  1  0  0  0
 47117  1  0  0  0
 48 56  1  0  0  0
 48 65  1  0  0  0
 48118  1  0  0  0
 49 50  1  0  0  0
 49 53  1  0  0  0
 49 64  1  0  0  0
 49119  1  0  0  0
 50 51  1  0  0  0
 50120  1  0  0  0
 50121  1  0  0  0
 51 52  1  0  0  0
 51122  1  0  0  0
 51123  1  0  0  0
 52124  1  0  0  0
 52125  1  0  0  0
 53 54  1  0  0  0
 54 55  2  0  0  0
 54126  1  0  0  0
 55 57  1  0  0  0
 55127  1  0  0  0
 56 69  2  0  0  0
 57 58  2  0  0  0
 57128  1  0  0  0
 58129  1  0  0  0
 59 60  1  0  0  0
 59 61  1  0  0  0
 59 62  1  0  0  0
 60130  1  0  0  0
 60131  1  0  0  0
 60132  1  0  0  0
 61133  1  0  0  0
 61134  1  0  0  0
 61135  1  0  0  0
 62136  1  0  0  0
 62137  1  0  0  0
 62138  1  0  0  0
 63 65  1  0  0  0
 63139  1  0  0  0
 63140  1  0  0  0
 63141  1  0  0  0
 64142  1  0  0  0
 65143  1  0  0  0
 68 82  1  0  0  0
 71 72  2  0  0  0
 71 73  1  0  0  0
 71144  1  0  0  0
 72 74  1  0  0  0
 72 80  1  0  0  0
 73 75  2  0  0  0
 73 82  1  0  0  0
 74 83  2  0  0  0
 74 79  1  0  0  0
 75 81  1  0  0  0
 75 83  1  0  0  0
 76 77  1  0  0  0
 76 79  1  0  0  0
 76145  1  0  0  0
 76146  1  0  0  0
 77 84  1  0  0  0
 77147  1  0  0  0
 77148  1  0  0  0
 78 79  1  0  0  0
 78 84  1  0  0  0
 78149  1  0  0  0
 78150  1  0  0  0
 79151  1  0  0  0
 80152  1  0  0  0
 80153  1  0  0  0
 80154  1  0  0  0
 81155  1  0  0  0
 81156  1  0  0  0
 81157  1  0  0  0
 82158  1  0  0  0
 82159  1  0  0  0
M  ISO  4   1 100  68 101  82 101  84 100
M  END
> <chiral flag>
0

> <version>
0

> <s_m_source_file>
/data/baiqing/PycharmProjects/Reinvent-master-3.2/result/LINK_invent/BTK/process_docking_weight1_custom_sum_contain_oxygen_bond_distance_aromatic_linkinvent_7_9_3/rearranged_h_0175.sdf

> <i_m_source_file_index>
78

> <r_mmod_Potential_Energy-OPLS-2005>
511.508209228516

> <r_mmod_Stretch_Energy-OPLS-2005>
210.735961914062

> <r_mmod_Bend_Energy-OPLS-2005>
310.830047607422

> <r_mmod_Torsional_Energy-OPLS-2005>
314.968536376953

> <r_mmod_Improper_Torsional_Energy-OPLS-2005>
13.282693862915

> <r_mmod_Van_der_Waal_Energy-OPLS-2005>
134.126663208008

> <r_mmod_Electrostatic_Energy-OPLS-2005>
-423.593383789062

> <r_mmod_Solvation_Energy-OPLS-2005>
-217.688461303711

> <b_mmod_Minimization_Converged-OPLS-2005>
0

> <r_mmod_RMS_Derivative-OPLS-2005>
2.58874559402466

$$$$
78
                    3D
 Structure written by MMmdl.
158167  0  0  1  0            999 V2000
  -30.5868  -14.8942   20.4148 C   0  0  0  0  0  0
  -30.4268  -12.5523   19.4934 C   0  0  0  0  0  0
  -29.5159  -12.5135   18.2480 C   0  0  0  0  0  0
  -28.0466  -12.3186   18.6667 C   0  0  0  0  0  0
  -27.6280  -13.2513   19.8359 C   0  0  2  0  0  0
  -28.6707  -13.2794   20.9720 C   0  0  0  0  0  0
  -25.2451  -13.8241   20.5730 C   0  0  0  0  0  0
  -24.1758  -13.0454   20.9220 C   0  0  0  0  0  0
  -24.6378  -11.6939   20.8749 C   0  0  0  0  0  0
  -23.9075  -10.4301   21.0409 C   0  0  0  0  0  0
  -24.3635   -9.4213   21.9185 C   0  0  0  0  0  0
  -23.6300   -8.2251   22.0757 C   0  0  0  0  0  0
  -22.4275   -8.0290   21.3550 C   0  0  0  0  0  0
  -21.9905   -9.0269   20.4655 C   0  0  0  0  0  0
  -22.7245  -10.2138   20.3060 C   0  0  0  0  0  0
  -21.6849   -6.0734   22.5277 C   0  0  0  0  0  0
  -21.4017   -6.5634   23.8213 C   0  0  0  0  0  0
  -21.3663   -5.6791   24.9179 C   0  0  0  0  0  0
  -21.6043   -4.3053   24.7225 C   0  0  0  0  0  0
  -21.8815   -3.8145   23.4343 C   0  0  0  0  0  0
  -21.9190   -4.6961   22.3400 C   0  0  0  0  0  0
  -22.7778  -13.5224   21.1879 C   0  0  0  0  0  0
  -22.1657   -4.2152   21.0974 F   0  0  0  0  0  0
  -21.5635   -3.4540   25.7740 F   0  0  0  0  0  0
  -29.9477  -13.6617   20.3627 N   0  0  0  0  0  0
  -26.2877  -12.9478   20.3253 N   0  0  0  0  0  0
  -25.9316  -11.6604   20.5739 N   0  0  0  0  0  0
  -22.0427  -12.8215   22.0441 N   0  0  0  0  0  0
  -25.4159  -15.1974   20.4211 N   0  0  0  0  0  0
  -31.7967  -14.9090   20.1601 O   0  0  0  0  0  0
  -21.6644   -6.8880   21.4239 O   0  0  0  0  0  0
  -22.3456  -14.5532   20.6734 O   0  0  0  0  0  0
  -24.6422  -31.8459   23.1902 C   0  0  0  0  0  0
  -25.9201  -32.4698   23.8287 C   0  0  1  0  0  0
  -27.2087  -27.1539   20.1362 C   0  0  0  0  0  0
  -25.5951  -33.8510   24.2186 N   0  0  0  0  0  0
  -23.4438  -30.4680   21.5358 C   0  0  2  0  0  0
  -24.8901  -28.9008   20.1080 C   0  0  0  0  0  0
  -22.7558  -29.4559   22.4861 C   0  0  0  0  0  0
  -18.0307  -28.1390   22.8477 C   0  0  0  0  0  0
  -24.1491  -36.7262   23.2641 C   0  0  0  0  0  0
  -26.0004  -30.7233   21.3887 C   0  0  0  0  0  0
  -26.0690  -29.3389   20.7242 C   0  0  0  0  0  0
  -27.2311  -28.4823   20.7197 C   0  0  0  0  0  0
  -26.0012  -26.8131   19.4865 C   0  0  0  0  0  0
  -24.8679  -27.6507   19.4746 C   0  0  0  0  0  0
  -23.6676  -29.8017   20.1540 C   0  0  0  0  0  0
  -25.4123  -36.3035   24.0312 C   0  0  1  0  0  0
  -20.5918  -28.3714   23.1236 C   0  0  2  0  0  0
  -20.6787  -26.9417   22.5404 C   0  0  0  0  0  0
  -19.5762  -26.6375   21.5209 C   0  0  0  0  0  0
  -18.1945  -26.7929   22.1619 C   0  0  0  0  0  0
  -19.1563  -28.8870   23.2848 C   0  0  0  0  0  0
  -18.9481  -30.1467   23.8873 C   0  0  0  0  0  0
  -17.6475  -30.6586   24.0560 C   0  0  0  0  0  0
  -25.9072  -34.9408   23.5056 C   0  0  0  0  0  0
  -16.5366  -29.9077   23.6337 C   0  0  0  0  0  0
  -16.7292  -28.6497   23.0356 C   0  0  0  0  0  0
  -26.4512  -31.6579   25.0738 C   0  0  0  0  0  0
  -25.3693  -31.3802   26.1437 C   0  0  0  0  0  0
  -27.0370  -30.2961   24.6352 C   0  0  0  0  0  0
  -27.6027  -32.4364   25.7523 C   0  0  0  0  0  0
  -27.5576  -37.1789   24.8459 C   0  0  0  0  0  0
  -21.4252  -29.3043   22.3603 N   0  0  0  0  0  0
  -26.4286  -37.3747   23.9403 N   0  0  0  0  0  0
  -24.7150  -31.0340   22.0926 N   0  0  0  0  0  0
  -23.4211  -28.8099   23.2999 O   0  0  0  0  0  0
  -28.2597  -26.1747   20.1999 O   0  0  0  0  0  0
  -26.5657  -34.8906   22.4633 O   0  0  0  0  0  0
  -23.5545  -32.1327   23.7131 O   0  0  0  0  0  0
  -31.0695  -21.6560   20.6141 C   0  0  0  0  0  0
  -29.7964  -21.1058   20.3797 C   0  0  0  0  0  0
  -31.2589  -23.0417   20.6689 C   0  0  0  0  0  0
  -29.0282  -23.4524   20.2849 C   0  0  0  0  0  0
  -29.5108  -18.5751   21.6423 C   0  0  0  0  0  0
  -29.2201  -18.5161   19.2497 C   0  0  0  0  0  0
  -30.1084  -17.0741   21.6319 C   0  0  0  0  0  0
  -29.7799  -16.9924   19.2265 C   0  0  0  0  0  0
  -29.7833  -19.4447   20.3733 C   0  0  0  0  0  0
  -32.6284  -23.6380   20.9176 C   0  0  0  0  0  0
  -27.9461  -24.6582   20.0510 C   0  0  0  0  0  0
  -28.7656  -22.0678   20.2327 N   0  0  0  0  0  0
  -30.2540  -23.9134   20.5020 N   0  0  0  0  0  0
  -29.8742  -16.1320   20.4742 N   0  0  0  0  0  0
  -31.4681  -12.6786   19.1907 H   0  0  0  0  0  0
  -30.3910  -11.6037   20.0302 H   0  0  0  0  0  0
  -29.8248  -11.7113   17.5769 H   0  0  0  0  0  0
  -29.6223  -13.4414   17.6834 H   0  0  0  0  0  0
  -27.9294  -11.2770   18.9680 H   0  0  0  0  0  0
  -27.3865  -12.4641   17.8112 H   0  0  0  0  0  0
  -27.5938  -14.2547   19.4096 H   0  0  0  0  0  0
  -28.7439  -12.3114   21.4704 H   0  0  0  0  0  0
  -28.3832  -14.0052   21.7354 H   0  0  0  0  0  0
  -25.2783   -9.5696   22.4755 H   0  0  0  0  0  0
  -24.0019   -7.4635   22.7463 H   0  0  0  0  0  0
  -21.0839   -8.8789   19.8953 H   0  0  0  0  0  0
  -22.3710  -10.9685   19.6171 H   0  0  0  0  0  0
  -21.2013   -7.6140   23.9719 H   0  0  0  0  0  0
  -21.1491   -6.0518   25.9083 H   0  0  0  0  0  0
  -22.0592   -2.7606   23.2841 H   0  0  0  0  0  0
  -22.4056  -11.9900   22.4863 H   0  0  0  0  0  0
  -21.1047  -13.1240   22.2653 H   0  0  0  0  0  0
  -24.6563  -15.8566   20.5494 H   0  0  0  0  0  0
  -26.2799  -15.6402   20.1339 H   0  0  0  0  0  0
  -26.7269  -32.5295   23.1020 H   0  0  0  0  0  0
  -25.0064  -33.9620   25.0311 H   0  0  0  0  0  0
  -22.7452  -31.2940   21.3853 H   0  0  0  0  0  0
  -23.3751  -35.9596   23.3294 H   0  0  0  0  0  0
  -24.3574  -36.8906   22.2058 H   0  0  0  0  0  0
  -23.7251  -37.6458   23.6689 H   0  0  0  0  0  0
  -26.1653  -31.4827   20.6235 H   0  0  0  0  0  0
  -26.8668  -30.7630   22.0379 H   0  0  0  0  0  0
  -28.1303  -28.8137   21.2197 H   0  0  0  0  0  0
  -25.8900  -25.8600   18.9938 H   0  0  0  0  0  0
  -23.9670  -27.3118   18.9824 H   0  0  0  0  0  0
  -23.8031  -30.5777   19.3997 H   0  0  0  0  0  0
  -22.7817  -29.2450   19.8423 H   0  0  0  0  0  0
  -25.1313  -36.1862   25.0804 H   0  0  0  0  0  0
  -21.0017  -28.3308   24.1355 H   0  0  0  0  0  0
  -20.5675  -26.2329   23.3624 H   0  0  0  0  0  0
  -21.6656  -26.7414   22.1208 H   0  0  0  0  0  0
  -19.6918  -25.6278   21.1258 H   0  0  0  0  0  0
  -19.6696  -27.3169   20.6727 H   0  0  0  0  0  0
  -17.4209  -26.6675   21.4025 H   0  0  0  0  0  0
  -18.0340  -26.0079   22.9025 H   0  0  0  0  0  0
  -19.7958  -30.7294   24.2227 H   0  0  0  0  0  0
  -17.5029  -31.6263   24.5162 H   0  0  0  0  0  0
  -15.5367  -30.2967   23.7676 H   0  0  0  0  0  0
  -15.8695  -28.0805   22.7084 H   0  0  0  0  0  0
  -24.5846  -30.7173   25.7771 H   0  0  0  0  0  0
  -24.8917  -32.3007   26.4810 H   0  0  0  0  0  0
  -25.7968  -30.9007   27.0254 H   0  0  0  0  0  0
  -26.2996  -29.6693   24.1325 H   0  0  0  0  0  0
  -27.3908  -29.7264   25.4957 H   0  0  0  0  0  0
  -27.8942  -30.4161   23.9722 H   0  0  0  0  0  0
  -27.2582  -33.3661   26.2069 H   0  0  0  0  0  0
  -28.3852  -32.6947   25.0373 H   0  0  0  0  0  0
  -28.0691  -31.8535   26.5477 H   0  0  0  0  0  0
  -28.2588  -38.0089   24.7499 H   0  0  0  0  0  0
  -28.1078  -36.2620   24.6289 H   0  0  0  0  0  0
  -27.2300  -37.1445   25.8864 H   0  0  0  0  0  0
  -20.9456  -29.8760   21.6789 H   0  0  0  0  0  0
  -26.0152  -38.2818   24.1401 H   0  0  0  0  0  0
  -31.9279  -21.0126   20.7622 H   0  0  0  0  0  0
  -29.9331  -19.0950   22.5024 H   0  0  0  0  0  0
  -28.4363  -18.5460   21.8260 H   0  0  0  0  0  0
  -28.1312  -18.5091   19.3127 H   0  0  0  0  0  0
  -29.4470  -18.9735   18.2868 H   0  0  0  0  0  0
  -29.7584  -16.5685   22.5340 H   0  0  0  0  0  0
  -31.1904  -17.1564   21.7549 H   0  0  0  0  0  0
  -30.7822  -17.0300   18.7952 H   0  0  0  0  0  0
  -29.1883  -16.4332   18.4998 H   0  0  0  0  0  0
  -30.8471  -19.2666   20.2185 H   0  0  0  0  0  0
  -33.3752  -22.8625   21.0860 H   0  0  0  0  0  0
  -32.6105  -24.2831   21.7957 H   0  0  0  0  0  0
  -32.9468  -24.2323   20.0607 H   0  0  0  0  0  0
  -27.0959  -24.4360   20.6961 H   0  0  0  0  0  0
  -27.5969  -24.5063   19.0299 H   0  0  0  0  0  0
  1 25  1  0  0  0
  1 30  2  0  0  0
  1 84  1  0  0  0
  2  3  1  0  0  0
  2 25  1  0  0  0
  2 85  1  0  0  0
  2 86  1  0  0  0
  3  4  1  0  0  0
  3 87  1  0  0  0
  3 88  1  0  0  0
  4  5  1  0  0  0
  4 89  1  0  0  0
  4 90  1  0  0  0
  5  6  1  0  0  0
  5 26  1  0  0  0
  5 91  1  0  0  0
  6 25  1  0  0  0
  6 92  1  0  0  0
  6 93  1  0  0  0
  7  8  2  0  0  0
  7 26  1  0  0  0
  7 29  1  0  0  0
  8  9  1  0  0  0
  8 22  1  0  0  0
  9 10  1  0  0  0
  9 27  2  0  0  0
 10 11  2  0  0  0
 10 15  1  0  0  0
 11 12  1  0  0  0
 11 94  1  0  0  0
 12 13  2  0  0  0
 12 95  1  0  0  0
 13 14  1  0  0  0
 13 31  1  0  0  0
 14 15  2  0  0  0
 14 96  1  0  0  0
 15 97  1  0  0  0
 16 17  2  0  0  0
 16 21  1  0  0  0
 16 31  1  0  0  0
 17 18  1  0  0  0
 17 98  1  0  0  0
 18 19  2  0  0  0
 18 99  1  0  0  0
 19 20  1  0  0  0
 19 24  1  0  0  0
 20 21  2  0  0  0
 20100  1  0  0  0
 21 23  1  0  0  0
 22 28  1  0  0  0
 22 32  2  0  0  0
 26 27  1  0  0  0
 28101  1  0  0  0
 28102  1  0  0  0
 29103  1  0  0  0
 29104  1  0  0  0
 33 34  1  0  0  0
 33 66  1  0  0  0
 33 70  2  0  0  0
 34 36  1  0  0  0
 34 59  1  0  0  0
 34105  1  0  0  0
 35 44  2  0  0  0
 35 45  1  0  0  0
 35 68  1  0  0  0
 36 56  1  0  0  0
 36106  1  0  0  0
 37 39  1  0  0  0
 37 47  1  0  0  0
 37 66  1  0  0  0
 37107  1  0  0  0
 38 43  2  0  0  0
 38 46  1  0  0  0
 38 47  1  0  0  0
 39 64  1  0  0  0
 39 67  2  0  0  0
 40 52  1  0  0  0
 40 53  2  0  0  0
 40 58  1  0  0  0
 41108  1  0  0  0
 41109  1  0  0  0
 41110  1  0  0  0
 41 48  1  0  0  0
 42 43  1  0  0  0
 42 66  1  0  0  0
 42111  1  0  0  0
 42112  1  0  0  0
 43 44  1  0  0  0
 44113  1  0  0  0
 45 46  2  0  0  0
 45114  1  0  0  0
 46115  1  0  0  0
 47116  1  0  0  0
 47117  1  0  0  0
 48 56  1  0  0  0
 48 65  1  0  0  0
 48118  1  0  0  0
 49 50  1  0  0  0
 49 53  1  0  0  0
 49 64  1  0  0  0
 49119  1  0  0  0
 50 51  1  0  0  0
 50120  1  0  0  0
 50121  1  0  0  0
 51 52  1  0  0  0
 51122  1  0  0  0
 51123  1  0  0  0
 52124  1  0  0  0
 52125  1  0  0  0
 53 54  1  0  0  0
 54 55  2  0  0  0
 54126  1  0  0  0
 55 57  1  0  0  0
 55127  1  0  0  0
 56 69  2  0  0  0
 57 58  2  0  0  0
 57128  1  0  0  0
 58129  1  0  0  0
 59 60  1  0  0  0
 59 61  1  0  0  0
 59 62  1  0  0  0
 60130  1  0  0  0
 60131  1  0  0  0
 60132  1  0  0  0
 61133  1  0  0  0
 61134  1  0  0  0
 61135  1  0  0  0
 62136  1  0  0  0
 62137  1  0  0  0
 62138  1  0  0  0
 63 65  1  0  0  0
 63139  1  0  0  0
 63140  1  0  0  0
 63141  1  0  0  0
 64142  1  0  0  0
 65143  1  0  0  0
 68 81  1  0  0  0
 71 72  2  0  0  0
 71 73  1  0  0  0
 71144  1  0  0  0
 72 82  1  0  0  0
 72 79  1  0  0  0
 73 80  1  0  0  0
 73 83  2  0  0  0
 74 81  1  0  0  0
 74 82  2  0  0  0
 74 83  1  0  0  0
 75 77  1  0  0  0
 75 79  1  0  0  0
 75145  1  0  0  0
 75146  1  0  0  0
 76 78  1  0  0  0
 76 79  1  0  0  0
 76147  1  0  0  0
 76148  1  0  0  0
 77 84  1  0  0  0
 77149  1  0  0  0
 77150  1  0  0  0
 78 84  1  0  0  0
 78151  1  0  0  0
 78152  1  0  0  0
 79153  1  0  0  0
 80154  1  0  0  0
 80155  1  0  0  0
 80156  1  0  0  0
 81157  1  0  0  0
 81158  1  0  0  0
M  ISO  4   1 100  68 101  81 101  84 100
M  END
> <chiral flag>
0

> <version>
0

> <s_m_source_file>
/data/baiqing/PycharmProjects/Reinvent-master-3.2/result/LINK_invent/BTK/process_docking_weight1_custom_sum_contain_oxygen_bond_distance_aromatic_linkinvent_7_9_3/rearranged_h_0175.sdf

> <i_m_source_file_index>
79

> <r_mmod_Potential_Energy-OPLS-2005>
278.320159912109

> <r_mmod_Stretch_Energy-OPLS-2005>
217.085098266602

> <r_mmod_Bend_Energy-OPLS-2005>
294.225433349609

> <r_mmod_Torsional_Energy-OPLS-2005>
317.886016845703

> <r_mmod_Improper_Torsional_Energy-OPLS-2005>
10.4369173049927

> <r_mmod_Van_der_Waal_Energy-OPLS-2005>
142.816543579102

> <r_mmod_Electrostatic_Energy-OPLS-2005>
-641.882751464844

> <r_mmod_Solvation_Energy-OPLS-2005>
-230.087997436523

> <b_mmod_Minimization_Converged-OPLS-2005>
0

> <r_mmod_RMS_Derivative-OPLS-2005>
1.73494935035706

$$$$
79
                    3D
 Structure written by MMmdl.
165174  0  0  1  0            999 V2000
  -30.6988  -14.4378   20.5549 C   0  0  0  0  0  0
  -30.4185  -12.2738   19.4237 C   0  0  0  0  0  0
  -29.4933  -12.4938   18.2089 C   0  0  0  0  0  0
  -28.0112  -12.3636   18.6163 C   0  0  0  0  0  0
  -27.6610  -13.1902   19.8827 C   0  0  2  0  0  0
  -28.7042  -12.9596   21.0010 C   0  0  0  0  0  0
  -25.2596  -13.8142   20.5684 C   0  0  0  0  0  0
  -24.1834  -13.0433   20.9172 C   0  0  0  0  0  0
  -24.6363  -11.6892   20.8739 C   0  0  0  0  0  0
  -23.9030  -10.4289   21.0401 C   0  0  0  0  0  0
  -24.3603   -9.4217   21.9173 C   0  0  0  0  0  0
  -23.6291   -8.2247   22.0748 C   0  0  0  0  0  0
  -22.4267   -8.0276   21.3541 C   0  0  0  0  0  0
  -21.9892   -9.0248   20.4636 C   0  0  0  0  0  0
  -22.7210  -10.2128   20.3045 C   0  0  0  0  0  0
  -21.6861   -6.0733   22.5283 C   0  0  0  0  0  0
  -21.4013   -6.5644   23.8211 C   0  0  0  0  0  0
  -21.3652   -5.6795   24.9183 C   0  0  0  0  0  0
  -21.6055   -4.3062   24.7231 C   0  0  0  0  0  0
  -21.8818   -3.8151   23.4355 C   0  0  0  0  0  0
  -21.9193   -4.6964   22.3411 C   0  0  0  0  0  0
  -22.7861  -13.5242   21.1835 C   0  0  0  0  0  0
  -22.1664   -4.2151   21.0988 F   0  0  0  0  0  0
  -21.5623   -3.4537   25.7747 F   0  0  0  0  0  0
  -30.0416  -13.2515   20.4533 N   0  0  0  0  0  0
  -26.3012  -12.9264   20.3405 N   0  0  0  0  0  0
  -25.9283  -11.6445   20.5804 N   0  0  0  0  0  0
  -22.0505  -12.8226   22.0392 N   0  0  0  0  0  0
  -25.4354  -15.1861   20.4057 N   0  0  0  0  0  0
  -31.8289  -14.6306   20.0917 O   0  0  0  0  0  0
  -21.6655   -6.8868   21.4235 O   0  0  0  0  0  0
  -22.3547  -14.5549   20.6692 O   0  0  0  0  0  0
  -24.6106  -31.8698   23.2156 C   0  0  0  0  0  0
  -25.9014  -32.4835   23.8422 C   0  0  1  0  0  0
  -27.2331  -27.4644   20.0774 C   0  0  0  0  0  0
  -25.5892  -33.8641   24.2333 N   0  0  0  0  0  0
  -23.3952  -30.4960   21.5539 C   0  0  2  0  0  0
  -24.8379  -28.9647   20.1185 C   0  0  0  0  0  0
  -22.7373  -29.4669   22.5000 C   0  0  0  0  0  0
  -18.0261  -28.1371   22.8497 C   0  0  0  0  0  0
  -24.1483  -36.7317   23.2647 C   0  0  0  0  0  0
  -25.9233  -30.8414   21.3670 C   0  0  0  0  0  0
  -25.9966  -29.4792   20.7105 C   0  0  0  0  0  0
  -27.1948  -28.7367   20.6870 C   0  0  0  0  0  0
  -26.0494  -26.9497   19.4951 C   0  0  0  0  0  0
  -24.8559  -27.6961   19.5148 C   0  0  0  0  0  0
  -23.6015  -29.8313   20.1667 C   0  0  0  0  0  0
  -25.4109  -36.3119   24.0336 C   0  0  1  0  0  0
  -20.5847  -28.3646   23.1321 C   0  0  2  0  0  0
  -20.6753  -26.9386   22.5415 C   0  0  0  0  0  0
  -19.5734  -26.6385   21.5208 C   0  0  0  0  0  0
  -18.1911  -26.7921   22.1613 C   0  0  0  0  0  0
  -19.1509  -28.8823   23.2916 C   0  0  0  0  0  0
  -18.9445  -30.1435   23.8921 C   0  0  0  0  0  0
  -17.6449  -30.6584   24.0567 C   0  0  0  0  0  0
  -25.9026  -34.9482   23.5119 C   0  0  0  0  0  0
  -16.5344  -29.9086   23.6329 C   0  0  0  0  0  0
  -16.7248  -28.6500   23.0354 C   0  0  0  0  0  0
  -26.4472  -31.6620   25.0734 C   0  0  0  0  0  0
  -25.3764  -31.3702   26.1501 C   0  0  0  0  0  0
  -27.0325  -30.3076   24.6118 C   0  0  0  0  0  0
  -27.6048  -32.4360   25.7485 C   0  0  0  0  0  0
  -27.5585  -37.1810   24.8466 C   0  0  0  0  0  0
  -21.4101  -29.3031   22.3735 N   0  0  0  0  0  0
  -26.4294  -37.3801   23.9407 N   0  0  0  0  0  0
  -24.6610  -31.0809   22.1049 N   0  0  0  0  0  0
  -23.4152  -28.8193   23.3016 O   0  0  0  0  0  0
  -28.4341  -26.7907   20.0705 O   0  0  0  0  0  0
  -26.5575  -34.8921   22.4676 O   0  0  0  0  0  0
  -23.5313  -32.1456   23.7569 O   0  0  0  0  0  0
  -29.1527  -16.6282   19.1279 C   0  0  0  0  0  0
  -29.7449  -18.9949   20.3503 C   0  0  0  0  0  0
  -29.1476  -19.0494   19.0729 C   0  0  0  0  0  0
  -28.8255  -17.8182   18.4594 C   0  0  0  0  0  0
  -29.7570  -16.6651   20.4024 C   0  0  0  0  0  0
  -29.3509  -20.6645   17.0100 C   0  0  0  0  0  0
  -28.8540  -20.3733   18.4094 C   0  0  2  0  0  0
  -29.9281  -21.4254   18.1789 C   0  0  2  0  0  0
  -28.1293  -17.7311   17.1134 C   0  0  0  0  0  0
  -30.4939  -23.6348   17.1492 C   0  0  0  0  0  0
  -29.8769  -24.9015   19.8355 C   0  0  0  0  0  0
  -28.4496  -25.4347   19.6409 C   0  0  0  0  0  0
  -29.6829  -22.9277   18.2535 C   0  0  2  0  0  0
  -30.0275  -17.8442   21.0047 N   0  0  0  0  0  0
  -29.9688  -15.4372   21.0710 N   0  0  0  0  0  0
  -30.0120  -23.4387   19.6080 N   0  3  0  0  0  0
  -31.4644  -12.3630   19.1239 H   0  0  0  0  0  0
  -30.3070  -11.2602   19.8123 H   0  0  0  0  0  0
  -29.7271  -11.7732   17.4238 H   0  0  0  0  0  0
  -29.6745  -13.4805   17.7817 H   0  0  0  0  0  0
  -27.8094  -11.3079   18.7992 H   0  0  0  0  0  0
  -27.3656  -12.6541   17.7873 H   0  0  0  0  0  0
  -27.6955  -14.2369   19.5990 H   0  0  0  0  0  0
  -28.6724  -11.9228   21.3395 H   0  0  0  0  0  0
  -28.4692  -13.5554   21.8831 H   0  0  0  0  0  0
  -25.2742   -9.5717   22.4756 H   0  0  0  0  0  0
  -24.0020   -7.4640   22.7460 H   0  0  0  0  0  0
  -21.0833   -8.8754   19.8936 H   0  0  0  0  0  0
  -22.3662  -10.9671   19.6167 H   0  0  0  0  0  0
  -21.2008   -7.6144   23.9717 H   0  0  0  0  0  0
  -21.1468   -6.0527   25.9084 H   0  0  0  0  0  0
  -22.0599   -2.7607   23.2864 H   0  0  0  0  0  0
  -22.4119  -11.9886   22.4776 H   0  0  0  0  0  0
  -21.1109  -13.1235   22.2598 H   0  0  0  0  0  0
  -24.6668  -15.8406   20.5022 H   0  0  0  0  0  0
  -26.2884  -15.6226   20.0786 H   0  0  0  0  0  0
  -26.7065  -32.5544   23.1170 H   0  0  0  0  0  0
  -25.0094  -33.9841   25.0508 H   0  0  0  0  0  0
  -22.6856  -31.3147   21.4172 H   0  0  0  0  0  0
  -23.3743  -35.9650   23.3323 H   0  0  0  0  0  0
  -24.3587  -36.8921   22.2060 H   0  0  0  0  0  0
  -23.7218  -37.6522   23.6650 H   0  0  0  0  0  0
  -26.0403  -31.6136   20.6055 H   0  0  0  0  0  0
  -26.8097  -30.8875   21.9875 H   0  0  0  0  0  0
  -28.0920  -29.1376   21.1396 H   0  0  0  0  0  0
  -26.0167  -25.9827   19.0162 H   0  0  0  0  0  0
  -23.9620  -27.2936   19.0574 H   0  0  0  0  0  0
  -23.7111  -30.6092   19.4107 H   0  0  0  0  0  0
  -22.7265  -29.2529   19.8667 H   0  0  0  0  0  0
  -25.1279  -36.2006   25.0826 H   0  0  0  0  0  0
  -20.9949  -28.3214   24.1432 H   0  0  0  0  0  0
  -20.5640  -26.2256   23.3598 H   0  0  0  0  0  0
  -21.6629  -26.7445   22.1214 H   0  0  0  0  0  0
  -19.6896  -25.6298   21.1223 H   0  0  0  0  0  0
  -19.6682  -27.3205   20.6739 H   0  0  0  0  0  0
  -17.4186  -26.6683   21.4008 H   0  0  0  0  0  0
  -18.0318  -26.0053   22.8988 H   0  0  0  0  0  0
  -19.7935  -30.7239   24.2305 H   0  0  0  0  0  0
  -17.5015  -31.6268   24.5154 H   0  0  0  0  0  0
  -15.5344  -30.2994   23.7651 H   0  0  0  0  0  0
  -15.8648  -28.0823   22.7068 H   0  0  0  0  0  0
  -24.5931  -30.7051   25.7840 H   0  0  0  0  0  0
  -24.8971  -32.2851   26.5000 H   0  0  0  0  0  0
  -25.8158  -30.8846   27.0223 H   0  0  0  0  0  0
  -26.2867  -29.6799   24.1231 H   0  0  0  0  0  0
  -27.4151  -29.7359   25.4577 H   0  0  0  0  0  0
  -27.8675  -30.4395   23.9235 H   0  0  0  0  0  0
  -27.2660  -33.3640   26.2105 H   0  0  0  0  0  0
  -28.3842  -32.6958   25.0304 H   0  0  0  0  0  0
  -28.0742  -31.8462   26.5376 H   0  0  0  0  0  0
  -28.2602  -38.0110   24.7515 H   0  0  0  0  0  0
  -28.1078  -36.2635   24.6285 H   0  0  0  0  0  0
  -27.2301  -37.1454   25.8871 H   0  0  0  0  0  0
  -20.9231  -29.8787   21.7010 H   0  0  0  0  0  0
  -26.0189  -38.2876   24.1427 H   0  0  0  0  0  0
  -28.9309  -15.6898   18.6444 H   0  0  0  0  0  0
  -29.9973  -19.9081   20.8690 H   0  0  0  0  0  0
  -28.6784  -21.2013   16.3434 H   0  0  0  0  0  0
  -30.0154  -19.9522   16.5257 H   0  0  0  0  0  0
  -27.8534  -20.7178   18.6677 H   0  0  0  0  0  0
  -30.9440  -21.1393   18.4462 H   0  0  0  0  0  0
  -27.5928  -16.7865   17.0141 H   0  0  0  0  0  0
  -28.8557  -17.7923   16.3038 H   0  0  0  0  0  0
  -27.4010  -18.5331   16.9878 H   0  0  0  0  0  0
  -30.2484  -23.2259   16.1687 H   0  0  0  0  0  0
  -31.5656  -23.5005   17.2979 H   0  0  0  0  0  0
  -30.2883  -24.7024   17.0961 H   0  0  0  0  0  0
  -30.1862  -25.1009   20.8624 H   0  0  0  0  0  0
  -30.5750  -25.4545   19.2073 H   0  0  0  0  0  0
  -27.7454  -24.8467   20.2311 H   0  0  0  0  0  0
  -28.1597  -25.3702   18.5911 H   0  0  0  0  0  0
  -28.6222  -23.1034   18.0650 H   0  0  0  0  0  0
  -29.1683  -15.1169   21.5921 H   0  0  0  0  0  0
  -29.4303  -22.9582   20.2771 H   0  0  0  0  0  0
  -30.9639  -23.1832   19.8188 H   0  0  0  0  0  0
  1 25  1  0  0  0
  1 30  2  0  0  0
  1 85  1  0  0  0
  2  3  1  0  0  0
  2 25  1  0  0  0
  2 87  1  0  0  0
  2 88  1  0  0  0
  3  4  1  0  0  0
  3 89  1  0  0  0
  3 90  1  0  0  0
  4  5  1  0  0  0
  4 91  1  0  0  0
  4 92  1  0  0  0
  5  6  1  0  0  0
  5 26  1  0  0  0
  5 93  1  0  0  0
  6 25  1  0  0  0
  6 94  1  0  0  0
  6 95  1  0  0  0
  7  8  2  0  0  0
  7 26  1  0  0  0
  7 29  1  0  0  0
  8  9  1  0  0  0
  8 22  1  0  0  0
  9 10  1  0  0  0
  9 27  2  0  0  0
 10 11  2  0  0  0
 10 15  1  0  0  0
 11 12  1  0  0  0
 11 96  1  0  0  0
 12 13  2  0  0  0
 12 97  1  0  0  0
 13 14  1  0  0  0
 13 31  1  0  0  0
 14 15  2  0  0  0
 14 98  1  0  0  0
 15 99  1  0  0  0
 16 17  2  0  0  0
 16 21  1  0  0  0
 16 31  1  0  0  0
 17 18  1  0  0  0
 17100  1  0  0  0
 18 19  2  0  0  0
 18101  1  0  0  0
 19 20  1  0  0  0
 19 24  1  0  0  0
 20 21  2  0  0  0
 20102  1  0  0  0
 21 23  1  0  0  0
 22 28  1  0  0  0
 22 32  2  0  0  0
 26 27  1  0  0  0
 28103  1  0  0  0
 28104  1  0  0  0
 29105  1  0  0  0
 29106  1  0  0  0
 33 34  1  0  0  0
 33 66  1  0  0  0
 33 70  2  0  0  0
 34 36  1  0  0  0
 34 59  1  0  0  0
 34107  1  0  0  0
 35 44  2  0  0  0
 35 45  1  0  0  0
 35 68  1  0  0  0
 36 56  1  0  0  0
 36108  1  0  0  0
 37 39  1  0  0  0
 37 47  1  0  0  0
 37 66  1  0  0  0
 37109  1  0  0  0
 38 43  2  0  0  0
 38 46  1  0  0  0
 38 47  1  0  0  0
 39 64  1  0  0  0
 39 67  2  0  0  0
 40 52  1  0  0  0
 40 53  2  0  0  0
 40 58  1  0  0  0
 41110  1  0  0  0
 41111  1  0  0  0
 41112  1  0  0  0
 41 48  1  0  0  0
 42 43  1  0  0  0
 42 66  1  0  0  0
 42113  1  0  0  0
 42114  1  0  0  0
 43 44  1  0  0  0
 44115  1  0  0  0
 45 46  2  0  0  0
 45116  1  0  0  0
 46117  1  0  0  0
 47118  1  0  0  0
 47119  1  0  0  0
 48 56  1  0  0  0
 48 65  1  0  0  0
 48120  1  0  0  0
 49 50  1  0  0  0
 49 53  1  0  0  0
 49 64  1  0  0  0
 49121  1  0  0  0
 50 51  1  0  0  0
 50122  1  0  0  0
 50123  1  0  0  0
 51 52  1  0  0  0
 51124  1  0  0  0
 51125  1  0  0  0
 52126  1  0  0  0
 52127  1  0  0  0
 53 54  1  0  0  0
 54 55  2  0  0  0
 54128  1  0  0  0
 55 57  1  0  0  0
 55129  1  0  0  0
 56 69  2  0  0  0
 57 58  2  0  0  0
 57130  1  0  0  0
 58131  1  0  0  0
 59 60  1  0  0  0
 59 61  1  0  0  0
 59 62  1  0  0  0
 60132  1  0  0  0
 60133  1  0  0  0
 60134  1  0  0  0
 61135  1  0  0  0
 61136  1  0  0  0
 61137  1  0  0  0
 62138  1  0  0  0
 62139  1  0  0  0
 62140  1  0  0  0
 63 65  1  0  0  0
 63141  1  0  0  0
 63142  1  0  0  0
 63143  1  0  0  0
 64144  1  0  0  0
 65145  1  0  0  0
 68 82  1  0  0  0
 71 74  2  0  0  0
 71 75  1  0  0  0
 71146  1  0  0  0
 72 73  2  0  0  0
 72 84  1  0  0  0
 72147  1  0  0  0
 73 74  1  0  0  0
 73 77  1  0  0  0
 74 79  1  0  0  0
 75 84  2  0  0  0
 75 85  1  0  0  0
 76 77  1  0  0  0
 76148  1  0  0  0
 76149  1  0  0  0
 76 78  1  0  0  0
 77 78  1  0  0  0
 77150  1  0  0  0
 78 83  1  0  0  0
 78151  1  0  0  0
 79152  1  0  0  0
 79153  1  0  0  0
 79154  1  0  0  0
 80155  1  0  0  0
 80156  1  0  0  0
 80157  1  0  0  0
 80 83  1  0  0  0
 81 82  1  0  0  0
 81 86  1  0  0  0
 81158  1  0  0  0
 81159  1  0  0  0
 82160  1  0  0  0
 82161  1  0  0  0
 83 86  1  0  0  0
 83162  1  0  0  0
 85163  1  0  0  0
 86164  1  0  0  0
 86165  1  0  0  0
M  CHG  1  86   1
M  ISO  4   1 100  68 101  82 101  85 100
M  END
> <chiral flag>
0

> <version>
0

> <s_m_source_file>
/data/baiqing/PycharmProjects/Reinvent-master-3.2/result/LINK_invent/BTK/process_docking_weight1_custom_sum_contain_oxygen_bond_distance_aromatic_linkinvent_7_9_3/rearranged_h_0175.sdf

> <i_m_source_file_index>
80

> <r_mmod_Potential_Energy-OPLS-2005>
-245.712478637695

> <r_mmod_Stretch_Energy-OPLS-2005>
32.7271499633789

> <r_mmod_Bend_Energy-OPLS-2005>
98.1493835449219

> <r_mmod_Torsional_Energy-OPLS-2005>
288.285888671875

> <r_mmod_Improper_Torsional_Energy-OPLS-2005>
6.67130422592163

> <r_mmod_Van_der_Waal_Energy-OPLS-2005>
153.744171142578

> <r_mmod_Electrostatic_Energy-OPLS-2005>
-368.972137451172

> <r_mmod_Solvation_Energy-OPLS-2005>
-467.058837890625

> <b_mmod_Minimization_Converged-OPLS-2005>
0

> <r_mmod_RMS_Derivative-OPLS-2005>
2.48835921287537

$$$$
80
                    3D
 Structure written by MMmdl.
161170  0  0  1  0            999 V2000
  -30.6040  -14.8973   20.4105 C   0  0  0  0  0  0
  -30.4245  -12.5551   19.4901 C   0  0  0  0  0  0
  -29.5127  -12.5182   18.2462 C   0  0  0  0  0  0
  -28.0446  -12.3190   18.6654 C   0  0  0  0  0  0
  -27.6271  -13.2501   19.8356 C   0  0  2  0  0  0
  -28.6721  -13.2911   20.9691 C   0  0  0  0  0  0
  -25.2457  -13.8234   20.5716 C   0  0  0  0  0  0
  -24.1767  -13.0450   20.9218 C   0  0  0  0  0  0
  -24.6388  -11.6935   20.8747 C   0  0  0  0  0  0
  -23.9066  -10.4312   21.0404 C   0  0  0  0  0  0
  -24.3624   -9.4223   21.9171 C   0  0  0  0  0  0
  -23.6308   -8.2243   22.0739 C   0  0  0  0  0  0
  -22.4291   -8.0276   21.3528 C   0  0  0  0  0  0
  -21.9927   -9.0250   20.4632 C   0  0  0  0  0  0
  -22.7244  -10.2132   20.3046 C   0  0  0  0  0  0
  -21.6862   -6.0737   22.5272 C   0  0  0  0  0  0
  -21.4015   -6.5637   23.8208 C   0  0  0  0  0  0
  -21.3663   -5.6785   24.9174 C   0  0  0  0  0  0
  -21.6054   -4.3051   24.7219 C   0  0  0  0  0  0
  -21.8819   -3.8142   23.4338 C   0  0  0  0  0  0
  -21.9188   -4.6959   22.3396 C   0  0  0  0  0  0
  -22.7792  -13.5213   21.1888 C   0  0  0  0  0  0
  -22.1657   -4.2146   21.0976 F   0  0  0  0  0  0
  -21.5639   -3.4528   25.7731 F   0  0  0  0  0  0
  -29.9500  -13.6706   20.3574 N   0  0  0  0  0  0
  -26.2884  -12.9463   20.3265 N   0  0  0  0  0  0
  -25.9330  -11.6588   20.5752 N   0  0  0  0  0  0
  -22.0439  -12.8207   22.0449 N   0  0  0  0  0  0
  -25.4182  -15.1960   20.4165 N   0  0  0  0  0  0
  -31.8154  -14.8901   20.1644 O   0  0  0  0  0  0
  -21.6644   -6.8879   21.4236 O   0  0  0  0  0  0
  -22.3476  -14.5514   20.6733 O   0  0  0  0  0  0
  -24.6403  -31.8462   23.1890 C   0  0  0  0  0  0
  -25.9186  -32.4706   23.8267 C   0  0  1  0  0  0
  -27.2109  -27.1600   20.1375 C   0  0  0  0  0  0
  -25.5960  -33.8513   24.2180 N   0  0  0  0  0  0
  -23.4422  -30.4676   21.5348 C   0  0  2  0  0  0
  -24.8880  -28.8966   20.1098 C   0  0  0  0  0  0
  -22.7540  -29.4569   22.4862 C   0  0  0  0  0  0
  -18.0309  -28.1401   22.8490 C   0  0  0  0  0  0
  -24.1499  -36.7281   23.2640 C   0  0  0  0  0  0
  -25.9955  -30.7270   21.3825 C   0  0  0  0  0  0
  -26.0656  -29.3396   20.7255 C   0  0  0  0  0  0
  -27.2291  -28.4863   20.7227 C   0  0  0  0  0  0
  -26.0047  -26.8106   19.4914 C   0  0  0  0  0  0
  -24.8682  -27.6439   19.4808 C   0  0  0  0  0  0
  -23.6667  -29.7988   20.1533 C   0  0  0  0  0  0
  -25.4128  -36.3042   24.0307 C   0  0  1  0  0  0
  -20.5921  -28.3726   23.1248 C   0  0  2  0  0  0
  -20.6805  -26.9434   22.5403 C   0  0  0  0  0  0
  -19.5773  -26.6383   21.5221 C   0  0  0  0  0  0
  -18.1953  -26.7943   22.1632 C   0  0  0  0  0  0
  -19.1563  -28.8873   23.2869 C   0  0  0  0  0  0
  -18.9480  -30.1476   23.8888 C   0  0  0  0  0  0
  -17.6477  -30.6597   24.0568 C   0  0  0  0  0  0
  -25.9072  -34.9414   23.5047 C   0  0  0  0  0  0
  -16.5370  -29.9090   23.6345 C   0  0  0  0  0  0
  -16.7292  -28.6512   23.0352 C   0  0  0  0  0  0
  -26.4504  -31.6566   25.0701 C   0  0  0  0  0  0
  -25.3699  -31.3766   26.1407 C   0  0  0  0  0  0
  -27.0345  -30.2960   24.6256 C   0  0  0  0  0  0
  -27.6023  -32.4331   25.7504 C   0  0  0  0  0  0
  -27.5580  -37.1805   24.8458 C   0  0  0  0  0  0
  -21.4236  -29.3064   22.3615 N   0  0  0  0  0  0
  -26.4293  -37.3752   23.9398 N   0  0  0  0  0  0
  -24.7127  -31.0334   22.0924 N   0  0  0  0  0  0
  -23.4189  -28.8120   23.3005 O   0  0  0  0  0  0
  -28.2742  -26.1965   20.1947 O   0  0  0  0  0  0
  -26.5642  -34.8915   22.4614 O   0  0  0  0  0  0
  -23.5527  -32.1330   23.7139 O   0  0  0  0  0  0
  -29.9153  -21.1140   20.2802 C   0  0  0  0  0  0
  -31.2368  -21.6563   20.3682 C   0  0  0  0  0  0
  -30.5082  -23.8767   20.2924 C   0  0  0  0  0  0
  -29.1436  -23.4964   20.2193 C   0  0  0  0  0  0
  -29.9759  -18.6506   21.6428 C   0  0  0  0  0  0
  -28.9159  -18.4898   19.4928 C   0  0  0  0  0  0
  -30.5741  -17.1681   21.4955 C   0  0  0  0  0  0
  -29.4117  -16.9379   19.3816 C   0  0  0  0  0  0
  -29.8431  -19.4525   20.3098 C   0  0  0  0  0  0
  -32.5014  -20.8111   20.4737 C   0  0  0  0  0  0
  -30.9833  -25.3190   20.2716 C   0  0  0  0  0  0
  -28.0099  -24.6735   20.0588 C   0  0  0  0  0  0
  -28.8700  -22.0845   20.2323 N   0  0  0  0  0  0
  -31.5098  -22.9787   20.3726 N   0  0  0  0  0  0
  -29.9364  -16.1524   20.5769 N   0  0  0  0  0  0
  -31.4636  -12.6788   19.1799 H   0  0  0  0  0  0
  -30.3854  -11.6057   20.0271 H   0  0  0  0  0  0
  -29.8247  -11.7213   17.5711 H   0  0  0  0  0  0
  -29.6119  -13.4522   17.6892 H   0  0  0  0  0  0
  -27.9300  -11.2770   18.9643 H   0  0  0  0  0  0
  -27.3813  -12.4601   17.8114 H   0  0  0  0  0  0
  -27.5879  -14.2522   19.4088 H   0  0  0  0  0  0
  -28.7479  -12.3285   21.4753 H   0  0  0  0  0  0
  -28.3845  -14.0244   21.7251 H   0  0  0  0  0  0
  -25.2750   -9.5710   22.4766 H   0  0  0  0  0  0
  -24.0020   -7.4633   22.7457 H   0  0  0  0  0  0
  -21.0854   -8.8756   19.8938 H   0  0  0  0  0  0
  -22.3678  -10.9673   19.6163 H   0  0  0  0  0  0
  -21.2001   -7.6140   23.9716 H   0  0  0  0  0  0
  -21.1497   -6.0511   25.9083 H   0  0  0  0  0  0
  -22.0599   -2.7600   23.2828 H   0  0  0  0  0  0
  -22.4038  -11.9866   22.4850 H   0  0  0  0  0  0
  -21.1037  -13.1215   22.2614 H   0  0  0  0  0  0
  -24.6621  -15.8592   20.5475 H   0  0  0  0  0  0
  -26.2884  -15.6350   20.1428 H   0  0  0  0  0  0
  -26.7249  -32.5311   23.0996 H   0  0  0  0  0  0
  -25.0111  -33.9619   25.0330 H   0  0  0  0  0  0
  -22.7468  -31.2954   21.3831 H   0  0  0  0  0  0
  -23.3752  -35.9623   23.3280 H   0  0  0  0  0  0
  -24.3601  -36.8932   22.2062 H   0  0  0  0  0  0
  -23.7262  -37.6477   23.6686 H   0  0  0  0  0  0
  -26.1426  -31.4803   20.6076 H   0  0  0  0  0  0
  -26.8704  -30.7817   22.0188 H   0  0  0  0  0  0
  -28.1269  -28.8200   21.2232 H   0  0  0  0  0  0
  -25.9011  -25.8559   18.9992 H   0  0  0  0  0  0
  -23.9678  -27.3001   18.9898 H   0  0  0  0  0  0
  -23.8058  -30.5743   19.3990 H   0  0  0  0  0  0
  -22.7809  -29.2425   19.8403 H   0  0  0  0  0  0
  -25.1318  -36.1874   25.0800 H   0  0  0  0  0  0
  -21.0032  -28.3320   24.1361 H   0  0  0  0  0  0
  -20.5730  -26.2336   23.3615 H   0  0  0  0  0  0
  -21.6666  -26.7468   22.1181 H   0  0  0  0  0  0
  -19.6938  -25.6286   21.1267 H   0  0  0  0  0  0
  -19.6712  -27.3178   20.6737 H   0  0  0  0  0  0
  -17.4232  -26.6698   21.4027 H   0  0  0  0  0  0
  -18.0357  -26.0079   22.9020 H   0  0  0  0  0  0
  -19.7952  -30.7302   24.2243 H   0  0  0  0  0  0
  -17.5027  -31.6278   24.5169 H   0  0  0  0  0  0
  -15.5365  -30.2982   23.7669 H   0  0  0  0  0  0
  -15.8702  -28.0823   22.7055 H   0  0  0  0  0  0
  -24.5863  -30.7127   25.7737 H   0  0  0  0  0  0
  -24.8909  -32.2956   26.4789 H   0  0  0  0  0  0
  -25.7988  -30.8964   27.0211 H   0  0  0  0  0  0
  -26.2931  -29.6710   24.1266 H   0  0  0  0  0  0
  -27.3959  -29.7237   25.4808 H   0  0  0  0  0  0
  -27.8845  -30.4184   23.9545 H   0  0  0  0  0  0
  -27.2576  -33.3627   26.2048 H   0  0  0  0  0  0
  -28.3859  -32.6906   25.0368 H   0  0  0  0  0  0
  -28.0659  -31.8491   26.5462 H   0  0  0  0  0  0
  -28.2574  -38.0121   24.7503 H   0  0  0  0  0  0
  -28.1095  -36.2648   24.6278 H   0  0  0  0  0  0
  -27.2304  -37.1447   25.8863 H   0  0  0  0  0  0
  -20.9432  -29.8762   21.6796 H   0  0  0  0  0  0
  -26.0157  -38.2821   24.1396 H   0  0  0  0  0  0
  -30.6216  -19.2051   22.3234 H   0  0  0  0  0  0
  -29.0094  -18.6190   22.1464 H   0  0  0  0  0  0
  -27.9133  -18.5214   19.9234 H   0  0  0  0  0  0
  -28.8055  -18.8876   18.4834 H   0  0  0  0  0  0
  -30.6233  -16.7220   22.4887 H   0  0  0  0  0  0
  -31.6160  -17.2777   21.1869 H   0  0  0  0  0  0
  -30.2053  -16.9145   18.6326 H   0  0  0  0  0  0
  -28.5994  -16.3582   18.9432 H   0  0  0  0  0  0
  -30.7614  -19.2220   19.7768 H   0  0  0  0  0  0
  -32.4162  -20.0508   21.2473 H   0  0  0  0  0  0
  -33.3706  -21.4181   20.7312 H   0  0  0  0  0  0
  -32.7202  -20.3234   19.5235 H   0  0  0  0  0  0
  -30.6955  -25.8040   19.3383 H   0  0  0  0  0  0
  -32.0693  -25.3860   20.3513 H   0  0  0  0  0  0
  -30.5652  -25.8780   21.1093 H   0  0  0  0  0  0
  -27.2045  -24.4231   20.7484 H   0  0  0  0  0  0
  -27.6033  -24.5138   19.0600 H   0  0  0  0  0  0
  1 25  1  0  0  0
  1 30  2  0  0  0
  1 85  1  0  0  0
  2  3  1  0  0  0
  2 25  1  0  0  0
  2 86  1  0  0  0
  2 87  1  0  0  0
  3  4  1  0  0  0
  3 88  1  0  0  0
  3 89  1  0  0  0
  4  5  1  0  0  0
  4 90  1  0  0  0
  4 91  1  0  0  0
  5  6  1  0  0  0
  5 26  1  0  0  0
  5 92  1  0  0  0
  6 25  1  0  0  0
  6 93  1  0  0  0
  6 94  1  0  0  0
  7  8  2  0  0  0
  7 26  1  0  0  0
  7 29  1  0  0  0
  8  9  1  0  0  0
  8 22  1  0  0  0
  9 10  1  0  0  0
  9 27  2  0  0  0
 10 11  2  0  0  0
 10 15  1  0  0  0
 11 12  1  0  0  0
 11 95  1  0  0  0
 12 13  2  0  0  0
 12 96  1  0  0  0
 13 14  1  0  0  0
 13 31  1  0  0  0
 14 15  2  0  0  0
 14 97  1  0  0  0
 15 98  1  0  0  0
 16 17  2  0  0  0
 16 21  1  0  0  0
 16 31  1  0  0  0
 17 18  1  0  0  0
 17 99  1  0  0  0
 18 19  2  0  0  0
 18100  1  0  0  0
 19 20  1  0  0  0
 19 24  1  0  0  0
 20 21  2  0  0  0
 20101  1  0  0  0
 21 23  1  0  0  0
 22 28  1  0  0  0
 22 32  2  0  0  0
 26 27  1  0  0  0
 28102  1  0  0  0
 28103  1  0  0  0
 29104  1  0  0  0
 29105  1  0  0  0
 33 34  1  0  0  0
 33 66  1  0  0  0
 33 70  2  0  0  0
 34 36  1  0  0  0
 34 59  1  0  0  0
 34106  1  0  0  0
 35 44  2  0  0  0
 35 45  1  0  0  0
 35 68  1  0  0  0
 36 56  1  0  0  0
 36107  1  0  0  0
 37 39  1  0  0  0
 37 47  1  0  0  0
 37 66  1  0  0  0
 37108  1  0  0  0
 38 43  2  0  0  0
 38 46  1  0  0  0
 38 47  1  0  0  0
 39 64  1  0  0  0
 39 67  2  0  0  0
 40 52  1  0  0  0
 40 53  2  0  0  0
 40 58  1  0  0  0
 41109  1  0  0  0
 41110  1  0  0  0
 41111  1  0  0  0
 41 48  1  0  0  0
 42 43  1  0  0  0
 42 66  1  0  0  0
 42112  1  0  0  0
 42113  1  0  0  0
 43 44  1  0  0  0
 44114  1  0  0  0
 45 46  2  0  0  0
 45115  1  0  0  0
 46116  1  0  0  0
 47117  1  0  0  0
 47118  1  0  0  0
 48 56  1  0  0  0
 48 65  1  0  0  0
 48119  1  0  0  0
 49 50  1  0  0  0
 49 53  1  0  0  0
 49 64  1  0  0  0
 49120  1  0  0  0
 50 51  1  0  0  0
 50121  1  0  0  0
 50122  1  0  0  0
 51 52  1  0  0  0
 51123  1  0  0  0
 51124  1  0  0  0
 52125  1  0  0  0
 52126  1  0  0  0
 53 54  1  0  0  0
 54 55  2  0  0  0
 54127  1  0  0  0
 55 57  1  0  0  0
 55128  1  0  0  0
 56 69  2  0  0  0
 57 58  2  0  0  0
 57129  1  0  0  0
 58130  1  0  0  0
 59 60  1  0  0  0
 59 61  1  0  0  0
 59 62  1  0  0  0
 60131  1  0  0  0
 60132  1  0  0  0
 60133  1  0  0  0
 61134  1  0  0  0
 61135  1  0  0  0
 61136  1  0  0  0
 62137  1  0  0  0
 62138  1  0  0  0
 62139  1  0  0  0
 63 65  1  0  0  0
 63140  1  0  0  0
 63141  1  0  0  0
 63142  1  0  0  0
 64143  1  0  0  0
 65144  1  0  0  0
 68 82  1  0  0  0
 71 72  2  0  0  0
 71 83  1  0  0  0
 71 79  1  0  0  0
 72 80  1  0  0  0
 72 84  1  0  0  0
 73 74  1  0  0  0
 73 81  1  0  0  0
 73 84  2  0  0  0
 74 82  1  0  0  0
 74 83  2  0  0  0
 75 77  1  0  0  0
 75 79  1  0  0  0
 75145  1  0  0  0
 75146  1  0  0  0
 76 78  1  0  0  0
 76 79  1  0  0  0
 76147  1  0  0  0
 76148  1  0  0  0
 77 85  1  0  0  0
 77149  1  0  0  0
 77150  1  0  0  0
 78 85  1  0  0  0
 78151  1  0  0  0
 78152  1  0  0  0
 79153  1  0  0  0
 80154  1  0  0  0
 80155  1  0  0  0
 80156  1  0  0  0
 81157  1  0  0  0
 81158  1  0  0  0
 81159  1  0  0  0
 82160  1  0  0  0
 82161  1  0  0  0
M  ISO  4   1 100  68 101  82 101  85 100
M  END
> <chiral flag>
0

> <version>
0

> <s_m_source_file>
/data/baiqing/PycharmProjects/Reinvent-master-3.2/result/LINK_invent/BTK/process_docking_weight1_custom_sum_contain_oxygen_bond_distance_aromatic_linkinvent_7_9_3/rearranged_h_0175.sdf

> <i_m_source_file_index>
81

> <r_mmod_Potential_Energy-OPLS-2005>
735.783081054688

> <r_mmod_Stretch_Energy-OPLS-2005>
230.587844848633

> <r_mmod_Bend_Energy-OPLS-2005>
298.669769287109

> <r_mmod_Torsional_Energy-OPLS-2005>
326.750305175781

> <r_mmod_Improper_Torsional_Energy-OPLS-2005>
7.43392705917358

> <r_mmod_Van_der_Waal_Energy-OPLS-2005>
147.825607299805

> <r_mmod_Electrostatic_Energy-OPLS-2005>
-229.951248168945

> <r_mmod_Solvation_Energy-OPLS-2005>
-210.098114013672

> <b_mmod_Minimization_Converged-OPLS-2005>
0

> <r_mmod_RMS_Derivative-OPLS-2005>
2.06369113922119

$$$$
81
                    3D
 Structure written by MMmdl.
156165  0  0  1  0            999 V2000
  -30.6046  -14.9686   20.4215 C   0  0  0  0  0  0
  -30.4192  -12.6124   19.4990 C   0  0  0  0  0  0
  -29.5102  -12.5247   18.2550 C   0  0  0  0  0  0
  -28.0484  -12.3099   18.6814 C   0  0  0  0  0  0
  -27.6198  -13.2612   19.8300 C   0  0  2  0  0  0
  -28.6637  -13.3463   20.9636 C   0  0  0  0  0  0
  -25.2423  -13.8248   20.5745 C   0  0  0  0  0  0
  -24.1754  -13.0450   20.9247 C   0  0  0  0  0  0
  -24.6391  -11.6941   20.8769 C   0  0  0  0  0  0
  -23.9085  -10.4300   21.0411 C   0  0  0  0  0  0
  -24.3633   -9.4212   21.9186 C   0  0  0  0  0  0
  -23.6304   -8.2248   22.0754 C   0  0  0  0  0  0
  -22.4286   -8.0287   21.3545 C   0  0  0  0  0  0
  -21.9926   -9.0262   20.4645 C   0  0  0  0  0  0
  -22.7258  -10.2139   20.3057 C   0  0  0  0  0  0
  -21.6856   -6.0742   22.5279 C   0  0  0  0  0  0
  -21.4015   -6.5644   23.8213 C   0  0  0  0  0  0
  -21.3658   -5.6796   24.9175 C   0  0  0  0  0  0
  -21.6043   -4.3059   24.7224 C   0  0  0  0  0  0
  -21.8819   -3.8151   23.4345 C   0  0  0  0  0  0
  -21.9193   -4.6968   22.3401 C   0  0  0  0  0  0
  -22.7773  -13.5210   21.1893 C   0  0  0  0  0  0
  -22.1663   -4.2154   21.0978 F   0  0  0  0  0  0
  -21.5626   -3.4540   25.7735 F   0  0  0  0  0  0
  -29.9280  -13.7490   20.3382 N   0  0  0  0  0  0
  -26.2850  -12.9505   20.3260 N   0  0  0  0  0  0
  -25.9327  -11.6621   20.5759 N   0  0  0  0  0  0
  -22.0428  -12.8190   22.0444 N   0  0  0  0  0  0
  -25.4092  -15.1973   20.4176 N   0  0  0  0  0  0
  -31.8168  -14.9173   20.1896 O   0  0  0  0  0  0
  -21.6645   -6.8886   21.4242 O   0  0  0  0  0  0
  -22.3452  -14.5510   20.6733 O   0  0  0  0  0  0
  -24.6474  -31.8425   23.1894 C   0  0  0  0  0  0
  -25.9235  -32.4688   23.8281 C   0  0  1  0  0  0
  -27.1982  -27.0951   20.1530 C   0  0  0  0  0  0
  -25.5973  -33.8495   24.2189 N   0  0  0  0  0  0
  -23.4518  -30.4658   21.5359 C   0  0  2  0  0  0
  -24.8995  -28.8951   20.1104 C   0  0  0  0  0  0
  -22.7586  -29.4549   22.4847 C   0  0  0  0  0  0
  -18.0309  -28.1404   22.8476 C   0  0  0  0  0  0
  -24.1490  -36.7245   23.2643 C   0  0  0  0  0  0
  -26.0137  -30.7009   21.3994 C   0  0  0  0  0  0
  -26.0804  -29.3105   20.7394 C   0  0  0  0  0  0
  -27.2315  -28.4264   20.7480 C   0  0  0  0  0  0
  -26.0014  -26.8175   19.4519 C   0  0  0  0  0  0
  -24.8762  -27.6633   19.4492 C   0  0  0  0  0  0
  -23.6802  -29.8023   20.1539 C   0  0  0  0  0  0
  -25.4125  -36.3026   24.0315 C   0  0  1  0  0  0
  -20.5925  -28.3732   23.1219 C   0  0  2  0  0  0
  -20.6793  -26.9432   22.5397 C   0  0  0  0  0  0
  -19.5765  -26.6384   21.5210 C   0  0  0  0  0  0
  -18.1947  -26.7942   22.1621 C   0  0  0  0  0  0
  -19.1568  -28.8885   23.2841 C   0  0  0  0  0  0
  -18.9483  -30.1479   23.8871 C   0  0  0  0  0  0
  -17.6478  -30.6598   24.0559 C   0  0  0  0  0  0
  -25.9078  -34.9403   23.5058 C   0  0  0  0  0  0
  -16.5368  -29.9090   23.6340 C   0  0  0  0  0  0
  -16.7292  -28.6508   23.0361 C   0  0  0  0  0  0
  -26.4538  -31.6568   25.0735 C   0  0  0  0  0  0
  -25.3703  -31.3772   26.1416 C   0  0  0  0  0  0
  -27.0415  -30.2956   24.6361 C   0  0  0  0  0  0
  -27.6061  -32.4342   25.7520 C   0  0  0  0  0  0
  -27.5575  -37.1781   24.8467 C   0  0  0  0  0  0
  -21.4274  -29.3058   22.3590 N   0  0  0  0  0  0
  -26.4285  -37.3744   23.9411 N   0  0  0  0  0  0
  -24.7245  -31.0250   22.0956 N   0  0  0  0  0  0
  -23.4213  -28.8083   23.2999 O   0  0  0  0  0  0
  -28.2008  -26.0422   20.2182 O   0  0  0  0  0  0
  -26.5663  -34.8904   22.4635 O   0  0  0  0  0  0
  -23.5581  -32.1322   23.7083 O   0  0  0  0  0  0
  -29.6606  -21.1050   21.4866 C   0  0  0  0  0  0
  -29.2984  -22.5158   21.4139 C   0  0  0  0  0  0
  -28.4985  -23.0676   20.3547 C   0  0  0  0  0  0
  -29.2603  -20.1042   20.5358 C   0  0  0  0  0  0
  -28.1690  -22.0006   19.4237 C   0  0  0  0  0  0
  -28.8507  -17.1063   20.8593 C   0  0  0  0  0  0
  -30.5546  -17.5524   19.7381 C   0  0  0  0  0  0
  -29.6595  -18.4766   20.6519 C   0  0  0  0  0  0
  -29.7329  -23.4271   22.5456 C   0  0  0  0  0  0
  -27.2903  -22.3042   18.2247 C   0  0  0  0  0  0
  -27.7215  -24.5538   20.3902 C   0  0  0  0  0  0
  -28.5253  -20.6442   19.5058 N   0  0  0  0  0  0
  -29.9918  -16.2655   20.3153 N   0  0  0  0  0  0
  -31.4553  -12.7404   19.1823 H   0  0  0  0  0  0
  -30.3983  -11.6784   20.0628 H   0  0  0  0  0  0
  -29.8345  -11.7128   17.6026 H   0  0  0  0  0  0
  -29.5941  -13.4424   17.6707 H   0  0  0  0  0  0
  -27.9545  -11.2738   19.0083 H   0  0  0  0  0  0
  -27.3812  -12.4198   17.8257 H   0  0  0  0  0  0
  -27.5669  -14.2520   19.3769 H   0  0  0  0  0  0
  -28.7628  -12.3953   21.4886 H   0  0  0  0  0  0
  -28.3611  -14.0874   21.7052 H   0  0  0  0  0  0
  -25.2776   -9.5689   22.4766 H   0  0  0  0  0  0
  -24.0010   -7.4639   22.7475 H   0  0  0  0  0  0
  -21.0858   -8.8784   19.8949 H   0  0  0  0  0  0
  -22.3718  -10.9681   19.6166 H   0  0  0  0  0  0
  -21.2009   -7.6153   23.9719 H   0  0  0  0  0  0
  -21.1478   -6.0526   25.9078 H   0  0  0  0  0  0
  -22.0597   -2.7613   23.2843 H   0  0  0  0  0  0
  -22.4058  -11.9857   22.4831 H   0  0  0  0  0  0
  -21.1040  -13.1196   22.2648 H   0  0  0  0  0  0
  -24.6425  -15.8517   20.5296 H   0  0  0  0  0  0
  -26.2600  -15.6338   20.0882 H   0  0  0  0  0  0
  -26.7299  -32.5275   23.1002 H   0  0  0  0  0  0
  -25.0105  -33.9611   25.0325 H   0  0  0  0  0  0
  -22.7567  -31.2940   21.3833 H   0  0  0  0  0  0
  -23.3765  -35.9565   23.3289 H   0  0  0  0  0  0
  -24.3575  -36.8893   22.2061 H   0  0  0  0  0  0
  -23.7230  -37.6431   23.6689 H   0  0  0  0  0  0
  -26.1797  -31.4536   20.6273 H   0  0  0  0  0  0
  -26.8810  -30.7472   22.0463 H   0  0  0  0  0  0
  -28.1244  -28.7357   21.2728 H   0  0  0  0  0  0
  -25.8845  -25.9086   18.8860 H   0  0  0  0  0  0
  -23.9842  -27.3496   18.9241 H   0  0  0  0  0  0
  -23.8232  -30.5801   19.4028 H   0  0  0  0  0  0
  -22.7929  -29.2510   19.8373 H   0  0  0  0  0  0
  -25.1312  -36.1849   25.0807 H   0  0  0  0  0  0
  -21.0018  -28.3326   24.1340 H   0  0  0  0  0  0
  -20.5689  -26.2349   23.3623 H   0  0  0  0  0  0
  -21.6658  -26.7438   22.1192 H   0  0  0  0  0  0
  -19.6927  -25.6287   21.1260 H   0  0  0  0  0  0
  -19.6701  -27.3178   20.6726 H   0  0  0  0  0  0
  -17.4214  -26.6684   21.4028 H   0  0  0  0  0  0
  -18.0348  -26.0094   22.9026 H   0  0  0  0  0  0
  -19.7958  -30.7304   24.2229 H   0  0  0  0  0  0
  -17.5032  -31.6276   24.5167 H   0  0  0  0  0  0
  -15.5368  -30.2984   23.7686 H   0  0  0  0  0  0
  -15.8691  -28.0818   22.7096 H   0  0  0  0  0  0
  -24.5900  -30.7103   25.7732 H   0  0  0  0  0  0
  -24.8874  -32.2960   26.4755 H   0  0  0  0  0  0
  -25.7972  -30.9003   27.0248 H   0  0  0  0  0  0
  -26.3053  -29.6667   24.1345 H   0  0  0  0  0  0
  -27.3982  -29.7271   25.4959 H   0  0  0  0  0  0
  -27.8980  -30.4181   23.9729 H   0  0  0  0  0  0
  -27.2656  -33.3679   26.2010 H   0  0  0  0  0  0
  -28.3917  -32.6845   25.0376 H   0  0  0  0  0  0
  -28.0679  -31.8522   26.5505 H   0  0  0  0  0  0
  -28.2581  -38.0087   24.7522 H   0  0  0  0  0  0
  -28.1081  -36.2618   24.6284 H   0  0  0  0  0  0
  -27.2293  -37.1413   25.8869 H   0  0  0  0  0  0
  -20.9487  -29.8777   21.6772 H   0  0  0  0  0  0
  -26.0147  -38.2809   24.1423 H   0  0  0  0  0  0
  -30.2503  -20.7757   22.3322 H   0  0  0  0  0  0
  -27.9571  -17.0574   20.2363 H   0  0  0  0  0  0
  -28.5934  -16.9125   21.9012 H   0  0  0  0  0  0
  -31.6224  -17.7009   19.9028 H   0  0  0  0  0  0
  -30.3238  -17.6738   18.6790 H   0  0  0  0  0  0
  -30.2417  -18.5353   21.5725 H   0  0  0  0  0  0
  -30.6086  -23.0304   23.0597 H   0  0  0  0  0  0
  -28.9301  -23.5331   23.2752 H   0  0  0  0  0  0
  -29.9903  -24.4187   22.1723 H   0  0  0  0  0  0
  -27.6064  -23.2268   17.7375 H   0  0  0  0  0  0
  -26.2503  -22.4128   18.5328 H   0  0  0  0  0  0
  -27.3361  -21.5089   17.4801 H   0  0  0  0  0  0
  -27.2419  -24.5609   21.3695 H   0  0  0  0  0  0
  -26.8910  -24.3908   19.7171 H   0  0  0  0  0  0
  1 25  1  0  0  0
  1 30  2  0  0  0
  1 83  1  0  0  0
  2  3  1  0  0  0
  2 25  1  0  0  0
  2 84  1  0  0  0
  2 85  1  0  0  0
  3  4  1  0  0  0
  3 86  1  0  0  0
  3 87  1  0  0  0
  4  5  1  0  0  0
  4 88  1  0  0  0
  4 89  1  0  0  0
  5  6  1  0  0  0
  5 26  1  0  0  0
  5 90  1  0  0  0
  6 25  1  0  0  0
  6 91  1  0  0  0
  6 92  1  0  0  0
  7  8  2  0  0  0
  7 26  1  0  0  0
  7 29  1  0  0  0
  8  9  1  0  0  0
  8 22  1  0  0  0
  9 10  1  0  0  0
  9 27  2  0  0  0
 10 11  2  0  0  0
 10 15  1  0  0  0
 11 12  1  0  0  0
 11 93  1  0  0  0
 12 13  2  0  0  0
 12 94  1  0  0  0
 13 14  1  0  0  0
 13 31  1  0  0  0
 14 15  2  0  0  0
 14 95  1  0  0  0
 15 96  1  0  0  0
 16 17  2  0  0  0
 16 21  1  0  0  0
 16 31  1  0  0  0
 17 18  1  0  0  0
 17 97  1  0  0  0
 18 19  2  0  0  0
 18 98  1  0  0  0
 19 20  1  0  0  0
 19 24  1  0  0  0
 20 21  2  0  0  0
 20 99  1  0  0  0
 21 23  1  0  0  0
 22 28  1  0  0  0
 22 32  2  0  0  0
 26 27  1  0  0  0
 28100  1  0  0  0
 28101  1  0  0  0
 29102  1  0  0  0
 29103  1  0  0  0
 33 34  1  0  0  0
 33 66  1  0  0  0
 33 70  2  0  0  0
 34 36  1  0  0  0
 34 59  1  0  0  0
 34104  1  0  0  0
 35 44  2  0  0  0
 35 45  1  0  0  0
 35 68  1  0  0  0
 36 56  1  0  0  0
 36105  1  0  0  0
 37 39  1  0  0  0
 37 47  1  0  0  0
 37 66  1  0  0  0
 37106  1  0  0  0
 38 43  2  0  0  0
 38 46  1  0  0  0
 38 47  1  0  0  0
 39 64  1  0  0  0
 39 67  2  0  0  0
 40 52  1  0  0  0
 40 53  2  0  0  0
 40 58  1  0  0  0
 41107  1  0  0  0
 41108  1  0  0  0
 41109  1  0  0  0
 41 48  1  0  0  0
 42 43  1  0  0  0
 42 66  1  0  0  0
 42110  1  0  0  0
 42111  1  0  0  0
 43 44  1  0  0  0
 44112  1  0  0  0
 45 46  2  0  0  0
 45113  1  0  0  0
 46114  1  0  0  0
 47115  1  0  0  0
 47116  1  0  0  0
 48 56  1  0  0  0
 48 65  1  0  0  0
 48117  1  0  0  0
 49 50  1  0  0  0
 49 53  1  0  0  0
 49 64  1  0  0  0
 49118  1  0  0  0
 50 51  1  0  0  0
 50119  1  0  0  0
 50120  1  0  0  0
 51 52  1  0  0  0
 51121  1  0  0  0
 51122  1  0  0  0
 52123  1  0  0  0
 52124  1  0  0  0
 53 54  1  0  0  0
 54 55  2  0  0  0
 54125  1  0  0  0
 55 57  1  0  0  0
 55126  1  0  0  0
 56 69  2  0  0  0
 57 58  2  0  0  0
 57127  1  0  0  0
 58128  1  0  0  0
 59 60  1  0  0  0
 59 61  1  0  0  0
 59 62  1  0  0  0
 60129  1  0  0  0
 60130  1  0  0  0
 60131  1  0  0  0
 61132  1  0  0  0
 61133  1  0  0  0
 61134  1  0  0  0
 62135  1  0  0  0
 62136  1  0  0  0
 62137  1  0  0  0
 63 65  1  0  0  0
 63138  1  0  0  0
 63139  1  0  0  0
 63140  1  0  0  0
 64141  1  0  0  0
 65142  1  0  0  0
 68 81  1  0  0  0
 71 72  2  0  0  0
 71 74  1  0  0  0
 71143  1  0  0  0
 72 73  1  0  0  0
 72 79  1  0  0  0
 73 75  2  0  0  0
 73 81  1  0  0  0
 74 82  2  0  0  0
 74 78  1  0  0  0
 75 80  1  0  0  0
 75 82  1  0  0  0
 76 78  1  0  0  0
 76 83  1  0  0  0
 76144  1  0  0  0
 76145  1  0  0  0
 77 78  1  0  0  0
 77 83  1  0  0  0
 77146  1  0  0  0
 77147  1  0  0  0
 78148  1  0  0  0
 79149  1  0  0  0
 79150  1  0  0  0
 79151  1  0  0  0
 80152  1  0  0  0
 80153  1  0  0  0
 80154  1  0  0  0
 81155  1  0  0  0
 81156  1  0  0  0
M  ISO  4   1 100  68 101  81 101  83 100
M  END
> <chiral flag>
0

> <version>
0

> <s_m_source_file>
/data/baiqing/PycharmProjects/Reinvent-master-3.2/result/LINK_invent/BTK/process_docking_weight1_custom_sum_contain_oxygen_bond_distance_aromatic_linkinvent_7_9_3/rearranged_h_0175.sdf

> <i_m_source_file_index>
82

> <r_mmod_Potential_Energy-OPLS-2005>
569.331848144531

> <r_mmod_Stretch_Energy-OPLS-2005>
254.303588867188

> <r_mmod_Bend_Energy-OPLS-2005>
334.307434082031

> <r_mmod_Torsional_Energy-OPLS-2005>
268.283538818359

> <r_mmod_Improper_Torsional_Energy-OPLS-2005>
17.1685180664062

> <r_mmod_Van_der_Waal_Energy-OPLS-2005>
137.735824584961

> <r_mmod_Electrostatic_Energy-OPLS-2005>
-445.961608886719

> <r_mmod_Solvation_Energy-OPLS-2005>
-223.438247680664

> <b_mmod_Minimization_Converged-OPLS-2005>
0

> <r_mmod_RMS_Derivative-OPLS-2005>
0.424895226955414

$$$$
82
                    3D
 Structure written by MMmdl.
160169  0  0  1  0            999 V2000
  -30.5304  -15.0517   20.3857 C   0  0  0  0  0  0
  -30.4344  -12.6439   19.5177 C   0  0  0  0  0  0
  -29.5220  -12.5307   18.2757 C   0  0  0  0  0  0
  -28.0735  -12.2727   18.7165 C   0  0  0  0  0  0
  -27.6234  -13.2542   19.8299 C   0  0  2  0  0  0
  -28.6608  -13.3588   20.9665 C   0  0  0  0  0  0
  -25.2426  -13.8201   20.5719 C   0  0  0  0  0  0
  -24.1763  -13.0419   20.9214 C   0  0  0  0  0  0
  -24.6415  -11.6889   20.8801 C   0  0  0  0  0  0
  -23.9118  -10.4242   21.0430 C   0  0  0  0  0  0
  -24.3661   -9.4140   21.9202 C   0  0  0  0  0  0
  -23.6306   -8.2205   22.0815 C   0  0  0  0  0  0
  -22.4301   -8.0255   21.3582 C   0  0  0  0  0  0
  -21.9960   -9.0228   20.4690 C   0  0  0  0  0  0
  -22.7310  -10.2072   20.3071 C   0  0  0  0  0  0
  -21.6837   -6.0745   22.5315 C   0  0  0  0  0  0
  -21.4014   -6.5676   23.8244 C   0  0  0  0  0  0
  -21.3626   -5.6832   24.9204 C   0  0  0  0  0  0
  -21.6022   -4.3097   24.7257 C   0  0  0  0  0  0
  -21.8817   -3.8178   23.4390 C   0  0  0  0  0  0
  -21.9164   -4.6973   22.3434 C   0  0  0  0  0  0
  -22.7731  -13.5112   21.1810 C   0  0  0  0  0  0
  -22.1623   -4.2163   21.0994 F   0  0  0  0  0  0
  -21.5601   -3.4574   25.7760 F   0  0  0  0  0  0
  -29.9257  -13.7843   20.3532 N   0  0  0  0  0  0
  -26.2860  -12.9469   20.3250 N   0  0  0  0  0  0
  -25.9331  -11.6582   20.5792 N   0  0  0  0  0  0
  -22.0408  -12.8116   22.0397 N   0  0  0  0  0  0
  -25.4155  -15.1943   20.4132 N   0  0  0  0  0  0
  -31.7293  -15.0597   20.0731 O   0  0  0  0  0  0
  -21.6644   -6.8880   21.4280 O   0  0  0  0  0  0
  -22.3357  -14.5369   20.6583 O   0  0  0  0  0  0
  -24.6423  -31.8441   23.1949 C   0  0  0  0  0  0
  -25.9185  -32.4728   23.8370 C   0  0  1  0  0  0
  -27.2156  -27.1153   20.0980 C   0  0  0  0  0  0
  -25.5951  -33.8569   24.2258 N   0  0  0  0  0  0
  -23.4509  -30.4605   21.5391 C   0  0  2  0  0  0
  -24.9027  -28.8952   20.1149 C   0  0  0  0  0  0
  -22.7546  -29.4487   22.4865 C   0  0  0  0  0  0
  -18.0273  -28.1366   22.8448 C   0  0  0  0  0  0
  -24.1428  -36.7156   23.2659 C   0  0  0  0  0  0
  -26.0183  -30.6961   21.4134 C   0  0  0  0  0  0
  -26.0891  -29.3128   20.7317 C   0  0  0  0  0  0
  -27.2500  -28.4401   20.7012 C   0  0  0  0  0  0
  -26.0009  -26.8189   19.4389 C   0  0  0  0  0  0
  -24.8727  -27.6589   19.4587 C   0  0  0  0  0  0
  -23.6835  -29.8029   20.1573 C   0  0  0  0  0  0
  -25.4100  -36.3014   24.0320 C   0  0  1  0  0  0
  -20.5880  -28.3672   23.1219 C   0  0  2  0  0  0
  -20.6751  -26.9395   22.5361 C   0  0  0  0  0  0
  -19.5756  -26.6359   21.5143 C   0  0  0  0  0  0
  -18.1921  -26.7919   22.1544 C   0  0  0  0  0  0
  -19.1534  -28.8825   23.2818 C   0  0  0  0  0  0
  -18.9489  -30.1404   23.8867 C   0  0  0  0  0  0
  -17.6500  -30.6567   24.0514 C   0  0  0  0  0  0
  -25.9058  -34.9411   23.5054 C   0  0  0  0  0  0
  -16.5377  -29.9045   23.6372 C   0  0  0  0  0  0
  -16.7261  -28.6452   23.0421 C   0  0  0  0  0  0
  -26.4593  -31.6657   25.0808 C   0  0  0  0  0  0
  -25.3789  -31.3829   26.1478 C   0  0  0  0  0  0
  -27.0572  -30.3066   24.6515 C   0  0  0  0  0  0
  -27.6095  -32.4513   25.7567 C   0  0  0  0  0  0
  -27.5553  -37.1702   24.8505 C   0  0  0  0  0  0
  -21.4213  -29.3005   22.3613 N   0  0  0  0  0  0
  -26.4262  -37.3730   23.9453 N   0  0  0  0  0  0
  -24.7224  -31.0239   22.1001 N   0  0  0  0  0  0
  -23.4166  -28.8011   23.3023 O   0  0  0  0  0  0
  -28.2530  -26.1015   20.0906 O   0  0  0  0  0  0
  -26.5618  -34.8876   22.4612 O   0  0  0  0  0  0
  -23.5520  -32.1363   23.7083 O   0  0  0  0  0  0
  -30.4662  -20.9129   19.0905 C   0  0  0  0  0  0
  -30.7196  -22.2298   18.6357 C   0  0  0  0  0  0
  -29.3609  -20.5825   19.9057 C   0  0  0  0  0  0
  -29.9123  -23.3487   18.9619 C   0  0  0  0  0  0
  -28.5451  -21.7937   20.2621 C   0  0  0  0  0  0
  -28.8144  -23.2224   19.8553 C   0  0  0  0  0  0
  -29.1914  -18.4542   21.6979 C   0  0  0  0  0  0
  -29.1773  -16.8592   21.6792 C   0  0  0  0  0  0
  -29.9860  -17.6539   19.6637 C   0  0  0  0  0  0
  -29.1194  -18.9486   20.2449 C   0  0  2  0  0  0
  -30.2321  -24.6664   18.2680 C   0  0  0  0  0  0
  -27.2887  -21.5545   21.0800 C   0  0  0  0  0  0
  -27.9078  -24.5727   20.2522 C   0  0  0  0  0  0
  -29.7952  -16.3067   20.4420 N   0  0  0  0  0  0
  -31.4716  -12.7817   19.2001 H   0  0  0  0  0  0
  -30.4285  -11.7109   20.0868 H   0  0  0  0  0  0
  -29.8662  -11.7308   17.6169 H   0  0  0  0  0  0
  -29.5754  -13.4562   17.7024 H   0  0  0  0  0  0
  -28.0323  -11.2496   19.1004 H   0  0  0  0  0  0
  -27.3954  -12.3030   17.8604 H   0  0  0  0  0  0
  -27.5683  -14.2322   19.3476 H   0  0  0  0  0  0
  -28.7660  -12.4095   21.4912 H   0  0  0  0  0  0
  -28.3424  -14.0946   21.7060 H   0  0  0  0  0  0
  -25.2788   -9.5583   22.4806 H   0  0  0  0  0  0
  -23.9984   -7.4598   22.7545 H   0  0  0  0  0  0
  -21.0901   -8.8699   19.9006 H   0  0  0  0  0  0
  -22.3746  -10.9598   19.6181 H   0  0  0  0  0  0
  -21.2064   -7.6192   23.9741 H   0  0  0  0  0  0
  -21.1437   -6.0587   25.9094 H   0  0  0  0  0  0
  -22.0641   -2.7641   23.2897 H   0  0  0  0  0  0
  -22.4008  -11.9812   22.4872 H   0  0  0  0  0  0
  -21.1044  -13.1170   22.2618 H   0  0  0  0  0  0
  -24.6664  -15.8672   20.5448 H   0  0  0  0  0  0
  -26.2827  -15.6270   20.1239 H   0  0  0  0  0  0
  -26.7234  -32.5322   23.1098 H   0  0  0  0  0  0
  -25.0280  -33.9856   25.0524 H   0  0  0  0  0  0
  -22.7486  -31.2798   21.3840 H   0  0  0  0  0  0
  -23.3766  -35.9393   23.3304 H   0  0  0  0  0  0
  -24.3526  -36.8808   22.2075 H   0  0  0  0  0  0
  -23.7101  -37.6296   23.6740 H   0  0  0  0  0  0
  -26.2195  -31.4647   20.6667 H   0  0  0  0  0  0
  -26.8693  -30.7187   22.0801 H   0  0  0  0  0  0
  -28.1697  -28.7492   21.1786 H   0  0  0  0  0  0
  -25.8956  -25.9118   18.8677 H   0  0  0  0  0  0
  -23.9766  -27.3479   18.9384 H   0  0  0  0  0  0
  -23.8195  -30.5860   19.4085 H   0  0  0  0  0  0
  -22.7927  -29.2541   19.8449 H   0  0  0  0  0  0
  -25.1281  -36.1821   25.0816 H   0  0  0  0  0  0
  -21.0013  -28.3266   24.1320 H   0  0  0  0  0  0
  -20.5609  -26.2315   23.3584 H   0  0  0  0  0  0
  -21.6630  -26.7366   22.1201 H   0  0  0  0  0  0
  -19.6939  -25.6262   21.1217 H   0  0  0  0  0  0
  -19.6714  -27.3112   20.6637 H   0  0  0  0  0  0
  -17.4198  -26.6646   21.3935 H   0  0  0  0  0  0
  -18.0285  -26.0056   22.8929 H   0  0  0  0  0  0
  -19.7977  -30.7162   24.2297 H   0  0  0  0  0  0
  -17.5077  -31.6304   24.5012 H   0  0  0  0  0  0
  -15.5395  -30.2936   23.7744 H   0  0  0  0  0  0
  -15.8640  -28.0728   22.7275 H   0  0  0  0  0  0
  -24.5932  -30.7271   25.7761 H   0  0  0  0  0  0
  -24.9038  -32.2986   26.4965 H   0  0  0  0  0  0
  -25.8030  -30.8938   27.0242 H   0  0  0  0  0  0
  -26.3300  -29.6687   24.1481 H   0  0  0  0  0  0
  -27.4140  -29.7489   25.5193 H   0  0  0  0  0  0
  -27.9193  -30.4332   23.9964 H   0  0  0  0  0  0
  -27.2697  -33.3865   26.2026 H   0  0  0  0  0  0
  -28.3919  -32.7036   25.0406 H   0  0  0  0  0  0
  -28.0745  -31.8774   26.5576 H   0  0  0  0  0  0
  -28.2533  -38.0022   24.7597 H   0  0  0  0  0  0
  -28.1065  -36.2565   24.6258 H   0  0  0  0  0  0
  -27.2300  -37.1245   25.8913 H   0  0  0  0  0  0
  -20.9421  -29.8750   21.6825 H   0  0  0  0  0  0
  -26.0085  -38.2744   24.1604 H   0  0  0  0  0  0
  -31.1453  -20.1380   18.7649 H   0  0  0  0  0  0
  -31.5701  -22.3804   17.9840 H   0  0  0  0  0  0
  -30.1320  -18.8036   22.1308 H   0  0  0  0  0  0
  -28.3959  -18.8800   22.3157 H   0  0  0  0  0  0
  -28.1485  -16.4940   21.7276 H   0  0  0  0  0  0
  -29.6869  -16.4893   22.5707 H   0  0  0  0  0  0
  -31.0467  -17.8994   19.7005 H   0  0  0  0  0  0
  -29.7640  -17.4936   18.6054 H   0  0  0  0  0  0
  -28.0884  -18.7706   19.9322 H   0  0  0  0  0  0
  -30.9281  -24.5188   17.4368 H   0  0  0  0  0  0
  -30.6804  -25.3891   18.9501 H   0  0  0  0  0  0
  -29.3316  -25.1042   17.8331 H   0  0  0  0  0  0
  -26.8817  -20.5568   20.9096 H   0  0  0  0  0  0
  -26.5100  -22.2733   20.8264 H   0  0  0  0  0  0
  -27.5019  -21.6568   22.1426 H   0  0  0  0  0  0
  -27.7039  -24.4596   21.3194 H   0  0  0  0  0  0
  -26.9481  -24.3946   19.7805 H   0  0  0  0  0  0
  1 25  1  0  0  0
  1 30  2  0  0  0
  1 84  1  0  0  0
  2  3  1  0  0  0
  2 25  1  0  0  0
  2 85  1  0  0  0
  2 86  1  0  0  0
  3  4  1  0  0  0
  3 87  1  0  0  0
  3 88  1  0  0  0
  4  5  1  0  0  0
  4 89  1  0  0  0
  4 90  1  0  0  0
  5  6  1  0  0  0
  5 26  1  0  0  0
  5 91  1  0  0  0
  6 25  1  0  0  0
  6 92  1  0  0  0
  6 93  1  0  0  0
  7  8  2  0  0  0
  7 26  1  0  0  0
  7 29  1  0  0  0
  8  9  1  0  0  0
  8 22  1  0  0  0
  9 10  1  0  0  0
  9 27  2  0  0  0
 10 11  2  0  0  0
 10 15  1  0  0  0
 11 12  1  0  0  0
 11 94  1  0  0  0
 12 13  2  0  0  0
 12 95  1  0  0  0
 13 14  1  0  0  0
 13 31  1  0  0  0
 14 15  2  0  0  0
 14 96  1  0  0  0
 15 97  1  0  0  0
 16 17  2  0  0  0
 16 21  1  0  0  0
 16 31  1  0  0  0
 17 18  1  0  0  0
 17 98  1  0  0  0
 18 19  2  0  0  0
 18 99  1  0  0  0
 19 20  1  0  0  0
 19 24  1  0  0  0
 20 21  2  0  0  0
 20100  1  0  0  0
 21 23  1  0  0  0
 22 28  1  0  0  0
 22 32  2  0  0  0
 26 27  1  0  0  0
 28101  1  0  0  0
 28102  1  0  0  0
 29103  1  0  0  0
 29104  1  0  0  0
 33 34  1  0  0  0
 33 66  1  0  0  0
 33 70  2  0  0  0
 34 36  1  0  0  0
 34 59  1  0  0  0
 34105  1  0  0  0
 35 44  2  0  0  0
 35 45  1  0  0  0
 35 68  1  0  0  0
 36 56  1  0  0  0
 36106  1  0  0  0
 37 39  1  0  0  0
 37 47  1  0  0  0
 37 66  1  0  0  0
 37107  1  0  0  0
 38 43  2  0  0  0
 38 46  1  0  0  0
 38 47  1  0  0  0
 39 64  1  0  0  0
 39 67  2  0  0  0
 40 52  1  0  0  0
 40 53  2  0  0  0
 40 58  1  0  0  0
 41108  1  0  0  0
 41109  1  0  0  0
 41110  1  0  0  0
 41 48  1  0  0  0
 42 43  1  0  0  0
 42 66  1  0  0  0
 42111  1  0  0  0
 42112  1  0  0  0
 43 44  1  0  0  0
 44113  1  0  0  0
 45 46  2  0  0  0
 45114  1  0  0  0
 46115  1  0  0  0
 47116  1  0  0  0
 47117  1  0  0  0
 48 56  1  0  0  0
 48 65  1  0  0  0
 48118  1  0  0  0
 49 50  1  0  0  0
 49 53  1  0  0  0
 49 64  1  0  0  0
 49119  1  0  0  0
 50 51  1  0  0  0
 50120  1  0  0  0
 50121  1  0  0  0
 51 52  1  0  0  0
 51122  1  0  0  0
 51123  1  0  0  0
 52124  1  0  0  0
 52125  1  0  0  0
 53 54  1  0  0  0
 54 55  2  0  0  0
 54126  1  0  0  0
 55 57  1  0  0  0
 55127  1  0  0  0
 56 69  2  0  0  0
 57 58  2  0  0  0
 57128  1  0  0  0
 58129  1  0  0  0
 59 60  1  0  0  0
 59 61  1  0  0  0
 59 62  1  0  0  0
 60130  1  0  0  0
 60131  1  0  0  0
 60132  1  0  0  0
 61133  1  0  0  0
 61134  1  0  0  0
 61135  1  0  0  0
 62136  1  0  0  0
 62137  1  0  0  0
 62138  1  0  0  0
 63 65  1  0  0  0
 63139  1  0  0  0
 63140  1  0  0  0
 63141  1  0  0  0
 64142  1  0  0  0
 65143  1  0  0  0
 68 83  1  0  0  0
 71 72  2  0  0  0
 71 73  1  0  0  0
 71144  1  0  0  0
 72 74  1  0  0  0
 72145  1  0  0  0
 73 75  2  0  0  0
 73 80  1  0  0  0
 74 76  2  0  0  0
 74 81  1  0  0  0
 75 76  1  0  0  0
 75 82  1  0  0  0
 76 83  1  0  0  0
 77 78  1  0  0  0
 77 80  1  0  0  0
 77146  1  0  0  0
 77147  1  0  0  0
 78 84  1  0  0  0
 78148  1  0  0  0
 78149  1  0  0  0
 79 80  1  0  0  0
 79 84  1  0  0  0
 79150  1  0  0  0
 79151  1  0  0  0
 80152  1  0  0  0
 81153  1  0  0  0
 81154  1  0  0  0
 81155  1  0  0  0
 82156  1  0  0  0
 82157  1  0  0  0
 82158  1  0  0  0
 83159  1  0  0  0
 83160  1  0  0  0
M  ISO  4   1 100  68 101  83 101  84 100
M  END
> <chiral flag>
0

> <version>
0

> <s_m_source_file>
/data/baiqing/PycharmProjects/Reinvent-master-3.2/result/LINK_invent/BTK/process_docking_weight1_custom_sum_contain_oxygen_bond_distance_aromatic_linkinvent_7_9_3/rearranged_h_0175.sdf

> <i_m_source_file_index>
83

> <r_mmod_Potential_Energy-OPLS-2005>
840.386108398438

> <r_mmod_Stretch_Energy-OPLS-2005>
309.329650878906

> <r_mmod_Bend_Energy-OPLS-2005>
304.423645019531

> <r_mmod_Torsional_Energy-OPLS-2005>
332.996856689453

> <r_mmod_Improper_Torsional_Energy-OPLS-2005>
10.808159828186

> <r_mmod_Van_der_Waal_Energy-OPLS-2005>
123.534400939941

> <r_mmod_Electrostatic_Energy-OPLS-2005>
-288.732482910156

> <r_mmod_Solvation_Energy-OPLS-2005>
-196.753662109375

> <b_mmod_Minimization_Converged-OPLS-2005>
0

> <r_mmod_RMS_Derivative-OPLS-2005>
7.15234088897705

$$$$
83
                    3D
 Structure written by MMmdl.
153162  0  0  1  0            999 V2000
  -30.4317  -15.2341   20.3651 C   0  0  0  0  0  0
  -30.4487  -12.7803   19.5269 C   0  0  0  0  0  0
  -29.5409  -12.5725   18.2881 C   0  0  0  0  0  0
  -28.0838  -12.3068   18.7103 C   0  0  0  0  0  0
  -27.6197  -13.2717   19.8290 C   0  0  2  0  0  0
  -28.6562  -13.4146   20.9656 C   0  0  0  0  0  0
  -25.2411  -13.8249   20.5762 C   0  0  0  0  0  0
  -24.1750  -13.0438   20.9254 C   0  0  0  0  0  0
  -24.6407  -11.6936   20.8754 C   0  0  0  0  0  0
  -23.9097  -10.4292   21.0387 C   0  0  0  0  0  0
  -24.3638   -9.4203   21.9167 C   0  0  0  0  0  0
  -23.6306   -8.2240   22.0748 C   0  0  0  0  0  0
  -22.4279   -8.0279   21.3539 C   0  0  0  0  0  0
  -21.9918   -9.0260   20.4648 C   0  0  0  0  0  0
  -22.7261  -10.2133   20.3045 C   0  0  0  0  0  0
  -21.6849   -6.0734   22.5274 C   0  0  0  0  0  0
  -21.4020   -6.5636   23.8212 C   0  0  0  0  0  0
  -21.3670   -5.6787   24.9171 C   0  0  0  0  0  0
  -21.6050   -4.3050   24.7219 C   0  0  0  0  0  0
  -21.8820   -3.8142   23.4342 C   0  0  0  0  0  0
  -21.9192   -4.6962   22.3399 C   0  0  0  0  0  0
  -22.7762  -13.5190   21.1905 C   0  0  0  0  0  0
  -22.1657   -4.2148   21.0978 F   0  0  0  0  0  0
  -21.5629   -3.4538   25.7732 F   0  0  0  0  0  0
  -29.8984  -13.9147   20.3519 N   0  0  0  0  0  0
  -26.2850  -12.9524   20.3231 N   0  0  0  0  0  0
  -25.9343  -11.6635   20.5707 N   0  0  0  0  0  0
  -22.0420  -12.8173   22.0462 N   0  0  0  0  0  0
  -25.4048  -15.1995   20.4240 N   0  0  0  0  0  0
  -31.6430  -15.2707   20.0991 O   0  0  0  0  0  0
  -21.6637   -6.8875   21.4235 O   0  0  0  0  0  0
  -22.3436  -14.5502   20.6761 O   0  0  0  0  0  0
  -24.6585  -31.8277   23.1727 C   0  0  0  0  0  0
  -25.9276  -32.4617   23.8200 C   0  0  1  0  0  0
  -27.2327  -26.9766   20.1731 C   0  0  0  0  0  0
  -25.5955  -33.8428   24.2108 N   0  0  0  0  0  0
  -23.4716  -30.4382   21.5207 C   0  0  2  0  0  0
  -24.9287  -28.8323   20.1102 C   0  0  0  0  0  0
  -22.7656  -29.4449   22.4796 C   0  0  0  0  0  0
  -18.0323  -28.1404   22.8470 C   0  0  0  0  0  0
  -24.1495  -36.7215   23.2650 C   0  0  0  0  0  0
  -26.0378  -30.6494   21.3964 C   0  0  0  0  0  0
  -26.1094  -29.2431   20.7399 C   0  0  0  0  0  0
  -27.2547  -28.3354   20.7473 C   0  0  0  0  0  0
  -26.0216  -26.7033   19.4983 C   0  0  0  0  0  0
  -24.9072  -27.5812   19.4713 C   0  0  0  0  0  0
  -23.7102  -29.7527   20.1464 C   0  0  0  0  0  0
  -25.4130  -36.2986   24.0313 C   0  0  1  0  0  0
  -20.5950  -28.3741   23.1204 C   0  0  2  0  0  0
  -20.6797  -26.9423   22.5406 C   0  0  0  0  0  0
  -19.5771  -26.6375   21.5218 C   0  0  0  0  0  0
  -18.1954  -26.7937   22.1630 C   0  0  0  0  0  0
  -19.1584  -28.8894   23.2822 C   0  0  0  0  0  0
  -18.9492  -30.1485   23.8854 C   0  0  0  0  0  0
  -17.6484  -30.6592   24.0558 C   0  0  0  0  0  0
  -25.9086  -34.9369   23.5031 C   0  0  0  0  0  0
  -16.5374  -29.9080   23.6341 C   0  0  0  0  0  0
  -16.7306  -28.6504   23.0355 C   0  0  0  0  0  0
  -26.4535  -31.6547   25.0715 C   0  0  0  0  0  0
  -25.3666  -31.3778   26.1376 C   0  0  0  0  0  0
  -27.0433  -30.2928   24.6406 C   0  0  0  0  0  0
  -27.6044  -32.4342   25.7499 C   0  0  0  0  0  0
  -27.5568  -37.1765   24.8465 C   0  0  0  0  0  0
  -21.4332  -29.3028   22.3555 N   0  0  0  0  0  0
  -26.4281  -37.3714   23.9407 N   0  0  0  0  0  0
  -24.7433  -30.9975   22.0837 N   0  0  0  0  0  0
  -23.4214  -28.8014   23.3025 O   0  0  0  0  0  0
  -28.2615  -25.9138   20.2569 O   0  0  0  0  0  0
  -26.5700  -34.8884   22.4631 O   0  0  0  0  0  0
  -23.5663  -32.1235   23.6838 O   0  0  0  0  0  0
  -28.4192  -20.2958   21.2019 C   0  0  0  0  0  0
  -28.6110  -18.8310   21.2260 C   0  0  0  0  0  0
  -29.1030  -21.2547   20.3543 C   0  0  0  0  0  0
  -29.9843  -20.3932   19.5494 C   0  0  0  0  0  0
  -29.5434  -18.0485   20.4344 C   0  0  0  0  0  0
  -30.5629  -23.5204   20.7393 C   0  0  0  0  0  0
  -29.6918  -23.3528   21.9379 C   0  0  0  0  0  0
  -29.1398  -22.9997   20.5640 C   0  0  0  0  0  0
  -30.8704  -21.0659   18.5174 C   0  0  0  0  0  0
  -28.0984  -24.3000   20.0345 C   0  0  0  0  0  0
  -30.1808  -18.9711   19.5940 N   0  0  0  0  0  0
  -29.5998  -16.4399   20.5509 N   0  0  0  0  0  0
  -31.4688  -12.9828   19.1962 H   0  0  0  0  0  0
  -30.5148  -11.8673   20.1208 H   0  0  0  0  0  0
  -29.9139  -11.7480   17.6800 H   0  0  0  0  0  0
  -29.5809  -13.4614   17.6559 H   0  0  0  0  0  0
  -28.0263  -11.2793   19.0702 H   0  0  0  0  0  0
  -27.4165  -12.3663   17.8495 H   0  0  0  0  0  0
  -27.5468  -14.2467   19.3461 H   0  0  0  0  0  0
  -28.8104  -12.4695   21.4870 H   0  0  0  0  0  0
  -28.3038  -14.1234   21.7160 H   0  0  0  0  0  0
  -25.2783   -9.5692   22.4741 H   0  0  0  0  0  0
  -24.0022   -7.4636   22.7479 H   0  0  0  0  0  0
  -21.0841   -8.8802   19.8959 H   0  0  0  0  0  0
  -22.3723  -10.9681   19.6160 H   0  0  0  0  0  0
  -21.2020   -7.6144   23.9719 H   0  0  0  0  0  0
  -21.1486   -6.0508   25.9078 H   0  0  0  0  0  0
  -22.0591   -2.7606   23.2834 H   0  0  0  0  0  0
  -22.4048  -11.9854   22.4875 H   0  0  0  0  0  0
  -21.1039  -13.1204   22.2676 H   0  0  0  0  0  0
  -24.6350  -15.8465   20.5567 H   0  0  0  0  0  0
  -26.2393  -15.6476   20.0711 H   0  0  0  0  0  0
  -26.7349  -32.5170   23.0923 H   0  0  0  0  0  0
  -25.0047  -33.9520   25.0219 H   0  0  0  0  0  0
  -22.7821  -31.2678   21.3509 H   0  0  0  0  0  0
  -23.3758  -35.9544   23.3312 H   0  0  0  0  0  0
  -24.3562  -36.8853   22.2059 H   0  0  0  0  0  0
  -23.7248  -37.6408   23.6694 H   0  0  0  0  0  0
  -26.2141  -31.3954   20.6199 H   0  0  0  0  0  0
  -26.8995  -30.7063   22.0496 H   0  0  0  0  0  0
  -28.1500  -28.6477   21.2666 H   0  0  0  0  0  0
  -25.9094  -25.7456   19.0096 H   0  0  0  0  0  0
  -24.0093  -27.2604   18.9611 H   0  0  0  0  0  0
  -23.8599  -30.5215   19.3877 H   0  0  0  0  0  0
  -22.8221  -29.2018   19.8327 H   0  0  0  0  0  0
  -25.1323  -36.1803   25.0804 H   0  0  0  0  0  0
  -21.0040  -28.3337   24.1330 H   0  0  0  0  0  0
  -20.5684  -26.2350   23.3638 H   0  0  0  0  0  0
  -21.6658  -26.7404   22.1206 H   0  0  0  0  0  0
  -19.6919  -25.6274   21.1272 H   0  0  0  0  0  0
  -19.6701  -27.3173   20.6736 H   0  0  0  0  0  0
  -17.4216  -26.6684   21.4037 H   0  0  0  0  0  0
  -18.0340  -26.0092   22.9042 H   0  0  0  0  0  0
  -19.7961  -30.7321   24.2198 H   0  0  0  0  0  0
  -17.5027  -31.6265   24.5176 H   0  0  0  0  0  0
  -15.5368  -30.2963   23.7683 H   0  0  0  0  0  0
  -15.8711  -28.0808   22.7087 H   0  0  0  0  0  0
  -24.5861  -30.7120   25.7671 H   0  0  0  0  0  0
  -24.8836  -32.2976   26.4690 H   0  0  0  0  0  0
  -25.7907  -30.9012   27.0227 H   0  0  0  0  0  0
  -26.3104  -29.6599   24.1397 H   0  0  0  0  0  0
  -27.3979  -29.7285   25.5039 H   0  0  0  0  0  0
  -27.9031  -30.4126   23.9813 H   0  0  0  0  0  0
  -27.2643  -33.3685   26.1969 H   0  0  0  0  0  0
  -28.3907  -32.6833   25.0364 H   0  0  0  0  0  0
  -28.0660  -31.8540   26.5496 H   0  0  0  0  0  0
  -28.2583  -38.0063   24.7506 H   0  0  0  0  0  0
  -28.1075  -36.2594   24.6317 H   0  0  0  0  0  0
  -27.2287  -37.1437   25.8869 H   0  0  0  0  0  0
  -20.9580  -29.8720   21.6691 H   0  0  0  0  0  0
  -26.0143  -38.2782   24.1394 H   0  0  0  0  0  0
  -27.7307  -20.7032   21.9277 H   0  0  0  0  0  0
  -28.0023  -18.2894   21.9357 H   0  0  0  0  0  0
  -31.3980  -22.8305   20.6426 H   0  0  0  0  0  0
  -30.7728  -24.5410   20.4220 H   0  0  0  0  0  0
  -29.3481  -24.2684   22.4184 H   0  0  0  0  0  0
  -29.9218  -22.5361   22.6183 H   0  0  0  0  0  0
  -30.5043  -22.0619   18.2677 H   0  0  0  0  0  0
  -30.8950  -20.4901   17.5927 H   0  0  0  0  0  0
  -31.8907  -21.1587   18.8896 H   0  0  0  0  0  0
  -27.1077  -24.0533   20.4145 H   0  0  0  0  0  0
  -28.0154  -24.1815   18.9537 H   0  0  0  0  0  0
  -28.7085  -16.1106   20.8840 H   0  0  0  0  0  0
  1 25  1  0  0  0
  1 30  2  0  0  0
  1 82  1  0  0  0
  2  3  1  0  0  0
  2 25  1  0  0  0
  2 83  1  0  0  0
  2 84  1  0  0  0
  3  4  1  0  0  0
  3 85  1  0  0  0
  3 86  1  0  0  0
  4  5  1  0  0  0
  4 87  1  0  0  0
  4 88  1  0  0  0
  5  6  1  0  0  0
  5 26  1  0  0  0
  5 89  1  0  0  0
  6 25  1  0  0  0
  6 90  1  0  0  0
  6 91  1  0  0  0
  7  8  2  0  0  0
  7 26  1  0  0  0
  7 29  1  0  0  0
  8  9  1  0  0  0
  8 22  1  0  0  0
  9 10  1  0  0  0
  9 27  2  0  0  0
 10 11  2  0  0  0
 10 15  1  0  0  0
 11 12  1  0  0  0
 11 92  1  0  0  0
 12 13  2  0  0  0
 12 93  1  0  0  0
 13 14  1  0  0  0
 13 31  1  0  0  0
 14 15  2  0  0  0
 14 94  1  0  0  0
 15 95  1  0  0  0
 16 17  2  0  0  0
 16 21  1  0  0  0
 16 31  1  0  0  0
 17 18  1  0  0  0
 17 96  1  0  0  0
 18 19  2  0  0  0
 18 97  1  0  0  0
 19 20  1  0  0  0
 19 24  1  0  0  0
 20 21  2  0  0  0
 20 98  1  0  0  0
 21 23  1  0  0  0
 22 28  1  0  0  0
 22 32  2  0  0  0
 26 27  1  0  0  0
 28 99  1  0  0  0
 28100  1  0  0  0
 29101  1  0  0  0
 29102  1  0  0  0
 33 34  1  0  0  0
 33 66  1  0  0  0
 33 70  2  0  0  0
 34 36  1  0  0  0
 34 59  1  0  0  0
 34103  1  0  0  0
 35 44  2  0  0  0
 35 45  1  0  0  0
 35 68  1  0  0  0
 36 56  1  0  0  0
 36104  1  0  0  0
 37 39  1  0  0  0
 37 47  1  0  0  0
 37 66  1  0  0  0
 37105  1  0  0  0
 38 43  2  0  0  0
 38 46  1  0  0  0
 38 47  1  0  0  0
 39 64  1  0  0  0
 39 67  2  0  0  0
 40 52  1  0  0  0
 40 53  2  0  0  0
 40 58  1  0  0  0
 41106  1  0  0  0
 41107  1  0  0  0
 41108  1  0  0  0
 41 48  1  0  0  0
 42 43  1  0  0  0
 42 66  1  0  0  0
 42109  1  0  0  0
 42110  1  0  0  0
 43 44  1  0  0  0
 44111  1  0  0  0
 45 46  2  0  0  0
 45112  1  0  0  0
 46113  1  0  0  0
 47114  1  0  0  0
 47115  1  0  0  0
 48 56  1  0  0  0
 48 65  1  0  0  0
 48116  1  0  0  0
 49 50  1  0  0  0
 49 53  1  0  0  0
 49 64  1  0  0  0
 49117  1  0  0  0
 50 51  1  0  0  0
 50118  1  0  0  0
 50119  1  0  0  0
 51 52  1  0  0  0
 51120  1  0  0  0
 51121  1  0  0  0
 52122  1  0  0  0
 52123  1  0  0  0
 53 54  1  0  0  0
 54 55  2  0  0  0
 54124  1  0  0  0
 55 57  1  0  0  0
 55125  1  0  0  0
 56 69  2  0  0  0
 57 58  2  0  0  0
 57126  1  0  0  0
 58127  1  0  0  0
 59 60  1  0  0  0
 59 61  1  0  0  0
 59 62  1  0  0  0
 60128  1  0  0  0
 60129  1  0  0  0
 60130  1  0  0  0
 61131  1  0  0  0
 61132  1  0  0  0
 61133  1  0  0  0
 62134  1  0  0  0
 62135  1  0  0  0
 62136  1  0  0  0
 63 65  1  0  0  0
 63137  1  0  0  0
 63138  1  0  0  0
 63139  1  0  0  0
 64140  1  0  0  0
 65141  1  0  0  0
 68 80  1  0  0  0
 71 72  2  0  0  0
 71 73  1  0  0  0
 71142  1  0  0  0
 72 75  1  0  0  0
 72143  1  0  0  0
 73 74  2  0  0  0
 73 78  1  0  0  0
 74 79  1  0  0  0
 74 81  1  0  0  0
 75 81  2  0  0  0
 75 82  1  0  0  0
 76 77  1  0  0  0
 76 78  1  0  0  0
 76144  1  0  0  0
 76145  1  0  0  0
 77 78  1  0  0  0
 77146  1  0  0  0
 77147  1  0  0  0
 78 80  1  0  0  0
 79148  1  0  0  0
 79149  1  0  0  0
 79150  1  0  0  0
 80151  1  0  0  0
 80152  1  0  0  0
 82153  1  0  0  0
M  ISO  4   1 100  68 101  80 101  82 100
M  END
> <chiral flag>
0

> <version>
0

> <s_m_source_file>
/data/baiqing/PycharmProjects/Reinvent-master-3.2/result/LINK_invent/BTK/process_docking_weight1_custom_sum_contain_oxygen_bond_distance_aromatic_linkinvent_7_9_3/rearranged_h_0175.sdf

> <i_m_source_file_index>
84

> <r_mmod_Potential_Energy-OPLS-2005>
975.776306152344

> <r_mmod_Stretch_Energy-OPLS-2005>
488.017700195312

> <r_mmod_Bend_Energy-OPLS-2005>
424.834625244141

> <r_mmod_Torsional_Energy-OPLS-2005>
250.30094909668

> <r_mmod_Improper_Torsional_Energy-OPLS-2005>
5.93614816665649

> <r_mmod_Van_der_Waal_Energy-OPLS-2005>
126.711074829102

> <r_mmod_Electrostatic_Energy-OPLS-2005>
-496.695037841797

> <r_mmod_Solvation_Energy-OPLS-2005>
-230.318161010742

> <b_mmod_Minimization_Converged-OPLS-2005>
0

> <r_mmod_RMS_Derivative-OPLS-2005>
2.13054847717285

$$$$
84
                    3D
 Structure written by MMmdl.
159168  0  0  1  0            999 V2000
  -30.6215  -14.8760   20.4323 C   0  0  0  0  0  0
  -30.4166  -12.5509   19.4829 C   0  0  0  0  0  0
  -29.5055  -12.5138   18.2394 C   0  0  0  0  0  0
  -28.0408  -12.2958   18.6614 C   0  0  0  0  0  0
  -27.6164  -13.2256   19.8276 C   0  0  2  0  0  0
  -28.6634  -13.2898   20.9609 C   0  0  0  0  0  0
  -25.2460  -13.8162   20.5766 C   0  0  0  0  0  0
  -24.1749  -13.0404   20.9255 C   0  0  0  0  0  0
  -24.6347  -11.6890   20.8775 C   0  0  0  0  0  0
  -23.9030  -10.4269   21.0435 C   0  0  0  0  0  0
  -24.3595   -9.4186   21.9201 C   0  0  0  0  0  0
  -23.6259   -8.2227   22.0761 C   0  0  0  0  0  0
  -22.4242   -8.0274   21.3555 C   0  0  0  0  0  0
  -21.9884   -9.0248   20.4652 C   0  0  0  0  0  0
  -22.7218  -10.2118   20.3075 C   0  0  0  0  0  0
  -21.6840   -6.0731   22.5282 C   0  0  0  0  0  0
  -21.4020   -6.5644   23.8220 C   0  0  0  0  0  0
  -21.3658   -5.6790   24.9182 C   0  0  0  0  0  0
  -21.6041   -4.3048   24.7232 C   0  0  0  0  0  0
  -21.8827   -3.8144   23.4358 C   0  0  0  0  0  0
  -21.9197   -4.6960   22.3414 C   0  0  0  0  0  0
  -22.7780  -13.5214   21.1898 C   0  0  0  0  0  0
  -22.1662   -4.2149   21.0982 F   0  0  0  0  0  0
  -21.5609   -3.4529   25.7743 F   0  0  0  0  0  0
  -29.9401  -13.6677   20.3463 N   0  0  0  0  0  0
  -26.2822  -12.9326   20.3247 N   0  0  0  0  0  0
  -25.9264  -11.6484   20.5763 N   0  0  0  0  0  0
  -22.0391  -12.8213   22.0434 N   0  0  0  0  0  0
  -25.4180  -15.1880   20.4255 N   0  0  0  0  0  0
  -31.8361  -14.8420   20.2059 O   0  0  0  0  0  0
  -21.6627   -6.8867   21.4245 O   0  0  0  0  0  0
  -22.3489  -14.5506   20.6716 O   0  0  0  0  0  0
  -24.6391  -31.8479   23.1958 C   0  0  0  0  0  0
  -25.9186  -32.4720   23.8323 C   0  0  1  0  0  0
  -27.2025  -27.1915   20.1505 C   0  0  0  0  0  0
  -25.5974  -33.8538   24.2244 N   0  0  0  0  0  0
  -23.4381  -30.4710   21.5418 C   0  0  2  0  0  0
  -24.8805  -28.9056   20.1132 C   0  0  0  0  0  0
  -22.7534  -29.4580   22.4915 C   0  0  0  0  0  0
  -18.0286  -28.1391   22.8504 C   0  0  0  0  0  0
  -24.1478  -36.7257   23.2646 C   0  0  0  0  0  0
  -25.9876  -30.7409   21.3827 C   0  0  0  0  0  0
  -26.0572  -29.3568   20.7262 C   0  0  0  0  0  0
  -27.2232  -28.5136   20.7324 C   0  0  0  0  0  0
  -26.0099  -26.8344   19.4871 C   0  0  0  0  0  0
  -24.8642  -27.6536   19.4830 C   0  0  0  0  0  0
  -23.6568  -29.8027   20.1590 C   0  0  0  0  0  0
  -25.4114  -36.3061   24.0316 C   0  0  1  0  0  0
  -20.5900  -28.3728   23.1254 C   0  0  2  0  0  0
  -20.6773  -26.9437   22.5420 C   0  0  0  0  0  0
  -19.5739  -26.6380   21.5237 C   0  0  0  0  0  0
  -18.1914  -26.7935   22.1633 C   0  0  0  0  0  0
  -19.1548  -28.8879   23.2858 C   0  0  0  0  0  0
  -18.9465  -30.1481   23.8868 C   0  0  0  0  0  0
  -17.6458  -30.6602   24.0560 C   0  0  0  0  0  0
  -25.9051  -34.9428   23.5073 C   0  0  0  0  0  0
  -16.5353  -29.9085   23.6344 C   0  0  0  0  0  0
  -16.7277  -28.6499   23.0388 C   0  0  0  0  0  0
  -26.4532  -31.6581   25.0752 C   0  0  0  0  0  0
  -25.3739  -31.3732   26.1465 C   0  0  0  0  0  0
  -27.0401  -30.2996   24.6281 C   0  0  0  0  0  0
  -27.6068  -32.4349   25.7526 C   0  0  0  0  0  0
  -27.5568  -37.1794   24.8469 C   0  0  0  0  0  0
  -21.4241  -29.3043   22.3627 N   0  0  0  0  0  0
  -26.4287  -37.3771   23.9410 N   0  0  0  0  0  0
  -24.7082  -31.0398   22.0955 N   0  0  0  0  0  0
  -23.4188  -28.8123   23.3055 O   0  0  0  0  0  0
  -28.2576  -26.2326   20.1842 O   0  0  0  0  0  0
  -26.5626  -34.8919   22.4640 O   0  0  0  0  0  0
  -23.5532  -32.1335   23.7212 O   0  0  0  0  0  0
  -30.1375  -21.2254   18.9887 C   0  0  0  0  0  0
  -29.2962  -20.9195   20.0713 C   0  0  0  0  0  0
  -28.7491  -23.4598   20.0556 C   0  0  0  0  0  0
  -28.5815  -22.0951   20.5872 C   0  0  0  0  0  0
  -29.6658  -23.5346   18.9864 C   0  0  0  0  0  0
  -28.6543  -18.2482   19.7061 C   0  0  0  0  0  0
  -30.6852  -18.7264   20.8601 C   0  0  0  0  0  0
  -28.7054  -16.7220   20.2291 C   0  0  0  0  0  0
  -30.7262  -17.2382   21.4308 C   0  0  0  0  0  0
  -29.2801  -19.3781   20.6101 C   0  0  0  0  0  0
  -29.9998  -24.8503   18.3149 C   0  0  0  0  0  0
  -27.9472  -24.7780   20.5703 C   0  0  0  0  0  0
  -30.3193  -22.4638   18.4767 N   0  0  0  0  0  0
  -30.0130  -16.1398   20.6931 N   0  0  0  0  0  0
  -27.4773  -21.8601   21.8954 Cl  0  0  0  0  0  0
  -31.4535  -12.6747   19.1683 H   0  0  0  0  0  0
  -30.3805  -11.6055   20.0253 H   0  0  0  0  0  0
  -29.8246  -11.7272   17.5535 H   0  0  0  0  0  0
  -29.5967  -13.4545   17.6922 H   0  0  0  0  0  0
  -27.9325  -11.2515   18.9570 H   0  0  0  0  0  0
  -27.3797  -12.4382   17.8051 H   0  0  0  0  0  0
  -27.5494  -14.2028   19.3665 H   0  0  0  0  0  0
  -28.7475  -12.3336   21.4797 H   0  0  0  0  0  0
  -28.3692  -14.0264   21.7093 H   0  0  0  0  0  0
  -25.2757   -9.5647   22.4754 H   0  0  0  0  0  0
  -23.9968   -7.4624   22.7477 H   0  0  0  0  0  0
  -21.0827   -8.8792   19.8945 H   0  0  0  0  0  0
  -22.3714  -10.9666   19.6172 H   0  0  0  0  0  0
  -21.2031   -7.6155   23.9721 H   0  0  0  0  0  0
  -21.1455   -6.0519   25.9074 H   0  0  0  0  0  0
  -22.0607   -2.7602   23.2864 H   0  0  0  0  0  0
  -22.4012  -11.9883   22.4844 H   0  0  0  0  0  0
  -21.1017  -13.1274   22.2613 H   0  0  0  0  0  0
  -24.6585  -15.8460   20.5636 H   0  0  0  0  0  0
  -26.2780  -15.6310   20.1335 H   0  0  0  0  0  0
  -26.7265  -32.5344   23.1066 H   0  0  0  0  0  0
  -25.0199  -33.9676   25.0451 H   0  0  0  0  0  0
  -22.7382  -31.2957   21.3934 H   0  0  0  0  0  0
  -23.3773  -35.9555   23.3297 H   0  0  0  0  0  0
  -24.3550  -36.8911   22.2063 H   0  0  0  0  0  0
  -23.7192  -37.6426   23.6697 H   0  0  0  0  0  0
  -26.1282  -31.4947   20.6074 H   0  0  0  0  0  0
  -26.8618  -30.7938   22.0192 H   0  0  0  0  0  0
  -28.1197  -28.8493   21.2342 H   0  0  0  0  0  0
  -25.9415  -25.8849   18.9769 H   0  0  0  0  0  0
  -23.9661  -27.3025   18.9947 H   0  0  0  0  0  0
  -23.7877  -30.5760   19.4008 H   0  0  0  0  0  0
  -22.7706  -29.2414   19.8575 H   0  0  0  0  0  0
  -25.1299  -36.1898   25.0810 H   0  0  0  0  0  0
  -20.9985  -28.3327   24.1377 H   0  0  0  0  0  0
  -20.5693  -26.2354   23.3643 H   0  0  0  0  0  0
  -21.6635  -26.7450   22.1210 H   0  0  0  0  0  0
  -19.6901  -25.6287   21.1272 H   0  0  0  0  0  0
  -19.6659  -27.3185   20.6758 H   0  0  0  0  0  0
  -17.4201  -26.6750   21.4007 H   0  0  0  0  0  0
  -18.0246  -26.0061   22.8999 H   0  0  0  0  0  0
  -19.7947  -30.7315   24.2216 H   0  0  0  0  0  0
  -17.5014  -31.6276   24.5176 H   0  0  0  0  0  0
  -15.5348  -30.2973   23.7676 H   0  0  0  0  0  0
  -15.8680  -28.0784   22.7130 H   0  0  0  0  0  0
  -24.5948  -30.7035   25.7812 H   0  0  0  0  0  0
  -24.8884  -32.2893   26.4843 H   0  0  0  0  0  0
  -25.8048  -30.8971   27.0288 H   0  0  0  0  0  0
  -26.3019  -29.6727   24.1265 H   0  0  0  0  0  0
  -27.4041  -29.7277   25.4827 H   0  0  0  0  0  0
  -27.8912  -30.4278   23.9582 H   0  0  0  0  0  0
  -27.2687  -33.3710   26.1993 H   0  0  0  0  0  0
  -28.3927  -32.6807   25.0368 H   0  0  0  0  0  0
  -28.0688  -31.8548   26.5532 H   0  0  0  0  0  0
  -28.2583  -38.0102   24.7540 H   0  0  0  0  0  0
  -28.1079  -36.2624   24.6285 H   0  0  0  0  0  0
  -27.2281  -37.1427   25.8879 H   0  0  0  0  0  0
  -20.9458  -29.8764   21.6810 H   0  0  0  0  0  0
  -26.0155  -38.2842   24.1443 H   0  0  0  0  0  0
  -30.7141  -20.4459   18.5149 H   0  0  0  0  0  0
  -27.6165  -18.5066   19.4914 H   0  0  0  0  0  0
  -29.1549  -18.2742   18.7376 H   0  0  0  0  0  0
  -31.2472  -18.7256   19.9251 H   0  0  0  0  0  0
  -31.2506  -19.3722   21.5341 H   0  0  0  0  0  0
  -28.3164  -16.1105   19.4224 H   0  0  0  0  0  0
  -28.0062  -16.6268   21.0615 H   0  0  0  0  0  0
  -30.2987  -17.2581   22.4336 H   0  0  0  0  0  0
  -31.7727  -16.9687   21.5803 H   0  0  0  0  0  0
  -28.7396  -19.3829   21.5572 H   0  0  0  0  0  0
  -30.5234  -25.4977   19.0196 H   0  0  0  0  0  0
  -29.0922  -25.3531   17.9798 H   0  0  0  0  0  0
  -30.6428  -24.7182   17.4444 H   0  0  0  0  0  0
  -28.0512  -24.7584   21.6548 H   0  0  0  0  0  0
  -26.8930  -24.5590   20.4057 H   0  0  0  0  0  0
  1 25  1  0  0  0
  1 30  2  0  0  0
  1 84  1  0  0  0
  2  3  1  0  0  0
  2 25  1  0  0  0
  2 86  1  0  0  0
  2 87  1  0  0  0
  3  4  1  0  0  0
  3 88  1  0  0  0
  3 89  1  0  0  0
  4  5  1  0  0  0
  4 90  1  0  0  0
  4 91  1  0  0  0
  5  6  1  0  0  0
  5 26  1  0  0  0
  5 92  1  0  0  0
  6 25  1  0  0  0
  6 93  1  0  0  0
  6 94  1  0  0  0
  7  8  2  0  0  0
  7 26  1  0  0  0
  7 29  1  0  0  0
  8  9  1  0  0  0
  8 22  1  0  0  0
  9 10  1  0  0  0
  9 27  2  0  0  0
 10 11  2  0  0  0
 10 15  1  0  0  0
 11 12  1  0  0  0
 11 95  1  0  0  0
 12 13  2  0  0  0
 12 96  1  0  0  0
 13 14  1  0  0  0
 13 31  1  0  0  0
 14 15  2  0  0  0
 14 97  1  0  0  0
 15 98  1  0  0  0
 16 17  2  0  0  0
 16 21  1  0  0  0
 16 31  1  0  0  0
 17 18  1  0  0  0
 17 99  1  0  0  0
 18 19  2  0  0  0
 18100  1  0  0  0
 19 20  1  0  0  0
 19 24  1  0  0  0
 20 21  2  0  0  0
 20101  1  0  0  0
 21 23  1  0  0  0
 22 28  1  0  0  0
 22 32  2  0  0  0
 26 27  1  0  0  0
 28102  1  0  0  0
 28103  1  0  0  0
 29104  1  0  0  0
 29105  1  0  0  0
 33 34  1  0  0  0
 33 66  1  0  0  0
 33 70  2  0  0  0
 34 36  1  0  0  0
 34 59  1  0  0  0
 34106  1  0  0  0
 35 44  2  0  0  0
 35 45  1  0  0  0
 35 68  1  0  0  0
 36 56  1  0  0  0
 36107  1  0  0  0
 37 39  1  0  0  0
 37 47  1  0  0  0
 37 66  1  0  0  0
 37108  1  0  0  0
 38 43  2  0  0  0
 38 46  1  0  0  0
 38 47  1  0  0  0
 39 64  1  0  0  0
 39 67  2  0  0  0
 40 52  1  0  0  0
 40 53  2  0  0  0
 40 58  1  0  0  0
 41109  1  0  0  0
 41110  1  0  0  0
 41111  1  0  0  0
 41 48  1  0  0  0
 42 43  1  0  0  0
 42 66  1  0  0  0
 42112  1  0  0  0
 42113  1  0  0  0
 43 44  1  0  0  0
 44114  1  0  0  0
 45 46  2  0  0  0
 45115  1  0  0  0
 46116  1  0  0  0
 47117  1  0  0  0
 47118  1  0  0  0
 48 56  1  0  0  0
 48 65  1  0  0  0
 48119  1  0  0  0
 49 50  1  0  0  0
 49 53  1  0  0  0
 49 64  1  0  0  0
 49120  1  0  0  0
 50 51  1  0  0  0
 50121  1  0  0  0
 50122  1  0  0  0
 51 52  1  0  0  0
 51123  1  0  0  0
 51124  1  0  0  0
 52125  1  0  0  0
 52126  1  0  0  0
 53 54  1  0  0  0
 54 55  2  0  0  0
 54127  1  0  0  0
 55 57  1  0  0  0
 55128  1  0  0  0
 56 69  2  0  0  0
 57 58  2  0  0  0
 57129  1  0  0  0
 58130  1  0  0  0
 59 60  1  0  0  0
 59 61  1  0  0  0
 59 62  1  0  0  0
 60131  1  0  0  0
 60132  1  0  0  0
 60133  1  0  0  0
 61134  1  0  0  0
 61135  1  0  0  0
 61136  1  0  0  0
 62137  1  0  0  0
 62138  1  0  0  0
 62139  1  0  0  0
 63 65  1  0  0  0
 63140  1  0  0  0
 63141  1  0  0  0
 63142  1  0  0  0
 64143  1  0  0  0
 65144  1  0  0  0
 68 82  1  0  0  0
 71 72  2  0  0  0
 71 83  1  0  0  0
 71145  1  0  0  0
 72 74  1  0  0  0
 72 80  1  0  0  0
 73 74  2  0  0  0
 73 75  1  0  0  0
 73 82  1  0  0  0
 74 85  1  0  0  0
 75 81  1  0  0  0
 75 83  2  0  0  0
 76 78  1  0  0  0
 76 80  1  0  0  0
 76146  1  0  0  0
 76147  1  0  0  0
 77 79  1  0  0  0
 77 80  1  0  0  0
 77148  1  0  0  0
 77149  1  0  0  0
 78 84  1  0  0  0
 78150  1  0  0  0
 78151  1  0  0  0
 79 84  1  0  0  0
 79152  1  0  0  0
 79153  1  0  0  0
 80154  1  0  0  0
 81155  1  0  0  0
 81156  1  0  0  0
 81157  1  0  0  0
 82158  1  0  0  0
 82159  1  0  0  0
M  ISO  4   1 100  68 101  82 101  84 100
M  END
> <chiral flag>
0

> <version>
0

> <s_m_source_file>
/data/baiqing/PycharmProjects/Reinvent-master-3.2/result/LINK_invent/BTK/process_docking_weight1_custom_sum_contain_oxygen_bond_distance_aromatic_linkinvent_7_9_3/rearranged_h_0175.sdf

> <i_m_source_file_index>
85

> <r_mmod_Potential_Energy-OPLS-2005>
400.076263427734

> <r_mmod_Stretch_Energy-OPLS-2005>
174.791549682617

> <r_mmod_Bend_Energy-OPLS-2005>
231.188201904297

> <r_mmod_Torsional_Energy-OPLS-2005>
334.265594482422

> <r_mmod_Improper_Torsional_Energy-OPLS-2005>
1.72301685810089

> <r_mmod_Van_der_Waal_Energy-OPLS-2005>
140.541610717773

> <r_mmod_Electrostatic_Energy-OPLS-2005>
-425.947631835938

> <r_mmod_Solvation_Energy-OPLS-2005>
-206.734222412109

> <b_mmod_Minimization_Converged-OPLS-2005>
0

> <r_mmod_RMS_Derivative-OPLS-2005>
3.20141577720642

$$$$
85
                    3D
 Structure written by MMmdl.
166174  0  0  1  0            999 V2000
  -30.0610  -16.3009   20.3019 C   0  0  0  0  0  0
  -30.3564  -13.5964   19.5225 C   0  0  0  0  0  0
  -29.5655  -12.8460   18.3843 C   0  0  0  0  0  0
  -28.2023  -12.3424   18.8676 C   0  0  0  0  0  0
  -27.5807  -13.3825   19.8137 C   0  0  2  0  0  0
  -28.5520  -13.9895   20.8786 C   0  0  0  0  0  0
  -25.2240  -13.8395   20.5917 C   0  0  0  0  0  0
  -24.1692  -13.0448   20.9332 C   0  0  0  0  0  0
  -24.6496  -11.6989   20.8756 C   0  0  0  0  0  0
  -23.9201  -10.4304   21.0358 C   0  0  0  0  0  0
  -24.3706   -9.4213   21.9153 C   0  0  0  0  0  0
  -23.6344   -8.2265   22.0740 C   0  0  0  0  0  0
  -22.4324   -8.0306   21.3533 C   0  0  0  0  0  0
  -21.9979   -9.0287   20.4632 C   0  0  0  0  0  0
  -22.7347  -10.2147   20.3025 C   0  0  0  0  0  0
  -21.6876   -6.0755   22.5275 C   0  0  0  0  0  0
  -21.4036   -6.5650   23.8210 C   0  0  0  0  0  0
  -21.3659   -5.6795   24.9164 C   0  0  0  0  0  0
  -21.6037   -4.3057   24.7213 C   0  0  0  0  0  0
  -21.8826   -3.8158   23.4335 C   0  0  0  0  0  0
  -21.9199   -4.6978   22.3394 C   0  0  0  0  0  0
  -22.7677  -13.5115   21.1937 C   0  0  0  0  0  0
  -22.1670   -4.2161   21.0971 F   0  0  0  0  0  0
  -21.5614   -3.4536   25.7723 F   0  0  0  0  0  0
  -29.5996  -14.8260   20.1727 N   0  0  0  0  0  0
  -26.2801  -12.9887   20.3407 N   0  0  0  0  0  0
  -25.9485  -11.6866   20.5701 N   0  0  0  0  0  0
  -22.0382  -12.8065   22.0495 N   0  0  0  0  0  0
  -25.3705  -15.2146   20.4359 N   0  0  0  0  0  0
  -31.3088  -16.1055   20.2767 O   0  0  0  0  0  0
  -21.6670   -6.8911   21.4243 O   0  0  0  0  0  0
  -22.3316  -14.5401   20.6776 O   0  0  0  0  0  0
  -24.7339  -31.7475   23.1257 C   0  0  0  0  0  0
  -25.9688  -32.4216   23.7946 C   0  0  1  0  0  0
  -27.2241  -26.1955   20.1908 C   0  0  0  0  0  0
  -25.6065  -33.8074   24.1745 N   0  0  0  0  0  0
  -23.5802  -30.3420   21.4945 C   0  0  2  0  0  0
  -25.0420  -28.6141   20.1400 C   0  0  0  0  0  0
  -22.7991  -29.4050   22.4615 C   0  0  0  0  0  0
  -18.0378  -28.1443   22.8431 C   0  0  0  0  0  0
  -24.1496  -36.7032   23.2660 C   0  0  0  0  0  0
  -26.1867  -30.3008   21.4865 C   0  0  0  0  0  0
  -26.2392  -28.8164   20.8340 C   0  0  0  0  0  0
  -27.2787  -27.6507   20.8457 C   0  0  0  0  0  0
  -26.0047  -26.4110   19.4361 C   0  0  0  0  0  0
  -24.9970  -27.4300   19.4127 C   0  0  0  0  0  0
  -23.8647  -29.6246   20.1448 C   0  0  0  0  0  0
  -25.4164  -36.2747   24.0250 C   0  0  1  0  0  0
  -20.6037  -28.3830   23.1039 C   0  0  2  0  0  0
  -20.6825  -26.9446   22.5386 C   0  0  0  0  0  0
  -19.5795  -26.6349   21.5214 C   0  0  0  0  0  0
  -18.1982  -26.7958   22.1619 C   0  0  0  0  0  0
  -19.1656  -28.8971   23.2698 C   0  0  0  0  0  0
  -18.9550  -30.1542   23.8765 C   0  0  0  0  0  0
  -17.6532  -30.6612   24.0535 C   0  0  0  0  0  0
  -25.9182  -34.9150   23.4857 C   0  0  0  0  0  0
  -16.5418  -29.9079   23.6361 C   0  0  0  0  0  0
  -16.7353  -28.6504   23.0378 C   0  0  0  0  0  0
  -26.4681  -31.6457   25.0769 C   0  0  0  0  0  0
  -25.3600  -31.3925   26.1272 C   0  0  0  0  0  0
  -27.0685  -30.2727   24.7089 C   0  0  0  0  0  0
  -27.6036  -32.4445   25.7591 C   0  0  0  0  0  0
  -27.5551  -37.1668   24.8462 C   0  0  0  0  0  0
  -21.4598  -29.2997   22.3327 N   0  0  0  0  0  0
  -26.4245  -37.3564   23.9417 N   0  0  0  0  0  0
  -24.8644  -30.8399   22.0846 N   0  0  0  0  0  0
  -23.4204  -28.7674   23.3145 O   0  0  0  0  0  0
  -27.9788  -24.6020   20.1724 O   0  0  0  0  0  0
  -26.5866  -34.8807   22.4508 O   0  0  0  0  0  0
  -23.6249  -32.0808   23.5857 O   0  0  0  0  0  0
  -27.8885  -24.7411   18.0506 C   0  0  0  0  0  0
  -29.7853  -23.1921   19.9865 C   0  0  0  0  0  0
  -29.5559  -24.5051   18.7610 C   0  0  0  0  0  0
  -26.7353  -23.5424   18.7416 C   0  0  0  0  0  0
  -28.7263  -21.8476   20.2736 C   0  0  0  0  0  0
  -30.4985  -24.3421   17.7058 C   0  0  0  0  0  0
  -25.1489  -23.9250   16.7509 C   0  0  0  0  0  0
  -24.1780  -23.4550   19.0791 C   0  0  0  0  0  0
  -30.9103  -20.0737   20.6496 C   0  0  0  0  0  0
  -30.9847  -22.0143   16.8097 C   0  0  0  0  0  0
  -28.7239  -22.6693   18.0144 C   0  0  0  0  0  0
  -25.3634  -23.2470   18.1160 C   0  0  0  0  0  0
  -29.3969  -19.8536   20.5417 C   0  0  2  0  0  0
  -29.9285  -23.1101   17.0583 C   0  0  1  0  0  0
  -27.2386  -22.3427   19.8015 N   0  0  0  0  0  0
  -29.3408  -17.8607   20.2949 N   0  0  0  0  0  0
  -31.5412  -24.9401   17.4244 O   0  0  0  0  0  0
  -31.2817  -13.9604   19.0753 H   0  0  0  0  0  0
  -30.6930  -12.8887   20.2831 H   0  0  0  0  0  0
  -30.1524  -12.0150   17.9886 H   0  0  0  0  0  0
  -29.4143  -13.5361   17.5531 H   0  0  0  0  0  0
  -28.3514  -11.4066   19.4079 H   0  0  0  0  0  0
  -27.5419  -12.1202   18.0275 H   0  0  0  0  0  0
  -27.3591  -14.2109   19.1401 H   0  0  0  0  0  0
  -28.9649  -13.2258   21.5396 H   0  0  0  0  0  0
  -27.9977  -14.6621   21.5333 H   0  0  0  0  0  0
  -25.2842   -9.5677   22.4741 H   0  0  0  0  0  0
  -24.0036   -7.4660   22.7471 H   0  0  0  0  0  0
  -21.0903   -8.8826   19.8943 H   0  0  0  0  0  0
  -22.3804  -10.9687   19.6136 H   0  0  0  0  0  0
  -21.2059   -7.6162   23.9717 H   0  0  0  0  0  0
  -21.1459   -6.0520   25.9060 H   0  0  0  0  0  0
  -22.0606   -2.7621   23.2828 H   0  0  0  0  0  0
  -22.4074  -11.9750   22.4875 H   0  0  0  0  0  0
  -21.0976  -13.0994   22.2710 H   0  0  0  0  0  0
  -24.5949  -15.8571   20.5520 H   0  0  0  0  0  0
  -26.2161  -15.6642   20.1099 H   0  0  0  0  0  0
  -26.7822  -32.4550   23.0691 H   0  0  0  0  0  0
  -25.0060  -33.9043   24.9799 H   0  0  0  0  0  0
  -22.9349  -31.1951   21.2753 H   0  0  0  0  0  0
  -23.3808  -35.9303   23.3204 H   0  0  0  0  0  0
  -24.3560  -36.8844   22.2099 H   0  0  0  0  0  0
  -23.7196  -37.6137   23.6850 H   0  0  0  0  0  0
  -26.4558  -30.9917   20.6870 H   0  0  0  0  0  0
  -27.0170  -30.3744   22.1731 H   0  0  0  0  0  0
  -28.1474  -27.8313   21.4619 H   0  0  0  0  0  0
  -25.6856  -25.6482   18.7753 H   0  0  0  0  0  0
  -24.1326  -27.2521   18.7870 H   0  0  0  0  0  0
  -24.0881  -30.3777   19.3885 H   0  0  0  0  0  0
  -22.9610  -29.1232   19.7934 H   0  0  0  0  0  0
  -25.1386  -36.1452   25.0735 H   0  0  0  0  0  0
  -21.0096  -28.3475   24.1176 H   0  0  0  0  0  0
  -20.5672  -26.2459   23.3686 H   0  0  0  0  0  0
  -21.6675  -26.7328   22.1208 H   0  0  0  0  0  0
  -19.6940  -25.6224   21.1323 H   0  0  0  0  0  0
  -19.6738  -27.3092   20.6690 H   0  0  0  0  0  0
  -17.4244  -26.6696   21.4028 H   0  0  0  0  0  0
  -18.0366  -26.0133   22.9047 H   0  0  0  0  0  0
  -19.8025  -30.7390   24.2082 H   0  0  0  0  0  0
  -17.5080  -31.6282   24.5160 H   0  0  0  0  0  0
  -15.5413  -30.2943   23.7761 H   0  0  0  0  0  0
  -15.8754  -28.0778   22.7174 H   0  0  0  0  0  0
  -24.5800  -30.7285   25.7523 H   0  0  0  0  0  0
  -24.8789  -32.3201   26.4385 H   0  0  0  0  0  0
  -25.7635  -30.9247   27.0261 H   0  0  0  0  0  0
  -26.3486  -29.6167   24.2189 H   0  0  0  0  0  0
  -27.3954  -29.7415   25.6038 H   0  0  0  0  0  0
  -27.9551  -30.3710   24.0827 H   0  0  0  0  0  0
  -27.2505  -33.3861   26.1809 H   0  0  0  0  0  0
  -28.4011  -32.6834   25.0541 H   0  0  0  0  0  0
  -28.0531  -31.8840   26.5797 H   0  0  0  0  0  0
  -28.2489  -38.0036   24.7551 H   0  0  0  0  0  0
  -28.1126  -36.2556   24.6239 H   0  0  0  0  0  0
  -27.2272  -37.1230   25.8862 H   0  0  0  0  0  0
  -21.0012  -29.8621   21.6289 H   0  0  0  0  0  0
  -26.0032  -38.2582   24.1477 H   0  0  0  0  0  0
  -27.6735  -25.3398   17.1756 H   0  0  0  0  0  0
  -30.8258  -22.9604   20.1676 H   0  0  0  0  0  0
  -25.9444  -23.6600   16.0535 H   0  0  0  0  0  0
  -25.1138  -25.0108   16.8175 H   0  0  0  0  0  0
  -24.2101  -23.5981   16.3031 H   0  0  0  0  0  0
  -24.3219  -22.8930   20.0023 H   0  0  0  0  0  0
  -23.2501  -23.1046   18.6257 H   0  0  0  0  0  0
  -24.0174  -24.4948   19.3534 H   0  0  0  0  0  0
  -31.3324  -20.3441   19.6828 H   0  0  0  0  0  0
  -31.4292  -19.1833   21.0035 H   0  0  0  0  0  0
  -31.1334  -20.8767   21.3520 H   0  0  0  0  0  0
  -31.7911  -22.3725   16.1708 H   0  0  0  0  0  0
  -30.5369  -21.1519   16.3153 H   0  0  0  0  0  0
  -31.4278  -21.6727   17.7450 H   0  0  0  0  0  0
  -28.9299  -21.5944   18.1060 H   0  0  0  0  0  0
  -27.9934  -22.4693   17.2100 H   0  0  0  0  0  0
  -25.3857  -22.1771   17.9050 H   0  0  0  0  0  0
  -29.0426  -19.7958   21.5722 H   0  0  0  0  0  0
  -29.5204  -23.4251   16.0981 H   0  0  0  0  0  0
  -28.3603  -17.6580   20.1524 H   0  0  0  0  0  0
  1 25  1  0  0  0
  1 30  2  0  0  0
  1 86  1  0  0  0
  2  3  1  0  0  0
  2 25  1  0  0  0
  2 88  1  0  0  0
  2 89  1  0  0  0
  3  4  1  0  0  0
  3 90  1  0  0  0
  3 91  1  0  0  0
  4  5  1  0  0  0
  4 92  1  0  0  0
  4 93  1  0  0  0
  5  6  1  0  0  0
  5 26  1  0  0  0
  5 94  1  0  0  0
  6 25  1  0  0  0
  6 95  1  0  0  0
  6 96  1  0  0  0
  7  8  2  0  0  0
  7 26  1  0  0  0
  7 29  1  0  0  0
  8  9  1  0  0  0
  8 22  1  0  0  0
  9 10  1  0  0  0
  9 27  2  0  0  0
 10 11  2  0  0  0
 10 15  1  0  0  0
 11 12  1  0  0  0
 11 97  1  0  0  0
 12 13  2  0  0  0
 12 98  1  0  0  0
 13 14  1  0  0  0
 13 31  1  0  0  0
 14 15  2  0  0  0
 14 99  1  0  0  0
 15100  1  0  0  0
 16 17  2  0  0  0
 16 21  1  0  0  0
 16 31  1  0  0  0
 17 18  1  0  0  0
 17101  1  0  0  0
 18 19  2  0  0  0
 18102  1  0  0  0
 19 20  1  0  0  0
 19 24  1  0  0  0
 20 21  2  0  0  0
 20103  1  0  0  0
 21 23  1  0  0  0
 22 28  1  0  0  0
 22 32  2  0  0  0
 26 27  1  0  0  0
 28104  1  0  0  0
 28105  1  0  0  0
 29106  1  0  0  0
 29107  1  0  0  0
 33 34  1  0  0  0
 33 66  1  0  0  0
 33 70  2  0  0  0
 34 36  1  0  0  0
 34 59  1  0  0  0
 34108  1  0  0  0
 35 44  2  0  0  0
 35 45  1  0  0  0
 35 68  1  0  0  0
 36 56  1  0  0  0
 36109  1  0  0  0
 37 39  1  0  0  0
 37 47  1  0  0  0
 37 66  1  0  0  0
 37110  1  0  0  0
 38 43  2  0  0  0
 38 46  1  0  0  0
 38 47  1  0  0  0
 39 64  1  0  0  0
 39 67  2  0  0  0
 40 52  1  0  0  0
 40 53  2  0  0  0
 40 58  1  0  0  0
 41111  1  0  0  0
 41112  1  0  0  0
 41113  1  0  0  0
 41 48  1  0  0  0
 42 43  1  0  0  0
 42 66  1  0  0  0
 42114  1  0  0  0
 42115  1  0  0  0
 43 44  1  0  0  0
 44116  1  0  0  0
 45 46  2  0  0  0
 45117  1  0  0  0
 46118  1  0  0  0
 47119  1  0  0  0
 47120  1  0  0  0
 48 56  1  0  0  0
 48 65  1  0  0  0
 48121  1  0  0  0
 49 50  1  0  0  0
 49 53  1  0  0  0
 49 64  1  0  0  0
 49122  1  0  0  0
 50 51  1  0  0  0
 50123  1  0  0  0
 50124  1  0  0  0
 51 52  1  0  0  0
 51125  1  0  0  0
 51126  1  0  0  0
 52127  1  0  0  0
 52128  1  0  0  0
 53 54  1  0  0  0
 54 55  2  0  0  0
 54129  1  0  0  0
 55 57  1  0  0  0
 55130  1  0  0  0
 56 69  2  0  0  0
 57 58  2  0  0  0
 57131  1  0  0  0
 58132  1  0  0  0
 59 60  1  0  0  0
 59 61  1  0  0  0
 59 62  1  0  0  0
 60133  1  0  0  0
 60134  1  0  0  0
 60135  1  0  0  0
 61136  1  0  0  0
 61137  1  0  0  0
 61138  1  0  0  0
 62139  1  0  0  0
 62140  1  0  0  0
 62141  1  0  0  0
 63 65  1  0  0  0
 63142  1  0  0  0
 63143  1  0  0  0
 63144  1  0  0  0
 64145  1  0  0  0
 65146  1  0  0  0
 68 81  1  0  0  0
 71 73  2  0  0  0
 71 74  1  0  0  0
 71147  1  0  0  0
 72 73  1  0  0  0
 72 75  2  0  0  0
 72148  1  0  0  0
 73 76  1  0  0  0
 74 82  1  0  0  0
 74 85  2  0  0  0
 75 83  1  0  0  0
 75 85  1  0  0  0
 76 84  1  0  0  0
 76 87  2  0  0  0
 77149  1  0  0  0
 77150  1  0  0  0
 77151  1  0  0  0
 77 82  1  0  0  0
 78 82  1  0  0  0
 78152  1  0  0  0
 78153  1  0  0  0
 78154  1  0  0  0
 79155  1  0  0  0
 79156  1  0  0  0
 79157  1  0  0  0
 79 83  1  0  0  0
 80158  1  0  0  0
 80159  1  0  0  0
 80160  1  0  0  0
 80 84  1  0  0  0
 81 84  1  0  0  0
 81161  1  0  0  0
 81162  1  0  0  0
 82163  1  0  0  0
 83 86  1  0  0  0
 83164  1  0  0  0
 84165  1  0  0  0
 86166  1  0  0  0
M  ISO  4   1 100  68 101  81 101  86 100
M  END
> <chiral flag>
0

> <version>
0

> <s_m_source_file>
/data/baiqing/PycharmProjects/Reinvent-master-3.2/result/LINK_invent/BTK/process_docking_weight1_custom_sum_contain_oxygen_bond_distance_aromatic_linkinvent_7_9_3/rearranged_h_0175.sdf

> <i_m_source_file_index>
86

> <r_mmod_Potential_Energy-OPLS-2005>
11764.60546875

> <r_mmod_Stretch_Energy-OPLS-2005>
6867.806640625

> <r_mmod_Bend_Energy-OPLS-2005>
1001.68524169922

> <r_mmod_Torsional_Energy-OPLS-2005>
420.750823974609

> <r_mmod_Improper_Torsional_Energy-OPLS-2005>
33.9751892089844

> <r_mmod_Van_der_Waal_Energy-OPLS-2005>
1979.57165527344

> <r_mmod_Electrostatic_Energy-OPLS-2005>
-539.989807128906

> <r_mmod_Solvation_Energy-OPLS-2005>
-264.555755615234

> <b_mmod_Minimization_Converged-OPLS-2005>
0

> <r_mmod_RMS_Derivative-OPLS-2005>
2.73328638076782

$$$$
86
                    3D
 Structure written by MMmdl.
178187  0  0  1  0            999 V2000
  -30.6929  -14.4739   20.6436 C   0  0  0  0  0  0
  -30.4289  -12.3366   19.4152 C   0  0  0  0  0  0
  -29.4955  -12.5380   18.2011 C   0  0  0  0  0  0
  -28.0161  -12.3674   18.6087 C   0  0  0  0  0  0
  -27.6676  -13.1710   19.8864 C   0  0  2  0  0  0
  -28.7139  -12.8661   20.9937 C   0  0  0  0  0  0
  -25.2621  -13.8089   20.5587 C   0  0  0  0  0  0
  -24.1866  -13.0439   20.9189 C   0  0  0  0  0  0
  -24.6365  -11.6881   20.8780 C   0  0  0  0  0  0
  -23.9026  -10.4296   21.0431 C   0  0  0  0  0  0
  -24.3603   -9.4216   21.9201 C   0  0  0  0  0  0
  -23.6299   -8.2243   22.0767 C   0  0  0  0  0  0
  -22.4282   -8.0279   21.3550 C   0  0  0  0  0  0
  -21.9902   -9.0250   20.4655 C   0  0  0  0  0  0
  -22.7210  -10.2144   20.3063 C   0  0  0  0  0  0
  -21.6847   -6.0738   22.5262 C   0  0  0  0  0  0
  -21.3994   -6.5636   23.8193 C   0  0  0  0  0  0
  -21.3658   -5.6786   24.9156 C   0  0  0  0  0  0
  -21.6053   -4.3052   24.7202 C   0  0  0  0  0  0
  -21.8821   -3.8145   23.4324 C   0  0  0  0  0  0
  -21.9200   -4.6967   22.3384 C   0  0  0  0  0  0
  -22.7901  -13.5290   21.1822 C   0  0  0  0  0  0
  -22.1684   -4.2161   21.0963 F   0  0  0  0  0  0
  -21.5654   -3.4542   25.7720 F   0  0  0  0  0  0
  -30.0221  -13.2877   20.4765 N   0  0  0  0  0  0
  -26.3030  -12.9180   20.3358 N   0  0  0  0  0  0
  -25.9275  -11.6394   20.5813 N   0  0  0  0  0  0
  -22.0511  -12.8299   22.0358 N   0  0  0  0  0  0
  -25.4325  -15.1785   20.3730 N   0  0  0  0  0  0
  -31.7762  -14.6379   20.0674 O   0  0  0  0  0  0
  -21.6648   -6.8877   21.4226 O   0  0  0  0  0  0
  -22.3625  -14.5615   20.6671 O   0  0  0  0  0  0
  -24.6118  -31.8685   23.2108 C   0  0  0  0  0  0
  -25.9019  -32.4824   23.8401 C   0  0  1  0  0  0
  -27.2468  -27.4573   20.0772 C   0  0  0  0  0  0
  -25.5888  -33.8626   24.2334 N   0  0  0  0  0  0
  -23.3982  -30.4911   21.5505 C   0  0  2  0  0  0
  -24.8448  -28.9557   20.1146 C   0  0  0  0  0  0
  -22.7385  -29.4661   22.4995 C   0  0  0  0  0  0
  -18.0266  -28.1366   22.8495 C   0  0  0  0  0  0
  -24.1485  -36.7317   23.2638 C   0  0  0  0  0  0
  -25.9236  -30.8373   21.3616 C   0  0  0  0  0  0
  -26.0003  -29.4719   20.7112 C   0  0  0  0  0  0
  -27.1955  -28.7237   20.7002 C   0  0  0  0  0  0
  -26.0666  -26.9415   19.4902 C   0  0  0  0  0  0
  -24.8706  -27.6864   19.5094 C   0  0  0  0  0  0
  -23.6054  -29.8199   20.1657 C   0  0  0  0  0  0
  -25.4105  -36.3113   24.0339 C   0  0  1  0  0  0
  -20.5851  -28.3653   23.1326 C   0  0  2  0  0  0
  -20.6757  -26.9394   22.5419 C   0  0  0  0  0  0
  -19.5743  -26.6381   21.5207 C   0  0  0  0  0  0
  -18.1917  -26.7916   22.1614 C   0  0  0  0  0  0
  -19.1513  -28.8825   23.2909 C   0  0  0  0  0  0
  -18.9443  -30.1429   23.8924 C   0  0  0  0  0  0
  -17.6450  -30.6580   24.0565 C   0  0  0  0  0  0
  -25.9032  -34.9475   23.5134 C   0  0  0  0  0  0
  -16.5341  -29.9084   23.6322 C   0  0  0  0  0  0
  -16.7257  -28.6494   23.0356 C   0  0  0  0  0  0
  -26.4462  -31.6598   25.0720 C   0  0  0  0  0  0
  -25.3745  -31.3686   26.1480 C   0  0  0  0  0  0
  -27.0293  -30.3050   24.6071 C   0  0  0  0  0  0
  -27.6048  -32.4311   25.7474 C   0  0  0  0  0  0
  -27.5578  -37.1811   24.8464 C   0  0  0  0  0  0
  -21.4115  -29.3026   22.3734 N   0  0  0  0  0  0
  -26.4292  -37.3795   23.9408 N   0  0  0  0  0  0
  -24.6625  -31.0800   22.0998 N   0  0  0  0  0  0
  -23.4163  -28.8204   23.3033 O   0  0  0  0  0  0
  -28.4480  -26.7819   20.1257 O   0  0  0  0  0  0
  -26.5592  -34.8923   22.4695 O   0  0  0  0  0  0
  -23.5319  -32.1431   23.7521 O   0  0  0  0  0  0
  -29.1671  -21.4455   21.5085 C   0  0  0  0  0  0
  -31.0831  -16.6543   21.7201 C   0  0  0  0  0  0
  -28.7583  -22.9283   21.6617 C   0  0  0  0  0  0
  -30.6865  -17.8495   20.8170 C   0  0  0  0  0  0
  -28.0535  -22.6335   19.2814 C   0  0  0  0  0  0
  -28.3491  -17.0881   20.9641 C   0  0  0  0  0  0
  -27.2462  -21.4431   19.8342 C   0  0  2  0  0  0
  -28.8150  -15.8713   21.7888 C   0  0  2  0  0  0
  -28.0857  -20.5498   20.8255 C   0  0  2  0  0  0
  -26.5067  -20.6931   18.7061 C   0  0  0  0  0  0
  -28.5609  -15.9984   23.3065 C   0  0  0  0  0  0
  -27.0918  -20.0318   21.8955 C   0  0  0  0  0  0
  -28.8155  -19.3541   20.1096 C   0  0  0  0  0  0
  -29.4370  -24.5947   19.9049 C   0  0  0  0  0  0
  -28.7930  -25.7856   19.1619 C   0  0  0  0  0  0
  -30.2127  -15.4823   21.4577 N   0  0  0  0  0  0
  -29.2691  -18.2555   21.0200 N   0  3  2  0  0  0
  -28.4350  -23.5896   20.3603 N   0  3  2  0  0  0
  -31.4697  -12.4539   19.1117 H   0  0  0  0  0  0
  -30.3605  -11.3082   19.7746 H   0  0  0  0  0  0
  -29.7495  -11.8385   17.4037 H   0  0  0  0  0  0
  -29.6478  -13.5352   17.7846 H   0  0  0  0  0  0
  -27.8357  -11.3058   18.7817 H   0  0  0  0  0  0
  -27.3606  -12.6583   17.7872 H   0  0  0  0  0  0
  -27.7281  -14.2189   19.5991 H   0  0  0  0  0  0
  -28.7251  -11.7905   21.1741 H   0  0  0  0  0  0
  -28.4831  -13.2526   21.9840 H   0  0  0  0  0  0
  -25.2746   -9.5719   22.4778 H   0  0  0  0  0  0
  -24.0035   -7.4653   22.7496 H   0  0  0  0  0  0
  -21.0827   -8.8760   19.8972 H   0  0  0  0  0  0
  -22.3669  -10.9697   19.6182 H   0  0  0  0  0  0
  -21.1961   -7.6141   23.9688 H   0  0  0  0  0  0
  -21.1484   -6.0518   25.9056 H   0  0  0  0  0  0
  -22.0600   -2.7607   23.2809 H   0  0  0  0  0  0
  -22.4094  -11.9942   22.4739 H   0  0  0  0  0  0
  -21.1140  -13.1357   22.2558 H   0  0  0  0  0  0
  -24.6101  -15.7717   20.3898 H   0  0  0  0  0  0
  -26.1380  -15.5214   19.7366 H   0  0  0  0  0  0
  -26.7088  -32.5540   23.1167 H   0  0  0  0  0  0
  -25.0053  -33.9797   25.0487 H   0  0  0  0  0  0
  -22.6860  -31.3068   21.4108 H   0  0  0  0  0  0
  -23.3745  -35.9652   23.3306 H   0  0  0  0  0  0
  -24.3580  -36.8928   22.2051 H   0  0  0  0  0  0
  -23.7238  -37.6524   23.6650 H   0  0  0  0  0  0
  -26.0314  -31.6018   20.5907 H   0  0  0  0  0  0
  -26.8136  -30.8941   21.9762 H   0  0  0  0  0  0
  -28.0875  -29.1196   21.1659 H   0  0  0  0  0  0
  -26.0314  -25.9652   19.0328 H   0  0  0  0  0  0
  -23.9766  -27.2753   19.0607 H   0  0  0  0  0  0
  -23.7112  -30.5933   19.4041 H   0  0  0  0  0  0
  -22.7301  -29.2376   19.8720 H   0  0  0  0  0  0
  -25.1281  -36.1984   25.0834 H   0  0  0  0  0  0
  -20.9945  -28.3219   24.1444 H   0  0  0  0  0  0
  -20.5654  -26.2264   23.3598 H   0  0  0  0  0  0
  -21.6631  -26.7437   22.1220 H   0  0  0  0  0  0
  -19.6910  -25.6297   21.1221 H   0  0  0  0  0  0
  -19.6689  -27.3203   20.6745 H   0  0  0  0  0  0
  -17.4192  -26.6675   21.4009 H   0  0  0  0  0  0
  -18.0315  -26.0044   22.8994 H   0  0  0  0  0  0
  -19.7921  -30.7231   24.2316 H   0  0  0  0  0  0
  -17.5008  -31.6265   24.5156 H   0  0  0  0  0  0
  -15.5344  -30.3002   23.7628 H   0  0  0  0  0  0
  -15.8649  -28.0816   22.7075 H   0  0  0  0  0  0
  -24.5927  -30.7020   25.7821 H   0  0  0  0  0  0
  -24.8928  -32.2835   26.4944 H   0  0  0  0  0  0
  -25.8124  -30.8853   27.0226 H   0  0  0  0  0  0
  -26.2826  -29.6806   24.1154 H   0  0  0  0  0  0
  -27.4109  -29.7285   25.4507 H   0  0  0  0  0  0
  -27.8637  -30.4377   23.9180 H   0  0  0  0  0  0
  -27.2680  -33.3604   26.2079 H   0  0  0  0  0  0
  -28.3845  -32.6883   25.0291 H   0  0  0  0  0  0
  -28.0732  -31.8419   26.5367 H   0  0  0  0  0  0
  -28.2603  -38.0100   24.7511 H   0  0  0  0  0  0
  -28.1068  -36.2637   24.6296 H   0  0  0  0  0  0
  -27.2299  -37.1468   25.8867 H   0  0  0  0  0  0
  -20.9263  -29.8759   21.6971 H   0  0  0  0  0  0
  -26.0184  -38.2875   24.1413 H   0  0  0  0  0  0
  -29.4276  -21.0428   22.4880 H   0  0  0  0  0  0
  -30.0980  -21.4292   20.9393 H   0  0  0  0  0  0
  -31.0240  -16.9415   22.7686 H   0  0  0  0  0  0
  -32.1443  -16.4341   21.5884 H   0  0  0  0  0  0
  -29.5316  -23.4701   22.2069 H   0  0  0  0  0  0
  -27.8716  -22.9869   22.2943 H   0  0  0  0  0  0
  -30.8328  -17.5782   19.7699 H   0  0  0  0  0  0
  -31.3412  -18.6991   21.0184 H   0  0  0  0  0  0
  -27.4716  -23.1653   18.5277 H   0  0  0  0  0  0
  -28.9417  -22.2550   18.7718 H   0  0  0  0  0  0
  -27.3438  -17.3752   21.2724 H   0  0  0  0  0  0
  -28.2568  -16.7667   19.9249 H   0  0  0  0  0  0
  -26.4393  -21.9030   20.4086 H   0  0  0  0  0  0
  -28.0866  -15.1493   21.4790 H   0  0  0  0  0  0
  -27.1892  -20.3109   17.9464 H   0  0  0  0  0  0
  -25.8120  -21.3588   18.1917 H   0  0  0  0  0  0
  -25.9177  -19.8601   19.0904 H   0  0  0  0  0  0
  -28.8808  -15.1004   23.8357 H   0  0  0  0  0  0
  -27.4960  -16.1250   23.5082 H   0  0  0  0  0  0
  -29.0663  -16.8506   23.7599 H   0  0  0  0  0  0
  -26.6050  -20.8533   22.4213 H   0  0  0  0  0  0
  -27.5704  -19.4282   22.6668 H   0  0  0  0  0  0
  -26.2963  -19.4345   21.4473 H   0  0  0  0  0  0
  -29.6585  -19.7382   19.5336 H   0  0  0  0  0  0
  -28.1780  -18.9027   19.3529 H   0  0  0  0  0  0
  -30.0131  -24.9959   20.7393 H   0  0  0  0  0  0
  -30.1677  -24.1059   19.2597 H   0  0  0  0  0  0
  -27.9965  -25.4708   18.4917 H   0  0  0  0  0  0
  -29.5465  -26.2397   18.5177 H   0  0  0  0  0  0
  -29.2152  -18.6253   21.9579 H   0  0  0  0  0  0
  -27.6076  -24.1294   20.5762 H   0  0  0  0  0  0
  1 25  1  0  0  0
  1 30  2  0  0  0
  1 86  1  0  0  0
  2  3  1  0  0  0
  2 25  1  0  0  0
  2 89  1  0  0  0
  2 90  1  0  0  0
  3  4  1  0  0  0
  3 91  1  0  0  0
  3 92  1  0  0  0
  4  5  1  0  0  0
  4 93  1  0  0  0
  4 94  1  0  0  0
  5  6  1  0  0  0
  5 26  1  0  0  0
  5 95  1  0  0  0
  6 25  1  0  0  0
  6 96  1  0  0  0
  6 97  1  0  0  0
  7  8  2  0  0  0
  7 26  1  0  0  0
  7 29  1  0  0  0
  8  9  1  0  0  0
  8 22  1  0  0  0
  9 10  1  0  0  0
  9 27  2  0  0  0
 10 11  2  0  0  0
 10 15  1  0  0  0
 11 12  1  0  0  0
 11 98  1  0  0  0
 12 13  2  0  0  0
 12 99  1  0  0  0
 13 14  1  0  0  0
 13 31  1  0  0  0
 14 15  2  0  0  0
 14100  1  0  0  0
 15101  1  0  0  0
 16 17  2  0  0  0
 16 21  1  0  0  0
 16 31  1  0  0  0
 17 18  1  0  0  0
 17102  1  0  0  0
 18 19  2  0  0  0
 18103  1  0  0  0
 19 20  1  0  0  0
 19 24  1  0  0  0
 20 21  2  0  0  0
 20104  1  0  0  0
 21 23  1  0  0  0
 22 28  1  0  0  0
 22 32  2  0  0  0
 26 27  1  0  0  0
 28105  1  0  0  0
 28106  1  0  0  0
 29107  1  0  0  0
 29108  1  0  0  0
 33 34  1  0  0  0
 33 66  1  0  0  0
 33 70  2  0  0  0
 34 36  1  0  0  0
 34 59  1  0  0  0
 34109  1  0  0  0
 35 44  2  0  0  0
 35 45  1  0  0  0
 35 68  1  0  0  0
 36 56  1  0  0  0
 36110  1  0  0  0
 37 39  1  0  0  0
 37 47  1  0  0  0
 37 66  1  0  0  0
 37111  1  0  0  0
 38 43  2  0  0  0
 38 46  1  0  0  0
 38 47  1  0  0  0
 39 64  1  0  0  0
 39 67  2  0  0  0
 40 52  1  0  0  0
 40 53  2  0  0  0
 40 58  1  0  0  0
 41112  1  0  0  0
 41113  1  0  0  0
 41114  1  0  0  0
 41 48  1  0  0  0
 42 43  1  0  0  0
 42 66  1  0  0  0
 42115  1  0  0  0
 42116  1  0  0  0
 43 44  1  0  0  0
 44117  1  0  0  0
 45 46  2  0  0  0
 45118  1  0  0  0
 46119  1  0  0  0
 47120  1  0  0  0
 47121  1  0  0  0
 48 56  1  0  0  0
 48 65  1  0  0  0
 48122  1  0  0  0
 49 50  1  0  0  0
 49 53  1  0  0  0
 49 64  1  0  0  0
 49123  1  0  0  0
 50 51  1  0  0  0
 50124  1  0  0  0
 50125  1  0  0  0
 51 52  1  0  0  0
 51126  1  0  0  0
 51127  1  0  0  0
 52128  1  0  0  0
 52129  1  0  0  0
 53 54  1  0  0  0
 54 55  2  0  0  0
 54130  1  0  0  0
 55 57  1  0  0  0
 55131  1  0  0  0
 56 69  2  0  0  0
 57 58  2  0  0  0
 57132  1  0  0  0
 58133  1  0  0  0
 59 60  1  0  0  0
 59 61  1  0  0  0
 59 62  1  0  0  0
 60134  1  0  0  0
 60135  1  0  0  0
 60136  1  0  0  0
 61137  1  0  0  0
 61138  1  0  0  0
 61139  1  0  0  0
 62140  1  0  0  0
 62141  1  0  0  0
 62142  1  0  0  0
 63 65  1  0  0  0
 63143  1  0  0  0
 63144  1  0  0  0
 63145  1  0  0  0
 64146  1  0  0  0
 65147  1  0  0  0
 68 85  1  0  0  0
 71 73  1  0  0  0
 71 79  1  0  0  0
 71148  1  0  0  0
 71149  1  0  0  0
 72 74  1  0  0  0
 72 86  1  0  0  0
 72150  1  0  0  0
 72151  1  0  0  0
 73 88  1  0  0  0
 73152  1  0  0  0
 73153  1  0  0  0
 74 87  1  0  0  0
 74154  1  0  0  0
 74155  1  0  0  0
 75 77  1  0  0  0
 75 88  1  0  0  0
 75156  1  0  0  0
 75157  1  0  0  0
 76 78  1  0  0  0
 76 87  1  0  0  0
 76158  1  0  0  0
 76159  1  0  0  0
 77 79  1  0  0  0
 77 80  1  0  0  0
 77160  1  0  0  0
 78 81  1  0  0  0
 78 86  1  0  0  0
 78161  1  0  0  0
 79 82  1  0  0  0
 79 83  1  0  0  0
 80162  1  0  0  0
 80163  1  0  0  0
 80164  1  0  0  0
 81165  1  0  0  0
 81166  1  0  0  0
 81167  1  0  0  0
 82168  1  0  0  0
 82169  1  0  0  0
 82170  1  0  0  0
 83171  1  0  0  0
 83172  1  0  0  0
 83 87  1  0  0  0
 84 85  1  0  0  0
 84173  1  0  0  0
 84174  1  0  0  0
 84 88  1  0  0  0
 85175  1  0  0  0
 85176  1  0  0  0
 87177  1  0  0  0
 88178  1  0  0  0
M  CHG  2  87   1  88   1
M  ISO  4   1 100  68 101  85 101  86 100
M  END
> <chiral flag>
0

> <version>
0

> <s_m_source_file>
/data/baiqing/PycharmProjects/Reinvent-master-3.2/result/LINK_invent/BTK/process_docking_weight1_custom_sum_contain_oxygen_bond_distance_aromatic_linkinvent_7_9_3/rearranged_h_0175.sdf

> <i_m_source_file_index>
87

> <r_mmod_Potential_Energy-OPLS-2005>
170.764312744141

> <r_mmod_Stretch_Energy-OPLS-2005>
53.3882293701172

> <r_mmod_Bend_Energy-OPLS-2005>
166.098068237305

> <r_mmod_Torsional_Energy-OPLS-2005>
463.597351074219

> <r_mmod_Improper_Torsional_Energy-OPLS-2005>
6.07240867614746

> <r_mmod_Van_der_Waal_Energy-OPLS-2005>
175.826446533203

> <r_mmod_Electrostatic_Energy-OPLS-2005>
143.662719726562

> <r_mmod_Solvation_Energy-OPLS-2005>
-850.999145507812

> <b_mmod_Minimization_Converged-OPLS-2005>
0

> <r_mmod_RMS_Derivative-OPLS-2005>
1.63083863258362

$$$$
87
                    3D
 Structure written by MMmdl.
171180  0  0  1  0            999 V2000
  -29.4529  -12.7977   20.3518 C   0  0  0  0  0  0
  -30.0068  -11.5002   19.6707 C   0  0  0  0  0  0
  -29.2712  -12.1783   18.0841 C   0  0  0  0  0  0
  -28.4901  -13.7511   18.2126 C   0  0  0  0  0  0
  -28.0776  -14.5173   19.8268 C   0  0  2  0  0  0
  -29.1017  -13.9459   21.2983 C   0  0  0  0  0  0
  -25.7503  -14.2481   20.4878 C   0  0  0  0  0  0
  -24.5492  -13.0958   20.9264 C   0  0  0  0  0  0
  -25.1217  -11.7752   20.9327 C   0  0  0  0  0  0
  -24.1159  -10.5707   21.0508 C   0  0  0  0  0  0
  -24.4407   -9.5180   21.9587 C   0  0  0  0  0  0
  -23.6689   -8.3308   22.1116 C   0  0  0  0  0  0
  -22.4920   -8.1211   21.3592 C   0  0  0  0  0  0
  -22.1459   -9.1298   20.4323 C   0  0  0  0  0  0
  -22.9463  -10.2976   20.2618 C   0  0  0  0  0  0
  -21.7133   -6.1221   22.5150 C   0  0  0  0  0  0
  -21.4194   -6.5913   23.8151 C   0  0  0  0  0  0
  -21.3680   -5.6956   24.9048 C   0  0  0  0  0  0
  -21.6030   -4.3222   24.7050 C   0  0  0  0  0  0
  -21.8808   -3.8431   23.4127 C   0  0  0  0  0  0
  -21.9289   -4.7355   22.3230 C   0  0  0  0  0  0
  -22.9088  -13.1968   21.1390 C   0  0  0  0  0  0
  -22.1717   -4.2488   21.0827 F   0  0  0  0  0  0
  -21.5584   -3.4645   25.7521 F   0  0  0  0  0  0
  -29.8984  -12.4101   21.1564 N   0  0  0  0  0  0
  -26.7130  -14.1526   20.5512 N   0  0  0  0  0  0
  -25.4652  -13.0983   20.7915 N   0  0  0  0  0  0
  -22.3256  -12.6169   22.1811 N   0  0  0  0  0  0
  -26.0489  -15.6334   19.9249 N   0  0  0  0  0  0
  -30.5301  -13.6274   19.7197 O   0  0  0  0  0  0
  -21.7117   -6.9710   21.4250 O   0  0  0  0  0  0
  -22.1491  -13.9193   20.4721 O   0  0  0  0  0  0
  -24.6556  -31.8345   23.1882 C   0  0  0  0  0  0
  -25.9330  -32.4593   23.8227 C   0  0  1  0  0  0
  -26.9326  -26.9144   20.1988 C   0  0  0  0  0  0
  -25.6046  -33.8433   24.2127 N   0  0  0  0  0  0
  -23.4472  -30.4815   21.5395 C   0  0  2  0  0  0
  -24.8406  -28.9059   20.0738 C   0  0  0  0  0  0
  -22.7574  -29.4570   22.4777 C   0  0  0  0  0  0
  -18.0342  -28.1390   22.8500 C   0  0  0  0  0  0
  -24.1509  -36.7194   23.2640 C   0  0  0  0  0  0
  -26.0190  -30.6294   21.4224 C   0  0  0  0  0  0
  -26.0281  -29.2419   20.7358 C   0  0  0  0  0  0
  -27.0963  -28.2553   20.7807 C   0  0  0  0  0  0
  -25.7706  -26.7385   19.4476 C   0  0  0  0  0  0
  -24.7430  -27.6876   19.3960 C   0  0  0  0  0  0
  -23.6590  -29.8592   20.1377 C   0  0  0  0  0  0
  -25.4158  -36.2969   24.0286 C   0  0  1  0  0  0
  -20.5950  -28.3744   23.1196 C   0  0  2  0  0  0
  -20.6809  -26.9437   22.5401 C   0  0  0  0  0  0
  -19.5773  -26.6365   21.5228 C   0  0  0  0  0  0
  -18.1964  -26.7933   22.1642 C   0  0  0  0  0  0
  -19.1594  -28.8892   23.2842 C   0  0  0  0  0  0
  -18.9501  -30.1488   23.8862 C   0  0  0  0  0  0
  -17.6490  -30.6583   24.0566 C   0  0  0  0  0  0
  -25.9134  -34.9358   23.5021 C   0  0  0  0  0  0
  -16.5389  -29.9064   23.6343 C   0  0  0  0  0  0
  -16.7326  -28.6483   23.0377 C   0  0  0  0  0  0
  -26.4548  -31.6570   25.0793 C   0  0  0  0  0  0
  -25.3663  -31.3885   26.1449 C   0  0  0  0  0  0
  -27.0428  -30.2903   24.6620 C   0  0  0  0  0  0
  -27.6041  -32.4395   25.7563 C   0  0  0  0  0  0
  -27.5579  -37.1774   24.8456 C   0  0  0  0  0  0
  -21.4266  -29.3061   22.3526 N   0  0  0  0  0  0
  -26.4298  -37.3716   23.9397 N   0  0  0  0  0  0
  -24.7297  -31.0102   22.0997 N   0  0  0  0  0  0
  -23.4209  -28.8097   23.2926 O   0  0  0  0  0  0
  -27.7073  -25.7023   20.3834 O   0  0  0  0  0  0
  -26.5710  -34.8863   22.4587 O   0  0  0  0  0  0
  -23.5668  -32.1343   23.7043 O   0  0  0  0  0  0
  -26.2202  -21.4246   20.1587 C   0  0  0  0  0  0
  -25.4852  -20.3124   20.9045 C   0  0  0  0  0  0
  -26.4884  -22.8541   20.6421 C   0  0  0  0  0  0
  -25.0375  -20.8154   22.1537 C   0  0  0  0  0  0
  -25.9542  -23.0236   21.9278 C   0  0  0  0  0  0
  -25.5306  -14.5046   22.7783 C   0  0  0  0  0  0
  -24.3205  -14.2747   18.8151 C   0  0  0  0  0  0
  -27.1072  -12.7523   22.3661 C   0  0  0  0  0  0
  -26.2545  -12.6379   18.7093 C   0  0  0  0  0  0
  -24.0692  -15.5537   21.1563 C   0  0  0  0  0  0
  -26.7315  -21.0616   18.7742 C   0  0  0  0  0  0
  -24.2358  -19.9732   23.1256 C   0  0  0  0  0  0
  -26.1554  -24.3310   22.6607 C   0  0  0  0  0  0
  -25.1595  -18.6689   20.4521 C   0  0  0  0  0  0
  -27.3249  -24.1787   19.9210 C   0  0  0  0  0  0
  -24.3437  -17.3351   21.2909 C   0  0  0  0  0  0
  -25.2692  -22.0759   22.6147 N   0  0  0  0  0  0
  -27.7729  -12.1948   20.3811 N   0  0  0  0  0  0
  -31.0612  -11.2485   19.4669 H   0  0  0  0  0  0
  -29.6134  -10.4793   19.8203 H   0  0  0  0  0  0
  -28.5612  -11.4491   17.6947 H   0  0  0  0  0  0
  -30.0492  -12.2313   17.3215 H   0  0  0  0  0  0
  -27.8148  -14.0266   17.4031 H   0  0  0  0  0  0
  -29.2822  -14.4147   17.8663 H   0  0  0  0  0  0
  -28.3261  -15.5853   19.7626 H   0  0  0  0  0  0
  -28.7472  -14.2969   22.2692 H   0  0  0  0  0  0
  -29.8522  -14.7544   21.4778 H   0  0  0  0  0  0
  -25.3348   -9.6186   22.5571 H   0  0  0  0  0  0
  -23.9996   -7.5809   22.8157 H   0  0  0  0  0  0
  -21.2761   -8.9927   19.8049 H   0  0  0  0  0  0
  -22.6657  -11.0045   19.4940 H   0  0  0  0  0  0
  -21.2275   -7.6415   23.9760 H   0  0  0  0  0  0
  -21.1437   -6.0641   25.8953 H   0  0  0  0  0  0
  -22.0528   -2.7896   23.2547 H   0  0  0  0  0  0
  -22.8669  -12.0398   22.8085 H   0  0  0  0  0  0
  -21.3350  -12.7243   22.3332 H   0  0  0  0  0  0
  -25.2542  -16.2610   19.9303 H   0  0  0  0  0  0
  -26.9316  -16.0911   20.0731 H   0  0  0  0  0  0
  -26.7358  -32.4997   23.0887 H   0  0  0  0  0  0
  -25.0177  -33.9537   25.0247 H   0  0  0  0  0  0
  -22.7593  -31.3199   21.4172 H   0  0  0  0  0  0
  -23.3788  -35.9504   23.3276 H   0  0  0  0  0  0
  -24.3591  -36.8862   22.2060 H   0  0  0  0  0  0
  -23.7242  -37.6368   23.6708 H   0  0  0  0  0  0
  -26.2484  -31.3857   20.6702 H   0  0  0  0  0  0
  -26.8621  -30.6144   22.1004 H   0  0  0  0  0  0
  -27.9799  -28.4708   21.3654 H   0  0  0  0  0  0
  -25.5572  -25.7925   18.9762 H   0  0  0  0  0  0
  -23.8415  -27.4392   18.8537 H   0  0  0  0  0  0
  -23.8334  -30.6607   19.4176 H   0  0  0  0  0  0
  -22.7472  -29.3612   19.8033 H   0  0  0  0  0  0
  -25.1354  -36.1777   25.0777 H   0  0  0  0  0  0
  -21.0084  -28.3358   24.1300 H   0  0  0  0  0  0
  -20.5709  -26.2381   23.3649 H   0  0  0  0  0  0
  -21.6669  -26.7420   22.1197 H   0  0  0  0  0  0
  -19.6920  -25.6260   21.1297 H   0  0  0  0  0  0
  -19.6679  -27.3135   20.6723 H   0  0  0  0  0  0
  -17.4232  -26.6722   21.4041 H   0  0  0  0  0  0
  -18.0335  -26.0067   22.9025 H   0  0  0  0  0  0
  -19.7980  -30.7333   24.2179 H   0  0  0  0  0  0
  -17.5044  -31.6261   24.5172 H   0  0  0  0  0  0
  -15.5384  -30.2945   23.7677 H   0  0  0  0  0  0
  -15.8742  -28.0775   22.7095 H   0  0  0  0  0  0
  -24.5888  -30.7154   25.7827 H   0  0  0  0  0  0
  -24.8784  -32.3103   26.4639 H   0  0  0  0  0  0
  -25.7874  -30.9266   27.0390 H   0  0  0  0  0  0
  -26.3094  -29.6568   24.1631 H   0  0  0  0  0  0
  -27.3865  -29.7321   25.5343 H   0  0  0  0  0  0
  -27.9088  -30.4027   24.0094 H   0  0  0  0  0  0
  -27.2628  -33.3783   26.1943 H   0  0  0  0  0  0
  -28.3935  -32.6827   25.0443 H   0  0  0  0  0  0
  -28.0610  -31.8671   26.5651 H   0  0  0  0  0  0
  -28.2563  -38.0103   24.7519 H   0  0  0  0  0  0
  -28.1109  -36.2627   24.6266 H   0  0  0  0  0  0
  -27.2289  -37.1383   25.8857 H   0  0  0  0  0  0
  -20.9460  -29.8818   21.6762 H   0  0  0  0  0  0
  -26.0129  -38.2766   24.1406 H   0  0  0  0  0  0
  -26.1069  -15.3141   23.2279 H   0  0  0  0  0  0
  -24.9036  -14.1594   23.6009 H   0  0  0  0  0  0
  -23.4163  -13.7715   18.4783 H   0  0  0  0  0  0
  -24.4549  -15.0281   18.0366 H   0  0  0  0  0  0
  -26.6607  -11.8399   22.7692 H   0  0  0  0  0  0
  -27.8973  -12.7401   23.1160 H   0  0  0  0  0  0
  -26.5722  -12.5215   17.6785 H   0  0  0  0  0  0
  -25.7604  -11.6690   18.6260 H   0  0  0  0  0  0
  -23.0731  -15.6117   21.5944 H   0  0  0  0  0  0
  -26.8323  -19.9833   18.6545 H   0  0  0  0  0  0
  -27.7079  -21.5039   18.5849 H   0  0  0  0  0  0
  -26.0446  -21.4166   18.0068 H   0  0  0  0  0  0
  -23.2708  -19.7017   22.6963 H   0  0  0  0  0  0
  -24.0401  -20.5131   24.0515 H   0  0  0  0  0  0
  -24.7860  -19.0804   23.4118 H   0  0  0  0  0  0
  -27.2167  -24.5799   22.6867 H   0  0  0  0  0  0
  -25.8086  -24.2733   23.6901 H   0  0  0  0  0  0
  -25.6246  -25.1348   22.1498 H   0  0  0  0  0  0
  -26.1297  -18.2859   20.1411 H   0  0  0  0  0  0
  -24.6083  -18.7723   19.5148 H   0  0  0  0  0  0
  -27.0314  -24.2097   18.8743 H   0  0  0  0  0  0
  -28.3319  -23.7598   19.8748 H   0  0  0  0  0  0
  -24.8384  -17.3328   22.2582 H   0  0  0  0  0  0
  -23.3493  -17.7313   21.4865 H   0  0  0  0  0  0
  1 25  1  0  0  0
  1 30  2  0  0  0
  1 88  1  0  0  0
  2  3  1  0  0  0
  2 25  1  0  0  0
  2 89  1  0  0  0
  2 90  1  0  0  0
  3  4  1  0  0  0
  3 91  1  0  0  0
  3 92  1  0  0  0
  4  5  1  0  0  0
  4 93  1  0  0  0
  4 94  1  0  0  0
  5  6  1  0  0  0
  5 26  1  0  0  0
  5 95  1  0  0  0
  6 25  1  0  0  0
  6 96  1  0  0  0
  6 97  1  0  0  0
  7  8  2  0  0  0
  7 26  1  0  0  0
  7 29  1  0  0  0
  8  9  1  0  0  0
  8 22  1  0  0  0
  9 10  1  0  0  0
  9 27  2  0  0  0
 10 11  2  0  0  0
 10 15  1  0  0  0
 11 12  1  0  0  0
 11 98  1  0  0  0
 12 13  2  0  0  0
 12 99  1  0  0  0
 13 14  1  0  0  0
 13 31  1  0  0  0
 14 15  2  0  0  0
 14100  1  0  0  0
 15101  1  0  0  0
 16 17  2  0  0  0
 16 21  1  0  0  0
 16 31  1  0  0  0
 17 18  1  0  0  0
 17102  1  0  0  0
 18 19  2  0  0  0
 18103  1  0  0  0
 19 20  1  0  0  0
 19 24  1  0  0  0
 20 21  2  0  0  0
 20104  1  0  0  0
 21 23  1  0  0  0
 22 28  1  0  0  0
 22 32  2  0  0  0
 26 27  1  0  0  0
 28105  1  0  0  0
 28106  1  0  0  0
 29107  1  0  0  0
 29108  1  0  0  0
 33 34  1  0  0  0
 33 66  1  0  0  0
 33 70  2  0  0  0
 34 36  1  0  0  0
 34 59  1  0  0  0
 34109  1  0  0  0
 35 44  2  0  0  0
 35 45  1  0  0  0
 35 68  1  0  0  0
 36 56  1  0  0  0
 36110  1  0  0  0
 37 39  1  0  0  0
 37 47  1  0  0  0
 37 66  1  0  0  0
 37111  1  0  0  0
 38 43  2  0  0  0
 38 46  1  0  0  0
 38 47  1  0  0  0
 39 64  1  0  0  0
 39 67  2  0  0  0
 40 52  1  0  0  0
 40 53  2  0  0  0
 40 58  1  0  0  0
 41112  1  0  0  0
 41113  1  0  0  0
 41114  1  0  0  0
 41 48  1  0  0  0
 42 43  1  0  0  0
 42 66  1  0  0  0
 42115  1  0  0  0
 42116  1  0  0  0
 43 44  1  0  0  0
 44117  1  0  0  0
 45 46  2  0  0  0
 45118  1  0  0  0
 46119  1  0  0  0
 47120  1  0  0  0
 47121  1  0  0  0
 48 56  1  0  0  0
 48 65  1  0  0  0
 48122  1  0  0  0
 49 50  1  0  0  0
 49 53  1  0  0  0
 49 64  1  0  0  0
 49123  1  0  0  0
 50 51  1  0  0  0
 50124  1  0  0  0
 50125  1  0  0  0
 51 52  1  0  0  0
 51126  1  0  0  0
 51127  1  0  0  0
 52128  1  0  0  0
 52129  1  0  0  0
 53 54  1  0  0  0
 54 55  2  0  0  0
 54130  1  0  0  0
 55 57  1  0  0  0
 55131  1  0  0  0
 56 69  2  0  0  0
 57 58  2  0  0  0
 57132  1  0  0  0
 58133  1  0  0  0
 59 60  1  0  0  0
 59 61  1  0  0  0
 59 62  1  0  0  0
 60134  1  0  0  0
 60135  1  0  0  0
 60136  1  0  0  0
 61137  1  0  0  0
 61138  1  0  0  0
 61139  1  0  0  0
 62140  1  0  0  0
 62141  1  0  0  0
 62142  1  0  0  0
 63 65  1  0  0  0
 63143  1  0  0  0
 63144  1  0  0  0
 63145  1  0  0  0
 64146  1  0  0  0
 65147  1  0  0  0
 68 85  1  0  0  0
 71 72  2  0  0  0
 71 73  1  0  0  0
 71 81  1  0  0  0
 72 74  1  0  0  0
 72 84  1  0  0  0
 73 75  2  0  0  0
 73 85  1  0  0  0
 74 82  1  0  0  0
 74 87  2  0  0  0
 75 83  1  0  0  0
 75 87  1  0  0  0
 76 78  1  0  0  0
 76 80  1  0  0  0
 76148  1  0  0  0
 76149  1  0  0  0
 77 79  1  0  0  0
 77 80  1  0  0  0
 77150  1  0  0  0
 77151  1  0  0  0
 78 88  1  0  0  0
 78152  1  0  0  0
 78153  1  0  0  0
 79 88  1  0  0  0
 79154  1  0  0  0
 79155  1  0  0  0
 80 86  1  0  0  0
 80156  1  0  0  0
 81157  1  0  0  0
 81158  1  0  0  0
 81159  1  0  0  0
 82160  1  0  0  0
 82161  1  0  0  0
 82162  1  0  0  0
 83163  1  0  0  0
 83164  1  0  0  0
 83165  1  0  0  0
 84 86  1  0  0  0
 84166  1  0  0  0
 84167  1  0  0  0
 85168  1  0  0  0
 85169  1  0  0  0
 86170  1  0  0  0
 86171  1  0  0  0
M  ISO  4   1 100  68 101  85 101  88 100
M  END
> <chiral flag>
0

> <version>
0

> <s_m_source_file>
/data/baiqing/PycharmProjects/Reinvent-master-3.2/result/LINK_invent/BTK/process_docking_weight1_custom_sum_contain_oxygen_bond_distance_aromatic_linkinvent_7_9_3/rearranged_h_0175.sdf

> <i_m_source_file_index>
88

> <r_mmod_Potential_Energy-OPLS-2005>
17659.634765625

> <r_mmod_Stretch_Energy-OPLS-2005>
8970.8369140625

> <r_mmod_Bend_Energy-OPLS-2005>
2586.96850585938

> <r_mmod_Torsional_Energy-OPLS-2005>
496.339935302734

> <r_mmod_Improper_Torsional_Energy-OPLS-2005>
35.6133270263672

> <r_mmod_Van_der_Waal_Energy-OPLS-2005>
3786.10815429688

> <r_mmod_Electrostatic_Energy-OPLS-2005>
-401.103149414062

> <r_mmod_Solvation_Energy-OPLS-2005>
-216.039672851562

> <b_mmod_Minimization_Converged-OPLS-2005>
0

> <r_mmod_RMS_Derivative-OPLS-2005>
8.42619132995605

$$$$
88
                    3D
 Structure written by MMmdl.
163173  0  0  1  0            999 V2000
  -30.5487  -15.0356   20.3543 C   0  0  0  0  0  0
  -30.4385  -12.6389   19.4881 C   0  0  0  0  0  0
  -29.5138  -12.4870   18.2569 C   0  0  0  0  0  0
  -28.0534  -12.2736   18.6987 C   0  0  0  0  0  0
  -27.6170  -13.2491   19.8211 C   0  0  2  0  0  0
  -28.6679  -13.3615   20.9433 C   0  0  0  0  0  0
  -25.2455  -13.8209   20.5759 C   0  0  0  0  0  0
  -24.1761  -13.0442   20.9242 C   0  0  0  0  0  0
  -24.6365  -11.6926   20.8788 C   0  0  0  0  0  0
  -23.9054  -10.4287   21.0425 C   0  0  0  0  0  0
  -24.3607   -9.4204   21.9195 C   0  0  0  0  0  0
  -23.6280   -8.2244   22.0758 C   0  0  0  0  0  0
  -22.4275   -8.0269   21.3536 C   0  0  0  0  0  0
  -21.9911   -9.0245   20.4633 C   0  0  0  0  0  0
  -22.7235  -10.2128   20.3053 C   0  0  0  0  0  0
  -21.6847   -6.0729   22.5269 C   0  0  0  0  0  0
  -21.4008   -6.5632   23.8199 C   0  0  0  0  0  0
  -21.3663   -5.6789   24.9156 C   0  0  0  0  0  0
  -21.6056   -4.3043   24.7207 C   0  0  0  0  0  0
  -21.8814   -3.8142   23.4318 C   0  0  0  0  0  0
  -21.9181   -4.6967   22.3384 C   0  0  0  0  0  0
  -22.7789  -13.5225   21.1898 C   0  0  0  0  0  0
  -22.1652   -4.2161   21.0962 F   0  0  0  0  0  0
  -21.5639   -3.4525   25.7721 F   0  0  0  0  0  0
  -29.9278  -13.7776   20.3094 N   0  0  0  0  0  0
  -26.2856  -12.9431   20.3279 N   0  0  0  0  0  0
  -25.9303  -11.6562   20.5792 N   0  0  0  0  0  0
  -22.0432  -12.8193   22.0439 N   0  0  0  0  0  0
  -25.4204  -15.1931   20.4201 N   0  0  0  0  0  0
  -31.7847  -15.0219   20.2785 O   0  0  0  0  0  0
  -21.6635   -6.8872   21.4231 O   0  0  0  0  0  0
  -22.3470  -14.5542   20.6746 O   0  0  0  0  0  0
  -24.6437  -31.8388   23.1805 C   0  0  0  0  0  0
  -25.9183  -32.4655   23.8235 C   0  0  1  0  0  0
  -27.2365  -27.1054   20.1857 C   0  0  0  0  0  0
  -25.5910  -33.8458   24.2139 N   0  0  0  0  0  0
  -23.4533  -30.4534   21.5221 C   0  0  2  0  0  0
  -24.9140  -28.8751   20.1091 C   0  0  0  0  0  0
  -22.7581  -29.4492   22.4786 C   0  0  0  0  0  0
  -18.0299  -28.1390   22.8447 C   0  0  0  0  0  0
  -24.1500  -36.7253   23.2652 C   0  0  0  0  0  0
  -26.0105  -30.7064   21.3872 C   0  0  0  0  0  0
  -26.0874  -29.3148   20.7345 C   0  0  0  0  0  0
  -27.2488  -28.4496   20.7478 C   0  0  0  0  0  0
  -26.0374  -26.7763   19.5145 C   0  0  0  0  0  0
  -24.9046  -27.6210   19.4797 C   0  0  0  0  0  0
  -23.6882  -29.7736   20.1446 C   0  0  0  0  0  0
  -25.4126  -36.3006   24.0326 C   0  0  1  0  0  0
  -20.5915  -28.3719   23.1216 C   0  0  2  0  0  0
  -20.6785  -26.9410   22.5386 C   0  0  0  0  0  0
  -19.5761  -26.6341   21.5195 C   0  0  0  0  0  0
  -18.1927  -26.7920   22.1583 C   0  0  0  0  0  0
  -19.1555  -28.8864   23.2832 C   0  0  0  0  0  0
  -18.9488  -30.1457   23.8860 C   0  0  0  0  0  0
  -17.6503  -30.6590   24.0557 C   0  0  0  0  0  0
  -25.9077  -34.9384   23.5042 C   0  0  0  0  0  0
  -16.5386  -29.9092   23.6353 C   0  0  0  0  0  0
  -16.7285  -28.6507   23.0356 C   0  0  0  0  0  0
  -26.4515  -31.6548   25.0693 C   0  0  0  0  0  0
  -25.3671  -31.3716   26.1359 C   0  0  0  0  0  0
  -27.0412  -30.2950   24.6281 C   0  0  0  0  0  0
  -27.6019  -32.4361   25.7446 C   0  0  0  0  0  0
  -27.5578  -37.1765   24.8466 C   0  0  0  0  0  0
  -21.4257  -29.3066   22.3595 N   0  0  0  0  0  0
  -26.4283  -37.3722   23.9415 N   0  0  0  0  0  0
  -24.7206  -31.0221   22.0853 N   0  0  0  0  0  0
  -23.4202  -28.8029   23.2945 O   0  0  0  0  0  0
  -28.2820  -26.1042   20.2924 O   0  0  0  0  0  0
  -26.5673  -34.8900   22.4629 O   0  0  0  0  0  0
  -23.5547  -32.1280   23.6999 O   0  0  0  0  0  0
  -31.0960  -22.4508   21.5246 C   0  0  0  0  0  0
  -30.7698  -21.1112   21.2242 C   0  0  0  0  0  0
  -30.2237  -23.5302   21.2449 C   0  0  0  0  0  0
  -29.5422  -20.7807   20.6333 C   0  0  0  0  0  0
  -29.0008  -23.2802   20.5700 C   0  0  0  0  0  0
  -30.0971  -17.3849   18.0265 C   0  0  0  0  0  0
  -31.4768  -25.1883   22.9077 C   0  0  0  0  0  0
  -30.0046  -25.5185   22.9322 C   0  0  0  0  0  0
  -31.0034  -18.0616   19.0492 C   0  0  0  0  0  0
  -29.2389  -16.3842   18.8309 C   0  0  0  0  0  0
  -30.6173  -24.9197   21.6853 C   0  0  0  0  0  0
  -30.2411  -17.8252   20.3501 C   0  0  1  0  0  0
  -29.1631  -19.1565   20.4923 C   0  0  0  0  0  0
  -27.9928  -24.5601   20.1812 C   0  0  0  0  0  0
  -28.6968  -21.8946   20.3126 N   0  0  0  0  0  0
  -29.8206  -16.2809   20.1797 N   0  0  0  0  0  0
  -31.4654  -12.8056   19.1571 H   0  0  0  0  0  0
  -30.4587  -11.7184   20.0740 H   0  0  0  0  0  0
  -29.8387  -11.6421   17.6485 H   0  0  0  0  0  0
  -29.5878  -13.3644   17.6142 H   0  0  0  0  0  0
  -27.9795  -11.2487   19.0647 H   0  0  0  0  0  0
  -27.3764  -12.3322   17.8474 H   0  0  0  0  0  0
  -27.5431  -14.2243   19.3430 H   0  0  0  0  0  0
  -28.7784  -12.4156   21.4744 H   0  0  0  0  0  0
  -28.3571  -14.1023   21.6826 H   0  0  0  0  0  0
  -25.2747   -9.5678   22.4787 H   0  0  0  0  0  0
  -23.9984   -7.4626   22.7491 H   0  0  0  0  0  0
  -21.0854   -8.8734   19.8937 H   0  0  0  0  0  0
  -22.3685  -10.9651   19.6165 H   0  0  0  0  0  0
  -21.1990   -7.6139   23.9707 H   0  0  0  0  0  0
  -21.1509   -6.0513   25.9068 H   0  0  0  0  0  0
  -22.0590   -2.7606   23.2802 H   0  0  0  0  0  0
  -22.4036  -11.9813   22.4771 H   0  0  0  0  0  0
  -21.1071  -13.1225   22.2703 H   0  0  0  0  0  0
  -24.6691  -15.8611   20.5492 H   0  0  0  0  0  0
  -26.2940  -15.6235   20.1452 H   0  0  0  0  0  0
  -26.7224  -32.5266   23.0947 H   0  0  0  0  0  0
  -25.0061  -33.9551   25.0293 H   0  0  0  0  0  0
  -22.7571  -31.2776   21.3516 H   0  0  0  0  0  0
  -23.3772  -35.9569   23.3262 H   0  0  0  0  0  0
  -24.3610  -36.8936   22.2077 H   0  0  0  0  0  0
  -23.7239  -37.6422   23.6743 H   0  0  0  0  0  0
  -26.1732  -31.4590   20.6139 H   0  0  0  0  0  0
  -26.8793  -30.7593   22.0310 H   0  0  0  0  0  0
  -28.1385  -28.7826   21.2628 H   0  0  0  0  0  0
  -25.9426  -25.8130   19.0376 H   0  0  0  0  0  0
  -24.0148  -27.2760   18.9729 H   0  0  0  0  0  0
  -23.8233  -30.5419   19.3824 H   0  0  0  0  0  0
  -22.8099  -29.2057   19.8345 H   0  0  0  0  0  0
  -25.1306  -36.1825   25.0819 H   0  0  0  0  0  0
  -21.0000  -28.3302   24.1349 H   0  0  0  0  0  0
  -20.5672  -26.2320   23.3613 H   0  0  0  0  0  0
  -21.6656  -26.7402   22.1184 H   0  0  0  0  0  0
  -19.6961  -25.6246   21.1246 H   0  0  0  0  0  0
  -19.6736  -27.3130   20.6725 H   0  0  0  0  0  0
  -17.4210  -26.6664   21.3977 H   0  0  0  0  0  0
  -18.0354  -26.0056   22.8985 H   0  0  0  0  0  0
  -19.7977  -30.7260   24.2198 H   0  0  0  0  0  0
  -17.5065  -31.6272   24.5154 H   0  0  0  0  0  0
  -15.5397  -30.2997   23.7685 H   0  0  0  0  0  0
  -15.8670  -28.0821   22.7121 H   0  0  0  0  0  0
  -24.5881  -30.7049   25.7641 H   0  0  0  0  0  0
  -24.8838  -32.2895   26.4728 H   0  0  0  0  0  0
  -25.7920  -30.8899   27.0174 H   0  0  0  0  0  0
  -26.3062  -29.6615   24.1299 H   0  0  0  0  0  0
  -27.4080  -29.7286   25.4849 H   0  0  0  0  0  0
  -27.8925  -30.4208   23.9582 H   0  0  0  0  0  0
  -27.2610  -33.3731   26.1863 H   0  0  0  0  0  0
  -28.3870  -32.6810   25.0280 H   0  0  0  0  0  0
  -28.0640  -31.8608   26.5471 H   0  0  0  0  0  0
  -28.2527  -38.0123   24.7550 H   0  0  0  0  0  0
  -28.1131  -36.2641   24.6233 H   0  0  0  0  0  0
  -27.2300  -37.1342   25.8868 H   0  0  0  0  0  0
  -20.9470  -29.8835   21.6820 H   0  0  0  0  0  0
  -26.0141  -38.2776   24.1449 H   0  0  0  0  0  0
  -32.0371  -22.6439   22.0172 H   0  0  0  0  0  0
  -31.4670  -20.3301   21.4955 H   0  0  0  0  0  0
  -30.6833  -16.9000   17.2436 H   0  0  0  0  0  0
  -29.4570  -18.1189   17.5337 H   0  0  0  0  0  0
  -31.8074  -24.3590   23.5316 H   0  0  0  0  0  0
  -32.1611  -26.0370   22.8743 H   0  0  0  0  0  0
  -29.7380  -26.5753   22.9187 H   0  0  0  0  0  0
  -29.3605  -24.8865   23.5433 H   0  0  0  0  0  0
  -31.1752  -19.1155   18.8235 H   0  0  0  0  0  0
  -31.9790  -17.5725   19.0790 H   0  0  0  0  0  0
  -29.1809  -15.4436   18.2868 H   0  0  0  0  0  0
  -28.2136  -16.7430   18.9252 H   0  0  0  0  0  0
  -30.7830  -25.5691   20.8266 H   0  0  0  0  0  0
  -30.9356  -17.8797   21.1900 H   0  0  0  0  0  0
  -28.4741  -19.1126   19.6503 H   0  0  0  0  0  0
  -28.5433  -18.9449   21.3641 H   0  0  0  0  0  0
  -27.0784  -24.3817   20.7494 H   0  0  0  0  0  0
  -27.7172  -24.3897   19.1406 H   0  0  0  0  0  0
  1 25  1  0  0  0
  1 30  2  0  0  0
  1 86  1  0  0  0
  2  3  1  0  0  0
  2 25  1  0  0  0
  2 87  1  0  0  0
  2 88  1  0  0  0
  3  4  1  0  0  0
  3 89  1  0  0  0
  3 90  1  0  0  0
  4  5  1  0  0  0
  4 91  1  0  0  0
  4 92  1  0  0  0
  5  6  1  0  0  0
  5 26  1  0  0  0
  5 93  1  0  0  0
  6 25  1  0  0  0
  6 94  1  0  0  0
  6 95  1  0  0  0
  7  8  2  0  0  0
  7 26  1  0  0  0
  7 29  1  0  0  0
  8  9  1  0  0  0
  8 22  1  0  0  0
  9 10  1  0  0  0
  9 27  2  0  0  0
 10 11  2  0  0  0
 10 15  1  0  0  0
 11 12  1  0  0  0
 11 96  1  0  0  0
 12 13  2  0  0  0
 12 97  1  0  0  0
 13 14  1  0  0  0
 13 31  1  0  0  0
 14 15  2  0  0  0
 14 98  1  0  0  0
 15 99  1  0  0  0
 16 17  2  0  0  0
 16 21  1  0  0  0
 16 31  1  0  0  0
 17 18  1  0  0  0
 17100  1  0  0  0
 18 19  2  0  0  0
 18101  1  0  0  0
 19 20  1  0  0  0
 19 24  1  0  0  0
 20 21  2  0  0  0
 20102  1  0  0  0
 21 23  1  0  0  0
 22 28  1  0  0  0
 22 32  2  0  0  0
 26 27  1  0  0  0
 28103  1  0  0  0
 28104  1  0  0  0
 29105  1  0  0  0
 29106  1  0  0  0
 33 34  1  0  0  0
 33 66  1  0  0  0
 33 70  2  0  0  0
 34 36  1  0  0  0
 34 59  1  0  0  0
 34107  1  0  0  0
 35 44  2  0  0  0
 35 45  1  0  0  0
 35 68  1  0  0  0
 36 56  1  0  0  0
 36108  1  0  0  0
 37 39  1  0  0  0
 37 47  1  0  0  0
 37 66  1  0  0  0
 37109  1  0  0  0
 38 43  2  0  0  0
 38 46  1  0  0  0
 38 47  1  0  0  0
 39 64  1  0  0  0
 39 67  2  0  0  0
 40 52  1  0  0  0
 40 53  2  0  0  0
 40 58  1  0  0  0
 41110  1  0  0  0
 41111  1  0  0  0
 41112  1  0  0  0
 41 48  1  0  0  0
 42 43  1  0  0  0
 42 66  1  0  0  0
 42113  1  0  0  0
 42114  1  0  0  0
 43 44  1  0  0  0
 44115  1  0  0  0
 45 46  2  0  0  0
 45116  1  0  0  0
 46117  1  0  0  0
 47118  1  0  0  0
 47119  1  0  0  0
 48 56  1  0  0  0
 48 65  1  0  0  0
 48120  1  0  0  0
 49 50  1  0  0  0
 49 53  1  0  0  0
 49 64  1  0  0  0
 49121  1  0  0  0
 50 51  1  0  0  0
 50122  1  0  0  0
 50123  1  0  0  0
 51 52  1  0  0  0
 51124  1  0  0  0
 51125  1  0  0  0
 52126  1  0  0  0
 52127  1  0  0  0
 53 54  1  0  0  0
 54 55  2  0  0  0
 54128  1  0  0  0
 55 57  1  0  0  0
 55129  1  0  0  0
 56 69  2  0  0  0
 57 58  2  0  0  0
 57130  1  0  0  0
 58131  1  0  0  0
 59 60  1  0  0  0
 59 61  1  0  0  0
 59 62  1  0  0  0
 60132  1  0  0  0
 60133  1  0  0  0
 60134  1  0  0  0
 61135  1  0  0  0
 61136  1  0  0  0
 61137  1  0  0  0
 62138  1  0  0  0
 62139  1  0  0  0
 62140  1  0  0  0
 63 65  1  0  0  0
 63141  1  0  0  0
 63142  1  0  0  0
 63143  1  0  0  0
 64144  1  0  0  0
 65145  1  0  0  0
 68 84  1  0  0  0
 71 72  2  0  0  0
 71 73  1  0  0  0
 71146  1  0  0  0
 72 74  1  0  0  0
 72147  1  0  0  0
 73 75  2  0  0  0
 73 81  1  0  0  0
 74 83  1  0  0  0
 74 85  2  0  0  0
 75 84  1  0  0  0
 75 85  1  0  0  0
 76 79  1  0  0  0
 76 80  1  0  0  0
 76148  1  0  0  0
 76149  1  0  0  0
 77 78  1  0  0  0
 77 81  1  0  0  0
 77150  1  0  0  0
 77151  1  0  0  0
 78 81  1  0  0  0
 78152  1  0  0  0
 78153  1  0  0  0
 79 82  1  0  0  0
 79154  1  0  0  0
 79155  1  0  0  0
 80 86  1  0  0  0
 80156  1  0  0  0
 80157  1  0  0  0
 81158  1  0  0  0
 82 83  1  0  0  0
 82 86  1  0  0  0
 82159  1  0  0  0
 83160  1  0  0  0
 83161  1  0  0  0
 84162  1  0  0  0
 84163  1  0  0  0
M  ISO  4   1 100  68 101  84 101  86 100
M  END
> <chiral flag>
0

> <version>
0

> <s_m_source_file>
/data/baiqing/PycharmProjects/Reinvent-master-3.2/result/LINK_invent/BTK/process_docking_weight1_custom_sum_contain_oxygen_bond_distance_aromatic_linkinvent_7_9_3/rearranged_h_0175.sdf

> <i_m_source_file_index>
89

> <r_mmod_Potential_Energy-OPLS-2005>
861.441284179688

> <r_mmod_Stretch_Energy-OPLS-2005>
325.564819335938

> <r_mmod_Bend_Energy-OPLS-2005>
319.134338378906

> <r_mmod_Torsional_Energy-OPLS-2005>
390.105163574219

> <r_mmod_Improper_Torsional_Energy-OPLS-2005>
13.1167488098145

> <r_mmod_Van_der_Waal_Energy-OPLS-2005>
122.32706451416

> <r_mmod_Electrostatic_Energy-OPLS-2005>
-346.664215087891

> <r_mmod_Solvation_Energy-OPLS-2005>
-213.175170898438

> <b_mmod_Minimization_Converged-OPLS-2005>
0

> <r_mmod_RMS_Derivative-OPLS-2005>
4.04778051376343

$$$$
89
                    3D
 Structure written by MMmdl.
167177  0  0  1  0            999 V2000
  -30.6365  -14.6654   20.5689 C   0  0  0  0  0  0
  -30.4240  -12.4298   19.4990 C   0  0  0  0  0  0
  -29.5073  -12.5223   18.2631 C   0  0  0  0  0  0
  -28.0335  -12.3531   18.6698 C   0  0  0  0  0  0
  -27.6442  -13.2276   19.8858 C   0  0  2  0  0  0
  -28.6697  -13.1151   21.0305 C   0  0  0  0  0  0
  -25.2458  -13.8227   20.5605 C   0  0  0  0  0  0
  -24.1743  -13.0455   20.9179 C   0  0  0  0  0  0
  -24.6357  -11.6960   20.8801 C   0  0  0  0  0  0
  -23.9019  -10.4328   21.0470 C   0  0  0  0  0  0
  -24.3596   -9.4252   21.9235 C   0  0  0  0  0  0
  -23.6292   -8.2266   22.0777 C   0  0  0  0  0  0
  -22.4282   -8.0296   21.3545 C   0  0  0  0  0  0
  -21.9898   -9.0279   20.4660 C   0  0  0  0  0  0
  -22.7206  -10.2174   20.3104 C   0  0  0  0  0  0
  -21.6880   -6.0740   22.5251 C   0  0  0  0  0  0
  -21.4035   -6.5637   23.8184 C   0  0  0  0  0  0
  -21.3646   -5.6789   24.9145 C   0  0  0  0  0  0
  -21.6054   -4.3056   24.7195 C   0  0  0  0  0  0
  -21.8819   -3.8144   23.4316 C   0  0  0  0  0  0
  -21.9206   -4.6966   22.3375 C   0  0  0  0  0  0
  -22.7763  -13.5281   21.1757 C   0  0  0  0  0  0
  -22.1671   -4.2157   21.0947 F   0  0  0  0  0  0
  -21.5622   -3.4524   25.7699 F   0  0  0  0  0  0
  -29.9794  -13.4623   20.4704 N   0  0  0  0  0  0
  -26.2914  -12.9428   20.3428 N   0  0  0  0  0  0
  -25.9291  -11.6565   20.5862 N   0  0  0  0  0  0
  -22.0361  -12.8285   22.0314 N   0  0  0  0  0  0
  -25.4016  -15.1908   20.3681 N   0  0  0  0  0  0
  -31.7741  -14.7487   20.0872 O   0  0  0  0  0  0
  -21.6659   -6.8886   21.4224 O   0  0  0  0  0  0
  -22.3468  -14.5558   20.6562 O   0  0  0  0  0  0
  -24.6289  -31.8628   23.2065 C   0  0  0  0  0  0
  -25.9155  -32.4795   23.8399 C   0  0  1  0  0  0
  -27.1947  -27.3109   20.1364 C   0  0  0  0  0  0
  -25.5955  -33.8597   24.2327 N   0  0  0  0  0  0
  -23.4199  -30.4847   21.5496 C   0  0  2  0  0  0
  -24.8621  -28.9452   20.1080 C   0  0  0  0  0  0
  -22.7468  -29.4620   22.4960 C   0  0  0  0  0  0
  -18.0278  -28.1370   22.8504 C   0  0  0  0  0  0
  -24.1453  -36.7294   23.2636 C   0  0  0  0  0  0
  -25.9549  -30.7952   21.3702 C   0  0  0  0  0  0
  -26.0303  -29.4196   20.7190 C   0  0  0  0  0  0
  -27.2074  -28.6167   20.7179 C   0  0  0  0  0  0
  -26.0123  -26.8867   19.5014 C   0  0  0  0  0  0
  -24.8561  -27.6869   19.4861 C   0  0  0  0  0  0
  -23.6325  -29.8275   20.1609 C   0  0  0  0  0  0
  -25.4077  -36.3100   24.0342 C   0  0  1  0  0  0
  -20.5887  -28.3672   23.1291 C   0  0  2  0  0  0
  -20.6757  -26.9400   22.5407 C   0  0  0  0  0  0
  -19.5729  -26.6372   21.5214 C   0  0  0  0  0  0
  -18.1910  -26.7918   22.1638 C   0  0  0  0  0  0
  -19.1540  -28.8847   23.2882 C   0  0  0  0  0  0
  -18.9459  -30.1447   23.8898 C   0  0  0  0  0  0
  -17.6463  -30.6579   24.0577 C   0  0  0  0  0  0
  -25.9017  -34.9462   23.5124 C   0  0  0  0  0  0
  -16.5346  -29.9079   23.6340 C   0  0  0  0  0  0
  -16.7265  -28.6493   23.0359 C   0  0  0  0  0  0
  -26.4508  -31.6610   25.0767 C   0  0  0  0  0  0
  -25.3733  -31.3764   26.1503 C   0  0  0  0  0  0
  -27.0336  -30.3029   24.6220 C   0  0  0  0  0  0
  -27.6059  -32.4354   25.7542 C   0  0  0  0  0  0
  -27.5545  -37.1813   24.8463 C   0  0  0  0  0  0
  -21.4188  -29.3040   22.3703 N   0  0  0  0  0  0
  -26.4252  -37.3802   23.9418 N   0  0  0  0  0  0
  -24.6872  -31.0634   22.1001 N   0  0  0  0  0  0
  -23.4179  -28.8153   23.3043 O   0  0  0  0  0  0
  -28.2752  -26.4314   20.1756 O   0  0  0  0  0  0
  -26.5567  -34.8921   22.4670 O   0  0  0  0  0  0
  -23.5450  -32.1425   23.7382 O   0  0  0  0  0  0
  -25.3239  -21.6329   22.0820 C   0  0  0  0  0  0
  -27.9208  -21.2695   21.1081 C   0  0  0  0  0  0
  -25.4238  -19.5967   23.2965 C   0  0  0  0  0  0
  -26.0440  -20.4746   22.4025 C   0  0  0  0  0  0
  -27.3331  -20.1820   21.8703 C   0  0  0  0  0  0
  -27.8838  -18.8522   22.1975 C   0  0  0  0  0  0
  -25.8822  -22.6325   21.2820 C   0  0  0  0  0  0
  -27.2315  -22.5322   20.8557 C   0  0  0  0  0  0
  -27.1848  -18.1515   23.2207 C   0  0  0  0  0  0
  -30.3512  -17.9177   22.4354 C   0  0  0  0  0  0
  -31.0638  -16.6459   21.9387 C   0  0  0  0  0  0
  -28.9132  -16.6153   20.9668 C   0  0  0  0  0  0
  -29.1202  -18.1056   21.5337 C   0  0  2  0  0  0
  -24.9633  -23.7823   20.8933 C   0  0  0  0  0  0
  -27.8179  -23.7617   20.0599 C   0  0  0  0  0  0
  -28.0608  -25.1294   20.8577 C   0  0  0  0  0  0
  -26.0082  -18.4897   23.7476 N   0  0  0  0  0  0
  -30.1069  -15.7461   21.2735 N   0  0  0  0  0  0
  -27.6968  -17.0518   23.8740 N   0  0  0  0  0  0
  -31.4593  -12.5616   19.1836 H   0  0  0  0  0  0
  -30.3944  -11.4399   19.9536 H   0  0  0  0  0  0
  -29.7809  -11.7659   17.5284 H   0  0  0  0  0  0
  -29.6483  -13.4849   17.7732 H   0  0  0  0  0  0
  -27.8814  -11.3027   18.9128 H   0  0  0  0  0  0
  -27.3785  -12.5765   17.8308 H   0  0  0  0  0  0
  -27.6628  -14.2592   19.5429 H   0  0  0  0  0  0
  -28.6815  -12.1080   21.4525 H   0  0  0  0  0  0
  -28.3930  -13.7737   21.8570 H   0  0  0  0  0  0
  -25.2756   -9.5743   22.4793 H   0  0  0  0  0  0
  -24.0032   -7.4663   22.7487 H   0  0  0  0  0  0
  -21.0840   -8.8825   19.8923 H   0  0  0  0  0  0
  -22.3712  -10.9739   19.6210 H   0  0  0  0  0  0
  -21.2037   -7.6151   23.9691 H   0  0  0  0  0  0
  -21.1468   -6.0517   25.9050 H   0  0  0  0  0  0
  -22.0612   -2.7607   23.2810 H   0  0  0  0  0  0
  -22.4063  -12.0092   22.4867 H   0  0  0  0  0  0
  -21.0964  -13.1330   22.2413 H   0  0  0  0  0  0
  -24.6141  -15.8313   20.4161 H   0  0  0  0  0  0
  -26.2206  -15.6112   19.9438 H   0  0  0  0  0  0
  -26.7189  -32.5478   23.1129 H   0  0  0  0  0  0
  -25.0187  -33.9742   25.0529 H   0  0  0  0  0  0
  -22.7140  -31.3054   21.4136 H   0  0  0  0  0  0
  -23.3717  -35.9636   23.3318 H   0  0  0  0  0  0
  -24.3509  -36.8894   22.2044 H   0  0  0  0  0  0
  -23.7202  -37.6499   23.6628 H   0  0  0  0  0  0
  -26.0685  -31.5563   20.5983 H   0  0  0  0  0  0
  -26.8393  -30.8559   21.9932 H   0  0  0  0  0  0
  -28.1045  -28.9728   21.2030 H   0  0  0  0  0  0
  -25.9724  -25.9184   19.0247 H   0  0  0  0  0  0
  -23.9614  -27.3255   18.9995 H   0  0  0  0  0  0
  -23.7482  -30.6078   19.4065 H   0  0  0  0  0  0
  -22.7509  -29.2579   19.8639 H   0  0  0  0  0  0
  -25.1246  -36.1965   25.0838 H   0  0  0  0  0  0
  -20.9947  -28.3217   24.1434 H   0  0  0  0  0  0
  -20.5645  -26.2286   23.3598 H   0  0  0  0  0  0
  -21.6621  -26.7440   22.1220 H   0  0  0  0  0  0
  -19.6880  -25.6280   21.1251 H   0  0  0  0  0  0
  -19.6655  -27.3181   20.6730 H   0  0  0  0  0  0
  -17.4186  -26.6696   21.4017 H   0  0  0  0  0  0
  -18.0304  -26.0049   22.9019 H   0  0  0  0  0  0
  -19.7911  -30.7272   24.2266 H   0  0  0  0  0  0
  -17.4994  -31.6267   24.5158 H   0  0  0  0  0  0
  -15.5329  -30.2983   23.7630 H   0  0  0  0  0  0
  -15.8658  -28.0785   22.7086 H   0  0  0  0  0  0
  -24.5891  -30.7132   25.7814 H   0  0  0  0  0  0
  -24.8960  -32.2955   26.4918 H   0  0  0  0  0  0
  -25.8065  -30.8938   27.0279 H   0  0  0  0  0  0
  -26.2929  -29.6799   24.1208 H   0  0  0  0  0  0
  -27.3948  -29.7264   25.4731 H   0  0  0  0  0  0
  -27.8815  -30.4249   23.9492 H   0  0  0  0  0  0
  -27.2642  -33.3632   26.2135 H   0  0  0  0  0  0
  -28.3875  -32.6970   25.0395 H   0  0  0  0  0  0
  -28.0740  -31.8507   26.5471 H   0  0  0  0  0  0
  -28.2600  -38.0059   24.7487 H   0  0  0  0  0  0
  -28.0991  -36.2619   24.6321 H   0  0  0  0  0  0
  -27.2273  -37.1525   25.8860 H   0  0  0  0  0  0
  -20.9361  -29.8761   21.6925 H   0  0  0  0  0  0
  -26.0139  -38.2875   24.1442 H   0  0  0  0  0  0
  -24.3138  -21.7476   22.4562 H   0  0  0  0  0  0
  -28.9297  -21.1448   20.7415 H   0  0  0  0  0  0
  -24.4560  -19.8302   23.7192 H   0  0  0  0  0  0
  -31.0388  -18.7611   22.3858 H   0  0  0  0  0  0
  -30.0946  -17.8056   23.4890 H   0  0  0  0  0  0
  -31.8211  -16.9694   21.2186 H   0  0  0  0  0  0
  -31.5868  -16.1076   22.7344 H   0  0  0  0  0  0
  -28.0097  -16.1468   21.3630 H   0  0  0  0  0  0
  -28.7536  -16.6466   19.8873 H   0  0  0  0  0  0
  -29.4374  -18.7307   20.6989 H   0  0  0  0  0  0
  -23.9429  -23.6002   21.2337 H   0  0  0  0  0  0
  -24.9085  -23.8869   19.8099 H   0  0  0  0  0  0
  -25.2751  -24.7242   21.3319 H   0  0  0  0  0  0
  -27.1084  -23.9568   19.2580 H   0  0  0  0  0  0
  -28.7310  -23.4586   19.5449 H   0  0  0  0  0  0
  -28.9483  -24.9661   21.4668 H   0  0  0  0  0  0
  -27.2779  -25.2687   21.6017 H   0  0  0  0  0  0
  -28.7002  -16.9671   23.8045 H   0  0  0  0  0  0
  -27.3894  -17.0417   24.8369 H   0  0  0  0  0  0
  1 25  1  0  0  0
  1 30  2  0  0  0
  1 88  1  0  0  0
  2  3  1  0  0  0
  2 25  1  0  0  0
  2 90  1  0  0  0
  2 91  1  0  0  0
  3  4  1  0  0  0
  3 92  1  0  0  0
  3 93  1  0  0  0
  4  5  1  0  0  0
  4 94  1  0  0  0
  4 95  1  0  0  0
  5  6  1  0  0  0
  5 26  1  0  0  0
  5 96  1  0  0  0
  6 25  1  0  0  0
  6 97  1  0  0  0
  6 98  1  0  0  0
  7  8  2  0  0  0
  7 26  1  0  0  0
  7 29  1  0  0  0
  8  9  1  0  0  0
  8 22  1  0  0  0
  9 10  1  0  0  0
  9 27  2  0  0  0
 10 11  2  0  0  0
 10 15  1  0  0  0
 11 12  1  0  0  0
 11 99  1  0  0  0
 12 13  2  0  0  0
 12100  1  0  0  0
 13 14  1  0  0  0
 13 31  1  0  0  0
 14 15  2  0  0  0
 14101  1  0  0  0
 15102  1  0  0  0
 16 17  2  0  0  0
 16 21  1  0  0  0
 16 31  1  0  0  0
 17 18  1  0  0  0
 17103  1  0  0  0
 18 19  2  0  0  0
 18104  1  0  0  0
 19 20  1  0  0  0
 19 24  1  0  0  0
 20 21  2  0  0  0
 20105  1  0  0  0
 21 23  1  0  0  0
 22 28  1  0  0  0
 22 32  2  0  0  0
 26 27  1  0  0  0
 28106  1  0  0  0
 28107  1  0  0  0
 29108  1  0  0  0
 29109  1  0  0  0
 33 34  1  0  0  0
 33 66  1  0  0  0
 33 70  2  0  0  0
 34 36  1  0  0  0
 34 59  1  0  0  0
 34110  1  0  0  0
 35 44  2  0  0  0
 35 45  1  0  0  0
 35 68  1  0  0  0
 36 56  1  0  0  0
 36111  1  0  0  0
 37 39  1  0  0  0
 37 47  1  0  0  0
 37 66  1  0  0  0
 37112  1  0  0  0
 38 43  2  0  0  0
 38 46  1  0  0  0
 38 47  1  0  0  0
 39 64  1  0  0  0
 39 67  2  0  0  0
 40 52  1  0  0  0
 40 53  2  0  0  0
 40 58  1  0  0  0
 41113  1  0  0  0
 41114  1  0  0  0
 41115  1  0  0  0
 41 48  1  0  0  0
 42 43  1  0  0  0
 42 66  1  0  0  0
 42116  1  0  0  0
 42117  1  0  0  0
 43 44  1  0  0  0
 44118  1  0  0  0
 45 46  2  0  0  0
 45119  1  0  0  0
 46120  1  0  0  0
 47121  1  0  0  0
 47122  1  0  0  0
 48 56  1  0  0  0
 48 65  1  0  0  0
 48123  1  0  0  0
 49 50  1  0  0  0
 49 53  1  0  0  0
 49 64  1  0  0  0
 49124  1  0  0  0
 50 51  1  0  0  0
 50125  1  0  0  0
 50126  1  0  0  0
 51 52  1  0  0  0
 51127  1  0  0  0
 51128  1  0  0  0
 52129  1  0  0  0
 52130  1  0  0  0
 53 54  1  0  0  0
 54 55  2  0  0  0
 54131  1  0  0  0
 55 57  1  0  0  0
 55132  1  0  0  0
 56 69  2  0  0  0
 57 58  2  0  0  0
 57133  1  0  0  0
 58134  1  0  0  0
 59 60  1  0  0  0
 59 61  1  0  0  0
 59 62  1  0  0  0
 60135  1  0  0  0
 60136  1  0  0  0
 60137  1  0  0  0
 61138  1  0  0  0
 61139  1  0  0  0
 61140  1  0  0  0
 62141  1  0  0  0
 62142  1  0  0  0
 62143  1  0  0  0
 63 65  1  0  0  0
 63144  1  0  0  0
 63145  1  0  0  0
 63146  1  0  0  0
 64147  1  0  0  0
 65148  1  0  0  0
 68 86  1  0  0  0
 71 74  2  0  0  0
 71 77  1  0  0  0
 71149  1  0  0  0
 72 75  2  0  0  0
 72 78  1  0  0  0
 72150  1  0  0  0
 73 74  1  0  0  0
 73 87  2  0  0  0
 73151  1  0  0  0
 74 75  1  0  0  0
 75 76  1  0  0  0
 76 79  2  0  0  0
 76 83  1  0  0  0
 77 78  2  0  0  0
 77 84  1  0  0  0
 78 85  1  0  0  0
 79 87  1  0  0  0
 79 89  1  0  0  0
 80 81  1  0  0  0
 80 83  1  0  0  0
 80152  1  0  0  0
 80153  1  0  0  0
 81 88  1  0  0  0
 81154  1  0  0  0
 81155  1  0  0  0
 82 83  1  0  0  0
 82 88  1  0  0  0
 82156  1  0  0  0
 82157  1  0  0  0
 83158  1  0  0  0
 84159  1  0  0  0
 84160  1  0  0  0
 84161  1  0  0  0
 85 86  1  0  0  0
 85162  1  0  0  0
 85163  1  0  0  0
 86164  1  0  0  0
 86165  1  0  0  0
 89166  1  0  0  0
 89167  1  0  0  0
M  ISO  4   1 100  68 101  86 101  88 100
M  END
> <chiral flag>
0

> <version>
0

> <s_m_source_file>
/data/baiqing/PycharmProjects/Reinvent-master-3.2/result/LINK_invent/BTK/process_docking_weight1_custom_sum_contain_oxygen_bond_distance_aromatic_linkinvent_7_9_3/rearranged_h_0175.sdf

> <i_m_source_file_index>
90

> <r_mmod_Potential_Energy-OPLS-2005>
71.1322174072266

> <r_mmod_Stretch_Energy-OPLS-2005>
112.17488861084

> <r_mmod_Bend_Energy-OPLS-2005>
194.972412109375

> <r_mmod_Torsional_Energy-OPLS-2005>
379.092559814453

> <r_mmod_Improper_Torsional_Energy-OPLS-2005>
11.8900451660156

> <r_mmod_Van_der_Waal_Energy-OPLS-2005>
161.083511352539

> <r_mmod_Electrostatic_Energy-OPLS-2005>
-627.396362304688

> <r_mmod_Solvation_Energy-OPLS-2005>
-218.552551269531

> <b_mmod_Minimization_Converged-OPLS-2005>
0

> <r_mmod_RMS_Derivative-OPLS-2005>
7.50232410430908

$$$$
90
                    3D
 Structure written by MMmdl.
162171  0  0  1  0            999 V2000
  -30.6571  -14.5438   20.4865 C   0  0  0  0  0  0
  -30.4215  -12.3287   19.4509 C   0  0  0  0  0  0
  -29.4965  -12.4909   18.2250 C   0  0  0  0  0  0
  -28.0150  -12.3568   18.6288 C   0  0  0  0  0  0
  -27.6529  -13.2083   19.8721 C   0  0  2  0  0  0
  -28.6956  -13.0409   21.0040 C   0  0  0  0  0  0
  -25.2545  -13.8196   20.5680 C   0  0  0  0  0  0
  -24.1824  -13.0447   20.9205 C   0  0  0  0  0  0
  -24.6364  -11.6923   20.8769 C   0  0  0  0  0  0
  -23.9015  -10.4325   21.0394 C   0  0  0  0  0  0
  -24.3582   -9.4246   21.9177 C   0  0  0  0  0  0
  -23.6298   -8.2246   22.0707 C   0  0  0  0  0  0
  -22.4265   -8.0268   21.3503 C   0  0  0  0  0  0
  -21.9894   -9.0235   20.4601 C   0  0  0  0  0  0
  -22.7176  -10.2147   20.3022 C   0  0  0  0  0  0
  -21.6838   -6.0753   22.5298 C   0  0  0  0  0  0
  -21.4005   -6.5649   23.8243 C   0  0  0  0  0  0
  -21.3661   -5.6791   24.9198 C   0  0  0  0  0  0
  -21.6057   -4.3060   24.7228 C   0  0  0  0  0  0
  -21.8821   -3.8158   23.4332 C   0  0  0  0  0  0
  -21.9192   -4.6993   22.3407 C   0  0  0  0  0  0
  -22.7839  -13.5208   21.1880 C   0  0  0  0  0  0
  -22.1640   -4.2170   21.0980 F   0  0  0  0  0  0
  -21.5642   -3.4549   25.7735 F   0  0  0  0  0  0
  -30.0253  -13.3352   20.4496 N   0  0  0  0  0  0
  -26.2959  -12.9327   20.3357 N   0  0  0  0  0  0
  -25.9291  -11.6500   20.5817 N   0  0  0  0  0  0
  -22.0516  -12.8164   22.0452 N   0  0  0  0  0  0
  -25.4325  -15.1918   20.4075 N   0  0  0  0  0  0
  -31.8135  -14.6972   20.0887 O   0  0  0  0  0  0
  -21.6617   -6.8877   21.4232 O   0  0  0  0  0  0
  -22.3509  -14.5500   20.6714 O   0  0  0  0  0  0
  -24.6204  -31.8653   23.2093 C   0  0  0  0  0  0
  -25.9083  -32.4803   23.8403 C   0  0  1  0  0  0
  -27.2225  -27.3984   20.1009 C   0  0  0  0  0  0
  -25.5970  -33.8612   24.2342 N   0  0  0  0  0  0
  -23.4089  -30.4906   21.5492 C   0  0  2  0  0  0
  -24.8510  -28.9525   20.1183 C   0  0  0  0  0  0
  -22.7432  -29.4665   22.4974 C   0  0  0  0  0  0
  -18.0281  -28.1388   22.8474 C   0  0  0  0  0  0
  -24.1497  -36.7293   23.2636 C   0  0  0  0  0  0
  -25.9423  -30.8165   21.3722 C   0  0  0  0  0  0
  -26.0155  -29.4521   20.7140 C   0  0  0  0  0  0
  -27.2082  -28.6869   20.6955 C   0  0  0  0  0  0
  -26.0379  -26.9268   19.4930 C   0  0  0  0  0  0
  -24.8579  -27.6901   19.5022 C   0  0  0  0  0  0
  -23.6211  -29.8284   20.1634 C   0  0  0  0  0  0
  -25.4121  -36.3111   24.0341 C   0  0  1  0  0  0
  -20.5869  -28.3688   23.1295 C   0  0  2  0  0  0
  -20.6779  -26.9431   22.5393 C   0  0  0  0  0  0
  -19.5782  -26.6391   21.5178 C   0  0  0  0  0  0
  -18.1951  -26.7935   22.1583 C   0  0  0  0  0  0
  -19.1527  -28.8842   23.2883 C   0  0  0  0  0  0
  -18.9459  -30.1433   23.8927 C   0  0  0  0  0  0
  -17.6469  -30.6597   24.0551 C   0  0  0  0  0  0
  -25.9055  -34.9470   23.5120 C   0  0  0  0  0  0
  -16.5352  -29.9101   23.6332 C   0  0  0  0  0  0
  -16.7262  -28.6508   23.0349 C   0  0  0  0  0  0
  -26.4515  -31.6599   25.0744 C   0  0  0  0  0  0
  -25.3775  -31.3701   26.1481 C   0  0  0  0  0  0
  -27.0359  -30.3051   24.6130 C   0  0  0  0  0  0
  -27.6105  -32.4313   25.7494 C   0  0  0  0  0  0
  -27.5593  -37.1807   24.8464 C   0  0  0  0  0  0
  -21.4159  -29.3052   22.3707 N   0  0  0  0  0  0
  -26.4309  -37.3792   23.9404 N   0  0  0  0  0  0
  -24.6744  -31.0734   22.1007 N   0  0  0  0  0  0
  -23.4180  -28.8206   23.3037 O   0  0  0  0  0  0
  -28.3743  -26.6289   20.0887 O   0  0  0  0  0  0
  -26.5582  -34.8911   22.4663 O   0  0  0  0  0  0
  -23.5394  -32.1436   23.7470 O   0  0  0  0  0  0
  -29.0486  -19.2044   19.9974 C   0  0  0  0  0  0
  -29.3814  -20.5369   20.3426 C   0  0  0  0  0  0
  -30.5991  -20.7778   20.9462 C   0  0  0  0  0  0
  -29.9972  -18.1773   20.2724 C   0  0  0  0  0  0
  -31.4855  -19.7194   21.2173 C   0  0  0  0  0  0
  -28.6162  -21.8391   20.1237 C   0  0  0  0  0  0
  -30.8078  -22.2505   21.2036 C   0  0  0  0  0  0
  -29.4346  -22.9352   20.9071 C   0  0  1  0  0  0
  -32.8314  -19.9757   21.8687 C   0  0  0  0  0  0
  -30.7377  -25.1890   20.8166 C   0  0  0  0  0  0
  -29.8054  -16.7523   19.7247 C   0  0  0  0  0  0
  -28.2354  -25.2430   20.5034 C   0  0  0  0  0  0
  -29.5236  -24.3873   20.2838 C   0  0  2  0  0  0
  -31.1832  -18.4374   20.8837 N   0  0  0  0  0  0
  -29.8381  -15.6041   20.6608 N   0  0  0  0  0  0
  -31.4631  -12.4323   19.1423 H   0  0  0  0  0  0
  -30.3297  -11.3307   19.8783 H   0  0  0  0  0  0
  -29.7422  -11.7483   17.4668 H   0  0  0  0  0  0
  -29.6640  -13.4649   17.7622 H   0  0  0  0  0  0
  -27.8205  -11.3034   18.8316 H   0  0  0  0  0  0
  -27.3686  -12.6213   17.7918 H   0  0  0  0  0  0
  -27.6793  -14.2477   19.5467 H   0  0  0  0  0  0
  -28.6692  -12.0270   21.4071 H   0  0  0  0  0  0
  -28.4593  -13.6983   21.8426 H   0  0  0  0  0  0
  -25.2725   -9.5724   22.4769 H   0  0  0  0  0  0
  -24.0073   -7.4586   22.7333 H   0  0  0  0  0  0
  -21.0870   -8.8670   19.8851 H   0  0  0  0  0  0
  -22.3605  -10.9675   19.6132 H   0  0  0  0  0  0
  -21.1966   -7.6157   23.9762 H   0  0  0  0  0  0
  -21.1475   -6.0507   25.9113 H   0  0  0  0  0  0
  -22.0591   -2.7617   23.2820 H   0  0  0  0  0  0
  -22.4122  -11.9824   22.4836 H   0  0  0  0  0  0
  -21.1117  -13.1114   22.2649 H   0  0  0  0  0  0
  -24.6701  -15.8556   20.4980 H   0  0  0  0  0  0
  -26.2840  -15.6191   20.0654 H   0  0  0  0  0  0
  -26.7138  -32.5476   23.1140 H   0  0  0  0  0  0
  -25.0220  -33.9788   25.0556 H   0  0  0  0  0  0
  -22.7011  -31.3090   21.4078 H   0  0  0  0  0  0
  -23.3778  -35.9609   23.3306 H   0  0  0  0  0  0
  -24.3591  -36.8892   22.2051 H   0  0  0  0  0  0
  -23.7214  -37.6488   23.6630 H   0  0  0  0  0  0
  -26.0684  -31.5846   20.6108 H   0  0  0  0  0  0
  -26.8265  -30.8578   21.9958 H   0  0  0  0  0  0
  -28.1088  -29.0745   21.1502 H   0  0  0  0  0  0
  -26.0127  -25.9722   18.9877 H   0  0  0  0  0  0
  -23.9633  -27.3040   19.0306 H   0  0  0  0  0  0
  -23.7436  -30.6047   19.4073 H   0  0  0  0  0  0
  -22.7445  -29.2557   19.8583 H   0  0  0  0  0  0
  -25.1303  -36.1980   25.0836 H   0  0  0  0  0  0
  -20.9927  -28.3222   24.1423 H   0  0  0  0  0  0
  -20.5664  -26.2300   23.3570 H   0  0  0  0  0  0
  -21.6648  -26.7471   22.1189 H   0  0  0  0  0  0
  -19.6952  -25.6283   21.1252 H   0  0  0  0  0  0
  -19.6749  -27.3158   20.6680 H   0  0  0  0  0  0
  -17.4224  -26.6642   21.3981 H   0  0  0  0  0  0
  -18.0393  -26.0069   22.8983 H   0  0  0  0  0  0
  -19.7942  -30.7209   24.2335 H   0  0  0  0  0  0
  -17.5039  -31.6291   24.5135 H   0  0  0  0  0  0
  -15.5357  -30.3014   23.7646 H   0  0  0  0  0  0
  -15.8652  -28.0817   22.7083 H   0  0  0  0  0  0
  -24.5936  -30.7072   25.7802 H   0  0  0  0  0  0
  -24.8975  -32.2847   26.4973 H   0  0  0  0  0  0
  -25.8124  -30.8822   27.0209 H   0  0  0  0  0  0
  -26.2896  -29.6779   24.1230 H   0  0  0  0  0  0
  -27.4203  -29.7332   25.4588 H   0  0  0  0  0  0
  -27.8711  -30.4408   23.9251 H   0  0  0  0  0  0
  -27.2756  -33.3605   26.2113 H   0  0  0  0  0  0
  -28.3890  -32.6873   25.0296 H   0  0  0  0  0  0
  -28.0793  -31.8395   26.5362 H   0  0  0  0  0  0
  -28.2618  -38.0113   24.7546 H   0  0  0  0  0  0
  -28.1103  -36.2640   24.6265 H   0  0  0  0  0  0
  -27.2313  -37.1410   25.8876 H   0  0  0  0  0  0
  -20.9346  -29.8780   21.6913 H   0  0  0  0  0  0
  -26.0208  -38.2877   24.1415 H   0  0  0  0  0  0
  -28.1157  -18.9789   19.4983 H   0  0  0  0  0  0
  -27.5841  -21.7565   20.4681 H   0  0  0  0  0  0
  -28.5950  -22.0560   19.0538 H   0  0  0  0  0  0
  -31.5796  -22.5754   20.5063 H   0  0  0  0  0  0
  -31.1505  -22.4392   22.2229 H   0  0  0  0  0  0
  -28.9504  -23.0264   21.8822 H   0  0  0  0  0  0
  -33.4335  -20.6477   21.2562 H   0  0  0  0  0  0
  -33.3977  -19.0546   22.0001 H   0  0  0  0  0  0
  -32.7041  -20.4405   22.8476 H   0  0  0  0  0  0
  -31.6957  -24.7169   20.6012 H   0  0  0  0  0  0
  -30.6797  -25.3437   21.8956 H   0  0  0  0  0  0
  -30.7971  -26.1704   20.3433 H   0  0  0  0  0  0
  -30.5381  -16.6099   18.9288 H   0  0  0  0  0  0
  -28.8459  -16.7181   19.2071 H   0  0  0  0  0  0
  -27.9727  -25.2453   21.5643 H   0  0  0  0  0  0
  -27.4141  -24.7453   19.9937 H   0  0  0  0  0  0
  -29.6577  -24.2777   19.2071 H   0  0  0  0  0  0
  -28.9550  -15.3976   21.0984 H   0  0  0  0  0  0
  1 25  1  0  0  0
  1 30  2  0  0  0
  1 85  1  0  0  0
  2  3  1  0  0  0
  2 25  1  0  0  0
  2 86  1  0  0  0
  2 87  1  0  0  0
  3  4  1  0  0  0
  3 88  1  0  0  0
  3 89  1  0  0  0
  4  5  1  0  0  0
  4 90  1  0  0  0
  4 91  1  0  0  0
  5  6  1  0  0  0
  5 26  1  0  0  0
  5 92  1  0  0  0
  6 25  1  0  0  0
  6 93  1  0  0  0
  6 94  1  0  0  0
  7  8  2  0  0  0
  7 26  1  0  0  0
  7 29  1  0  0  0
  8  9  1  0  0  0
  8 22  1  0  0  0
  9 10  1  0  0  0
  9 27  2  0  0  0
 10 11  2  0  0  0
 10 15  1  0  0  0
 11 12  1  0  0  0
 11 95  1  0  0  0
 12 13  2  0  0  0
 12 96  1  0  0  0
 13 14  1  0  0  0
 13 31  1  0  0  0
 14 15  2  0  0  0
 14 97  1  0  0  0
 15 98  1  0  0  0
 16 17  2  0  0  0
 16 21  1  0  0  0
 16 31  1  0  0  0
 17 18  1  0  0  0
 17 99  1  0  0  0
 18 19  2  0  0  0
 18100  1  0  0  0
 19 20  1  0  0  0
 19 24  1  0  0  0
 20 21  2  0  0  0
 20101  1  0  0  0
 21 23  1  0  0  0
 22 28  1  0  0  0
 22 32  2  0  0  0
 26 27  1  0  0  0
 28102  1  0  0  0
 28103  1  0  0  0
 29104  1  0  0  0
 29105  1  0  0  0
 33 34  1  0  0  0
 33 66  1  0  0  0
 33 70  2  0  0  0
 34 36  1  0  0  0
 34 59  1  0  0  0
 34106  1  0  0  0
 35 44  2  0  0  0
 35 45  1  0  0  0
 35 68  1  0  0  0
 36 56  1  0  0  0
 36107  1  0  0  0
 37 39  1  0  0  0
 37 47  1  0  0  0
 37 66  1  0  0  0
 37108  1  0  0  0
 38 43  2  0  0  0
 38 46  1  0  0  0
 38 47  1  0  0  0
 39 64  1  0  0  0
 39 67  2  0  0  0
 40 52  1  0  0  0
 40 53  2  0  0  0
 40 58  1  0  0  0
 41109  1  0  0  0
 41110  1  0  0  0
 41111  1  0  0  0
 41 48  1  0  0  0
 42 43  1  0  0  0
 42 66  1  0  0  0
 42112  1  0  0  0
 42113  1  0  0  0
 43 44  1  0  0  0
 44114  1  0  0  0
 45 46  2  0  0  0
 45115  1  0  0  0
 46116  1  0  0  0
 47117  1  0  0  0
 47118  1  0  0  0
 48 56  1  0  0  0
 48 65  1  0  0  0
 48119  1  0  0  0
 49 50  1  0  0  0
 49 53  1  0  0  0
 49 64  1  0  0  0
 49120  1  0  0  0
 50 51  1  0  0  0
 50121  1  0  0  0
 50122  1  0  0  0
 51 52  1  0  0  0
 51123  1  0  0  0
 51124  1  0  0  0
 52125  1  0  0  0
 52126  1  0  0  0
 53 54  1  0  0  0
 54 55  2  0  0  0
 54127  1  0  0  0
 55 57  1  0  0  0
 55128  1  0  0  0
 56 69  2  0  0  0
 57 58  2  0  0  0
 57129  1  0  0  0
 58130  1  0  0  0
 59 60  1  0  0  0
 59 61  1  0  0  0
 59 62  1  0  0  0
 60131  1  0  0  0
 60132  1  0  0  0
 60133  1  0  0  0
 61134  1  0  0  0
 61135  1  0  0  0
 61136  1  0  0  0
 62137  1  0  0  0
 62138  1  0  0  0
 62139  1  0  0  0
 63 65  1  0  0  0
 63140  1  0  0  0
 63141  1  0  0  0
 63142  1  0  0  0
 64143  1  0  0  0
 65144  1  0  0  0
 68 82  1  0  0  0
 71 72  2  0  0  0
 71 74  1  0  0  0
 71145  1  0  0  0
 72 73  1  0  0  0
 72 76  1  0  0  0
 73 75  2  0  0  0
 73 77  1  0  0  0
 74 81  1  0  0  0
 74 84  2  0  0  0
 75 79  1  0  0  0
 75 84  1  0  0  0
 76146  1  0  0  0
 76147  1  0  0  0
 76 78  1  0  0  0
 77 78  1  0  0  0
 77148  1  0  0  0
 77149  1  0  0  0
 78 83  1  0  0  0
 78150  1  0  0  0
 79151  1  0  0  0
 79152  1  0  0  0
 79153  1  0  0  0
 80154  1  0  0  0
 80155  1  0  0  0
 80156  1  0  0  0
 80 83  1  0  0  0
 81 85  1  0  0  0
 81157  1  0  0  0
 81158  1  0  0  0
 82 83  1  0  0  0
 82159  1  0  0  0
 82160  1  0  0  0
 83161  1  0  0  0
 85162  1  0  0  0
M  ISO  4   1 100  68 101  82 101  85 100
M  END
> <chiral flag>
0

> <version>
0

> <s_m_source_file>
/data/baiqing/PycharmProjects/Reinvent-master-3.2/result/LINK_invent/BTK/process_docking_weight1_custom_sum_contain_oxygen_bond_distance_aromatic_linkinvent_7_9_3/rearranged_h_0175.sdf

> <i_m_source_file_index>
91

> <r_mmod_Potential_Energy-OPLS-2005>
-226.788558959961

> <r_mmod_Stretch_Energy-OPLS-2005>
50.1318473815918

> <r_mmod_Bend_Energy-OPLS-2005>
145.48991394043

> <r_mmod_Torsional_Energy-OPLS-2005>
255.715957641602

> <r_mmod_Improper_Torsional_Energy-OPLS-2005>
12.0003995895386

> <r_mmod_Van_der_Waal_Energy-OPLS-2005>
149.158813476562

> <r_mmod_Electrostatic_Energy-OPLS-2005>
-624.582153320312

> <r_mmod_Solvation_Energy-OPLS-2005>
-237.66780090332

> <b_mmod_Minimization_Converged-OPLS-2005>
0

> <r_mmod_RMS_Derivative-OPLS-2005>
4.52948188781738

$$$$
91
                    3D
 Structure written by MMmdl.
158167  0  0  1  0            999 V2000
  -30.5763  -14.8431   20.4488 C   0  0  0  0  0  0
  -30.4412  -12.5227   19.4769 C   0  0  0  0  0  0
  -29.5155  -12.5157   18.2395 C   0  0  0  0  0  0
  -28.0450  -12.3203   18.6577 C   0  0  0  0  0  0
  -27.6360  -13.2370   19.8415 C   0  0  2  0  0  0
  -28.6826  -13.2149   20.9755 C   0  0  0  0  0  0
  -25.2494  -13.8196   20.5705 C   0  0  0  0  0  0
  -24.1799  -13.0431   20.9224 C   0  0  0  0  0  0
  -24.6400  -11.6912   20.8751 C   0  0  0  0  0  0
  -23.9078  -10.4286   21.0404 C   0  0  0  0  0  0
  -24.3627   -9.4202   21.9183 C   0  0  0  0  0  0
  -23.6301   -8.2238   22.0751 C   0  0  0  0  0  0
  -22.4281   -8.0280   21.3544 C   0  0  0  0  0  0
  -21.9920   -9.0249   20.4641 C   0  0  0  0  0  0
  -22.7250  -10.2127   20.3050 C   0  0  0  0  0  0
  -21.6853   -6.0738   22.5279 C   0  0  0  0  0  0
  -21.4010   -6.5639   23.8215 C   0  0  0  0  0  0
  -21.3661   -5.6789   24.9175 C   0  0  0  0  0  0
  -21.6045   -4.3051   24.7224 C   0  0  0  0  0  0
  -21.8818   -3.8147   23.4343 C   0  0  0  0  0  0
  -21.9193   -4.6965   22.3400 C   0  0  0  0  0  0
  -22.7820  -13.5210   21.1878 C   0  0  0  0  0  0
  -22.1663   -4.2155   21.0976 F   0  0  0  0  0  0
  -21.5630   -3.4530   25.7735 F   0  0  0  0  0  0
  -29.9686  -13.6003   20.3817 N   0  0  0  0  0  0
  -26.2915  -12.9412   20.3251 N   0  0  0  0  0  0
  -25.9330  -11.6548   20.5740 N   0  0  0  0  0  0
  -22.0467  -12.8192   22.0427 N   0  0  0  0  0  0
  -25.4140  -15.1923   20.4109 N   0  0  0  0  0  0
  -31.7794  -14.9311   20.1849 O   0  0  0  0  0  0
  -21.6640   -6.8881   21.4243 O   0  0  0  0  0  0
  -22.3503  -14.5518   20.6727 O   0  0  0  0  0  0
  -24.6376  -31.8496   23.1926 C   0  0  0  0  0  0
  -25.9172  -32.4724   23.8294 C   0  0  1  0  0  0
  -27.2211  -27.2022   20.1474 C   0  0  0  0  0  0
  -25.5944  -33.8525   24.2225 N   0  0  0  0  0  0
  -23.4377  -30.4699   21.5370 C   0  0  2  0  0  0
  -24.8866  -28.9030   20.1159 C   0  0  0  0  0  0
  -22.7536  -29.4578   22.4887 C   0  0  0  0  0  0
  -18.0293  -28.1405   22.8477 C   0  0  0  0  0  0
  -24.1487  -36.7262   23.2640 C   0  0  0  0  0  0
  -25.9885  -30.7465   21.3782 C   0  0  0  0  0  0
  -26.0626  -29.3616   20.7243 C   0  0  0  0  0  0
  -27.2354  -28.5276   20.7198 C   0  0  0  0  0  0
  -26.0192  -26.8233   19.5133 C   0  0  0  0  0  0
  -24.8730  -27.6438   19.4973 C   0  0  0  0  0  0
  -23.6608  -29.7984   20.1567 C   0  0  0  0  0  0
  -25.4113  -36.3042   24.0323 C   0  0  1  0  0  0
  -20.5903  -28.3715   23.1252 C   0  0  2  0  0  0
  -20.6783  -26.9426   22.5407 C   0  0  0  0  0  0
  -19.5756  -26.6390   21.5214 C   0  0  0  0  0  0
  -18.1932  -26.7945   22.1621 C   0  0  0  0  0  0
  -19.1549  -28.8875   23.2860 C   0  0  0  0  0  0
  -18.9471  -30.1474   23.8885 C   0  0  0  0  0  0
  -17.6469  -30.6598   24.0565 C   0  0  0  0  0  0
  -25.9061  -34.9420   23.5076 C   0  0  0  0  0  0
  -16.5356  -29.9093   23.6342 C   0  0  0  0  0  0
  -16.7279  -28.6519   23.0352 C   0  0  0  0  0  0
  -26.4522  -31.6559   25.0699 C   0  0  0  0  0  0
  -25.3731  -31.3717   26.1407 C   0  0  0  0  0  0
  -27.0379  -30.2967   24.6216 C   0  0  0  0  0  0
  -27.6064  -32.4316   25.7477 C   0  0  0  0  0  0
  -27.5583  -37.1778   24.8461 C   0  0  0  0  0  0
  -21.4234  -29.3052   22.3636 N   0  0  0  0  0  0
  -26.4275  -37.3760   23.9429 N   0  0  0  0  0  0
  -24.7075  -31.0413   22.0923 N   0  0  0  0  0  0
  -23.4209  -28.8121   23.3008 O   0  0  0  0  0  0
  -28.2991  -26.2677   20.1481 O   0  0  0  0  0  0
  -26.5641  -34.8913   22.4651 O   0  0  0  0  0  0
  -23.5511  -32.1330   23.7192 O   0  0  0  0  0  0
  -29.5196  -21.1892   18.5566 C   0  0  0  0  0  0
  -28.9131  -22.1860   20.6204 C   0  0  0  0  0  0
  -28.6769  -23.4852   19.9491 C   0  0  0  0  0  0
  -29.3745  -20.9499   19.9466 C   0  0  0  0  0  0
  -28.9109  -23.4553   18.5592 C   0  0  0  0  0  0
  -29.0162  -18.5544   21.1752 C   0  0  0  0  0  0
  -30.2822  -18.4710   19.5829 C   0  0  0  0  0  0
  -30.1465  -17.4942   20.8046 C   0  0  0  0  0  0
  -28.6966  -22.1281   22.1215 C   0  0  0  0  0  0
  -28.7220  -24.6736   17.6749 C   0  0  0  0  0  0
  -28.0749  -24.8349   20.6382 C   0  0  0  0  0  0
  -29.3102  -22.3501   17.8996 N   0  0  0  0  0  0
  -29.8196  -19.5888   20.4673 N   0  0  0  0  0  0
  -29.7887  -15.9908   20.6180 N   0  0  0  0  0  0
  -31.4767  -12.6733   19.1682 H   0  0  0  0  0  0
  -30.4183  -11.5574   19.9856 H   0  0  0  0  0  0
  -29.8159  -11.7279   17.5471 H   0  0  0  0  0  0
  -29.6201  -13.4567   17.6966 H   0  0  0  0  0  0
  -27.9224  -11.2746   18.9431 H   0  0  0  0  0  0
  -27.3827  -12.4813   17.8063 H   0  0  0  0  0  0
  -27.6136  -14.2494   19.4375 H   0  0  0  0  0  0
  -28.7476  -12.2255   21.4299 H   0  0  0  0  0  0
  -28.4026  -13.9020   21.7753 H   0  0  0  0  0  0
  -25.2771   -9.5685   22.4756 H   0  0  0  0  0  0
  -24.0015   -7.4629   22.7464 H   0  0  0  0  0  0
  -21.0857   -8.8762   19.8939 H   0  0  0  0  0  0
  -22.3711  -10.9664   19.6156 H   0  0  0  0  0  0
  -21.1994   -7.6146   23.9727 H   0  0  0  0  0  0
  -21.1484   -6.0512   25.9082 H   0  0  0  0  0  0
  -22.0594   -2.7610   23.2834 H   0  0  0  0  0  0
  -22.4085  -11.9852   22.4812 H   0  0  0  0  0  0
  -21.1076  -13.1200   22.2618 H   0  0  0  0  0  0
  -24.6373  -15.8359   20.5157 H   0  0  0  0  0  0
  -26.2442  -15.6347   20.0395 H   0  0  0  0  0  0
  -26.7237  -32.5362   23.1033 H   0  0  0  0  0  0
  -25.0089  -33.9648   25.0370 H   0  0  0  0  0  0
  -22.7373  -31.2937   21.3838 H   0  0  0  0  0  0
  -23.3769  -35.9574   23.3263 H   0  0  0  0  0  0
  -24.3591  -36.8930   22.2066 H   0  0  0  0  0  0
  -23.7217  -37.6437   23.6697 H   0  0  0  0  0  0
  -26.1303  -31.5021   20.6045 H   0  0  0  0  0  0
  -26.8651  -30.8003   22.0121 H   0  0  0  0  0  0
  -28.1383  -28.8781   21.1999 H   0  0  0  0  0  0
  -25.9495  -25.8573   19.0353 H   0  0  0  0  0  0
  -23.9724  -27.2862   19.0170 H   0  0  0  0  0  0
  -23.7933  -30.5711   19.3986 H   0  0  0  0  0  0
  -22.7774  -29.2357   19.8488 H   0  0  0  0  0  0
  -25.1297  -36.1867   25.0813 H   0  0  0  0  0  0
  -20.9991  -28.3299   24.1376 H   0  0  0  0  0  0
  -20.5679  -26.2330   23.3620 H   0  0  0  0  0  0
  -21.6647  -26.7442   22.1200 H   0  0  0  0  0  0
  -19.6918  -25.6300   21.1246 H   0  0  0  0  0  0
  -19.6697  -27.3201   20.6748 H   0  0  0  0  0  0
  -17.4204  -26.6696   21.4021 H   0  0  0  0  0  0
  -18.0325  -26.0089   22.9020 H   0  0  0  0  0  0
  -19.7946  -30.7296   24.2249 H   0  0  0  0  0  0
  -17.5021  -31.6278   24.5173 H   0  0  0  0  0  0
  -15.5359  -30.2994   23.7683 H   0  0  0  0  0  0
  -15.8676  -28.0841   22.7070 H   0  0  0  0  0  0
  -24.5934  -30.7031   25.7736 H   0  0  0  0  0  0
  -24.8890  -32.2883   26.4783 H   0  0  0  0  0  0
  -25.8040  -30.8935   27.0212 H   0  0  0  0  0  0
  -26.2970  -29.6693   24.1245 H   0  0  0  0  0  0
  -27.4052  -29.7246   25.4748 H   0  0  0  0  0  0
  -27.8849  -30.4227   23.9469 H   0  0  0  0  0  0
  -27.2671  -33.3654   26.1973 H   0  0  0  0  0  0
  -28.3913  -32.6815   25.0325 H   0  0  0  0  0  0
  -28.0681  -31.8485   26.5456 H   0  0  0  0  0  0
  -28.2551  -38.0125   24.7559 H   0  0  0  0  0  0
  -28.1126  -36.2653   24.6208 H   0  0  0  0  0  0
  -27.2311  -37.1319   25.8864 H   0  0  0  0  0  0
  -20.9430  -29.8774   21.6832 H   0  0  0  0  0  0
  -26.0138  -38.2818   24.1474 H   0  0  0  0  0  0
  -29.8687  -20.4006   17.9075 H   0  0  0  0  0  0
  -28.9084  -18.7273   22.2475 H   0  0  0  0  0  0
  -28.0509  -18.3647   20.7008 H   0  0  0  0  0  0
  -29.5877  -18.2458   18.7695 H   0  0  0  0  0  0
  -31.3047  -18.5817   19.2175 H   0  0  0  0  0  0
  -31.0046  -17.6088   21.4711 H   0  0  0  0  0  0
  -27.6814  -22.4333   22.3737 H   0  0  0  0  0  0
  -29.3939  -22.7933   22.6313 H   0  0  0  0  0  0
  -28.8495  -21.1259   22.5178 H   0  0  0  0  0  0
  -27.7135  -25.0720   17.7699 H   0  0  0  0  0  0
  -28.8789  -24.4348   16.6225 H   0  0  0  0  0  0
  -29.4353  -25.4531   17.9433 H   0  0  0  0  0  0
  -28.4378  -24.8410   21.6654 H   0  0  0  0  0  0
  -27.0039  -24.6582   20.7337 H   0  0  0  0  0  0
  -28.8080  -15.7881   20.7322 H   0  0  0  0  0  0
  1 25  1  0  0  0
  1 30  2  0  0  0
  1 84  1  0  0  0
  2  3  1  0  0  0
  2 25  1  0  0  0
  2 85  1  0  0  0
  2 86  1  0  0  0
  3  4  1  0  0  0
  3 87  1  0  0  0
  3 88  1  0  0  0
  4  5  1  0  0  0
  4 89  1  0  0  0
  4 90  1  0  0  0
  5  6  1  0  0  0
  5 26  1  0  0  0
  5 91  1  0  0  0
  6 25  1  0  0  0
  6 92  1  0  0  0
  6 93  1  0  0  0
  7  8  2  0  0  0
  7 26  1  0  0  0
  7 29  1  0  0  0
  8  9  1  0  0  0
  8 22  1  0  0  0
  9 10  1  0  0  0
  9 27  2  0  0  0
 10 11  2  0  0  0
 10 15  1  0  0  0
 11 12  1  0  0  0
 11 94  1  0  0  0
 12 13  2  0  0  0
 12 95  1  0  0  0
 13 14  1  0  0  0
 13 31  1  0  0  0
 14 15  2  0  0  0
 14 96  1  0  0  0
 15 97  1  0  0  0
 16 17  2  0  0  0
 16 21  1  0  0  0
 16 31  1  0  0  0
 17 18  1  0  0  0
 17 98  1  0  0  0
 18 19  2  0  0  0
 18 99  1  0  0  0
 19 20  1  0  0  0
 19 24  1  0  0  0
 20 21  2  0  0  0
 20100  1  0  0  0
 21 23  1  0  0  0
 22 28  1  0  0  0
 22 32  2  0  0  0
 26 27  1  0  0  0
 28101  1  0  0  0
 28102  1  0  0  0
 29103  1  0  0  0
 29104  1  0  0  0
 33 34  1  0  0  0
 33 66  1  0  0  0
 33 70  2  0  0  0
 34 36  1  0  0  0
 34 59  1  0  0  0
 34105  1  0  0  0
 35 44  2  0  0  0
 35 45  1  0  0  0
 35 68  1  0  0  0
 36 56  1  0  0  0
 36106  1  0  0  0
 37 39  1  0  0  0
 37 47  1  0  0  0
 37 66  1  0  0  0
 37107  1  0  0  0
 38 43  2  0  0  0
 38 46  1  0  0  0
 38 47  1  0  0  0
 39 64  1  0  0  0
 39 67  2  0  0  0
 40 52  1  0  0  0
 40 53  2  0  0  0
 40 58  1  0  0  0
 41108  1  0  0  0
 41109  1  0  0  0
 41110  1  0  0  0
 41 48  1  0  0  0
 42 43  1  0  0  0
 42 66  1  0  0  0
 42111  1  0  0  0
 42112  1  0  0  0
 43 44  1  0  0  0
 44113  1  0  0  0
 45 46  2  0  0  0
 45114  1  0  0  0
 46115  1  0  0  0
 47116  1  0  0  0
 47117  1  0  0  0
 48 56  1  0  0  0
 48 65  1  0  0  0
 48118  1  0  0  0
 49 50  1  0  0  0
 49 53  1  0  0  0
 49 64  1  0  0  0
 49119  1  0  0  0
 50 51  1  0  0  0
 50120  1  0  0  0
 50121  1  0  0  0
 51 52  1  0  0  0
 51122  1  0  0  0
 51123  1  0  0  0
 52124  1  0  0  0
 52125  1  0  0  0
 53 54  1  0  0  0
 54 55  2  0  0  0
 54126  1  0  0  0
 55 57  1  0  0  0
 55127  1  0  0  0
 56 69  2  0  0  0
 57 58  2  0  0  0
 57128  1  0  0  0
 58129  1  0  0  0
 59 60  1  0  0  0
 59 61  1  0  0  0
 59 62  1  0  0  0
 60130  1  0  0  0
 60131  1  0  0  0
 60132  1  0  0  0
 61133  1  0  0  0
 61134  1  0  0  0
 61135  1  0  0  0
 62136  1  0  0  0
 62137  1  0  0  0
 62138  1  0  0  0
 63 65  1  0  0  0
 63139  1  0  0  0
 63140  1  0  0  0
 63141  1  0  0  0
 64142  1  0  0  0
 65143  1  0  0  0
 68 81  1  0  0  0
 71 74  2  0  0  0
 71 82  1  0  0  0
 71144  1  0  0  0
 72 73  2  0  0  0
 72 74  1  0  0  0
 72 79  1  0  0  0
 73 75  1  0  0  0
 73 81  1  0  0  0
 74 83  1  0  0  0
 75 80  1  0  0  0
 75 82  2  0  0  0
 76 78  1  0  0  0
 76 83  1  0  0  0
 76145  1  0  0  0
 76146  1  0  0  0
 77 78  1  0  0  0
 77 83  1  0  0  0
 77147  1  0  0  0
 77148  1  0  0  0
 78 84  1  0  0  0
 78149  1  0  0  0
 79150  1  0  0  0
 79151  1  0  0  0
 79152  1  0  0  0
 80153  1  0  0  0
 80154  1  0  0  0
 80155  1  0  0  0
 81156  1  0  0  0
 81157  1  0  0  0
 84158  1  0  0  0
M  ISO  4   1 100  68 101  81 101  84 100
M  END
> <chiral flag>
0

> <version>
0

> <s_m_source_file>
/data/baiqing/PycharmProjects/Reinvent-master-3.2/result/LINK_invent/BTK/process_docking_weight1_custom_sum_contain_oxygen_bond_distance_aromatic_linkinvent_7_9_3/rearranged_h_0175.sdf

> <i_m_source_file_index>
92

> <r_mmod_Potential_Energy-OPLS-2005>
269.306701660156

> <r_mmod_Stretch_Energy-OPLS-2005>
176.264465332031

> <r_mmod_Bend_Energy-OPLS-2005>
261.059234619141

> <r_mmod_Torsional_Energy-OPLS-2005>
259.567535400391

> <r_mmod_Improper_Torsional_Energy-OPLS-2005>
11.9710464477539

> <r_mmod_Van_der_Waal_Energy-OPLS-2005>
136.177337646484

> <r_mmod_Electrostatic_Energy-OPLS-2005>
-461.322113037109

> <r_mmod_Solvation_Energy-OPLS-2005>
-243.949523925781

> <b_mmod_Minimization_Converged-OPLS-2005>
0

> <r_mmod_RMS_Derivative-OPLS-2005>
0.983382642269135

$$$$
92
                    3D
 Structure written by MMmdl.
166176  0  0  1  0            999 V2000
  -30.5519  -14.7760   20.4242 C   0  0  0  0  0  0
  -30.4295  -12.4640   19.4880 C   0  0  0  0  0  0
  -29.5105  -12.5042   18.2442 C   0  0  0  0  0  0
  -28.0361  -12.3148   18.6544 C   0  0  0  0  0  0
  -27.6317  -13.2246   19.8449 C   0  0  2  0  0  0
  -28.6701  -13.1568   20.9845 C   0  0  0  0  0  0
  -25.2440  -13.8184   20.5655 C   0  0  0  0  0  0
  -24.1726  -13.0428   20.9213 C   0  0  0  0  0  0
  -24.6326  -11.6917   20.8732 C   0  0  0  0  0  0
  -23.9028  -10.4284   21.0390 C   0  0  0  0  0  0
  -24.3595   -9.4208   21.9164 C   0  0  0  0  0  0
  -23.6280   -8.2241   22.0749 C   0  0  0  0  0  0
  -22.4265   -8.0272   21.3547 C   0  0  0  0  0  0
  -21.9885   -9.0231   20.4644 C   0  0  0  0  0  0
  -22.7205  -10.2112   20.3041 C   0  0  0  0  0  0
  -21.6849   -6.0735   22.5273 C   0  0  0  0  0  0
  -21.4023   -6.5645   23.8200 C   0  0  0  0  0  0
  -21.3658   -5.6797   24.9163 C   0  0  0  0  0  0
  -21.6037   -4.3059   24.7210 C   0  0  0  0  0  0
  -21.8823   -3.8149   23.4333 C   0  0  0  0  0  0
  -21.9191   -4.6966   22.3390 C   0  0  0  0  0  0
  -22.7760  -13.5218   21.1890 C   0  0  0  0  0  0
  -22.1669   -4.2152   21.0968 F   0  0  0  0  0  0
  -21.5612   -3.4542   25.7723 F   0  0  0  0  0  0
  -29.9735  -13.5254   20.4134 N   0  0  0  0  0  0
  -26.2838  -12.9367   20.3216 N   0  0  0  0  0  0
  -25.9239  -11.6515   20.5703 N   0  0  0  0  0  0
  -22.0422  -12.8192   22.0468 N   0  0  0  0  0  0
  -25.4126  -15.1894   20.4027 N   0  0  0  0  0  0
  -31.7375  -14.9094   20.0975 O   0  0  0  0  0  0
  -21.6646   -6.8874   21.4234 O   0  0  0  0  0  0
  -22.3427  -14.5506   20.6738 O   0  0  0  0  0  0
  -24.6310  -31.8520   23.1975 C   0  0  0  0  0  0
  -25.9115  -32.4741   23.8340 C   0  0  1  0  0  0
  -27.2412  -27.2643   20.1300 C   0  0  0  0  0  0
  -25.5907  -33.8544   24.2283 N   0  0  0  0  0  0
  -23.4312  -30.4695   21.5402 C   0  0  2  0  0  0
  -24.8821  -28.9074   20.1066 C   0  0  0  0  0  0
  -22.7475  -29.4599   22.4913 C   0  0  0  0  0  0
  -18.0252  -28.1471   22.8514 C   0  0  0  0  0  0
  -24.1490  -36.7296   23.2653 C   0  0  0  0  0  0
  -25.9733  -30.7583   21.3801 C   0  0  0  0  0  0
  -26.0460  -29.3826   20.7215 C   0  0  0  0  0  0
  -27.2214  -28.5720   20.7209 C   0  0  0  0  0  0
  -26.0673  -26.8607   19.4611 C   0  0  0  0  0  0
  -24.8978  -27.6541   19.4663 C   0  0  0  0  0  0
  -23.6492  -29.7925   20.1583 C   0  0  0  0  0  0
  -25.4113  -36.3112   24.0362 C   0  0  1  0  0  0
  -20.5864  -28.3769   23.1225 C   0  0  2  0  0  0
  -20.6742  -26.9497   22.5366 C   0  0  0  0  0  0
  -19.5699  -26.6519   21.5168 C   0  0  0  0  0  0
  -18.1906  -26.7985   22.1691 C   0  0  0  0  0  0
  -19.1528  -28.8922   23.2857 C   0  0  0  0  0  0
  -18.9518  -30.1513   23.8876 C   0  0  0  0  0  0
  -17.6559  -30.6690   24.0616 C   0  0  0  0  0  0
  -25.9037  -34.9448   23.5149 C   0  0  0  0  0  0
  -16.5409  -29.9222   23.6453 C   0  0  0  0  0  0
  -16.7254  -28.6643   23.0440 C   0  0  0  0  0  0
  -26.4477  -31.6562   25.0719 C   0  0  0  0  0  0
  -25.3728  -31.3657   26.1464 C   0  0  0  0  0  0
  -27.0345  -30.2985   24.6207 C   0  0  0  0  0  0
  -27.6040  -32.4297   25.7460 C   0  0  0  0  0  0
  -27.5591  -37.1795   24.8465 C   0  0  0  0  0  0
  -21.4191  -29.3095   22.3605 N   0  0  0  0  0  0
  -26.4311  -37.3787   23.9406 N   0  0  0  0  0  0
  -24.6978  -31.0453   22.0957 N   0  0  0  0  0  0
  -23.4115  -28.8141   23.3050 O   0  0  0  0  0  0
  -28.3888  -26.4474   20.2367 O   0  0  0  0  0  0
  -26.5628  -34.8922   22.4717 O   0  0  0  0  0  0
  -23.5457  -32.1343   23.7256 O   0  0  0  0  0  0
  -26.2079  -20.7147   22.1351 C   0  0  0  0  0  0
  -26.5256  -22.0129   21.7382 C   0  0  0  0  0  0
  -27.0421  -19.6588   21.7491 C   0  0  0  0  0  0
  -27.6275  -22.2837   20.9188 C   0  0  0  0  0  0
  -28.2300  -19.9090   20.9967 C   0  0  0  0  0  0
  -28.5666  -17.9183   19.7192 C   0  0  0  0  0  0
  -26.5450  -24.3669   21.5819 C   0  0  0  0  0  0
  -29.2330  -18.6495   20.8994 C   0  0  1  0  0  0
  -27.4425  -23.8212   20.4483 C   0  0  1  0  0  0
  -29.8138  -17.3118   20.1117 C   0  0  1  0  0  0
  -25.6734  -23.2166   22.0768 C   0  0  0  0  0  0
  -26.5752  -18.2687   22.1835 C   0  0  0  0  0  0
  -25.4185  -23.3544   23.5878 C   0  0  0  0  0  0
  -24.3311  -23.1888   21.3098 C   0  0  0  0  0  0
  -28.5504  -24.9403   20.1451 C   0  0  0  0  0  0
  -28.4784  -21.2258   20.5330 N   0  0  0  0  0  0
  -29.7041  -15.8687   20.5677 N   0  0  0  0  0  0
  -31.4724  -12.5962   19.1963 H   0  0  0  0  0  0
  -30.3768  -11.4906   19.9786 H   0  0  0  0  0  0
  -29.8019  -11.7313   17.5336 H   0  0  0  0  0  0
  -29.6255  -13.4577   17.7283 H   0  0  0  0  0  0
  -27.9050  -11.2683   18.9312 H   0  0  0  0  0  0
  -27.3765  -12.4844   17.8028 H   0  0  0  0  0  0
  -27.6235  -14.2434   19.4561 H   0  0  0  0  0  0
  -28.7038  -12.1526   21.4067 H   0  0  0  0  0  0
  -28.3882  -13.8204   21.8022 H   0  0  0  0  0  0
  -25.2742   -9.5689   22.4736 H   0  0  0  0  0  0
  -23.9988   -7.4643   22.7483 H   0  0  0  0  0  0
  -21.0810   -8.8737   19.8965 H   0  0  0  0  0  0
  -22.3655  -10.9642   19.6144 H   0  0  0  0  0  0
  -21.2047   -7.6158   23.9701 H   0  0  0  0  0  0
  -21.1470   -6.0534   25.9063 H   0  0  0  0  0  0
  -22.0604   -2.7612   23.2824 H   0  0  0  0  0  0
  -22.4052  -11.9862   22.4860 H   0  0  0  0  0  0
  -21.1024  -13.1174   22.2693 H   0  0  0  0  0  0
  -24.6260  -15.8255   20.4718 H   0  0  0  0  0  0
  -26.2278  -15.6113   19.9796 H   0  0  0  0  0  0
  -26.7177  -32.5371   23.1079 H   0  0  0  0  0  0
  -25.0064  -33.9672   25.0444 H   0  0  0  0  0  0
  -22.7326  -31.2954   21.3887 H   0  0  0  0  0  0
  -23.3779  -35.9600   23.3312 H   0  0  0  0  0  0
  -24.3604  -36.8899   22.2071 H   0  0  0  0  0  0
  -23.7190  -37.6481   23.6649 H   0  0  0  0  0  0
  -26.1129  -31.5156   20.6083 H   0  0  0  0  0  0
  -26.8496  -30.8051   22.0152 H   0  0  0  0  0  0
  -28.1145  -28.9279   21.2174 H   0  0  0  0  0  0
  -26.0285  -25.9022   18.9653 H   0  0  0  0  0  0
  -24.0116  -27.2811   18.9719 H   0  0  0  0  0  0
  -23.7644  -30.5619   19.3938 H   0  0  0  0  0  0
  -22.7627  -29.2250   19.8701 H   0  0  0  0  0  0
  -25.1285  -36.2027   25.0862 H   0  0  0  0  0  0
  -20.9989  -28.3365   24.1330 H   0  0  0  0  0  0
  -20.5626  -26.2441   23.3605 H   0  0  0  0  0  0
  -21.6596  -26.7447   22.1185 H   0  0  0  0  0  0
  -19.6861  -25.6502   21.1057 H   0  0  0  0  0  0
  -19.6570  -27.3416   20.6756 H   0  0  0  0  0  0
  -17.4115  -26.6562   21.4191 H   0  0  0  0  0  0
  -18.0507  -26.0152   22.9149 H   0  0  0  0  0  0
  -19.8057  -30.7304   24.2164 H   0  0  0  0  0  0
  -17.5160  -31.6380   24.5233 H   0  0  0  0  0  0
  -15.5446  -30.3169   23.7926 H   0  0  0  0  0  0
  -15.8556  -28.1059   22.7237 H   0  0  0  0  0  0
  -24.5910  -30.6992   25.7806 H   0  0  0  0  0  0
  -24.8907  -32.2791   26.4947 H   0  0  0  0  0  0
  -25.8089  -30.8801   27.0211 H   0  0  0  0  0  0
  -26.2943  -29.6681   24.1273 H   0  0  0  0  0  0
  -27.4078  -29.7269   25.4721 H   0  0  0  0  0  0
  -27.8791  -30.4261   23.9434 H   0  0  0  0  0  0
  -27.2666  -33.3602   26.2028 H   0  0  0  0  0  0
  -28.3825  -32.6844   25.0253 H   0  0  0  0  0  0
  -28.0745  -31.8430   26.5362 H   0  0  0  0  0  0
  -28.2629  -38.0079   24.7543 H   0  0  0  0  0  0
  -28.1074  -36.2616   24.6281 H   0  0  0  0  0  0
  -27.2301  -37.1434   25.8863 H   0  0  0  0  0  0
  -20.9426  -29.8779   21.6738 H   0  0  0  0  0  0
  -26.0235  -38.2886   24.1355 H   0  0  0  0  0  0
  -25.3241  -20.5283   22.7300 H   0  0  0  0  0  0
  -28.5494  -18.4495   18.7680 H   0  0  0  0  0  0
  -27.6476  -17.3747   19.9156 H   0  0  0  0  0  0
  -25.9401  -25.2326   21.3430 H   0  0  0  0  0  0
  -27.2098  -24.6835   22.3903 H   0  0  0  0  0  0
  -29.2787  -18.3358   21.9395 H   0  0  0  0  0  0
  -26.8251  -23.7612   19.5522 H   0  0  0  0  0  0
  -30.6530  -17.5185   19.4474 H   0  0  0  0  0  0
  -26.0268  -18.3242   23.1234 H   0  0  0  0  0  0
  -27.3564  -17.5248   22.3252 H   0  0  0  0  0  0
  -25.8855  -17.8798   21.4333 H   0  0  0  0  0  0
  -26.3560  -23.3795   24.1469 H   0  0  0  0  0  0
  -24.8223  -22.5305   23.9766 H   0  0  0  0  0  0
  -24.8860  -24.2805   23.8128 H   0  0  0  0  0  0
  -24.4770  -23.1427   20.2305 H   0  0  0  0  0  0
  -23.7383  -24.0834   21.5109 H   0  0  0  0  0  0
  -23.7215  -22.3341   21.5957 H   0  0  0  0  0  0
  -29.3550  -24.7396   20.8518 H   0  0  0  0  0  0
  -28.9984  -24.7178   19.1753 H   0  0  0  0  0  0
  -28.7717  -15.5967   20.8425 H   0  0  0  0  0  0
  1 25  1  0  0  0
  1 30  2  0  0  0
  1 87  1  0  0  0
  2  3  1  0  0  0
  2 25  1  0  0  0
  2 88  1  0  0  0
  2 89  1  0  0  0
  3  4  1  0  0  0
  3 90  1  0  0  0
  3 91  1  0  0  0
  4  5  1  0  0  0
  4 92  1  0  0  0
  4 93  1  0  0  0
  5  6  1  0  0  0
  5 26  1  0  0  0
  5 94  1  0  0  0
  6 25  1  0  0  0
  6 95  1  0  0  0
  6 96  1  0  0  0
  7  8  2  0  0  0
  7 26  1  0  0  0
  7 29  1  0  0  0
  8  9  1  0  0  0
  8 22  1  0  0  0
  9 10  1  0  0  0
  9 27  2  0  0  0
 10 11  2  0  0  0
 10 15  1  0  0  0
 11 12  1  0  0  0
 11 97  1  0  0  0
 12 13  2  0  0  0
 12 98  1  0  0  0
 13 14  1  0  0  0
 13 31  1  0  0  0
 14 15  2  0  0  0
 14 99  1  0  0  0
 15100  1  0  0  0
 16 17  2  0  0  0
 16 21  1  0  0  0
 16 31  1  0  0  0
 17 18  1  0  0  0
 17101  1  0  0  0
 18 19  2  0  0  0
 18102  1  0  0  0
 19 20  1  0  0  0
 19 24  1  0  0  0
 20 21  2  0  0  0
 20103  1  0  0  0
 21 23  1  0  0  0
 22 28  1  0  0  0
 22 32  2  0  0  0
 26 27  1  0  0  0
 28104  1  0  0  0
 28105  1  0  0  0
 29106  1  0  0  0
 29107  1  0  0  0
 33 34  1  0  0  0
 33 66  1  0  0  0
 33 70  2  0  0  0
 34 36  1  0  0  0
 34 59  1  0  0  0
 34108  1  0  0  0
 35 44  2  0  0  0
 35 45  1  0  0  0
 35 68  1  0  0  0
 36 56  1  0  0  0
 36109  1  0  0  0
 37 39  1  0  0  0
 37 47  1  0  0  0
 37 66  1  0  0  0
 37110  1  0  0  0
 38 43  2  0  0  0
 38 46  1  0  0  0
 38 47  1  0  0  0
 39 64  1  0  0  0
 39 67  2  0  0  0
 40 52  1  0  0  0
 40 53  2  0  0  0
 40 58  1  0  0  0
 41111  1  0  0  0
 41112  1  0  0  0
 41113  1  0  0  0
 41 48  1  0  0  0
 42 43  1  0  0  0
 42 66  1  0  0  0
 42114  1  0  0  0
 42115  1  0  0  0
 43 44  1  0  0  0
 44116  1  0  0  0
 45 46  2  0  0  0
 45117  1  0  0  0
 46118  1  0  0  0
 47119  1  0  0  0
 47120  1  0  0  0
 48 56  1  0  0  0
 48 65  1  0  0  0
 48121  1  0  0  0
 49 50  1  0  0  0
 49 53  1  0  0  0
 49 64  1  0  0  0
 49122  1  0  0  0
 50 51  1  0  0  0
 50123  1  0  0  0
 50124  1  0  0  0
 51 52  1  0  0  0
 51125  1  0  0  0
 51126  1  0  0  0
 52127  1  0  0  0
 52128  1  0  0  0
 53 54  1  0  0  0
 54 55  2  0  0  0
 54129  1  0  0  0
 55 57  1  0  0  0
 55130  1  0  0  0
 56 69  2  0  0  0
 57 58  2  0  0  0
 57131  1  0  0  0
 58132  1  0  0  0
 59 60  1  0  0  0
 59 61  1  0  0  0
 59 62  1  0  0  0
 60133  1  0  0  0
 60134  1  0  0  0
 60135  1  0  0  0
 61136  1  0  0  0
 61137  1  0  0  0
 61138  1  0  0  0
 62139  1  0  0  0
 62140  1  0  0  0
 62141  1  0  0  0
 63 65  1  0  0  0
 63142  1  0  0  0
 63143  1  0  0  0
 63144  1  0  0  0
 64145  1  0  0  0
 65146  1  0  0  0
 68 85  1  0  0  0
 71 72  2  0  0  0
 71 73  1  0  0  0
 71147  1  0  0  0
 72 74  1  0  0  0
 72 81  1  0  0  0
 73 75  2  0  0  0
 73 82  1  0  0  0
 74 79  1  0  0  0
 74 86  2  0  0  0
 75 86  1  0  0  0
 75 78  1  0  0  0
 76 78  1  0  0  0
 76 80  1  0  0  0
 76148  1  0  0  0
 76149  1  0  0  0
 77 79  1  0  0  0
 77 81  1  0  0  0
 77150  1  0  0  0
 77151  1  0  0  0
 78 80  1  0  0  0
 78152  1  0  0  0
 79 85  1  0  0  0
 79153  1  0  0  0
 80 87  1  0  0  0
 80154  1  0  0  0
 81 83  1  0  0  0
 81 84  1  0  0  0
 82155  1  0  0  0
 82156  1  0  0  0
 82157  1  0  0  0
 83158  1  0  0  0
 83159  1  0  0  0
 83160  1  0  0  0
 84161  1  0  0  0
 84162  1  0  0  0
 84163  1  0  0  0
 85164  1  0  0  0
 85165  1  0  0  0
 87166  1  0  0  0
M  ISO  4   1 100  68 101  85 101  87 100
M  END
> <chiral flag>
0

> <version>
0

> <s_m_source_file>
/data/baiqing/PycharmProjects/Reinvent-master-3.2/result/LINK_invent/BTK/process_docking_weight1_custom_sum_contain_oxygen_bond_distance_aromatic_linkinvent_7_9_3/rearranged_h_0175.sdf

> <i_m_source_file_index>
93

> <r_mmod_Potential_Energy-OPLS-2005>
412.214721679688

> <r_mmod_Stretch_Energy-OPLS-2005>
172.705947875977

> <r_mmod_Bend_Energy-OPLS-2005>
449.815490722656

> <r_mmod_Torsional_Energy-OPLS-2005>
269.2099609375

> <r_mmod_Improper_Torsional_Energy-OPLS-2005>
8.91742706298828

> <r_mmod_Van_der_Waal_Energy-OPLS-2005>
133.605117797852

> <r_mmod_Electrostatic_Energy-OPLS-2005>
-488.196990966797

> <r_mmod_Solvation_Energy-OPLS-2005>
-226.273986816406

> <b_mmod_Minimization_Converged-OPLS-2005>
0

> <r_mmod_RMS_Derivative-OPLS-2005>
4.48547649383545

$$$$
93
                    3D
 Structure written by MMmdl.
175185  0  0  1  0            999 V2000
  -30.7164  -14.4357   20.5769 C   0  0  0  0  0  0
  -30.4183  -12.2844   19.4158 C   0  0  0  0  0  0
  -29.4911  -12.4941   18.2004 C   0  0  0  0  0  0
  -28.0094  -12.3672   18.6117 C   0  0  0  0  0  0
  -27.6614  -13.2005   19.8754 C   0  0  2  0  0  0
  -28.7017  -12.9432   20.9859 C   0  0  0  0  0  0
  -25.2597  -13.8153   20.5685 C   0  0  0  0  0  0
  -24.1827  -13.0435   20.9171 C   0  0  0  0  0  0
  -24.6376  -11.6900   20.8728 C   0  0  0  0  0  0
  -23.9046  -10.4292   21.0406 C   0  0  0  0  0  0
  -24.3605   -9.4213   21.9190 C   0  0  0  0  0  0
  -23.6284   -8.2243   22.0755 C   0  0  0  0  0  0
  -22.4269   -8.0282   21.3542 C   0  0  0  0  0  0
  -21.9901   -9.0257   20.4646 C   0  0  0  0  0  0
  -22.7226  -10.2135   20.3056 C   0  0  0  0  0  0
  -21.6852   -6.0736   22.5274 C   0  0  0  0  0  0
  -21.4015   -6.5641   23.8207 C   0  0  0  0  0  0
  -21.3656   -5.6792   24.9171 C   0  0  0  0  0  0
  -21.6044   -4.3056   24.7217 C   0  0  0  0  0  0
  -21.8819   -3.8150   23.4343 C   0  0  0  0  0  0
  -21.9194   -4.6963   22.3398 C   0  0  0  0  0  0
  -22.7868  -13.5247   21.1841 C   0  0  0  0  0  0
  -22.1663   -4.2150   21.0973 F   0  0  0  0  0  0
  -21.5626   -3.4540   25.7733 F   0  0  0  0  0  0
  -30.0307  -13.2663   20.4404 N   0  0  0  0  0  0
  -26.3014  -12.9303   20.3362 N   0  0  0  0  0  0
  -25.9291  -11.6470   20.5753 N   0  0  0  0  0  0
  -22.0504  -12.8237   22.0400 N   0  0  0  0  0  0
  -25.4362  -15.1864   20.4115 N   0  0  0  0  0  0
  -31.8494  -14.5857   20.1029 O   0  0  0  0  0  0
  -21.6636   -6.8876   21.4236 O   0  0  0  0  0  0
  -22.3553  -14.5556   20.6699 O   0  0  0  0  0  0
  -24.6140  -31.8712   23.2084 C   0  0  0  0  0  0
  -25.9018  -32.4846   23.8416 C   0  0  1  0  0  0
  -27.2265  -27.4417   20.0899 C   0  0  0  0  0  0
  -25.5865  -33.8636   24.2349 N   0  0  0  0  0  0
  -23.4005  -30.4963   21.5495 C   0  0  2  0  0  0
  -24.8402  -28.9617   20.1121 C   0  0  0  0  0  0
  -22.7412  -29.4678   22.4970 C   0  0  0  0  0  0
  -18.0280  -28.1382   22.8473 C   0  0  0  0  0  0
  -24.1480  -36.7319   23.2647 C   0  0  0  0  0  0
  -25.9272  -30.8426   21.3543 C   0  0  0  0  0  0
  -26.0001  -29.4755   20.7037 C   0  0  0  0  0  0
  -27.1941  -28.7232   20.6845 C   0  0  0  0  0  0
  -26.0450  -26.9347   19.5011 C   0  0  0  0  0  0
  -24.8558  -27.6906   19.5114 C   0  0  0  0  0  0
  -23.6046  -29.8313   20.1623 C   0  0  0  0  0  0
  -25.4098  -36.3129   24.0360 C   0  0  1  0  0  0
  -20.5873  -28.3650   23.1311 C   0  0  2  0  0  0
  -20.6749  -26.9384   22.5403 C   0  0  0  0  0  0
  -19.5737  -26.6385   21.5189 C   0  0  0  0  0  0
  -18.1918  -26.7929   22.1609 C   0  0  0  0  0  0
  -19.1533  -28.8826   23.2891 C   0  0  0  0  0  0
  -18.9465  -30.1434   23.8901 C   0  0  0  0  0  0
  -17.6465  -30.6574   24.0560 C   0  0  0  0  0  0
  -25.9028  -34.9487   23.5161 C   0  0  0  0  0  0
  -16.5352  -29.9089   23.6309 C   0  0  0  0  0  0
  -16.7270  -28.6511   23.0322 C   0  0  0  0  0  0
  -26.4423  -31.6623   25.0748 C   0  0  0  0  0  0
  -25.3675  -31.3725   26.1494 C   0  0  0  0  0  0
  -27.0248  -30.3088   24.6067 C   0  0  0  0  0  0
  -27.6014  -32.4339   25.7490 C   0  0  0  0  0  0
  -27.5588  -37.1817   24.8479 C   0  0  0  0  0  0
  -21.4142  -29.3036   22.3723 N   0  0  0  0  0  0
  -26.4298  -37.3809   23.9426 N   0  0  0  0  0  0
  -24.6665  -31.0865   22.0957 N   0  0  0  0  0  0
  -23.4195  -28.8192   23.2978 O   0  0  0  0  0  0
  -28.4217  -26.7541   20.0969 O   0  0  0  0  0  0
  -26.5607  -34.8936   22.4734 O   0  0  0  0  0  0
  -23.5326  -32.1437   23.7488 O   0  0  0  0  0  0
  -32.5879  -20.6436   21.2744 C   0  0  0  0  0  0
  -29.8108  -20.4228   21.1271 C   0  0  0  0  0  0
  -31.8023  -21.8109   21.3202 C   0  0  0  0  0  0
  -30.5892  -19.2417   21.1750 C   0  0  0  0  0  0
  -32.0071  -19.3606   21.2288 C   0  0  0  0  0  0
  -30.3931  -21.7065   21.2413 C   0  0  0  0  0  0
  -33.7020  -23.3447   22.3302 C   0  0  0  0  0  0
  -32.3716  -23.9161   22.7557 C   0  0  0  0  0  0
  -29.9016  -17.2317   22.6280 C   0  0  0  0  0  0
  -29.5738  -15.7707   22.3184 C   0  0  0  0  0  0
  -30.1696  -16.8132   20.2428 C   0  0  0  0  0  0
  -32.4807  -23.1458   21.4597 C   0  0  0  0  0  0
  -29.8322  -17.9090   21.2639 C   0  0  2  0  0  0
  -32.9706  -18.1816   21.2531 C   0  0  0  0  0  0
  -27.3866  -22.3899   22.2444 C   0  0  0  0  0  0
  -27.8311  -24.5375   21.0316 C   0  0  0  0  0  0
  -28.4482  -25.3407   19.8612 C   0  0  0  0  0  0
  -28.2012  -23.0312   21.1028 C   0  0  1  0  0  0
  -29.9829  -15.5201   20.9295 N   0  0  0  0  0  0
  -29.6390  -22.8922   21.3234 N   0  0  0  0  0  0
  -31.4643  -12.3721   19.1160 H   0  0  0  0  0  0
  -30.3117  -11.2719   19.8076 H   0  0  0  0  0  0
  -29.7225  -11.7641   17.4238 H   0  0  0  0  0  0
  -29.6689  -13.4768   17.7603 H   0  0  0  0  0  0
  -27.8108  -11.3112   18.8043 H   0  0  0  0  0  0
  -27.3607  -12.6494   17.7819 H   0  0  0  0  0  0
  -27.7151  -14.2526   19.5958 H   0  0  0  0  0  0
  -28.6741  -11.8909   21.2722 H   0  0  0  0  0  0
  -28.4602  -13.4821   21.8978 H   0  0  0  0  0  0
  -25.2744   -9.5686   22.4776 H   0  0  0  0  0  0
  -23.9991   -7.4627   22.7469 H   0  0  0  0  0  0
  -21.0837   -8.8776   19.8949 H   0  0  0  0  0  0
  -22.3688  -10.9678   19.6169 H   0  0  0  0  0  0
  -21.2011   -7.6150   23.9708 H   0  0  0  0  0  0
  -21.1479   -6.0525   25.9069 H   0  0  0  0  0  0
  -22.0605   -2.7612   23.2840 H   0  0  0  0  0  0
  -22.4105  -11.9882   22.4769 H   0  0  0  0  0  0
  -21.1130  -13.1275   22.2606 H   0  0  0  0  0  0
  -24.6810  -15.8527   20.5330 H   0  0  0  0  0  0
  -26.3039  -15.6208   20.1216 H   0  0  0  0  0  0
  -26.7104  -32.5549   23.1206 H   0  0  0  0  0  0
  -24.9986  -33.9800   25.0473 H   0  0  0  0  0  0
  -22.6866  -31.3105   21.4119 H   0  0  0  0  0  0
  -23.3740  -35.9660   23.3326 H   0  0  0  0  0  0
  -24.3573  -36.8905   22.2058 H   0  0  0  0  0  0
  -23.7212  -37.6526   23.6635 H   0  0  0  0  0  0
  -26.0353  -31.6083   20.5840 H   0  0  0  0  0  0
  -26.8179  -30.8996   21.9678 H   0  0  0  0  0  0
  -28.0939  -29.1212   21.1307 H   0  0  0  0  0  0
  -26.0196  -25.9640   19.0267 H   0  0  0  0  0  0
  -23.9625  -27.2866   19.0560 H   0  0  0  0  0  0
  -23.7080  -30.6072   19.4026 H   0  0  0  0  0  0
  -22.7283  -29.2528   19.8673 H   0  0  0  0  0  0
  -25.1257  -36.2029   25.0855 H   0  0  0  0  0  0
  -20.9969  -28.3206   24.1435 H   0  0  0  0  0  0
  -20.5619  -26.2254   23.3586 H   0  0  0  0  0  0
  -21.6618  -26.7424   22.1207 H   0  0  0  0  0  0
  -19.6897  -25.6300   21.1207 H   0  0  0  0  0  0
  -19.6683  -27.3188   20.6707 H   0  0  0  0  0  0
  -17.4179  -26.6668   21.4024 H   0  0  0  0  0  0
  -18.0339  -26.0087   22.9026 H   0  0  0  0  0  0
  -19.7944  -30.7242   24.2277 H   0  0  0  0  0  0
  -17.5030  -31.6255   24.5161 H   0  0  0  0  0  0
  -15.5353  -30.2994   23.7636 H   0  0  0  0  0  0
  -15.8677  -28.0843   22.7019 H   0  0  0  0  0  0
  -24.5877  -30.7029   25.7840 H   0  0  0  0  0  0
  -24.8804  -32.2866   26.4908 H   0  0  0  0  0  0
  -25.8026  -30.8945   27.0276 H   0  0  0  0  0  0
  -26.2779  -29.6884   24.1100 H   0  0  0  0  0  0
  -27.4032  -29.7295   25.4490 H   0  0  0  0  0  0
  -27.8602  -30.4450   23.9194 H   0  0  0  0  0  0
  -27.2662  -33.3667   26.2035 H   0  0  0  0  0  0
  -28.3819  -32.6852   25.0295 H   0  0  0  0  0  0
  -28.0668  -31.8471   26.5415 H   0  0  0  0  0  0
  -28.2614  -38.0108   24.7519 H   0  0  0  0  0  0
  -28.1074  -36.2638   24.6309 H   0  0  0  0  0  0
  -27.2314  -37.1468   25.8886 H   0  0  0  0  0  0
  -20.9284  -29.8815   21.7012 H   0  0  0  0  0  0
  -26.0205  -38.2908   24.1397 H   0  0  0  0  0  0
  -33.6652  -20.7344   21.3133 H   0  0  0  0  0  0
  -28.7410  -20.3218   21.0470 H   0  0  0  0  0  0
  -34.0848  -22.5003   22.9000 H   0  0  0  0  0  0
  -34.4523  -24.0513   21.9821 H   0  0  0  0  0  0
  -32.2551  -24.9953   22.6953 H   0  0  0  0  0  0
  -31.8433  -23.4310   23.5763 H   0  0  0  0  0  0
  -30.8982  -17.2967   23.0646 H   0  0  0  0  0  0
  -29.2138  -17.6815   23.3461 H   0  0  0  0  0  0
  -28.4946  -15.6327   22.3906 H   0  0  0  0  0  0
  -30.0484  -15.0951   23.0338 H   0  0  0  0  0  0
  -31.1776  -16.9190   19.8483 H   0  0  0  0  0  0
  -29.5113  -16.8782   19.3755 H   0  0  0  0  0  0
  -32.4279  -23.7102   20.5302 H   0  0  0  0  0  0
  -28.7747  -18.1278   21.1037 H   0  0  0  0  0  0
  -33.8157  -18.4012   21.9071 H   0  0  0  0  0  0
  -33.3695  -18.0127   20.2527 H   0  0  0  0  0  0
  -32.5358  -17.2498   21.6070 H   0  0  0  0  0  0
  -26.3204  -22.3894   22.0128 H   0  0  0  0  0  0
  -27.5208  -22.9482   23.1690 H   0  0  0  0  0  0
  -27.6543  -21.3606   22.4695 H   0  0  0  0  0  0
  -26.7453  -24.6261   20.9828 H   0  0  0  0  0  0
  -28.1161  -25.0213   21.9682 H   0  0  0  0  0  0
  -28.0095  -25.0684   18.9022 H   0  0  0  0  0  0
  -29.5041  -25.0877   19.7716 H   0  0  0  0  0  0
  -27.9396  -22.5497   20.1588 H   0  0  0  0  0  0
  -30.1584  -23.7552   21.4426 H   0  0  0  0  0  0
  1 25  1  0  0  0
  1 30  2  0  0  0
  1 89  1  0  0  0
  2  3  1  0  0  0
  2 25  1  0  0  0
  2 91  1  0  0  0
  2 92  1  0  0  0
  3  4  1  0  0  0
  3 93  1  0  0  0
  3 94  1  0  0  0
  4  5  1  0  0  0
  4 95  1  0  0  0
  4 96  1  0  0  0
  5  6  1  0  0  0
  5 26  1  0  0  0
  5 97  1  0  0  0
  6 25  1  0  0  0
  6 98  1  0  0  0
  6 99  1  0  0  0
  7  8  2  0  0  0
  7 26  1  0  0  0
  7 29  1  0  0  0
  8  9  1  0  0  0
  8 22  1  0  0  0
  9 10  1  0  0  0
  9 27  2  0  0  0
 10 11  2  0  0  0
 10 15  1  0  0  0
 11 12  1  0  0  0
 11100  1  0  0  0
 12 13  2  0  0  0
 12101  1  0  0  0
 13 14  1  0  0  0
 13 31  1  0  0  0
 14 15  2  0  0  0
 14102  1  0  0  0
 15103  1  0  0  0
 16 17  2  0  0  0
 16 21  1  0  0  0
 16 31  1  0  0  0
 17 18  1  0  0  0
 17104  1  0  0  0
 18 19  2  0  0  0
 18105  1  0  0  0
 19 20  1  0  0  0
 19 24  1  0  0  0
 20 21  2  0  0  0
 20106  1  0  0  0
 21 23  1  0  0  0
 22 28  1  0  0  0
 22 32  2  0  0  0
 26 27  1  0  0  0
 28107  1  0  0  0
 28108  1  0  0  0
 29109  1  0  0  0
 29110  1  0  0  0
 33 34  1  0  0  0
 33 66  1  0  0  0
 33 70  2  0  0  0
 34 36  1  0  0  0
 34 59  1  0  0  0
 34111  1  0  0  0
 35 44  2  0  0  0
 35 45  1  0  0  0
 35 68  1  0  0  0
 36 56  1  0  0  0
 36112  1  0  0  0
 37 39  1  0  0  0
 37 47  1  0  0  0
 37 66  1  0  0  0
 37113  1  0  0  0
 38 43  2  0  0  0
 38 46  1  0  0  0
 38 47  1  0  0  0
 39 64  1  0  0  0
 39 67  2  0  0  0
 40 52  1  0  0  0
 40 53  2  0  0  0
 40 58  1  0  0  0
 41114  1  0  0  0
 41115  1  0  0  0
 41116  1  0  0  0
 41 48  1  0  0  0
 42 43  1  0  0  0
 42 66  1  0  0  0
 42117  1  0  0  0
 42118  1  0  0  0
 43 44  1  0  0  0
 44119  1  0  0  0
 45 46  2  0  0  0
 45120  1  0  0  0
 46121  1  0  0  0
 47122  1  0  0  0
 47123  1  0  0  0
 48 56  1  0  0  0
 48 65  1  0  0  0
 48124  1  0  0  0
 49 50  1  0  0  0
 49 53  1  0  0  0
 49 64  1  0  0  0
 49125  1  0  0  0
 50 51  1  0  0  0
 50126  1  0  0  0
 50127  1  0  0  0
 51 52  1  0  0  0
 51128  1  0  0  0
 51129  1  0  0  0
 52130  1  0  0  0
 52131  1  0  0  0
 53 54  1  0  0  0
 54 55  2  0  0  0
 54132  1  0  0  0
 55 57  1  0  0  0
 55133  1  0  0  0
 56 69  2  0  0  0
 57 58  2  0  0  0
 57134  1  0  0  0
 58135  1  0  0  0
 59 60  1  0  0  0
 59 61  1  0  0  0
 59 62  1  0  0  0
 60136  1  0  0  0
 60137  1  0  0  0
 60138  1  0  0  0
 61139  1  0  0  0
 61140  1  0  0  0
 61141  1  0  0  0
 62142  1  0  0  0
 62143  1  0  0  0
 62144  1  0  0  0
 63 65  1  0  0  0
 63145  1  0  0  0
 63146  1  0  0  0
 63147  1  0  0  0
 64148  1  0  0  0
 65149  1  0  0  0
 68 87  1  0  0  0
 71 73  2  0  0  0
 71 75  1  0  0  0
 71150  1  0  0  0
 72 74  1  0  0  0
 72 76  2  0  0  0
 72151  1  0  0  0
 73 76  1  0  0  0
 73 82  1  0  0  0
 74 75  2  0  0  0
 74 83  1  0  0  0
 75 84  1  0  0  0
 76 90  1  0  0  0
 77 78  1  0  0  0
 77 82  1  0  0  0
 77152  1  0  0  0
 77153  1  0  0  0
 78 82  1  0  0  0
 78154  1  0  0  0
 78155  1  0  0  0
 79 80  1  0  0  0
 79 83  1  0  0  0
 79156  1  0  0  0
 79157  1  0  0  0
 80 89  1  0  0  0
 80158  1  0  0  0
 80159  1  0  0  0
 81 83  1  0  0  0
 81 89  1  0  0  0
 81160  1  0  0  0
 81161  1  0  0  0
 82162  1  0  0  0
 83163  1  0  0  0
 84164  1  0  0  0
 84165  1  0  0  0
 84166  1  0  0  0
 85167  1  0  0  0
 85168  1  0  0  0
 85169  1  0  0  0
 85 88  1  0  0  0
 86 87  1  0  0  0
 86 88  1  0  0  0
 86170  1  0  0  0
 86171  1  0  0  0
 87172  1  0  0  0
 87173  1  0  0  0
 88 90  1  0  0  0
 88174  1  0  0  0
 90175  1  0  0  0
M  ISO  4   1 100  68 101  87 101  89 100
M  END
> <chiral flag>
0

> <version>
0

> <s_m_source_file>
/data/baiqing/PycharmProjects/Reinvent-master-3.2/result/LINK_invent/BTK/process_docking_weight1_custom_sum_contain_oxygen_bond_distance_aromatic_linkinvent_7_9_3/rearranged_h_0175.sdf

> <i_m_source_file_index>
94

> <r_mmod_Potential_Energy-OPLS-2005>
205.953216552734

> <r_mmod_Stretch_Energy-OPLS-2005>
39.0759506225586

> <r_mmod_Bend_Energy-OPLS-2005>
154.01383972168

> <r_mmod_Torsional_Energy-OPLS-2005>
346.804412841797

> <r_mmod_Improper_Torsional_Energy-OPLS-2005>
12.0973463058472

> <r_mmod_Van_der_Waal_Energy-OPLS-2005>
157.795822143555

> <r_mmod_Electrostatic_Energy-OPLS-2005>
-329.139739990234

> <r_mmod_Solvation_Energy-OPLS-2005>
-186.541839599609

> <b_mmod_Minimization_Converged-OPLS-2005>
0

> <r_mmod_RMS_Derivative-OPLS-2005>
2.7868971824646

$$$$
94
                    3D
 Structure written by MMmdl.
167178  0  0  1  0            999 V2000
  -29.5804  -17.4758   20.2582 C   0  0  0  0  0  0
  -30.1403  -14.4886   19.5043 C   0  0  0  0  0  0
  -29.5625  -13.3419   18.4963 C   0  0  0  0  0  0
  -28.3451  -12.5839   19.0183 C   0  0  0  0  0  0
  -27.5591  -13.6070   19.8384 C   0  0  2  0  0  0
  -28.4014  -14.6120   20.8030 C   0  0  0  0  0  0
  -25.1916  -13.8816   20.6095 C   0  0  0  0  0  0
  -24.1623  -13.0532   20.9401 C   0  0  0  0  0  0
  -24.6752  -11.7197   20.8671 C   0  0  0  0  0  0
  -23.9479  -10.4395   21.0240 C   0  0  0  0  0  0
  -24.3876   -9.4265   21.9070 C   0  0  0  0  0  0
  -23.6427   -8.2352   22.0736 C   0  0  0  0  0  0
  -22.4397   -8.0373   21.3548 C   0  0  0  0  0  0
  -22.0124   -9.0362   20.4622 C   0  0  0  0  0  0
  -22.7590  -10.2181   20.2937 C   0  0  0  0  0  0
  -21.6888   -6.0815   22.5298 C   0  0  0  0  0  0
  -21.4040   -6.5676   23.8247 C   0  0  0  0  0  0
  -21.3689   -5.6806   24.9192 C   0  0  0  0  0  0
  -21.6061   -4.3075   24.7222 C   0  0  0  0  0  0
  -21.8798   -3.8188   23.4329 C   0  0  0  0  0  0
  -21.9197   -4.7032   22.3398 C   0  0  0  0  0  0
  -22.7522  -13.4971   21.1979 C   0  0  0  0  0  0
  -22.1641   -4.2197   21.0976 F   0  0  0  0  0  0
  -21.5640   -3.4544   25.7736 F   0  0  0  0  0  0
  -29.2391  -15.7845   20.0819 N   0  0  0  0  0  0
  -26.2878  -13.0865   20.3759 N   0  0  0  0  0  0
  -25.9840  -11.7565   20.5582 N   0  0  0  0  0  0
  -22.0255  -12.7861   22.0531 N   0  0  0  0  0  0
  -25.2792  -15.2603   20.4442 N   0  0  0  0  0  0
  -30.8192  -17.0747   20.3372 O   0  0  0  0  0  0
  -21.6697   -6.8989   21.4277 O   0  0  0  0  0  0
  -22.3054  -14.5227   20.6831 O   0  0  0  0  0  0
  -24.8021  -31.6282   23.0587 C   0  0  0  0  0  0
  -25.9910  -32.3642   23.7594 C   0  0  1  0  0  0
  -27.2646  -25.3454   20.2192 C   0  0  0  0  0  0
  -25.5915  -33.7558   24.1212 N   0  0  0  0  0  0
  -23.6887  -30.1678   21.4523 C   0  0  2  0  0  0
  -25.1712  -28.2575   20.1610 C   0  0  0  0  0  0
  -22.8280  -29.3351   22.4500 C   0  0  0  0  0  0
  -18.0409  -28.1484   22.8466 C   0  0  0  0  0  0
  -24.1478  -36.6792   23.2713 C   0  0  0  0  0  0
  -26.2834  -29.8729   21.5838 C   0  0  0  0  0  0
  -26.3285  -28.2965   20.9367 C   0  0  0  0  0  0
  -27.2563  -26.9131   20.9605 C   0  0  0  0  0  0
  -26.2774  -26.0551   19.2813 C   0  0  0  0  0  0
  -25.2719  -27.1530   19.2955 C   0  0  0  0  0  0
  -24.0182  -29.3555   20.1403 C   0  0  0  0  0  0
  -25.4165  -36.2412   24.0231 C   0  0  1  0  0  0
  -20.6081  -28.3849   23.1005 C   0  0  2  0  0  0
  -20.6630  -26.9319   22.5669 C   0  0  0  0  0  0
  -19.5778  -26.6373   21.5314 C   0  0  0  0  0  0
  -18.1945  -26.8050   22.1578 C   0  0  0  0  0  0
  -19.1706  -28.9044   23.2684 C   0  0  0  0  0  0
  -18.9588  -30.1557   23.8802 C   0  0  0  0  0  0
  -17.6579  -30.6663   24.0573 C   0  0  0  0  0  0
  -25.9221  -34.8833   23.4678 C   0  0  0  0  0  0
  -16.5452  -29.9133   23.6430 C   0  0  0  0  0  0
  -16.7387  -28.6504   23.0462 C   0  0  0  0  0  0
  -26.4732  -31.6325   25.0751 C   0  0  0  0  0  0
  -25.3459  -31.3956   26.1100 C   0  0  0  0  0  0
  -27.0926  -30.2572   24.7667 C   0  0  0  0  0  0
  -27.5956  -32.4552   25.7485 C   0  0  0  0  0  0
  -27.5510  -37.1524   24.8483 C   0  0  0  0  0  0
  -21.4846  -29.2744   22.3120 N   0  0  0  0  0  0
  -26.4179  -37.3309   23.9452 N   0  0  0  0  0  0
  -24.9692  -30.6228   22.0788 N   0  0  0  0  0  0
  -23.4070  -28.7328   23.3534 O   0  0  0  0  0  0
  -27.7265  -23.3025   20.2894 O   0  0  0  0  0  0
  -26.6081  -34.8681   22.4442 O   0  0  0  0  0  0
  -23.6765  -32.0042   23.4588 O   0  0  0  0  0  0
  -24.5383  -21.2469   21.1643 C   0  0  0  0  0  0
  -26.4719  -20.2931   21.9879 C   0  0  0  0  0  0
  -25.1392  -20.6884   22.3013 C   0  0  0  0  0  0
  -24.7866  -20.3240   20.1429 C   0  0  0  0  0  0
  -26.9997  -21.0241   20.7361 C   0  0  0  0  0  0
  -25.8316  -23.7159   21.5254 C   0  0  0  0  0  0
  -26.2355  -23.3779   18.1878 C   0  0  0  0  0  0
  -28.9931  -21.0595   21.6669 C   0  0  0  0  0  0
  -28.1893  -20.7258   18.8394 C   0  0  0  0  0  0
  -25.3847  -22.5190   20.7971 C   0  0  1  0  0  0
  -25.5069  -23.5036   19.6412 C   0  0  2  0  0  0
  -27.0155  -22.6555   22.2546 C   0  0  2  0  0  0
  -26.2390  -22.1886   18.9468 C   0  0  2  0  0  0
  -23.7515  -19.4858   19.4222 C   0  0  0  0  0  0
  -27.4064  -19.3942   24.1977 C   0  0  0  0  0  0
  -27.0849  -19.0974   22.7328 C   0  0  0  0  0  0
  -26.1141  -20.0513   20.0509 N   0  0  0  0  0  0
  -28.9542  -19.4086   20.2705 N   0  0  0  0  0  0
  -24.2944  -20.4000   23.7826 Cl  0  0  0  0  0  0
  -30.9466  -14.9584   18.9340 H   0  0  0  0  0  0
  -30.7005  -14.0293   20.3209 H   0  0  0  0  0  0
  -30.3544  -12.6468   18.2268 H   0  0  0  0  0  0
  -29.2720  -13.8369   17.5678 H   0  0  0  0  0  0
  -28.6722  -11.7757   19.6736 H   0  0  0  0  0  0
  -27.7547  -12.1400   18.2147 H   0  0  0  0  0  0
  -27.2094  -14.2710   19.0444 H   0  0  0  0  0  0
  -28.9717  -14.0410   21.5388 H   0  0  0  0  0  0
  -27.6938  -15.1386   21.4402 H   0  0  0  0  0  0
  -25.3010   -9.5689   22.4658 H   0  0  0  0  0  0
  -24.0102   -7.4748   22.7476 H   0  0  0  0  0  0
  -21.1064   -8.8927   19.8894 H   0  0  0  0  0  0
  -22.4080  -10.9681   19.5991 H   0  0  0  0  0  0
  -21.2009   -7.6166   23.9771 H   0  0  0  0  0  0
  -21.1539   -6.0518   25.9112 H   0  0  0  0  0  0
  -22.0538   -2.7630   23.2825 H   0  0  0  0  0  0
  -22.3999  -11.9632   22.5047 H   0  0  0  0  0  0
  -21.0769  -13.0651   22.2655 H   0  0  0  0  0  0
  -24.4637  -15.8530   20.5470 H   0  0  0  0  0  0
  -26.1071  -15.7637   20.1506 H   0  0  0  0  0  0
  -26.8188  -32.3955   23.0505 H   0  0  0  0  0  0
  -24.9684  -33.8393   24.9109 H   0  0  0  0  0  0
  -23.1010  -31.0360   21.1544 H   0  0  0  0  0  0
  -23.3799  -35.9043   23.3144 H   0  0  0  0  0  0
  -24.3534  -36.8720   22.2179 H   0  0  0  0  0  0
  -23.7195  -37.5851   23.7016 H   0  0  0  0  0  0
  -26.6511  -30.5102   20.7820 H   0  0  0  0  0  0
  -27.0848  -29.9287   22.3007 H   0  0  0  0  0  0
  -28.0006  -26.9686   21.7381 H   0  0  0  0  0  0
  -26.0953  -25.6105   18.3271 H   0  0  0  0  0  0
  -24.5603  -27.1444   18.4822 H   0  0  0  0  0  0
  -24.2847  -30.0631   19.3539 H   0  0  0  0  0  0
  -23.1112  -28.8673   19.7792 H   0  0  0  0  0  0
  -25.1415  -36.0980   25.0706 H   0  0  0  0  0  0
  -21.0111  -28.3620   24.1142 H   0  0  0  0  0  0
  -20.4835  -26.2603   23.4102 H   0  0  0  0  0  0
  -21.6545  -26.6677   22.1919 H   0  0  0  0  0  0
  -19.6891  -25.6249   21.1381 H   0  0  0  0  0  0
  -19.6920  -27.3216   20.6905 H   0  0  0  0  0  0
  -17.4269  -26.6900   21.3898 H   0  0  0  0  0  0
  -18.0240  -26.0192   22.8977 H   0  0  0  0  0  0
  -19.8071  -30.7399   24.2111 H   0  0  0  0  0  0
  -17.5152  -31.6379   24.5102 H   0  0  0  0  0  0
  -15.5434  -30.2975   23.7784 H   0  0  0  0  0  0
  -15.8822  -28.0763   22.7242 H   0  0  0  0  0  0
  -24.5683  -30.7316   25.7270 H   0  0  0  0  0  0
  -24.8659  -32.3289   26.4050 H   0  0  0  0  0  0
  -25.7301  -30.9339   27.0201 H   0  0  0  0  0  0
  -26.3739  -29.5558   24.3390 H   0  0  0  0  0  0
  -27.4497  -29.7815   25.6820 H   0  0  0  0  0  0
  -27.9715  -30.3450   24.1270 H   0  0  0  0  0  0
  -27.2321  -33.4067   26.1362 H   0  0  0  0  0  0
  -28.3983  -32.6724   25.0427 H   0  0  0  0  0  0
  -28.0386  -31.9226   26.5903 H   0  0  0  0  0  0
  -28.2387  -37.9947   24.7533 H   0  0  0  0  0  0
  -28.1137  -36.2442   24.6247 H   0  0  0  0  0  0
  -27.2254  -37.1048   25.8894 H   0  0  0  0  0  0
  -21.0535  -29.7970   21.5632 H   0  0  0  0  0  0
  -25.9888  -38.2285   24.1478 H   0  0  0  0  0  0
  -24.9519  -23.9298   22.2152 H   0  0  0  0  0  0
  -26.0153  -24.7205   21.8963 H   0  0  0  0  0  0
  -27.2239  -23.7953   17.9963 H   0  0  0  0  0  0
  -25.5999  -23.3843   17.3055 H   0  0  0  0  0  0
  -29.3422  -20.6500   22.6167 H   0  0  0  0  0  0
  -29.8294  -21.6870   21.3603 H   0  0  0  0  0  0
  -28.0887  -20.1277   17.9336 H   0  0  0  0  0  0
  -29.0240  -21.3932   18.6206 H   0  0  0  0  0  0
  -24.2106  -22.6135   20.9338 H   0  0  0  0  0  0
  -24.5308  -23.9266   19.3324 H   0  0  0  0  0  0
  -26.7504  -22.5911   23.3122 H   0  0  0  0  0  0
  -22.7860  -19.9888   19.4156 H   0  0  0  0  0  0
  -23.6226  -18.5178   19.9093 H   0  0  0  0  0  0
  -24.0537  -19.3162   18.3873 H   0  0  0  0  0  0
  -28.2123  -18.7382   24.5310 H   0  0  0  0  0  0
  -26.5290  -19.2409   24.8270 H   0  0  0  0  0  0
  -27.7459  -20.4239   24.3219 H   0  0  0  0  0  0
  -28.0018  -18.7329   22.3004 H   0  0  0  0  0  0
  -26.4109  -18.2451   22.6313 H   0  0  0  0  0  0
  1 25  1  0  0  0
  1 30  2  0  0  0
  1 88  1  0  0  0
  2  3  1  0  0  0
  2 25  1  0  0  0
  2 90  1  0  0  0
  2 91  1  0  0  0
  3  4  1  0  0  0
  3 92  1  0  0  0
  3 93  1  0  0  0
  4  5  1  0  0  0
  4 94  1  0  0  0
  4 95  1  0  0  0
  5  6  1  0  0  0
  5 26  1  0  0  0
  5 96  1  0  0  0
  6 25  1  0  0  0
  6 97  1  0  0  0
  6 98  1  0  0  0
  7  8  2  0  0  0
  7 26  1  0  0  0
  7 29  1  0  0  0
  8  9  1  0  0  0
  8 22  1  0  0  0
  9 10  1  0  0  0
  9 27  2  0  0  0
 10 11  2  0  0  0
 10 15  1  0  0  0
 11 12  1  0  0  0
 11 99  1  0  0  0
 12 13  2  0  0  0
 12100  1  0  0  0
 13 14  1  0  0  0
 13 31  1  0  0  0
 14 15  2  0  0  0
 14101  1  0  0  0
 15102  1  0  0  0
 16 17  2  0  0  0
 16 21  1  0  0  0
 16 31  1  0  0  0
 17 18  1  0  0  0
 17103  1  0  0  0
 18 19  2  0  0  0
 18104  1  0  0  0
 19 20  1  0  0  0
 19 24  1  0  0  0
 20 21  2  0  0  0
 20105  1  0  0  0
 21 23  1  0  0  0
 22 28  1  0  0  0
 22 32  2  0  0  0
 26 27  1  0  0  0
 28106  1  0  0  0
 28107  1  0  0  0
 29108  1  0  0  0
 29109  1  0  0  0
 33 34  1  0  0  0
 33 66  1  0  0  0
 33 70  2  0  0  0
 34 36  1  0  0  0
 34 59  1  0  0  0
 34110  1  0  0  0
 35 44  2  0  0  0
 35 45  1  0  0  0
 35 68  1  0  0  0
 36 56  1  0  0  0
 36111  1  0  0  0
 37 39  1  0  0  0
 37 47  1  0  0  0
 37 66  1  0  0  0
 37112  1  0  0  0
 38 43  2  0  0  0
 38 46  1  0  0  0
 38 47  1  0  0  0
 39 64  1  0  0  0
 39 67  2  0  0  0
 40 52  1  0  0  0
 40 53  2  0  0  0
 40 58  1  0  0  0
 41113  1  0  0  0
 41114  1  0  0  0
 41115  1  0  0  0
 41 48  1  0  0  0
 42 43  1  0  0  0
 42 66  1  0  0  0
 42116  1  0  0  0
 42117  1  0  0  0
 43 44  1  0  0  0
 44118  1  0  0  0
 45 46  2  0  0  0
 45119  1  0  0  0
 46120  1  0  0  0
 47121  1  0  0  0
 47122  1  0  0  0
 48 56  1  0  0  0
 48 65  1  0  0  0
 48123  1  0  0  0
 49 50  1  0  0  0
 49 53  1  0  0  0
 49 64  1  0  0  0
 49124  1  0  0  0
 50 51  1  0  0  0
 50125  1  0  0  0
 50126  1  0  0  0
 51 52  1  0  0  0
 51127  1  0  0  0
 51128  1  0  0  0
 52129  1  0  0  0
 52130  1  0  0  0
 53 54  1  0  0  0
 54 55  2  0  0  0
 54131  1  0  0  0
 55 57  1  0  0  0
 55132  1  0  0  0
 56 69  2  0  0  0
 57 58  2  0  0  0
 57133  1  0  0  0
 58134  1  0  0  0
 59 60  1  0  0  0
 59 61  1  0  0  0
 59 62  1  0  0  0
 60135  1  0  0  0
 60136  1  0  0  0
 60137  1  0  0  0
 61138  1  0  0  0
 61139  1  0  0  0
 61140  1  0  0  0
 62141  1  0  0  0
 62142  1  0  0  0
 62143  1  0  0  0
 63 65  1  0  0  0
 63144  1  0  0  0
 63145  1  0  0  0
 63146  1  0  0  0
 64147  1  0  0  0
 65148  1  0  0  0
 68 75  1  0  0  0
 71 73  1  0  0  0
 71 74  2  0  0  0
 71 80  1  0  0  0
 72 73  2  0  0  0
 72 75  1  0  0  0
 72 86  1  0  0  0
 73 89  1  0  0  0
 74 84  1  0  0  0
 74 87  1  0  0  0
 75 87  2  0  0  0
 76149  1  0  0  0
 76150  1  0  0  0
 76 81  1  0  0  0
 76 82  1  0  0  0
 77 81  1  0  0  0
 77151  1  0  0  0
 77152  1  0  0  0
 77 83  1  0  0  0
 78 82  1  0  0  0
 78 88  1  0  0  0
 78153  1  0  0  0
 78154  1  0  0  0
 79 83  1  0  0  0
 79 88  1  0  0  0
 79155  1  0  0  0
 79156  1  0  0  0
 80 82  1  0  0  0
 80 83  1  0  0  0
 80157  1  0  0  0
 81 83  1  0  0  0
 81158  1  0  0  0
 82159  1  0  0  0
 84160  1  0  0  0
 84161  1  0  0  0
 84162  1  0  0  0
 85 86  1  0  0  0
 85163  1  0  0  0
 85164  1  0  0  0
 85165  1  0  0  0
 86166  1  0  0  0
 86167  1  0  0  0
M  ISO  4   1 100  68 101  75 101  88 100
M  END
> <chiral flag>
0

> <version>
0

> <s_m_source_file>
/data/baiqing/PycharmProjects/Reinvent-master-3.2/result/LINK_invent/BTK/process_docking_weight1_custom_sum_contain_oxygen_bond_distance_aromatic_linkinvent_7_9_3/rearranged_h_0175.sdf

> <i_m_source_file_index>
95

> <r_mmod_Potential_Energy-OPLS-2005>
21717.740234375

> <r_mmod_Stretch_Energy-OPLS-2005>
10029.908203125

> <r_mmod_Bend_Energy-OPLS-2005>
2762.21459960938

> <r_mmod_Torsional_Energy-OPLS-2005>
902.830932617188

> <r_mmod_Improper_Torsional_Energy-OPLS-2005>
51.8088607788086

> <r_mmod_Van_der_Waal_Energy-OPLS-2005>
2528.0380859375

> <r_mmod_Electrostatic_Energy-OPLS-2005>
-504.448120117188

> <r_mmod_Solvation_Energy-OPLS-2005>
-203.934356689453

> <b_mmod_Minimization_Converged-OPLS-2005>
0

> <r_mmod_RMS_Derivative-OPLS-2005>
11.6141605377197

$$$$
95
                    3D
 Structure written by MMmdl.
174183  0  0  1  0            999 V2000
  -30.7062  -14.5214   20.5831 C   0  0  0  0  0  0
  -30.4199  -12.3439   19.4340 C   0  0  0  0  0  0
  -29.4916  -12.5069   18.2133 C   0  0  0  0  0  0
  -28.0176  -12.3547   18.6320 C   0  0  0  0  0  0
  -27.6573  -13.2145   19.8722 C   0  0  2  0  0  0
  -28.6983  -13.0366   20.9996 C   0  0  0  0  0  0
  -25.2576  -13.8179   20.5695 C   0  0  0  0  0  0
  -24.1833  -13.0444   20.9188 C   0  0  0  0  0  0
  -24.6394  -11.6917   20.8748 C   0  0  0  0  0  0
  -23.9069  -10.4297   21.0412 C   0  0  0  0  0  0
  -24.3619   -9.4206   21.9186 C   0  0  0  0  0  0
  -23.6292   -8.2243   22.0755 C   0  0  0  0  0  0
  -22.4275   -8.0283   21.3542 C   0  0  0  0  0  0
  -21.9914   -9.0261   20.4646 C   0  0  0  0  0  0
  -22.7245  -10.2139   20.3058 C   0  0  0  0  0  0
  -21.6856   -6.0737   22.5277 C   0  0  0  0  0  0
  -21.4014   -6.5640   23.8214 C   0  0  0  0  0  0
  -21.3659   -5.6791   24.9175 C   0  0  0  0  0  0
  -21.6045   -4.3055   24.7226 C   0  0  0  0  0  0
  -21.8819   -3.8147   23.4348 C   0  0  0  0  0  0
  -21.9192   -4.6961   22.3401 C   0  0  0  0  0  0
  -22.7854  -13.5239   21.1851 C   0  0  0  0  0  0
  -22.1660   -4.2147   21.0979 F   0  0  0  0  0  0
  -21.5631   -3.4537   25.7741 F   0  0  0  0  0  0
  -30.0247  -13.3454   20.4427 N   0  0  0  0  0  0
  -26.3008  -12.9362   20.3375 N   0  0  0  0  0  0
  -25.9325  -11.6514   20.5786 N   0  0  0  0  0  0
  -22.0500  -12.8224   22.0408 N   0  0  0  0  0  0
  -25.4300  -15.1895   20.4083 N   0  0  0  0  0  0
  -31.7990  -14.7094   20.0397 O   0  0  0  0  0  0
  -21.6637   -6.8875   21.4239 O   0  0  0  0  0  0
  -22.3538  -14.5548   20.6704 O   0  0  0  0  0  0
  -24.6173  -31.8657   23.2081 C   0  0  0  0  0  0
  -25.9060  -32.4805   23.8381 C   0  0  1  0  0  0
  -27.2191  -27.3829   20.0991 C   0  0  0  0  0  0
  -25.5898  -33.8605   24.2300 N   0  0  0  0  0  0
  -23.4062  -30.4894   21.5521 C   0  0  2  0  0  0
  -24.8488  -28.9551   20.1077 C   0  0  0  0  0  0
  -22.7428  -29.4641   22.4998 C   0  0  0  0  0  0
  -18.0269  -28.1381   22.8488 C   0  0  0  0  0  0
  -24.1495  -36.7315   23.2642 C   0  0  0  0  0  0
  -25.9402  -30.8168   21.3673 C   0  0  0  0  0  0
  -26.0135  -29.4509   20.7056 C   0  0  0  0  0  0
  -27.1993  -28.6733   20.6943 C   0  0  0  0  0  0
  -26.0302  -26.9150   19.4920 C   0  0  0  0  0  0
  -24.8555  -27.6907   19.4976 C   0  0  0  0  0  0
  -23.6129  -29.8270   20.1649 C   0  0  0  0  0  0
  -25.4113  -36.3093   24.0327 C   0  0  1  0  0  0
  -20.5860  -28.3674   23.1322 C   0  0  2  0  0  0
  -20.6771  -26.9411   22.5424 C   0  0  0  0  0  0
  -19.5752  -26.6384   21.5222 C   0  0  0  0  0  0
  -18.1925  -26.7929   22.1618 C   0  0  0  0  0  0
  -19.1517  -28.8843   23.2895 C   0  0  0  0  0  0
  -18.9447  -30.1452   23.8903 C   0  0  0  0  0  0
  -17.6448  -30.6591   24.0568 C   0  0  0  0  0  0
  -25.9035  -34.9466   23.5110 C   0  0  0  0  0  0
  -16.5338  -29.9088   23.6340 C   0  0  0  0  0  0
  -16.7255  -28.6506   23.0354 C   0  0  0  0  0  0
  -26.4477  -31.6597   25.0726 C   0  0  0  0  0  0
  -25.3730  -31.3725   26.1464 C   0  0  0  0  0  0
  -27.0338  -30.3033   24.6144 C   0  0  0  0  0  0
  -27.6027  -32.4353   25.7490 C   0  0  0  0  0  0
  -27.5589  -37.1799   24.8461 C   0  0  0  0  0  0
  -21.4149  -29.3033   22.3737 N   0  0  0  0  0  0
  -26.4303  -37.3773   23.9403 N   0  0  0  0  0  0
  -24.6736  -31.0723   22.1003 N   0  0  0  0  0  0
  -23.4192  -28.8185   23.3049 O   0  0  0  0  0  0
  -28.3738  -26.6110   20.1882 O   0  0  0  0  0  0
  -26.5614  -34.8930   22.4684 O   0  0  0  0  0  0
  -23.5354  -32.1444   23.7445 O   0  0  0  0  0  0
  -28.6865  -22.7013   20.0305 C   0  0  0  0  0  0
  -28.4318  -21.5051   20.7933 C   0  0  0  0  0  0
  -28.2160  -23.9885   20.4847 C   0  0  0  0  0  0
  -27.5900  -21.6658   21.9229 C   0  0  0  0  0  0
  -27.4917  -23.9942   21.7053 C   0  0  0  0  0  0
  -30.6284  -17.4111   22.7510 C   0  0  0  0  0  0
  -30.8410  -15.9047   22.5606 C   0  0  0  0  0  0
  -29.5345  -16.7484   20.7749 C   0  0  0  0  0  0
  -30.2982  -17.9823   21.3632 C   0  0  2  0  0  0
  -29.4340  -22.5981   18.7026 C   0  0  0  0  0  0
  -27.0540  -20.4985   22.7374 C   0  0  0  0  0  0
  -26.9779  -25.2402   22.4021 C   0  0  0  0  0  0
  -32.4873  -19.3953   21.0087 C   0  0  0  0  0  0
  -28.9799  -20.0798   20.3938 C   0  0  0  0  0  0
  -28.4678  -25.2740   19.6184 C   0  0  0  0  0  0
  -31.5930  -18.2330   20.5367 C   0  0  0  0  0  0
  -27.1748  -22.8650   22.3689 N   0  0  0  0  0  0
  -30.1330  -15.5014   21.3389 N   0  0  0  0  0  0
  -29.5177  -19.2661   21.5362 N   0  3  0  0  0  0
  -31.4632  -12.4437   19.1289 H   0  0  0  0  0  0
  -30.3305  -11.3397   19.8518 H   0  0  0  0  0  0
  -29.7400  -11.7669   17.4509 H   0  0  0  0  0  0
  -29.6466  -13.4841   17.7543 H   0  0  0  0  0  0
  -27.8461  -11.3000   18.8523 H   0  0  0  0  0  0
  -27.3593  -12.5998   17.7974 H   0  0  0  0  0  0
  -27.6910  -14.2564   19.5531 H   0  0  0  0  0  0
  -28.6862  -12.0120   21.3748 H   0  0  0  0  0  0
  -28.4485  -13.6666   21.8543 H   0  0  0  0  0  0
  -25.2766   -9.5681   22.4759 H   0  0  0  0  0  0
  -24.0005   -7.4632   22.7474 H   0  0  0  0  0  0
  -21.0846   -8.8777   19.8950 H   0  0  0  0  0  0
  -22.3704  -10.9675   19.6167 H   0  0  0  0  0  0
  -21.2005   -7.6147   23.9715 H   0  0  0  0  0  0
  -21.1484   -6.0522   25.9078 H   0  0  0  0  0  0
  -22.0599   -2.7608   23.2849 H   0  0  0  0  0  0
  -22.4121  -11.9878   22.4778 H   0  0  0  0  0  0
  -21.1117  -13.1242   22.2620 H   0  0  0  0  0  0
  -24.6633  -15.8461   20.5053 H   0  0  0  0  0  0
  -26.2817  -15.6205   20.0729 H   0  0  0  0  0  0
  -26.7133  -32.5502   23.1140 H   0  0  0  0  0  0
  -25.0024  -33.9762   25.0428 H   0  0  0  0  0  0
  -22.6942  -31.3060   21.4160 H   0  0  0  0  0  0
  -23.3747  -35.9659   23.3302 H   0  0  0  0  0  0
  -24.3580  -36.8947   22.2058 H   0  0  0  0  0  0
  -23.7271  -37.6524   23.6676 H   0  0  0  0  0  0
  -26.0625  -31.5870   20.6050 H   0  0  0  0  0  0
  -26.8239  -30.8620   21.9931 H   0  0  0  0  0  0
  -28.0966  -29.0482   21.1678 H   0  0  0  0  0  0
  -25.9652  -25.9350   19.0463 H   0  0  0  0  0  0
  -23.9553  -27.2985   19.0443 H   0  0  0  0  0  0
  -23.7177  -30.6067   19.4088 H   0  0  0  0  0  0
  -22.7340  -29.2503   19.8707 H   0  0  0  0  0  0
  -25.1292  -36.1958   25.0819 H   0  0  0  0  0  0
  -20.9927  -28.3248   24.1450 H   0  0  0  0  0  0
  -20.5707  -26.2272   23.3608 H   0  0  0  0  0  0
  -21.6640  -26.7480   22.1199 H   0  0  0  0  0  0
  -19.6921  -25.6292   21.1259 H   0  0  0  0  0  0
  -19.6706  -27.3188   20.6753 H   0  0  0  0  0  0
  -17.4202  -26.6686   21.4015 H   0  0  0  0  0  0
  -18.0306  -26.0067   22.9008 H   0  0  0  0  0  0
  -19.7924  -30.7271   24.2271 H   0  0  0  0  0  0
  -17.5005  -31.6270   24.5176 H   0  0  0  0  0  0
  -15.5339  -30.2991   23.7670 H   0  0  0  0  0  0
  -15.8648  -28.0833   22.7064 H   0  0  0  0  0  0
  -24.5883  -30.7095   25.7796 H   0  0  0  0  0  0
  -24.8933  -32.2890   26.4909 H   0  0  0  0  0  0
  -25.8050  -30.8885   27.0231 H   0  0  0  0  0  0
  -26.2904  -29.6750   24.1214 H   0  0  0  0  0  0
  -27.4119  -29.7306   25.4626 H   0  0  0  0  0  0
  -27.8731  -30.4339   23.9310 H   0  0  0  0  0  0
  -27.2618  -33.3655   26.2055 H   0  0  0  0  0  0
  -28.3828  -32.6927   25.0311 H   0  0  0  0  0  0
  -28.0719  -31.8512   26.5418 H   0  0  0  0  0  0
  -28.2587  -38.0116   24.7507 H   0  0  0  0  0  0
  -28.1109  -36.2637   24.6283 H   0  0  0  0  0  0
  -27.2304  -37.1437   25.8866 H   0  0  0  0  0  0
  -20.9322  -29.8754   21.6954 H   0  0  0  0  0  0
  -26.0195  -38.2861   24.1380 H   0  0  0  0  0  0
  -31.4829  -17.8864   23.2330 H   0  0  0  0  0  0
  -29.7803  -17.5454   23.4256 H   0  0  0  0  0  0
  -30.4664  -15.3432   23.4177 H   0  0  0  0  0  0
  -31.9109  -15.6962   22.4886 H   0  0  0  0  0  0
  -29.5549  -16.7468   19.6834 H   0  0  0  0  0  0
  -28.4837  -16.7680   21.0666 H   0  0  0  0  0  0
  -30.5105  -22.6471   18.8607 H   0  0  0  0  0  0
  -29.1588  -23.3842   18.0021 H   0  0  0  0  0  0
  -29.1991  -21.6725   18.1804 H   0  0  0  0  0  0
  -27.7907  -20.1577   23.4643 H   0  0  0  0  0  0
  -26.7611  -19.6676   22.0951 H   0  0  0  0  0  0
  -26.1639  -20.7892   23.2965 H   0  0  0  0  0  0
  -27.7551  -25.9979   22.4878 H   0  0  0  0  0  0
  -26.6531  -25.0168   23.4188 H   0  0  0  0  0  0
  -26.1150  -25.6472   21.8790 H   0  0  0  0  0  0
  -33.3759  -19.4611   20.3794 H   0  0  0  0  0  0
  -32.8347  -19.2614   22.0330 H   0  0  0  0  0  0
  -31.9857  -20.3610   20.9436 H   0  0  0  0  0  0
  -29.7839  -20.1812   19.6680 H   0  0  0  0  0  0
  -28.1855  -19.5196   19.8995 H   0  0  0  0  0  0
  -27.9058  -25.1980   18.6886 H   0  0  0  0  0  0
  -29.5092  -25.2208   19.3041 H   0  0  0  0  0  0
  -31.3321  -18.4000   19.4915 H   0  0  0  0  0  0
  -32.2019  -17.3290   20.5301 H   0  0  0  0  0  0
  -30.1346  -19.8812   22.0437 H   0  0  0  0  0  0
  -28.7461  -19.0622   22.1501 H   0  0  0  0  0  0
  1 25  1  0  0  0
  1 30  2  0  0  0
  1 88  1  0  0  0
  2  3  1  0  0  0
  2 25  1  0  0  0
  2 90  1  0  0  0
  2 91  1  0  0  0
  3  4  1  0  0  0
  3 92  1  0  0  0
  3 93  1  0  0  0
  4  5  1  0  0  0
  4 94  1  0  0  0
  4 95  1  0  0  0
  5  6  1  0  0  0
  5 26  1  0  0  0
  5 96  1  0  0  0
  6 25  1  0  0  0
  6 97  1  0  0  0
  6 98  1  0  0  0
  7  8  2  0  0  0
  7 26  1  0  0  0
  7 29  1  0  0  0
  8  9  1  0  0  0
  8 22  1  0  0  0
  9 10  1  0  0  0
  9 27  2  0  0  0
 10 11  2  0  0  0
 10 15  1  0  0  0
 11 12  1  0  0  0
 11 99  1  0  0  0
 12 13  2  0  0  0
 12100  1  0  0  0
 13 14  1  0  0  0
 13 31  1  0  0  0
 14 15  2  0  0  0
 14101  1  0  0  0
 15102  1  0  0  0
 16 17  2  0  0  0
 16 21  1  0  0  0
 16 31  1  0  0  0
 17 18  1  0  0  0
 17103  1  0  0  0
 18 19  2  0  0  0
 18104  1  0  0  0
 19 20  1  0  0  0
 19 24  1  0  0  0
 20 21  2  0  0  0
 20105  1  0  0  0
 21 23  1  0  0  0
 22 28  1  0  0  0
 22 32  2  0  0  0
 26 27  1  0  0  0
 28106  1  0  0  0
 28107  1  0  0  0
 29108  1  0  0  0
 29109  1  0  0  0
 33 34  1  0  0  0
 33 66  1  0  0  0
 33 70  2  0  0  0
 34 36  1  0  0  0
 34 59  1  0  0  0
 34110  1  0  0  0
 35 44  2  0  0  0
 35 45  1  0  0  0
 35 68  1  0  0  0
 36 56  1  0  0  0
 36111  1  0  0  0
 37 39  1  0  0  0
 37 47  1  0  0  0
 37 66  1  0  0  0
 37112  1  0  0  0
 38 43  2  0  0  0
 38 46  1  0  0  0
 38 47  1  0  0  0
 39 64  1  0  0  0
 39 67  2  0  0  0
 40 52  1  0  0  0
 40 53  2  0  0  0
 40 58  1  0  0  0
 41113  1  0  0  0
 41114  1  0  0  0
 41115  1  0  0  0
 41 48  1  0  0  0
 42 43  1  0  0  0
 42 66  1  0  0  0
 42116  1  0  0  0
 42117  1  0  0  0
 43 44  1  0  0  0
 44118  1  0  0  0
 45 46  2  0  0  0
 45119  1  0  0  0
 46120  1  0  0  0
 47121  1  0  0  0
 47122  1  0  0  0
 48 56  1  0  0  0
 48 65  1  0  0  0
 48123  1  0  0  0
 49 50  1  0  0  0
 49 53  1  0  0  0
 49 64  1  0  0  0
 49124  1  0  0  0
 50 51  1  0  0  0
 50125  1  0  0  0
 50126  1  0  0  0
 51 52  1  0  0  0
 51127  1  0  0  0
 51128  1  0  0  0
 52129  1  0  0  0
 52130  1  0  0  0
 53 54  1  0  0  0
 54 55  2  0  0  0
 54131  1  0  0  0
 55 57  1  0  0  0
 55132  1  0  0  0
 56 69  2  0  0  0
 57 58  2  0  0  0
 57133  1  0  0  0
 58134  1  0  0  0
 59 60  1  0  0  0
 59 61  1  0  0  0
 59 62  1  0  0  0
 60135  1  0  0  0
 60136  1  0  0  0
 60137  1  0  0  0
 61138  1  0  0  0
 61139  1  0  0  0
 61140  1  0  0  0
 62141  1  0  0  0
 62142  1  0  0  0
 62143  1  0  0  0
 63 65  1  0  0  0
 63144  1  0  0  0
 63145  1  0  0  0
 63146  1  0  0  0
 64147  1  0  0  0
 65148  1  0  0  0
 68 85  1  0  0  0
 71 72  2  0  0  0
 71 73  1  0  0  0
 71 80  1  0  0  0
 72 74  1  0  0  0
 72 84  1  0  0  0
 73 75  2  0  0  0
 73 85  1  0  0  0
 74 81  1  0  0  0
 74 87  2  0  0  0
 75 82  1  0  0  0
 75 87  1  0  0  0
 76 77  1  0  0  0
 76 79  1  0  0  0
 76149  1  0  0  0
 76150  1  0  0  0
 77 88  1  0  0  0
 77151  1  0  0  0
 77152  1  0  0  0
 78 79  1  0  0  0
 78 88  1  0  0  0
 78153  1  0  0  0
 78154  1  0  0  0
 79 86  1  0  0  0
 79 89  1  0  0  0
 80155  1  0  0  0
 80156  1  0  0  0
 80157  1  0  0  0
 81158  1  0  0  0
 81159  1  0  0  0
 81160  1  0  0  0
 82161  1  0  0  0
 82162  1  0  0  0
 82163  1  0  0  0
 83 86  1  0  0  0
 83164  1  0  0  0
 83165  1  0  0  0
 83166  1  0  0  0
 84 89  1  0  0  0
 84167  1  0  0  0
 84168  1  0  0  0
 85169  1  0  0  0
 85170  1  0  0  0
 86171  1  0  0  0
 86172  1  0  0  0
 89173  1  0  0  0
 89174  1  0  0  0
M  CHG  1  89   1
M  ISO  4   1 100  68 101  85 101  88 100
M  END
> <chiral flag>
0

> <version>
0

> <s_m_source_file>
/data/baiqing/PycharmProjects/Reinvent-master-3.2/result/LINK_invent/BTK/process_docking_weight1_custom_sum_contain_oxygen_bond_distance_aromatic_linkinvent_7_9_3/rearranged_h_0175.sdf

> <i_m_source_file_index>
96

> <r_mmod_Potential_Energy-OPLS-2005>
3.72349095344543

> <r_mmod_Stretch_Energy-OPLS-2005>
67.6843414306641

> <r_mmod_Bend_Energy-OPLS-2005>
175.639205932617

> <r_mmod_Torsional_Energy-OPLS-2005>
362.115142822266

> <r_mmod_Improper_Torsional_Energy-OPLS-2005>
6.11353349685669

> <r_mmod_Van_der_Waal_Energy-OPLS-2005>
153.112609863281

> <r_mmod_Electrostatic_Energy-OPLS-2005>
-340.539337158203

> <r_mmod_Solvation_Energy-OPLS-2005>
-443.045074462891

> <b_mmod_Minimization_Converged-OPLS-2005>
0

> <r_mmod_RMS_Derivative-OPLS-2005>
1.46820437908173

$$$$
