0
                    3D
 Structure written by MMmdl.
162171  0  0  1  0            999 V2000
  -30.7202  -14.4532   20.6037 C   0  0  0  0  0  0
  -30.4175  -12.3087   19.4152 C   0  0  0  0  0  0
  -29.4891  -12.5062   18.2010 C   0  0  0  0  0  0
  -28.0118  -12.3598   18.6152 C   0  0  0  0  0  0
  -27.6572  -13.2006   19.8699 C   0  0  2  0  0  0
  -28.6984  -12.9882   20.9914 C   0  0  0  0  0  0
  -25.2573  -13.8147   20.5667 C   0  0  0  0  0  0
  -24.1829  -13.0430   20.9191 C   0  0  0  0  0  0
  -24.6377  -11.6896   20.8748 C   0  0  0  0  0  0
  -23.9043  -10.4285   21.0412 C   0  0  0  0  0  0
  -24.3602   -9.4202   21.9186 C   0  0  0  0  0  0
  -23.6283   -8.2234   22.0752 C   0  0  0  0  0  0
  -22.4265   -8.0273   21.3543 C   0  0  0  0  0  0
  -21.9896   -9.0247   20.4647 C   0  0  0  0  0  0
  -22.7219  -10.2129   20.3060 C   0  0  0  0  0  0
  -21.6848   -6.0729   22.5277 C   0  0  0  0  0  0
  -21.4015   -6.5635   23.8212 C   0  0  0  0  0  0
  -21.3660   -5.6790   24.9175 C   0  0  0  0  0  0
  -21.6043   -4.3052   24.7225 C   0  0  0  0  0  0
  -21.8821   -3.8143   23.4347 C   0  0  0  0  0  0
  -21.9194   -4.6958   22.3402 C   0  0  0  0  0  0
  -22.7857  -13.5236   21.1854 C   0  0  0  0  0  0
  -22.1662   -4.2143   21.0979 F   0  0  0  0  0  0
  -21.5626   -3.4538   25.7738 F   0  0  0  0  0  0
  -30.0292  -13.2913   20.4391 N   0  0  0  0  0  0
  -26.2996  -12.9302   20.3342 N   0  0  0  0  0  0
  -25.9297  -11.6469   20.5764 N   0  0  0  0  0  0
  -22.0491  -12.8236   22.0412 N   0  0  0  0  0  0
  -25.4277  -15.1860   20.4027 N   0  0  0  0  0  0
  -31.8392  -14.6372   20.1122 O   0  0  0  0  0  0
  -21.6634   -6.8868   21.4237 O   0  0  0  0  0  0
  -22.3550  -14.5543   20.6699 O   0  0  0  0  0  0
  -24.6141  -31.8679   23.2089 C   0  0  0  0  0  0
  -25.9036  -32.4819   23.8386 C   0  0  1  0  0  0
  -27.2353  -27.4313   20.0927 C   0  0  0  0  0  0
  -25.5896  -33.8622   24.2317 N   0  0  0  0  0  0
  -23.4012  -30.4905   21.5507 C   0  0  2  0  0  0
  -24.8454  -28.9523   20.1172 C   0  0  0  0  0  0
  -22.7403  -29.4655   22.4998 C   0  0  0  0  0  0
  -18.0269  -28.1373   22.8496 C   0  0  0  0  0  0
  -24.1488  -36.7313   23.2639 C   0  0  0  0  0  0
  -25.9298  -30.8315   21.3619 C   0  0  0  0  0  0
  -26.0050  -29.4652   20.7094 C   0  0  0  0  0  0
  -27.2004  -28.7126   20.6907 C   0  0  0  0  0  0
  -26.0520  -26.9271   19.5050 C   0  0  0  0  0  0
  -24.8635  -27.6825   19.5140 C   0  0  0  0  0  0
  -23.6082  -29.8202   20.1660 C   0  0  0  0  0  0
  -25.4112  -36.3112   24.0334 C   0  0  1  0  0  0
  -20.5860  -28.3658   23.1326 C   0  0  2  0  0  0
  -20.6764  -26.9397   22.5420 C   0  0  0  0  0  0
  -19.5743  -26.6386   21.5215 C   0  0  0  0  0  0
  -18.1920  -26.7922   22.1625 C   0  0  0  0  0  0
  -19.1519  -28.8833   23.2907 C   0  0  0  0  0  0
  -18.9449  -30.1441   23.8913 C   0  0  0  0  0  0
  -17.6453  -30.6585   24.0566 C   0  0  0  0  0  0
  -25.9038  -34.9477   23.5124 C   0  0  0  0  0  0
  -16.5343  -29.9087   23.6328 C   0  0  0  0  0  0
  -16.7259  -28.6502   23.0349 C   0  0  0  0  0  0
  -26.4466  -31.6603   25.0716 C   0  0  0  0  0  0
  -25.3733  -31.3711   26.1465 C   0  0  0  0  0  0
  -27.0297  -30.3047   24.6091 C   0  0  0  0  0  0
  -27.6042  -32.4324   25.7475 C   0  0  0  0  0  0
  -27.5581  -37.1813   24.8465 C   0  0  0  0  0  0
  -21.4132  -29.3025   22.3735 N   0  0  0  0  0  0
  -26.4300  -37.3794   23.9403 N   0  0  0  0  0  0
  -24.6667  -31.0781   22.0986 N   0  0  0  0  0  0
  -23.4179  -28.8200   23.3039 O   0  0  0  0  0  0
  -28.4328  -26.7429   20.0956 O   0  0  0  0  0  0
  -26.5601  -34.8929   22.4684 O   0  0  0  0  0  0
  -23.5337  -32.1432   23.7484 O   0  0  0  0  0  0
  -30.1307  -17.5474   22.4717 C   0  0  0  0  0  0
  -30.8226  -16.1829   22.3533 C   0  0  0  0  0  0
  -29.1664  -16.3546   20.6622 C   0  0  0  0  0  0
  -27.6494  -22.2168   20.1736 C   0  0  0  0  0  0
  -27.9071  -22.4014   22.2376 C   0  0  0  0  0  0
  -29.5534  -17.7875   21.0800 C   0  0  1  0  0  0
  -27.6653  -21.1898   21.3250 C   0  0  0  0  0  0
  -28.3910  -18.8187   20.9911 C   0  0  0  0  0  0
  -27.9497  -24.5100   21.0581 C   0  0  0  0  0  0
  -28.4707  -25.3276   19.8519 C   0  0  0  0  0  0
  -30.1045  -15.4272   21.3193 N   0  0  0  0  0  0
  -28.4042  -23.1084   21.0568 N   0  0  0  0  0  0
  -28.7918  -20.2156   21.3043 N   0  3  0  0  0  0
  -31.4617  -12.4066   19.1126 H   0  0  0  0  0  0
  -30.3191  -11.2974   19.8126 H   0  0  0  0  0  0
  -29.7310  -11.7827   17.4212 H   0  0  0  0  0  0
  -29.6536  -13.4935   17.7662 H   0  0  0  0  0  0
  -27.8261  -11.3036   18.8138 H   0  0  0  0  0  0
  -27.3596  -12.6313   17.7843 H   0  0  0  0  0  0
  -27.6953  -14.2438   19.5626 H   0  0  0  0  0  0
  -28.6760  -11.9552   21.3415 H   0  0  0  0  0  0
  -28.4545  -13.5957   21.8639 H   0  0  0  0  0  0
  -25.2748   -9.5682   22.4760 H   0  0  0  0  0  0
  -23.9996   -7.4628   22.7470 H   0  0  0  0  0  0
  -21.0825   -8.8767   19.8954 H   0  0  0  0  0  0
  -22.3679  -10.9670   19.6171 H   0  0  0  0  0  0
  -21.2008   -7.6145   23.9714 H   0  0  0  0  0  0
  -21.1479   -6.0519   25.9077 H   0  0  0  0  0  0
  -22.0601   -2.7603   23.2850 H   0  0  0  0  0  0
  -22.4092  -11.9892   22.4800 H   0  0  0  0  0  0
  -21.1115  -13.1276   22.2616 H   0  0  0  0  0  0
  -24.6550  -15.8364   20.4948 H   0  0  0  0  0  0
  -26.2668  -15.6153   20.0367 H   0  0  0  0  0  0
  -26.7107  -32.5527   23.1150 H   0  0  0  0  0  0
  -25.0057  -33.9791   25.0468 H   0  0  0  0  0  0
  -22.6895  -31.3065   21.4115 H   0  0  0  0  0  0
  -23.3747  -35.9650   23.3319 H   0  0  0  0  0  0
  -24.3582  -36.8911   22.2050 H   0  0  0  0  0  0
  -23.7246  -37.6525   23.6644 H   0  0  0  0  0  0
  -26.0446  -31.5976   20.5939 H   0  0  0  0  0  0
  -26.8174  -30.8834   21.9811 H   0  0  0  0  0  0
  -28.0987  -29.1105   21.1420 H   0  0  0  0  0  0
  -26.0247  -25.9594   19.0281 H   0  0  0  0  0  0
  -23.9703  -27.2809   19.0553 H   0  0  0  0  0  0
  -23.7165  -30.5935   19.4047 H   0  0  0  0  0  0
  -22.7321  -29.2392   19.8726 H   0  0  0  0  0  0
  -25.1292  -36.1980   25.0827 H   0  0  0  0  0  0
  -20.9947  -28.3221   24.1448 H   0  0  0  0  0  0
  -20.5677  -26.2260   23.3602 H   0  0  0  0  0  0
  -21.6636  -26.7452   22.1206 H   0  0  0  0  0  0
  -19.6908  -25.6303   21.1228 H   0  0  0  0  0  0
  -19.6688  -27.3211   20.6757 H   0  0  0  0  0  0
  -17.4195  -26.6675   21.4023 H   0  0  0  0  0  0
  -18.0320  -26.0060   22.9016 H   0  0  0  0  0  0
  -19.7926  -30.7251   24.2291 H   0  0  0  0  0  0
  -17.5010  -31.6269   24.5158 H   0  0  0  0  0  0
  -15.5344  -30.2994   23.7645 H   0  0  0  0  0  0
  -15.8657  -28.0827   22.7055 H   0  0  0  0  0  0
  -24.5897  -30.7071   25.7796 H   0  0  0  0  0  0
  -24.8939  -32.2870   26.4929 H   0  0  0  0  0  0
  -25.8080  -30.8861   27.0214 H   0  0  0  0  0  0
  -26.2839  -29.6812   24.1145 H   0  0  0  0  0  0
  -27.4071  -29.7278   25.4542 H   0  0  0  0  0  0
  -27.8672  -30.4367   23.9236 H   0  0  0  0  0  0
  -27.2659  -33.3606   26.2090 H   0  0  0  0  0  0
  -28.3828  -32.6915   25.0288 H   0  0  0  0  0  0
  -28.0742  -31.8432   26.5362 H   0  0  0  0  0  0
  -28.2612  -38.0097   24.7503 H   0  0  0  0  0  0
  -28.1064  -36.2631   24.6308 H   0  0  0  0  0  0
  -27.2297  -37.1479   25.8868 H   0  0  0  0  0  0
  -20.9288  -29.8741   21.6958 H   0  0  0  0  0  0
  -26.0191  -38.2874   24.1394 H   0  0  0  0  0  0
  -30.8193  -18.3307   22.7922 H   0  0  0  0  0  0
  -29.3285  -17.4858   23.2097 H   0  0  0  0  0  0
  -30.8118  -15.6459   23.3027 H   0  0  0  0  0  0
  -31.8687  -16.3229   22.0724 H   0  0  0  0  0  0
  -29.1639  -16.2513   19.5746 H   0  0  0  0  0  0
  -28.1637  -16.1149   21.0171 H   0  0  0  0  0  0
  -26.6556  -22.6170   19.9596 H   0  0  0  0  0  0
  -28.2155  -21.9648   19.2753 H   0  0  0  0  0  0
  -28.6783  -22.3078   23.0043 H   0  0  0  0  0  0
  -26.9822  -22.8483   22.6109 H   0  0  0  0  0  0
  -30.3638  -18.1127   20.4242 H   0  0  0  0  0  0
  -26.6959  -20.7251   21.5134 H   0  0  0  0  0  0
  -27.5880  -18.5172   21.6654 H   0  0  0  0  0  0
  -27.9681  -18.8053   19.9856 H   0  0  0  0  0  0
  -26.8622  -24.5781   21.1198 H   0  0  0  0  0  0
  -28.3354  -24.9748   21.9668 H   0  0  0  0  0  0
  -27.9734  -25.0492   18.9231 H   0  0  0  0  0  0
  -29.5218  -25.0829   19.6973 H   0  0  0  0  0  0
  -29.2066  -20.2149   22.2209 H   0  0  0  0  0  0
  -29.4951  -20.5381   20.6601 H   0  0  0  0  0  0
  1 25  1  0  0  0
  1 30  2  0  0  0
  1 81  1  0  0  0
  2  3  1  0  0  0
  2 25  1  0  0  0
  2 84  1  0  0  0
  2 85  1  0  0  0
  3  4  1  0  0  0
  3 86  1  0  0  0
  3 87  1  0  0  0
  4  5  1  0  0  0
  4 88  1  0  0  0
  4 89  1  0  0  0
  5  6  1  0  0  0
  5 26  1  0  0  0
  5 90  1  0  0  0
  6 25  1  0  0  0
  6 91  1  0  0  0
  6 92  1  0  0  0
  7  8  2  0  0  0
  7 26  1  0  0  0
  7 29  1  0  0  0
  8  9  1  0  0  0
  8 22  1  0  0  0
  9 10  1  0  0  0
  9 27  2  0  0  0
 10 11  2  0  0  0
 10 15  1  0  0  0
 11 12  1  0  0  0
 11 93  1  0  0  0
 12 13  2  0  0  0
 12 94  1  0  0  0
 13 14  1  0  0  0
 13 31  1  0  0  0
 14 15  2  0  0  0
 14 95  1  0  0  0
 15 96  1  0  0  0
 16 17  2  0  0  0
 16 21  1  0  0  0
 16 31  1  0  0  0
 17 18  1  0  0  0
 17 97  1  0  0  0
 18 19  2  0  0  0
 18 98  1  0  0  0
 19 20  1  0  0  0
 19 24  1  0  0  0
 20 21  2  0  0  0
 20 99  1  0  0  0
 21 23  1  0  0  0
 22 28  1  0  0  0
 22 32  2  0  0  0
 26 27  1  0  0  0
 28100  1  0  0  0
 28101  1  0  0  0
 29102  1  0  0  0
 29103  1  0  0  0
 33 34  1  0  0  0
 33 66  1  0  0  0
 33 70  2  0  0  0
 34 36  1  0  0  0
 34 59  1  0  0  0
 34104  1  0  0  0
 35 44  2  0  0  0
 35 45  1  0  0  0
 35 68  1  0  0  0
 36 56  1  0  0  0
 36105  1  0  0  0
 37 39  1  0  0  0
 37 47  1  0  0  0
 37 66  1  0  0  0
 37106  1  0  0  0
 38 43  2  0  0  0
 38 46  1  0  0  0
 38 47  1  0  0  0
 39 64  1  0  0  0
 39 67  2  0  0  0
 40 52  1  0  0  0
 40 53  2  0  0  0
 40 58  1  0  0  0
 41107  1  0  0  0
 41108  1  0  0  0
 41109  1  0  0  0
 41 48  1  0  0  0
 42 43  1  0  0  0
 42 66  1  0  0  0
 42110  1  0  0  0
 42111  1  0  0  0
 43 44  1  0  0  0
 44112  1  0  0  0
 45 46  2  0  0  0
 45113  1  0  0  0
 46114  1  0  0  0
 47115  1  0  0  0
 47116  1  0  0  0
 48 56  1  0  0  0
 48 65  1  0  0  0
 48117  1  0  0  0
 49 50  1  0  0  0
 49 53  1  0  0  0
 49 64  1  0  0  0
 49118  1  0  0  0
 50 51  1  0  0  0
 50119  1  0  0  0
 50120  1  0  0  0
 51 52  1  0  0  0
 51121  1  0  0  0
 51122  1  0  0  0
 52123  1  0  0  0
 52124  1  0  0  0
 53 54  1  0  0  0
 54 55  2  0  0  0
 54125  1  0  0  0
 55 57  1  0  0  0
 55126  1  0  0  0
 56 69  2  0  0  0
 57 58  2  0  0  0
 57127  1  0  0  0
 58128  1  0  0  0
 59 60  1  0  0  0
 59 61  1  0  0  0
 59 62  1  0  0  0
 60129  1  0  0  0
 60130  1  0  0  0
 60131  1  0  0  0
 61132  1  0  0  0
 61133  1  0  0  0
 61134  1  0  0  0
 62135  1  0  0  0
 62136  1  0  0  0
 62137  1  0  0  0
 63 65  1  0  0  0
 63138  1  0  0  0
 63139  1  0  0  0
 63140  1  0  0  0
 64141  1  0  0  0
 65142  1  0  0  0
 68 80  1  0  0  0
 71 72  1  0  0  0
 71 76  1  0  0  0
 71143  1  0  0  0
 71144  1  0  0  0
 72 81  1  0  0  0
 72145  1  0  0  0
 72146  1  0  0  0
 73 76  1  0  0  0
 73 81  1  0  0  0
 73147  1  0  0  0
 73148  1  0  0  0
 74 77  1  0  0  0
 74 82  1  0  0  0
 74149  1  0  0  0
 74150  1  0  0  0
 75 77  1  0  0  0
 75 82  1  0  0  0
 75151  1  0  0  0
 75152  1  0  0  0
 76 78  1  0  0  0
 76153  1  0  0  0
 77 83  1  0  0  0
 77154  1  0  0  0
 78 83  1  0  0  0
 78155  1  0  0  0
 78156  1  0  0  0
 79 80  1  0  0  0
 79 82  1  0  0  0
 79157  1  0  0  0
 79158  1  0  0  0
 80159  1  0  0  0
 80160  1  0  0  0
 83161  1  0  0  0
 83162  1  0  0  0
M  CHG  1  83   1
M  ISO  4   1 100  68 101  80 101  81 100
M  END
> <chiral flag>
0

> <version>
0

> <s_m_source_file>
/data/baiqing/PycharmProjects/Reinvent-master-3.2/result/LINK_invent/BTK/process_docking_weight1_custom_sum_contain_oxygen_bond_distance_aromatic_linkinvent_7_9_3/rearranged_h_0195.sdf

> <i_m_source_file_index>
1

> <r_mmod_Potential_Energy-OPLS-2005>
24.9488849639893

> <r_mmod_Stretch_Energy-OPLS-2005>
37.3601684570312

> <r_mmod_Bend_Energy-OPLS-2005>
146.76350402832

> <r_mmod_Torsional_Energy-OPLS-2005>
334.633178710938

> <r_mmod_Improper_Torsional_Energy-OPLS-2005>
5.43395614624023

> <r_mmod_Van_der_Waal_Energy-OPLS-2005>
129.352493286133

> <r_mmod_Electrostatic_Energy-OPLS-2005>
-180.203048706055

> <r_mmod_Solvation_Energy-OPLS-2005>
-460.199066162109

> <b_mmod_Minimization_Converged-OPLS-2005>
0

> <r_mmod_RMS_Derivative-OPLS-2005>
0.596142292022705

$$$$
1
                    3D
 Structure written by MMmdl.
169179  0  0  1  0            999 V2000
  -30.7464  -14.3961   20.6409 C   0  0  0  0  0  0
  -30.4178  -12.2858   19.4086 C   0  0  0  0  0  0
  -29.4899  -12.5187   18.2006 C   0  0  0  0  0  0
  -28.0122  -12.3786   18.6139 C   0  0  0  0  0  0
  -27.6669  -13.2034   19.8829 C   0  0  2  0  0  0
  -28.7057  -12.9552   20.9995 C   0  0  0  0  0  0
  -25.2609  -13.8161   20.5693 C   0  0  0  0  0  0
  -24.1850  -13.0447   20.9168 C   0  0  0  0  0  0
  -24.6399  -11.6906   20.8730 C   0  0  0  0  0  0
  -23.9058  -10.4291   21.0398 C   0  0  0  0  0  0
  -24.3607   -9.4204   21.9178 C   0  0  0  0  0  0
  -23.6280   -8.2243   22.0752 C   0  0  0  0  0  0
  -22.4263   -8.0283   21.3545 C   0  0  0  0  0  0
  -21.9902   -9.0258   20.4645 C   0  0  0  0  0  0
  -22.7229  -10.2136   20.3053 C   0  0  0  0  0  0
  -21.6853   -6.0735   22.5279 C   0  0  0  0  0  0
  -21.4015   -6.5640   23.8210 C   0  0  0  0  0  0
  -21.3654   -5.6796   24.9174 C   0  0  0  0  0  0
  -21.6041   -4.3060   24.7225 C   0  0  0  0  0  0
  -21.8812   -3.8148   23.4352 C   0  0  0  0  0  0
  -21.9191   -4.6962   22.3406 C   0  0  0  0  0  0
  -22.7867  -13.5246   21.1828 C   0  0  0  0  0  0
  -22.1655   -4.2146   21.0985 F   0  0  0  0  0  0
  -21.5624   -3.4547   25.7737 F   0  0  0  0  0  0
  -30.0442  -13.2471   20.4559 N   0  0  0  0  0  0
  -26.3053  -12.9329   20.3405 N   0  0  0  0  0  0
  -25.9329  -11.6487   20.5773 N   0  0  0  0  0  0
  -22.0507  -12.8238   22.0383 N   0  0  0  0  0  0
  -25.4336  -15.1879   20.4083 N   0  0  0  0  0  0
  -31.8209  -14.6297   20.0748 O   0  0  0  0  0  0
  -21.6630   -6.8881   21.4243 O   0  0  0  0  0  0
  -22.3546  -14.5553   20.6676 O   0  0  0  0  0  0
  -24.6095  -31.8715   23.2129 C   0  0  0  0  0  0
  -25.9003  -32.4850   23.8419 C   0  0  1  0  0  0
  -27.2537  -27.4691   20.1014 C   0  0  0  0  0  0
  -25.5879  -33.8649   24.2351 N   0  0  0  0  0  0
  -23.3973  -30.4920   21.5519 C   0  0  2  0  0  0
  -24.8500  -28.9609   20.1187 C   0  0  0  0  0  0
  -22.7387  -29.4662   22.5009 C   0  0  0  0  0  0
  -18.0264  -28.1373   22.8494 C   0  0  0  0  0  0
  -24.1486  -36.7327   23.2637 C   0  0  0  0  0  0
  -25.9202  -30.8484   21.3610 C   0  0  0  0  0  0
  -26.0027  -29.4808   20.7197 C   0  0  0  0  0  0
  -27.2045  -28.7429   20.7186 C   0  0  0  0  0  0
  -26.0860  -26.9631   19.4938 C   0  0  0  0  0  0
  -24.8834  -27.6959   19.5060 C   0  0  0  0  0  0
  -23.6065  -29.8205   20.1669 C   0  0  0  0  0  0
  -25.4109  -36.3138   24.0340 C   0  0  1  0  0  0
  -20.5851  -28.3655   23.1328 C   0  0  2  0  0  0
  -20.6757  -26.9397   22.5419 C   0  0  0  0  0  0
  -19.5739  -26.6385   21.5211 C   0  0  0  0  0  0
  -18.1914  -26.7921   22.1617 C   0  0  0  0  0  0
  -19.1512  -28.8828   23.2911 C   0  0  0  0  0  0
  -18.9445  -30.1435   23.8921 C   0  0  0  0  0  0
  -17.6450  -30.6583   24.0562 C   0  0  0  0  0  0
  -25.9027  -34.9496   23.5143 C   0  0  0  0  0  0
  -16.5340  -29.9088   23.6318 C   0  0  0  0  0  0
  -16.7255  -28.6500   23.0347 C   0  0  0  0  0  0
  -26.4457  -31.6613   25.0723 C   0  0  0  0  0  0
  -25.3738  -31.3696   26.1481 C   0  0  0  0  0  0
  -27.0286  -30.3067   24.6053 C   0  0  0  0  0  0
  -27.6041  -32.4326   25.7477 C   0  0  0  0  0  0
  -27.5585  -37.1822   24.8466 C   0  0  0  0  0  0
  -21.4119  -29.3026   22.3740 N   0  0  0  0  0  0
  -26.4304  -37.3812   23.9403 N   0  0  0  0  0  0
  -24.6603  -31.0840   22.1014 N   0  0  0  0  0  0
  -23.4174  -28.8209   23.3041 O   0  0  0  0  0  0
  -28.3802  -26.6781   20.0329 O   0  0  0  0  0  0
  -26.5590  -34.8937   22.4704 O   0  0  0  0  0  0
  -23.5296  -32.1445   23.7546 O   0  0  0  0  0  0
  -30.6326  -21.4202   21.2644 C   0  0  0  0  0  0
  -30.3253  -22.3488   22.2241 C   0  0  0  0  0  0
  -30.2999  -20.1822   21.8771 C   0  0  0  0  0  0
  -29.8687  -23.6479   24.7606 C   0  0  0  0  0  0
  -29.6890  -24.4631   23.4646 C   0  0  0  0  0  0
  -31.0067  -17.0999   22.7867 C   0  0  0  0  0  0
  -29.4283  -22.1811   24.5958 C   0  0  0  0  0  0
  -30.6811  -15.6066   22.7475 C   0  0  0  0  0  0
  -29.7545  -16.6062   20.7946 C   0  0  0  0  0  0
  -30.4618  -23.8503   22.2707 C   0  0  2  0  0  0
  -29.9913  -17.7116   21.8305 C   0  0  2  0  0  0
  -30.5286  -25.8583   20.7388 C   0  0  0  0  0  0
  -29.4365  -26.9210   20.9570 C   0  0  0  0  0  0
  -29.8405  -20.3059   23.1078 N   0  0  0  0  0  0
  -29.8761  -21.6397   23.3255 N   0  0  0  0  0  0
  -30.1498  -15.3308   21.4089 N   0  0  0  0  0  0
  -30.4498  -18.9582   21.2253 N   0  0  0  0  0  0
  -30.0589  -24.4688   20.9847 N   0  3  0  0  0  0
  -31.4624  -12.3796   19.1051 H   0  0  0  0  0  0
  -30.3092  -11.2673   19.7851 H   0  0  0  0  0  0
  -29.7254  -11.8112   17.4045 H   0  0  0  0  0  0
  -29.6629  -13.5142   17.7881 H   0  0  0  0  0  0
  -27.8198  -11.3215   18.7970 H   0  0  0  0  0  0
  -27.3600  -12.6649   17.7880 H   0  0  0  0  0  0
  -27.7226  -14.2564   19.6064 H   0  0  0  0  0  0
  -28.6690  -11.9154   21.3275 H   0  0  0  0  0  0
  -28.4644  -13.5435   21.8857 H   0  0  0  0  0  0
  -25.2754   -9.5678   22.4748 H   0  0  0  0  0  0
  -23.9985   -7.4639   22.7479 H   0  0  0  0  0  0
  -21.0837   -8.8785   19.8955 H   0  0  0  0  0  0
  -22.3697  -10.9675   19.6155 H   0  0  0  0  0  0
  -21.2007   -7.6149   23.9718 H   0  0  0  0  0  0
  -21.1479   -6.0525   25.9077 H   0  0  0  0  0  0
  -22.0597   -2.7609   23.2856 H   0  0  0  0  0  0
  -22.4112  -11.9892   22.4767 H   0  0  0  0  0  0
  -21.1130  -13.1266   22.2599 H   0  0  0  0  0  0
  -24.6717  -15.8476   20.5175 H   0  0  0  0  0  0
  -26.2952  -15.6247   20.1070 H   0  0  0  0  0  0
  -26.7083  -32.5595   23.1202 H   0  0  0  0  0  0
  -25.0049  -33.9831   25.0509 H   0  0  0  0  0  0
  -22.6840  -31.3068   21.4117 H   0  0  0  0  0  0
  -23.3750  -35.9661   23.3330 H   0  0  0  0  0  0
  -24.3574  -36.8909   22.2045 H   0  0  0  0  0  0
  -23.7241  -37.6541   23.6629 H   0  0  0  0  0  0
  -26.0205  -31.6105   20.5867 H   0  0  0  0  0  0
  -26.8115  -30.9139   21.9724 H   0  0  0  0  0  0
  -28.0782  -29.1744   21.1841 H   0  0  0  0  0  0
  -26.1087  -25.9949   19.0133 H   0  0  0  0  0  0
  -23.9985  -27.2869   19.0372 H   0  0  0  0  0  0
  -23.7080  -30.5935   19.4040 H   0  0  0  0  0  0
  -22.7341  -29.2328   19.8751 H   0  0  0  0  0  0
  -25.1284  -36.2019   25.0835 H   0  0  0  0  0  0
  -20.9940  -28.3221   24.1450 H   0  0  0  0  0  0
  -20.5661  -26.2263   23.3603 H   0  0  0  0  0  0
  -21.6631  -26.7448   22.1215 H   0  0  0  0  0  0
  -19.6907  -25.6301   21.1230 H   0  0  0  0  0  0
  -19.6684  -27.3201   20.6750 H   0  0  0  0  0  0
  -17.4190  -26.6670   21.4015 H   0  0  0  0  0  0
  -18.0313  -26.0055   22.9004 H   0  0  0  0  0  0
  -19.7924  -30.7235   24.2308 H   0  0  0  0  0  0
  -17.5011  -31.6269   24.5160 H   0  0  0  0  0  0
  -15.5343  -30.3004   23.7631 H   0  0  0  0  0  0
  -15.8651  -28.0831   22.7056 H   0  0  0  0  0  0
  -24.5903  -30.7051   25.7817 H   0  0  0  0  0  0
  -24.8934  -32.2846   26.4959 H   0  0  0  0  0  0
  -25.8100  -30.8843   27.0220 H   0  0  0  0  0  0
  -26.2813  -29.6836   24.1123 H   0  0  0  0  0  0
  -27.4097  -29.7286   25.4483 H   0  0  0  0  0  0
  -27.8629  -30.4411   23.9164 H   0  0  0  0  0  0
  -27.2664  -33.3610   26.2094 H   0  0  0  0  0  0
  -28.3823  -32.6914   25.0287 H   0  0  0  0  0  0
  -28.0740  -31.8430   26.5358 H   0  0  0  0  0  0
  -28.2623  -38.0102   24.7511 H   0  0  0  0  0  0
  -28.1062  -36.2636   24.6303 H   0  0  0  0  0  0
  -27.2296  -37.1488   25.8867 H   0  0  0  0  0  0
  -20.9275  -29.8750   21.6967 H   0  0  0  0  0  0
  -26.0204  -38.2896   24.1399 H   0  0  0  0  0  0
  -31.0404  -21.5958   20.2790 H   0  0  0  0  0  0
  -29.3147  -24.1095   25.5782 H   0  0  0  0  0  0
  -30.9192  -23.6744   25.0533 H   0  0  0  0  0  0
  -30.0031  -25.4925   23.6332 H   0  0  0  0  0  0
  -28.6234  -24.4949   23.2327 H   0  0  0  0  0  0
  -32.0236  -17.2513   22.4193 H   0  0  0  0  0  0
  -30.9515  -17.5193   23.7925 H   0  0  0  0  0  0
  -28.3398  -22.1104   24.6263 H   0  0  0  0  0  0
  -29.8152  -21.5669   25.4104 H   0  0  0  0  0  0
  -31.5581  -15.0058   22.9981 H   0  0  0  0  0  0
  -29.9064  -15.3664   23.4770 H   0  0  0  0  0  0
  -30.3344  -16.7904   19.8868 H   0  0  0  0  0  0
  -28.7054  -16.5706   20.4979 H   0  0  0  0  0  0
  -31.5237  -24.0546   22.4197 H   0  0  0  0  0  0
  -29.0564  -17.8791   22.3690 H   0  0  0  0  0  0
  -31.4011  -26.0874   21.3522 H   0  0  0  0  0  0
  -30.8662  -25.9201   19.7042 H   0  0  0  0  0  0
  -29.8690  -27.9071   20.7817 H   0  0  0  0  0  0
  -29.0634  -26.9012   21.9814 H   0  0  0  0  0  0
  -30.7810  -18.9504   20.2659 H   0  0  0  0  0  0
  -29.0600  -24.4104   20.8588 H   0  0  0  0  0  0
  -30.4704  -23.8934   20.2677 H   0  0  0  0  0  0
  1 25  1  0  0  0
  1 30  2  0  0  0
  1 86  1  0  0  0
  2  3  1  0  0  0
  2 25  1  0  0  0
  2 89  1  0  0  0
  2 90  1  0  0  0
  3  4  1  0  0  0
  3 91  1  0  0  0
  3 92  1  0  0  0
  4  5  1  0  0  0
  4 93  1  0  0  0
  4 94  1  0  0  0
  5  6  1  0  0  0
  5 26  1  0  0  0
  5 95  1  0  0  0
  6 25  1  0  0  0
  6 96  1  0  0  0
  6 97  1  0  0  0
  7  8  2  0  0  0
  7 26  1  0  0  0
  7 29  1  0  0  0
  8  9  1  0  0  0
  8 22  1  0  0  0
  9 10  1  0  0  0
  9 27  2  0  0  0
 10 11  2  0  0  0
 10 15  1  0  0  0
 11 12  1  0  0  0
 11 98  1  0  0  0
 12 13  2  0  0  0
 12 99  1  0  0  0
 13 14  1  0  0  0
 13 31  1  0  0  0
 14 15  2  0  0  0
 14100  1  0  0  0
 15101  1  0  0  0
 16 17  2  0  0  0
 16 21  1  0  0  0
 16 31  1  0  0  0
 17 18  1  0  0  0
 17102  1  0  0  0
 18 19  2  0  0  0
 18103  1  0  0  0
 19 20  1  0  0  0
 19 24  1  0  0  0
 20 21  2  0  0  0
 20104  1  0  0  0
 21 23  1  0  0  0
 22 28  1  0  0  0
 22 32  2  0  0  0
 26 27  1  0  0  0
 28105  1  0  0  0
 28106  1  0  0  0
 29107  1  0  0  0
 29108  1  0  0  0
 33 34  1  0  0  0
 33 66  1  0  0  0
 33 70  2  0  0  0
 34 36  1  0  0  0
 34 59  1  0  0  0
 34109  1  0  0  0
 35 44  2  0  0  0
 35 45  1  0  0  0
 35 68  1  0  0  0
 36 56  1  0  0  0
 36110  1  0  0  0
 37 39  1  0  0  0
 37 47  1  0  0  0
 37 66  1  0  0  0
 37111  1  0  0  0
 38 43  2  0  0  0
 38 46  1  0  0  0
 38 47  1  0  0  0
 39 64  1  0  0  0
 39 67  2  0  0  0
 40 52  1  0  0  0
 40 53  2  0  0  0
 40 58  1  0  0  0
 41112  1  0  0  0
 41113  1  0  0  0
 41114  1  0  0  0
 41 48  1  0  0  0
 42 43  1  0  0  0
 42 66  1  0  0  0
 42115  1  0  0  0
 42116  1  0  0  0
 43 44  1  0  0  0
 44117  1  0  0  0
 45 46  2  0  0  0
 45118  1  0  0  0
 46119  1  0  0  0
 47120  1  0  0  0
 47121  1  0  0  0
 48 56  1  0  0  0
 48 65  1  0  0  0
 48122  1  0  0  0
 49 50  1  0  0  0
 49 53  1  0  0  0
 49 64  1  0  0  0
 49123  1  0  0  0
 50 51  1  0  0  0
 50124  1  0  0  0
 50125  1  0  0  0
 51 52  1  0  0  0
 51126  1  0  0  0
 51127  1  0  0  0
 52128  1  0  0  0
 52129  1  0  0  0
 53 54  1  0  0  0
 54 55  2  0  0  0
 54130  1  0  0  0
 55 57  1  0  0  0
 55131  1  0  0  0
 56 69  2  0  0  0
 57 58  2  0  0  0
 57132  1  0  0  0
 58133  1  0  0  0
 59 60  1  0  0  0
 59 61  1  0  0  0
 59 62  1  0  0  0
 60134  1  0  0  0
 60135  1  0  0  0
 60136  1  0  0  0
 61137  1  0  0  0
 61138  1  0  0  0
 61139  1  0  0  0
 62140  1  0  0  0
 62141  1  0  0  0
 62142  1  0  0  0
 63 65  1  0  0  0
 63143  1  0  0  0
 63144  1  0  0  0
 63145  1  0  0  0
 64146  1  0  0  0
 65147  1  0  0  0
 68 83  1  0  0  0
 71 72  2  0  0  0
 71 73  1  0  0  0
 71148  1  0  0  0
 72 80  1  0  0  0
 72 85  1  0  0  0
 73 84  2  0  0  0
 73 87  1  0  0  0
 74 75  1  0  0  0
 74 77  1  0  0  0
 74149  1  0  0  0
 74150  1  0  0  0
 75 80  1  0  0  0
 75151  1  0  0  0
 75152  1  0  0  0
 76 78  1  0  0  0
 76 81  1  0  0  0
 76153  1  0  0  0
 76154  1  0  0  0
 77 85  1  0  0  0
 77155  1  0  0  0
 77156  1  0  0  0
 78 86  1  0  0  0
 78157  1  0  0  0
 78158  1  0  0  0
 79 81  1  0  0  0
 79 86  1  0  0  0
 79159  1  0  0  0
 79160  1  0  0  0
 80 88  1  0  0  0
 80161  1  0  0  0
 81 87  1  0  0  0
 81162  1  0  0  0
 82 83  1  0  0  0
 82 88  1  0  0  0
 82163  1  0  0  0
 82164  1  0  0  0
 83165  1  0  0  0
 83166  1  0  0  0
 84 85  1  0  0  0
 87167  1  0  0  0
 88168  1  0  0  0
 88169  1  0  0  0
M  CHG  1  88   1
M  ISO  4   1 100  68 101  83 101  86 100
M  END
> <chiral flag>
0

> <version>
0

> <s_m_source_file>
/data/baiqing/PycharmProjects/Reinvent-master-3.2/result/LINK_invent/BTK/process_docking_weight1_custom_sum_contain_oxygen_bond_distance_aromatic_linkinvent_7_9_3/rearranged_h_0195.sdf

> <i_m_source_file_index>
2

> <r_mmod_Potential_Energy-OPLS-2005>
-195.669876098633

> <r_mmod_Stretch_Energy-OPLS-2005>
33.2017021179199

> <r_mmod_Bend_Energy-OPLS-2005>
130.287963867188

> <r_mmod_Torsional_Energy-OPLS-2005>
351.359436035156

> <r_mmod_Improper_Torsional_Energy-OPLS-2005>
6.62144565582275

> <r_mmod_Van_der_Waal_Energy-OPLS-2005>
131.802154541016

> <r_mmod_Electrostatic_Energy-OPLS-2005>
-386.095184326172

> <r_mmod_Solvation_Energy-OPLS-2005>
-469.507568359375

> <b_mmod_Minimization_Converged-OPLS-2005>
0

> <r_mmod_RMS_Derivative-OPLS-2005>
1.2259327173233

$$$$
2
                    3D
 Structure written by MMmdl.
164173  0  0  1  0            999 V2000
  -30.7688  -14.5066   20.5616 C   0  0  0  0  0  0
  -30.3909  -12.3283   19.4619 C   0  0  0  0  0  0
  -29.5176  -12.4936   18.1944 C   0  0  0  0  0  0
  -28.0358  -12.8264   18.4983 C   0  0  0  0  0  0
  -27.7057  -12.7368   19.9866 C   0  0  2  0  0  0
  -28.7011  -13.1894   21.0469 C   0  0  0  0  0  0
  -25.3094  -13.7484   20.5508 C   0  0  0  0  0  0
  -24.1868  -13.0393   20.9148 C   0  0  0  0  0  0
  -24.5711  -11.6687   20.8942 C   0  0  0  0  0  0
  -23.8407  -10.4234   21.0643 C   0  0  0  0  0  0
  -24.3202   -9.4153   21.9294 C   0  0  0  0  0  0
  -23.6052   -8.2110   22.0735 C   0  0  0  0  0  0
  -22.4056   -8.0146   21.3510 C   0  0  0  0  0  0
  -21.9588   -9.0092   20.4618 C   0  0  0  0  0  0
  -22.6727  -10.2054   20.3128 C   0  0  0  0  0  0
  -21.6791   -6.0625   22.5291 C   0  0  0  0  0  0
  -21.3962   -6.5576   23.8209 C   0  0  0  0  0  0
  -21.3633   -5.6751   24.9202 C   0  0  0  0  0  0
  -21.6033   -4.3014   24.7281 C   0  0  0  0  0  0
  -21.8823   -3.8076   23.4423 C   0  0  0  0  0  0
  -21.9168   -4.6863   22.3447 C   0  0  0  0  0  0
  -22.8010  -13.5511   21.1878 C   0  0  0  0  0  0
  -22.1652   -4.2049   21.1024 F   0  0  0  0  0  0
  -21.5659   -3.4518   25.7810 F   0  0  0  0  0  0
  -30.0308  -13.3764   20.4362 N   0  0  0  0  0  0
  -26.3003  -12.7782   20.3628 N   0  0  0  0  0  0
  -25.8316  -11.5474   20.6023 N   0  0  0  0  0  0
  -22.0520  -12.8554   22.0385 N   0  0  0  0  0  0
  -25.5627  -15.1051   20.3675 N   0  0  0  0  0  0
  -31.8975  -14.6373   20.0848 O   0  0  0  0  0  0
  -21.6512   -6.8709   21.4208 O   0  0  0  0  0  0
  -22.3834  -14.5880   20.6746 O   0  0  0  0  0  0
  -24.6139  -31.8686   23.2143 C   0  0  0  0  0  0
  -25.9046  -32.4815   23.8420 C   0  0  1  0  0  0
  -27.2241  -27.4275   20.0619 C   0  0  0  0  0  0
  -25.5896  -33.8619   24.2334 N   0  0  0  0  0  0
  -23.4001  -30.4986   21.5572 C   0  0  2  0  0  0
  -24.8402  -28.9733   20.1165 C   0  0  0  0  0  0
  -22.7404  -29.4655   22.4999 C   0  0  0  0  0  0
  -18.0272  -28.1357   22.8497 C   0  0  0  0  0  0
  -24.1494  -36.7320   23.2641 C   0  0  0  0  0  0
  -25.9356  -30.8241   21.3778 C   0  0  0  0  0  0
  -26.0056  -29.4624   20.7165 C   0  0  0  0  0  0
  -27.1941  -28.6937   20.6977 C   0  0  0  0  0  0
  -26.0226  -26.9587   19.4686 C   0  0  0  0  0  0
  -24.8437  -27.7177   19.4976 C   0  0  0  0  0  0
  -23.6063  -29.8422   20.1692 C   0  0  0  0  0  0
  -25.4117  -36.3117   24.0343 C   0  0  1  0  0  0
  -20.5856  -28.3649   23.1310 C   0  0  2  0  0  0
  -20.6758  -26.9390   22.5395 C   0  0  0  0  0  0
  -19.5731  -26.6380   21.5196 C   0  0  0  0  0  0
  -18.1917  -26.7907   22.1629 C   0  0  0  0  0  0
  -19.1518  -28.8822   23.2899 C   0  0  0  0  0  0
  -18.9454  -30.1427   23.8911 C   0  0  0  0  0  0
  -17.6458  -30.6570   24.0559 C   0  0  0  0  0  0
  -25.9038  -34.9476   23.5140 C   0  0  0  0  0  0
  -16.5350  -29.9065   23.6320 C   0  0  0  0  0  0
  -16.7264  -28.6471   23.0363 C   0  0  0  0  0  0
  -26.4481  -31.6597   25.0745 C   0  0  0  0  0  0
  -25.3756  -31.3695   26.1488 C   0  0  0  0  0  0
  -27.0308  -30.3035   24.6141 C   0  0  0  0  0  0
  -27.6058  -32.4322   25.7498 C   0  0  0  0  0  0
  -27.5587  -37.1818   24.8469 C   0  0  0  0  0  0
  -21.4137  -29.3022   22.3733 N   0  0  0  0  0  0
  -26.4309  -37.3794   23.9400 N   0  0  0  0  0  0
  -24.6676  -31.0775   22.1062 N   0  0  0  0  0  0
  -23.4174  -28.8164   23.3015 O   0  0  0  0  0  0
  -28.4067  -26.6991   20.0599 O   0  0  0  0  0  0
  -26.5594  -34.8921   22.4698 O   0  0  0  0  0  0
  -23.5332  -32.1459   23.7525 O   0  0  0  0  0  0
  -30.6883  -19.0711   19.7562 C   0  0  0  0  0  0
  -29.7487  -17.5871   17.5994 C   0  0  0  0  0  0
  -30.4955  -19.7015   18.5111 C   0  0  0  0  0  0
  -30.0511  -18.9449   17.4384 C   0  0  0  0  0  0
  -30.3869  -17.6892   19.8450 C   0  0  0  0  0  0
  -29.9661  -19.7440   16.1727 C   0  0  0  0  0  0
  -30.1623  -21.1961   16.6555 C   0  0  0  0  0  0
  -30.7312  -21.1464   18.1111 C   0  0  1  0  0  0
  -30.5962  -16.9306   21.1590 C   0  0  0  0  0  0
  -29.6237  -23.3976   18.5141 C   0  0  0  0  0  0
  -28.5462  -25.6115   19.1277 C   0  0  0  0  0  0
  -29.5612  -24.5316   19.5703 C   0  0  1  0  0  0
  -29.9027  -16.9777   18.7925 N   0  0  0  0  0  0
  -29.1317  -23.9980   20.8570 N   0  0  0  0  0  0
  -30.1450  -15.5367   21.1448 N   0  0  0  0  0  0
  -30.1180  -22.1092   19.0607 N   0  3  0  0  0  0
  -31.4484  -12.3447   19.1959 H   0  0  0  0  0  0
  -30.2217  -11.3500   19.9178 H   0  0  0  0  0  0
  -29.5734  -11.5812   17.5994 H   0  0  0  0  0  0
  -29.9356  -13.2818   17.5648 H   0  0  0  0  0  0
  -27.3775  -12.1814   17.9160 H   0  0  0  0  0  0
  -27.8243  -13.8425   18.1667 H   0  0  0  0  0  0
  -27.9546  -11.6735   20.0683 H   0  0  0  0  0  0
  -28.7747  -12.4421   21.8406 H   0  0  0  0  0  0
  -28.2958  -14.0718   21.5371 H   0  0  0  0  0  0
  -25.2357   -9.5706   22.4847 H   0  0  0  0  0  0
  -23.9862   -7.4469   22.7377 H   0  0  0  0  0  0
  -21.0546   -8.8522   19.8900 H   0  0  0  0  0  0
  -22.3194  -10.9612   19.6252 H   0  0  0  0  0  0
  -21.1932   -7.6075   23.9703 H   0  0  0  0  0  0
  -21.1456   -6.0494   25.9102 H   0  0  0  0  0  0
  -22.0629   -2.7535   23.2961 H   0  0  0  0  0  0
  -22.3989  -12.0063   22.4630 H   0  0  0  0  0  0
  -21.1222  -13.1726   22.2689 H   0  0  0  0  0  0
  -24.8581  -15.8256   20.4687 H   0  0  0  0  0  0
  -26.4495  -15.4572   20.0249 H   0  0  0  0  0  0
  -26.7078  -32.5500   23.1143 H   0  0  0  0  0  0
  -25.0049  -33.9788   25.0475 H   0  0  0  0  0  0
  -22.6888  -31.3156   21.4225 H   0  0  0  0  0  0
  -23.3752  -35.9651   23.3328 H   0  0  0  0  0  0
  -24.3594  -36.8910   22.2046 H   0  0  0  0  0  0
  -23.7246  -37.6543   23.6632 H   0  0  0  0  0  0
  -26.0656  -31.5952   20.6172 H   0  0  0  0  0  0
  -26.8173  -30.8599   22.0062 H   0  0  0  0  0  0
  -28.0922  -29.0718   21.1662 H   0  0  0  0  0  0
  -25.9191  -26.0093   18.9707 H   0  0  0  0  0  0
  -23.9457  -27.3322   19.0333 H   0  0  0  0  0  0
  -23.7156  -30.6198   19.4127 H   0  0  0  0  0  0
  -22.7286  -29.2670   19.8723 H   0  0  0  0  0  0
  -25.1289  -36.2005   25.0836 H   0  0  0  0  0  0
  -20.9952  -28.3208   24.1432 H   0  0  0  0  0  0
  -20.5654  -26.2267   23.3581 H   0  0  0  0  0  0
  -21.6632  -26.7418   22.1197 H   0  0  0  0  0  0
  -19.6906  -25.6295   21.1215 H   0  0  0  0  0  0
  -19.6675  -27.3199   20.6729 H   0  0  0  0  0  0
  -17.4185  -26.6649   21.4039 H   0  0  0  0  0  0
  -18.0335  -26.0031   22.9009 H   0  0  0  0  0  0
  -19.7937  -30.7219   24.2309 H   0  0  0  0  0  0
  -17.5025  -31.6265   24.5139 H   0  0  0  0  0  0
  -15.5353  -30.2981   23.7636 H   0  0  0  0  0  0
  -15.8663  -28.0787   22.7102 H   0  0  0  0  0  0
  -24.5935  -30.7030   25.7832 H   0  0  0  0  0  0
  -24.8937  -32.2839   26.4949 H   0  0  0  0  0  0
  -25.8122  -30.8866   27.0235 H   0  0  0  0  0  0
  -26.2846  -29.6797   24.1196 H   0  0  0  0  0  0
  -27.4065  -29.7274   25.4607 H   0  0  0  0  0  0
  -27.8700  -30.4348   23.9307 H   0  0  0  0  0  0
  -27.2676  -33.3606   26.2104 H   0  0  0  0  0  0
  -28.3847  -32.6901   25.0314 H   0  0  0  0  0  0
  -28.0740  -31.8431   26.5391 H   0  0  0  0  0  0
  -28.2617  -38.0101   24.7494 H   0  0  0  0  0  0
  -28.1075  -36.2636   24.6327 H   0  0  0  0  0  0
  -27.2299  -37.1492   25.8870 H   0  0  0  0  0  0
  -20.9285  -29.8799   21.7010 H   0  0  0  0  0  0
  -26.0219  -38.2886   24.1373 H   0  0  0  0  0  0
  -31.0617  -19.6149   20.6130 H   0  0  0  0  0  0
  -29.4059  -16.9813   16.7757 H   0  0  0  0  0  0
  -29.0097  -19.6000   15.6679 H   0  0  0  0  0  0
  -30.7655  -19.4377   15.5003 H   0  0  0  0  0  0
  -29.1702  -21.6404   16.6354 H   0  0  0  0  0  0
  -30.7881  -21.7869   15.9851 H   0  0  0  0  0  0
  -31.8068  -21.3211   18.0801 H   0  0  0  0  0  0
  -31.6491  -16.9822   21.4375 H   0  0  0  0  0  0
  -30.0390  -17.4511   21.9376 H   0  0  0  0  0  0
  -30.2549  -23.7326   17.6895 H   0  0  0  0  0  0
  -28.6326  -23.2203   18.0925 H   0  0  0  0  0  0
  -27.6282  -25.0561   18.9754 H   0  0  0  0  0  0
  -28.8261  -26.0218   18.1564 H   0  0  0  0  0  0
  -30.5527  -24.9743   19.6837 H   0  0  0  0  0  0
  -28.1359  -23.8032   20.8195 H   0  0  0  0  0  0
  -29.1845  -24.7643   21.5233 H   0  0  0  0  0  0
  -29.1996  -15.3708   21.4454 H   0  0  0  0  0  0
  -30.7811  -22.3179   19.7887 H   0  0  0  0  0  0
  -29.3437  -21.6584   19.5171 H   0  0  0  0  0  0
  1 25  1  0  0  0
  1 30  2  0  0  0
  1 85  1  0  0  0
  2  3  1  0  0  0
  2 25  1  0  0  0
  2 87  1  0  0  0
  2 88  1  0  0  0
  3  4  1  0  0  0
  3 89  1  0  0  0
  3 90  1  0  0  0
  4  5  1  0  0  0
  4 91  1  0  0  0
  4 92  1  0  0  0
  5  6  1  0  0  0
  5 26  1  0  0  0
  5 93  1  0  0  0
  6 25  1  0  0  0
  6 94  1  0  0  0
  6 95  1  0  0  0
  7  8  2  0  0  0
  7 26  1  0  0  0
  7 29  1  0  0  0
  8  9  1  0  0  0
  8 22  1  0  0  0
  9 10  1  0  0  0
  9 27  2  0  0  0
 10 11  2  0  0  0
 10 15  1  0  0  0
 11 12  1  0  0  0
 11 96  1  0  0  0
 12 13  2  0  0  0
 12 97  1  0  0  0
 13 14  1  0  0  0
 13 31  1  0  0  0
 14 15  2  0  0  0
 14 98  1  0  0  0
 15 99  1  0  0  0
 16 17  2  0  0  0
 16 21  1  0  0  0
 16 31  1  0  0  0
 17 18  1  0  0  0
 17100  1  0  0  0
 18 19  2  0  0  0
 18101  1  0  0  0
 19 20  1  0  0  0
 19 24  1  0  0  0
 20 21  2  0  0  0
 20102  1  0  0  0
 21 23  1  0  0  0
 22 28  1  0  0  0
 22 32  2  0  0  0
 26 27  1  0  0  0
 28103  1  0  0  0
 28104  1  0  0  0
 29105  1  0  0  0
 29106  1  0  0  0
 33 34  1  0  0  0
 33 66  1  0  0  0
 33 70  2  0  0  0
 34 36  1  0  0  0
 34 59  1  0  0  0
 34107  1  0  0  0
 35 44  2  0  0  0
 35 45  1  0  0  0
 35 68  1  0  0  0
 36 56  1  0  0  0
 36108  1  0  0  0
 37 39  1  0  0  0
 37 47  1  0  0  0
 37 66  1  0  0  0
 37109  1  0  0  0
 38 43  2  0  0  0
 38 46  1  0  0  0
 38 47  1  0  0  0
 39 64  1  0  0  0
 39 67  2  0  0  0
 40 52  1  0  0  0
 40 53  2  0  0  0
 40 58  1  0  0  0
 41110  1  0  0  0
 41111  1  0  0  0
 41112  1  0  0  0
 41 48  1  0  0  0
 42 43  1  0  0  0
 42 66  1  0  0  0
 42113  1  0  0  0
 42114  1  0  0  0
 43 44  1  0  0  0
 44115  1  0  0  0
 45 46  2  0  0  0
 45116  1  0  0  0
 46117  1  0  0  0
 47118  1  0  0  0
 47119  1  0  0  0
 48 56  1  0  0  0
 48 65  1  0  0  0
 48120  1  0  0  0
 49 50  1  0  0  0
 49 53  1  0  0  0
 49 64  1  0  0  0
 49121  1  0  0  0
 50 51  1  0  0  0
 50122  1  0  0  0
 50123  1  0  0  0
 51 52  1  0  0  0
 51124  1  0  0  0
 51125  1  0  0  0
 52126  1  0  0  0
 52127  1  0  0  0
 53 54  1  0  0  0
 54 55  2  0  0  0
 54128  1  0  0  0
 55 57  1  0  0  0
 55129  1  0  0  0
 56 69  2  0  0  0
 57 58  2  0  0  0
 57130  1  0  0  0
 58131  1  0  0  0
 59 60  1  0  0  0
 59 61  1  0  0  0
 59 62  1  0  0  0
 60132  1  0  0  0
 60133  1  0  0  0
 60134  1  0  0  0
 61135  1  0  0  0
 61136  1  0  0  0
 61137  1  0  0  0
 62138  1  0  0  0
 62139  1  0  0  0
 62140  1  0  0  0
 63 65  1  0  0  0
 63141  1  0  0  0
 63142  1  0  0  0
 63143  1  0  0  0
 64144  1  0  0  0
 65145  1  0  0  0
 68 81  1  0  0  0
 71 73  2  0  0  0
 71 75  1  0  0  0
 71146  1  0  0  0
 72 74  2  0  0  0
 72 83  1  0  0  0
 72147  1  0  0  0
 73 74  1  0  0  0
 73 78  1  0  0  0
 74 76  1  0  0  0
 75 79  1  0  0  0
 75 83  2  0  0  0
 76 77  1  0  0  0
 76148  1  0  0  0
 76149  1  0  0  0
 77 78  1  0  0  0
 77150  1  0  0  0
 77151  1  0  0  0
 78 86  1  0  0  0
 78152  1  0  0  0
 79 85  1  0  0  0
 79153  1  0  0  0
 79154  1  0  0  0
 80 82  1  0  0  0
 80 86  1  0  0  0
 80155  1  0  0  0
 80156  1  0  0  0
 81 82  1  0  0  0
 81157  1  0  0  0
 81158  1  0  0  0
 82 84  1  0  0  0
 82159  1  0  0  0
 84160  1  0  0  0
 84161  1  0  0  0
 85162  1  0  0  0
 86163  1  0  0  0
 86164  1  0  0  0
M  CHG  1  86   1
M  ISO  4   1 100  68 101  81 101  85 100
M  END
> <chiral flag>
0

> <version>
0

> <s_m_source_file>
/data/baiqing/PycharmProjects/Reinvent-master-3.2/result/LINK_invent/BTK/process_docking_weight1_custom_sum_contain_oxygen_bond_distance_aromatic_linkinvent_7_9_3/rearranged_h_0195.sdf

> <i_m_source_file_index>
3

> <r_mmod_Potential_Energy-OPLS-2005>
-423.692352294922

> <r_mmod_Stretch_Energy-OPLS-2005>
38.5362663269043

> <r_mmod_Bend_Energy-OPLS-2005>
198.78532409668

> <r_mmod_Torsional_Energy-OPLS-2005>
250.823593139648

> <r_mmod_Improper_Torsional_Energy-OPLS-2005>
2.6653881072998

> <r_mmod_Van_der_Waal_Energy-OPLS-2005>
189.300643920898

> <r_mmod_Electrostatic_Energy-OPLS-2005>
-691.3388671875

> <r_mmod_Solvation_Energy-OPLS-2005>
-491.444976806641

> <b_mmod_Minimization_Converged-OPLS-2005>
0

> <r_mmod_RMS_Derivative-OPLS-2005>
3.85959434509277

$$$$
3
                    3D
 Structure written by MMmdl.
165174  0  0  1  0            999 V2000
  -30.6616  -14.6160   20.4547 C   0  0  0  0  0  0
  -30.4224  -12.3711   19.4416 C   0  0  0  0  0  0
  -29.4932  -12.4653   18.2138 C   0  0  0  0  0  0
  -28.0146  -12.3375   18.6326 C   0  0  0  0  0  0
  -27.6443  -13.2162   19.8590 C   0  0  2  0  0  0
  -28.6975  -13.1062   20.9827 C   0  0  0  0  0  0
  -25.2536  -13.8175   20.5728 C   0  0  0  0  0  0
  -24.1808  -13.0434   20.9219 C   0  0  0  0  0  0
  -24.6409  -11.6911   20.8810 C   0  0  0  0  0  0
  -23.9107  -10.4288   21.0462 C   0  0  0  0  0  0
  -24.3660   -9.4194   21.9229 C   0  0  0  0  0  0
  -23.6314   -8.2236   22.0798 C   0  0  0  0  0  0
  -22.4294   -8.0301   21.3570 C   0  0  0  0  0  0
  -21.9942   -9.0292   20.4661 C   0  0  0  0  0  0
  -22.7293  -10.2161   20.3078 C   0  0  0  0  0  0
  -21.6843   -6.0751   22.5297 C   0  0  0  0  0  0
  -21.4004   -6.5661   23.8226 C   0  0  0  0  0  0
  -21.3649   -5.6816   24.9198 C   0  0  0  0  0  0
  -21.6044   -4.3080   24.7241 C   0  0  0  0  0  0
  -21.8823   -3.8162   23.4364 C   0  0  0  0  0  0
  -21.9188   -4.6981   22.3414 C   0  0  0  0  0  0
  -22.7833  -13.5231   21.1846 C   0  0  0  0  0  0
  -22.1657   -4.2158   21.0993 F   0  0  0  0  0  0
  -21.5632   -3.4557   25.7752 F   0  0  0  0  0  0
  -30.0016  -13.4209   20.3887 N   0  0  0  0  0  0
  -26.2959  -12.9345   20.3374 N   0  0  0  0  0  0
  -25.9323  -11.6505   20.5828 N   0  0  0  0  0  0
  -22.0461  -12.8221   22.0404 N   0  0  0  0  0  0
  -25.4289  -15.1893   20.4157 N   0  0  0  0  0  0
  -31.8643  -14.6963   20.1881 O   0  0  0  0  0  0
  -21.6636   -6.8913   21.4265 O   0  0  0  0  0  0
  -22.3513  -14.5526   20.6680 O   0  0  0  0  0  0
  -24.6246  -31.8648   23.2091 C   0  0  0  0  0  0
  -25.9115  -32.4802   23.8387 C   0  0  1  0  0  0
  -27.1945  -27.3375   20.0971 C   0  0  0  0  0  0
  -25.5957  -33.8607   24.2306 N   0  0  0  0  0  0
  -23.4117  -30.4960   21.5547 C   0  0  2  0  0  0
  -24.8492  -28.9634   20.1096 C   0  0  0  0  0  0
  -22.7453  -29.4655   22.4970 C   0  0  0  0  0  0
  -18.0290  -28.1391   22.8495 C   0  0  0  0  0  0
  -24.1506  -36.7295   23.2627 C   0  0  0  0  0  0
  -25.9539  -30.8019   21.3774 C   0  0  0  0  0  0
  -26.0227  -29.4352   20.7109 C   0  0  0  0  0  0
  -27.2001  -28.6321   20.6985 C   0  0  0  0  0  0
  -25.9972  -26.9263   19.4625 C   0  0  0  0  0  0
  -24.8359  -27.7126   19.4819 C   0  0  0  0  0  0
  -23.6195  -29.8430   20.1659 C   0  0  0  0  0  0
  -25.4124  -36.3089   24.0318 C   0  0  1  0  0  0
  -20.5888  -28.3685   23.1310 C   0  0  2  0  0  0
  -20.6793  -26.9413   22.5419 C   0  0  0  0  0  0
  -19.5763  -26.6381   21.5225 C   0  0  0  0  0  0
  -18.1931  -26.7938   22.1631 C   0  0  0  0  0  0
  -19.1543  -28.8853   23.2896 C   0  0  0  0  0  0
  -18.9461  -30.1461   23.8910 C   0  0  0  0  0  0
  -17.6460  -30.6593   24.0564 C   0  0  0  0  0  0
  -25.9061  -34.9463   23.5095 C   0  0  0  0  0  0
  -16.5345  -29.9087   23.6345 C   0  0  0  0  0  0
  -16.7273  -28.6509   23.0346 C   0  0  0  0  0  0
  -26.4488  -31.6604   25.0755 C   0  0  0  0  0  0
  -25.3709  -31.3742   26.1468 C   0  0  0  0  0  0
  -27.0313  -30.3022   24.6200 C   0  0  0  0  0  0
  -27.6041  -32.4326   25.7551 C   0  0  0  0  0  0
  -27.5599  -37.1792   24.8445 C   0  0  0  0  0  0
  -21.4170  -29.3053   22.3713 N   0  0  0  0  0  0
  -26.4294  -37.3791   23.9411 N   0  0  0  0  0  0
  -24.6826  -31.0692   22.1031 N   0  0  0  0  0  0
  -23.4204  -28.8167   23.3006 O   0  0  0  0  0  0
  -28.2977  -26.4760   20.1571 O   0  0  0  0  0  0
  -26.5614  -34.8914   22.4652 O   0  0  0  0  0  0
  -23.5429  -32.1430   23.7460 O   0  0  0  0  0  0
  -28.4191  -20.6543   18.6063 C   0  0  0  0  0  0
  -28.4731  -22.1969   18.6747 C   0  0  0  0  0  0
  -29.6232  -16.3883   19.1841 C   0  0  0  0  0  0
  -30.3119  -16.8259   21.4702 C   0  0  0  0  0  0
  -29.3078  -21.3665   20.6882 C   0  0  0  0  0  0
  -28.7985  -17.7141   19.1975 C   0  0  0  0  0  0
  -29.5060  -18.1758   21.4414 C   0  0  0  0  0  0
  -28.6360  -20.1110   20.0319 C   0  0  2  0  0  0
  -30.4874  -24.2324   19.9329 C   0  0  0  0  0  0
  -28.0518  -25.0496   19.8712 C   0  0  0  0  0  0
  -29.0519  -23.9458   20.4042 C   0  0  1  0  0  0
  -29.9089  -15.7700   20.5030 N   0  0  0  0  0  0
  -28.6192  -22.5409   20.0889 N   0  0  0  0  0  0
  -29.3712  -18.7719   20.0831 N   0  3  0  0  0  0
  -31.4629  -12.4827   19.1306 H   0  0  0  0  0  0
  -30.3536  -11.3877   19.9083 H   0  0  0  0  0  0
  -29.7413  -11.6830   17.4960 H   0  0  0  0  0  0
  -29.6503  -13.4122   17.6969 H   0  0  0  0  0  0
  -27.8302  -11.2868   18.8626 H   0  0  0  0  0  0
  -27.3665  -12.5819   17.7891 H   0  0  0  0  0  0
  -27.6481  -14.2438   19.5048 H   0  0  0  0  0  0
  -28.7072  -12.1014   21.4089 H   0  0  0  0  0  0
  -28.4641  -13.7896   21.8014 H   0  0  0  0  0  0
  -25.2827   -9.5631   22.4783 H   0  0  0  0  0  0
  -24.0012   -7.4611   22.7507 H   0  0  0  0  0  0
  -21.0884   -8.8847   19.8925 H   0  0  0  0  0  0
  -22.3827  -10.9725   19.6165 H   0  0  0  0  0  0
  -21.2002   -7.6170   23.9729 H   0  0  0  0  0  0
  -21.1452   -6.0553   25.9099 H   0  0  0  0  0  0
  -22.0605   -2.7619   23.2873 H   0  0  0  0  0  0
  -22.4091  -11.9883   22.4777 H   0  0  0  0  0  0
  -21.1069  -13.1227   22.2578 H   0  0  0  0  0  0
  -24.6700  -15.8521   20.5278 H   0  0  0  0  0  0
  -26.2940  -15.6209   20.1197 H   0  0  0  0  0  0
  -26.7176  -32.5464   23.1127 H   0  0  0  0  0  0
  -25.0130  -33.9770   25.0466 H   0  0  0  0  0  0
  -22.7023  -31.3164   21.4231 H   0  0  0  0  0  0
  -23.3799  -35.9597   23.3234 H   0  0  0  0  0  0
  -24.3601  -36.8983   22.2055 H   0  0  0  0  0  0
  -23.7232  -37.6456   23.6698 H   0  0  0  0  0  0
  -26.0872  -31.5729   20.6181 H   0  0  0  0  0  0
  -26.8347  -30.8408   22.0067 H   0  0  0  0  0  0
  -28.1001  -28.9869   21.1812 H   0  0  0  0  0  0
  -25.9118  -25.9802   18.9498 H   0  0  0  0  0  0
  -23.9312  -27.3494   19.0142 H   0  0  0  0  0  0
  -23.7368  -30.6255   19.4153 H   0  0  0  0  0  0
  -22.7364  -29.2767   19.8646 H   0  0  0  0  0  0
  -25.1307  -36.1911   25.0810 H   0  0  0  0  0  0
  -20.9981  -28.3259   24.1434 H   0  0  0  0  0  0
  -20.5738  -26.2275   23.3609 H   0  0  0  0  0  0
  -21.6655  -26.7480   22.1182 H   0  0  0  0  0  0
  -19.6914  -25.6288   21.1268 H   0  0  0  0  0  0
  -19.6701  -27.3189   20.6751 H   0  0  0  0  0  0
  -17.4209  -26.6715   21.4012 H   0  0  0  0  0  0
  -18.0297  -26.0069   22.9019 H   0  0  0  0  0  0
  -19.7923  -30.7288   24.2269 H   0  0  0  0  0  0
  -17.5001  -31.6275   24.5163 H   0  0  0  0  0  0
  -15.5341  -30.2982   23.7661 H   0  0  0  0  0  0
  -15.8678  -28.0821   22.7056 H   0  0  0  0  0  0
  -24.5863  -30.7125   25.7778 H   0  0  0  0  0  0
  -24.8929  -32.2922   26.4902 H   0  0  0  0  0  0
  -25.8020  -30.8888   27.0233 H   0  0  0  0  0  0
  -26.2881  -29.6797   24.1207 H   0  0  0  0  0  0
  -27.3971  -29.7254   25.4704 H   0  0  0  0  0  0
  -27.8773  -30.4285   23.9441 H   0  0  0  0  0  0
  -27.2621  -33.3595   26.2170 H   0  0  0  0  0  0
  -28.3857  -32.6938   25.0402 H   0  0  0  0  0  0
  -28.0701  -31.8420   26.5451 H   0  0  0  0  0  0
  -28.2549  -38.0168   24.7612 H   0  0  0  0  0  0
  -28.1180  -36.2699   24.6134 H   0  0  0  0  0  0
  -27.2322  -37.1257   25.8849 H   0  0  0  0  0  0
  -20.9322  -29.8777   21.6938 H   0  0  0  0  0  0
  -26.0167  -38.2842   24.1494 H   0  0  0  0  0  0
  -29.2026  -20.3167   17.9273 H   0  0  0  0  0  0
  -27.4690  -20.3089   18.1950 H   0  0  0  0  0  0
  -27.5812  -22.6561   18.2431 H   0  0  0  0  0  0
  -29.3313  -22.5506   18.1022 H   0  0  0  0  0  0
  -30.5711  -16.5817   18.6756 H   0  0  0  0  0  0
  -29.1063  -15.6679   18.5488 H   0  0  0  0  0  0
  -30.2510  -16.4113   22.4779 H   0  0  0  0  0  0
  -31.3659  -17.0606   21.3103 H   0  0  0  0  0  0
  -30.3686  -21.3900   20.4348 H   0  0  0  0  0  0
  -29.2217  -21.3615   21.7771 H   0  0  0  0  0  0
  -27.7716  -17.5059   19.5031 H   0  0  0  0  0  0
  -28.7265  -18.0729   18.1714 H   0  0  0  0  0  0
  -29.9854  -18.8983   22.1031 H   0  0  0  0  0  0
  -28.5085  -18.0109   21.8522 H   0  0  0  0  0  0
  -27.6557  -19.9753   20.4925 H   0  0  0  0  0  0
  -30.8317  -25.1820   20.3465 H   0  0  0  0  0  0
  -30.5547  -24.3201   18.8487 H   0  0  0  0  0  0
  -31.1944  -23.4711   20.2630 H   0  0  0  0  0  0
  -27.0876  -24.7628   20.2946 H   0  0  0  0  0  0
  -27.9602  -24.9523   18.7871 H   0  0  0  0  0  0
  -29.0473  -24.0204   21.4929 H   0  0  0  0  0  0
  -30.3053  -18.9504   19.7470 H   0  0  0  0  0  0
  1 25  1  0  0  0
  1 30  2  0  0  0
  1 82  1  0  0  0
  2  3  1  0  0  0
  2 25  1  0  0  0
  2 85  1  0  0  0
  2 86  1  0  0  0
  3  4  1  0  0  0
  3 87  1  0  0  0
  3 88  1  0  0  0
  4  5  1  0  0  0
  4 89  1  0  0  0
  4 90  1  0  0  0
  5  6  1  0  0  0
  5 26  1  0  0  0
  5 91  1  0  0  0
  6 25  1  0  0  0
  6 92  1  0  0  0
  6 93  1  0  0  0
  7  8  2  0  0  0
  7 26  1  0  0  0
  7 29  1  0  0  0
  8  9  1  0  0  0
  8 22  1  0  0  0
  9 10  1  0  0  0
  9 27  2  0  0  0
 10 11  2  0  0  0
 10 15  1  0  0  0
 11 12  1  0  0  0
 11 94  1  0  0  0
 12 13  2  0  0  0
 12 95  1  0  0  0
 13 14  1  0  0  0
 13 31  1  0  0  0
 14 15  2  0  0  0
 14 96  1  0  0  0
 15 97  1  0  0  0
 16 17  2  0  0  0
 16 21  1  0  0  0
 16 31  1  0  0  0
 17 18  1  0  0  0
 17 98  1  0  0  0
 18 19  2  0  0  0
 18 99  1  0  0  0
 19 20  1  0  0  0
 19 24  1  0  0  0
 20 21  2  0  0  0
 20100  1  0  0  0
 21 23  1  0  0  0
 22 28  1  0  0  0
 22 32  2  0  0  0
 26 27  1  0  0  0
 28101  1  0  0  0
 28102  1  0  0  0
 29103  1  0  0  0
 29104  1  0  0  0
 33 34  1  0  0  0
 33 66  1  0  0  0
 33 70  2  0  0  0
 34 36  1  0  0  0
 34 59  1  0  0  0
 34105  1  0  0  0
 35 44  2  0  0  0
 35 45  1  0  0  0
 35 68  1  0  0  0
 36 56  1  0  0  0
 36106  1  0  0  0
 37 39  1  0  0  0
 37 47  1  0  0  0
 37 66  1  0  0  0
 37107  1  0  0  0
 38 43  2  0  0  0
 38 46  1  0  0  0
 38 47  1  0  0  0
 39 64  1  0  0  0
 39 67  2  0  0  0
 40 52  1  0  0  0
 40 53  2  0  0  0
 40 58  1  0  0  0
 41108  1  0  0  0
 41109  1  0  0  0
 41110  1  0  0  0
 41 48  1  0  0  0
 42 43  1  0  0  0
 42 66  1  0  0  0
 42111  1  0  0  0
 42112  1  0  0  0
 43 44  1  0  0  0
 44113  1  0  0  0
 45 46  2  0  0  0
 45114  1  0  0  0
 46115  1  0  0  0
 47116  1  0  0  0
 47117  1  0  0  0
 48 56  1  0  0  0
 48 65  1  0  0  0
 48118  1  0  0  0
 49 50  1  0  0  0
 49 53  1  0  0  0
 49 64  1  0  0  0
 49119  1  0  0  0
 50 51  1  0  0  0
 50120  1  0  0  0
 50121  1  0  0  0
 51 52  1  0  0  0
 51122  1  0  0  0
 51123  1  0  0  0
 52124  1  0  0  0
 52125  1  0  0  0
 53 54  1  0  0  0
 54 55  2  0  0  0
 54126  1  0  0  0
 55 57  1  0  0  0
 55127  1  0  0  0
 56 69  2  0  0  0
 57 58  2  0  0  0
 57128  1  0  0  0
 58129  1  0  0  0
 59 60  1  0  0  0
 59 61  1  0  0  0
 59 62  1  0  0  0
 60130  1  0  0  0
 60131  1  0  0  0
 60132  1  0  0  0
 61133  1  0  0  0
 61134  1  0  0  0
 61135  1  0  0  0
 62136  1  0  0  0
 62137  1  0  0  0
 62138  1  0  0  0
 63 65  1  0  0  0
 63139  1  0  0  0
 63140  1  0  0  0
 63141  1  0  0  0
 64142  1  0  0  0
 65143  1  0  0  0
 68 80  1  0  0  0
 71 72  1  0  0  0
 71144  1  0  0  0
 71145  1  0  0  0
 71 78  1  0  0  0
 72 83  1  0  0  0
 72146  1  0  0  0
 72147  1  0  0  0
 73 76  1  0  0  0
 73 82  1  0  0  0
 73148  1  0  0  0
 73149  1  0  0  0
 74 77  1  0  0  0
 74 82  1  0  0  0
 74150  1  0  0  0
 74151  1  0  0  0
 75 78  1  0  0  0
 75 83  1  0  0  0
 75152  1  0  0  0
 75153  1  0  0  0
 76154  1  0  0  0
 76155  1  0  0  0
 76 84  1  0  0  0
 77 84  1  0  0  0
 77156  1  0  0  0
 77157  1  0  0  0
 78 84  1  0  0  0
 78158  1  0  0  0
 79159  1  0  0  0
 79160  1  0  0  0
 79161  1  0  0  0
 79 81  1  0  0  0
 80 81  1  0  0  0
 80162  1  0  0  0
 80163  1  0  0  0
 81 83  1  0  0  0
 81164  1  0  0  0
 84165  1  0  0  0
M  CHG  1  84   1
M  ISO  4   1 100  68 101  80 101  82 100
M  END
> <chiral flag>
0

> <version>
0

> <s_m_source_file>
/data/baiqing/PycharmProjects/Reinvent-master-3.2/result/LINK_invent/BTK/process_docking_weight1_custom_sum_contain_oxygen_bond_distance_aromatic_linkinvent_7_9_3/rearranged_h_0195.sdf

> <i_m_source_file_index>
4

> <r_mmod_Potential_Energy-OPLS-2005>
261.949401855469

> <r_mmod_Stretch_Energy-OPLS-2005>
71.2528839111328

> <r_mmod_Bend_Energy-OPLS-2005>
171.999282836914

> <r_mmod_Torsional_Energy-OPLS-2005>
449.57373046875

> <r_mmod_Improper_Torsional_Energy-OPLS-2005>
12.3430604934692

> <r_mmod_Van_der_Waal_Energy-OPLS-2005>
136.020477294922

> <r_mmod_Electrostatic_Energy-OPLS-2005>
-186.076797485352

> <r_mmod_Solvation_Energy-OPLS-2005>
-442.386993408203

> <b_mmod_Minimization_Converged-OPLS-2005>
0

> <r_mmod_RMS_Derivative-OPLS-2005>
2.67782306671143

$$$$
4
                    3D
 Structure written by MMmdl.
164174  0  0  1  0            999 V2000
  -30.6981  -14.4633   20.5428 C   0  0  0  0  0  0
  -30.4232  -12.3051   19.3900 C   0  0  0  0  0  0
  -29.4759  -12.4827   18.1848 C   0  0  0  0  0  0
  -28.0068  -12.3249   18.6243 C   0  0  0  0  0  0
  -27.6573  -13.1911   19.8651 C   0  0  2  0  0  0
  -28.7074  -12.9808   20.9794 C   0  0  0  0  0  0
  -25.2600  -13.8136   20.5701 C   0  0  0  0  0  0
  -24.1832  -13.0414   20.9172 C   0  0  0  0  0  0
  -24.6377  -11.6903   20.8753 C   0  0  0  0  0  0
  -23.9048  -10.4289   21.0418 C   0  0  0  0  0  0
  -24.3584   -9.4213   21.9200 C   0  0  0  0  0  0
  -23.6270   -8.2229   22.0763 C   0  0  0  0  0  0
  -22.4251   -8.0268   21.3551 C   0  0  0  0  0  0
  -21.9876   -9.0237   20.4666 C   0  0  0  0  0  0
  -22.7195  -10.2138   20.3082 C   0  0  0  0  0  0
  -21.6864   -6.0744   22.5273 C   0  0  0  0  0  0
  -21.4000   -6.5651   23.8201 C   0  0  0  0  0  0
  -21.3656   -5.6815   24.9173 C   0  0  0  0  0  0
  -21.6034   -4.3066   24.7230 C   0  0  0  0  0  0
  -21.8832   -3.8149   23.4356 C   0  0  0  0  0  0
  -21.9178   -4.6963   22.3408 C   0  0  0  0  0  0
  -22.7868  -13.5267   21.1874 C   0  0  0  0  0  0
  -22.1670   -4.2148   21.0993 F   0  0  0  0  0  0
  -21.5624   -3.4553   25.7760 F   0  0  0  0  0  0
  -30.0300  -13.2866   20.4127 N   0  0  0  0  0  0
  -26.3018  -12.9263   20.3373 N   0  0  0  0  0  0
  -25.9310  -11.6449   20.5786 N   0  0  0  0  0  0
  -22.0518  -12.8222   22.0437 N   0  0  0  0  0  0
  -25.4354  -15.1814   20.4047 N   0  0  0  0  0  0
  -31.8141  -14.6578   20.0508 O   0  0  0  0  0  0
  -21.6614   -6.8868   21.4241 O   0  0  0  0  0  0
  -22.3556  -14.5551   20.6766 O   0  0  0  0  0  0
  -24.6120  -31.8593   23.2026 C   0  0  0  0  0  0
  -25.9021  -32.4753   23.8310 C   0  0  1  0  0  0
  -27.3020  -27.4781   20.0923 C   0  0  0  0  0  0
  -25.5900  -33.8555   24.2281 N   0  0  0  0  0  0
  -23.3999  -30.4785   21.5337 C   0  0  2  0  0  0
  -24.8660  -28.9233   20.1246 C   0  0  0  0  0  0
  -22.7382  -29.4619   22.4917 C   0  0  0  0  0  0
  -18.0257  -28.1372   22.8490 C   0  0  0  0  0  0
  -24.1532  -36.7361   23.2631 C   0  0  0  0  0  0
  -25.9116  -30.8464   21.3253 C   0  0  0  0  0  0
  -26.0106  -29.4653   20.7178 C   0  0  0  0  0  0
  -27.2222  -28.7473   20.7033 C   0  0  0  0  0  0
  -26.1430  -26.9402   19.4802 C   0  0  0  0  0  0
  -24.9240  -27.6541   19.5141 C   0  0  0  0  0  0
  -23.6222  -29.7880   20.1575 C   0  0  0  0  0  0
  -25.4121  -36.3050   24.0335 C   0  0  1  0  0  0
  -20.5845  -28.3657   23.1342 C   0  0  2  0  0  0
  -20.6727  -26.9383   22.5452 C   0  0  0  0  0  0
  -19.5726  -26.6386   21.5205 C   0  0  0  0  0  0
  -18.1897  -26.7926   22.1605 C   0  0  0  0  0  0
  -19.1509  -28.8809   23.2927 C   0  0  0  0  0  0
  -18.9456  -30.1419   23.8936 C   0  0  0  0  0  0
  -17.6461  -30.6565   24.0585 C   0  0  0  0  0  0
  -25.9033  -34.9422   23.5091 C   0  0  0  0  0  0
  -16.5351  -29.9103   23.6290 C   0  0  0  0  0  0
  -16.7255  -28.6530   23.0286 C   0  0  0  0  0  0
  -26.4527  -31.6472   25.0564 C   0  0  0  0  0  0
  -25.3887  -31.3535   26.1398 C   0  0  0  0  0  0
  -27.0360  -30.2970   24.5747 C   0  0  0  0  0  0
  -27.6100  -32.4172   25.7351 C   0  0  0  0  0  0
  -27.5583  -37.1821   24.8449 C   0  0  0  0  0  0
  -21.4092  -29.3045   22.3748 N   0  0  0  0  0  0
  -26.4280  -37.3756   23.9403 N   0  0  0  0  0  0
  -24.6609  -31.0749   22.0847 N   0  0  0  0  0  0
  -23.4193  -28.8155   23.2919 O   0  0  0  0  0  0
  -28.5507  -26.8960   20.1119 O   0  0  0  0  0  0
  -26.5605  -34.8891   22.4659 O   0  0  0  0  0  0
  -23.5339  -32.1315   23.7474 O   0  0  0  0  0  0
  -31.2019  -18.4105   23.0883 C   0  0  0  0  0  0
  -30.5984  -17.4585   22.2739 C   0  0  0  0  0  0
  -30.0929  -17.8547   21.0704 C   0  0  0  0  0  0
  -30.8067  -19.9874   21.4363 C   0  0  0  0  0  0
  -30.5430  -15.9637   22.4197 C   0  0  0  0  0  0
  -29.5992  -16.6511   20.3119 C   0  0  0  0  0  0
  -29.9141  -22.4304   21.5408 C   0  0  0  0  0  0
  -30.1825  -23.0277   19.3330 C   0  0  0  0  0  0
  -30.9816  -21.4623   21.0139 C   0  0  2  0  0  0
  -31.0896  -21.7913   19.5051 C   0  0  2  0  0  0
  -29.0347  -24.6295   20.8691 C   0  0  0  0  0  0
  -28.8308  -25.5762   19.6572 C   0  0  0  0  0  0
  -31.3015  -19.6814   22.6449 N   0  0  0  0  0  0
  -30.1573  -19.1299   20.6303 N   0  0  0  0  0  0
  -30.0123  -15.4732   21.1295 N   0  0  0  0  0  0
  -30.0798  -23.6063   20.6753 N   0  0  0  0  0  0
  -32.4643  -22.1205   19.0816 N   0  3  0  0  0  0
  -31.4639  -12.4202   19.0707 H   0  0  0  0  0  0
  -30.3462  -11.2946   19.7961 H   0  0  0  0  0  0
  -29.7070  -11.7489   17.4106 H   0  0  0  0  0  0
  -29.6195  -13.4670   17.7341 H   0  0  0  0  0  0
  -27.8506  -11.2715   18.8607 H   0  0  0  0  0  0
  -27.3316  -12.5513   17.7972 H   0  0  0  0  0  0
  -27.6966  -14.2330   19.5528 H   0  0  0  0  0  0
  -28.6878  -11.9490   21.3242 H   0  0  0  0  0  0
  -28.4739  -13.5824   21.8575 H   0  0  0  0  0  0
  -25.2742   -9.5688   22.4774 H   0  0  0  0  0  0
  -23.9997   -7.4617   22.7468 H   0  0  0  0  0  0
  -21.0817   -8.8771   19.8958 H   0  0  0  0  0  0
  -22.3648  -10.9700   19.6188 H   0  0  0  0  0  0
  -21.1996   -7.6149   23.9718 H   0  0  0  0  0  0
  -21.1470   -6.0541   25.9090 H   0  0  0  0  0  0
  -22.0600   -2.7621   23.2865 H   0  0  0  0  0  0
  -22.4122  -11.9825   22.4724 H   0  0  0  0  0  0
  -21.1155  -13.1276   22.2729 H   0  0  0  0  0  0
  -24.6713  -15.8416   20.5092 H   0  0  0  0  0  0
  -26.2912  -15.6161   20.0856 H   0  0  0  0  0  0
  -26.7080  -32.5528   23.1086 H   0  0  0  0  0  0
  -25.0068  -33.9694   25.0434 H   0  0  0  0  0  0
  -22.6841  -31.2888   21.3763 H   0  0  0  0  0  0
  -23.3697  -35.9783   23.3247 H   0  0  0  0  0  0
  -24.3637  -36.9022   22.2038 H   0  0  0  0  0  0
  -23.7402  -37.6611   23.6692 H   0  0  0  0  0  0
  -25.9428  -31.5738   20.5100 H   0  0  0  0  0  0
  -26.8253  -30.9785   21.8865 H   0  0  0  0  0  0
  -28.1101  -29.1799   21.1453 H   0  0  0  0  0  0
  -26.1649  -25.9983   18.9483 H   0  0  0  0  0  0
  -24.0480  -27.2274   19.0449 H   0  0  0  0  0  0
  -23.7684  -30.5492   19.3926 H   0  0  0  0  0  0
  -22.7433  -29.2258   19.8342 H   0  0  0  0  0  0
  -25.1292  -36.1855   25.0823 H   0  0  0  0  0  0
  -20.9952  -28.3219   24.1457 H   0  0  0  0  0  0
  -20.5520  -26.2275   23.3661 H   0  0  0  0  0  0
  -21.6618  -26.7345   22.1317 H   0  0  0  0  0  0
  -19.6886  -25.6298   21.1210 H   0  0  0  0  0  0
  -19.6665  -27.3215   20.6758 H   0  0  0  0  0  0
  -17.4181  -26.6680   21.3991 H   0  0  0  0  0  0
  -18.0285  -26.0029   22.8965 H   0  0  0  0  0  0
  -19.7925  -30.7196   24.2340 H   0  0  0  0  0  0
  -17.5021  -31.6223   24.5216 H   0  0  0  0  0  0
  -15.5357  -30.3028   23.7548 H   0  0  0  0  0  0
  -15.8667  -28.0875   22.6933 H   0  0  0  0  0  0
  -24.6002  -30.6926   25.7781 H   0  0  0  0  0  0
  -24.9187  -32.2694   26.4978 H   0  0  0  0  0  0
  -25.8352  -30.8617   27.0052 H   0  0  0  0  0  0
  -26.2808  -29.6617   24.1098 H   0  0  0  0  0  0
  -27.4600  -29.7265   25.4016 H   0  0  0  0  0  0
  -27.8389  -30.4382   23.8510 H   0  0  0  0  0  0
  -27.2674  -33.3376   26.2098 H   0  0  0  0  0  0
  -28.3858  -32.6863   25.0166 H   0  0  0  0  0  0
  -28.0848  -31.8186   26.5143 H   0  0  0  0  0  0
  -28.2576  -38.0141   24.7458 H   0  0  0  0  0  0
  -28.1118  -36.2663   24.6286 H   0  0  0  0  0  0
  -27.2335  -37.1475   25.8870 H   0  0  0  0  0  0
  -20.9215  -29.8915   21.7119 H   0  0  0  0  0  0
  -26.0136  -38.2821   24.1402 H   0  0  0  0  0  0
  -31.6516  -18.1533   24.0347 H   0  0  0  0  0  0
  -31.5571  -15.6047   22.6153 H   0  0  0  0  0  0
  -29.8911  -15.6432   23.2350 H   0  0  0  0  0  0
  -28.5143  -16.6926   20.2206 H   0  0  0  0  0  0
  -30.0213  -16.6538   19.3061 H   0  0  0  0  0  0
  -30.0728  -22.6468   22.5999 H   0  0  0  0  0  0
  -28.9162  -22.0003   21.4290 H   0  0  0  0  0  0
  -29.2023  -22.7321   18.9565 H   0  0  0  0  0  0
  -30.6086  -23.7398   18.6223 H   0  0  0  0  0  0
  -31.9089  -21.7836   21.4922 H   0  0  0  0  0  0
  -30.7189  -20.9773   18.8786 H   0  0  0  0  0  0
  -28.0733  -24.1867   21.1294 H   0  0  0  0  0  0
  -29.3325  -25.2262   21.7334 H   0  0  0  0  0  0
  -28.1143  -25.1808   18.9337 H   0  0  0  0  0  0
  -29.7663  -25.6633   19.1099 H   0  0  0  0  0  0
  -32.8193  -22.8854   19.6291 H   0  0  0  0  0  0
  -32.4495  -22.4060   18.1171 H   0  0  0  0  0  0
  -33.0812  -21.3329   19.1666 H   0  0  0  0  0  0
  1 25  1  0  0  0
  1 30  2  0  0  0
  1 85  1  0  0  0
  2  3  1  0  0  0
  2 25  1  0  0  0
  2 88  1  0  0  0
  2 89  1  0  0  0
  3  4  1  0  0  0
  3 90  1  0  0  0
  3 91  1  0  0  0
  4  5  1  0  0  0
  4 92  1  0  0  0
  4 93  1  0  0  0
  5  6  1  0  0  0
  5 26  1  0  0  0
  5 94  1  0  0  0
  6 25  1  0  0  0
  6 95  1  0  0  0
  6 96  1  0  0  0
  7  8  2  0  0  0
  7 26  1  0  0  0
  7 29  1  0  0  0
  8  9  1  0  0  0
  8 22  1  0  0  0
  9 10  1  0  0  0
  9 27  2  0  0  0
 10 11  2  0  0  0
 10 15  1  0  0  0
 11 12  1  0  0  0
 11 97  1  0  0  0
 12 13  2  0  0  0
 12 98  1  0  0  0
 13 14  1  0  0  0
 13 31  1  0  0  0
 14 15  2  0  0  0
 14 99  1  0  0  0
 15100  1  0  0  0
 16 17  2  0  0  0
 16 21  1  0  0  0
 16 31  1  0  0  0
 17 18  1  0  0  0
 17101  1  0  0  0
 18 19  2  0  0  0
 18102  1  0  0  0
 19 20  1  0  0  0
 19 24  1  0  0  0
 20 21  2  0  0  0
 20103  1  0  0  0
 21 23  1  0  0  0
 22 28  1  0  0  0
 22 32  2  0  0  0
 26 27  1  0  0  0
 28104  1  0  0  0
 28105  1  0  0  0
 29106  1  0  0  0
 29107  1  0  0  0
 33 34  1  0  0  0
 33 66  1  0  0  0
 33 70  2  0  0  0
 34 36  1  0  0  0
 34 59  1  0  0  0
 34108  1  0  0  0
 35 44  2  0  0  0
 35 45  1  0  0  0
 35 68  1  0  0  0
 36 56  1  0  0  0
 36109  1  0  0  0
 37 39  1  0  0  0
 37 47  1  0  0  0
 37 66  1  0  0  0
 37110  1  0  0  0
 38 43  2  0  0  0
 38 46  1  0  0  0
 38 47  1  0  0  0
 39 64  1  0  0  0
 39 67  2  0  0  0
 40 52  1  0  0  0
 40 53  2  0  0  0
 40 58  1  0  0  0
 41111  1  0  0  0
 41112  1  0  0  0
 41113  1  0  0  0
 41 48  1  0  0  0
 42 43  1  0  0  0
 42 66  1  0  0  0
 42114  1  0  0  0
 42115  1  0  0  0
 43 44  1  0  0  0
 44116  1  0  0  0
 45 46  2  0  0  0
 45117  1  0  0  0
 46118  1  0  0  0
 47119  1  0  0  0
 47120  1  0  0  0
 48 56  1  0  0  0
 48 65  1  0  0  0
 48121  1  0  0  0
 49 50  1  0  0  0
 49 53  1  0  0  0
 49 64  1  0  0  0
 49122  1  0  0  0
 50 51  1  0  0  0
 50123  1  0  0  0
 50124  1  0  0  0
 51 52  1  0  0  0
 51125  1  0  0  0
 51126  1  0  0  0
 52127  1  0  0  0
 52128  1  0  0  0
 53 54  1  0  0  0
 54 55  2  0  0  0
 54129  1  0  0  0
 55 57  1  0  0  0
 55130  1  0  0  0
 56 69  2  0  0  0
 57 58  2  0  0  0
 57131  1  0  0  0
 58132  1  0  0  0
 59 60  1  0  0  0
 59 61  1  0  0  0
 59 62  1  0  0  0
 60133  1  0  0  0
 60134  1  0  0  0
 60135  1  0  0  0
 61136  1  0  0  0
 61137  1  0  0  0
 61138  1  0  0  0
 62139  1  0  0  0
 62140  1  0  0  0
 62141  1  0  0  0
 63 65  1  0  0  0
 63142  1  0  0  0
 63143  1  0  0  0
 63144  1  0  0  0
 64145  1  0  0  0
 65146  1  0  0  0
 68 82  1  0  0  0
 71 72  2  0  0  0
 71 83  1  0  0  0
 71147  1  0  0  0
 72 73  1  0  0  0
 72 75  1  0  0  0
 73 76  1  0  0  0
 73 84  2  0  0  0
 74 83  2  0  0  0
 74 84  1  0  0  0
 74 79  1  0  0  0
 75 85  1  0  0  0
 75148  1  0  0  0
 75149  1  0  0  0
 76 85  1  0  0  0
 76150  1  0  0  0
 76151  1  0  0  0
 77 79  1  0  0  0
 77 86  1  0  0  0
 77152  1  0  0  0
 77153  1  0  0  0
 78 80  1  0  0  0
 78 86  1  0  0  0
 78154  1  0  0  0
 78155  1  0  0  0
 79 80  1  0  0  0
 79156  1  0  0  0
 80 87  1  0  0  0
 80157  1  0  0  0
 81 82  1  0  0  0
 81 86  1  0  0  0
 81158  1  0  0  0
 81159  1  0  0  0
 82160  1  0  0  0
 82161  1  0  0  0
 87162  1  0  0  0
 87163  1  0  0  0
 87164  1  0  0  0
M  CHG  1  87   1
M  ISO  4   1 100  68 101  82 101  85 100
M  END
> <chiral flag>
0

> <version>
0

> <s_m_source_file>
/data/baiqing/PycharmProjects/Reinvent-master-3.2/result/LINK_invent/BTK/process_docking_weight1_custom_sum_contain_oxygen_bond_distance_aromatic_linkinvent_7_9_3/rearranged_h_0195.sdf

> <i_m_source_file_index>
5

> <r_mmod_Potential_Energy-OPLS-2005>
-361.066101074219

> <r_mmod_Stretch_Energy-OPLS-2005>
45.3215179443359

> <r_mmod_Bend_Energy-OPLS-2005>
206.531692504883

> <r_mmod_Torsional_Energy-OPLS-2005>
317.479125976562

> <r_mmod_Improper_Torsional_Energy-OPLS-2005>
8.69762802124023

> <r_mmod_Van_der_Waal_Energy-OPLS-2005>
160.492721557617

> <r_mmod_Electrostatic_Energy-OPLS-2005>
-621.86962890625

> <r_mmod_Solvation_Energy-OPLS-2005>
-495.771484375

> <b_mmod_Minimization_Converged-OPLS-2005>
0

> <r_mmod_RMS_Derivative-OPLS-2005>
7.60307884216309

$$$$
5
                    3D
 Structure written by MMmdl.
178188  0  0  1  0            999 V2000
  -30.7598  -14.4314   20.6680 C   0  0  0  0  0  0
  -30.4201  -12.3191   19.4249 C   0  0  0  0  0  0
  -29.4890  -12.5164   18.2129 C   0  0  0  0  0  0
  -28.0171  -12.3476   18.6308 C   0  0  0  0  0  0
  -27.6598  -13.1959   19.8760 C   0  0  2  0  0  0
  -28.6989  -12.9989   21.0054 C   0  0  0  0  0  0
  -25.2590  -13.8148   20.5684 C   0  0  0  0  0  0
  -24.1839  -13.0447   20.9183 C   0  0  0  0  0  0
  -24.6377  -11.6906   20.8754 C   0  0  0  0  0  0
  -23.9037  -10.4299   21.0422 C   0  0  0  0  0  0
  -24.3590   -9.4213   21.9199 C   0  0  0  0  0  0
  -23.6272   -8.2250   22.0770 C   0  0  0  0  0  0
  -22.4255   -8.0292   21.3546 C   0  0  0  0  0  0
  -21.9885   -9.0267   20.4656 C   0  0  0  0  0  0
  -22.7208  -10.2147   20.3069 C   0  0  0  0  0  0
  -21.6853   -6.0734   22.5277 C   0  0  0  0  0  0
  -21.4016   -6.5644   23.8211 C   0  0  0  0  0  0
  -21.3653   -5.6798   24.9170 C   0  0  0  0  0  0
  -21.6040   -4.3058   24.7225 C   0  0  0  0  0  0
  -21.8817   -3.8145   23.4341 C   0  0  0  0  0  0
  -21.9191   -4.6963   22.3403 C   0  0  0  0  0  0
  -22.7849  -13.5264   21.1831 C   0  0  0  0  0  0
  -22.1659   -4.2156   21.0973 F   0  0  0  0  0  0
  -21.5620   -3.4537   25.7729 F   0  0  0  0  0  0
  -30.0378  -13.2918   20.4640 N   0  0  0  0  0  0
  -26.3012  -12.9290   20.3369 N   0  0  0  0  0  0
  -25.9300  -11.6460   20.5784 N   0  0  0  0  0  0
  -22.0474  -12.8283   22.0386 N   0  0  0  0  0  0
  -25.4348  -15.1870   20.4089 N   0  0  0  0  0  0
  -31.8234  -14.6547   20.0791 O   0  0  0  0  0  0
  -21.6629   -6.8876   21.4242 O   0  0  0  0  0  0
  -22.3553  -14.5575   20.6678 O   0  0  0  0  0  0
  -24.6079  -31.8688   23.2188 C   0  0  0  0  0  0
  -25.8975  -32.4858   23.8464 C   0  0  1  0  0  0
  -27.2737  -27.4949   20.0904 C   0  0  0  0  0  0
  -25.5822  -33.8656   24.2376 N   0  0  0  0  0  0
  -23.3953  -30.4927   21.5533 C   0  0  2  0  0  0
  -24.8518  -28.9629   20.1177 C   0  0  0  0  0  0
  -22.7375  -29.4662   22.5031 C   0  0  0  0  0  0
  -18.0261  -28.1354   22.8493 C   0  0  0  0  0  0
  -24.1501  -36.7339   23.2635 C   0  0  0  0  0  0
  -25.9153  -30.8533   21.3646 C   0  0  0  0  0  0
  -25.9999  -29.4877   20.7195 C   0  0  0  0  0  0
  -27.2060  -28.7609   20.7200 C   0  0  0  0  0  0
  -26.1042  -26.9724   19.5008 C   0  0  0  0  0  0
  -24.8948  -27.6960   19.5096 C   0  0  0  0  0  0
  -23.6052  -29.8186   20.1680 C   0  0  0  0  0  0
  -25.4107  -36.3144   24.0369 C   0  0  1  0  0  0
  -20.5850  -28.3635   23.1326 C   0  0  2  0  0  0
  -20.6747  -26.9376   22.5423 C   0  0  0  0  0  0
  -19.5734  -26.6376   21.5203 C   0  0  0  0  0  0
  -18.1913  -26.7898   22.1623 C   0  0  0  0  0  0
  -19.1518  -28.8811   23.2906 C   0  0  0  0  0  0
  -18.9464  -30.1420   23.8918 C   0  0  0  0  0  0
  -17.6477  -30.6581   24.0568 C   0  0  0  0  0  0
  -25.9021  -34.9503   23.5189 C   0  0  0  0  0  0
  -16.5358  -29.9089   23.6328 C   0  0  0  0  0  0
  -16.7247  -28.6499   23.0344 C   0  0  0  0  0  0
  -26.4510  -31.6641   25.0737 C   0  0  0  0  0  0
  -25.3856  -31.3578   26.1533 C   0  0  0  0  0  0
  -27.0484  -30.3183   24.6027 C   0  0  0  0  0  0
  -27.6046  -32.4426   25.7499 C   0  0  0  0  0  0
  -27.5602  -37.1831   24.8452 C   0  0  0  0  0  0
  -21.4116  -29.3006   22.3733 N   0  0  0  0  0  0
  -26.4302  -37.3816   23.9414 N   0  0  0  0  0  0
  -24.6571  -31.0850   22.1049 N   0  0  0  0  0  0
  -23.4154  -28.8214   23.3079 O   0  0  0  0  0  0
  -28.4009  -26.7029   20.0045 O   0  0  0  0  0  0
  -26.5615  -34.8939   22.4770 O   0  0  0  0  0  0
  -23.5284  -32.1375   23.7618 O   0  0  0  0  0  0
  -30.1264  -19.9150   23.9460 C   0  0  0  0  0  0
  -27.5341  -20.2319   24.5033 C   0  0  0  0  0  0
  -29.2068  -18.8703   23.7583 C   0  0  0  0  0  0
  -29.6178  -21.1351   24.4068 C   0  0  0  0  0  0
  -31.0562  -24.5256   25.4137 C   0  0  0  0  0  0
  -31.0378  -25.7421   24.4782 C   0  0  0  0  0  0
  -29.2682  -24.2887   23.7354 C   0  0  0  0  0  0
  -30.9739  -17.2419   23.1113 C   0  0  0  0  0  0
  -28.6301  -17.0335   22.2499 C   0  0  0  0  0  0
  -31.1647  -15.7593   22.6888 C   0  0  0  0  0  0
  -29.3781  -16.3546   21.0927 C   0  0  0  0  0  0
  -29.9459  -23.5703   24.9226 C   0  0  1  0  0  0
  -29.6037  -25.7746   23.9361 C   0  0  2  0  0  0
  -30.5794  -26.9844   19.0997 C   0  0  0  0  0  0
  -30.2029  -26.3858   21.5403 C   0  0  0  0  0  0
  -29.7009  -27.1994   20.3366 C   0  0  2  0  0  0
  -27.9094  -19.0405   24.0527 N   0  0  0  0  0  0
  -28.3166  -21.2882   24.6872 N   0  0  0  0  0  0
  -29.5622  -17.6117   23.2219 N   0  0  0  0  0  0
  -30.2827  -15.3053   21.5866 N   0  0  0  0  0  0
  -30.4607  -22.2427   24.5745 N   0  0  0  0  0  0
  -29.3857  -26.6460   22.7519 N   0  3  0  0  0  0
  -31.4641  -12.4210   19.1200 H   0  0  0  0  0  0
  -30.3239  -11.3050   19.8179 H   0  0  0  0  0  0
  -29.7381  -11.8043   17.4242 H   0  0  0  0  0  0
  -29.6392  -13.5094   17.7880 H   0  0  0  0  0  0
  -27.8480  -11.2912   18.8406 H   0  0  0  0  0  0
  -27.3588  -12.6032   17.8003 H   0  0  0  0  0  0
  -27.6923  -14.2317   19.5508 H   0  0  0  0  0  0
  -28.6760  -11.9718   21.3722 H   0  0  0  0  0  0
  -28.4428  -13.6188   21.8654 H   0  0  0  0  0  0
  -25.2741   -9.5687   22.4765 H   0  0  0  0  0  0
  -23.9976   -7.4644   22.7496 H   0  0  0  0  0  0
  -21.0814   -8.8792   19.8966 H   0  0  0  0  0  0
  -22.3675  -10.9689   19.6178 H   0  0  0  0  0  0
  -21.2016   -7.6154   23.9712 H   0  0  0  0  0  0
  -21.1472   -6.0525   25.9072 H   0  0  0  0  0  0
  -22.0597   -2.7610   23.2837 H   0  0  0  0  0  0
  -22.4050  -11.9933   22.4783 H   0  0  0  0  0  0
  -21.1112  -13.1368   22.2603 H   0  0  0  0  0  0
  -24.6703  -15.8442   20.5184 H   0  0  0  0  0  0
  -26.2867  -15.6212   20.0812 H   0  0  0  0  0  0
  -26.7033  -32.5634   23.1240 H   0  0  0  0  0  0
  -24.9908  -33.9824   25.0465 H   0  0  0  0  0  0
  -22.6822  -31.3083   21.4085 H   0  0  0  0  0  0
  -23.3732  -35.9698   23.3298 H   0  0  0  0  0  0
  -24.3630  -36.8911   22.2048 H   0  0  0  0  0  0
  -23.7291  -37.6577   23.6606 H   0  0  0  0  0  0
  -26.0137  -31.6187   20.5940 H   0  0  0  0  0  0
  -26.8053  -30.9196   21.9777 H   0  0  0  0  0  0
  -28.0537  -29.2039   21.2159 H   0  0  0  0  0  0
  -26.1396  -26.0069   19.0177 H   0  0  0  0  0  0
  -24.0159  -27.2762   19.0414 H   0  0  0  0  0  0
  -23.7065  -30.5904   19.4051 H   0  0  0  0  0  0
  -22.7320  -29.2334   19.8723 H   0  0  0  0  0  0
  -25.1256  -36.2040   25.0861 H   0  0  0  0  0  0
  -20.9950  -28.3215   24.1443 H   0  0  0  0  0  0
  -20.5683  -26.2245   23.3620 H   0  0  0  0  0  0
  -21.6616  -26.7435   22.1208 H   0  0  0  0  0  0
  -19.6936  -25.6306   21.1194 H   0  0  0  0  0  0
  -19.6681  -27.3212   20.6751 H   0  0  0  0  0  0
  -17.4194  -26.6651   21.4014 H   0  0  0  0  0  0
  -18.0315  -26.0012   22.8991 H   0  0  0  0  0  0
  -19.7960  -30.7196   24.2313 H   0  0  0  0  0  0
  -17.5057  -31.6277   24.5148 H   0  0  0  0  0  0
  -15.5374  -30.3028   23.7645 H   0  0  0  0  0  0
  -15.8621  -28.0845   22.7058 H   0  0  0  0  0  0
  -24.6296  -30.6555   25.7989 H   0  0  0  0  0  0
  -24.8680  -32.2591   26.4823 H   0  0  0  0  0  0
  -25.8401  -30.9090   27.0382 H   0  0  0  0  0  0
  -26.3112  -29.6848   24.1097 H   0  0  0  0  0  0
  -27.4352  -29.7453   25.4454 H   0  0  0  0  0  0
  -27.8804  -30.4683   23.9140 H   0  0  0  0  0  0
  -28.3765  -32.7186   25.0295 H   0  0  0  0  0  0
  -28.0837  -31.8502   26.5296 H   0  0  0  0  0  0
  -27.2539  -33.3609   26.2243 H   0  0  0  0  0  0
  -28.2658  -38.0077   24.7431 H   0  0  0  0  0  0
  -28.1036  -36.2629   24.6288 H   0  0  0  0  0  0
  -27.2374  -37.1501   25.8867 H   0  0  0  0  0  0
  -20.9286  -29.8723   21.6943 H   0  0  0  0  0  0
  -26.0197  -38.2905   24.1351 H   0  0  0  0  0  0
  -31.1773  -19.8075   23.7207 H   0  0  0  0  0  0
  -26.4849  -20.3603   24.7224 H   0  0  0  0  0  0
  -30.8234  -24.8485   26.4311 H   0  0  0  0  0  0
  -32.0460  -24.0660   25.4515 H   0  0  0  0  0  0
  -31.7589  -25.5738   23.6782 H   0  0  0  0  0  0
  -31.3220  -26.6637   24.9888 H   0  0  0  0  0  0
  -28.1932  -24.1078   23.7018 H   0  0  0  0  0  0
  -29.6865  -23.9152   22.8029 H   0  0  0  0  0  0
  -31.4488  -17.8958   22.3794 H   0  0  0  0  0  0
  -31.4826  -17.4203   24.0609 H   0  0  0  0  0  0
  -27.9765  -16.3238   22.7597 H   0  0  0  0  0  0
  -27.9816  -17.8079   21.8336 H   0  0  0  0  0  0
  -30.9613  -15.1187   23.5473 H   0  0  0  0  0  0
  -32.2185  -15.6010   22.4483 H   0  0  0  0  0  0
  -29.9575  -17.0938   20.5358 H   0  0  0  0  0  0
  -28.6527  -15.9602   20.3861 H   0  0  0  0  0  0
  -29.2210  -23.4704   25.7339 H   0  0  0  0  0  0
  -28.9573  -26.1572   24.7284 H   0  0  0  0  0  0
  -30.1828  -27.5308   18.2439 H   0  0  0  0  0  0
  -30.6345  -25.9317   18.8257 H   0  0  0  0  0  0
  -31.5945  -27.3345   19.2836 H   0  0  0  0  0  0
  -30.1770  -25.3308   21.2730 H   0  0  0  0  0  0
  -31.2446  -26.6377   21.7381 H   0  0  0  0  0  0
  -29.7490  -28.2615   20.5654 H   0  0  0  0  0  0
  -31.4467  -22.1417   24.3554 H   0  0  0  0  0  0
  -29.5390  -27.6016   23.0362 H   0  0  0  0  0  0
  -28.4129  -26.5696   22.4945 H   0  0  0  0  0  0
  1 25  1  0  0  0
  1 30  2  0  0  0
  1 90  1  0  0  0
  2  3  1  0  0  0
  2 25  1  0  0  0
  2 93  1  0  0  0
  2 94  1  0  0  0
  3  4  1  0  0  0
  3 95  1  0  0  0
  3 96  1  0  0  0
  4  5  1  0  0  0
  4 97  1  0  0  0
  4 98  1  0  0  0
  5  6  1  0  0  0
  5 26  1  0  0  0
  5 99  1  0  0  0
  6 25  1  0  0  0
  6100  1  0  0  0
  6101  1  0  0  0
  7  8  2  0  0  0
  7 26  1  0  0  0
  7 29  1  0  0  0
  8  9  1  0  0  0
  8 22  1  0  0  0
  9 10  1  0  0  0
  9 27  2  0  0  0
 10 11  2  0  0  0
 10 15  1  0  0  0
 11 12  1  0  0  0
 11102  1  0  0  0
 12 13  2  0  0  0
 12103  1  0  0  0
 13 14  1  0  0  0
 13 31  1  0  0  0
 14 15  2  0  0  0
 14104  1  0  0  0
 15105  1  0  0  0
 16 17  2  0  0  0
 16 21  1  0  0  0
 16 31  1  0  0  0
 17 18  1  0  0  0
 17106  1  0  0  0
 18 19  2  0  0  0
 18107  1  0  0  0
 19 20  1  0  0  0
 19 24  1  0  0  0
 20 21  2  0  0  0
 20108  1  0  0  0
 21 23  1  0  0  0
 22 28  1  0  0  0
 22 32  2  0  0  0
 26 27  1  0  0  0
 28109  1  0  0  0
 28110  1  0  0  0
 29111  1  0  0  0
 29112  1  0  0  0
 33 34  1  0  0  0
 33 66  1  0  0  0
 33 70  2  0  0  0
 34 36  1  0  0  0
 34 59  1  0  0  0
 34113  1  0  0  0
 35 44  2  0  0  0
 35 45  1  0  0  0
 35 68  1  0  0  0
 36 56  1  0  0  0
 36114  1  0  0  0
 37 39  1  0  0  0
 37 47  1  0  0  0
 37 66  1  0  0  0
 37115  1  0  0  0
 38 43  2  0  0  0
 38 46  1  0  0  0
 38 47  1  0  0  0
 39 64  1  0  0  0
 39 67  2  0  0  0
 40 52  1  0  0  0
 40 53  2  0  0  0
 40 58  1  0  0  0
 41116  1  0  0  0
 41117  1  0  0  0
 41118  1  0  0  0
 41 48  1  0  0  0
 42 43  1  0  0  0
 42 66  1  0  0  0
 42119  1  0  0  0
 42120  1  0  0  0
 43 44  1  0  0  0
 44121  1  0  0  0
 45 46  2  0  0  0
 45122  1  0  0  0
 46123  1  0  0  0
 47124  1  0  0  0
 47125  1  0  0  0
 48 56  1  0  0  0
 48 65  1  0  0  0
 48126  1  0  0  0
 49 50  1  0  0  0
 49 53  1  0  0  0
 49 64  1  0  0  0
 49127  1  0  0  0
 50 51  1  0  0  0
 50128  1  0  0  0
 50129  1  0  0  0
 51 52  1  0  0  0
 51130  1  0  0  0
 51131  1  0  0  0
 52132  1  0  0  0
 52133  1  0  0  0
 53 54  1  0  0  0
 54 55  2  0  0  0
 54134  1  0  0  0
 55 57  1  0  0  0
 55135  1  0  0  0
 56 69  2  0  0  0
 57 58  2  0  0  0
 57136  1  0  0  0
 58137  1  0  0  0
 59 60  1  0  0  0
 59 61  1  0  0  0
 59 62  1  0  0  0
 60138  1  0  0  0
 60139  1  0  0  0
 60140  1  0  0  0
 61141  1  0  0  0
 61142  1  0  0  0
 61143  1  0  0  0
 62144  1  0  0  0
 62145  1  0  0  0
 62146  1  0  0  0
 63 65  1  0  0  0
 63147  1  0  0  0
 63148  1  0  0  0
 63149  1  0  0  0
 64150  1  0  0  0
 65151  1  0  0  0
 68 86  1  0  0  0
 71 73  2  0  0  0
 71 74  1  0  0  0
 71152  1  0  0  0
 72 87  2  0  0  0
 72 88  1  0  0  0
 72153  1  0  0  0
 73 87  1  0  0  0
 73 89  1  0  0  0
 74 88  2  0  0  0
 74 91  1  0  0  0
 75 76  1  0  0  0
 75 82  1  0  0  0
 75154  1  0  0  0
 75155  1  0  0  0
 76 83  1  0  0  0
 76156  1  0  0  0
 76157  1  0  0  0
 77 82  1  0  0  0
 77 83  1  0  0  0
 77158  1  0  0  0
 77159  1  0  0  0
 78 80  1  0  0  0
 78 89  1  0  0  0
 78160  1  0  0  0
 78161  1  0  0  0
 79 81  1  0  0  0
 79 89  1  0  0  0
 79162  1  0  0  0
 79163  1  0  0  0
 80 90  1  0  0  0
 80164  1  0  0  0
 80165  1  0  0  0
 81 90  1  0  0  0
 81166  1  0  0  0
 81167  1  0  0  0
 82 91  1  0  0  0
 82168  1  0  0  0
 83 92  1  0  0  0
 83169  1  0  0  0
 84170  1  0  0  0
 84171  1  0  0  0
 84172  1  0  0  0
 84 86  1  0  0  0
 85 86  1  0  0  0
 85 92  1  0  0  0
 85173  1  0  0  0
 85174  1  0  0  0
 86175  1  0  0  0
 91176  1  0  0  0
 92177  1  0  0  0
 92178  1  0  0  0
M  CHG  1  92   1
M  ISO  4   1 100  68 101  86 101  90 100
M  END
> <chiral flag>
0

> <version>
0

> <s_m_source_file>
/data/baiqing/PycharmProjects/Reinvent-master-3.2/result/LINK_invent/BTK/process_docking_weight1_custom_sum_contain_oxygen_bond_distance_aromatic_linkinvent_7_9_3/rearranged_h_0195.sdf

> <i_m_source_file_index>
6

> <r_mmod_Potential_Energy-OPLS-2005>
-490.991088867188

> <r_mmod_Stretch_Energy-OPLS-2005>
37.9608535766602

> <r_mmod_Bend_Energy-OPLS-2005>
165.553436279297

> <r_mmod_Torsional_Energy-OPLS-2005>
398.305480957031

> <r_mmod_Improper_Torsional_Energy-OPLS-2005>
6.9461874961853

> <r_mmod_Van_der_Waal_Energy-OPLS-2005>
183.280090332031

> <r_mmod_Electrostatic_Energy-OPLS-2005>
-833.096313476562

> <r_mmod_Solvation_Energy-OPLS-2005>
-457.666534423828

> <b_mmod_Minimization_Converged-OPLS-2005>
0

> <r_mmod_RMS_Derivative-OPLS-2005>
3.10795712471008

$$$$
6
                    3D
 Structure written by MMmdl.
172181  0  0  1  0            999 V2000
  -31.3525  -14.7460   21.5017 C   0  0  0  0  0  0
  -30.5664  -13.6355   17.6998 C   0  0  0  0  0  0
  -28.9722  -13.0154   17.2063 C   0  0  0  0  0  0
  -27.5819  -12.9514   18.3034 C   0  0  0  0  0  0
  -27.4662  -13.5590   19.9927 C   0  0  2  0  0  0
  -28.8222  -14.0774   21.1833 C   0  0  0  0  0  0
  -25.1157  -13.8948   20.7051 C   0  0  0  0  0  0
  -24.0884  -13.0550   20.9782 C   0  0  0  0  0  0
  -24.6036  -11.7260   20.9103 C   0  0  0  0  0  0
  -23.9070  -10.4370   21.0399 C   0  0  0  0  0  0
  -24.3669   -9.4274   21.9141 C   0  0  0  0  0  0
  -23.6366   -8.2281   22.0704 C   0  0  0  0  0  0
  -22.4335   -8.0296   21.3519 C   0  0  0  0  0  0
  -21.9973   -9.0254   20.4599 C   0  0  0  0  0  0
  -22.7277  -10.2152   20.3012 C   0  0  0  0  0  0
  -21.6883   -6.0739   22.5281 C   0  0  0  0  0  0
  -21.4045   -6.5642   23.8208 C   0  0  0  0  0  0
  -21.3659   -5.6797   24.9173 C   0  0  0  0  0  0
  -21.6051   -4.3051   24.7236 C   0  0  0  0  0  0
  -21.8825   -3.8146   23.4348 C   0  0  0  0  0  0
  -21.9211   -4.6968   22.3410 C   0  0  0  0  0  0
  -22.6841  -13.4952   21.2081 C   0  0  0  0  0  0
  -22.1673   -4.2142   21.0986 F   0  0  0  0  0  0
  -21.5615   -3.4542   25.7741 F   0  0  0  0  0  0
  -30.4620  -14.4339   20.5580 N   0  0  0  0  0  0
  -26.2122  -13.0900   20.5212 N   0  0  0  0  0  0
  -25.9042  -11.7667   20.6499 N   0  0  0  0  0  0
  -21.9619  -12.7841   22.0620 N   0  0  0  0  0  0
  -25.1821  -15.2819   20.5766 N   0  0  0  0  0  0
  -32.1162  -13.8702   21.7484 O   0  0  0  0  0  0
  -21.6697   -6.8889   21.4229 O   0  0  0  0  0  0
  -22.2507  -14.5194   20.6828 O   0  0  0  0  0  0
  -24.6901  -31.7981   23.1520 C   0  0  0  0  0  0
  -25.9464  -32.4458   23.8040 C   0  0  1  0  0  0
  -27.1006  -26.6336   20.0975 C   0  0  0  0  0  0
  -25.6041  -33.8290   24.1924 N   0  0  0  0  0  0
  -23.5047  -30.4130   21.5160 C   0  0  2  0  0  0
  -24.9220  -28.7544   20.1003 C   0  0  0  0  0  0
  -22.7752  -29.4334   22.4729 C   0  0  0  0  0  0
  -18.0343  -28.1430   22.8455 C   0  0  0  0  0  0
  -24.1488  -36.7136   23.2652 C   0  0  0  0  0  0
  -26.0924  -30.4932   21.4224 C   0  0  0  0  0  0
  -26.1274  -29.0622   20.7414 C   0  0  0  0  0  0
  -27.2123  -28.0276   20.7068 C   0  0  0  0  0  0
  -25.8653  -26.5541   19.4253 C   0  0  0  0  0  0
  -24.8313  -27.5287   19.4259 C   0  0  0  0  0  0
  -23.7431  -29.7337   20.1423 C   0  0  0  0  0  0
  -25.4160  -36.2895   24.0268 C   0  0  1  0  0  0
  -20.5967  -28.3788   23.1151 C   0  0  2  0  0  0
  -20.6820  -26.9454   22.5410 C   0  0  0  0  0  0
  -19.5792  -26.6374   21.5231 C   0  0  0  0  0  0
  -18.1964  -26.7959   22.1623 C   0  0  0  0  0  0
  -19.1600  -28.8943   23.2775 C   0  0  0  0  0  0
  -18.9504  -30.1524   23.8820 C   0  0  0  0  0  0
  -17.6488  -30.6610   24.0553 C   0  0  0  0  0  0
  -25.9156  -34.9296   23.4941 C   0  0  0  0  0  0
  -16.5384  -29.9080   23.6358 C   0  0  0  0  0  0
  -16.7319  -28.6510   23.0364 C   0  0  0  0  0  0
  -26.4603  -31.6528   25.0693 C   0  0  0  0  0  0
  -25.3621  -31.3870   26.1269 C   0  0  0  0  0  0
  -27.0559  -30.2871   24.6651 C   0  0  0  0  0  0
  -27.6055  -32.4397   25.7502 C   0  0  0  0  0  0
  -27.5573  -37.1728   24.8463 C   0  0  0  0  0  0
  -21.4404  -29.3023   22.3481 N   0  0  0  0  0  0
  -26.4278  -37.3667   23.9406 N   0  0  0  0  0  0
  -24.7889  -30.9358   22.0803 N   0  0  0  0  0  0
  -23.4223  -28.7909   23.3045 O   0  0  0  0  0  0
  -27.9829  -25.3485   20.0314 O   0  0  0  0  0  0
  -26.5789  -34.8878   22.4546 O   0  0  0  0  0  0
  -23.5931  -32.1105   23.6468 O   0  0  0  0  0  0
  -32.3740  -13.6224   19.2118 C   0  0  0  0  0  0
  -29.2062  -14.9620   18.8451 C   0  0  0  0  0  0
  -29.7235  -12.7152   19.4690 C   0  0  0  0  0  0
  -32.0065  -15.1993   18.8262 C   0  0  0  0  0  0
  -33.9590  -15.9322   20.1796 C   0  0  0  0  0  0
  -32.2631  -17.4829   19.6109 C   0  0  0  0  0  0
  -33.3908  -16.0853   21.6347 C   0  0  0  0  0  0
  -31.4571  -17.2477   20.9566 C   0  0  0  0  0  0
  -29.5081  -10.1378   19.2017 C   0  0  0  0  0  0
  -28.3502  -16.6045   19.2864 C   0  0  0  0  0  0
  -28.6894  -18.5454   19.1070 C   0  0  0  0  0  0
  -28.3754  -21.8405   19.4489 C   0  0  0  0  0  0
  -27.6372  -23.5909   19.9604 C   0  0  0  0  0  0
  -29.1604  -11.3679   20.0594 C   0  0  1  0  0  0
  -31.3310  -12.4636   19.5595 N   0  0  0  0  0  0
  -30.5511  -15.7917   18.6131 N   0  0  0  0  0  0
  -32.9336  -16.2423   19.1537 N   0  0  0  0  0  0
  -31.9076  -15.9988   21.5803 N   0  0  0  0  0  0
  -27.9923  -20.1005   19.6349 N   0  3  0  0  0  0
  -29.7027  -11.1438   21.2611 F   0  0  0  0  0  0
  -30.8121  -14.3395   16.8883 H   0  0  0  0  0  0
  -31.2248  -12.8370   17.3153 H   0  0  0  0  0  0
  -29.1115  -12.0212   16.7834 H   0  0  0  0  0  0
  -28.6625  -13.6094   16.3439 H   0  0  0  0  0  0
  -27.2229  -11.9222   18.2835 H   0  0  0  0  0  0
  -26.7795  -13.4600   17.7670 H   0  0  0  0  0  0
  -27.1433  -14.5274   19.6906 H   0  0  0  0  0  0
  -28.9244  -13.3238   21.9638 H   0  0  0  0  0  0
  -28.4783  -14.9388   21.7544 H   0  0  0  0  0  0
  -25.2763   -9.5805   22.4784 H   0  0  0  0  0  0
  -24.0084   -7.4673   22.7431 H   0  0  0  0  0  0
  -21.0904   -8.8767   19.8898 H   0  0  0  0  0  0
  -22.3666  -10.9712   19.6172 H   0  0  0  0  0  0
  -21.2048   -7.6152   23.9703 H   0  0  0  0  0  0
  -21.1455   -6.0530   25.9068 H   0  0  0  0  0  0
  -22.0597   -2.7606   23.2863 H   0  0  0  0  0  0
  -22.3412  -11.9629   22.5092 H   0  0  0  0  0  0
  -21.0141  -13.0643   22.2727 H   0  0  0  0  0  0
  -24.3526  -15.8563   20.6849 H   0  0  0  0  0  0
  -26.0148  -15.8227   20.3926 H   0  0  0  0  0  0
  -26.7520  -32.4858   23.0713 H   0  0  0  0  0  0
  -25.0062  -33.9307   24.9994 H   0  0  0  0  0  0
  -22.8329  -31.2562   21.3451 H   0  0  0  0  0  0
  -23.3791  -35.9418   23.3257 H   0  0  0  0  0  0
  -24.3545  -36.8868   22.2077 H   0  0  0  0  0  0
  -23.7195  -37.6276   23.6771 H   0  0  0  0  0  0
  -26.3244  -31.2243   20.6481 H   0  0  0  0  0  0
  -26.9380  -30.5348   22.0960 H   0  0  0  0  0  0
  -28.1286  -28.2591   21.2290 H   0  0  0  0  0  0
  -25.6507  -25.6342   18.9011 H   0  0  0  0  0  0
  -23.9142  -27.2939   18.9008 H   0  0  0  0  0  0
  -23.9304  -30.5056   19.3949 H   0  0  0  0  0  0
  -22.8355  -29.2243   19.8139 H   0  0  0  0  0  0
  -25.1363  -36.1654   25.0757 H   0  0  0  0  0  0
  -21.0040  -28.3418   24.1278 H   0  0  0  0  0  0
  -20.5710  -26.2408   23.3661 H   0  0  0  0  0  0
  -21.6676  -26.7416   22.1204 H   0  0  0  0  0  0
  -19.6938  -25.6259   21.1309 H   0  0  0  0  0  0
  -19.6734  -27.3145   20.6727 H   0  0  0  0  0  0
  -17.4237  -26.6703   21.4016 H   0  0  0  0  0  0
  -18.0340  -26.0123   22.9041 H   0  0  0  0  0  0
  -19.7977  -30.7366   24.2140 H   0  0  0  0  0  0
  -17.5041  -31.6281   24.5170 H   0  0  0  0  0  0
  -15.5379  -30.2957   23.7742 H   0  0  0  0  0  0
  -15.8717  -28.0813   22.7109 H   0  0  0  0  0  0
  -24.5826  -30.7234   25.7506 H   0  0  0  0  0  0
  -24.8786  -32.3105   26.4471 H   0  0  0  0  0  0
  -25.7727  -30.9132   27.0191 H   0  0  0  0  0  0
  -26.3289  -29.6446   24.1684 H   0  0  0  0  0  0
  -27.4002  -29.7375   25.5419 H   0  0  0  0  0  0
  -27.9259  -30.4010   24.0186 H   0  0  0  0  0  0
  -27.2618  -33.3781   26.1864 H   0  0  0  0  0  0
  -28.3961  -32.6829   25.0392 H   0  0  0  0  0  0
  -28.0612  -31.8668   26.5589 H   0  0  0  0  0  0
  -28.2545  -38.0068   24.7556 H   0  0  0  0  0  0
  -28.1115  -36.2597   24.6243 H   0  0  0  0  0  0
  -27.2288  -37.1304   25.8861 H   0  0  0  0  0  0
  -20.9710  -29.8674   21.6538 H   0  0  0  0  0  0
  -26.0105  -38.2709   24.1430 H   0  0  0  0  0  0
  -33.3965  -13.3259   19.3894 H   0  0  0  0  0  0
  -34.4029  -14.9496   20.0431 H   0  0  0  0  0  0
  -34.8029  -16.6140   20.0534 H   0  0  0  0  0  0
  -33.0448  -18.2208   19.8091 H   0  0  0  0  0  0
  -31.6711  -17.9421   18.8172 H   0  0  0  0  0  0
  -33.6736  -17.0605   22.0381 H   0  0  0  0  0  0
  -33.8600  -15.3738   22.3188 H   0  0  0  0  0  0
  -30.3854  -17.1759   20.8164 H   0  0  0  0  0  0
  -31.6037  -18.0875   21.6376 H   0  0  0  0  0  0
  -29.0652  -10.2029   18.2100 H   0  0  0  0  0  0
  -29.1294   -9.2309   19.6701 H   0  0  0  0  0  0
  -30.5827  -10.0070   19.0836 H   0  0  0  0  0  0
  -28.1227  -16.5206   20.3450 H   0  0  0  0  0  0
  -27.3797  -16.4956   18.8048 H   0  0  0  0  0  0
  -28.7430  -18.6791   18.0275 H   0  0  0  0  0  0
  -29.7156  -18.6891   19.4262 H   0  0  0  0  0  0
  -29.4063  -21.8879   19.7991 H   0  0  0  0  0  0
  -28.4677  -21.9252   18.3661 H   0  0  0  0  0  0
  -27.4327  -23.4282   21.0204 H   0  0  0  0  0  0
  -26.6444  -23.5697   19.5099 H   0  0  0  0  0  0
  -28.1145  -11.2803   20.2376 H   0  0  0  0  0  0
  -27.0303  -20.0348   19.3398 H   0  0  0  0  0  0
  -27.9517  -19.9890   20.6356 H   0  0  0  0  0  0
  1 25  1  0  0  0
  1 30  2  0  0  0
  1 88  1  0  0  0
  2  3  1  0  0  0
  2 25  1  0  0  0
  2 91  1  0  0  0
  2 92  1  0  0  0
  3  4  1  0  0  0
  3 93  1  0  0  0
  3 94  1  0  0  0
  4  5  1  0  0  0
  4 95  1  0  0  0
  4 96  1  0  0  0
  5  6  1  0  0  0
  5 26  1  0  0  0
  5 97  1  0  0  0
  6 25  1  0  0  0
  6 98  1  0  0  0
  6 99  1  0  0  0
  7  8  2  0  0  0
  7 26  1  0  0  0
  7 29  1  0  0  0
  8  9  1  0  0  0
  8 22  1  0  0  0
  9 10  1  0  0  0
  9 27  2  0  0  0
 10 11  2  0  0  0
 10 15  1  0  0  0
 11 12  1  0  0  0
 11100  1  0  0  0
 12 13  2  0  0  0
 12101  1  0  0  0
 13 14  1  0  0  0
 13 31  1  0  0  0
 14 15  2  0  0  0
 14102  1  0  0  0
 15103  1  0  0  0
 16 17  2  0  0  0
 16 21  1  0  0  0
 16 31  1  0  0  0
 17 18  1  0  0  0
 17104  1  0  0  0
 18 19  2  0  0  0
 18105  1  0  0  0
 19 20  1  0  0  0
 19 24  1  0  0  0
 20 21  2  0  0  0
 20106  1  0  0  0
 21 23  1  0  0  0
 22 28  1  0  0  0
 22 32  2  0  0  0
 26 27  1  0  0  0
 28107  1  0  0  0
 28108  1  0  0  0
 29109  1  0  0  0
 29110  1  0  0  0
 33 34  1  0  0  0
 33 66  1  0  0  0
 33 70  2  0  0  0
 34 36  1  0  0  0
 34 59  1  0  0  0
 34111  1  0  0  0
 35 44  2  0  0  0
 35 45  1  0  0  0
 35 68  1  0  0  0
 36 56  1  0  0  0
 36112  1  0  0  0
 37 39  1  0  0  0
 37 47  1  0  0  0
 37 66  1  0  0  0
 37113  1  0  0  0
 38 43  2  0  0  0
 38 46  1  0  0  0
 38 47  1  0  0  0
 39 64  1  0  0  0
 39 67  2  0  0  0
 40 52  1  0  0  0
 40 53  2  0  0  0
 40 58  1  0  0  0
 41114  1  0  0  0
 41115  1  0  0  0
 41116  1  0  0  0
 41 48  1  0  0  0
 42 43  1  0  0  0
 42 66  1  0  0  0
 42117  1  0  0  0
 42118  1  0  0  0
 43 44  1  0  0  0
 44119  1  0  0  0
 45 46  2  0  0  0
 45120  1  0  0  0
 46121  1  0  0  0
 47122  1  0  0  0
 47123  1  0  0  0
 48 56  1  0  0  0
 48 65  1  0  0  0
 48124  1  0  0  0
 49 50  1  0  0  0
 49 53  1  0  0  0
 49 64  1  0  0  0
 49125  1  0  0  0
 50 51  1  0  0  0
 50126  1  0  0  0
 50127  1  0  0  0
 51 52  1  0  0  0
 51128  1  0  0  0
 51129  1  0  0  0
 52130  1  0  0  0
 52131  1  0  0  0
 53 54  1  0  0  0
 54 55  2  0  0  0
 54132  1  0  0  0
 55 57  1  0  0  0
 55133  1  0  0  0
 56 69  2  0  0  0
 57 58  2  0  0  0
 57134  1  0  0  0
 58135  1  0  0  0
 59 60  1  0  0  0
 59 61  1  0  0  0
 59 62  1  0  0  0
 60136  1  0  0  0
 60137  1  0  0  0
 60138  1  0  0  0
 61139  1  0  0  0
 61140  1  0  0  0
 61141  1  0  0  0
 62142  1  0  0  0
 62143  1  0  0  0
 62144  1  0  0  0
 63 65  1  0  0  0
 63145  1  0  0  0
 63146  1  0  0  0
 63147  1  0  0  0
 64148  1  0  0  0
 65149  1  0  0  0
 68 83  1  0  0  0
 71 74  2  0  0  0
 71 85  1  0  0  0
 71150  1  0  0  0
 72 73  1  0  0  0
 72 80  1  0  0  0
 72 86  2  0  0  0
 73 84  1  0  0  0
 73 85  2  0  0  0
 74 86  1  0  0  0
 74 87  1  0  0  0
 75 77  1  0  0  0
 75 87  1  0  0  0
 75151  1  0  0  0
 75152  1  0  0  0
 76 78  1  0  0  0
 76 87  1  0  0  0
 76153  1  0  0  0
 76154  1  0  0  0
 77 88  1  0  0  0
 77155  1  0  0  0
 77156  1  0  0  0
 78 88  1  0  0  0
 78157  1  0  0  0
 78158  1  0  0  0
 79159  1  0  0  0
 79160  1  0  0  0
 79161  1  0  0  0
 79 84  1  0  0  0
 80 81  1  0  0  0
 80162  1  0  0  0
 80163  1  0  0  0
 81 89  1  0  0  0
 81164  1  0  0  0
 81165  1  0  0  0
 82 83  1  0  0  0
 82 89  1  0  0  0
 82166  1  0  0  0
 82167  1  0  0  0
 83168  1  0  0  0
 83169  1  0  0  0
 84 90  1  0  0  0
 84170  1  0  0  0
 89171  1  0  0  0
 89172  1  0  0  0
M  CHG  1  89   1
M  ISO  4   1 100  68 101  83 101  88 100
M  END
> <chiral flag>
0

> <version>
0

> <s_m_source_file>
/data/baiqing/PycharmProjects/Reinvent-master-3.2/result/LINK_invent/BTK/process_docking_weight1_custom_sum_contain_oxygen_bond_distance_aromatic_linkinvent_7_9_3/rearranged_h_0195.sdf

> <i_m_source_file_index>
7

> <r_mmod_Potential_Energy-OPLS-2005>
13794.8896484375

> <r_mmod_Stretch_Energy-OPLS-2005>
7746.18359375

> <r_mmod_Bend_Energy-OPLS-2005>
1090.80419921875

> <r_mmod_Torsional_Energy-OPLS-2005>
465.720001220703

> <r_mmod_Improper_Torsional_Energy-OPLS-2005>
57.4128494262695

> <r_mmod_Van_der_Waal_Energy-OPLS-2005>
3186.17822265625

> <r_mmod_Electrostatic_Energy-OPLS-2005>
-172.758880615234

> <r_mmod_Solvation_Energy-OPLS-2005>
-521.223815917969

> <b_mmod_Minimization_Converged-OPLS-2005>
0

> <r_mmod_RMS_Derivative-OPLS-2005>
6.96785974502563

$$$$
7
                    3D
 Structure written by MMmdl.
165174  0  0  1  0            999 V2000
  -30.6960  -14.5970   20.4807 C   0  0  0  0  0  0
  -30.4052  -12.3664   19.4419 C   0  0  0  0  0  0
  -29.4877  -12.4994   18.2112 C   0  0  0  0  0  0
  -28.0121  -12.3552   18.6275 C   0  0  0  0  0  0
  -27.6430  -13.2304   19.8566 C   0  0  2  0  0  0
  -28.6926  -13.1225   20.9855 C   0  0  0  0  0  0
  -25.2512  -13.8222   20.5714 C   0  0  0  0  0  0
  -24.1793  -13.0457   20.9203 C   0  0  0  0  0  0
  -24.6383  -11.6936   20.8752 C   0  0  0  0  0  0
  -23.9061  -10.4307   21.0409 C   0  0  0  0  0  0
  -24.3610   -9.4222   21.9184 C   0  0  0  0  0  0
  -23.6291   -8.2256   22.0757 C   0  0  0  0  0  0
  -22.4273   -8.0289   21.3552 C   0  0  0  0  0  0
  -21.9917   -9.0254   20.4649 C   0  0  0  0  0  0
  -22.7235  -10.2139   20.3058 C   0  0  0  0  0  0
  -21.6859   -6.0723   22.5273 C   0  0  0  0  0  0
  -21.4022   -6.5638   23.8203 C   0  0  0  0  0  0
  -21.3665   -5.6798   24.9177 C   0  0  0  0  0  0
  -21.6054   -4.3058   24.7236 C   0  0  0  0  0  0
  -21.8821   -3.8140   23.4358 C   0  0  0  0  0  0
  -21.9201   -4.6950   22.3408 C   0  0  0  0  0  0
  -22.7821  -13.5231   21.1870 C   0  0  0  0  0  0
  -22.1659   -4.2134   21.0988 F   0  0  0  0  0  0
  -21.5633   -3.4550   25.7756 F   0  0  0  0  0  0
  -30.0033  -13.4197   20.3958 N   0  0  0  0  0  0
  -26.2943  -12.9419   20.3330 N   0  0  0  0  0  0
  -25.9321  -11.6561   20.5783 N   0  0  0  0  0  0
  -22.0472  -12.8193   22.0411 N   0  0  0  0  0  0
  -25.4242  -15.1939   20.4145 N   0  0  0  0  0  0
  -31.8808  -14.6613   20.1399 O   0  0  0  0  0  0
  -21.6651   -6.8871   21.4238 O   0  0  0  0  0  0
  -22.3506  -14.5548   20.6744 O   0  0  0  0  0  0
  -24.6237  -31.8655   23.2051 C   0  0  0  0  0  0
  -25.9104  -32.4812   23.8385 C   0  0  1  0  0  0
  -27.2203  -27.3405   20.1105 C   0  0  0  0  0  0
  -25.5918  -33.8603   24.2313 N   0  0  0  0  0  0
  -23.4141  -30.4888   21.5502 C   0  0  2  0  0  0
  -24.8626  -28.9534   20.1072 C   0  0  0  0  0  0
  -22.7470  -29.4662   22.4992 C   0  0  0  0  0  0
  -18.0290  -28.1376   22.8524 C   0  0  0  0  0  0
  -24.1491  -36.7287   23.2641 C   0  0  0  0  0  0
  -25.9560  -30.8003   21.3767 C   0  0  0  0  0  0
  -26.0298  -29.4307   20.7170 C   0  0  0  0  0  0
  -27.2123  -28.6349   20.7118 C   0  0  0  0  0  0
  -26.0316  -26.9187   19.4695 C   0  0  0  0  0  0
  -24.8662  -27.7036   19.4721 C   0  0  0  0  0  0
  -23.6234  -29.8234   20.1645 C   0  0  0  0  0  0
  -25.4116  -36.3097   24.0343 C   0  0  1  0  0  0
  -20.5889  -28.3692   23.1314 C   0  0  2  0  0  0
  -20.6777  -26.9422   22.5425 C   0  0  0  0  0  0
  -19.5748  -26.6396   21.5229 C   0  0  0  0  0  0
  -18.1925  -26.7934   22.1638 C   0  0  0  0  0  0
  -19.1532  -28.8849   23.2909 C   0  0  0  0  0  0
  -18.9449  -30.1454   23.8920 C   0  0  0  0  0  0
  -17.6445  -30.6589   24.0572 C   0  0  0  0  0  0
  -25.9057  -34.9468   23.5138 C   0  0  0  0  0  0
  -16.5344  -29.9085   23.6341 C   0  0  0  0  0  0
  -16.7269  -28.6486   23.0392 C   0  0  0  0  0  0
  -26.4481  -31.6578   25.0730 C   0  0  0  0  0  0
  -25.3708  -31.3661   26.1433 C   0  0  0  0  0  0
  -27.0348  -30.3017   24.6169 C   0  0  0  0  0  0
  -27.6071  -32.4286   25.7484 C   0  0  0  0  0  0
  -27.5596  -37.1786   24.8477 C   0  0  0  0  0  0
  -21.4189  -29.3045   22.3717 N   0  0  0  0  0  0
  -26.4307  -37.3785   23.9422 N   0  0  0  0  0  0
  -24.6836  -31.0672   22.1000 N   0  0  0  0  0  0
  -23.4204  -28.8225   23.3079 O   0  0  0  0  0  0
  -28.3375  -26.4928   20.1695 O   0  0  0  0  0  0
  -26.5636  -34.8939   22.4707 O   0  0  0  0  0  0
  -23.5410  -32.1453   23.7385 O   0  0  0  0  0  0
  -27.8230  -20.5360   20.9566 C   0  0  0  0  0  0
  -27.7382  -22.0697   21.0177 C   0  0  0  0  0  0
  -29.7951  -16.6480   19.5168 C   0  0  0  0  0  0
  -30.4617  -16.5677   21.8645 C   0  0  0  0  0  0
  -29.1542  -18.0653   19.7572 C   0  0  0  0  0  0
  -29.8019  -17.9716   22.0656 C   0  0  0  0  0  0
  -29.3149  -20.2670   21.1323 C   0  0  2  0  0  0
  -29.9319  -21.4799   20.3353 C   0  0  2  0  0  0
  -31.2581  -21.9769   20.9434 C   0  0  0  0  0  0
  -29.2066  -24.0029   20.4465 C   0  0  0  0  0  0
  -28.1050  -25.0449   19.9844 C   0  0  0  0  0  0
  -30.0040  -15.7682   20.7038 N   0  0  0  0  0  0
  -28.8804  -22.5495   20.2328 N   0  0  0  0  0  0
  -29.8027  -18.8404   20.8516 N   0  3  0  0  0  0
  -31.4505  -12.4458   19.1394 H   0  0  0  0  0  0
  -30.2965  -11.3815   19.8989 H   0  0  0  0  0  0
  -29.7366  -11.7442   17.4650 H   0  0  0  0  0  0
  -29.6451  -13.4668   17.7314 H   0  0  0  0  0  0
  -27.8333  -11.3028   18.8523 H   0  0  0  0  0  0
  -27.3622  -12.5966   17.7866 H   0  0  0  0  0  0
  -27.6485  -14.2626   19.5063 H   0  0  0  0  0  0
  -28.6950  -12.1237   21.4255 H   0  0  0  0  0  0
  -28.4593  -13.8165   21.7947 H   0  0  0  0  0  0
  -25.2748   -9.5708   22.4760 H   0  0  0  0  0  0
  -24.0007   -7.4667   22.7488 H   0  0  0  0  0  0
  -21.0856   -8.8767   19.8958 H   0  0  0  0  0  0
  -22.3679  -10.9678   19.6175 H   0  0  0  0  0  0
  -21.1997   -7.6148   23.9701 H   0  0  0  0  0  0
  -21.1489   -6.0535   25.9080 H   0  0  0  0  0  0
  -22.0590   -2.7601   23.2879 H   0  0  0  0  0  0
  -22.4090  -11.9838   22.4758 H   0  0  0  0  0  0
  -21.1105  -13.1228   22.2658 H   0  0  0  0  0  0
  -24.6652  -15.8567   20.5292 H   0  0  0  0  0  0
  -26.2854  -15.6289   20.1100 H   0  0  0  0  0  0
  -26.7180  -32.5506   23.1142 H   0  0  0  0  0  0
  -25.0012  -33.9769   25.0419 H   0  0  0  0  0  0
  -22.7062  -31.3081   21.4111 H   0  0  0  0  0  0
  -23.3776  -35.9596   23.3299 H   0  0  0  0  0  0
  -24.3582  -36.8907   22.2056 H   0  0  0  0  0  0
  -23.7216  -37.6471   23.6672 H   0  0  0  0  0  0
  -26.0906  -31.5681   20.6126 H   0  0  0  0  0  0
  -26.8352  -30.8461   22.0081 H   0  0  0  0  0  0
  -28.1048  -28.9953   21.2039 H   0  0  0  0  0  0
  -25.9728  -25.9663   18.9623 H   0  0  0  0  0  0
  -23.9749  -27.3392   18.9810 H   0  0  0  0  0  0
  -23.7197  -30.5984   19.4031 H   0  0  0  0  0  0
  -22.7474  -29.2390   19.8752 H   0  0  0  0  0  0
  -25.1276  -36.1971   25.0836 H   0  0  0  0  0  0
  -20.9955  -28.3256   24.1447 H   0  0  0  0  0  0
  -20.5711  -26.2288   23.3621 H   0  0  0  0  0  0
  -21.6644  -26.7484   22.1204 H   0  0  0  0  0  0
  -19.6915  -25.6307   21.1253 H   0  0  0  0  0  0
  -19.6669  -27.3222   20.6777 H   0  0  0  0  0  0
  -17.4200  -26.6730   21.4027 H   0  0  0  0  0  0
  -18.0297  -26.0052   22.9005 H   0  0  0  0  0  0
  -19.7911  -30.7279   24.2304 H   0  0  0  0  0  0
  -17.4988  -31.6276   24.5151 H   0  0  0  0  0  0
  -15.5339  -30.2986   23.7627 H   0  0  0  0  0  0
  -15.8682  -28.0785   22.7132 H   0  0  0  0  0  0
  -24.5916  -30.7001   25.7700 H   0  0  0  0  0  0
  -24.8850  -32.2801   26.4866 H   0  0  0  0  0  0
  -25.8005  -30.8799   27.0204 H   0  0  0  0  0  0
  -26.2926  -29.6745   24.1224 H   0  0  0  0  0  0
  -27.4090  -29.7291   25.4665 H   0  0  0  0  0  0
  -27.8774  -30.4321   23.9380 H   0  0  0  0  0  0
  -27.2727  -33.3600   26.2068 H   0  0  0  0  0  0
  -28.3853  -32.6811   25.0266 H   0  0  0  0  0  0
  -28.0780  -31.8397   26.5368 H   0  0  0  0  0  0
  -28.2587  -38.0106   24.7558 H   0  0  0  0  0  0
  -28.1114  -36.2638   24.6256 H   0  0  0  0  0  0
  -27.2335  -37.1382   25.8884 H   0  0  0  0  0  0
  -20.9379  -29.8691   21.6858 H   0  0  0  0  0  0
  -26.0204  -38.2875   24.1381 H   0  0  0  0  0  0
  -27.4607  -20.1997   19.9845 H   0  0  0  0  0  0
  -27.2204  -20.0592   21.7296 H   0  0  0  0  0  0
  -27.8253  -22.4029   22.0546 H   0  0  0  0  0  0
  -26.7876  -22.4399   20.6284 H   0  0  0  0  0  0
  -30.7578  -16.7955   19.0209 H   0  0  0  0  0  0
  -29.1782  -16.1114   18.7924 H   0  0  0  0  0  0
  -30.3018  -15.9801   22.7707 H   0  0  0  0  0  0
  -31.5421  -16.7076   21.7919 H   0  0  0  0  0  0
  -28.0988  -17.9304   19.9988 H   0  0  0  0  0  0
  -29.1856  -18.6446   18.8335 H   0  0  0  0  0  0
  -30.3214  -18.4785   22.8801 H   0  0  0  0  0  0
  -28.7704  -17.8358   22.3957 H   0  0  0  0  0  0
  -29.5425  -20.4717   22.1801 H   0  0  0  0  0  0
  -30.1318  -21.1586   19.3108 H   0  0  0  0  0  0
  -31.1097  -22.4327   21.9215 H   0  0  0  0  0  0
  -31.7528  -22.7049   20.2994 H   0  0  0  0  0  0
  -31.9613  -21.1541   21.0747 H   0  0  0  0  0  0
  -29.4242  -24.1647   21.5030 H   0  0  0  0  0  0
  -30.1255  -24.2402   19.9109 H   0  0  0  0  0  0
  -27.1890  -24.7800   20.5140 H   0  0  0  0  0  0
  -27.9169  -24.8723   18.9234 H   0  0  0  0  0  0
  -30.7739  -18.9451   20.5962 H   0  0  0  0  0  0
  1 25  1  0  0  0
  1 30  2  0  0  0
  1 82  1  0  0  0
  2  3  1  0  0  0
  2 25  1  0  0  0
  2 85  1  0  0  0
  2 86  1  0  0  0
  3  4  1  0  0  0
  3 87  1  0  0  0
  3 88  1  0  0  0
  4  5  1  0  0  0
  4 89  1  0  0  0
  4 90  1  0  0  0
  5  6  1  0  0  0
  5 26  1  0  0  0
  5 91  1  0  0  0
  6 25  1  0  0  0
  6 92  1  0  0  0
  6 93  1  0  0  0
  7  8  2  0  0  0
  7 26  1  0  0  0
  7 29  1  0  0  0
  8  9  1  0  0  0
  8 22  1  0  0  0
  9 10  1  0  0  0
  9 27  2  0  0  0
 10 11  2  0  0  0
 10 15  1  0  0  0
 11 12  1  0  0  0
 11 94  1  0  0  0
 12 13  2  0  0  0
 12 95  1  0  0  0
 13 14  1  0  0  0
 13 31  1  0  0  0
 14 15  2  0  0  0
 14 96  1  0  0  0
 15 97  1  0  0  0
 16 17  2  0  0  0
 16 21  1  0  0  0
 16 31  1  0  0  0
 17 18  1  0  0  0
 17 98  1  0  0  0
 18 19  2  0  0  0
 18 99  1  0  0  0
 19 20  1  0  0  0
 19 24  1  0  0  0
 20 21  2  0  0  0
 20100  1  0  0  0
 21 23  1  0  0  0
 22 28  1  0  0  0
 22 32  2  0  0  0
 26 27  1  0  0  0
 28101  1  0  0  0
 28102  1  0  0  0
 29103  1  0  0  0
 29104  1  0  0  0
 33 34  1  0  0  0
 33 66  1  0  0  0
 33 70  2  0  0  0
 34 36  1  0  0  0
 34 59  1  0  0  0
 34105  1  0  0  0
 35 44  2  0  0  0
 35 45  1  0  0  0
 35 68  1  0  0  0
 36 56  1  0  0  0
 36106  1  0  0  0
 37 39  1  0  0  0
 37 47  1  0  0  0
 37 66  1  0  0  0
 37107  1  0  0  0
 38 43  2  0  0  0
 38 46  1  0  0  0
 38 47  1  0  0  0
 39 64  1  0  0  0
 39 67  2  0  0  0
 40 52  1  0  0  0
 40 53  2  0  0  0
 40 58  1  0  0  0
 41108  1  0  0  0
 41109  1  0  0  0
 41110  1  0  0  0
 41 48  1  0  0  0
 42 43  1  0  0  0
 42 66  1  0  0  0
 42111  1  0  0  0
 42112  1  0  0  0
 43 44  1  0  0  0
 44113  1  0  0  0
 45 46  2  0  0  0
 45114  1  0  0  0
 46115  1  0  0  0
 47116  1  0  0  0
 47117  1  0  0  0
 48 56  1  0  0  0
 48 65  1  0  0  0
 48118  1  0  0  0
 49 50  1  0  0  0
 49 53  1  0  0  0
 49 64  1  0  0  0
 49119  1  0  0  0
 50 51  1  0  0  0
 50120  1  0  0  0
 50121  1  0  0  0
 51 52  1  0  0  0
 51122  1  0  0  0
 51123  1  0  0  0
 52124  1  0  0  0
 52125  1  0  0  0
 53 54  1  0  0  0
 54 55  2  0  0  0
 54126  1  0  0  0
 55 57  1  0  0  0
 55127  1  0  0  0
 56 69  2  0  0  0
 57 58  2  0  0  0
 57128  1  0  0  0
 58129  1  0  0  0
 59 60  1  0  0  0
 59 61  1  0  0  0
 59 62  1  0  0  0
 60130  1  0  0  0
 60131  1  0  0  0
 60132  1  0  0  0
 61133  1  0  0  0
 61134  1  0  0  0
 61135  1  0  0  0
 62136  1  0  0  0
 62137  1  0  0  0
 62138  1  0  0  0
 63 65  1  0  0  0
 63139  1  0  0  0
 63140  1  0  0  0
 63141  1  0  0  0
 64142  1  0  0  0
 65143  1  0  0  0
 68 81  1  0  0  0
 71 72  1  0  0  0
 71144  1  0  0  0
 71145  1  0  0  0
 71 77  1  0  0  0
 72 83  1  0  0  0
 72146  1  0  0  0
 72147  1  0  0  0
 73 75  1  0  0  0
 73 82  1  0  0  0
 73148  1  0  0  0
 73149  1  0  0  0
 74 76  1  0  0  0
 74 82  1  0  0  0
 74150  1  0  0  0
 74151  1  0  0  0
 75152  1  0  0  0
 75153  1  0  0  0
 75 84  1  0  0  0
 76 84  1  0  0  0
 76154  1  0  0  0
 76155  1  0  0  0
 77 78  1  0  0  0
 77 84  1  0  0  0
 77156  1  0  0  0
 78 79  1  0  0  0
 78 83  1  0  0  0
 78157  1  0  0  0
 79158  1  0  0  0
 79159  1  0  0  0
 79160  1  0  0  0
 80 81  1  0  0  0
 80 83  1  0  0  0
 80161  1  0  0  0
 80162  1  0  0  0
 81163  1  0  0  0
 81164  1  0  0  0
 84165  1  0  0  0
M  CHG  1  84   1
M  ISO  4   1 100  68 101  81 101  82 100
M  END
> <chiral flag>
0

> <version>
0

> <s_m_source_file>
/data/baiqing/PycharmProjects/Reinvent-master-3.2/result/LINK_invent/BTK/process_docking_weight1_custom_sum_contain_oxygen_bond_distance_aromatic_linkinvent_7_9_3/rearranged_h_0195.sdf

> <i_m_source_file_index>
8

> <r_mmod_Potential_Energy-OPLS-2005>
269.993408203125

> <r_mmod_Stretch_Energy-OPLS-2005>
78.2606201171875

> <r_mmod_Bend_Energy-OPLS-2005>
185.295028686523

> <r_mmod_Torsional_Energy-OPLS-2005>
452.016815185547

> <r_mmod_Improper_Torsional_Energy-OPLS-2005>
10.1152105331421

> <r_mmod_Van_der_Waal_Energy-OPLS-2005>
135.112976074219

> <r_mmod_Electrostatic_Energy-OPLS-2005>
-195.717147827148

> <r_mmod_Solvation_Energy-OPLS-2005>
-438.313873291016

> <b_mmod_Minimization_Converged-OPLS-2005>
0

> <r_mmod_RMS_Derivative-OPLS-2005>
2.69057178497314

$$$$
8
                    3D
 Structure written by MMmdl.
167176  0  0  1  0            999 V2000
  -30.1468  -15.7291   19.9793 C   0  0  0  0  0  0
  -30.3730  -13.1241   19.4425 C   0  0  0  0  0  0
  -29.5173  -12.6272   18.2541 C   0  0  0  0  0  0
  -28.0841  -12.3034   18.7122 C   0  0  0  0  0  0
  -27.5622  -13.3113   19.7662 C   0  0  2  0  0  0
  -28.5911  -13.7070   20.8370 C   0  0  0  0  0  0
  -25.2238  -13.8268   20.5852 C   0  0  0  0  0  0
  -24.1696  -13.0444   20.9303 C   0  0  0  0  0  0
  -24.6399  -11.6924   20.8773 C   0  0  0  0  0  0
  -23.9139  -10.4306   21.0374 C   0  0  0  0  0  0
  -24.3661   -9.4208   21.9175 C   0  0  0  0  0  0
  -23.6326   -8.2236   22.0733 C   0  0  0  0  0  0
  -22.4301   -8.0283   21.3529 C   0  0  0  0  0  0
  -21.9948   -9.0272   20.4643 C   0  0  0  0  0  0
  -22.7273  -10.2153   20.3064 C   0  0  0  0  0  0
  -21.6892   -6.0749   22.5273 C   0  0  0  0  0  0
  -21.4017   -6.5643   23.8200 C   0  0  0  0  0  0
  -21.3656   -5.6785   24.9164 C   0  0  0  0  0  0
  -21.6035   -4.3046   24.7212 C   0  0  0  0  0  0
  -21.8833   -3.8148   23.4340 C   0  0  0  0  0  0
  -21.9193   -4.6969   22.3394 C   0  0  0  0  0  0
  -22.7716  -13.5128   21.1952 C   0  0  0  0  0  0
  -22.1679   -4.2153   21.0970 F   0  0  0  0  0  0
  -21.5620   -3.4540   25.7724 F   0  0  0  0  0  0
  -29.6880  -14.3388   20.0731 N   0  0  0  0  0  0
  -26.2649  -12.9611   20.3160 N   0  0  0  0  0  0
  -25.9307  -11.6668   20.5663 N   0  0  0  0  0  0
  -22.0423  -12.8142   22.0480 N   0  0  0  0  0  0
  -25.3890  -15.2055   20.4316 N   0  0  0  0  0  0
  -31.3958  -15.6491   19.9746 O   0  0  0  0  0  0
  -21.6656   -6.8894   21.4239 O   0  0  0  0  0  0
  -22.3408  -14.5447   20.6789 O   0  0  0  0  0  0
  -25.3253  -31.8803   22.5542 C   0  0  0  0  0  0
  -26.4265  -32.5150   23.5501 C   0  0  1  0  0  0
  -26.8222  -27.9551   21.7201 C   0  0  0  0  0  0
  -25.9334  -33.8542   24.0311 N   0  0  0  0  0  0
  -24.0743  -28.9711   21.2923 C   0  0  2  0  0  0
  -25.2081  -28.3406   19.9582 C   0  0  0  0  0  0
  -22.6732  -28.4328   22.2096 C   0  0  0  0  0  0
  -17.9227  -28.1497   22.8021 C   0  0  0  0  0  0
  -24.1482  -36.6980   23.2608 C   0  0  0  0  0  0
  -26.2667  -30.7597   20.5383 C   0  0  0  0  0  0
  -26.3044  -29.3178   20.1629 C   0  0  0  0  0  0
  -27.4029  -28.7694   20.7637 C   0  0  0  0  0  0
  -26.4701  -26.7614   21.0418 C   0  0  0  0  0  0
  -25.4773  -26.9934   20.1428 C   0  0  0  0  0  0
  -23.7223  -28.3759   20.1244 C   0  0  0  0  0  0
  -25.4370  -36.2814   23.9832 C   0  0  1  0  0  0
  -20.4475  -28.1901   23.0825 C   0  0  2  0  0  0
  -20.3780  -26.7095   22.6586 C   0  0  0  0  0  0
  -19.3987  -26.5556   21.5136 C   0  0  0  0  0  0
  -18.0160  -26.8088   22.0861 C   0  0  0  0  0  0
  -19.0778  -28.8540   23.2219 C   0  0  0  0  0  0
  -18.9394  -30.1173   23.8468 C   0  0  0  0  0  0
  -17.6627  -30.6738   24.0528 C   0  0  0  0  0  0
  -26.0134  -34.9941   23.3622 C   0  0  0  0  0  0
  -16.5175  -29.9591   23.6387 C   0  0  0  0  0  0
  -16.6544  -28.7029   23.0126 C   0  0  0  0  0  0
  -26.7180  -31.7733   24.9667 C   0  0  0  0  0  0
  -25.5642  -31.5207   26.0180 C   0  0  0  0  0  0
  -27.4997  -30.4770   24.7266 C   0  0  0  0  0  0
  -27.7240  -32.6720   25.7423 C   0  0  0  0  0  0
  -27.5538  -37.1889   24.8469 C   0  0  0  0  0  0
  -21.3794  -28.8303   22.1570 N   0  0  0  0  0  0
  -26.4027  -37.3998   23.9749 N   0  0  0  0  0  0
  -25.3143  -30.6591   21.5260 N   0  0  0  0  0  0
  -22.9372  -27.7585   23.2082 O   0  0  0  0  0  0
  -25.9763  -28.5260   22.8468 O   0  0  0  0  0  0
  -26.5960  -35.0275   22.2854 O   0  0  0  0  0  0
  -24.2936  -32.2669   23.2044 O   0  0  0  0  0  0
  -25.3677  -25.0194   17.4480 C   0  0  0  0  0  0
  -25.9287  -23.5978   17.7194 C   0  0  0  0  0  0
  -27.2604  -25.8131   18.1558 C   0  0  0  0  0  0
  -25.9301  -26.3877   17.6823 C   0  0  0  0  0  0
  -27.2307  -23.1360   18.3068 C   0  0  0  0  0  0
  -29.6399  -19.8827   20.0809 C   0  0  0  0  0  0
  -29.9101  -18.3492   20.6534 C   0  0  0  0  0  0
  -28.6293  -18.3292   18.8859 C   0  0  0  0  0  0
  -28.2820  -20.1098   19.3024 C   0  0  2  0  0  0
  -25.2912  -28.2351   17.4921 C   0  0  0  0  0  0
  -24.1256  -29.8731   18.2117 C   0  0  0  0  0  0
  -23.0256  -30.9498   21.6040 C   0  0  0  0  0  0
  -24.4563  -29.7081   23.4171 C   0  0  0  0  0  0
  -27.8062  -24.4536   18.4334 N   0  0  0  0  0  0
  -29.3975  -17.1524   19.8761 N   0  0  0  0  0  0
  -27.9592  -21.6392   18.4261 N   0  0  0  0  0  0
  -23.5238  -30.9079   19.7261 N   0  3  0  0  0  0
  -31.3693  -13.3601   19.0844 H   0  0  0  0  0  0
  -30.5218  -12.3127   20.1570 H   0  0  0  0  0  0
  -29.9693  -11.7533   17.7879 H   0  0  0  0  0  0
  -29.4843  -13.3994   17.4833 H   0  0  0  0  0  0
  -28.0946  -11.2999   19.1343 H   0  0  0  0  0  0
  -27.4063  -12.2706   17.8567 H   0  0  0  0  0  0
  -27.3874  -14.2151   19.1861 H   0  0  0  0  0  0
  -28.9058  -12.8569   21.4492 H   0  0  0  0  0  0
  -28.1700  -14.4384   21.5273 H   0  0  0  0  0  0
  -25.2842   -9.5673   22.4730 H   0  0  0  0  0  0
  -24.0045   -7.4634   22.7465 H   0  0  0  0  0  0
  -21.0869   -8.8808   19.8972 H   0  0  0  0  0  0
  -22.3739  -10.9693   19.6173 H   0  0  0  0  0  0
  -21.2025   -7.6158   23.9711 H   0  0  0  0  0  0
  -21.1454   -6.0520   25.9068 H   0  0  0  0  0  0
  -22.0613   -2.7617   23.2832 H   0  0  0  0  0  0
  -22.4129  -11.9810   22.4849 H   0  0  0  0  0  0
  -21.1018  -13.1084   22.2708 H   0  0  0  0  0  0
  -24.6183  -15.8514   20.5690 H   0  0  0  0  0  0
  -26.2357  -15.6591   20.1188 H   0  0  0  0  0  0
  -27.3714  -32.6259   23.0017 H   0  0  0  0  0  0
  -25.4466  -33.8426   24.9131 H   0  0  0  0  0  0
  -24.3437  -28.0506   21.8041 H   0  0  0  0  0  0
  -23.4146  -35.8842   23.2911 H   0  0  0  0  0  0
  -24.3350  -36.9426   22.2126 H   0  0  0  0  0  0
  -23.6888  -37.5667   23.7356 H   0  0  0  0  0  0
  -26.0263  -31.3756   19.6758 H   0  0  0  0  0  0
  -27.2387  -31.1129   20.9101 H   0  0  0  0  0  0
  -28.0226  -28.2424   20.0512 H   0  0  0  0  0  0
  -26.3594  -25.8366   21.6048 H   0  0  0  0  0  0
  -24.8195  -26.1461   19.9559 H   0  0  0  0  0  0
  -22.8262  -28.7906   19.6578 H   0  0  0  0  0  0
  -23.2841  -27.3750   20.2203 H   0  0  0  0  0  0
  -25.1706  -36.0657   25.0119 H   0  0  0  0  0  0
  -20.8160  -28.2182   24.1021 H   0  0  0  0  0  0
  -20.0205  -26.0892   23.4943 H   0  0  0  0  0  0
  -21.3211  -26.2433   22.3721 H   0  0  0  0  0  0
  -19.4308  -25.5400   21.1182 H   0  0  0  0  0  0
  -19.6247  -27.2150   20.6802 H   0  0  0  0  0  0
  -17.2679  -26.7683   21.2991 H   0  0  0  0  0  0
  -17.7495  -26.0119   22.7857 H   0  0  0  0  0  0
  -19.8138  -30.6521   24.1930 H   0  0  0  0  0  0
  -17.5530  -31.6386   24.5252 H   0  0  0  0  0  0
  -15.5348  -30.3780   23.7893 H   0  0  0  0  0  0
  -15.7732  -28.1836   22.6624 H   0  0  0  0  0  0
  -25.2258  -30.4839   26.0871 H   0  0  0  0  0  0
  -24.6920  -32.1561   25.8498 H   0  0  0  0  0  0
  -25.9119  -31.6967   27.0336 H   0  0  0  0  0  0
  -27.2080  -29.9116   23.8886 H   0  0  0  0  0  0
  -27.5241  -29.8436   25.6121 H   0  0  0  0  0  0
  -28.5376  -30.7106   24.4837 H   0  0  0  0  0  0
  -27.2798  -33.6148   26.0581 H   0  0  0  0  0  0
  -28.5892  -32.9473   25.1343 H   0  0  0  0  0  0
  -28.1084  -32.2189   26.6530 H   0  0  0  0  0  0
  -28.2152  -38.0589   24.7919 H   0  0  0  0  0  0
  -28.1340  -36.3076   24.5616 H   0  0  0  0  0  0
  -27.2277  -37.0677   25.8824 H   0  0  0  0  0  0
  -21.0087  -29.4555   21.4535 H   0  0  0  0  0  0
  -25.9485  -38.2626   24.2599 H   0  0  0  0  0  0
  -24.4120  -25.0126   16.9692 H   0  0  0  0  0  0
  -25.2967  -22.8007   17.3435 H   0  0  0  0  0  0
  -28.0016  -26.5763   18.3985 H   0  0  0  0  0  0
  -30.4702  -20.1497   19.4274 H   0  0  0  0  0  0
  -29.7355  -20.5755   20.9110 H   0  0  0  0  0  0
  -29.4466  -18.2799   21.6375 H   0  0  0  0  0  0
  -30.9742  -18.2200   20.8525 H   0  0  0  0  0  0
  -29.2554  -18.3567   17.9886 H   0  0  0  0  0  0
  -27.6883  -17.8945   18.5550 H   0  0  0  0  0  0
  -27.5132  -20.0973   20.0776 H   0  0  0  0  0  0
  -24.9936  -28.2523   16.4428 H   0  0  0  0  0  0
  -26.2764  -28.6946   17.4422 H   0  0  0  0  0  0
  -23.1818  -29.6569   17.7125 H   0  0  0  0  0  0
  -24.5238  -30.6776   17.6232 H   0  0  0  0  0  0
  -22.8179  -32.0121   21.6924 H   0  0  0  0  0  0
  -21.9437  -30.8869   21.6345 H   0  0  0  0  0  0
  -23.8581  -29.3979   24.2744 H   0  0  0  0  0  0
  -25.0174  -30.2212   24.1451 H   0  0  0  0  0  0
  -28.6506  -21.6374   17.6887 H   0  0  0  0  0  0
  -22.7597  -31.4188   19.2977 H   0  0  0  0  0  0
  -24.2401  -31.6263   19.7408 H   0  0  0  0  0  0
  1 25  1  0  0  0
  1 30  2  0  0  0
  1 85  1  0  0  0
  2  3  1  0  0  0
  2 25  1  0  0  0
  2 88  1  0  0  0
  2 89  1  0  0  0
  3  4  1  0  0  0
  3 90  1  0  0  0
  3 91  1  0  0  0
  4  5  1  0  0  0
  4 92  1  0  0  0
  4 93  1  0  0  0
  5  6  1  0  0  0
  5 26  1  0  0  0
  5 94  1  0  0  0
  6 25  1  0  0  0
  6 95  1  0  0  0
  6 96  1  0  0  0
  7  8  2  0  0  0
  7 26  1  0  0  0
  7 29  1  0  0  0
  8  9  1  0  0  0
  8 22  1  0  0  0
  9 10  1  0  0  0
  9 27  2  0  0  0
 10 11  2  0  0  0
 10 15  1  0  0  0
 11 12  1  0  0  0
 11 97  1  0  0  0
 12 13  2  0  0  0
 12 98  1  0  0  0
 13 14  1  0  0  0
 13 31  1  0  0  0
 14 15  2  0  0  0
 14 99  1  0  0  0
 15100  1  0  0  0
 16 17  2  0  0  0
 16 21  1  0  0  0
 16 31  1  0  0  0
 17 18  1  0  0  0
 17101  1  0  0  0
 18 19  2  0  0  0
 18102  1  0  0  0
 19 20  1  0  0  0
 19 24  1  0  0  0
 20 21  2  0  0  0
 20103  1  0  0  0
 21 23  1  0  0  0
 22 28  1  0  0  0
 22 32  2  0  0  0
 26 27  1  0  0  0
 28104  1  0  0  0
 28105  1  0  0  0
 29106  1  0  0  0
 29107  1  0  0  0
 33 34  1  0  0  0
 33 66  1  0  0  0
 33 70  2  0  0  0
 34 36  1  0  0  0
 34 59  1  0  0  0
 34108  1  0  0  0
 35 44  2  0  0  0
 35 45  1  0  0  0
 35 68  1  0  0  0
 36 56  1  0  0  0
 36109  1  0  0  0
 37 39  1  0  0  0
 37 47  1  0  0  0
 37 66  1  0  0  0
 37110  1  0  0  0
 38 43  2  0  0  0
 38 46  1  0  0  0
 38 47  1  0  0  0
 39 64  1  0  0  0
 39 67  2  0  0  0
 40 52  1  0  0  0
 40 53  2  0  0  0
 40 58  1  0  0  0
 41111  1  0  0  0
 41112  1  0  0  0
 41113  1  0  0  0
 41 48  1  0  0  0
 42 43  1  0  0  0
 42 66  1  0  0  0
 42114  1  0  0  0
 42115  1  0  0  0
 43 44  1  0  0  0
 44116  1  0  0  0
 45 46  2  0  0  0
 45117  1  0  0  0
 46118  1  0  0  0
 47119  1  0  0  0
 47120  1  0  0  0
 48 56  1  0  0  0
 48 65  1  0  0  0
 48121  1  0  0  0
 49 50  1  0  0  0
 49 53  1  0  0  0
 49 64  1  0  0  0
 49122  1  0  0  0
 50 51  1  0  0  0
 50123  1  0  0  0
 50124  1  0  0  0
 51 52  1  0  0  0
 51125  1  0  0  0
 51126  1  0  0  0
 52127  1  0  0  0
 52128  1  0  0  0
 53 54  1  0  0  0
 54 55  2  0  0  0
 54129  1  0  0  0
 55 57  1  0  0  0
 55130  1  0  0  0
 56 69  2  0  0  0
 57 58  2  0  0  0
 57131  1  0  0  0
 58132  1  0  0  0
 59 60  1  0  0  0
 59 61  1  0  0  0
 59 62  1  0  0  0
 60133  1  0  0  0
 60134  1  0  0  0
 60135  1  0  0  0
 61136  1  0  0  0
 61137  1  0  0  0
 61138  1  0  0  0
 62139  1  0  0  0
 62140  1  0  0  0
 62141  1  0  0  0
 63 65  1  0  0  0
 63142  1  0  0  0
 63143  1  0  0  0
 63144  1  0  0  0
 64145  1  0  0  0
 65146  1  0  0  0
 68 83  1  0  0  0
 71 72  2  0  0  0
 71 74  1  0  0  0
 71147  1  0  0  0
 72 75  1  0  0  0
 72148  1  0  0  0
 73 74  2  0  0  0
 73 84  1  0  0  0
 73149  1  0  0  0
 74 80  1  0  0  0
 75 84  2  0  0  0
 75 86  1  0  0  0
 76 77  1  0  0  0
 76 79  1  0  0  0
 76150  1  0  0  0
 76151  1  0  0  0
 77 85  1  0  0  0
 77152  1  0  0  0
 77153  1  0  0  0
 78 79  1  0  0  0
 78 85  1  0  0  0
 78154  1  0  0  0
 78155  1  0  0  0
 79 86  1  0  0  0
 79156  1  0  0  0
 80 81  1  0  0  0
 80157  1  0  0  0
 80158  1  0  0  0
 81 87  1  0  0  0
 81159  1  0  0  0
 81160  1  0  0  0
 82 83  1  0  0  0
 82 87  1  0  0  0
 82161  1  0  0  0
 82162  1  0  0  0
 83163  1  0  0  0
 83164  1  0  0  0
 86165  1  0  0  0
 87166  1  0  0  0
 87167  1  0  0  0
M  CHG  1  87   1
M  ISO  4   1 100  68 101  83 101  85 100
M  END
> <chiral flag>
0

> <version>
0

> <s_m_source_file>
/data/baiqing/PycharmProjects/Reinvent-master-3.2/result/LINK_invent/BTK/process_docking_weight1_custom_sum_contain_oxygen_bond_distance_aromatic_linkinvent_7_9_3/rearranged_h_0195.sdf

> <i_m_source_file_index>
9

> <r_mmod_Potential_Energy-OPLS-2005>
13957.095703125

> <r_mmod_Stretch_Energy-OPLS-2005>
5144.23828125

> <r_mmod_Bend_Energy-OPLS-2005>
2220.19458007812

> <r_mmod_Torsional_Energy-OPLS-2005>
819.737243652344

> <r_mmod_Improper_Torsional_Energy-OPLS-2005>
80.8444900512695

> <r_mmod_Van_der_Waal_Energy-OPLS-2005>
2148.97802734375

> <r_mmod_Electrostatic_Energy-OPLS-2005>
-459.432006835938

> <r_mmod_Solvation_Energy-OPLS-2005>
-440.610809326172

> <b_mmod_Minimization_Converged-OPLS-2005>
0

> <r_mmod_RMS_Derivative-OPLS-2005>
25.6186389923096

$$$$
9
                    3D
 Structure written by MMmdl.
163172  0  0  1  0            999 V2000
  -30.6978  -14.4720   20.6081 C   0  0  0  0  0  0
  -30.4274  -12.3202   19.4224 C   0  0  0  0  0  0
  -29.4948  -12.5182   18.2087 C   0  0  0  0  0  0
  -28.0181  -12.3656   18.6220 C   0  0  0  0  0  0
  -27.6635  -13.2032   19.8790 C   0  0  2  0  0  0
  -28.7039  -12.9764   21.0000 C   0  0  0  0  0  0
  -25.2596  -13.8145   20.5671 C   0  0  0  0  0  0
  -24.1844  -13.0437   20.9173 C   0  0  0  0  0  0
  -24.6389  -11.6901   20.8735 C   0  0  0  0  0  0
  -23.9054  -10.4290   21.0402 C   0  0  0  0  0  0
  -24.3605   -9.4204   21.9181 C   0  0  0  0  0  0
  -23.6285   -8.2240   22.0755 C   0  0  0  0  0  0
  -22.4271   -8.0273   21.3543 C   0  0  0  0  0  0
  -21.9903   -9.0245   20.4645 C   0  0  0  0  0  0
  -22.7229  -10.2126   20.3052 C   0  0  0  0  0  0
  -21.6850   -6.0733   22.5275 C   0  0  0  0  0  0
  -21.4011   -6.5635   23.8210 C   0  0  0  0  0  0
  -21.3662   -5.6790   24.9172 C   0  0  0  0  0  0
  -21.6043   -4.3053   24.7227 C   0  0  0  0  0  0
  -21.8822   -3.8148   23.4348 C   0  0  0  0  0  0
  -21.9192   -4.6962   22.3402 C   0  0  0  0  0  0
  -22.7868  -13.5235   21.1837 C   0  0  0  0  0  0
  -22.1662   -4.2148   21.0980 F   0  0  0  0  0  0
  -21.5632   -3.4539   25.7746 F   0  0  0  0  0  0
  -30.0359  -13.2928   20.4554 N   0  0  0  0  0  0
  -26.3029  -12.9309   20.3371 N   0  0  0  0  0  0
  -25.9315  -11.6475   20.5775 N   0  0  0  0  0  0
  -22.0510  -12.8221   22.0389 N   0  0  0  0  0  0
  -25.4331  -15.1862   20.4050 N   0  0  0  0  0  0
  -31.8002  -14.6961   20.0987 O   0  0  0  0  0  0
  -21.6633   -6.8872   21.4238 O   0  0  0  0  0  0
  -22.3557  -14.5554   20.6703 O   0  0  0  0  0  0
  -24.6197  -31.8684   23.2119 C   0  0  0  0  0  0
  -25.9090  -32.4813   23.8424 C   0  0  1  0  0  0
  -27.2351  -27.4111   20.0938 C   0  0  0  0  0  0
  -25.5967  -33.8618   24.2365 N   0  0  0  0  0  0
  -23.4089  -30.4906   21.5539 C   0  0  2  0  0  0
  -24.8548  -28.9603   20.1127 C   0  0  0  0  0  0
  -22.7448  -29.4653   22.5019 C   0  0  0  0  0  0
  -18.0281  -28.1340   22.8474 C   0  0  0  0  0  0
  -24.1494  -36.7291   23.2635 C   0  0  0  0  0  0
  -25.9422  -30.8213   21.3747 C   0  0  0  0  0  0
  -26.0170  -29.4576   20.7141 C   0  0  0  0  0  0
  -27.2087  -28.6922   20.7010 C   0  0  0  0  0  0
  -26.0498  -26.9441   19.4733 C   0  0  0  0  0  0
  -24.8683  -27.7052   19.4859 C   0  0  0  0  0  0
  -23.6195  -29.8299   20.1658 C   0  0  0  0  0  0
  -25.4110  -36.3098   24.0351 C   0  0  1  0  0  0
  -20.5871  -28.3651   23.1308 C   0  0  2  0  0  0
  -20.6784  -26.9388   22.5417 C   0  0  0  0  0  0
  -19.5765  -26.6367   21.5212 C   0  0  0  0  0  0
  -18.1930  -26.7892   22.1596 C   0  0  0  0  0  0
  -19.1529  -28.8815   23.2867 C   0  0  0  0  0  0
  -18.9456  -30.1421   23.8877 C   0  0  0  0  0  0
  -17.6453  -30.6547   24.0548 C   0  0  0  0  0  0
  -25.9057  -34.9464   23.5146 C   0  0  0  0  0  0
  -16.5347  -29.9043   23.6312 C   0  0  0  0  0  0
  -16.7268  -28.6458   23.0340 C   0  0  0  0  0  0
  -26.4516  -31.6581   25.0749 C   0  0  0  0  0  0
  -25.3780  -31.3655   26.1491 C   0  0  0  0  0  0
  -27.0375  -30.3031   24.6126 C   0  0  0  0  0  0
  -27.6106  -32.4294   25.7489 C   0  0  0  0  0  0
  -27.5584  -37.1791   24.8464 C   0  0  0  0  0  0
  -21.4177  -29.3023   22.3745 N   0  0  0  0  0  0
  -26.4288  -37.3787   23.9426 N   0  0  0  0  0  0
  -24.6746  -31.0754   22.1035 N   0  0  0  0  0  0
  -23.4206  -28.8197   23.3073 O   0  0  0  0  0  0
  -28.3953  -26.6490   20.1308 O   0  0  0  0  0  0
  -26.5592  -34.8902   22.4687 O   0  0  0  0  0  0
  -23.5388  -32.1485   23.7472 O   0  0  0  0  0  0
  -28.3068  -20.8101   21.3901 C   0  0  0  0  0  0
  -29.6231  -20.6725   19.1786 C   0  0  0  0  0  0
  -28.9280  -22.2177   21.5773 C   0  0  0  0  0  0
  -30.1511  -22.0988   19.4923 C   0  0  0  0  0  0
  -29.3223  -17.8283   21.8610 C   0  0  0  0  0  0
  -30.3332  -17.7154   20.1030 C   0  0  0  0  0  0
  -30.4104  -16.8626   21.3739 C   0  0  2  0  0  0
  -29.0236  -19.8698   20.3737 C   0  0  1  0  0  0
  -29.4624  -24.3598   20.3701 C   0  0  0  0  0  0
  -28.2438  -25.2223   19.9476 C   0  0  0  0  0  0
  -30.0158  -15.4437   21.2476 N   0  0  0  0  0  0
  -29.9425  -18.8429   20.9791 N   0  3  1  0  0  0
  -29.1635  -22.8895   20.2723 N   0  3  2  0  0  0
  -31.4705  -12.4310   19.1214 H   0  0  0  0  0  0
  -30.3383  -11.3058   19.8136 H   0  0  0  0  0  0
  -29.7400  -11.8023   17.4233 H   0  0  0  0  0  0
  -29.6524  -13.5087   17.7792 H   0  0  0  0  0  0
  -27.8380  -11.3082   18.8196 H   0  0  0  0  0  0
  -27.3633  -12.6369   17.7928 H   0  0  0  0  0  0
  -27.7109  -14.2519   19.5847 H   0  0  0  0  0  0
  -28.6852  -11.9361   21.3285 H   0  0  0  0  0  0
  -28.4569  -13.5621   21.8863 H   0  0  0  0  0  0
  -25.2749   -9.5684   22.4751 H   0  0  0  0  0  0
  -24.0000   -7.4634   22.7471 H   0  0  0  0  0  0
  -21.0838   -8.8753   19.8947 H   0  0  0  0  0  0
  -22.3681  -10.9659   19.6157 H   0  0  0  0  0  0
  -21.1997   -7.6142   23.9713 H   0  0  0  0  0  0
  -21.1481   -6.0521   25.9076 H   0  0  0  0  0  0
  -22.0600   -2.7612   23.2853 H   0  0  0  0  0  0
  -22.4123  -11.9858   22.4745 H   0  0  0  0  0  0
  -21.1131  -13.1238   22.2620 H   0  0  0  0  0  0
  -24.6620  -15.8393   20.4911 H   0  0  0  0  0  0
  -26.2770  -15.6141   20.0475 H   0  0  0  0  0  0
  -26.7167  -32.5515   23.1192 H   0  0  0  0  0  0
  -25.0229  -33.9795   25.0587 H   0  0  0  0  0  0
  -22.6967  -31.3063   21.4157 H   0  0  0  0  0  0
  -23.3770  -35.9608   23.3291 H   0  0  0  0  0  0
  -24.3608  -36.8922   22.2054 H   0  0  0  0  0  0
  -23.7225  -37.6481   23.6661 H   0  0  0  0  0  0
  -26.0727  -31.5904   20.6131 H   0  0  0  0  0  0
  -26.8231  -30.8652   22.0033 H   0  0  0  0  0  0
  -28.1022  -29.0693   21.1797 H   0  0  0  0  0  0
  -26.0101  -25.9904   18.9679 H   0  0  0  0  0  0
  -23.9782  -27.3244   19.0046 H   0  0  0  0  0  0
  -23.7347  -30.6099   19.4118 H   0  0  0  0  0  0
  -22.7426  -29.2549   19.8630 H   0  0  0  0  0  0
  -25.1274  -36.1969   25.0845 H   0  0  0  0  0  0
  -20.9918  -28.3204   24.1444 H   0  0  0  0  0  0
  -20.5711  -26.2253   23.3603 H   0  0  0  0  0  0
  -21.6659  -26.7450   22.1205 H   0  0  0  0  0  0
  -19.6945  -25.6289   21.1210 H   0  0  0  0  0  0
  -19.6695  -27.3203   20.6757 H   0  0  0  0  0  0
  -17.4227  -26.6668   21.3962 H   0  0  0  0  0  0
  -18.0293  -26.0000   22.8946 H   0  0  0  0  0  0
  -19.7939  -30.7226   24.2238 H   0  0  0  0  0  0
  -17.5020  -31.6223   24.5162 H   0  0  0  0  0  0
  -15.5349  -30.2938   23.7649 H   0  0  0  0  0  0
  -15.8668  -28.0770   22.7056 H   0  0  0  0  0  0
  -24.6005  -30.6938   25.7843 H   0  0  0  0  0  0
  -24.8888  -32.2776   26.4917 H   0  0  0  0  0  0
  -25.8150  -30.8869   27.0262 H   0  0  0  0  0  0
  -26.2917  -29.6739   24.1253 H   0  0  0  0  0  0
  -27.4268  -29.7315   25.4567 H   0  0  0  0  0  0
  -27.8708  -30.4397   23.9226 H   0  0  0  0  0  0
  -27.2773  -33.3617   26.2059 H   0  0  0  0  0  0
  -28.3898  -32.6810   25.0282 H   0  0  0  0  0  0
  -28.0801  -31.8411   26.5391 H   0  0  0  0  0  0
  -28.2583  -38.0104   24.7556 H   0  0  0  0  0  0
  -28.1096  -36.2640   24.6233 H   0  0  0  0  0  0
  -27.2315  -37.1389   25.8867 H   0  0  0  0  0  0
  -20.9379  -29.8741   21.6936 H   0  0  0  0  0  0
  -26.0174  -38.2866   24.1425 H   0  0  0  0  0  0
  -27.2878  -20.9617   21.0304 H   0  0  0  0  0  0
  -28.1870  -20.3263   22.3598 H   0  0  0  0  0  0
  -30.3986  -20.0992   18.6704 H   0  0  0  0  0  0
  -28.8319  -20.7824   18.4354 H   0  0  0  0  0  0
  -29.8671  -22.1530   22.1300 H   0  0  0  0  0  0
  -28.2572  -22.8232   22.1898 H   0  0  0  0  0  0
  -30.3641  -22.6071   18.5508 H   0  0  0  0  0  0
  -31.0980  -22.0524   20.0328 H   0  0  0  0  0  0
  -29.3729  -18.0777   22.9219 H   0  0  0  0  0  0
  -28.3091  -17.5451   21.5653 H   0  0  0  0  0  0
  -29.5513  -17.4016   19.4073 H   0  0  0  0  0  0
  -31.2870  -17.8600   19.5952 H   0  0  0  0  0  0
  -31.3527  -17.0009   21.9115 H   0  0  0  0  0  0
  -28.2249  -19.2644   19.9392 H   0  0  0  0  0  0
  -29.7634  -24.6180   21.3868 H   0  0  0  0  0  0
  -30.3079  -24.6235   19.7338 H   0  0  0  0  0  0
  -27.3836  -24.8792   20.5249 H   0  0  0  0  0  0
  -28.0325  -25.0276   18.8956 H   0  0  0  0  0  0
  -29.1400  -15.1616   21.6639 H   0  0  0  0  0  0
  -30.7555  -19.2433   21.4233 H   0  0  0  0  0  0
  -28.2976  -22.8400   19.7541 H   0  0  0  0  0  0
  1 25  1  0  0  0
  1 30  2  0  0  0
  1 81  1  0  0  0
  2  3  1  0  0  0
  2 25  1  0  0  0
  2 84  1  0  0  0
  2 85  1  0  0  0
  3  4  1  0  0  0
  3 86  1  0  0  0
  3 87  1  0  0  0
  4  5  1  0  0  0
  4 88  1  0  0  0
  4 89  1  0  0  0
  5  6  1  0  0  0
  5 26  1  0  0  0
  5 90  1  0  0  0
  6 25  1  0  0  0
  6 91  1  0  0  0
  6 92  1  0  0  0
  7  8  2  0  0  0
  7 26  1  0  0  0
  7 29  1  0  0  0
  8  9  1  0  0  0
  8 22  1  0  0  0
  9 10  1  0  0  0
  9 27  2  0  0  0
 10 11  2  0  0  0
 10 15  1  0  0  0
 11 12  1  0  0  0
 11 93  1  0  0  0
 12 13  2  0  0  0
 12 94  1  0  0  0
 13 14  1  0  0  0
 13 31  1  0  0  0
 14 15  2  0  0  0
 14 95  1  0  0  0
 15 96  1  0  0  0
 16 17  2  0  0  0
 16 21  1  0  0  0
 16 31  1  0  0  0
 17 18  1  0  0  0
 17 97  1  0  0  0
 18 19  2  0  0  0
 18 98  1  0  0  0
 19 20  1  0  0  0
 19 24  1  0  0  0
 20 21  2  0  0  0
 20 99  1  0  0  0
 21 23  1  0  0  0
 22 28  1  0  0  0
 22 32  2  0  0  0
 26 27  1  0  0  0
 28100  1  0  0  0
 28101  1  0  0  0
 29102  1  0  0  0
 29103  1  0  0  0
 33 34  1  0  0  0
 33 66  1  0  0  0
 33 70  2  0  0  0
 34 36  1  0  0  0
 34 59  1  0  0  0
 34104  1  0  0  0
 35 44  2  0  0  0
 35 45  1  0  0  0
 35 68  1  0  0  0
 36 56  1  0  0  0
 36105  1  0  0  0
 37 39  1  0  0  0
 37 47  1  0  0  0
 37 66  1  0  0  0
 37106  1  0  0  0
 38 43  2  0  0  0
 38 46  1  0  0  0
 38 47  1  0  0  0
 39 64  1  0  0  0
 39 67  2  0  0  0
 40 52  1  0  0  0
 40 53  2  0  0  0
 40 58  1  0  0  0
 41107  1  0  0  0
 41108  1  0  0  0
 41109  1  0  0  0
 41 48  1  0  0  0
 42 43  1  0  0  0
 42 66  1  0  0  0
 42110  1  0  0  0
 42111  1  0  0  0
 43 44  1  0  0  0
 44112  1  0  0  0
 45 46  2  0  0  0
 45113  1  0  0  0
 46114  1  0  0  0
 47115  1  0  0  0
 47116  1  0  0  0
 48 56  1  0  0  0
 48 65  1  0  0  0
 48117  1  0  0  0
 49 50  1  0  0  0
 49 53  1  0  0  0
 49 64  1  0  0  0
 49118  1  0  0  0
 50 51  1  0  0  0
 50119  1  0  0  0
 50120  1  0  0  0
 51 52  1  0  0  0
 51121  1  0  0  0
 51122  1  0  0  0
 52123  1  0  0  0
 52124  1  0  0  0
 53 54  1  0  0  0
 54 55  2  0  0  0
 54125  1  0  0  0
 55 57  1  0  0  0
 55126  1  0  0  0
 56 69  2  0  0  0
 57 58  2  0  0  0
 57127  1  0  0  0
 58128  1  0  0  0
 59 60  1  0  0  0
 59 61  1  0  0  0
 59 62  1  0  0  0
 60129  1  0  0  0
 60130  1  0  0  0
 60131  1  0  0  0
 61132  1  0  0  0
 61133  1  0  0  0
 61134  1  0  0  0
 62135  1  0  0  0
 62136  1  0  0  0
 62137  1  0  0  0
 63 65  1  0  0  0
 63138  1  0  0  0
 63139  1  0  0  0
 63140  1  0  0  0
 64141  1  0  0  0
 65142  1  0  0  0
 68 80  1  0  0  0
 71 73  1  0  0  0
 71143  1  0  0  0
 71144  1  0  0  0
 71 78  1  0  0  0
 72 74  1  0  0  0
 72 78  1  0  0  0
 72145  1  0  0  0
 72146  1  0  0  0
 73 83  1  0  0  0
 73147  1  0  0  0
 73148  1  0  0  0
 74 83  1  0  0  0
 74149  1  0  0  0
 74150  1  0  0  0
 75 77  1  0  0  0
 75151  1  0  0  0
 75152  1  0  0  0
 75 82  1  0  0  0
 76 77  1  0  0  0
 76 82  1  0  0  0
 76153  1  0  0  0
 76154  1  0  0  0
 77 81  1  0  0  0
 77155  1  0  0  0
 78 82  1  0  0  0
 78156  1  0  0  0
 79 80  1  0  0  0
 79157  1  0  0  0
 79158  1  0  0  0
 79 83  1  0  0  0
 80159  1  0  0  0
 80160  1  0  0  0
 81161  1  0  0  0
 82162  1  0  0  0
 83163  1  0  0  0
M  CHG  2  82   1  83   1
M  ISO  4   1 100  68 101  80 101  81 100
M  END
> <chiral flag>
0

> <version>
0

> <s_m_source_file>
/data/baiqing/PycharmProjects/Reinvent-master-3.2/result/LINK_invent/BTK/process_docking_weight1_custom_sum_contain_oxygen_bond_distance_aromatic_linkinvent_7_9_3/rearranged_h_0195.sdf

> <i_m_source_file_index>
10

> <r_mmod_Potential_Energy-OPLS-2005>
-223.088043212891

> <r_mmod_Stretch_Energy-OPLS-2005>
45.1724510192871

> <r_mmod_Bend_Energy-OPLS-2005>
133.264221191406

> <r_mmod_Torsional_Energy-OPLS-2005>
295.82275390625

> <r_mmod_Improper_Torsional_Energy-OPLS-2005>
3.0591185092926

> <r_mmod_Van_der_Waal_Energy-OPLS-2005>
141.222457885742

> <r_mmod_Electrostatic_Energy-OPLS-2005>
130.189086914062

> <r_mmod_Solvation_Energy-OPLS-2005>
-986.4189453125

> <b_mmod_Minimization_Converged-OPLS-2005>
0

> <r_mmod_RMS_Derivative-OPLS-2005>
1.71021461486816

$$$$
10
                    3D
 Structure written by MMmdl.
163173  0  0  1  0            999 V2000
  -30.7392  -14.5384   20.5801 C   0  0  0  0  0  0
  -30.4261  -12.3520   19.4543 C   0  0  0  0  0  0
  -29.5154  -12.5113   18.2225 C   0  0  0  0  0  0
  -28.0352  -12.3562   18.6195 C   0  0  0  0  0  0
  -27.6616  -13.2007   19.8678 C   0  0  2  0  0  0
  -28.7082  -13.0297   21.0012 C   0  0  0  0  0  0
  -25.2639  -13.8145   20.5610 C   0  0  0  0  0  0
  -24.1876  -13.0460   20.9125 C   0  0  0  0  0  0
  -24.6409  -11.6915   20.8688 C   0  0  0  0  0  0
  -23.9056  -10.4331   21.0375 C   0  0  0  0  0  0
  -24.3628   -9.4270   21.9157 C   0  0  0  0  0  0
  -23.6332   -8.2306   22.0742 C   0  0  0  0  0  0
  -22.4307   -8.0336   21.3555 C   0  0  0  0  0  0
  -21.9917   -9.0280   20.4653 C   0  0  0  0  0  0
  -22.7216  -10.2174   20.3051 C   0  0  0  0  0  0
  -21.6914   -6.0762   22.5269 C   0  0  0  0  0  0
  -21.4045   -6.5643   23.8201 C   0  0  0  0  0  0
  -21.3636   -5.6770   24.9145 C   0  0  0  0  0  0
  -21.6041   -4.3037   24.7185 C   0  0  0  0  0  0
  -21.8847   -3.8161   23.4310 C   0  0  0  0  0  0
  -21.9221   -4.6989   22.3381 C   0  0  0  0  0  0
  -22.7913  -13.5309   21.1759 C   0  0  0  0  0  0
  -22.1698   -4.2177   21.0956 F   0  0  0  0  0  0
  -21.5597   -3.4513   25.7696 F   0  0  0  0  0  0
  -30.0243  -13.3751   20.4460 N   0  0  0  0  0  0
  -26.3055  -12.9275   20.3307 N   0  0  0  0  0  0
  -25.9344  -11.6448   20.5723 N   0  0  0  0  0  0
  -22.0515  -12.8370   22.0331 N   0  0  0  0  0  0
  -25.4376  -15.1863   20.3983 N   0  0  0  0  0  0
  -31.8830  -14.5930   20.1053 O   0  0  0  0  0  0
  -21.6701   -6.8921   21.4249 O   0  0  0  0  0  0
  -22.3636  -14.5595   20.6556 O   0  0  0  0  0  0
  -24.6071  -31.8745   23.2146 C   0  0  0  0  0  0
  -25.8972  -32.4868   23.8446 C   0  0  1  0  0  0
  -27.2005  -27.4480   20.1732 C   0  0  0  0  0  0
  -25.5863  -33.8673   24.2372 N   0  0  0  0  0  0
  -23.3932  -30.4973   21.5530 C   0  0  2  0  0  0
  -24.8380  -28.9694   20.1126 C   0  0  0  0  0  0
  -22.7379  -29.4678   22.5014 C   0  0  0  0  0  0
  -18.0283  -28.1309   22.8493 C   0  0  0  0  0  0
  -24.1451  -36.7338   23.2633 C   0  0  0  0  0  0
  -25.9163  -30.8537   21.3617 C   0  0  0  0  0  0
  -25.9940  -29.4907   20.7119 C   0  0  0  0  0  0
  -27.1839  -28.7417   20.7281 C   0  0  0  0  0  0
  -26.0522  -26.9393   19.5392 C   0  0  0  0  0  0
  -24.8655  -27.6972   19.5098 C   0  0  0  0  0  0
  -23.5984  -29.8331   20.1640 C   0  0  0  0  0  0
  -25.4084  -36.3161   24.0342 C   0  0  1  0  0  0
  -20.5845  -28.3603   23.1338 C   0  0  2  0  0  0
  -20.6754  -26.9337   22.5448 C   0  0  0  0  0  0
  -19.5762  -26.6333   21.5213 C   0  0  0  0  0  0
  -18.1921  -26.7878   22.1583 C   0  0  0  0  0  0
  -19.1513  -28.8784   23.2910 C   0  0  0  0  0  0
  -18.9439  -30.1396   23.8909 C   0  0  0  0  0  0
  -17.6441  -30.6533   24.0535 C   0  0  0  0  0  0
  -25.9009  -34.9519   23.5149 C   0  0  0  0  0  0
  -16.5333  -29.9032   23.6278 C   0  0  0  0  0  0
  -16.7278  -28.6423   23.0349 C   0  0  0  0  0  0
  -26.4414  -31.6634   25.0767 C   0  0  0  0  0  0
  -25.3706  -31.3758   26.1545 C   0  0  0  0  0  0
  -27.0233  -30.3080   24.6107 C   0  0  0  0  0  0
  -27.6013  -32.4349   25.7518 C   0  0  0  0  0  0
  -27.5592  -37.1821   24.8441 C   0  0  0  0  0  0
  -21.4116  -29.2995   22.3753 N   0  0  0  0  0  0
  -26.4276  -37.3850   23.9421 N   0  0  0  0  0  0
  -24.6568  -31.0895   22.1013 N   0  0  0  0  0  0
  -23.4172  -28.8235   23.3051 O   0  0  0  0  0  0
  -28.3376  -26.7026   20.2710 O   0  0  0  0  0  0
  -26.5581  -34.8952   22.4719 O   0  0  0  0  0  0
  -23.5278  -32.1481   23.7554 O   0  0  0  0  0  0
  -29.3003  -22.4155   21.7931 C   0  0  0  0  0  0
  -29.9631  -23.5485   21.2646 C   0  0  0  0  0  0
  -31.0759  -23.3466   20.4670 C   0  0  0  0  0  0
  -29.8222  -21.1513   21.4057 C   0  0  0  0  0  0
  -28.5073  -17.6039   21.4589 C   0  0  0  0  0  0
  -30.7746  -18.0164   22.2153 C   0  0  0  0  0  0
  -28.8881  -16.2090   20.8965 C   0  0  0  0  0  0
  -31.2552  -16.6533   21.6599 C   0  0  0  0  0  0
  -30.7532  -25.5952   20.4062 C   0  0  0  0  0  0
  -29.6609  -25.0257   21.3696 C   0  0  1  0  0  0
  -29.6436  -18.6234   21.3778 C   0  0  0  0  0  0
  -28.2186  -25.4457   20.9636 C   0  0  0  0  0  0
  -31.5367  -22.1330   20.1096 N   0  0  0  0  0  0
  -30.9036  -21.0456   20.5807 N   0  0  0  0  0  0
  -31.6774  -24.5214   20.0329 N   0  0  0  0  0  0
  -30.2326  -15.6509   21.2246 N   0  0  0  0  0  0
  -29.2253  -19.9548   21.8528 N   0  0  0  0  0  0
  -31.4725  -12.4314   19.1512 H   0  0  0  0  0  0
  -30.3315  -11.3501   19.8773 H   0  0  0  0  0  0
  -29.7816  -11.7731   17.4655 H   0  0  0  0  0  0
  -29.6810  -13.4905   17.7717 H   0  0  0  0  0  0
  -27.8524  -11.2993   18.8156 H   0  0  0  0  0  0
  -27.3991  -12.6240   17.7759 H   0  0  0  0  0  0
  -27.6819  -14.2317   19.5233 H   0  0  0  0  0  0
  -28.7202  -11.9957   21.3474 H   0  0  0  0  0  0
  -28.4745  -13.6070   21.8940 H   0  0  0  0  0  0
  -25.2781   -9.5792   22.4703 H   0  0  0  0  0  0
  -24.0067   -7.4733   22.7481 H   0  0  0  0  0  0
  -21.0832   -8.8792   19.8996 H   0  0  0  0  0  0
  -22.3645  -10.9709   19.6168 H   0  0  0  0  0  0
  -21.2068   -7.6148   23.9725 H   0  0  0  0  0  0
  -21.1404   -6.0475   25.9035 H   0  0  0  0  0  0
  -22.0652   -2.7635   23.2785 H   0  0  0  0  0  0
  -22.4083  -12.0048   22.4779 H   0  0  0  0  0  0
  -21.1153  -13.1494   22.2437 H   0  0  0  0  0  0
  -24.6765  -15.8461   20.5173 H   0  0  0  0  0  0
  -26.2851  -15.6239   20.0629 H   0  0  0  0  0  0
  -26.7062  -32.5601   23.1238 H   0  0  0  0  0  0
  -25.0006  -33.9850   25.0513 H   0  0  0  0  0  0
  -22.6803  -31.3130   21.4203 H   0  0  0  0  0  0
  -23.3739  -35.9641   23.3296 H   0  0  0  0  0  0
  -24.3544  -36.8953   22.2042 H   0  0  0  0  0  0
  -23.7148  -37.6526   23.6645 H   0  0  0  0  0  0
  -26.0247  -31.6214   20.5948 H   0  0  0  0  0  0
  -26.8041  -30.9029   21.9814 H   0  0  0  0  0  0
  -28.0741  -29.1360   21.1981 H   0  0  0  0  0  0
  -26.0700  -25.9573   19.0880 H   0  0  0  0  0  0
  -23.9815  -27.2877   19.0418 H   0  0  0  0  0  0
  -23.7071  -30.6118   19.4107 H   0  0  0  0  0  0
  -22.7218  -29.2557   19.8666 H   0  0  0  0  0  0
  -25.1243  -36.2060   25.0835 H   0  0  0  0  0  0
  -20.9958  -28.3162   24.1447 H   0  0  0  0  0  0
  -20.5583  -26.2218   23.3634 H   0  0  0  0  0  0
  -21.6636  -26.7338   22.1282 H   0  0  0  0  0  0
  -19.6909  -25.6247   21.1229 H   0  0  0  0  0  0
  -19.6718  -27.3150   20.6744 H   0  0  0  0  0  0
  -17.4222  -26.6698   21.3946 H   0  0  0  0  0  0
  -18.0262  -25.9966   22.8902 H   0  0  0  0  0  0
  -19.7916  -30.7211   24.2277 H   0  0  0  0  0  0
  -17.4982  -31.6232   24.5109 H   0  0  0  0  0  0
  -15.5327  -30.2935   23.7555 H   0  0  0  0  0  0
  -15.8680  -28.0733   22.7069 H   0  0  0  0  0  0
  -24.5861  -30.7104   25.7908 H   0  0  0  0  0  0
  -24.8890  -32.2916   26.5002 H   0  0  0  0  0  0
  -25.8065  -30.8950   27.0302 H   0  0  0  0  0  0
  -26.2775  -29.6934   24.1040 H   0  0  0  0  0  0
  -27.3867  -29.7226   25.4561 H   0  0  0  0  0  0
  -27.8662  -30.4430   23.9329 H   0  0  0  0  0  0
  -27.2620  -33.3573   26.2266 H   0  0  0  0  0  0
  -28.3729  -32.7067   25.0311 H   0  0  0  0  0  0
  -28.0809  -31.8412   26.5311 H   0  0  0  0  0  0
  -28.2624  -38.0115   24.7512 H   0  0  0  0  0  0
  -28.1075  -36.2659   24.6205 H   0  0  0  0  0  0
  -27.2319  -37.1374   25.8845 H   0  0  0  0  0  0
  -20.9242  -29.8738   21.7016 H   0  0  0  0  0  0
  -26.0186  -38.2930   24.1465 H   0  0  0  0  0  0
  -28.4461  -22.5180   22.4453 H   0  0  0  0  0  0
  -28.1845  -17.4986   22.4972 H   0  0  0  0  0  0
  -27.6345  -17.9744   20.9171 H   0  0  0  0  0  0
  -31.6262  -18.7001   22.2440 H   0  0  0  0  0  0
  -30.4604  -17.8990   23.2525 H   0  0  0  0  0  0
  -28.8065  -16.2486   19.8094 H   0  0  0  0  0  0
  -28.1015  -15.5530   21.2497 H   0  0  0  0  0  0
  -31.9248  -16.1846   22.3857 H   0  0  0  0  0  0
  -31.8845  -16.9068   20.8024 H   0  0  0  0  0  0
  -31.2795  -26.4364   20.8647 H   0  0  0  0  0  0
  -30.3353  -25.9779   19.4732 H   0  0  0  0  0  0
  -29.8890  -25.3780   22.3799 H   0  0  0  0  0  0
  -29.9533  -18.6977   20.3340 H   0  0  0  0  0  0
  -27.5601  -25.4936   21.8457 H   0  0  0  0  0  0
  -27.7701  -24.7031   20.2981 H   0  0  0  0  0  0
  -32.0467  -24.5078   19.0885 H   0  0  0  0  0  0
  -28.3254  -20.0378   22.3097 H   0  0  0  0  0  0
  1 25  1  0  0  0
  1 30  2  0  0  0
  1 86  1  0  0  0
  2  3  1  0  0  0
  2 25  1  0  0  0
  2 88  1  0  0  0
  2 89  1  0  0  0
  3  4  1  0  0  0
  3 90  1  0  0  0
  3 91  1  0  0  0
  4  5  1  0  0  0
  4 92  1  0  0  0
  4 93  1  0  0  0
  5  6  1  0  0  0
  5 26  1  0  0  0
  5 94  1  0  0  0
  6 25  1  0  0  0
  6 95  1  0  0  0
  6 96  1  0  0  0
  7  8  2  0  0  0
  7 26  1  0  0  0
  7 29  1  0  0  0
  8  9  1  0  0  0
  8 22  1  0  0  0
  9 10  1  0  0  0
  9 27  2  0  0  0
 10 11  2  0  0  0
 10 15  1  0  0  0
 11 12  1  0  0  0
 11 97  1  0  0  0
 12 13  2  0  0  0
 12 98  1  0  0  0
 13 14  1  0  0  0
 13 31  1  0  0  0
 14 15  2  0  0  0
 14 99  1  0  0  0
 15100  1  0  0  0
 16 17  2  0  0  0
 16 21  1  0  0  0
 16 31  1  0  0  0
 17 18  1  0  0  0
 17101  1  0  0  0
 18 19  2  0  0  0
 18102  1  0  0  0
 19 20  1  0  0  0
 19 24  1  0  0  0
 20 21  2  0  0  0
 20103  1  0  0  0
 21 23  1  0  0  0
 22 28  1  0  0  0
 22 32  2  0  0  0
 26 27  1  0  0  0
 28104  1  0  0  0
 28105  1  0  0  0
 29106  1  0  0  0
 29107  1  0  0  0
 33 34  1  0  0  0
 33 66  1  0  0  0
 33 70  2  0  0  0
 34 36  1  0  0  0
 34 59  1  0  0  0
 34108  1  0  0  0
 35 44  2  0  0  0
 35 45  1  0  0  0
 35 68  1  0  0  0
 36 56  1  0  0  0
 36109  1  0  0  0
 37 39  1  0  0  0
 37 47  1  0  0  0
 37 66  1  0  0  0
 37110  1  0  0  0
 38 43  2  0  0  0
 38 46  1  0  0  0
 38 47  1  0  0  0
 39 64  1  0  0  0
 39 67  2  0  0  0
 40 52  1  0  0  0
 40 53  2  0  0  0
 40 58  1  0  0  0
 41111  1  0  0  0
 41112  1  0  0  0
 41113  1  0  0  0
 41 48  1  0  0  0
 42 43  1  0  0  0
 42 66  1  0  0  0
 42114  1  0  0  0
 42115  1  0  0  0
 43 44  1  0  0  0
 44116  1  0  0  0
 45 46  2  0  0  0
 45117  1  0  0  0
 46118  1  0  0  0
 47119  1  0  0  0
 47120  1  0  0  0
 48 56  1  0  0  0
 48 65  1  0  0  0
 48121  1  0  0  0
 49 50  1  0  0  0
 49 53  1  0  0  0
 49 64  1  0  0  0
 49122  1  0  0  0
 50 51  1  0  0  0
 50123  1  0  0  0
 50124  1  0  0  0
 51 52  1  0  0  0
 51125  1  0  0  0
 51126  1  0  0  0
 52127  1  0  0  0
 52128  1  0  0  0
 53 54  1  0  0  0
 54 55  2  0  0  0
 54129  1  0  0  0
 55 57  1  0  0  0
 55130  1  0  0  0
 56 69  2  0  0  0
 57 58  2  0  0  0
 57131  1  0  0  0
 58132  1  0  0  0
 59 60  1  0  0  0
 59 61  1  0  0  0
 59 62  1  0  0  0
 60133  1  0  0  0
 60134  1  0  0  0
 60135  1  0  0  0
 61136  1  0  0  0
 61137  1  0  0  0
 61138  1  0  0  0
 62139  1  0  0  0
 62140  1  0  0  0
 62141  1  0  0  0
 63 65  1  0  0  0
 63142  1  0  0  0
 63143  1  0  0  0
 63144  1  0  0  0
 64145  1  0  0  0
 65146  1  0  0  0
 68 82  1  0  0  0
 71 72  2  0  0  0
 71 74  1  0  0  0
 71147  1  0  0  0
 72 73  1  0  0  0
 72 80  1  0  0  0
 73 83  2  0  0  0
 73 85  1  0  0  0
 74 84  2  0  0  0
 74 87  1  0  0  0
 75 77  1  0  0  0
 75 81  1  0  0  0
 75148  1  0  0  0
 75149  1  0  0  0
 76 78  1  0  0  0
 76 81  1  0  0  0
 76150  1  0  0  0
 76151  1  0  0  0
 77 86  1  0  0  0
 77152  1  0  0  0
 77153  1  0  0  0
 78 86  1  0  0  0
 78154  1  0  0  0
 78155  1  0  0  0
 79 80  1  0  0  0
 79 85  1  0  0  0
 79156  1  0  0  0
 79157  1  0  0  0
 80 82  1  0  0  0
 80158  1  0  0  0
 81 87  1  0  0  0
 81159  1  0  0  0
 82160  1  0  0  0
 82161  1  0  0  0
 83 84  1  0  0  0
 85162  1  0  0  0
 87163  1  0  0  0
M  ISO  4   1 100  68 101  82 101  86 100
M  END
> <chiral flag>
0

> <version>
0

> <s_m_source_file>
/data/baiqing/PycharmProjects/Reinvent-master-3.2/result/LINK_invent/BTK/process_docking_weight1_custom_sum_contain_oxygen_bond_distance_aromatic_linkinvent_7_9_3/rearranged_h_0195.sdf

> <i_m_source_file_index>
11

> <r_mmod_Potential_Energy-OPLS-2005>
145.876541137695

> <r_mmod_Stretch_Energy-OPLS-2005>
52.0188636779785

> <r_mmod_Bend_Energy-OPLS-2005>
189.531555175781

> <r_mmod_Torsional_Energy-OPLS-2005>
342.001098632812

> <r_mmod_Improper_Torsional_Energy-OPLS-2005>
9.1834888458252

> <r_mmod_Van_der_Waal_Energy-OPLS-2005>
172.361846923828

> <r_mmod_Electrostatic_Energy-OPLS-2005>
-391.082977294922

> <r_mmod_Solvation_Energy-OPLS-2005>
-253.818710327148

> <b_mmod_Minimization_Converged-OPLS-2005>
0

> <r_mmod_RMS_Derivative-OPLS-2005>
6.72011613845825

$$$$
11
                    3D
 Structure written by MMmdl.
156165  0  0  1  0            999 V2000
  -30.6570  -14.6687   20.4380 C   0  0  0  0  0  0
  -30.4178  -12.3966   19.4795 C   0  0  0  0  0  0
  -29.5063  -12.4864   18.2373 C   0  0  0  0  0  0
  -28.0298  -12.3342   18.6460 C   0  0  0  0  0  0
  -27.6420  -13.2319   19.8522 C   0  0  2  0  0  0
  -28.6857  -13.1630   20.9890 C   0  0  0  0  0  0
  -25.2514  -13.8209   20.5720 C   0  0  0  0  0  0
  -24.1797  -13.0449   20.9206 C   0  0  0  0  0  0
  -24.6383  -11.6922   20.8744 C   0  0  0  0  0  0
  -23.9059  -10.4297   21.0408 C   0  0  0  0  0  0
  -24.3612   -9.4211   21.9181 C   0  0  0  0  0  0
  -23.6295   -8.2246   22.0754 C   0  0  0  0  0  0
  -22.4277   -8.0285   21.3548 C   0  0  0  0  0  0
  -21.9908   -9.0256   20.4649 C   0  0  0  0  0  0
  -22.7234  -10.2135   20.3058 C   0  0  0  0  0  0
  -21.6855   -6.0736   22.5283 C   0  0  0  0  0  0
  -21.4024   -6.5641   23.8218 C   0  0  0  0  0  0
  -21.3664   -5.6790   24.9179 C   0  0  0  0  0  0
  -21.6039   -4.3053   24.7227 C   0  0  0  0  0  0
  -21.8815   -3.8150   23.4348 C   0  0  0  0  0  0
  -21.9194   -4.6965   22.3406 C   0  0  0  0  0  0
  -22.7821  -13.5233   21.1873 C   0  0  0  0  0  0
  -22.1659   -4.2153   21.0984 F   0  0  0  0  0  0
  -21.5619   -3.4536   25.7736 F   0  0  0  0  0  0
  -29.9963  -13.4660   20.4069 N   0  0  0  0  0  0
  -26.2938  -12.9414   20.3309 N   0  0  0  0  0  0
  -25.9313  -11.6551   20.5755 N   0  0  0  0  0  0
  -22.0465  -12.8230   22.0431 N   0  0  0  0  0  0
  -25.4234  -15.1934   20.4183 N   0  0  0  0  0  0
  -31.8624  -14.7187   20.1792 O   0  0  0  0  0  0
  -21.6641   -6.8884   21.4250 O   0  0  0  0  0  0
  -22.3500  -14.5535   20.6718 O   0  0  0  0  0  0
  -24.6284  -31.8601   23.2032 C   0  0  0  0  0  0
  -25.9128  -32.4780   23.8360 C   0  0  1  0  0  0
  -27.2109  -27.3005   20.1198 C   0  0  0  0  0  0
  -25.5945  -33.8580   24.2286 N   0  0  0  0  0  0
  -23.4216  -30.4876   21.5461 C   0  0  2  0  0  0
  -24.8650  -28.9463   20.1097 C   0  0  0  0  0  0
  -22.7481  -29.4636   22.4912 C   0  0  0  0  0  0
  -18.0292  -28.1380   22.8486 C   0  0  0  0  0  0
  -24.1494  -36.7300   23.2637 C   0  0  0  0  0  0
  -25.9660  -30.7854   21.3775 C   0  0  0  0  0  0
  -26.0375  -29.4133   20.7172 C   0  0  0  0  0  0
  -27.2148  -28.6035   20.7122 C   0  0  0  0  0  0
  -26.0129  -26.8987   19.4805 C   0  0  0  0  0  0
  -24.8559  -27.6948   19.4816 C   0  0  0  0  0  0
  -23.6369  -29.8309   20.1592 C   0  0  0  0  0  0
  -25.4118  -36.3085   24.0327 C   0  0  1  0  0  0
  -20.5895  -28.3696   23.1266 C   0  0  2  0  0  0
  -20.6783  -26.9415   22.5400 C   0  0  0  0  0  0
  -19.5759  -26.6379   21.5206 C   0  0  0  0  0  0
  -18.1940  -26.7922   22.1621 C   0  0  0  0  0  0
  -19.1545  -28.8851   23.2876 C   0  0  0  0  0  0
  -18.9467  -30.1448   23.8901 C   0  0  0  0  0  0
  -17.6467  -30.6584   24.0560 C   0  0  0  0  0  0
  -25.9058  -34.9453   23.5104 C   0  0  0  0  0  0
  -16.5358  -29.9085   23.6322 C   0  0  0  0  0  0
  -16.7279  -28.6497   23.0356 C   0  0  0  0  0  0
  -26.4503  -31.6590   25.0730 C   0  0  0  0  0  0
  -25.3742  -31.3734   26.1463 C   0  0  0  0  0  0
  -27.0339  -30.3010   24.6186 C   0  0  0  0  0  0
  -27.6061  -32.4323   25.7504 C   0  0  0  0  0  0
  -27.5581  -37.1808   24.8463 C   0  0  0  0  0  0
  -21.4191  -29.3058   22.3657 N   0  0  0  0  0  0
  -26.4296  -37.3777   23.9404 N   0  0  0  0  0  0
  -24.6910  -31.0608   22.0988 N   0  0  0  0  0  0
  -23.4203  -28.8164   23.2986 O   0  0  0  0  0  0
  -28.3056  -26.4150   20.1857 O   0  0  0  0  0  0
  -26.5614  -34.8919   22.4662 O   0  0  0  0  0  0
  -23.5444  -32.1400   23.7354 O   0  0  0  0  0  0
  -30.5517  -19.7683   19.8764 C   0  0  0  0  0  0
  -29.8923  -18.6133   20.4031 C   0  0  0  0  0  0
  -28.2840  -20.0889   21.2492 C   0  0  0  0  0  0
  -28.9402  -21.2396   20.6955 C   0  0  0  0  0  0
  -29.6783  -16.4241   19.0876 C   0  0  0  0  0  0
  -30.4611  -17.1836   20.1050 C   0  0  2  0  0  0
  -27.2752  -20.2096   23.5718 C   0  0  0  0  0  0
  -27.0081  -20.2371   22.0604 C   0  0  0  0  0  0
  -27.9957  -24.9585   20.1053 C   0  0  0  0  0  0
  -29.0416  -23.7942   20.4206 C   0  0  0  0  0  0
  -30.0990  -21.0562   20.0123 N   0  0  0  0  0  0
  -28.7453  -18.7988   21.1120 N   0  0  0  0  0  0
  -29.9033  -15.8231   20.3676 N   0  0  0  0  0  0
  -28.3882  -22.5359   20.8196 O   0  0  0  0  0  0
  -31.4651  -12.4844   19.1863 H   0  0  0  0  0  0
  -30.3212  -11.4219   19.9596 H   0  0  0  0  0  0
  -29.7739  -11.7111   17.5177 H   0  0  0  0  0  0
  -29.6552  -13.4415   17.7316 H   0  0  0  0  0  0
  -27.8709  -11.2862   18.9016 H   0  0  0  0  0  0
  -27.3790  -12.5395   17.7950 H   0  0  0  0  0  0
  -27.6372  -14.2545   19.4754 H   0  0  0  0  0  0
  -28.6949  -12.1762   21.4544 H   0  0  0  0  0  0
  -28.4395  -13.8783   21.7758 H   0  0  0  0  0  0
  -25.2756   -9.5678   22.4759 H   0  0  0  0  0  0
  -24.0000   -7.4631   22.7467 H   0  0  0  0  0  0
  -21.0837   -8.8769   19.8961 H   0  0  0  0  0  0
  -22.3687  -10.9671   19.6169 H   0  0  0  0  0  0
  -21.2029   -7.6157   23.9727 H   0  0  0  0  0  0
  -21.1489   -6.0525   25.9081 H   0  0  0  0  0  0
  -22.0592   -2.7618   23.2849 H   0  0  0  0  0  0
  -22.4078  -11.9898   22.4831 H   0  0  0  0  0  0
  -21.1080  -13.1252   22.2623 H   0  0  0  0  0  0
  -24.6672  -15.8550   20.5553 H   0  0  0  0  0  0
  -26.2967  -15.6366   20.1603 H   0  0  0  0  0  0
  -26.7189  -32.5442   23.1101 H   0  0  0  0  0  0
  -25.0114  -33.9721   25.0446 H   0  0  0  0  0  0
  -22.7167  -31.3095   21.4065 H   0  0  0  0  0  0
  -23.3749  -35.9640   23.3304 H   0  0  0  0  0  0
  -24.3583  -36.8914   22.2049 H   0  0  0  0  0  0
  -23.7255  -37.6508   23.6653 H   0  0  0  0  0  0
  -26.1025  -31.5480   20.6096 H   0  0  0  0  0  0
  -26.8454  -30.8305   22.0082 H   0  0  0  0  0  0
  -28.1109  -28.9547   21.2046 H   0  0  0  0  0  0
  -25.9249  -25.9476   18.9800 H   0  0  0  0  0  0
  -23.9585  -27.3315   18.9993 H   0  0  0  0  0  0
  -23.7647  -30.6125   19.4094 H   0  0  0  0  0  0
  -22.7547  -29.2687   19.8482 H   0  0  0  0  0  0
  -25.1300  -36.1938   25.0820 H   0  0  0  0  0  0
  -20.9996  -28.3275   24.1383 H   0  0  0  0  0  0
  -20.5683  -26.2308   23.3604 H   0  0  0  0  0  0
  -21.6652  -26.7440   22.1195 H   0  0  0  0  0  0
  -19.6924  -25.6288   21.1243 H   0  0  0  0  0  0
  -19.6697  -27.3180   20.6728 H   0  0  0  0  0  0
  -17.4207  -26.6657   21.4028 H   0  0  0  0  0  0
  -18.0355  -26.0063   22.9021 H   0  0  0  0  0  0
  -19.7943  -30.7254   24.2285 H   0  0  0  0  0  0
  -17.5026  -31.6267   24.5159 H   0  0  0  0  0  0
  -15.5360  -30.2997   23.7638 H   0  0  0  0  0  0
  -15.8679  -28.0815   22.7082 H   0  0  0  0  0  0
  -24.5894  -30.7110   25.7791 H   0  0  0  0  0  0
  -24.8968  -32.2911   26.4915 H   0  0  0  0  0  0
  -25.8071  -30.8884   27.0223 H   0  0  0  0  0  0
  -26.2907  -29.6766   24.1213 H   0  0  0  0  0  0
  -27.4035  -29.7260   25.4687 H   0  0  0  0  0  0
  -27.8784  -30.4290   23.9409 H   0  0  0  0  0  0
  -27.2663  -33.3612   26.2097 H   0  0  0  0  0  0
  -28.3870  -32.6903   25.0337 H   0  0  0  0  0  0
  -28.0735  -31.8443   26.5414 H   0  0  0  0  0  0
  -28.2602  -38.0101   24.7501 H   0  0  0  0  0  0
  -28.1074  -36.2632   24.6304 H   0  0  0  0  0  0
  -27.2296  -37.1474   25.8864 H   0  0  0  0  0  0
  -20.9357  -29.8805   21.6892 H   0  0  0  0  0  0
  -26.0179  -38.2853   24.1400 H   0  0  0  0  0  0
  -31.4597  -19.6501   19.3031 H   0  0  0  0  0  0
  -30.2179  -16.0250   18.2294 H   0  0  0  0  0  0
  -28.6524  -16.7246   18.8855 H   0  0  0  0  0  0
  -31.5390  -17.2528   19.9644 H   0  0  0  0  0  0
  -26.3468  -20.3072   24.1340 H   0  0  0  0  0  0
  -27.9302  -21.0294   23.8688 H   0  0  0  0  0  0
  -27.7502  -19.2754   23.8735 H   0  0  0  0  0  0
  -26.3228  -19.4319   21.7932 H   0  0  0  0  0  0
  -26.5021  -21.1641   21.7889 H   0  0  0  0  0  0
  -27.1547  -24.7891   20.7803 H   0  0  0  0  0  0
  -27.6300  -24.7403   19.1027 H   0  0  0  0  0  0
  -29.6827  -24.1043   21.2457 H   0  0  0  0  0  0
  -29.6910  -23.6458   19.5576 H   0  0  0  0  0  0
  1 25  1  0  0  0
  1 30  2  0  0  0
  1 83  1  0  0  0
  2  3  1  0  0  0
  2 25  1  0  0  0
  2 85  1  0  0  0
  2 86  1  0  0  0
  3  4  1  0  0  0
  3 87  1  0  0  0
  3 88  1  0  0  0
  4  5  1  0  0  0
  4 89  1  0  0  0
  4 90  1  0  0  0
  5  6  1  0  0  0
  5 26  1  0  0  0
  5 91  1  0  0  0
  6 25  1  0  0  0
  6 92  1  0  0  0
  6 93  1  0  0  0
  7  8  2  0  0  0
  7 26  1  0  0  0
  7 29  1  0  0  0
  8  9  1  0  0  0
  8 22  1  0  0  0
  9 10  1  0  0  0
  9 27  2  0  0  0
 10 11  2  0  0  0
 10 15  1  0  0  0
 11 12  1  0  0  0
 11 94  1  0  0  0
 12 13  2  0  0  0
 12 95  1  0  0  0
 13 14  1  0  0  0
 13 31  1  0  0  0
 14 15  2  0  0  0
 14 96  1  0  0  0
 15 97  1  0  0  0
 16 17  2  0  0  0
 16 21  1  0  0  0
 16 31  1  0  0  0
 17 18  1  0  0  0
 17 98  1  0  0  0
 18 19  2  0  0  0
 18 99  1  0  0  0
 19 20  1  0  0  0
 19 24  1  0  0  0
 20 21  2  0  0  0
 20100  1  0  0  0
 21 23  1  0  0  0
 22 28  1  0  0  0
 22 32  2  0  0  0
 26 27  1  0  0  0
 28101  1  0  0  0
 28102  1  0  0  0
 29103  1  0  0  0
 29104  1  0  0  0
 33 34  1  0  0  0
 33 66  1  0  0  0
 33 70  2  0  0  0
 34 36  1  0  0  0
 34 59  1  0  0  0
 34105  1  0  0  0
 35 44  2  0  0  0
 35 45  1  0  0  0
 35 68  1  0  0  0
 36 56  1  0  0  0
 36106  1  0  0  0
 37 39  1  0  0  0
 37 47  1  0  0  0
 37 66  1  0  0  0
 37107  1  0  0  0
 38 43  2  0  0  0
 38 46  1  0  0  0
 38 47  1  0  0  0
 39 64  1  0  0  0
 39 67  2  0  0  0
 40 52  1  0  0  0
 40 53  2  0  0  0
 40 58  1  0  0  0
 41108  1  0  0  0
 41109  1  0  0  0
 41110  1  0  0  0
 41 48  1  0  0  0
 42 43  1  0  0  0
 42 66  1  0  0  0
 42111  1  0  0  0
 42112  1  0  0  0
 43 44  1  0  0  0
 44113  1  0  0  0
 45 46  2  0  0  0
 45114  1  0  0  0
 46115  1  0  0  0
 47116  1  0  0  0
 47117  1  0  0  0
 48 56  1  0  0  0
 48 65  1  0  0  0
 48118  1  0  0  0
 49 50  1  0  0  0
 49 53  1  0  0  0
 49 64  1  0  0  0
 49119  1  0  0  0
 50 51  1  0  0  0
 50120  1  0  0  0
 50121  1  0  0  0
 51 52  1  0  0  0
 51122  1  0  0  0
 51123  1  0  0  0
 52124  1  0  0  0
 52125  1  0  0  0
 53 54  1  0  0  0
 54 55  2  0  0  0
 54126  1  0  0  0
 55 57  1  0  0  0
 55127  1  0  0  0
 56 69  2  0  0  0
 57 58  2  0  0  0
 57128  1  0  0  0
 58129  1  0  0  0
 59 60  1  0  0  0
 59 61  1  0  0  0
 59 62  1  0  0  0
 60130  1  0  0  0
 60131  1  0  0  0
 60132  1  0  0  0
 61133  1  0  0  0
 61134  1  0  0  0
 61135  1  0  0  0
 62136  1  0  0  0
 62137  1  0  0  0
 62138  1  0  0  0
 63 65  1  0  0  0
 63139  1  0  0  0
 63140  1  0  0  0
 63141  1  0  0  0
 64142  1  0  0  0
 65143  1  0  0  0
 68 79  1  0  0  0
 71 72  2  0  0  0
 71 81  1  0  0  0
 71144  1  0  0  0
 72 82  1  0  0  0
 72 76  1  0  0  0
 73 74  1  0  0  0
 73 78  1  0  0  0
 73 82  2  0  0  0
 74 81  2  0  0  0
 74 84  1  0  0  0
 75 76  1  0  0  0
 75 83  1  0  0  0
 75145  1  0  0  0
 75146  1  0  0  0
 76 83  1  0  0  0
 76147  1  0  0  0
 77 78  1  0  0  0
 77148  1  0  0  0
 77149  1  0  0  0
 77150  1  0  0  0
 78151  1  0  0  0
 78152  1  0  0  0
 79 80  1  0  0  0
 79153  1  0  0  0
 79154  1  0  0  0
 80 84  1  0  0  0
 80155  1  0  0  0
 80156  1  0  0  0
M  ISO  4   1 100  68 101  79 101  83 100
M  END
> <chiral flag>
0

> <version>
0

> <s_m_source_file>
/data/baiqing/PycharmProjects/Reinvent-master-3.2/result/LINK_invent/BTK/process_docking_weight1_custom_sum_contain_oxygen_bond_distance_aromatic_linkinvent_7_9_3/rearranged_h_0195.sdf

> <i_m_source_file_index>
12

> <r_mmod_Potential_Energy-OPLS-2005>
254.608306884766

> <r_mmod_Stretch_Energy-OPLS-2005>
93.3429641723633

> <r_mmod_Bend_Energy-OPLS-2005>
184.551025390625

> <r_mmod_Torsional_Energy-OPLS-2005>
282.624816894531

> <r_mmod_Improper_Torsional_Energy-OPLS-2005>
18.4431018829346

> <r_mmod_Van_der_Waal_Energy-OPLS-2005>
149.741744995117

> <r_mmod_Electrostatic_Energy-OPLS-2005>
-329.53564453125

> <r_mmod_Solvation_Energy-OPLS-2005>
-210.131896972656

> <b_mmod_Minimization_Converged-OPLS-2005>
0

> <r_mmod_RMS_Derivative-OPLS-2005>
1.42659914493561

$$$$
12
                    3D
 Structure written by MMmdl.
159168  0  0  1  0            999 V2000
  -30.7572  -14.3782   20.6938 C   0  0  0  0  0  0
  -30.4170  -12.3037   19.3940 C   0  0  0  0  0  0
  -29.4831  -12.5329   18.1914 C   0  0  0  0  0  0
  -28.0084  -12.3797   18.6089 C   0  0  0  0  0  0
  -27.6632  -13.2027   19.8775 C   0  0  2  0  0  0
  -28.6995  -12.9467   20.9926 C   0  0  0  0  0  0
  -25.2592  -13.8157   20.5670 C   0  0  0  0  0  0
  -24.1834  -13.0437   20.9157 C   0  0  0  0  0  0
  -24.6384  -11.6901   20.8716 C   0  0  0  0  0  0
  -23.9047  -10.4292   21.0401 C   0  0  0  0  0  0
  -24.3603   -9.4216   21.9185 C   0  0  0  0  0  0
  -23.6287   -8.2245   22.0758 C   0  0  0  0  0  0
  -22.4272   -8.0274   21.3542 C   0  0  0  0  0  0
  -21.9902   -9.0244   20.4642 C   0  0  0  0  0  0
  -22.7221  -10.2128   20.3050 C   0  0  0  0  0  0
  -21.6844   -6.0732   22.5281 C   0  0  0  0  0  0
  -21.4017   -6.5637   23.8214 C   0  0  0  0  0  0
  -21.3654   -5.6789   24.9175 C   0  0  0  0  0  0
  -21.6041   -4.3057   24.7226 C   0  0  0  0  0  0
  -21.8819   -3.8150   23.4344 C   0  0  0  0  0  0
  -21.9195   -4.6964   22.3404 C   0  0  0  0  0  0
  -22.7864  -13.5244   21.1842 C   0  0  0  0  0  0
  -22.1660   -4.2155   21.0982 F   0  0  0  0  0  0
  -21.5624   -3.4542   25.7738 F   0  0  0  0  0  0
  -30.0404  -13.2488   20.4559 N   0  0  0  0  0  0
  -26.3023  -12.9316   20.3359 N   0  0  0  0  0  0
  -25.9307  -11.6479   20.5741 N   0  0  0  0  0  0
  -22.0500  -12.8228   22.0386 N   0  0  0  0  0  0
  -25.4343  -15.1870   20.4093 N   0  0  0  0  0  0
  -31.7935  -14.6652   20.0853 O   0  0  0  0  0  0
  -21.6630   -6.8873   21.4245 O   0  0  0  0  0  0
  -22.3554  -14.5556   20.6695 O   0  0  0  0  0  0
  -24.6111  -31.8691   23.2158 C   0  0  0  0  0  0
  -25.9019  -32.4829   23.8428 C   0  0  1  0  0  0
  -27.2274  -27.4535   20.0717 C   0  0  0  0  0  0
  -25.5884  -33.8635   24.2343 N   0  0  0  0  0  0
  -23.3953  -30.4978   21.5560 C   0  0  2  0  0  0
  -24.8360  -28.9692   20.1165 C   0  0  0  0  0  0
  -22.7368  -29.4676   22.5013 C   0  0  0  0  0  0
  -18.0256  -28.1372   22.8516 C   0  0  0  0  0  0
  -24.1471  -36.7306   23.2640 C   0  0  0  0  0  0
  -25.9230  -30.8387   21.3671 C   0  0  0  0  0  0
  -25.9968  -29.4758   20.7122 C   0  0  0  0  0  0
  -27.1905  -28.7218   20.6943 C   0  0  0  0  0  0
  -26.0335  -26.9491   19.5004 C   0  0  0  0  0  0
  -24.8473  -27.7031   19.5143 C   0  0  0  0  0  0
  -23.5988  -29.8344   20.1681 C   0  0  0  0  0  0
  -25.4099  -36.3121   24.0338 C   0  0  1  0  0  0
  -20.5842  -28.3653   23.1341 C   0  0  2  0  0  0
  -20.6741  -26.9389   22.5441 C   0  0  0  0  0  0
  -19.5718  -26.6387   21.5225 C   0  0  0  0  0  0
  -18.1891  -26.7931   22.1623 C   0  0  0  0  0  0
  -19.1506  -28.8829   23.2930 C   0  0  0  0  0  0
  -18.9440  -30.1442   23.8933 C   0  0  0  0  0  0
  -17.6444  -30.6584   24.0582 C   0  0  0  0  0  0
  -25.9025  -34.9487   23.5133 C   0  0  0  0  0  0
  -16.5335  -29.9087   23.6340 C   0  0  0  0  0  0
  -16.7253  -28.6498   23.0377 C   0  0  0  0  0  0
  -26.4467  -31.6614   25.0751 C   0  0  0  0  0  0
  -25.3745  -31.3678   26.1507 C   0  0  0  0  0  0
  -27.0332  -30.3071   24.6124 C   0  0  0  0  0  0
  -27.6027  -32.4374   25.7505 C   0  0  0  0  0  0
  -27.5583  -37.1795   24.8464 C   0  0  0  0  0  0
  -21.4095  -29.3031   22.3750 N   0  0  0  0  0  0
  -26.4279  -37.3813   23.9438 N   0  0  0  0  0  0
  -24.6614  -31.0816   22.1050 N   0  0  0  0  0  0
  -23.4148  -28.8206   23.3041 O   0  0  0  0  0  0
  -28.4234  -26.7644   20.0701 O   0  0  0  0  0  0
  -26.5590  -34.8926   22.4693 O   0  0  0  0  0  0
  -23.5317  -32.1447   23.7567 O   0  0  0  0  0  0
  -27.9375  -19.8635   20.9614 C   0  0  0  0  0  0
  -30.2960  -20.4392   20.9904 C   0  0  0  0  0  0
  -27.7125  -21.1980   20.5829 C   0  0  0  0  0  0
  -29.2785  -19.4566   21.1672 C   0  0  0  0  0  0
  -28.7800  -22.0699   20.4369 C   0  0  0  0  0  0
  -28.3080  -23.3663   19.9623 C   0  0  0  0  0  0
  -29.0880  -24.4396   19.7237 C   0  0  0  0  0  0
  -26.3942  -21.8528   20.2452 C   0  0  0  0  0  0
  -26.8032  -23.2610   19.7459 C   0  0  0  0  0  0
  -28.6538  -25.7475   19.0914 C   0  0  0  0  0  0
  -30.8899  -17.5699   21.4967 C   0  0  0  0  0  0
  -30.9959  -16.2667   22.3065 C   0  0  0  0  0  0
  -30.0648  -21.7252   20.6371 N   0  0  0  0  0  0
  -29.5360  -18.1184   21.5287 N   0  0  0  0  0  0
  -30.2918  -15.1459   21.6879 N   0  0  0  0  0  0
  -31.4592  -12.4121   19.0886 H   0  0  0  0  0  0
  -30.3224  -11.2801   19.7603 H   0  0  0  0  0  0
  -29.7196  -11.8325   17.3894 H   0  0  0  0  0  0
  -29.6469  -13.5317   17.7839 H   0  0  0  0  0  0
  -27.8224  -11.3205   18.7923 H   0  0  0  0  0  0
  -27.3516  -12.6659   17.7867 H   0  0  0  0  0  0
  -27.7200  -14.2564   19.6040 H   0  0  0  0  0  0
  -28.6672  -11.9019   21.3059 H   0  0  0  0  0  0
  -28.4397  -13.5187   21.8835 H   0  0  0  0  0  0
  -25.2747   -9.5694   22.4761 H   0  0  0  0  0  0
  -23.9993   -7.4644   22.7485 H   0  0  0  0  0  0
  -21.0829   -8.8757   19.8949 H   0  0  0  0  0  0
  -22.3682  -10.9663   19.6151 H   0  0  0  0  0  0
  -21.2010   -7.6144   23.9719 H   0  0  0  0  0  0
  -21.1472   -6.0519   25.9073 H   0  0  0  0  0  0
  -22.0603   -2.7613   23.2845 H   0  0  0  0  0  0
  -22.4097  -11.9869   22.4755 H   0  0  0  0  0  0
  -21.1127  -13.1268   22.2610 H   0  0  0  0  0  0
  -24.6724  -15.8477   20.5159 H   0  0  0  0  0  0
  -26.2941  -15.6216   20.0984 H   0  0  0  0  0  0
  -26.7082  -32.5533   23.1191 H   0  0  0  0  0  0
  -25.0054  -33.9813   25.0500 H   0  0  0  0  0  0
  -22.6845  -31.3159   21.4213 H   0  0  0  0  0  0
  -23.3757  -35.9606   23.3275 H   0  0  0  0  0  0
  -24.3561  -36.8961   22.2060 H   0  0  0  0  0  0
  -23.7197  -37.6485   23.6681 H   0  0  0  0  0  0
  -26.0348  -31.6100   20.6030 H   0  0  0  0  0  0
  -26.8106  -30.8875   21.9865 H   0  0  0  0  0  0
  -28.0883  -29.1162   21.1486 H   0  0  0  0  0  0
  -25.9709  -25.9737   19.0468 H   0  0  0  0  0  0
  -23.9493  -27.3013   19.0660 H   0  0  0  0  0  0
  -23.6996  -30.6106   19.4081 H   0  0  0  0  0  0
  -22.7217  -29.2534   19.8776 H   0  0  0  0  0  0
  -25.1267  -36.1972   25.0826 H   0  0  0  0  0  0
  -20.9926  -28.3214   24.1464 H   0  0  0  0  0  0
  -20.5625  -26.2258   23.3624 H   0  0  0  0  0  0
  -21.6623  -26.7416   22.1255 H   0  0  0  0  0  0
  -19.6871  -25.6303   21.1244 H   0  0  0  0  0  0
  -19.6657  -27.3209   20.6765 H   0  0  0  0  0  0
  -17.4169  -26.6738   21.4006 H   0  0  0  0  0  0
  -18.0243  -26.0041   22.8974 H   0  0  0  0  0  0
  -19.7911  -30.7265   24.2303 H   0  0  0  0  0  0
  -17.4991  -31.6261   24.5187 H   0  0  0  0  0  0
  -15.5341  -30.3003   23.7635 H   0  0  0  0  0  0
  -15.8652  -28.0821   22.7092 H   0  0  0  0  0  0
  -24.5973  -30.6943   25.7866 H   0  0  0  0  0  0
  -24.8864  -32.2801   26.4944 H   0  0  0  0  0  0
  -25.8144  -30.8903   27.0271 H   0  0  0  0  0  0
  -26.2887  -29.6797   24.1210 H   0  0  0  0  0  0
  -27.4150  -29.7337   25.4579 H   0  0  0  0  0  0
  -27.8683  -30.4415   23.9248 H   0  0  0  0  0  0
  -27.2632  -33.3669   26.2083 H   0  0  0  0  0  0
  -28.3826  -32.6956   25.0331 H   0  0  0  0  0  0
  -28.0704  -31.8514   26.5423 H   0  0  0  0  0  0
  -28.2572  -38.0124   24.7587 H   0  0  0  0  0  0
  -28.1116  -36.2668   24.6196 H   0  0  0  0  0  0
  -27.2303  -37.1340   25.8863 H   0  0  0  0  0  0
  -20.9225  -29.8779   21.7018 H   0  0  0  0  0  0
  -26.0153  -38.2865   24.1513 H   0  0  0  0  0  0
  -27.1131  -19.1733   21.0702 H   0  0  0  0  0  0
  -31.3397  -20.2023   21.1244 H   0  0  0  0  0  0
  -30.1422  -24.3691   19.9491 H   0  0  0  0  0  0
  -25.7655  -21.9125   21.1358 H   0  0  0  0  0  0
  -25.8580  -21.2888   19.4801 H   0  0  0  0  0  0
  -26.5841  -23.3649   18.6828 H   0  0  0  0  0  0
  -26.2736  -24.0464   20.2858 H   0  0  0  0  0  0
  -27.8487  -25.5658   18.3846 H   0  0  0  0  0  0
  -29.4794  -26.0890   18.4663 H   0  0  0  0  0  0
  -31.2088  -17.4129   20.4645 H   0  0  0  0  0  0
  -31.5952  -18.2754   21.9385 H   0  0  0  0  0  0
  -30.6119  -16.4159   23.3165 H   0  0  0  0  0  0
  -32.0476  -16.0007   22.4281 H   0  0  0  0  0  0
  -28.7656  -17.4544   21.5377 H   0  0  0  0  0  0
  -29.4388  -14.8401   22.1314 H   0  0  0  0  0  0
  1 25  1  0  0  0
  1 30  2  0  0  0
  1 85  1  0  0  0
  2  3  1  0  0  0
  2 25  1  0  0  0
  2 86  1  0  0  0
  2 87  1  0  0  0
  3  4  1  0  0  0
  3 88  1  0  0  0
  3 89  1  0  0  0
  4  5  1  0  0  0
  4 90  1  0  0  0
  4 91  1  0  0  0
  5  6  1  0  0  0
  5 26  1  0  0  0
  5 92  1  0  0  0
  6 25  1  0  0  0
  6 93  1  0  0  0
  6 94  1  0  0  0
  7  8  2  0  0  0
  7 26  1  0  0  0
  7 29  1  0  0  0
  8  9  1  0  0  0
  8 22  1  0  0  0
  9 10  1  0  0  0
  9 27  2  0  0  0
 10 11  2  0  0  0
 10 15  1  0  0  0
 11 12  1  0  0  0
 11 95  1  0  0  0
 12 13  2  0  0  0
 12 96  1  0  0  0
 13 14  1  0  0  0
 13 31  1  0  0  0
 14 15  2  0  0  0
 14 97  1  0  0  0
 15 98  1  0  0  0
 16 17  2  0  0  0
 16 21  1  0  0  0
 16 31  1  0  0  0
 17 18  1  0  0  0
 17 99  1  0  0  0
 18 19  2  0  0  0
 18100  1  0  0  0
 19 20  1  0  0  0
 19 24  1  0  0  0
 20 21  2  0  0  0
 20101  1  0  0  0
 21 23  1  0  0  0
 22 28  1  0  0  0
 22 32  2  0  0  0
 26 27  1  0  0  0
 28102  1  0  0  0
 28103  1  0  0  0
 29104  1  0  0  0
 29105  1  0  0  0
 33 34  1  0  0  0
 33 66  1  0  0  0
 33 70  2  0  0  0
 34 36  1  0  0  0
 34 59  1  0  0  0
 34106  1  0  0  0
 35 44  2  0  0  0
 35 45  1  0  0  0
 35 68  1  0  0  0
 36 56  1  0  0  0
 36107  1  0  0  0
 37 39  1  0  0  0
 37 47  1  0  0  0
 37 66  1  0  0  0
 37108  1  0  0  0
 38 43  2  0  0  0
 38 46  1  0  0  0
 38 47  1  0  0  0
 39 64  1  0  0  0
 39 67  2  0  0  0
 40 52  1  0  0  0
 40 53  2  0  0  0
 40 58  1  0  0  0
 41109  1  0  0  0
 41110  1  0  0  0
 41111  1  0  0  0
 41 48  1  0  0  0
 42 43  1  0  0  0
 42 66  1  0  0  0
 42112  1  0  0  0
 42113  1  0  0  0
 43 44  1  0  0  0
 44114  1  0  0  0
 45 46  2  0  0  0
 45115  1  0  0  0
 46116  1  0  0  0
 47117  1  0  0  0
 47118  1  0  0  0
 48 56  1  0  0  0
 48 65  1  0  0  0
 48119  1  0  0  0
 49 50  1  0  0  0
 49 53  1  0  0  0
 49 64  1  0  0  0
 49120  1  0  0  0
 50 51  1  0  0  0
 50121  1  0  0  0
 50122  1  0  0  0
 51 52  1  0  0  0
 51123  1  0  0  0
 51124  1  0  0  0
 52125  1  0  0  0
 52126  1  0  0  0
 53 54  1  0  0  0
 54 55  2  0  0  0
 54127  1  0  0  0
 55 57  1  0  0  0
 55128  1  0  0  0
 56 69  2  0  0  0
 57 58  2  0  0  0
 57129  1  0  0  0
 58130  1  0  0  0
 59 60  1  0  0  0
 59 61  1  0  0  0
 59 62  1  0  0  0
 60131  1  0  0  0
 60132  1  0  0  0
 60133  1  0  0  0
 61134  1  0  0  0
 61135  1  0  0  0
 61136  1  0  0  0
 62137  1  0  0  0
 62138  1  0  0  0
 62139  1  0  0  0
 63 65  1  0  0  0
 63140  1  0  0  0
 63141  1  0  0  0
 63142  1  0  0  0
 64143  1  0  0  0
 65144  1  0  0  0
 68 80  1  0  0  0
 71 73  2  0  0  0
 71 74  1  0  0  0
 71145  1  0  0  0
 72 74  2  0  0  0
 72 83  1  0  0  0
 72146  1  0  0  0
 73 75  1  0  0  0
 73 78  1  0  0  0
 74 84  1  0  0  0
 75 76  1  0  0  0
 75 83  2  0  0  0
 76 77  2  0  0  0
 76 79  1  0  0  0
 77 80  1  0  0  0
 77147  1  0  0  0
 78 79  1  0  0  0
 78148  1  0  0  0
 78149  1  0  0  0
 79150  1  0  0  0
 79151  1  0  0  0
 80152  1  0  0  0
 80153  1  0  0  0
 81 82  1  0  0  0
 81 84  1  0  0  0
 81154  1  0  0  0
 81155  1  0  0  0
 82 85  1  0  0  0
 82156  1  0  0  0
 82157  1  0  0  0
 84158  1  0  0  0
 85159  1  0  0  0
M  ISO  4   1 100  68 101  80 101  85 100
M  END
> <chiral flag>
0

> <version>
0

> <s_m_source_file>
/data/baiqing/PycharmProjects/Reinvent-master-3.2/result/LINK_invent/BTK/process_docking_weight1_custom_sum_contain_oxygen_bond_distance_aromatic_linkinvent_7_9_3/rearranged_h_0195.sdf

> <i_m_source_file_index>
13

> <r_mmod_Potential_Energy-OPLS-2005>
-198.762939453125

> <r_mmod_Stretch_Energy-OPLS-2005>
34.4323463439941

> <r_mmod_Bend_Energy-OPLS-2005>
152.098419189453

> <r_mmod_Torsional_Energy-OPLS-2005>
206.299713134766

> <r_mmod_Improper_Torsional_Energy-OPLS-2005>
3.06399846076965

> <r_mmod_Van_der_Waal_Energy-OPLS-2005>
159.058074951172

> <r_mmod_Electrostatic_Energy-OPLS-2005>
-530.474487304688

> <r_mmod_Solvation_Energy-OPLS-2005>
-231.434417724609

> <b_mmod_Minimization_Converged-OPLS-2005>
0

> <r_mmod_RMS_Derivative-OPLS-2005>
1.67486822605133

$$$$
13
                    3D
 Structure written by MMmdl.
156165  0  0  1  0            999 V2000
  -30.7073  -14.4974   20.6095 C   0  0  0  0  0  0
  -30.4223  -12.3328   19.4345 C   0  0  0  0  0  0
  -29.4938  -12.5152   18.2159 C   0  0  0  0  0  0
  -28.0183  -12.3586   18.6306 C   0  0  0  0  0  0
  -27.6597  -13.2102   19.8771 C   0  0  2  0  0  0
  -28.6979  -13.0122   21.0026 C   0  0  0  0  0  0
  -25.2562  -13.8171   20.5676 C   0  0  0  0  0  0
  -24.1820  -13.0439   20.9162 C   0  0  0  0  0  0
  -24.6383  -11.6910   20.8732 C   0  0  0  0  0  0
  -23.9066  -10.4288   21.0403 C   0  0  0  0  0  0
  -24.3624   -9.4209   21.9184 C   0  0  0  0  0  0
  -23.6297   -8.2247   22.0757 C   0  0  0  0  0  0
  -22.4283   -8.0279   21.3546 C   0  0  0  0  0  0
  -21.9914   -9.0248   20.4654 C   0  0  0  0  0  0
  -22.7238  -10.2126   20.3058 C   0  0  0  0  0  0
  -21.6850   -6.0739   22.5277 C   0  0  0  0  0  0
  -21.4017   -6.5643   23.8209 C   0  0  0  0  0  0
  -21.3661   -5.6793   24.9171 C   0  0  0  0  0  0
  -21.6042   -4.3053   24.7222 C   0  0  0  0  0  0
  -21.8822   -3.8147   23.4345 C   0  0  0  0  0  0
  -21.9193   -4.6966   22.3402 C   0  0  0  0  0  0
  -22.7846  -13.5225   21.1844 C   0  0  0  0  0  0
  -22.1659   -4.2151   21.0976 F   0  0  0  0  0  0
  -21.5634   -3.4541   25.7737 F   0  0  0  0  0  0
  -30.0304  -13.3214   20.4554 N   0  0  0  0  0  0
  -26.3014  -12.9351   20.3387 N   0  0  0  0  0  0
  -25.9316  -11.6500   20.5788 N   0  0  0  0  0  0
  -22.0503  -12.8209   22.0407 N   0  0  0  0  0  0
  -25.4254  -15.1895   20.4102 N   0  0  0  0  0  0
  -31.7963  -14.7077   20.0642 O   0  0  0  0  0  0
  -21.6645   -6.8881   21.4238 O   0  0  0  0  0  0
  -22.3520  -14.5519   20.6677 O   0  0  0  0  0  0
  -24.6160  -31.8657   23.2108 C   0  0  0  0  0  0
  -25.9050  -32.4810   23.8412 C   0  0  1  0  0  0
  -27.2279  -27.4211   20.1013 C   0  0  0  0  0  0
  -25.5906  -33.8609   24.2327 N   0  0  0  0  0  0
  -23.4064  -30.4918   21.5490 C   0  0  2  0  0  0
  -24.8563  -28.9629   20.1088 C   0  0  0  0  0  0
  -22.7424  -29.4656   22.4962 C   0  0  0  0  0  0
  -18.0273  -28.1393   22.8500 C   0  0  0  0  0  0
  -24.1504  -36.7320   23.2630 C   0  0  0  0  0  0
  -25.9383  -30.8294   21.3675 C   0  0  0  0  0  0
  -26.0172  -29.4657   20.7093 C   0  0  0  0  0  0
  -27.2111  -28.7014   20.7034 C   0  0  0  0  0  0
  -26.0570  -26.9409   19.4832 C   0  0  0  0  0  0
  -24.8719  -27.7009   19.4909 C   0  0  0  0  0  0
  -23.6157  -29.8291   20.1628 C   0  0  0  0  0  0
  -25.4116  -36.3096   24.0324 C   0  0  1  0  0  0
  -20.5865  -28.3680   23.1324 C   0  0  2  0  0  0
  -20.6769  -26.9410   22.5441 C   0  0  0  0  0  0
  -19.5764  -26.6403   21.5228 C   0  0  0  0  0  0
  -18.1926  -26.7956   22.1606 C   0  0  0  0  0  0
  -19.1524  -28.8854   23.2905 C   0  0  0  0  0  0
  -18.9458  -30.1459   23.8917 C   0  0  0  0  0  0
  -17.6461  -30.6608   24.0572 C   0  0  0  0  0  0
  -25.9051  -34.9457   23.5125 C   0  0  0  0  0  0
  -16.5345  -29.9107   23.6332 C   0  0  0  0  0  0
  -16.7260  -28.6519   23.0354 C   0  0  0  0  0  0
  -26.4479  -31.6581   25.0728 C   0  0  0  0  0  0
  -25.3724  -31.3697   26.1467 C   0  0  0  0  0  0
  -27.0278  -30.3007   24.6107 C   0  0  0  0  0  0
  -27.6111  -32.4292   25.7436 C   0  0  0  0  0  0
  -27.5585  -37.1769   24.8440 C   0  0  0  0  0  0
  -21.4151  -29.3027   22.3701 N   0  0  0  0  0  0
  -26.4291  -37.3791   23.9406 N   0  0  0  0  0  0
  -24.6712  -31.0763   22.1004 N   0  0  0  0  0  0
  -23.4187  -28.8174   23.2995 O   0  0  0  0  0  0
  -28.3459  -26.6112   20.1359 O   0  0  0  0  0  0
  -26.5638  -34.8911   22.4693 O   0  0  0  0  0  0
  -23.5346  -32.1403   23.7505 O   0  0  0  0  0  0
  -29.6613  -20.0358   20.7788 C   0  0  0  0  0  0
  -27.8194  -19.7712   22.2489 C   0  0  0  0  0  0
  -28.8844  -19.1604   21.5679 C   0  0  0  0  0  0
  -28.3552  -21.8186   21.3928 C   0  0  0  0  0  0
  -29.9695  -17.2369   22.9352 C   0  0  0  0  0  0
  -30.2482  -15.7445   22.6812 C   0  0  0  0  0  0
  -29.7249  -16.7978   20.6077 C   0  0  0  0  0  0
  -29.1124  -17.6434   21.7420 C   0  0  2  0  0  0
  -28.2162  -25.5061   21.0601 C   0  0  0  0  0  0
  -28.6676  -24.1031   20.5604 C   0  0  0  0  0  0
  -29.3923  -21.3662   20.6920 N   0  0  0  0  0  0
  -27.5649  -21.0887   22.1625 N   0  0  0  0  0  0
  -30.0428  -15.4998   21.2441 N   0  0  0  0  0  0
  -28.0205  -23.1340   21.3996 O   0  0  0  0  0  0
  -31.4667  -12.4338   19.1331 H   0  0  0  0  0  0
  -30.3282  -11.3236   19.8394 H   0  0  0  0  0  0
  -29.7417  -11.7913   17.4389 H   0  0  0  0  0  0
  -29.6466  -13.5027   17.7783 H   0  0  0  0  0  0
  -27.8449  -11.3026   18.8443 H   0  0  0  0  0  0
  -27.3604  -12.6116   17.7980 H   0  0  0  0  0  0
  -27.6977  -14.2546   19.5677 H   0  0  0  0  0  0
  -28.6790  -11.9848   21.3683 H   0  0  0  0  0  0
  -28.4415  -13.6310   21.8624 H   0  0  0  0  0  0
  -25.2776   -9.5688   22.4749 H   0  0  0  0  0  0
  -24.0011   -7.4643   22.7481 H   0  0  0  0  0  0
  -21.0850   -8.8768   19.8962 H   0  0  0  0  0  0
  -22.3698  -10.9671   19.6162 H   0  0  0  0  0  0
  -21.2008   -7.6148   23.9713 H   0  0  0  0  0  0
  -21.1481   -6.0526   25.9076 H   0  0  0  0  0  0
  -22.0596   -2.7614   23.2839 H   0  0  0  0  0  0
  -22.4148  -11.9878   22.4784 H   0  0  0  0  0  0
  -21.1127  -13.1226   22.2650 H   0  0  0  0  0  0
  -24.6552  -15.8406   20.5150 H   0  0  0  0  0  0
  -26.2860  -15.6353   20.1194 H   0  0  0  0  0  0
  -26.7105  -32.5525   23.1165 H   0  0  0  0  0  0
  -25.0024  -33.9776   25.0451 H   0  0  0  0  0  0
  -22.6987  -31.3106   21.4109 H   0  0  0  0  0  0
  -23.3771  -35.9648   23.3276 H   0  0  0  0  0  0
  -24.3602  -36.8974   22.2050 H   0  0  0  0  0  0
  -23.7267  -37.6512   23.6675 H   0  0  0  0  0  0
  -26.0534  -31.5971   20.6008 H   0  0  0  0  0  0
  -26.8256  -30.8807   21.9860 H   0  0  0  0  0  0
  -28.1035  -29.0757   21.1850 H   0  0  0  0  0  0
  -26.0577  -25.9696   19.0063 H   0  0  0  0  0  0
  -23.9783  -27.3123   19.0230 H   0  0  0  0  0  0
  -23.7143  -30.6077   19.4064 H   0  0  0  0  0  0
  -22.7410  -29.2449   19.8702 H   0  0  0  0  0  0
  -25.1271  -36.1954   25.0815 H   0  0  0  0  0  0
  -20.9942  -28.3267   24.1447 H   0  0  0  0  0  0
  -20.5709  -26.2274   23.3625 H   0  0  0  0  0  0
  -21.6642  -26.7484   22.1218 H   0  0  0  0  0  0
  -19.6950  -25.6323   21.1245 H   0  0  0  0  0  0
  -19.6746  -27.3234   20.6786 H   0  0  0  0  0  0
  -17.4212  -26.6749   21.3967 H   0  0  0  0  0  0
  -18.0281  -26.0087   22.8986 H   0  0  0  0  0  0
  -19.7928  -30.7259   24.2311 H   0  0  0  0  0  0
  -17.5016  -31.6292   24.5169 H   0  0  0  0  0  0
  -15.5350  -30.3006   23.7680 H   0  0  0  0  0  0
  -15.8659  -28.0849   22.7066 H   0  0  0  0  0  0
  -24.6073  -30.6811   25.7872 H   0  0  0  0  0  0
  -24.8674  -32.2804   26.4693 H   0  0  0  0  0  0
  -25.8083  -30.9131   27.0363 H   0  0  0  0  0  0
  -26.2797  -29.6771   24.1211 H   0  0  0  0  0  0
  -27.4081  -29.7240   25.4546 H   0  0  0  0  0  0
  -27.8619  -30.4307   23.9218 H   0  0  0  0  0  0
  -27.2815  -33.3645   26.1983 H   0  0  0  0  0  0
  -28.3895  -32.6768   25.0199 H   0  0  0  0  0  0
  -28.0797  -31.8412   26.5342 H   0  0  0  0  0  0
  -28.2570  -38.0093   24.7536 H   0  0  0  0  0  0
  -28.1109  -36.2629   24.6198 H   0  0  0  0  0  0
  -27.2301  -37.1335   25.8838 H   0  0  0  0  0  0
  -20.9313  -29.8705   21.6873 H   0  0  0  0  0  0
  -26.0177  -38.2849   24.1496 H   0  0  0  0  0  0
  -30.5088  -19.6756   20.2138 H   0  0  0  0  0  0
  -27.1581  -19.1985   22.8835 H   0  0  0  0  0  0
  -30.9106  -17.7918   22.9377 H   0  0  0  0  0  0
  -29.4842  -17.4128   23.8970 H   0  0  0  0  0  0
  -29.5509  -15.1307   23.2519 H   0  0  0  0  0  0
  -31.2565  -15.4769   23.0069 H   0  0  0  0  0  0
  -30.6423  -17.2488   20.2238 H   0  0  0  0  0  0
  -29.0355  -16.6753   19.7696 H   0  0  0  0  0  0
  -28.1173  -17.2241   21.9167 H   0  0  0  0  0  0
  -28.7702  -25.7588   21.9638 H   0  0  0  0  0  0
  -27.1787  -25.4112   21.3883 H   0  0  0  0  0  0
  -29.7540  -24.0197   20.5947 H   0  0  0  0  0  0
  -28.3478  -23.9459   19.5300 H   0  0  0  0  0  0
  1 25  1  0  0  0
  1 30  2  0  0  0
  1 83  1  0  0  0
  2  3  1  0  0  0
  2 25  1  0  0  0
  2 85  1  0  0  0
  2 86  1  0  0  0
  3  4  1  0  0  0
  3 87  1  0  0  0
  3 88  1  0  0  0
  4  5  1  0  0  0
  4 89  1  0  0  0
  4 90  1  0  0  0
  5  6  1  0  0  0
  5 26  1  0  0  0
  5 91  1  0  0  0
  6 25  1  0  0  0
  6 92  1  0  0  0
  6 93  1  0  0  0
  7  8  2  0  0  0
  7 26  1  0  0  0
  7 29  1  0  0  0
  8  9  1  0  0  0
  8 22  1  0  0  0
  9 10  1  0  0  0
  9 27  2  0  0  0
 10 11  2  0  0  0
 10 15  1  0  0  0
 11 12  1  0  0  0
 11 94  1  0  0  0
 12 13  2  0  0  0
 12 95  1  0  0  0
 13 14  1  0  0  0
 13 31  1  0  0  0
 14 15  2  0  0  0
 14 96  1  0  0  0
 15 97  1  0  0  0
 16 17  2  0  0  0
 16 21  1  0  0  0
 16 31  1  0  0  0
 17 18  1  0  0  0
 17 98  1  0  0  0
 18 19  2  0  0  0
 18 99  1  0  0  0
 19 20  1  0  0  0
 19 24  1  0  0  0
 20 21  2  0  0  0
 20100  1  0  0  0
 21 23  1  0  0  0
 22 28  1  0  0  0
 22 32  2  0  0  0
 26 27  1  0  0  0
 28101  1  0  0  0
 28102  1  0  0  0
 29103  1  0  0  0
 29104  1  0  0  0
 33 34  1  0  0  0
 33 66  1  0  0  0
 33 70  2  0  0  0
 34 36  1  0  0  0
 34 59  1  0  0  0
 34105  1  0  0  0
 35 44  2  0  0  0
 35 45  1  0  0  0
 35 68  1  0  0  0
 36 56  1  0  0  0
 36106  1  0  0  0
 37 39  1  0  0  0
 37 47  1  0  0  0
 37 66  1  0  0  0
 37107  1  0  0  0
 38 43  2  0  0  0
 38 46  1  0  0  0
 38 47  1  0  0  0
 39 64  1  0  0  0
 39 67  2  0  0  0
 40 52  1  0  0  0
 40 53  2  0  0  0
 40 58  1  0  0  0
 41108  1  0  0  0
 41109  1  0  0  0
 41110  1  0  0  0
 41 48  1  0  0  0
 42 43  1  0  0  0
 42 66  1  0  0  0
 42111  1  0  0  0
 42112  1  0  0  0
 43 44  1  0  0  0
 44113  1  0  0  0
 45 46  2  0  0  0
 45114  1  0  0  0
 46115  1  0  0  0
 47116  1  0  0  0
 47117  1  0  0  0
 48 56  1  0  0  0
 48 65  1  0  0  0
 48118  1  0  0  0
 49 50  1  0  0  0
 49 53  1  0  0  0
 49 64  1  0  0  0
 49119  1  0  0  0
 50 51  1  0  0  0
 50120  1  0  0  0
 50121  1  0  0  0
 51 52  1  0  0  0
 51122  1  0  0  0
 51123  1  0  0  0
 52124  1  0  0  0
 52125  1  0  0  0
 53 54  1  0  0  0
 54 55  2  0  0  0
 54126  1  0  0  0
 55 57  1  0  0  0
 55127  1  0  0  0
 56 69  2  0  0  0
 57 58  2  0  0  0
 57128  1  0  0  0
 58129  1  0  0  0
 59 60  1  0  0  0
 59 61  1  0  0  0
 59 62  1  0  0  0
 60130  1  0  0  0
 60131  1  0  0  0
 60132  1  0  0  0
 61133  1  0  0  0
 61134  1  0  0  0
 61135  1  0  0  0
 62136  1  0  0  0
 62137  1  0  0  0
 62138  1  0  0  0
 63 65  1  0  0  0
 63139  1  0  0  0
 63140  1  0  0  0
 63141  1  0  0  0
 64142  1  0  0  0
 65143  1  0  0  0
 68 79  1  0  0  0
 71 73  2  0  0  0
 71 81  1  0  0  0
 71144  1  0  0  0
 72 73  1  0  0  0
 72 82  2  0  0  0
 72145  1  0  0  0
 73 78  1  0  0  0
 74 81  2  0  0  0
 74 82  1  0  0  0
 74 84  1  0  0  0
 75 76  1  0  0  0
 75 78  1  0  0  0
 75146  1  0  0  0
 75147  1  0  0  0
 76 83  1  0  0  0
 76148  1  0  0  0
 76149  1  0  0  0
 77 78  1  0  0  0
 77 83  1  0  0  0
 77150  1  0  0  0
 77151  1  0  0  0
 78152  1  0  0  0
 79 80  1  0  0  0
 79153  1  0  0  0
 79154  1  0  0  0
 80 84  1  0  0  0
 80155  1  0  0  0
 80156  1  0  0  0
M  ISO  4   1 100  68 101  79 101  83 100
M  END
> <chiral flag>
0

> <version>
0

> <s_m_source_file>
/data/baiqing/PycharmProjects/Reinvent-master-3.2/result/LINK_invent/BTK/process_docking_weight1_custom_sum_contain_oxygen_bond_distance_aromatic_linkinvent_7_9_3/rearranged_h_0195.sdf

> <i_m_source_file_index>
14

> <r_mmod_Potential_Energy-OPLS-2005>
-268.647399902344

> <r_mmod_Stretch_Energy-OPLS-2005>
41.636589050293

> <r_mmod_Bend_Energy-OPLS-2005>
148.986602783203

> <r_mmod_Torsional_Energy-OPLS-2005>
350.838531494141

> <r_mmod_Improper_Torsional_Energy-OPLS-2005>
6.52882528305054

> <r_mmod_Van_der_Waal_Energy-OPLS-2005>
151.065567016602

> <r_mmod_Electrostatic_Energy-OPLS-2005>
-771.953063964844

> <r_mmod_Solvation_Energy-OPLS-2005>
-212.403701782227

> <b_mmod_Minimization_Converged-OPLS-2005>
0

> <r_mmod_RMS_Derivative-OPLS-2005>
2.66284894943237

$$$$
14
                    3D
 Structure written by MMmdl.
166175  0  0  1  0            999 V2000
  -30.6006  -14.8355   20.4542 C   0  0  0  0  0  0
  -30.4207  -12.5164   19.4928 C   0  0  0  0  0  0
  -29.5089  -12.5199   18.2474 C   0  0  0  0  0  0
  -28.0369  -12.3297   18.6582 C   0  0  0  0  0  0
  -27.6290  -13.2437   19.8443 C   0  0  2  0  0  0
  -28.6699  -13.2282   20.9820 C   0  0  0  0  0  0
  -25.2430  -13.8200   20.5678 C   0  0  0  0  0  0
  -24.1756  -13.0433   20.9233 C   0  0  0  0  0  0
  -24.6367  -11.6919   20.8760 C   0  0  0  0  0  0
  -23.9063  -10.4283   21.0414 C   0  0  0  0  0  0
  -24.3616   -9.4204   21.9196 C   0  0  0  0  0  0
  -23.6299   -8.2230   22.0753 C   0  0  0  0  0  0
  -22.4286   -8.0264   21.3541 C   0  0  0  0  0  0
  -21.9913   -9.0242   20.4645 C   0  0  0  0  0  0
  -22.7235  -10.2120   20.3062 C   0  0  0  0  0  0
  -21.6849   -6.0721   22.5276 C   0  0  0  0  0  0
  -21.4006   -6.5628   23.8211 C   0  0  0  0  0  0
  -21.3661   -5.6790   24.9176 C   0  0  0  0  0  0
  -21.6055   -4.3051   24.7221 C   0  0  0  0  0  0
  -21.8822   -3.8134   23.4343 C   0  0  0  0  0  0
  -21.9187   -4.6947   22.3396 C   0  0  0  0  0  0
  -22.7786  -13.5216   21.1891 C   0  0  0  0  0  0
  -22.1667   -4.2133   21.0974 F   0  0  0  0  0  0
  -21.5630   -3.4539   25.7735 F   0  0  0  0  0  0
  -29.9543  -13.6117   20.3867 N   0  0  0  0  0  0
  -26.2864  -12.9433   20.3254 N   0  0  0  0  0  0
  -25.9296  -11.6569   20.5748 N   0  0  0  0  0  0
  -22.0428  -12.8213   22.0444 N   0  0  0  0  0  0
  -25.4076  -15.1920   20.4020 N   0  0  0  0  0  0
  -31.7997  -14.8559   20.1505 O   0  0  0  0  0  0
  -21.6644   -6.8868   21.4239 O   0  0  0  0  0  0
  -22.3482  -14.5532   20.6742 O   0  0  0  0  0  0
  -24.6349  -31.8508   23.1943 C   0  0  0  0  0  0
  -25.9154  -32.4721   23.8305 C   0  0  1  0  0  0
  -27.2074  -27.2026   20.1385 C   0  0  0  0  0  0
  -25.5943  -33.8524   24.2233 N   0  0  0  0  0  0
  -23.4342  -30.4727   21.5372 C   0  0  2  0  0  0
  -24.8823  -28.9167   20.1046 C   0  0  0  0  0  0
  -22.7524  -29.4566   22.4868 C   0  0  0  0  0  0
  -18.0300  -28.1386   22.8488 C   0  0  0  0  0  0
  -24.1493  -36.7263   23.2639 C   0  0  0  0  0  0
  -25.9844  -30.7438   21.3863 C   0  0  0  0  0  0
  -26.0528  -29.3617   20.7293 C   0  0  0  0  0  0
  -27.2142  -28.5153   20.7397 C   0  0  0  0  0  0
  -26.0203  -26.8567   19.4513 C   0  0  0  0  0  0
  -24.8759  -27.6764   19.4519 C   0  0  0  0  0  0
  -23.6563  -29.8086   20.1528 C   0  0  0  0  0  0
  -25.4118  -36.3037   24.0321 C   0  0  1  0  0  0
  -20.5906  -28.3696   23.1260 C   0  0  2  0  0  0
  -20.6782  -26.9409   22.5410 C   0  0  0  0  0  0
  -19.5756  -26.6382   21.5216 C   0  0  0  0  0  0
  -18.1935  -26.7930   22.1626 C   0  0  0  0  0  0
  -19.1551  -28.8856   23.2867 C   0  0  0  0  0  0
  -18.9472  -30.1458   23.8887 C   0  0  0  0  0  0
  -17.6467  -30.6579   24.0562 C   0  0  0  0  0  0
  -25.9071  -34.9416   23.5079 C   0  0  0  0  0  0
  -16.5359  -29.9078   23.6336 C   0  0  0  0  0  0
  -16.7281  -28.6496   23.0354 C   0  0  0  0  0  0
  -26.4526  -31.6544   25.0701 C   0  0  0  0  0  0
  -25.3738  -31.3700   26.1410 C   0  0  0  0  0  0
  -27.0384  -30.2951   24.6213 C   0  0  0  0  0  0
  -27.6064  -32.4293   25.7481 C   0  0  0  0  0  0
  -27.5578  -37.1781   24.8459 C   0  0  0  0  0  0
  -21.4221  -29.3036   22.3632 N   0  0  0  0  0  0
  -26.4282  -37.3746   23.9415 N   0  0  0  0  0  0
  -24.7033  -31.0427   22.0949 N   0  0  0  0  0  0
  -23.4207  -28.8111   23.2976 O   0  0  0  0  0  0
  -28.2848  -26.2729   20.2492 O   0  0  0  0  0  0
  -26.5639  -34.8901   22.4653 O   0  0  0  0  0  0
  -23.5491  -32.1349   23.7216 O   0  0  0  0  0  0
  -30.6208  -21.1559   21.4084 C   0  0  0  0  0  0
  -28.6271  -21.9654   20.1136 C   0  0  0  0  0  0
  -28.9055  -16.6293   21.3664 C   0  0  0  0  0  0
  -30.1251  -17.0911   19.3306 C   0  0  0  0  0  0
  -30.6499  -22.5582   22.0636 C   0  0  0  0  0  0
  -28.9475  -18.2066   21.6926 C   0  0  0  0  0  0
  -30.2413  -18.6323   19.7313 C   0  0  0  0  0  0
  -29.2013  -20.7171   21.0041 C   0  0  1  0  0  0
  -28.7761  -23.5000   20.7149 C   0  0  2  0  0  0
  -30.4693  -24.9823   21.8156 C   0  0  0  0  0  0
  -28.2009  -24.7943   19.8499 C   0  0  0  0  0  0
  -29.8778  -16.0539   20.3888 N   0  0  0  0  0  0
  -29.1226  -19.1999   20.5595 N   0  3  0  0  0  0
  -30.1961  -23.6713   21.1715 N   0  3  1  0  0  0
  -31.4626  -12.6361   19.1922 H   0  0  0  0  0  0
  -30.3708  -11.5550   20.0068 H   0  0  0  0  0  0
  -29.8113  -11.7335   17.5551 H   0  0  0  0  0  0
  -29.6224  -13.4626   17.7096 H   0  0  0  0  0  0
  -27.9071  -11.2842   18.9395 H   0  0  0  0  0  0
  -27.3790  -12.4984   17.8045 H   0  0  0  0  0  0
  -27.6064  -14.2571   19.4430 H   0  0  0  0  0  0
  -28.7318  -12.2433   21.4459 H   0  0  0  0  0  0
  -28.3823  -13.9179   21.7743 H   0  0  0  0  0  0
  -25.2743   -9.5688   22.4795 H   0  0  0  0  0  0
  -24.0000   -7.4616   22.7472 H   0  0  0  0  0  0
  -21.0839   -8.8763   19.8961 H   0  0  0  0  0  0
  -22.3689  -10.9663   19.6184 H   0  0  0  0  0  0
  -21.2008   -7.6140   23.9712 H   0  0  0  0  0  0
  -21.1492   -6.0517   25.9087 H   0  0  0  0  0  0
  -22.0603   -2.7593   23.2840 H   0  0  0  0  0  0
  -22.4021  -11.9855   22.4808 H   0  0  0  0  0  0
  -21.1052  -13.1242   22.2657 H   0  0  0  0  0  0
  -24.6263  -15.8331   20.4784 H   0  0  0  0  0  0
  -26.2308  -15.6140   19.9936 H   0  0  0  0  0  0
  -26.7209  -32.5354   23.1033 H   0  0  0  0  0  0
  -25.0088  -33.9656   25.0375 H   0  0  0  0  0  0
  -22.7334  -31.2970   21.3891 H   0  0  0  0  0  0
  -23.3761  -35.9585   23.3267 H   0  0  0  0  0  0
  -24.3597  -36.8926   22.2062 H   0  0  0  0  0  0
  -23.7236  -37.6448   23.6696 H   0  0  0  0  0  0
  -26.1320  -31.5014   20.6157 H   0  0  0  0  0  0
  -26.8595  -30.7925   22.0220 H   0  0  0  0  0  0
  -28.1035  -28.8450   21.2592 H   0  0  0  0  0  0
  -25.9272  -25.9322   18.9051 H   0  0  0  0  0  0
  -23.9857  -27.3427   18.9360 H   0  0  0  0  0  0
  -23.7837  -30.5844   19.3969 H   0  0  0  0  0  0
  -22.7750  -29.2429   19.8454 H   0  0  0  0  0  0
  -25.1299  -36.1872   25.0810 H   0  0  0  0  0  0
  -21.0012  -28.3280   24.1374 H   0  0  0  0  0  0
  -20.5684  -26.2306   23.3620 H   0  0  0  0  0  0
  -21.6645  -26.7422   22.1201 H   0  0  0  0  0  0
  -19.6914  -25.6294   21.1241 H   0  0  0  0  0  0
  -19.6698  -27.3198   20.6752 H   0  0  0  0  0  0
  -17.4215  -26.6686   21.4018 H   0  0  0  0  0  0
  -18.0321  -26.0064   22.9015 H   0  0  0  0  0  0
  -19.7943  -30.7273   24.2254 H   0  0  0  0  0  0
  -17.5020  -31.6261   24.5159 H   0  0  0  0  0  0
  -15.5358  -30.2973   23.7659 H   0  0  0  0  0  0
  -15.8686  -28.0813   22.7067 H   0  0  0  0  0  0
  -24.5926  -30.7041   25.7729 H   0  0  0  0  0  0
  -24.8926  -32.2874   26.4805 H   0  0  0  0  0  0
  -25.8049  -30.8892   27.0202 H   0  0  0  0  0  0
  -26.2976  -29.6672   24.1251 H   0  0  0  0  0  0
  -27.4071  -29.7230   25.4741 H   0  0  0  0  0  0
  -27.8858  -30.4210   23.9467 H   0  0  0  0  0  0
  -27.2665  -33.3609   26.2016 H   0  0  0  0  0  0
  -28.3903  -32.6822   25.0327 H   0  0  0  0  0  0
  -28.0704  -31.8442   26.5435 H   0  0  0  0  0  0
  -28.2558  -38.0114   24.7534 H   0  0  0  0  0  0
  -28.1111  -36.2644   24.6241 H   0  0  0  0  0  0
  -27.2308  -37.1361   25.8863 H   0  0  0  0  0  0
  -20.9409  -29.8769   21.6849 H   0  0  0  0  0  0
  -26.0150  -38.2808   24.1434 H   0  0  0  0  0  0
  -31.0401  -20.4397   22.1143 H   0  0  0  0  0  0
  -31.2791  -21.1522   20.5400 H   0  0  0  0  0  0
  -27.5751  -21.7821   19.8943 H   0  0  0  0  0  0
  -29.1256  -21.9396   19.1437 H   0  0  0  0  0  0
  -27.9110  -16.3840   20.9941 H   0  0  0  0  0  0
  -29.0000  -16.0912   22.3100 H   0  0  0  0  0  0
  -31.0138  -16.8305   18.7538 H   0  0  0  0  0  0
  -29.3030  -16.9938   18.6201 H   0  0  0  0  0  0
  -31.6758  -22.7511   22.3817 H   0  0  0  0  0  0
  -30.0487  -22.5544   22.9743 H   0  0  0  0  0  0
  -29.7632  -18.3745   22.3975 H   0  0  0  0  0  0
  -28.0387  -18.4635   22.2404 H   0  0  0  0  0  0
  -30.3357  -19.2346   18.8268 H   0  0  0  0  0  0
  -31.1781  -18.7566   20.2746 H   0  0  0  0  0  0
  -28.5958  -20.7525   21.9118 H   0  0  0  0  0  0
  -28.1789  -23.5075   21.6278 H   0  0  0  0  0  0
  -31.4469  -24.9973   22.2991 H   0  0  0  0  0  0
  -29.7233  -25.2191   22.5755 H   0  0  0  0  0  0
  -30.4929  -25.7892   21.0856 H   0  0  0  0  0  0
  -27.1611  -24.5273   19.6930 H   0  0  0  0  0  0
  -28.6539  -24.7448   18.8598 H   0  0  0  0  0  0
  -28.2815  -19.1212   20.0060 H   0  0  0  0  0  0
  -30.7924  -23.6521   20.3558 H   0  0  0  0  0  0
  1 25  1  0  0  0
  1 30  2  0  0  0
  1 82  1  0  0  0
  2  3  1  0  0  0
  2 25  1  0  0  0
  2 85  1  0  0  0
  2 86  1  0  0  0
  3  4  1  0  0  0
  3 87  1  0  0  0
  3 88  1  0  0  0
  4  5  1  0  0  0
  4 89  1  0  0  0
  4 90  1  0  0  0
  5  6  1  0  0  0
  5 26  1  0  0  0
  5 91  1  0  0  0
  6 25  1  0  0  0
  6 92  1  0  0  0
  6 93  1  0  0  0
  7  8  2  0  0  0
  7 26  1  0  0  0
  7 29  1  0  0  0
  8  9  1  0  0  0
  8 22  1  0  0  0
  9 10  1  0  0  0
  9 27  2  0  0  0
 10 11  2  0  0  0
 10 15  1  0  0  0
 11 12  1  0  0  0
 11 94  1  0  0  0
 12 13  2  0  0  0
 12 95  1  0  0  0
 13 14  1  0  0  0
 13 31  1  0  0  0
 14 15  2  0  0  0
 14 96  1  0  0  0
 15 97  1  0  0  0
 16 17  2  0  0  0
 16 21  1  0  0  0
 16 31  1  0  0  0
 17 18  1  0  0  0
 17 98  1  0  0  0
 18 19  2  0  0  0
 18 99  1  0  0  0
 19 20  1  0  0  0
 19 24  1  0  0  0
 20 21  2  0  0  0
 20100  1  0  0  0
 21 23  1  0  0  0
 22 28  1  0  0  0
 22 32  2  0  0  0
 26 27  1  0  0  0
 28101  1  0  0  0
 28102  1  0  0  0
 29103  1  0  0  0
 29104  1  0  0  0
 33 34  1  0  0  0
 33 66  1  0  0  0
 33 70  2  0  0  0
 34 36  1  0  0  0
 34 59  1  0  0  0
 34105  1  0  0  0
 35 44  2  0  0  0
 35 45  1  0  0  0
 35 68  1  0  0  0
 36 56  1  0  0  0
 36106  1  0  0  0
 37 39  1  0  0  0
 37 47  1  0  0  0
 37 66  1  0  0  0
 37107  1  0  0  0
 38 43  2  0  0  0
 38 46  1  0  0  0
 38 47  1  0  0  0
 39 64  1  0  0  0
 39 67  2  0  0  0
 40 52  1  0  0  0
 40 53  2  0  0  0
 40 58  1  0  0  0
 41108  1  0  0  0
 41109  1  0  0  0
 41110  1  0  0  0
 41 48  1  0  0  0
 42 43  1  0  0  0
 42 66  1  0  0  0
 42111  1  0  0  0
 42112  1  0  0  0
 43 44  1  0  0  0
 44113  1  0  0  0
 45 46  2  0  0  0
 45114  1  0  0  0
 46115  1  0  0  0
 47116  1  0  0  0
 47117  1  0  0  0
 48 56  1  0  0  0
 48 65  1  0  0  0
 48118  1  0  0  0
 49 50  1  0  0  0
 49 53  1  0  0  0
 49 64  1  0  0  0
 49119  1  0  0  0
 50 51  1  0  0  0
 50120  1  0  0  0
 50121  1  0  0  0
 51 52  1  0  0  0
 51122  1  0  0  0
 51123  1  0  0  0
 52124  1  0  0  0
 52125  1  0  0  0
 53 54  1  0  0  0
 54 55  2  0  0  0
 54126  1  0  0  0
 55 57  1  0  0  0
 55127  1  0  0  0
 56 69  2  0  0  0
 57 58  2  0  0  0
 57128  1  0  0  0
 58129  1  0  0  0
 59 60  1  0  0  0
 59 61  1  0  0  0
 59 62  1  0  0  0
 60130  1  0  0  0
 60131  1  0  0  0
 60132  1  0  0  0
 61133  1  0  0  0
 61134  1  0  0  0
 61135  1  0  0  0
 62136  1  0  0  0
 62137  1  0  0  0
 62138  1  0  0  0
 63 65  1  0  0  0
 63139  1  0  0  0
 63140  1  0  0  0
 63141  1  0  0  0
 64142  1  0  0  0
 65143  1  0  0  0
 68 81  1  0  0  0
 71 75  1  0  0  0
 71144  1  0  0  0
 71145  1  0  0  0
 71 78  1  0  0  0
 72 78  1  0  0  0
 72 79  1  0  0  0
 72146  1  0  0  0
 72147  1  0  0  0
 73 76  1  0  0  0
 73 82  1  0  0  0
 73148  1  0  0  0
 73149  1  0  0  0
 74 77  1  0  0  0
 74 82  1  0  0  0
 74150  1  0  0  0
 74151  1  0  0  0
 75 84  1  0  0  0
 75152  1  0  0  0
 75153  1  0  0  0
 76154  1  0  0  0
 76155  1  0  0  0
 76 83  1  0  0  0
 77 83  1  0  0  0
 77156  1  0  0  0
 77157  1  0  0  0
 78 83  1  0  0  0
 78158  1  0  0  0
 79 81  1  0  0  0
 79 84  1  0  0  0
 79159  1  0  0  0
 80160  1  0  0  0
 80161  1  0  0  0
 80162  1  0  0  0
 80 84  1  0  0  0
 81163  1  0  0  0
 81164  1  0  0  0
 83165  1  0  0  0
 84166  1  0  0  0
M  CHG  2  83   1  84   1
M  ISO  4   1 100  68 101  81 101  82 100
M  END
> <chiral flag>
0

> <version>
0

> <s_m_source_file>
/data/baiqing/PycharmProjects/Reinvent-master-3.2/result/LINK_invent/BTK/process_docking_weight1_custom_sum_contain_oxygen_bond_distance_aromatic_linkinvent_7_9_3/rearranged_h_0195.sdf

> <i_m_source_file_index>
15

> <r_mmod_Potential_Energy-OPLS-2005>
372.037994384766

> <r_mmod_Stretch_Energy-OPLS-2005>
181.812957763672

> <r_mmod_Bend_Energy-OPLS-2005>
242.522521972656

> <r_mmod_Torsional_Energy-OPLS-2005>
425.063171386719

> <r_mmod_Improper_Torsional_Energy-OPLS-2005>
14.9773960113525

> <r_mmod_Van_der_Waal_Energy-OPLS-2005>
130.436096191406

> <r_mmod_Electrostatic_Energy-OPLS-2005>
167.243804931641

> <r_mmod_Solvation_Energy-OPLS-2005>
-918.778381347656

> <b_mmod_Minimization_Converged-OPLS-2005>
0

> <r_mmod_RMS_Derivative-OPLS-2005>
1.90361559391022

$$$$
15
                    3D
 Structure written by MMmdl.
162171  0  0  1  0            999 V2000
  -30.7558  -14.3742   20.7063 C   0  0  0  0  0  0
  -30.4225  -12.3043   19.4000 C   0  0  0  0  0  0
  -29.4831  -12.5447   18.2023 C   0  0  0  0  0  0
  -28.0051  -12.3948   18.6062 C   0  0  0  0  0  0
  -27.6683  -13.1934   19.8914 C   0  0  2  0  0  0
  -28.7084  -12.8888   20.9966 C   0  0  0  0  0  0
  -25.2615  -13.8168   20.5683 C   0  0  0  0  0  0
  -24.1857  -13.0472   20.9174 C   0  0  0  0  0  0
  -24.6391  -11.6921   20.8742 C   0  0  0  0  0  0
  -23.9072  -10.4310   21.0423 C   0  0  0  0  0  0
  -24.3626   -9.4215   21.9190 C   0  0  0  0  0  0
  -23.6305   -8.2247   22.0758 C   0  0  0  0  0  0
  -22.4273   -8.0295   21.3562 C   0  0  0  0  0  0
  -21.9914   -9.0276   20.4659 C   0  0  0  0  0  0
  -22.7253  -10.2150   20.3071 C   0  0  0  0  0  0
  -21.6854   -6.0742   22.5289 C   0  0  0  0  0  0
  -21.4012   -6.5648   23.8225 C   0  0  0  0  0  0
  -21.3663   -5.6794   24.9182 C   0  0  0  0  0  0
  -21.6046   -4.3058   24.7220 C   0  0  0  0  0  0
  -21.8827   -3.8153   23.4340 C   0  0  0  0  0  0
  -21.9197   -4.6972   22.3401 C   0  0  0  0  0  0
  -22.7870  -13.5259   21.1824 C   0  0  0  0  0  0
  -22.1668   -4.2172   21.0977 F   0  0  0  0  0  0
  -21.5624   -3.4540   25.7726 F   0  0  0  0  0  0
  -30.0437  -13.2330   20.4793 N   0  0  0  0  0  0
  -26.3058  -12.9308   20.3450 N   0  0  0  0  0  0
  -25.9312  -11.6483   20.5787 N   0  0  0  0  0  0
  -22.0509  -12.8270   22.0375 N   0  0  0  0  0  0
  -25.4330  -15.1897   20.4031 N   0  0  0  0  0  0
  -31.7755  -14.6382   20.0570 O   0  0  0  0  0  0
  -21.6647   -6.8886   21.4249 O   0  0  0  0  0  0
  -22.3559  -14.5569   20.6669 O   0  0  0  0  0  0
  -24.6146  -31.8711   23.2154 C   0  0  0  0  0  0
  -25.9054  -32.4850   23.8434 C   0  0  1  0  0  0
  -27.2345  -27.4653   20.0844 C   0  0  0  0  0  0
  -25.5915  -33.8639   24.2379 N   0  0  0  0  0  0
  -23.4003  -30.4962   21.5533 C   0  0  2  0  0  0
  -24.8407  -28.9598   20.1197 C   0  0  0  0  0  0
  -22.7407  -29.4684   22.5018 C   0  0  0  0  0  0
  -18.0295  -28.1391   22.8487 C   0  0  0  0  0  0
  -24.1464  -36.7286   23.2645 C   0  0  0  0  0  0
  -25.9255  -30.8427   21.3641 C   0  0  0  0  0  0
  -25.9977  -29.4786   20.7118 C   0  0  0  0  0  0
  -27.1940  -28.7367   20.6918 C   0  0  0  0  0  0
  -26.0596  -26.9563   19.4813 C   0  0  0  0  0  0
  -24.8640  -27.6966   19.5037 C   0  0  0  0  0  0
  -23.6052  -29.8235   20.1685 C   0  0  0  0  0  0
  -25.4092  -36.3134   24.0369 C   0  0  1  0  0  0
  -20.5871  -28.3651   23.1322 C   0  0  2  0  0  0
  -20.6761  -26.9395   22.5398 C   0  0  0  0  0  0
  -19.5747  -26.6402   21.5181 C   0  0  0  0  0  0
  -18.1936  -26.7948   22.1601 C   0  0  0  0  0  0
  -19.1534  -28.8847   23.2910 C   0  0  0  0  0  0
  -18.9458  -30.1455   23.8937 C   0  0  0  0  0  0
  -17.6457  -30.6604   24.0564 C   0  0  0  0  0  0
  -25.9020  -34.9496   23.5168 C   0  0  0  0  0  0
  -16.5354  -29.9096   23.6331 C   0  0  0  0  0  0
  -16.7279  -28.6498   23.0371 C   0  0  0  0  0  0
  -26.4500  -31.6638   25.0757 C   0  0  0  0  0  0
  -25.3752  -31.3700   26.1482 C   0  0  0  0  0  0
  -27.0337  -30.3107   24.6101 C   0  0  0  0  0  0
  -27.6127  -32.4324   25.7468 C   0  0  0  0  0  0
  -27.5585  -37.1805   24.8492 C   0  0  0  0  0  0
  -21.4140  -29.3031   22.3738 N   0  0  0  0  0  0
  -26.4297  -37.3808   23.9432 N   0  0  0  0  0  0
  -24.6651  -31.0851   22.1026 N   0  0  0  0  0  0
  -23.4186  -28.8226   23.3056 O   0  0  0  0  0  0
  -28.4395  -26.8044   20.0955 O   0  0  0  0  0  0
  -26.5538  -34.8951   22.4709 O   0  0  0  0  0  0
  -23.5350  -32.1440   23.7560 O   0  0  0  0  0  0
  -29.9931  -19.9860   20.7068 C   0  0  0  0  0  0
  -32.1044  -20.0836   18.9678 C   0  0  0  0  0  0
  -30.2467  -21.2001   20.0347 C   0  0  0  0  0  0
  -31.3205  -21.2414   19.1077 C   0  0  0  0  0  0
  -30.8389  -18.8841   20.4944 C   0  0  0  0  0  0
  -29.3785  -22.3863   20.3460 C   0  0  0  0  0  0
  -31.7929  -17.1857   21.9680 C   0  0  0  0  0  0
  -29.3307  -17.3312   21.6605 C   0  0  0  0  0  0
  -31.5309  -15.7723   22.5532 C   0  0  0  0  0  0
  -29.1930  -15.8280   21.9968 C   0  0  0  0  0  0
  -29.4478  -24.8144   20.9271 C   0  0  0  0  0  0
  -28.4850  -25.3988   19.8809 C   0  0  0  0  0  0
  -31.8826  -18.9376   19.6472 N   0  0  0  0  0  0
  -30.6629  -17.6656   21.1662 N   0  0  0  0  0  0
  -30.4555  -15.0787   21.8270 N   0  0  0  0  0  0
  -30.0266  -23.5453   20.5073 N   0  0  0  0  0  0
  -28.1663  -22.2604   20.5386 O   0  0  0  0  0  0
  -31.7134  -22.6290   18.1423 Cl  0  0  0  0  0  0
  -31.4611  -12.4251   19.0862 H   0  0  0  0  0  0
  -30.3490  -11.2748   19.7541 H   0  0  0  0  0  0
  -29.7236  -11.8629   17.3869 H   0  0  0  0  0  0
  -29.6465  -13.5507   17.8153 H   0  0  0  0  0  0
  -27.7944  -11.3344   18.7528 H   0  0  0  0  0  0
  -27.3612  -12.7219   17.7896 H   0  0  0  0  0  0
  -27.7321  -14.2497   19.6284 H   0  0  0  0  0  0
  -28.6823  -11.8244   21.2405 H   0  0  0  0  0  0
  -28.4613  -13.3712   21.9396 H   0  0  0  0  0  0
  -25.2786   -9.5685   22.4732 H   0  0  0  0  0  0
  -24.0038   -7.4637   22.7473 H   0  0  0  0  0  0
  -21.0846   -8.8809   19.8952 H   0  0  0  0  0  0
  -22.3752  -10.9685   19.6157 H   0  0  0  0  0  0
  -21.2008   -7.6158   23.9735 H   0  0  0  0  0  0
  -21.1473   -6.0516   25.9091 H   0  0  0  0  0  0
  -22.0594   -2.7616   23.2831 H   0  0  0  0  0  0
  -22.4135  -11.9942   22.4777 H   0  0  0  0  0  0
  -21.1136  -13.1294   22.2595 H   0  0  0  0  0  0
  -24.6556  -15.8369   20.4874 H   0  0  0  0  0  0
  -26.2766  -15.6263   20.0568 H   0  0  0  0  0  0
  -26.7120  -32.5572   23.1199 H   0  0  0  0  0  0
  -25.0205  -33.9791   25.0618 H   0  0  0  0  0  0
  -22.6937  -31.3163   21.4114 H   0  0  0  0  0  0
  -23.3763  -35.9582   23.3338 H   0  0  0  0  0  0
  -24.3578  -36.8839   22.2058 H   0  0  0  0  0  0
  -23.7148  -37.6492   23.6586 H   0  0  0  0  0  0
  -26.0384  -31.6081   20.5960 H   0  0  0  0  0  0
  -26.8197  -30.8974   21.9744 H   0  0  0  0  0  0
  -28.0904  -29.1329   21.1474 H   0  0  0  0  0  0
  -26.0467  -26.0048   18.9724 H   0  0  0  0  0  0
  -23.9736  -27.2916   19.0417 H   0  0  0  0  0  0
  -23.7203  -30.5929   19.4040 H   0  0  0  0  0  0
  -22.7328  -29.2380   19.8712 H   0  0  0  0  0  0
  -25.1256  -36.2038   25.0860 H   0  0  0  0  0  0
  -20.9977  -28.3181   24.1432 H   0  0  0  0  0  0
  -20.5611  -26.2260   23.3565 H   0  0  0  0  0  0
  -21.6637  -26.7422   22.1216 H   0  0  0  0  0  0
  -19.6882  -25.6301   21.1235 H   0  0  0  0  0  0
  -19.6711  -27.3177   20.6676 H   0  0  0  0  0  0
  -17.4192  -26.6717   21.4011 H   0  0  0  0  0  0
  -18.0355  -26.0097   22.9001 H   0  0  0  0  0  0
  -19.7937  -30.7268   24.2323 H   0  0  0  0  0  0
  -17.5019  -31.6293   24.5137 H   0  0  0  0  0  0
  -15.5355  -30.3005   23.7661 H   0  0  0  0  0  0
  -15.8676  -28.0828   22.7090 H   0  0  0  0  0  0
  -24.5957  -30.7031   25.7767 H   0  0  0  0  0  0
  -24.8919  -32.2841   26.4956 H   0  0  0  0  0  0
  -25.8132  -30.8852   27.0216 H   0  0  0  0  0  0
  -26.2882  -29.6853   24.1195 H   0  0  0  0  0  0
  -27.4166  -29.7359   25.4539 H   0  0  0  0  0  0
  -27.8683  -30.4491   23.9219 H   0  0  0  0  0  0
  -27.2844  -33.3626   26.2109 H   0  0  0  0  0  0
  -28.3904  -32.6874   25.0248 H   0  0  0  0  0  0
  -28.0827  -31.8395   26.5322 H   0  0  0  0  0  0
  -28.2646  -38.0062   24.7544 H   0  0  0  0  0  0
  -28.1039  -36.2618   24.6316 H   0  0  0  0  0  0
  -27.2318  -37.1451   25.8896 H   0  0  0  0  0  0
  -20.9307  -29.8742   21.6937 H   0  0  0  0  0  0
  -26.0215  -38.2899   24.1425 H   0  0  0  0  0  0
  -29.1710  -19.9417   21.4090 H   0  0  0  0  0  0
  -32.9393  -20.0724   18.2837 H   0  0  0  0  0  0
  -32.6858  -17.1438   21.3427 H   0  0  0  0  0  0
  -32.0142  -17.8978   22.7638 H   0  0  0  0  0  0
  -29.1229  -17.9301   22.5491 H   0  0  0  0  0  0
  -28.5801  -17.6019   20.9158 H   0  0  0  0  0  0
  -31.2304  -15.8566   23.5980 H   0  0  0  0  0  0
  -32.4531  -15.1878   22.5691 H   0  0  0  0  0  0
  -28.3904  -15.4483   21.3713 H   0  0  0  0  0  0
  -28.8519  -15.7094   23.0262 H   0  0  0  0  0  0
  -28.9434  -24.7088   21.8884 H   0  0  0  0  0  0
  -30.2770  -25.5029   21.0947 H   0  0  0  0  0  0
  -27.5247  -24.8921   19.9805 H   0  0  0  0  0  0
  -28.8573  -25.2258   18.8712 H   0  0  0  0  0  0
  -31.0215  -23.5281   20.3235 H   0  0  0  0  0  0
  1 25  1  0  0  0
  1 30  2  0  0  0
  1 85  1  0  0  0
  2  3  1  0  0  0
  2 25  1  0  0  0
  2 89  1  0  0  0
  2 90  1  0  0  0
  3  4  1  0  0  0
  3 91  1  0  0  0
  3 92  1  0  0  0
  4  5  1  0  0  0
  4 93  1  0  0  0
  4 94  1  0  0  0
  5  6  1  0  0  0
  5 26  1  0  0  0
  5 95  1  0  0  0
  6 25  1  0  0  0
  6 96  1  0  0  0
  6 97  1  0  0  0
  7  8  2  0  0  0
  7 26  1  0  0  0
  7 29  1  0  0  0
  8  9  1  0  0  0
  8 22  1  0  0  0
  9 10  1  0  0  0
  9 27  2  0  0  0
 10 11  2  0  0  0
 10 15  1  0  0  0
 11 12  1  0  0  0
 11 98  1  0  0  0
 12 13  2  0  0  0
 12 99  1  0  0  0
 13 14  1  0  0  0
 13 31  1  0  0  0
 14 15  2  0  0  0
 14100  1  0  0  0
 15101  1  0  0  0
 16 17  2  0  0  0
 16 21  1  0  0  0
 16 31  1  0  0  0
 17 18  1  0  0  0
 17102  1  0  0  0
 18 19  2  0  0  0
 18103  1  0  0  0
 19 20  1  0  0  0
 19 24  1  0  0  0
 20 21  2  0  0  0
 20104  1  0  0  0
 21 23  1  0  0  0
 22 28  1  0  0  0
 22 32  2  0  0  0
 26 27  1  0  0  0
 28105  1  0  0  0
 28106  1  0  0  0
 29107  1  0  0  0
 29108  1  0  0  0
 33 34  1  0  0  0
 33 66  1  0  0  0
 33 70  2  0  0  0
 34 36  1  0  0  0
 34 59  1  0  0  0
 34109  1  0  0  0
 35 44  2  0  0  0
 35 45  1  0  0  0
 35 68  1  0  0  0
 36 56  1  0  0  0
 36110  1  0  0  0
 37 39  1  0  0  0
 37 47  1  0  0  0
 37 66  1  0  0  0
 37111  1  0  0  0
 38 43  2  0  0  0
 38 46  1  0  0  0
 38 47  1  0  0  0
 39 64  1  0  0  0
 39 67  2  0  0  0
 40 52  1  0  0  0
 40 53  2  0  0  0
 40 58  1  0  0  0
 41112  1  0  0  0
 41113  1  0  0  0
 41114  1  0  0  0
 41 48  1  0  0  0
 42 43  1  0  0  0
 42 66  1  0  0  0
 42115  1  0  0  0
 42116  1  0  0  0
 43 44  1  0  0  0
 44117  1  0  0  0
 45 46  2  0  0  0
 45118  1  0  0  0
 46119  1  0  0  0
 47120  1  0  0  0
 47121  1  0  0  0
 48 56  1  0  0  0
 48 65  1  0  0  0
 48122  1  0  0  0
 49 50  1  0  0  0
 49 53  1  0  0  0
 49 64  1  0  0  0
 49123  1  0  0  0
 50 51  1  0  0  0
 50124  1  0  0  0
 50125  1  0  0  0
 51 52  1  0  0  0
 51126  1  0  0  0
 51127  1  0  0  0
 52128  1  0  0  0
 52129  1  0  0  0
 53 54  1  0  0  0
 54 55  2  0  0  0
 54130  1  0  0  0
 55 57  1  0  0  0
 55131  1  0  0  0
 56 69  2  0  0  0
 57 58  2  0  0  0
 57132  1  0  0  0
 58133  1  0  0  0
 59 60  1  0  0  0
 59 61  1  0  0  0
 59 62  1  0  0  0
 60134  1  0  0  0
 60135  1  0  0  0
 60136  1  0  0  0
 61137  1  0  0  0
 61138  1  0  0  0
 61139  1  0  0  0
 62140  1  0  0  0
 62141  1  0  0  0
 62142  1  0  0  0
 63 65  1  0  0  0
 63143  1  0  0  0
 63144  1  0  0  0
 63145  1  0  0  0
 64146  1  0  0  0
 65147  1  0  0  0
 68 82  1  0  0  0
 71 73  2  0  0  0
 71 75  1  0  0  0
 71148  1  0  0  0
 72 74  2  0  0  0
 72 83  1  0  0  0
 72149  1  0  0  0
 73 74  1  0  0  0
 73 76  1  0  0  0
 74 88  1  0  0  0
 75 83  2  0  0  0
 75 84  1  0  0  0
 76 86  1  0  0  0
 76 87  2  0  0  0
 77 79  1  0  0  0
 77 84  1  0  0  0
 77150  1  0  0  0
 77151  1  0  0  0
 78 80  1  0  0  0
 78 84  1  0  0  0
 78152  1  0  0  0
 78153  1  0  0  0
 79 85  1  0  0  0
 79154  1  0  0  0
 79155  1  0  0  0
 80 85  1  0  0  0
 80156  1  0  0  0
 80157  1  0  0  0
 81 82  1  0  0  0
 81 86  1  0  0  0
 81158  1  0  0  0
 81159  1  0  0  0
 82160  1  0  0  0
 82161  1  0  0  0
 86162  1  0  0  0
M  ISO  4   1 100  68 101  82 101  85 100
M  END
> <chiral flag>
0

> <version>
0

> <s_m_source_file>
/data/baiqing/PycharmProjects/Reinvent-master-3.2/result/LINK_invent/BTK/process_docking_weight1_custom_sum_contain_oxygen_bond_distance_aromatic_linkinvent_7_9_3/rearranged_h_0195.sdf

> <i_m_source_file_index>
16

> <r_mmod_Potential_Energy-OPLS-2005>
-127.478813171387

> <r_mmod_Stretch_Energy-OPLS-2005>
36.5541496276855

> <r_mmod_Bend_Energy-OPLS-2005>
118.780433654785

> <r_mmod_Torsional_Energy-OPLS-2005>
337.449157714844

> <r_mmod_Improper_Torsional_Energy-OPLS-2005>
11.757755279541

> <r_mmod_Van_der_Waal_Energy-OPLS-2005>
193.208129882812

> <r_mmod_Electrostatic_Energy-OPLS-2005>
-586.578186035156

> <r_mmod_Solvation_Energy-OPLS-2005>
-247.633102416992

> <b_mmod_Minimization_Converged-OPLS-2005>
0

> <r_mmod_RMS_Derivative-OPLS-2005>
3.62436008453369

$$$$
16
                    3D
 Structure written by MMmdl.
158168  0  0  1  0            999 V2000
  -30.6034  -14.8061   20.4482 C   0  0  0  0  0  0
  -30.4308  -12.4964   19.4784 C   0  0  0  0  0  0
  -29.5101  -12.5130   18.2388 C   0  0  0  0  0  0
  -28.0394  -12.3256   18.6574 C   0  0  0  0  0  0
  -27.6357  -13.2396   19.8452 C   0  0  2  0  0  0
  -28.6810  -13.2154   20.9800 C   0  0  0  0  0  0
  -25.2492  -13.8212   20.5724 C   0  0  0  0  0  0
  -24.1788  -13.0444   20.9207 C   0  0  0  0  0  0
  -24.6391  -11.6924   20.8745 C   0  0  0  0  0  0
  -23.9073  -10.4296   21.0404 C   0  0  0  0  0  0
  -24.3622   -9.4211   21.9183 C   0  0  0  0  0  0
  -23.6295   -8.2247   22.0756 C   0  0  0  0  0  0
  -22.4278   -8.0283   21.3545 C   0  0  0  0  0  0
  -21.9914   -9.0257   20.4647 C   0  0  0  0  0  0
  -22.7243  -10.2136   20.3055 C   0  0  0  0  0  0
  -21.6855   -6.0736   22.5279 C   0  0  0  0  0  0
  -21.4016   -6.5640   23.8212 C   0  0  0  0  0  0
  -21.3661   -5.6793   24.9174 C   0  0  0  0  0  0
  -21.6044   -4.3055   24.7224 C   0  0  0  0  0  0
  -21.8819   -3.8147   23.4345 C   0  0  0  0  0  0
  -21.9194   -4.6964   22.3402 C   0  0  0  0  0  0
  -22.7810  -13.5219   21.1869 C   0  0  0  0  0  0
  -22.1662   -4.2150   21.0979 F   0  0  0  0  0  0
  -21.5628   -3.4538   25.7736 F   0  0  0  0  0  0
  -29.9716  -13.5781   20.3845 N   0  0  0  0  0  0
  -26.2916  -12.9430   20.3285 N   0  0  0  0  0  0
  -25.9325  -11.6564   20.5752 N   0  0  0  0  0  0
  -22.0463  -12.8204   22.0424 N   0  0  0  0  0  0
  -25.4197  -15.1939   20.4194 N   0  0  0  0  0  0
  -31.8042  -14.8694   20.1658 O   0  0  0  0  0  0
  -21.6643   -6.8879   21.4241 O   0  0  0  0  0  0
  -22.3491  -14.5527   20.6719 O   0  0  0  0  0  0
  -24.6362  -31.8518   23.1964 C   0  0  0  0  0  0
  -25.9167  -32.4737   23.8324 C   0  0  1  0  0  0
  -27.2114  -27.2152   20.1428 C   0  0  0  0  0  0
  -25.5946  -33.8542   24.2241 N   0  0  0  0  0  0
  -23.4361  -30.4743   21.5404 C   0  0  2  0  0  0
  -24.8851  -28.9177   20.1096 C   0  0  0  0  0  0
  -22.7533  -29.4585   22.4892 C   0  0  0  0  0  0
  -18.0297  -28.1391   22.8481 C   0  0  0  0  0  0
  -24.1490  -36.7272   23.2642 C   0  0  0  0  0  0
  -25.9869  -30.7500   21.3859 C   0  0  0  0  0  0
  -26.0597  -29.3691   20.7268 C   0  0  0  0  0  0
  -27.2293  -28.5317   20.7309 C   0  0  0  0  0  0
  -26.0220  -26.8562   19.4734 C   0  0  0  0  0  0
  -24.8744  -27.6715   19.4678 C   0  0  0  0  0  0
  -23.6580  -29.8099   20.1569 C   0  0  0  0  0  0
  -25.4120  -36.3057   24.0322 C   0  0  1  0  0  0
  -20.5906  -28.3710   23.1251 C   0  0  2  0  0  0
  -20.6784  -26.9422   22.5404 C   0  0  0  0  0  0
  -19.5757  -26.6383   21.5210 C   0  0  0  0  0  0
  -18.1938  -26.7932   22.1621 C   0  0  0  0  0  0
  -19.1553  -28.8868   23.2859 C   0  0  0  0  0  0
  -18.9471  -30.1465   23.8884 C   0  0  0  0  0  0
  -17.6470  -30.6590   24.0560 C   0  0  0  0  0  0
  -25.9063  -34.9430   23.5084 C   0  0  0  0  0  0
  -16.5359  -29.9084   23.6336 C   0  0  0  0  0  0
  -16.7282  -28.6501   23.0360 C   0  0  0  0  0  0
  -26.4518  -31.6579   25.0735 C   0  0  0  0  0  0
  -25.3726  -31.3743   26.1444 C   0  0  0  0  0  0
  -27.0379  -30.2987   24.6269 C   0  0  0  0  0  0
  -27.6064  -32.4335   25.7508 C   0  0  0  0  0  0
  -27.5579  -37.1788   24.8464 C   0  0  0  0  0  0
  -21.4233  -29.3048   22.3634 N   0  0  0  0  0  0
  -26.4290  -37.3761   23.9411 N   0  0  0  0  0  0
  -24.7057  -31.0443   22.0966 N   0  0  0  0  0  0
  -23.4210  -28.8125   23.3009 O   0  0  0  0  0  0
  -28.2524  -26.2442   20.1869 O   0  0  0  0  0  0
  -26.5640  -34.8912   22.4657 O   0  0  0  0  0  0
  -23.5498  -32.1361   23.7223 O   0  0  0  0  0  0
  -28.3754  -22.6858   19.2657 C   0  0  0  0  0  0
  -28.6654  -21.2737   19.2252 C   0  0  0  0  0  0
  -28.5529  -23.4335   20.4650 C   0  0  0  0  0  0
  -29.1275  -20.5746   20.3834 C   0  0  0  0  0  0
  -31.5921  -18.5927   20.8369 C   0  0  0  0  0  0
  -31.3035  -18.4861   19.3353 C   0  0  0  0  0  0
  -29.8806  -16.9183   21.7279 C   0  0  0  0  0  0
  -29.4020  -16.7728   19.3567 C   0  0  0  0  0  0
  -30.1947  -18.4696   21.4615 C   0  0  2  0  0  0
  -29.7763  -18.3267   19.2892 C   0  0  1  0  0  0
  -27.8751  -24.8808   20.7564 C   0  0  0  0  0  0
  -29.0381  -22.7075   21.5331 N   0  0  0  0  0  0
  -29.3164  -21.3645   21.4930 N   0  0  0  0  0  0
  -29.3173  -19.1130   20.4559 N   0  0  0  0  0  0
  -29.8462  -15.9853   20.5535 N   0  0  0  0  0  0
  -31.4703  -12.6256   19.1726 H   0  0  0  0  0  0
  -30.3857  -11.5301   19.9833 H   0  0  0  0  0  0
  -29.8025  -11.7297   17.5383 H   0  0  0  0  0  0
  -29.6239  -13.4590   17.7070 H   0  0  0  0  0  0
  -27.9103  -11.2795   18.9380 H   0  0  0  0  0  0
  -27.3783  -12.4954   17.8067 H   0  0  0  0  0  0
  -27.6158  -14.2532   19.4449 H   0  0  0  0  0  0
  -28.7320  -12.2318   21.4487 H   0  0  0  0  0  0
  -28.4083  -13.9225   21.7653 H   0  0  0  0  0  0
  -25.2765   -9.5690   22.4758 H   0  0  0  0  0  0
  -24.0004   -7.4641   22.7477 H   0  0  0  0  0  0
  -21.0845   -8.8777   19.8952 H   0  0  0  0  0  0
  -22.3701  -10.9674   19.6164 H   0  0  0  0  0  0
  -21.2009   -7.6148   23.9715 H   0  0  0  0  0  0
  -21.1482   -6.0523   25.9077 H   0  0  0  0  0  0
  -22.0597   -2.7609   23.2846 H   0  0  0  0  0  0
  -22.4085  -11.9864   22.4805 H   0  0  0  0  0  0
  -21.1082  -13.1226   22.2639 H   0  0  0  0  0  0
  -24.6591  -15.8522   20.5483 H   0  0  0  0  0  0
  -26.2861  -15.6382   20.1438 H   0  0  0  0  0  0
  -26.7237  -32.5371   23.1064 H   0  0  0  0  0  0
  -25.0084  -33.9675   25.0382 H   0  0  0  0  0  0
  -22.7345  -31.2980   21.3929 H   0  0  0  0  0  0
  -23.3759  -35.9596   23.3292 H   0  0  0  0  0  0
  -24.3578  -36.8913   22.2059 H   0  0  0  0  0  0
  -23.7235  -37.6462   23.6682 H   0  0  0  0  0  0
  -26.1352  -31.5091   20.6166 H   0  0  0  0  0  0
  -26.8603  -30.7969   22.0245 H   0  0  0  0  0  0
  -28.1251  -28.8688   21.2337 H   0  0  0  0  0  0
  -25.9603  -25.9061   18.9622 H   0  0  0  0  0  0
  -23.9799  -27.3260   18.9677 H   0  0  0  0  0  0
  -23.7871  -30.5875   19.4031 H   0  0  0  0  0  0
  -22.7748  -29.2473   19.8488 H   0  0  0  0  0  0
  -25.1304  -36.1895   25.0813 H   0  0  0  0  0  0
  -20.9996  -28.3295   24.1372 H   0  0  0  0  0  0
  -20.5681  -26.2323   23.3616 H   0  0  0  0  0  0
  -21.6651  -26.7438   22.1199 H   0  0  0  0  0  0
  -19.6919  -25.6290   21.1250 H   0  0  0  0  0  0
  -19.6694  -27.3183   20.6732 H   0  0  0  0  0  0
  -17.4208  -26.6680   21.4024 H   0  0  0  0  0  0
  -18.0334  -26.0076   22.9018 H   0  0  0  0  0  0
  -19.7946  -30.7282   24.2250 H   0  0  0  0  0  0
  -17.5024  -31.6270   24.5162 H   0  0  0  0  0  0
  -15.5359  -30.2981   23.7671 H   0  0  0  0  0  0
  -15.8682  -28.0813   22.7090 H   0  0  0  0  0  0
  -24.5908  -30.7089   25.7765 H   0  0  0  0  0  0
  -24.8912  -32.2915   26.4846 H   0  0  0  0  0  0
  -25.8029  -30.8933   27.0237 H   0  0  0  0  0  0
  -26.2983  -29.6712   24.1284 H   0  0  0  0  0  0
  -27.4024  -29.7280   25.4821 H   0  0  0  0  0  0
  -27.8877  -30.4244   23.9559 H   0  0  0  0  0  0
  -27.2676  -33.3658   26.2039 H   0  0  0  0  0  0
  -28.3894  -32.6857   25.0345 H   0  0  0  0  0  0
  -28.0711  -31.8491   26.5458 H   0  0  0  0  0  0
  -28.2586  -38.0095   24.7524 H   0  0  0  0  0  0
  -28.1086  -36.2625   24.6276 H   0  0  0  0  0  0
  -27.2299  -37.1419   25.8868 H   0  0  0  0  0  0
  -20.9431  -29.8766   21.6827 H   0  0  0  0  0  0
  -26.0162  -38.2830   24.1421 H   0  0  0  0  0  0
  -27.9419  -23.1672   18.4017 H   0  0  0  0  0  0
  -28.4665  -20.7326   18.3133 H   0  0  0  0  0  0
  -32.0332  -19.5635   21.0683 H   0  0  0  0  0  0
  -32.2815  -17.8248   21.1910 H   0  0  0  0  0  0
  -31.8281  -17.6541   18.8633 H   0  0  0  0  0  0
  -31.6124  -19.4012   18.8278 H   0  0  0  0  0  0
  -28.9087  -16.8423   22.2168 H   0  0  0  0  0  0
  -30.5955  -16.5356   22.4588 H   0  0  0  0  0  0
  -29.7794  -16.2858   18.4551 H   0  0  0  0  0  0
  -28.3178  -16.6765   19.2961 H   0  0  0  0  0  0
  -30.1563  -19.0081   22.4103 H   0  0  0  0  0  0
  -29.3865  -18.7380   18.3575 H   0  0  0  0  0  0
  -27.9425  -25.0193   21.8358 H   0  0  0  0  0  0
  -26.8145  -24.6965   20.5960 H   0  0  0  0  0  0
  1 25  1  0  0  0
  1 30  2  0  0  0
  1 85  1  0  0  0
  2  3  1  0  0  0
  2 25  1  0  0  0
  2 86  1  0  0  0
  2 87  1  0  0  0
  3  4  1  0  0  0
  3 88  1  0  0  0
  3 89  1  0  0  0
  4  5  1  0  0  0
  4 90  1  0  0  0
  4 91  1  0  0  0
  5  6  1  0  0  0
  5 26  1  0  0  0
  5 92  1  0  0  0
  6 25  1  0  0  0
  6 93  1  0  0  0
  6 94  1  0  0  0
  7  8  2  0  0  0
  7 26  1  0  0  0
  7 29  1  0  0  0
  8  9  1  0  0  0
  8 22  1  0  0  0
  9 10  1  0  0  0
  9 27  2  0  0  0
 10 11  2  0  0  0
 10 15  1  0  0  0
 11 12  1  0  0  0
 11 95  1  0  0  0
 12 13  2  0  0  0
 12 96  1  0  0  0
 13 14  1  0  0  0
 13 31  1  0  0  0
 14 15  2  0  0  0
 14 97  1  0  0  0
 15 98  1  0  0  0
 16 17  2  0  0  0
 16 21  1  0  0  0
 16 31  1  0  0  0
 17 18  1  0  0  0
 17 99  1  0  0  0
 18 19  2  0  0  0
 18100  1  0  0  0
 19 20  1  0  0  0
 19 24  1  0  0  0
 20 21  2  0  0  0
 20101  1  0  0  0
 21 23  1  0  0  0
 22 28  1  0  0  0
 22 32  2  0  0  0
 26 27  1  0  0  0
 28102  1  0  0  0
 28103  1  0  0  0
 29104  1  0  0  0
 29105  1  0  0  0
 33 34  1  0  0  0
 33 66  1  0  0  0
 33 70  2  0  0  0
 34 36  1  0  0  0
 34 59  1  0  0  0
 34106  1  0  0  0
 35 44  2  0  0  0
 35 45  1  0  0  0
 35 68  1  0  0  0
 36 56  1  0  0  0
 36107  1  0  0  0
 37 39  1  0  0  0
 37 47  1  0  0  0
 37 66  1  0  0  0
 37108  1  0  0  0
 38 43  2  0  0  0
 38 46  1  0  0  0
 38 47  1  0  0  0
 39 64  1  0  0  0
 39 67  2  0  0  0
 40 52  1  0  0  0
 40 53  2  0  0  0
 40 58  1  0  0  0
 41109  1  0  0  0
 41110  1  0  0  0
 41111  1  0  0  0
 41 48  1  0  0  0
 42 43  1  0  0  0
 42 66  1  0  0  0
 42112  1  0  0  0
 42113  1  0  0  0
 43 44  1  0  0  0
 44114  1  0  0  0
 45 46  2  0  0  0
 45115  1  0  0  0
 46116  1  0  0  0
 47117  1  0  0  0
 47118  1  0  0  0
 48 56  1  0  0  0
 48 65  1  0  0  0
 48119  1  0  0  0
 49 50  1  0  0  0
 49 53  1  0  0  0
 49 64  1  0  0  0
 49120  1  0  0  0
 50 51  1  0  0  0
 50121  1  0  0  0
 50122  1  0  0  0
 51 52  1  0  0  0
 51123  1  0  0  0
 51124  1  0  0  0
 52125  1  0  0  0
 52126  1  0  0  0
 53 54  1  0  0  0
 54 55  2  0  0  0
 54127  1  0  0  0
 55 57  1  0  0  0
 55128  1  0  0  0
 56 69  2  0  0  0
 57 58  2  0  0  0
 57129  1  0  0  0
 58130  1  0  0  0
 59 60  1  0  0  0
 59 61  1  0  0  0
 59 62  1  0  0  0
 60131  1  0  0  0
 60132  1  0  0  0
 60133  1  0  0  0
 61134  1  0  0  0
 61135  1  0  0  0
 61136  1  0  0  0
 62137  1  0  0  0
 62138  1  0  0  0
 62139  1  0  0  0
 63 65  1  0  0  0
 63140  1  0  0  0
 63141  1  0  0  0
 63142  1  0  0  0
 64143  1  0  0  0
 65144  1  0  0  0
 68 81  1  0  0  0
 71 72  2  0  0  0
 71 73  1  0  0  0
 71145  1  0  0  0
 72 74  1  0  0  0
 72146  1  0  0  0
 73 81  1  0  0  0
 73 82  2  0  0  0
 74 83  2  0  0  0
 74 84  1  0  0  0
 75 76  1  0  0  0
 75147  1  0  0  0
 75148  1  0  0  0
 75 79  1  0  0  0
 76149  1  0  0  0
 76150  1  0  0  0
 76 80  1  0  0  0
 77 79  1  0  0  0
 77 85  1  0  0  0
 77151  1  0  0  0
 77152  1  0  0  0
 78 80  1  0  0  0
 78 85  1  0  0  0
 78153  1  0  0  0
 78154  1  0  0  0
 79 84  1  0  0  0
 79155  1  0  0  0
 80 84  1  0  0  0
 80156  1  0  0  0
 81157  1  0  0  0
 81158  1  0  0  0
 82 83  1  0  0  0
M  ISO  4   1 100  68 101  81 101  85 100
M  END
> <chiral flag>
0

> <version>
0

> <s_m_source_file>
/data/baiqing/PycharmProjects/Reinvent-master-3.2/result/LINK_invent/BTK/process_docking_weight1_custom_sum_contain_oxygen_bond_distance_aromatic_linkinvent_7_9_3/rearranged_h_0195.sdf

> <i_m_source_file_index>
17

> <r_mmod_Potential_Energy-OPLS-2005>
580.629577636719

> <r_mmod_Stretch_Energy-OPLS-2005>
148.032775878906

> <r_mmod_Bend_Energy-OPLS-2005>
257.898162841797

> <r_mmod_Torsional_Energy-OPLS-2005>
453.977325439453

> <r_mmod_Improper_Torsional_Energy-OPLS-2005>
16.4755992889404

> <r_mmod_Van_der_Waal_Energy-OPLS-2005>
139.346282958984

> <r_mmod_Electrostatic_Energy-OPLS-2005>
-326.7900390625

> <r_mmod_Solvation_Energy-OPLS-2005>
-229.191116333008

> <b_mmod_Minimization_Converged-OPLS-2005>
0

> <r_mmod_RMS_Derivative-OPLS-2005>
0.393647521734238

$$$$
17
                    3D
 Structure written by MMmdl.
155165  0  0  1  0            999 V2000
  -30.4895  -15.0661   20.3960 C   0  0  0  0  0  0
  -30.4429  -12.6601   19.5303 C   0  0  0  0  0  0
  -29.5378  -12.5581   18.2772 C   0  0  0  0  0  0
  -28.0702  -12.3264   18.6827 C   0  0  0  0  0  0
  -27.6281  -13.2609   19.8383 C   0  0  2  0  0  0
  -28.6632  -13.3248   20.9843 C   0  0  0  0  0  0
  -25.2449  -13.8229   20.5715 C   0  0  0  0  0  0
  -24.1775  -13.0441   20.9223 C   0  0  0  0  0  0
  -24.6405  -11.6927   20.8727 C   0  0  0  0  0  0
  -23.9091  -10.4292   21.0385 C   0  0  0  0  0  0
  -24.3637   -9.4209   21.9168 C   0  0  0  0  0  0
  -23.6310   -8.2243   22.0750 C   0  0  0  0  0  0
  -22.4291   -8.0277   21.3538 C   0  0  0  0  0  0
  -21.9922   -9.0252   20.4642 C   0  0  0  0  0  0
  -22.7258  -10.2129   20.3044 C   0  0  0  0  0  0
  -21.6857   -6.0737   22.5282 C   0  0  0  0  0  0
  -21.4011   -6.5640   23.8213 C   0  0  0  0  0  0
  -21.3662   -5.6791   24.9176 C   0  0  0  0  0  0
  -21.6048   -4.3053   24.7224 C   0  0  0  0  0  0
  -21.8820   -3.8146   23.4345 C   0  0  0  0  0  0
  -21.9193   -4.6965   22.3402 C   0  0  0  0  0  0
  -22.7793  -13.5209   21.1870 C   0  0  0  0  0  0
  -22.1663   -4.2145   21.0981 F   0  0  0  0  0  0
  -21.5636   -3.4543   25.7741 F   0  0  0  0  0  0
  -29.9334  -13.7728   20.3964 N   0  0  0  0  0  0
  -26.2879  -12.9485   20.3221 N   0  0  0  0  0  0
  -25.9341  -11.6598   20.5689 N   0  0  0  0  0  0
  -22.0437  -12.8199   22.0426 N   0  0  0  0  0  0
  -25.4116  -15.1963   20.4167 N   0  0  0  0  0  0
  -31.6701  -15.1352   20.0328 O   0  0  0  0  0  0
  -21.6647   -6.8880   21.4245 O   0  0  0  0  0  0
  -22.3477  -14.5508   20.6708 O   0  0  0  0  0  0
  -24.6509  -31.8344   23.1786 C   0  0  0  0  0  0
  -25.9254  -32.4638   23.8205 C   0  0  1  0  0  0
  -27.2278  -27.0542   20.1545 C   0  0  0  0  0  0
  -25.5966  -33.8443   24.2124 N   0  0  0  0  0  0
  -23.4589  -30.4477   21.5235 C   0  0  2  0  0  0
  -24.9136  -28.8563   20.0993 C   0  0  0  0  0  0
  -22.7601  -29.4495   22.4812 C   0  0  0  0  0  0
  -18.0308  -28.1407   22.8470 C   0  0  0  0  0  0
  -24.1492  -36.7226   23.2644 C   0  0  0  0  0  0
  -26.0178  -30.6784   21.3920 C   0  0  0  0  0  0
  -26.0872  -29.2812   20.7326 C   0  0  0  0  0  0
  -27.2351  -28.3923   20.7501 C   0  0  0  0  0  0
  -26.0343  -26.7517   19.4662 C   0  0  0  0  0  0
  -24.9051  -27.6089   19.4498 C   0  0  0  0  0  0
  -23.6907  -29.7668   20.1452 C   0  0  0  0  0  0
  -25.4128  -36.2992   24.0308 C   0  0  1  0  0  0
  -20.5922  -28.3742   23.1216 C   0  0  2  0  0  0
  -20.6784  -26.9438   22.5404 C   0  0  0  0  0  0
  -19.5763  -26.6383   21.5208 C   0  0  0  0  0  0
  -18.1944  -26.7943   22.1617 C   0  0  0  0  0  0
  -19.1567  -28.8894   23.2833 C   0  0  0  0  0  0
  -18.9480  -30.1487   23.8858 C   0  0  0  0  0  0
  -17.6479  -30.6601   24.0558 C   0  0  0  0  0  0
  -25.9085  -34.9375   23.5031 C   0  0  0  0  0  0
  -16.5369  -29.9090   23.6342 C   0  0  0  0  0  0
  -16.7293  -28.6512   23.0361 C   0  0  0  0  0  0
  -26.4541  -31.6544   25.0692 C   0  0  0  0  0  0
  -25.3703  -31.3779   26.1380 C   0  0  0  0  0  0
  -27.0410  -30.2917   24.6358 C   0  0  0  0  0  0
  -27.6061  -32.4323   25.7480 C   0  0  0  0  0  0
  -27.5577  -37.1769   24.8467 C   0  0  0  0  0  0
  -21.4287  -29.3043   22.3568 N   0  0  0  0  0  0
  -26.4280  -37.3723   23.9414 N   0  0  0  0  0  0
  -24.7289  -31.0116   22.0856 N   0  0  0  0  0  0
  -23.4207  -28.8074   23.3019 O   0  0  0  0  0  0
  -28.2574  -26.0318   20.3254 O   0  0  0  0  0  0
  -26.5676  -34.8897   22.4611 O   0  0  0  0  0  0
  -23.5614  -32.1267   23.6958 O   0  0  0  0  0  0
  -27.4493  -20.8757   19.9380 C   0  0  0  0  0  0
  -27.1466  -22.2206   19.7538 C   0  0  0  0  0  0
  -28.3169  -23.0071   20.0304 C   0  0  0  0  0  0
  -24.8842  -21.9186   18.4482 C   0  0  0  0  0  0
  -25.5891  -23.1062   17.8398 C   0  0  0  0  0  0
  -30.7336  -18.8057   20.5100 C   0  0  0  0  0  0
  -25.8169  -22.7590   19.2927 C   0  0  0  0  0  0
  -29.3244  -19.2291   20.8746 C   0  0  2  0  0  0
  -29.6954  -17.7632   20.0995 C   0  0  2  0  0  0
  -28.4841  -24.6433   19.5876 C   0  0  0  0  0  0
  -29.2783  -22.0071   20.3711 N   0  0  0  0  0  0
  -28.7686  -20.6455   20.2976 N   0  0  0  0  0  0
  -29.7027  -16.2561   20.6303 N   0  0  0  0  0  0
  -31.4765  -12.8251   19.2236 H   0  0  0  0  0  0
  -30.4500  -11.7180   20.0801 H   0  0  0  0  0  0
  -29.8819  -11.7543   17.6253 H   0  0  0  0  0  0
  -29.6168  -13.4786   17.6957 H   0  0  0  0  0  0
  -27.9746  -11.2863   18.9948 H   0  0  0  0  0  0
  -27.4137  -12.4483   17.8201 H   0  0  0  0  0  0
  -27.5794  -14.2568   19.3967 H   0  0  0  0  0  0
  -28.7705  -12.3558   21.4736 H   0  0  0  0  0  0
  -28.3362  -14.0247   21.7550 H   0  0  0  0  0  0
  -25.2774   -9.5701   22.4747 H   0  0  0  0  0  0
  -24.0024   -7.4644   22.7478 H   0  0  0  0  0  0
  -21.0850   -8.8779   19.8951 H   0  0  0  0  0  0
  -22.3711  -10.9671   19.6160 H   0  0  0  0  0  0
  -21.1997   -7.6147   23.9720 H   0  0  0  0  0  0
  -21.1488   -6.0516   25.9081 H   0  0  0  0  0  0
  -22.0594   -2.7607   23.2842 H   0  0  0  0  0  0
  -22.4055  -11.9884   22.4846 H   0  0  0  0  0  0
  -21.1049  -13.1221   22.2613 H   0  0  0  0  0  0
  -24.6424  -15.8478   20.5281 H   0  0  0  0  0  0
  -26.2552  -15.6357   20.0715 H   0  0  0  0  0  0
  -26.7319  -32.5208   23.0921 H   0  0  0  0  0  0
  -25.0090  -33.9530   25.0261 H   0  0  0  0  0  0
  -22.7658  -31.2756   21.3606 H   0  0  0  0  0  0
  -23.3763  -35.9547   23.3274 H   0  0  0  0  0  0
  -24.3584  -36.8897   22.2067 H   0  0  0  0  0  0
  -23.7241  -37.6407   23.6709 H   0  0  0  0  0  0
  -26.1862  -31.4294   20.6190 H   0  0  0  0  0  0
  -26.8821  -30.7291   22.0426 H   0  0  0  0  0  0
  -28.1194  -28.7032   21.2880 H   0  0  0  0  0  0
  -25.9334  -25.7906   18.9859 H   0  0  0  0  0  0
  -24.0093  -27.2791   18.9414 H   0  0  0  0  0  0
  -23.8300  -30.5372   19.3856 H   0  0  0  0  0  0
  -22.8041  -29.2104   19.8363 H   0  0  0  0  0  0
  -25.1323  -36.1789   25.0798 H   0  0  0  0  0  0
  -21.0011  -28.3341   24.1340 H   0  0  0  0  0  0
  -20.5660  -26.2366   23.3635 H   0  0  0  0  0  0
  -21.6652  -26.7426   22.1220 H   0  0  0  0  0  0
  -19.6927  -25.6279   21.1275 H   0  0  0  0  0  0
  -19.6707  -27.3158   20.6709 H   0  0  0  0  0  0
  -17.4217  -26.6686   21.4015 H   0  0  0  0  0  0
  -18.0351  -26.0092   22.9024 H   0  0  0  0  0  0
  -19.7956  -30.7311   24.2211 H   0  0  0  0  0  0
  -17.5034  -31.6278   24.5164 H   0  0  0  0  0  0
  -15.5369  -30.2982   23.7691 H   0  0  0  0  0  0
  -15.8693  -28.0823   22.7093 H   0  0  0  0  0  0
  -24.5882  -30.7126   25.7710 H   0  0  0  0  0  0
  -24.8893  -32.2975   26.4718 H   0  0  0  0  0  0
  -25.7963  -30.9011   27.0218 H   0  0  0  0  0  0
  -26.3049  -29.6619   24.1351 H   0  0  0  0  0  0
  -27.3956  -29.7253   25.4982 H   0  0  0  0  0  0
  -27.8988  -30.4110   23.9737 H   0  0  0  0  0  0
  -27.2653  -33.3659   26.1967 H   0  0  0  0  0  0
  -28.3913  -32.6826   25.0332 H   0  0  0  0  0  0
  -28.0684  -31.8508   26.5468 H   0  0  0  0  0  0
  -28.2572  -38.0085   24.7515 H   0  0  0  0  0  0
  -28.1083  -36.2609   24.6267 H   0  0  0  0  0  0
  -27.2300  -37.1393   25.8872 H   0  0  0  0  0  0
  -20.9525  -29.8733   21.6707 H   0  0  0  0  0  0
  -26.0128  -38.2784   24.1409 H   0  0  0  0  0  0
  -26.7853  -20.0258   19.8505 H   0  0  0  0  0  0
  -25.2116  -20.9309   18.1289 H   0  0  0  0  0  0
  -23.8163  -22.0123   18.6395 H   0  0  0  0  0  0
  -24.9806  -23.9808   17.6146 H   0  0  0  0  0  0
  -26.3966  -22.9060   17.1379 H   0  0  0  0  0  0
  -31.3914  -18.5571   21.3408 H   0  0  0  0  0  0
  -31.2229  -19.3521   19.7063 H   0  0  0  0  0  0
  -25.3507  -23.4034   20.0363 H   0  0  0  0  0  0
  -29.0504  -19.1623   21.9259 H   0  0  0  0  0  0
  -29.4352  -17.7953   19.0430 H   0  0  0  0  0  0
  -27.9502  -24.7559   18.6445 H   0  0  0  0  0  0
  -29.5239  -24.7367   19.2724 H   0  0  0  0  0  0
  -28.8113  -16.0094   21.0361 H   0  0  0  0  0  0
  1 25  1  0  0  0
  1 30  2  0  0  0
  1 83  1  0  0  0
  2  3  1  0  0  0
  2 25  1  0  0  0
  2 84  1  0  0  0
  2 85  1  0  0  0
  3  4  1  0  0  0
  3 86  1  0  0  0
  3 87  1  0  0  0
  4  5  1  0  0  0
  4 88  1  0  0  0
  4 89  1  0  0  0
  5  6  1  0  0  0
  5 26  1  0  0  0
  5 90  1  0  0  0
  6 25  1  0  0  0
  6 91  1  0  0  0
  6 92  1  0  0  0
  7  8  2  0  0  0
  7 26  1  0  0  0
  7 29  1  0  0  0
  8  9  1  0  0  0
  8 22  1  0  0  0
  9 10  1  0  0  0
  9 27  2  0  0  0
 10 11  2  0  0  0
 10 15  1  0  0  0
 11 12  1  0  0  0
 11 93  1  0  0  0
 12 13  2  0  0  0
 12 94  1  0  0  0
 13 14  1  0  0  0
 13 31  1  0  0  0
 14 15  2  0  0  0
 14 95  1  0  0  0
 15 96  1  0  0  0
 16 17  2  0  0  0
 16 21  1  0  0  0
 16 31  1  0  0  0
 17 18  1  0  0  0
 17 97  1  0  0  0
 18 19  2  0  0  0
 18 98  1  0  0  0
 19 20  1  0  0  0
 19 24  1  0  0  0
 20 21  2  0  0  0
 20 99  1  0  0  0
 21 23  1  0  0  0
 22 28  1  0  0  0
 22 32  2  0  0  0
 26 27  1  0  0  0
 28100  1  0  0  0
 28101  1  0  0  0
 29102  1  0  0  0
 29103  1  0  0  0
 33 34  1  0  0  0
 33 66  1  0  0  0
 33 70  2  0  0  0
 34 36  1  0  0  0
 34 59  1  0  0  0
 34104  1  0  0  0
 35 44  2  0  0  0
 35 45  1  0  0  0
 35 68  1  0  0  0
 36 56  1  0  0  0
 36105  1  0  0  0
 37 39  1  0  0  0
 37 47  1  0  0  0
 37 66  1  0  0  0
 37106  1  0  0  0
 38 43  2  0  0  0
 38 46  1  0  0  0
 38 47  1  0  0  0
 39 64  1  0  0  0
 39 67  2  0  0  0
 40 52  1  0  0  0
 40 53  2  0  0  0
 40 58  1  0  0  0
 41107  1  0  0  0
 41108  1  0  0  0
 41109  1  0  0  0
 41 48  1  0  0  0
 42 43  1  0  0  0
 42 66  1  0  0  0
 42110  1  0  0  0
 42111  1  0  0  0
 43 44  1  0  0  0
 44112  1  0  0  0
 45 46  2  0  0  0
 45113  1  0  0  0
 46114  1  0  0  0
 47115  1  0  0  0
 47116  1  0  0  0
 48 56  1  0  0  0
 48 65  1  0  0  0
 48117  1  0  0  0
 49 50  1  0  0  0
 49 53  1  0  0  0
 49 64  1  0  0  0
 49118  1  0  0  0
 50 51  1  0  0  0
 50119  1  0  0  0
 50120  1  0  0  0
 51 52  1  0  0  0
 51121  1  0  0  0
 51122  1  0  0  0
 52123  1  0  0  0
 52124  1  0  0  0
 53 54  1  0  0  0
 54 55  2  0  0  0
 54125  1  0  0  0
 55 57  1  0  0  0
 55126  1  0  0  0
 56 69  2  0  0  0
 57 58  2  0  0  0
 57127  1  0  0  0
 58128  1  0  0  0
 59 60  1  0  0  0
 59 61  1  0  0  0
 59 62  1  0  0  0
 60129  1  0  0  0
 60130  1  0  0  0
 60131  1  0  0  0
 61132  1  0  0  0
 61133  1  0  0  0
 61134  1  0  0  0
 62135  1  0  0  0
 62136  1  0  0  0
 62137  1  0  0  0
 63 65  1  0  0  0
 63138  1  0  0  0
 63139  1  0  0  0
 63140  1  0  0  0
 64141  1  0  0  0
 65142  1  0  0  0
 68 80  1  0  0  0
 71 72  2  0  0  0
 71 82  1  0  0  0
 71143  1  0  0  0
 72 73  1  0  0  0
 72 77  1  0  0  0
 73 80  1  0  0  0
 73 81  2  0  0  0
 74 75  1  0  0  0
 74 77  1  0  0  0
 74144  1  0  0  0
 74145  1  0  0  0
 75 77  1  0  0  0
 75146  1  0  0  0
 75147  1  0  0  0
 76 78  1  0  0  0
 76 79  1  0  0  0
 76148  1  0  0  0
 76149  1  0  0  0
 77150  1  0  0  0
 78 79  1  0  0  0
 78 82  1  0  0  0
 78151  1  0  0  0
 79 83  1  0  0  0
 79152  1  0  0  0
 80153  1  0  0  0
 80154  1  0  0  0
 81 82  1  0  0  0
 83155  1  0  0  0
M  ISO  4   1 100  68 101  80 101  83 100
M  END
> <chiral flag>
0

> <version>
0

> <s_m_source_file>
/data/baiqing/PycharmProjects/Reinvent-master-3.2/result/LINK_invent/BTK/process_docking_weight1_custom_sum_contain_oxygen_bond_distance_aromatic_linkinvent_7_9_3/rearranged_h_0195.sdf

> <i_m_source_file_index>
18

> <r_mmod_Potential_Energy-OPLS-2005>
905.953186035156

> <r_mmod_Stretch_Energy-OPLS-2005>
369.227600097656

> <r_mmod_Bend_Energy-OPLS-2005>
378.146057128906

> <r_mmod_Torsional_Energy-OPLS-2005>
334.4423828125

> <r_mmod_Improper_Torsional_Energy-OPLS-2005>
10.6624774932861

> <r_mmod_Van_der_Waal_Energy-OPLS-2005>
96.9526824951172

> <r_mmod_Electrostatic_Energy-OPLS-2005>
-326.464233398438

> <r_mmod_Solvation_Energy-OPLS-2005>
-240.533432006836

> <b_mmod_Minimization_Converged-OPLS-2005>
0

> <r_mmod_RMS_Derivative-OPLS-2005>
1.35957002639771

$$$$
18
                    3D
 Structure written by MMmdl.
172182  0  0  1  0            999 V2000
  -30.7475  -14.3373   20.7387 C   0  0  0  0  0  0
  -30.4436  -12.3034   19.3625 C   0  0  0  0  0  0
  -29.4861  -12.5536   18.1786 C   0  0  0  0  0  0
  -28.0054  -12.4122   18.5914 C   0  0  0  0  0  0
  -27.6830  -13.1685   19.9077 C   0  0  2  0  0  0
  -28.7290  -12.7588   20.9690 C   0  0  0  0  0  0
  -25.2727  -13.8039   20.5731 C   0  0  0  0  0  0
  -24.1910  -13.0385   20.9181 C   0  0  0  0  0  0
  -24.6402  -11.6824   20.8758 C   0  0  0  0  0  0
  -23.9044  -10.4243   21.0422 C   0  0  0  0  0  0
  -24.3581   -9.4148   21.9198 C   0  0  0  0  0  0
  -23.6237   -8.2200   22.0762 C   0  0  0  0  0  0
  -22.4229   -8.0252   21.3543 C   0  0  0  0  0  0
  -21.9874   -9.0238   20.4659 C   0  0  0  0  0  0
  -22.7217  -10.2108   20.3070 C   0  0  0  0  0  0
  -21.6828   -6.0701   22.5268 C   0  0  0  0  0  0
  -21.4013   -6.5620   23.8203 C   0  0  0  0  0  0
  -21.3658   -5.6783   24.9176 C   0  0  0  0  0  0
  -21.6039   -4.3043   24.7224 C   0  0  0  0  0  0
  -21.8813   -3.8124   23.4350 C   0  0  0  0  0  0
  -21.9180   -4.6934   22.3401 C   0  0  0  0  0  0
  -22.7930  -13.5222   21.1800 C   0  0  0  0  0  0
  -22.1638   -4.2118   21.0975 F   0  0  0  0  0  0
  -21.5637   -3.4533   25.7739 F   0  0  0  0  0  0
  -30.0593  -13.1800   20.4850 N   0  0  0  0  0  0
  -26.3152  -12.9138   20.3539 N   0  0  0  0  0  0
  -25.9321  -11.6333   20.5831 N   0  0  0  0  0  0
  -22.0532  -12.8278   22.0365 N   0  0  0  0  0  0
  -25.4553  -15.1747   20.4121 N   0  0  0  0  0  0
  -31.7171  -14.6648   20.0379 O   0  0  0  0  0  0
  -21.6601   -6.8844   21.4229 O   0  0  0  0  0  0
  -22.3651  -14.5516   20.6596 O   0  0  0  0  0  0
  -24.6122  -31.8740   23.2157 C   0  0  0  0  0  0
  -25.9050  -32.4819   23.8453 C   0  0  1  0  0  0
  -27.2263  -27.4759   20.1070 C   0  0  0  0  0  0
  -25.5965  -33.8619   24.2375 N   0  0  0  0  0  0
  -23.3956  -30.5006   21.5540 C   0  0  2  0  0  0
  -24.8406  -28.9765   20.1110 C   0  0  0  0  0  0
  -22.7383  -29.4718   22.4992 C   0  0  0  0  0  0
  -18.0270  -28.1324   22.8494 C   0  0  0  0  0  0
  -24.1505  -36.7296   23.2626 C   0  0  0  0  0  0
  -25.9189  -30.8538   21.3611 C   0  0  0  0  0  0
  -25.9954  -29.4892   20.7167 C   0  0  0  0  0  0
  -27.1936  -28.7443   20.7195 C   0  0  0  0  0  0
  -26.0706  -26.9885   19.4605 C   0  0  0  0  0  0
  -24.8719  -27.7224   19.4804 C   0  0  0  0  0  0
  -23.5972  -29.8330   20.1673 C   0  0  0  0  0  0
  -25.4123  -36.3100   24.0331 C   0  0  1  0  0  0
  -20.5846  -28.3715   23.1287 C   0  0  2  0  0  0
  -20.6774  -26.9441   22.5383 C   0  0  0  0  0  0
  -19.5713  -26.6201   21.5290 C   0  0  0  0  0  0
  -18.1931  -26.7800   22.1785 C   0  0  0  0  0  0
  -19.1505  -28.8848   23.2859 C   0  0  0  0  0  0
  -18.9401  -30.1464   23.8829 C   0  0  0  0  0  0
  -17.6401  -30.6570   24.0530 C   0  0  0  0  0  0
  -25.9053  -34.9459   23.5133 C   0  0  0  0  0  0
  -16.5323  -29.9032   23.6303 C   0  0  0  0  0  0
  -16.7256  -28.6446   23.0331 C   0  0  0  0  0  0
  -26.4467  -31.6552   25.0752 C   0  0  0  0  0  0
  -25.3714  -31.3642   26.1470 C   0  0  0  0  0  0
  -27.0200  -30.2970   24.6050 C   0  0  0  0  0  0
  -27.6047  -32.4201   25.7602 C   0  0  0  0  0  0
  -27.5579  -37.1793   24.8458 C   0  0  0  0  0  0
  -21.4109  -29.3115   22.3725 N   0  0  0  0  0  0
  -26.4304  -37.3784   23.9406 N   0  0  0  0  0  0
  -24.6604  -31.0895   22.1032 N   0  0  0  0  0  0
  -23.4160  -28.8215   23.2993 O   0  0  0  0  0  0
  -28.3753  -26.7225   20.0897 O   0  0  0  0  0  0
  -26.5586  -34.8904   22.4659 O   0  0  0  0  0  0
  -23.5332  -32.1514   23.7578 O   0  0  0  0  0  0
  -29.5673  -19.0874   22.7500 C   0  0  0  0  0  0
  -27.6326  -17.1696   23.1678 C   0  0  0  0  0  0
  -29.9229  -17.7405   22.5940 C   0  0  0  0  0  0
  -28.9233  -16.7681   22.7776 C   0  0  0  0  0  0
  -28.2301  -19.3988   23.0743 C   0  0  0  0  0  0
  -31.3205  -17.3181   22.1807 C   0  0  0  0  0  0
  -29.1868  -15.3082   22.4789 C   0  0  0  0  0  0
  -28.6092  -21.8930   23.5586 C   0  0  0  0  0  0
  -27.4026  -21.1077   21.4812 C   0  0  0  0  0  0
  -31.5646  -15.8338   22.5146 C   0  0  0  0  0  0
  -28.0098  -23.2890   23.3264 C   0  0  0  0  0  0
  -26.8822  -22.5322   21.2801 C   0  0  0  0  0  0
  -27.6952  -20.8111   22.9603 C   0  0  1  0  0  0
  -29.0914  -26.6607   22.4372 C   0  0  0  0  0  0
  -27.4093  -24.9275   21.5441 C   0  0  0  0  0  0
  -28.6095  -25.8596   21.2184 C   0  0  2  0  0  0
  -27.2890  -18.4609   23.3051 N   0  0  0  0  0  0
  -30.5126  -14.9921   21.9137 N   0  0  0  0  0  0
  -27.8099  -23.5357   21.8714 N   0  3  1  0  0  0
  -31.4781  -12.4512   19.0434 H   0  0  0  0  0  0
  -30.3982  -11.2574   19.6695 H   0  0  0  0  0  0
  -29.7094  -11.8578   17.3678 H   0  0  0  0  0  0
  -29.6572  -13.5534   17.7753 H   0  0  0  0  0  0
  -27.7863  -11.3491   18.7108 H   0  0  0  0  0  0
  -27.3597  -12.7682   17.7892 H   0  0  0  0  0  0
  -27.7783  -14.2365   19.7172 H   0  0  0  0  0  0
  -28.7157  -11.6704   21.0561 H   0  0  0  0  0  0
  -28.4726  -13.0388   21.9835 H   0  0  0  0  0  0
  -25.2731   -9.5591   22.4772 H   0  0  0  0  0  0
  -23.9909   -7.4586   22.7491 H   0  0  0  0  0  0
  -21.0796   -8.8777   19.8977 H   0  0  0  0  0  0
  -22.3684  -10.9646   19.6178 H   0  0  0  0  0  0
  -21.2017   -7.6130   23.9702 H   0  0  0  0  0  0
  -21.1485   -6.0517   25.9080 H   0  0  0  0  0  0
  -22.0595   -2.7579   23.2863 H   0  0  0  0  0  0
  -22.4085  -11.9973   22.4863 H   0  0  0  0  0  0
  -21.1148  -13.1368   22.2479 H   0  0  0  0  0  0
  -24.6989  -15.8412   20.5284 H   0  0  0  0  0  0
  -26.3056  -15.5971   20.0608 H   0  0  0  0  0  0
  -26.7136  -32.5550   23.1257 H   0  0  0  0  0  0
  -25.0179  -33.9828   25.0557 H   0  0  0  0  0  0
  -22.6829  -31.3152   21.4188 H   0  0  0  0  0  0
  -23.3755  -35.9637   23.3306 H   0  0  0  0  0  0
  -24.3601  -36.8882   22.2035 H   0  0  0  0  0  0
  -23.7255  -37.6505   23.6626 H   0  0  0  0  0  0
  -26.0129  -31.6169   20.5864 H   0  0  0  0  0  0
  -26.8166  -30.9144   21.9646 H   0  0  0  0  0  0
  -28.0833  -29.1403   21.1901 H   0  0  0  0  0  0
  -26.0927  -26.0403   18.9443 H   0  0  0  0  0  0
  -23.9895  -27.3291   18.9929 H   0  0  0  0  0  0
  -23.6843  -30.6106   19.4066 H   0  0  0  0  0  0
  -22.7231  -29.2447   19.8812 H   0  0  0  0  0  0
  -25.1277  -36.1975   25.0822 H   0  0  0  0  0  0
  -20.9911  -28.3309   24.1401 H   0  0  0  0  0  0
  -20.5822  -26.2337   23.3621 H   0  0  0  0  0  0
  -21.6611  -26.7550   22.1079 H   0  0  0  0  0  0
  -19.6917  -25.6022   21.1566 H   0  0  0  0  0  0
  -19.6595  -27.2817   20.6641 H   0  0  0  0  0  0
  -17.4114  -26.6391   21.4316 H   0  0  0  0  0  0
  -18.0439  -26.0086   22.9347 H   0  0  0  0  0  0
  -19.7870  -30.7327   24.2113 H   0  0  0  0  0  0
  -17.4947  -31.6267   24.5074 H   0  0  0  0  0  0
  -15.5328  -30.2935   23.7590 H   0  0  0  0  0  0
  -15.8668  -28.0727   22.7067 H   0  0  0  0  0  0
  -24.5871  -30.7063   25.7715 H   0  0  0  0  0  0
  -24.8971  -32.2797   26.5041 H   0  0  0  0  0  0
  -25.8044  -30.8668   27.0166 H   0  0  0  0  0  0
  -26.2674  -29.6812   24.1117 H   0  0  0  0  0  0
  -27.3926  -29.7124   25.4466 H   0  0  0  0  0  0
  -27.8567  -30.4193   23.9162 H   0  0  0  0  0  0
  -27.2686  -33.3504   26.2170 H   0  0  0  0  0  0
  -28.3966  -32.6713   25.0530 H   0  0  0  0  0  0
  -28.0559  -31.8291   26.5582 H   0  0  0  0  0  0
  -28.2605  -38.0078   24.7500 H   0  0  0  0  0  0
  -28.1064  -36.2609   24.6308 H   0  0  0  0  0  0
  -27.2280  -37.1462   25.8850 H   0  0  0  0  0  0
  -20.9280  -29.8881   21.6973 H   0  0  0  0  0  0
  -26.0199  -38.2868   24.1368 H   0  0  0  0  0  0
  -30.2994  -19.8580   22.5463 H   0  0  0  0  0  0
  -26.8436  -16.4449   23.3073 H   0  0  0  0  0  0
  -32.0648  -17.9506   22.6666 H   0  0  0  0  0  0
  -31.4258  -17.4799   21.1068 H   0  0  0  0  0  0
  -28.3970  -15.0969   21.7626 H   0  0  0  0  0  0
  -29.0150  -14.7203   23.3808 H   0  0  0  0  0  0
  -28.7447  -21.7145   24.6258 H   0  0  0  0  0  0
  -29.6006  -21.8615   23.1104 H   0  0  0  0  0  0
  -28.3016  -20.9527   20.8835 H   0  0  0  0  0  0
  -26.6688  -20.3954   21.1032 H   0  0  0  0  0  0
  -31.5448  -15.6952   23.5973 H   0  0  0  0  0  0
  -32.5671  -15.5382   22.2013 H   0  0  0  0  0  0
  -28.6705  -24.0337   23.7634 H   0  0  0  0  0  0
  -27.0572  -23.3776   23.8506 H   0  0  0  0  0  0
  -25.8877  -22.6365   21.7185 H   0  0  0  0  0  0
  -26.7676  -22.7043   20.2078 H   0  0  0  0  0  0
  -26.7515  -20.8464   23.5080 H   0  0  0  0  0  0
  -29.4594  -26.0074   23.2253 H   0  0  0  0  0  0
  -28.2933  -27.2647   22.8677 H   0  0  0  0  0  0
  -29.9118  -27.3231   22.1623 H   0  0  0  0  0  0
  -26.7980  -24.8552   20.6523 H   0  0  0  0  0  0
  -26.7521  -25.3473   22.3097 H   0  0  0  0  0  0
  -29.4426  -25.2342   20.8909 H   0  0  0  0  0  0
  -28.7023  -23.3926   21.4206 H   0  0  0  0  0  0
  1 25  1  0  0  0
  1 30  2  0  0  0
  1 88  1  0  0  0
  2  3  1  0  0  0
  2 25  1  0  0  0
  2 90  1  0  0  0
  2 91  1  0  0  0
  3  4  1  0  0  0
  3 92  1  0  0  0
  3 93  1  0  0  0
  4  5  1  0  0  0
  4 94  1  0  0  0
  4 95  1  0  0  0
  5  6  1  0  0  0
  5 26  1  0  0  0
  5 96  1  0  0  0
  6 25  1  0  0  0
  6 97  1  0  0  0
  6 98  1  0  0  0
  7  8  2  0  0  0
  7 26  1  0  0  0
  7 29  1  0  0  0
  8  9  1  0  0  0
  8 22  1  0  0  0
  9 10  1  0  0  0
  9 27  2  0  0  0
 10 11  2  0  0  0
 10 15  1  0  0  0
 11 12  1  0  0  0
 11 99  1  0  0  0
 12 13  2  0  0  0
 12100  1  0  0  0
 13 14  1  0  0  0
 13 31  1  0  0  0
 14 15  2  0  0  0
 14101  1  0  0  0
 15102  1  0  0  0
 16 17  2  0  0  0
 16 21  1  0  0  0
 16 31  1  0  0  0
 17 18  1  0  0  0
 17103  1  0  0  0
 18 19  2  0  0  0
 18104  1  0  0  0
 19 20  1  0  0  0
 19 24  1  0  0  0
 20 21  2  0  0  0
 20105  1  0  0  0
 21 23  1  0  0  0
 22 28  1  0  0  0
 22 32  2  0  0  0
 26 27  1  0  0  0
 28106  1  0  0  0
 28107  1  0  0  0
 29108  1  0  0  0
 29109  1  0  0  0
 33 34  1  0  0  0
 33 66  1  0  0  0
 33 70  2  0  0  0
 34 36  1  0  0  0
 34 59  1  0  0  0
 34110  1  0  0  0
 35 44  2  0  0  0
 35 45  1  0  0  0
 35 68  1  0  0  0
 36 56  1  0  0  0
 36111  1  0  0  0
 37 39  1  0  0  0
 37 47  1  0  0  0
 37 66  1  0  0  0
 37112  1  0  0  0
 38 43  2  0  0  0
 38 46  1  0  0  0
 38 47  1  0  0  0
 39 64  1  0  0  0
 39 67  2  0  0  0
 40 52  1  0  0  0
 40 53  2  0  0  0
 40 58  1  0  0  0
 41113  1  0  0  0
 41114  1  0  0  0
 41115  1  0  0  0
 41 48  1  0  0  0
 42 43  1  0  0  0
 42 66  1  0  0  0
 42116  1  0  0  0
 42117  1  0  0  0
 43 44  1  0  0  0
 44118  1  0  0  0
 45 46  2  0  0  0
 45119  1  0  0  0
 46120  1  0  0  0
 47121  1  0  0  0
 47122  1  0  0  0
 48 56  1  0  0  0
 48 65  1  0  0  0
 48123  1  0  0  0
 49 50  1  0  0  0
 49 53  1  0  0  0
 49 64  1  0  0  0
 49124  1  0  0  0
 50 51  1  0  0  0
 50125  1  0  0  0
 50126  1  0  0  0
 51 52  1  0  0  0
 51127  1  0  0  0
 51128  1  0  0  0
 52129  1  0  0  0
 52130  1  0  0  0
 53 54  1  0  0  0
 54 55  2  0  0  0
 54131  1  0  0  0
 55 57  1  0  0  0
 55132  1  0  0  0
 56 69  2  0  0  0
 57 58  2  0  0  0
 57133  1  0  0  0
 58134  1  0  0  0
 59 60  1  0  0  0
 59 61  1  0  0  0
 59 62  1  0  0  0
 60135  1  0  0  0
 60136  1  0  0  0
 60137  1  0  0  0
 61138  1  0  0  0
 61139  1  0  0  0
 61140  1  0  0  0
 62141  1  0  0  0
 62142  1  0  0  0
 62143  1  0  0  0
 63 65  1  0  0  0
 63144  1  0  0  0
 63145  1  0  0  0
 63146  1  0  0  0
 64147  1  0  0  0
 65148  1  0  0  0
 68 86  1  0  0  0
 71 73  2  0  0  0
 71 75  1  0  0  0
 71149  1  0  0  0
 72 74  2  0  0  0
 72 87  1  0  0  0
 72150  1  0  0  0
 73 74  1  0  0  0
 73 76  1  0  0  0
 74 77  1  0  0  0
 75 87  2  0  0  0
 75 83  1  0  0  0
 76 80  1  0  0  0
 76151  1  0  0  0
 76152  1  0  0  0
 77 88  1  0  0  0
 77153  1  0  0  0
 77154  1  0  0  0
 78 81  1  0  0  0
 78 83  1  0  0  0
 78155  1  0  0  0
 78156  1  0  0  0
 79 82  1  0  0  0
 79 83  1  0  0  0
 79157  1  0  0  0
 79158  1  0  0  0
 80 88  1  0  0  0
 80159  1  0  0  0
 80160  1  0  0  0
 81 89  1  0  0  0
 81161  1  0  0  0
 81162  1  0  0  0
 82 89  1  0  0  0
 82163  1  0  0  0
 82164  1  0  0  0
 83165  1  0  0  0
 84166  1  0  0  0
 84167  1  0  0  0
 84168  1  0  0  0
 84 86  1  0  0  0
 85 86  1  0  0  0
 85169  1  0  0  0
 85170  1  0  0  0
 85 89  1  0  0  0
 86171  1  0  0  0
 89172  1  0  0  0
M  CHG  1  89   1
M  ISO  4   1 100  68 101  86 101  88 100
M  END
> <chiral flag>
0

> <version>
0

> <s_m_source_file>
/data/baiqing/PycharmProjects/Reinvent-master-3.2/result/LINK_invent/BTK/process_docking_weight1_custom_sum_contain_oxygen_bond_distance_aromatic_linkinvent_7_9_3/rearranged_h_0195.sdf

> <i_m_source_file_index>
19

> <r_mmod_Potential_Energy-OPLS-2005>
-96.9697875976562

> <r_mmod_Stretch_Energy-OPLS-2005>
38.6868629455566

> <r_mmod_Bend_Energy-OPLS-2005>
120.946044921875

> <r_mmod_Torsional_Energy-OPLS-2005>
319.051544189453

> <r_mmod_Improper_Torsional_Energy-OPLS-2005>
7.97677278518677

> <r_mmod_Van_der_Waal_Energy-OPLS-2005>
188.686996459961

> <r_mmod_Electrostatic_Energy-OPLS-2005>
-361.707794189453

> <r_mmod_Solvation_Energy-OPLS-2005>
-423.886108398438

> <b_mmod_Minimization_Converged-OPLS-2005>
0

> <r_mmod_RMS_Derivative-OPLS-2005>
3.93379902839661

$$$$
19
                    3D
 Structure written by MMmdl.
178188  0  0  1  0            999 V2000
  -30.6533  -14.4811   20.6251 C   0  0  0  0  0  0
  -30.4503  -12.3459   19.3725 C   0  0  0  0  0  0
  -29.4995  -12.5835   18.1833 C   0  0  0  0  0  0
  -28.0259  -12.3872   18.5893 C   0  0  0  0  0  0
  -27.6842  -13.1458   19.8982 C   0  0  2  0  0  0
  -28.7402  -12.8728   20.9928 C   0  0  0  0  0  0
  -25.2778  -13.7887   20.5787 C   0  0  0  0  0  0
  -24.1928  -13.0328   20.9138 C   0  0  0  0  0  0
  -24.6358  -11.6728   20.8742 C   0  0  0  0  0  0
  -23.8962  -10.4206   21.0431 C   0  0  0  0  0  0
  -24.3500   -9.4141   21.9246 C   0  0  0  0  0  0
  -23.6164   -8.2225   22.0826 C   0  0  0  0  0  0
  -22.4159   -8.0294   21.3585 C   0  0  0  0  0  0
  -21.9779   -9.0253   20.4684 C   0  0  0  0  0  0
  -22.7121  -10.2121   20.3065 C   0  0  0  0  0  0
  -21.6826   -6.0693   22.5300 C   0  0  0  0  0  0
  -21.3992   -6.5605   23.8224 C   0  0  0  0  0  0
  -21.3640   -5.6771   24.9195 C   0  0  0  0  0  0
  -21.5993   -4.3030   24.7225 C   0  0  0  0  0  0
  -21.8839   -3.8117   23.4359 C   0  0  0  0  0  0
  -21.9201   -4.6933   22.3414 C   0  0  0  0  0  0
  -22.7963  -13.5269   21.1762 C   0  0  0  0  0  0
  -22.1733   -4.2152   21.0981 F   0  0  0  0  0  0
  -21.5564   -3.4536   25.7723 F   0  0  0  0  0  0
  -30.0509  -13.2689   20.4485 N   0  0  0  0  0  0
  -26.3172  -12.8955   20.3553 N   0  0  0  0  0  0
  -25.9322  -11.6170   20.5918 N   0  0  0  0  0  0
  -22.0419  -12.8381   22.0208 N   0  0  0  0  0  0
  -25.4601  -15.1582   20.4244 N   0  0  0  0  0  0
  -31.7889  -14.7231   20.2015 O   0  0  0  0  0  0
  -21.6545   -6.8863   21.4265 O   0  0  0  0  0  0
  -22.3828  -14.5694   20.6655 O   0  0  0  0  0  0
  -24.5991  -31.8765   23.2204 C   0  0  0  0  0  0
  -25.8905  -32.4889   23.8457 C   0  0  1  0  0  0
  -27.2570  -27.5253   20.0898 C   0  0  0  0  0  0
  -25.5817  -33.8674   24.2384 N   0  0  0  0  0  0
  -23.3833  -30.4946   21.5621 C   0  0  2  0  0  0
  -24.8317  -28.9719   20.1200 C   0  0  0  0  0  0
  -22.7301  -29.4635   22.5076 C   0  0  0  0  0  0
  -18.0229  -28.1340   22.8540 C   0  0  0  0  0  0
  -24.1458  -36.7309   23.2653 C   0  0  0  0  0  0
  -25.8990  -30.8650   21.3649 C   0  0  0  0  0  0
  -25.9767  -29.5054   20.7175 C   0  0  0  0  0  0
  -27.1814  -28.7875   20.7187 C   0  0  0  0  0  0
  -26.0909  -26.9878   19.4964 C   0  0  0  0  0  0
  -24.8786  -27.7015   19.5128 C   0  0  0  0  0  0
  -23.5856  -29.8264   20.1749 C   0  0  0  0  0  0
  -25.4095  -36.3138   24.0376 C   0  0  1  0  0  0
  -20.5808  -28.3594   23.1386 C   0  0  2  0  0  0
  -20.6681  -26.9345   22.5452 C   0  0  0  0  0  0
  -19.5669  -26.6357   21.5235 C   0  0  0  0  0  0
  -18.1851  -26.7915   22.1640 C   0  0  0  0  0  0
  -19.1483  -28.8800   23.2938 C   0  0  0  0  0  0
  -18.9401  -30.1436   23.8908 C   0  0  0  0  0  0
  -17.6406  -30.6588   24.0582 C   0  0  0  0  0  0
  -25.9026  -34.9492   23.5181 C   0  0  0  0  0  0
  -16.5312  -29.9078   23.6364 C   0  0  0  0  0  0
  -16.7231  -28.6490   23.0398 C   0  0  0  0  0  0
  -26.4367  -31.6671   25.0764 C   0  0  0  0  0  0
  -25.3668  -31.3700   26.1529 C   0  0  0  0  0  0
  -27.0218  -30.3131   24.6117 C   0  0  0  0  0  0
  -27.5946  -32.4379   25.7543 C   0  0  0  0  0  0
  -27.5609  -37.1792   24.8452 C   0  0  0  0  0  0
  -21.4036  -29.2978   22.3827 N   0  0  0  0  0  0
  -26.4294  -37.3823   23.9450 N   0  0  0  0  0  0
  -24.6445  -31.0916   22.1074 N   0  0  0  0  0  0
  -23.4109  -28.8181   23.3070 O   0  0  0  0  0  0
  -28.4150  -26.7945   20.0044 O   0  0  0  0  0  0
  -26.5585  -34.8963   22.4744 O   0  0  0  0  0  0
  -23.5199  -32.1493   23.7632 O   0  0  0  0  0  0
  -32.3399  -20.2292   24.2223 C   0  0  0  0  0  0
  -28.8692  -17.2452   21.4521 C   0  0  0  0  0  0
  -30.8528  -23.6536   22.0470 C   0  0  0  0  0  0
  -33.0152  -23.7019   20.6039 C   0  0  0  0  0  0
  -32.4509  -18.7153   23.9504 C   0  0  0  0  0  0
  -29.2446  -16.4640   20.2066 C   0  0  0  0  0  0
  -31.2946  -19.6090   22.1526 C   0  0  0  0  0  0
  -30.6551  -25.0980   21.5434 C   0  0  0  0  0  0
  -32.5446  -25.0683   20.0135 C   0  0  0  0  0  0
  -31.6768  -20.8485   22.9760 C   0  0  2  0  0  0
  -31.9491  -22.8214   21.3312 C   0  0  1  0  0  0
  -30.0273  -16.5159   22.1476 C   0  0  2  0  0  0
  -31.4365  -17.1705   22.2573 C   0  0  0  0  0  0
  -30.7489  -26.6814   19.5817 C   0  0  0  0  0  0
  -29.6447  -27.4598   20.3065 C   0  0  0  0  0  0
  -29.8330  -15.4511   21.1096 N   0  0  0  0  0  0
  -31.3462  -18.4323   23.0293 N   0  0  0  0  0  0
  -31.0870  -25.3286   20.1376 N   0  3  2  0  0  0
  -32.5739  -21.7724   22.2116 N   0  3  0  0  0  0
  -31.4814  -12.5092   19.0524 H   0  0  0  0  0  0
  -30.3963  -11.3057   19.6939 H   0  0  0  0  0  0
  -29.7576  -11.9236   17.3525 H   0  0  0  0  0  0
  -29.6365  -13.6070   17.8234 H   0  0  0  0  0  0
  -27.8299  -11.3164   18.6859 H   0  0  0  0  0  0
  -27.3748  -12.7426   17.7890 H   0  0  0  0  0  0
  -27.7489  -14.1940   19.6510 H   0  0  0  0  0  0
  -28.7704  -11.8041   21.2252 H   0  0  0  0  0  0
  -28.5032  -13.3774   21.9298 H   0  0  0  0  0  0
  -25.2652   -9.5630   22.4794 H   0  0  0  0  0  0
  -23.9856   -7.4604   22.7530 H   0  0  0  0  0  0
  -21.0707   -8.8717   19.8980 H   0  0  0  0  0  0
  -22.3581  -10.9623   19.6151 H   0  0  0  0  0  0
  -21.2001   -7.6119   23.9747 H   0  0  0  0  0  0
  -21.1422   -6.0479   25.9086 H   0  0  0  0  0  0
  -22.0580   -2.7584   23.2852 H   0  0  0  0  0  0
  -22.3953  -12.0089   22.4732 H   0  0  0  0  0  0
  -21.1071  -13.1587   22.2356 H   0  0  0  0  0  0
  -24.6787  -15.7951   20.5180 H   0  0  0  0  0  0
  -26.3340  -15.5962   20.1652 H   0  0  0  0  0  0
  -26.6974  -32.5620   23.1239 H   0  0  0  0  0  0
  -24.9985  -33.9868   25.0539 H   0  0  0  0  0  0
  -22.6701  -31.3109   21.4324 H   0  0  0  0  0  0
  -23.3790  -35.9555   23.3192 H   0  0  0  0  0  0
  -24.3590  -36.9032   22.2091 H   0  0  0  0  0  0
  -23.7102  -37.6444   23.6734 H   0  0  0  0  0  0
  -26.0039  -31.6321   20.5980 H   0  0  0  0  0  0
  -26.7867  -30.9170   21.9805 H   0  0  0  0  0  0
  -28.0371  -29.2396   21.2001 H   0  0  0  0  0  0
  -26.1307  -26.0268   19.0057 H   0  0  0  0  0  0
  -23.9925  -27.2834   19.0503 H   0  0  0  0  0  0
  -23.6814  -30.6101   19.4220 H   0  0  0  0  0  0
  -22.7112  -29.2417   19.8806 H   0  0  0  0  0  0
  -25.1252  -36.2025   25.0877 H   0  0  0  0  0  0
  -20.9905  -28.3149   24.1507 H   0  0  0  0  0  0
  -20.5582  -26.2186   23.3617 H   0  0  0  0  0  0
  -21.6546  -26.7347   22.1288 H   0  0  0  0  0  0
  -19.6785  -25.6267   21.1254 H   0  0  0  0  0  0
  -19.6639  -27.3185   20.6793 H   0  0  0  0  0  0
  -17.4126  -26.6754   21.4015 H   0  0  0  0  0  0
  -18.0183  -26.0046   22.9018 H   0  0  0  0  0  0
  -19.7862  -30.7287   24.2264 H   0  0  0  0  0  0
  -17.4949  -31.6274   24.5145 H   0  0  0  0  0  0
  -15.5322  -30.2970   23.7676 H   0  0  0  0  0  0
  -15.8624  -28.0826   22.7085 H   0  0  0  0  0  0
  -24.5921  -30.6951   25.7882 H   0  0  0  0  0  0
  -24.8768  -32.2803   26.4981 H   0  0  0  0  0  0
  -25.8106  -30.8934   27.0278 H   0  0  0  0  0  0
  -26.2781  -29.6952   24.1088 H   0  0  0  0  0  0
  -27.3869  -29.7332   25.4603 H   0  0  0  0  0  0
  -27.8653  -30.4464   23.9345 H   0  0  0  0  0  0
  -27.2584  -33.3712   26.2065 H   0  0  0  0  0  0
  -28.3814  -32.6868   25.0418 H   0  0  0  0  0  0
  -28.0520  -31.8521   26.5520 H   0  0  0  0  0  0
  -28.2511  -38.0196   24.7696 H   0  0  0  0  0  0
  -28.1229  -36.2752   24.6050 H   0  0  0  0  0  0
  -27.2357  -37.1175   25.8850 H   0  0  0  0  0  0
  -20.9161  -29.8765   21.7150 H   0  0  0  0  0  0
  -26.0174  -38.2876   24.1576 H   0  0  0  0  0  0
  -33.3031  -20.6772   24.4802 H   0  0  0  0  0  0
  -31.6937  -20.3948   25.0876 H   0  0  0  0  0  0
  -27.8914  -16.9704   21.8537 H   0  0  0  0  0  0
  -28.9253  -18.3226   21.3320 H   0  0  0  0  0  0
  -29.9010  -23.1259   21.9260 H   0  0  0  0  0  0
  -31.0204  -23.6991   23.1256 H   0  0  0  0  0  0
  -33.8666  -23.8907   21.2598 H   0  0  0  0  0  0
  -33.4167  -23.1154   19.7769 H   0  0  0  0  0  0
  -32.3776  -18.1303   24.8730 H   0  0  0  0  0  0
  -33.4129  -18.4870   23.4903 H   0  0  0  0  0  0
  -29.9555  -16.9571   19.5394 H   0  0  0  0  0  0
  -28.3539  -16.1783   19.6492 H   0  0  0  0  0  0
  -32.0326  -19.4773   21.3635 H   0  0  0  0  0  0
  -30.3200  -19.7509   21.6963 H   0  0  0  0  0  0
  -31.2183  -25.7894   22.1730 H   0  0  0  0  0  0
  -29.5991  -25.3323   21.6744 H   0  0  0  0  0  0
  -32.8534  -25.1822   18.9690 H   0  0  0  0  0  0
  -33.0640  -25.8729   20.5458 H   0  0  0  0  0  0
  -30.7769  -21.3702   23.3109 H   0  0  0  0  0  0
  -31.4394  -22.2822   20.5313 H   0  0  0  0  0  0
  -29.6905  -16.1646   23.1249 H   0  0  0  0  0  0
  -31.8627  -17.3552   21.2675 H   0  0  0  0  0  0
  -32.1301  -16.4716   22.7393 H   0  0  0  0  0  0
  -31.6308  -27.3201   19.5890 H   0  0  0  0  0  0
  -30.4661  -26.5856   18.5306 H   0  0  0  0  0  0
  -29.6741  -28.4863   19.9384 H   0  0  0  0  0  0
  -29.8097  -27.5363   21.3830 H   0  0  0  0  0  0
  -30.5869  -24.6663   19.5563 H   0  0  0  0  0  0
  -33.1677  -21.1934   21.6379 H   0  0  0  0  0  0
  -33.1736  -22.2383   22.8732 H   0  0  0  0  0  0
  1 25  1  0  0  0
  1 30  2  0  0  0
  1 86  1  0  0  0
  2  3  1  0  0  0
  2 25  1  0  0  0
  2 90  1  0  0  0
  2 91  1  0  0  0
  3  4  1  0  0  0
  3 92  1  0  0  0
  3 93  1  0  0  0
  4  5  1  0  0  0
  4 94  1  0  0  0
  4 95  1  0  0  0
  5  6  1  0  0  0
  5 26  1  0  0  0
  5 96  1  0  0  0
  6 25  1  0  0  0
  6 97  1  0  0  0
  6 98  1  0  0  0
  7  8  2  0  0  0
  7 26  1  0  0  0
  7 29  1  0  0  0
  8  9  1  0  0  0
  8 22  1  0  0  0
  9 10  1  0  0  0
  9 27  2  0  0  0
 10 11  2  0  0  0
 10 15  1  0  0  0
 11 12  1  0  0  0
 11 99  1  0  0  0
 12 13  2  0  0  0
 12100  1  0  0  0
 13 14  1  0  0  0
 13 31  1  0  0  0
 14 15  2  0  0  0
 14101  1  0  0  0
 15102  1  0  0  0
 16 17  2  0  0  0
 16 21  1  0  0  0
 16 31  1  0  0  0
 17 18  1  0  0  0
 17103  1  0  0  0
 18 19  2  0  0  0
 18104  1  0  0  0
 19 20  1  0  0  0
 19 24  1  0  0  0
 20 21  2  0  0  0
 20105  1  0  0  0
 21 23  1  0  0  0
 22 28  1  0  0  0
 22 32  2  0  0  0
 26 27  1  0  0  0
 28106  1  0  0  0
 28107  1  0  0  0
 29108  1  0  0  0
 29109  1  0  0  0
 33 34  1  0  0  0
 33 66  1  0  0  0
 33 70  2  0  0  0
 34 36  1  0  0  0
 34 59  1  0  0  0
 34110  1  0  0  0
 35 44  2  0  0  0
 35 45  1  0  0  0
 35 68  1  0  0  0
 36 56  1  0  0  0
 36111  1  0  0  0
 37 39  1  0  0  0
 37 47  1  0  0  0
 37 66  1  0  0  0
 37112  1  0  0  0
 38 43  2  0  0  0
 38 46  1  0  0  0
 38 47  1  0  0  0
 39 64  1  0  0  0
 39 67  2  0  0  0
 40 52  1  0  0  0
 40 53  2  0  0  0
 40 58  1  0  0  0
 41113  1  0  0  0
 41114  1  0  0  0
 41115  1  0  0  0
 41 48  1  0  0  0
 42 43  1  0  0  0
 42 66  1  0  0  0
 42116  1  0  0  0
 42117  1  0  0  0
 43 44  1  0  0  0
 44118  1  0  0  0
 45 46  2  0  0  0
 45119  1  0  0  0
 46120  1  0  0  0
 47121  1  0  0  0
 47122  1  0  0  0
 48 56  1  0  0  0
 48 65  1  0  0  0
 48123  1  0  0  0
 49 50  1  0  0  0
 49 53  1  0  0  0
 49 64  1  0  0  0
 49124  1  0  0  0
 50 51  1  0  0  0
 50125  1  0  0  0
 50126  1  0  0  0
 51 52  1  0  0  0
 51127  1  0  0  0
 51128  1  0  0  0
 52129  1  0  0  0
 52130  1  0  0  0
 53 54  1  0  0  0
 54 55  2  0  0  0
 54131  1  0  0  0
 55 57  1  0  0  0
 55132  1  0  0  0
 56 69  2  0  0  0
 57 58  2  0  0  0
 57133  1  0  0  0
 58134  1  0  0  0
 59 60  1  0  0  0
 59 61  1  0  0  0
 59 62  1  0  0  0
 60135  1  0  0  0
 60136  1  0  0  0
 60137  1  0  0  0
 61138  1  0  0  0
 61139  1  0  0  0
 61140  1  0  0  0
 62141  1  0  0  0
 62142  1  0  0  0
 62143  1  0  0  0
 63 65  1  0  0  0
 63144  1  0  0  0
 63145  1  0  0  0
 63146  1  0  0  0
 64147  1  0  0  0
 65148  1  0  0  0
 68 85  1  0  0  0
 71 75  1  0  0  0
 71 80  1  0  0  0
 71149  1  0  0  0
 71150  1  0  0  0
 72 76  1  0  0  0
 72 82  1  0  0  0
 72151  1  0  0  0
 72152  1  0  0  0
 73 78  1  0  0  0
 73 81  1  0  0  0
 73153  1  0  0  0
 73154  1  0  0  0
 74 79  1  0  0  0
 74 81  1  0  0  0
 74155  1  0  0  0
 74156  1  0  0  0
 75 87  1  0  0  0
 75157  1  0  0  0
 75158  1  0  0  0
 76 86  1  0  0  0
 76159  1  0  0  0
 76160  1  0  0  0
 77 80  1  0  0  0
 77 87  1  0  0  0
 77161  1  0  0  0
 77162  1  0  0  0
 78 88  1  0  0  0
 78163  1  0  0  0
 78164  1  0  0  0
 79 88  1  0  0  0
 79165  1  0  0  0
 79166  1  0  0  0
 80 89  1  0  0  0
 80167  1  0  0  0
 81 89  1  0  0  0
 81168  1  0  0  0
 82 83  1  0  0  0
 82 86  1  0  0  0
 82169  1  0  0  0
 83 87  1  0  0  0
 83170  1  0  0  0
 83171  1  0  0  0
 84 85  1  0  0  0
 84172  1  0  0  0
 84173  1  0  0  0
 84 88  1  0  0  0
 85174  1  0  0  0
 85175  1  0  0  0
 88176  1  0  0  0
 89177  1  0  0  0
 89178  1  0  0  0
M  CHG  2  88   1  89   1
M  ISO  4   1 100  68 101  85 101  86 100
M  END
> <chiral flag>
0

> <version>
0

> <s_m_source_file>
/data/baiqing/PycharmProjects/Reinvent-master-3.2/result/LINK_invent/BTK/process_docking_weight1_custom_sum_contain_oxygen_bond_distance_aromatic_linkinvent_7_9_3/rearranged_h_0195.sdf

> <i_m_source_file_index>
20

> <r_mmod_Potential_Energy-OPLS-2005>
29.1094264984131

> <r_mmod_Stretch_Energy-OPLS-2005>
49.3850173950195

> <r_mmod_Bend_Energy-OPLS-2005>
162.466903686523

> <r_mmod_Torsional_Energy-OPLS-2005>
449.559417724609

> <r_mmod_Improper_Torsional_Energy-OPLS-2005>
10.5814437866211

> <r_mmod_Van_der_Waal_Energy-OPLS-2005>
153.710250854492

> <r_mmod_Electrostatic_Energy-OPLS-2005>
136.14990234375

> <r_mmod_Solvation_Energy-OPLS-2005>
-948.190307617188

> <b_mmod_Minimization_Converged-OPLS-2005>
0

> <r_mmod_RMS_Derivative-OPLS-2005>
10.4330635070801

$$$$
20
                    3D
 Structure written by MMmdl.
170180  0  0  1  0            999 V2000
  -30.7035  -14.6745   20.4841 C   0  0  0  0  0  0
  -30.4127  -12.4234   19.4611 C   0  0  0  0  0  0
  -29.4922  -12.4850   18.2262 C   0  0  0  0  0  0
  -28.0220  -12.3015   18.6461 C   0  0  0  0  0  0
  -27.6350  -13.2030   19.8453 C   0  0  2  0  0  0
  -28.6895  -13.1425   20.9805 C   0  0  0  0  0  0
  -25.2480  -13.8110   20.5648 C   0  0  0  0  0  0
  -24.1781  -13.0402   20.9250 C   0  0  0  0  0  0
  -24.6349  -11.6871   20.8813 C   0  0  0  0  0  0
  -23.9029  -10.4264   21.0456 C   0  0  0  0  0  0
  -24.3589   -9.4173   21.9219 C   0  0  0  0  0  0
  -23.6272   -8.2203   22.0756 C   0  0  0  0  0  0
  -22.4255   -8.0261   21.3538 C   0  0  0  0  0  0
  -21.9898   -9.0237   20.4645 C   0  0  0  0  0  0
  -22.7216  -10.2121   20.3081 C   0  0  0  0  0  0
  -21.6836   -6.0719   22.5274 C   0  0  0  0  0  0
  -21.4006   -6.5629   23.8214 C   0  0  0  0  0  0
  -21.3662   -5.6782   24.9176 C   0  0  0  0  0  0
  -21.6051   -4.3046   24.7227 C   0  0  0  0  0  0
  -21.8821   -3.8137   23.4348 C   0  0  0  0  0  0
  -21.9187   -4.6950   22.3410 C   0  0  0  0  0  0
  -22.7809  -13.5215   21.1887 C   0  0  0  0  0  0
  -22.1653   -4.2141   21.0981 F   0  0  0  0  0  0
  -21.5643   -3.4538   25.7744 F   0  0  0  0  0  0
  -29.9832  -13.5014   20.3870 N   0  0  0  0  0  0
  -26.2890  -12.9268   20.3273 N   0  0  0  0  0  0
  -25.9262  -11.6449   20.5791 N   0  0  0  0  0  0
  -22.0427  -12.8223   22.0435 N   0  0  0  0  0  0
  -25.4101  -15.1818   20.3868 N   0  0  0  0  0  0
  -31.8985  -14.6426   20.1749 O   0  0  0  0  0  0
  -21.6618   -6.8859   21.4235 O   0  0  0  0  0  0
  -22.3527  -14.5529   20.6717 O   0  0  0  0  0  0
  -24.6238  -31.8585   23.2021 C   0  0  0  0  0  0
  -25.9088  -32.4767   23.8341 C   0  0  1  0  0  0
  -27.2242  -27.3274   20.1201 C   0  0  0  0  0  0
  -25.5910  -33.8570   24.2284 N   0  0  0  0  0  0
  -23.4160  -30.4811   21.5443 C   0  0  2  0  0  0
  -24.8615  -28.9308   20.1106 C   0  0  0  0  0  0
  -22.7444  -29.4614   22.4946 C   0  0  0  0  0  0
  -18.0274  -28.1381   22.8481 C   0  0  0  0  0  0
  -24.1490  -36.7299   23.2641 C   0  0  0  0  0  0
  -25.9532  -30.7919   21.3702 C   0  0  0  0  0  0
  -26.0257  -29.4186   20.7149 C   0  0  0  0  0  0
  -27.2068  -28.6256   20.7111 C   0  0  0  0  0  0
  -26.0369  -26.8783   19.5011 C   0  0  0  0  0  0
  -24.8679  -27.6664   19.4963 C   0  0  0  0  0  0
  -23.6297  -29.8109   20.1594 C   0  0  0  0  0  0
  -25.4120  -36.3080   24.0321 C   0  0  1  0  0  0
  -20.5870  -28.3674   23.1293 C   0  0  2  0  0  0
  -20.6766  -26.9405   22.5409 C   0  0  0  0  0  0
  -19.5747  -26.6383   21.5206 C   0  0  0  0  0  0
  -18.1928  -26.7927   22.1621 C   0  0  0  0  0  0
  -19.1528  -28.8844   23.2882 C   0  0  0  0  0  0
  -18.9453  -30.1453   23.8889 C   0  0  0  0  0  0
  -17.6457  -30.6585   24.0557 C   0  0  0  0  0  0
  -25.9032  -34.9442   23.5104 C   0  0  0  0  0  0
  -16.5344  -29.9086   23.6332 C   0  0  0  0  0  0
  -16.7263  -28.6506   23.0342 C   0  0  0  0  0  0
  -26.4493  -31.6571   25.0708 C   0  0  0  0  0  0
  -25.3745  -31.3718   26.1453 C   0  0  0  0  0  0
  -27.0327  -30.2987   24.6161 C   0  0  0  0  0  0
  -27.6044  -32.4312   25.7484 C   0  0  0  0  0  0
  -27.5563  -37.1835   24.8485 C   0  0  0  0  0  0
  -21.4157  -29.3033   22.3681 N   0  0  0  0  0  0
  -26.4322  -37.3750   23.9358 N   0  0  0  0  0  0
  -24.6827  -31.0605   22.0963 N   0  0  0  0  0  0
  -23.4176  -28.8159   23.3022 O   0  0  0  0  0  0
  -28.3714  -26.5330   20.1977 O   0  0  0  0  0  0
  -26.5597  -34.8900   22.4668 O   0  0  0  0  0  0
  -23.5410  -32.1386   23.7362 O   0  0  0  0  0  0
  -29.3083  -24.1939   23.0991 C   0  0  0  0  0  0
  -30.4929  -23.2495   22.9684 C   0  0  0  0  0  0
  -28.7476  -16.3623   20.4708 C   0  0  0  0  0  0
  -31.0723  -17.0896   20.8175 C   0  0  0  0  0  0
  -28.2862  -17.8069   20.9016 C   0  0  0  0  0  0
  -30.5442  -18.4761   21.3200 C   0  0  0  0  0  0
  -28.8638  -20.6093   22.5873 C   0  0  0  0  0  0
  -28.7279  -20.3135   21.0759 C   0  0  1  0  0  0
  -29.2904  -21.5594   20.2569 C   0  0  1  0  0  0
  -29.1868  -22.9275   22.2899 C   0  0  0  0  0  0
  -28.9138  -21.5193   18.7664 C   0  0  0  0  0  0
  -27.9739  -23.8857   20.3872 C   0  0  0  0  0  0
  -28.4712  -25.1847   19.6134 C   0  0  0  0  0  0
  -30.1361  -15.9235   20.7683 N   0  0  0  0  0  0
  -29.0362  -22.9251   20.8408 N   0  0  0  0  0  0
  -29.2655  -18.9165   20.6936 N   0  3  0  0  0  0
  -28.3786  -21.9173   22.8727 O   0  0  0  0  0  0
  -31.4527  -12.5156   19.1427 H   0  0  0  0  0  0
  -30.3445  -11.4484   19.9471 H   0  0  0  0  0  0
  -29.7749  -11.7173   17.5046 H   0  0  0  0  0  0
  -29.6168  -13.4438   17.7212 H   0  0  0  0  0  0
  -27.8807  -11.2529   18.9104 H   0  0  0  0  0  0
  -27.3609  -12.4895   17.7991 H   0  0  0  0  0  0
  -27.6154  -14.2038   19.4264 H   0  0  0  0  0  0
  -28.7335  -12.1385   21.4062 H   0  0  0  0  0  0
  -28.4388  -13.7930   21.8181 H   0  0  0  0  0  0
  -25.2722   -9.5658   22.4811 H   0  0  0  0  0  0
  -23.9989   -7.4590   22.7464 H   0  0  0  0  0  0
  -21.0838   -8.8757   19.8940 H   0  0  0  0  0  0
  -22.3677  -10.9677   19.6212 H   0  0  0  0  0  0
  -21.1984   -7.6137   23.9718 H   0  0  0  0  0  0
  -21.1489   -6.0510   25.9082 H   0  0  0  0  0  0
  -22.0598   -2.7601   23.2845 H   0  0  0  0  0  0
  -22.4003  -11.9887   22.4855 H   0  0  0  0  0  0
  -21.1053  -13.1287   22.2617 H   0  0  0  0  0  0
  -24.6043  -15.7966   20.4217 H   0  0  0  0  0  0
  -26.1807  -15.5716   19.8633 H   0  0  0  0  0  0
  -26.7138  -32.5429   23.1068 H   0  0  0  0  0  0
  -25.0059  -33.9717   25.0430 H   0  0  0  0  0  0
  -22.7097  -31.3006   21.3991 H   0  0  0  0  0  0
  -23.3697  -35.9702   23.3443 H   0  0  0  0  0  0
  -24.3536  -36.8784   22.2028 H   0  0  0  0  0  0
  -23.7336  -37.6582   23.6572 H   0  0  0  0  0  0
  -26.0815  -31.5555   20.6017 H   0  0  0  0  0  0
  -26.8344  -30.8431   21.9982 H   0  0  0  0  0  0
  -28.1027  -28.9948   21.1908 H   0  0  0  0  0  0
  -25.9821  -25.9039   19.0393 H   0  0  0  0  0  0
  -23.9711  -27.2873   19.0246 H   0  0  0  0  0  0
  -23.7448  -30.5844   19.3995 H   0  0  0  0  0  0
  -22.7511  -29.2368   19.8604 H   0  0  0  0  0  0
  -25.1323  -36.1963   25.0822 H   0  0  0  0  0  0
  -20.9956  -28.3250   24.1417 H   0  0  0  0  0  0
  -20.5661  -26.2282   23.3599 H   0  0  0  0  0  0
  -21.6632  -26.7439   22.1204 H   0  0  0  0  0  0
  -19.6900  -25.6292   21.1241 H   0  0  0  0  0  0
  -19.6699  -27.3180   20.6730 H   0  0  0  0  0  0
  -17.4197  -26.6662   21.4034 H   0  0  0  0  0  0
  -18.0340  -26.0074   22.9025 H   0  0  0  0  0  0
  -19.7929  -30.7264   24.2259 H   0  0  0  0  0  0
  -17.5012  -31.6257   24.5154 H   0  0  0  0  0  0
  -15.5345  -30.2978   23.7659 H   0  0  0  0  0  0
  -15.8668  -28.0815   22.7067 H   0  0  0  0  0  0
  -24.5906  -30.7075   25.7805 H   0  0  0  0  0  0
  -24.8947  -32.2888   26.4872 H   0  0  0  0  0  0
  -25.8087  -30.8908   27.0224 H   0  0  0  0  0  0
  -26.2894  -29.6738   24.1197 H   0  0  0  0  0  0
  -27.4030  -29.7249   25.4664 H   0  0  0  0  0  0
  -27.8760  -30.4260   23.9374 H   0  0  0  0  0  0
  -27.2634  -33.3608   26.2053 H   0  0  0  0  0  0
  -28.3859  -32.6884   25.0322 H   0  0  0  0  0  0
  -28.0696  -31.8442   26.5415 H   0  0  0  0  0  0
  -28.2690  -38.0014   24.7343 H   0  0  0  0  0  0
  -28.0956  -36.2541   24.6580 H   0  0  0  0  0  0
  -27.2242  -37.1803   25.8881 H   0  0  0  0  0  0
  -20.9319  -29.8761   21.6900 H   0  0  0  0  0  0
  -26.0225  -38.2861   24.1243 H   0  0  0  0  0  0
  -29.3732  -25.1436   22.5712 H   0  0  0  0  0  0
  -28.7968  -24.2305   24.0607 H   0  0  0  0  0  0
  -30.7741  -22.6786   23.8511 H   0  0  0  0  0  0
  -31.3221  -23.5796   22.3457 H   0  0  0  0  0  0
  -28.6020  -16.2588   19.3942 H   0  0  0  0  0  0
  -28.0467  -15.6967   20.9597 H   0  0  0  0  0  0
  -31.9273  -16.8321   21.4473 H   0  0  0  0  0  0
  -31.4775  -17.2286   19.8127 H   0  0  0  0  0  0
  -28.0296  -17.7780   21.9609 H   0  0  0  0  0  0
  -27.3562  -18.0439   20.3824 H   0  0  0  0  0  0
  -31.3120  -19.2329   21.1532 H   0  0  0  0  0  0
  -30.4151  -18.4033   22.4008 H   0  0  0  0  0  0
  -29.8983  -20.5461   22.9235 H   0  0  0  0  0  0
  -28.2992  -19.8878   23.1774 H   0  0  0  0  0  0
  -27.6571  -20.3022   20.8686 H   0  0  0  0  0  0
  -30.3767  -21.4693   20.3047 H   0  0  0  0  0  0
  -27.8334  -21.4842   18.6218 H   0  0  0  0  0  0
  -29.3348  -20.6409   18.2767 H   0  0  0  0  0  0
  -29.2999  -22.3910   18.2368 H   0  0  0  0  0  0
  -27.2767  -23.3493   19.7458 H   0  0  0  0  0  0
  -27.3594  -24.1965   21.2331 H   0  0  0  0  0  0
  -29.5314  -25.0455   19.4044 H   0  0  0  0  0  0
  -28.0197  -25.1942   18.6209 H   0  0  0  0  0  0
  -29.4291  -18.9504   19.6984 H   0  0  0  0  0  0
  1 25  1  0  0  0
  1 30  2  0  0  0
  1 84  1  0  0  0
  2  3  1  0  0  0
  2 25  1  0  0  0
  2 88  1  0  0  0
  2 89  1  0  0  0
  3  4  1  0  0  0
  3 90  1  0  0  0
  3 91  1  0  0  0
  4  5  1  0  0  0
  4 92  1  0  0  0
  4 93  1  0  0  0
  5  6  1  0  0  0
  5 26  1  0  0  0
  5 94  1  0  0  0
  6 25  1  0  0  0
  6 95  1  0  0  0
  6 96  1  0  0  0
  7  8  2  0  0  0
  7 26  1  0  0  0
  7 29  1  0  0  0
  8  9  1  0  0  0
  8 22  1  0  0  0
  9 10  1  0  0  0
  9 27  2  0  0  0
 10 11  2  0  0  0
 10 15  1  0  0  0
 11 12  1  0  0  0
 11 97  1  0  0  0
 12 13  2  0  0  0
 12 98  1  0  0  0
 13 14  1  0  0  0
 13 31  1  0  0  0
 14 15  2  0  0  0
 14 99  1  0  0  0
 15100  1  0  0  0
 16 17  2  0  0  0
 16 21  1  0  0  0
 16 31  1  0  0  0
 17 18  1  0  0  0
 17101  1  0  0  0
 18 19  2  0  0  0
 18102  1  0  0  0
 19 20  1  0  0  0
 19 24  1  0  0  0
 20 21  2  0  0  0
 20103  1  0  0  0
 21 23  1  0  0  0
 22 28  1  0  0  0
 22 32  2  0  0  0
 26 27  1  0  0  0
 28104  1  0  0  0
 28105  1  0  0  0
 29106  1  0  0  0
 29107  1  0  0  0
 33 34  1  0  0  0
 33 66  1  0  0  0
 33 70  2  0  0  0
 34 36  1  0  0  0
 34 59  1  0  0  0
 34108  1  0  0  0
 35 44  2  0  0  0
 35 45  1  0  0  0
 35 68  1  0  0  0
 36 56  1  0  0  0
 36109  1  0  0  0
 37 39  1  0  0  0
 37 47  1  0  0  0
 37 66  1  0  0  0
 37110  1  0  0  0
 38 43  2  0  0  0
 38 46  1  0  0  0
 38 47  1  0  0  0
 39 64  1  0  0  0
 39 67  2  0  0  0
 40 52  1  0  0  0
 40 53  2  0  0  0
 40 58  1  0  0  0
 41111  1  0  0  0
 41112  1  0  0  0
 41113  1  0  0  0
 41 48  1  0  0  0
 42 43  1  0  0  0
 42 66  1  0  0  0
 42114  1  0  0  0
 42115  1  0  0  0
 43 44  1  0  0  0
 44116  1  0  0  0
 45 46  2  0  0  0
 45117  1  0  0  0
 46118  1  0  0  0
 47119  1  0  0  0
 47120  1  0  0  0
 48 56  1  0  0  0
 48 65  1  0  0  0
 48121  1  0  0  0
 49 50  1  0  0  0
 49 53  1  0  0  0
 49 64  1  0  0  0
 49122  1  0  0  0
 50 51  1  0  0  0
 50123  1  0  0  0
 50124  1  0  0  0
 51 52  1  0  0  0
 51125  1  0  0  0
 51126  1  0  0  0
 52127  1  0  0  0
 52128  1  0  0  0
 53 54  1  0  0  0
 54 55  2  0  0  0
 54129  1  0  0  0
 55 57  1  0  0  0
 55130  1  0  0  0
 56 69  2  0  0  0
 57 58  2  0  0  0
 57131  1  0  0  0
 58132  1  0  0  0
 59 60  1  0  0  0
 59 61  1  0  0  0
 59 62  1  0  0  0
 60133  1  0  0  0
 60134  1  0  0  0
 60135  1  0  0  0
 61136  1  0  0  0
 61137  1  0  0  0
 61138  1  0  0  0
 62139  1  0  0  0
 62140  1  0  0  0
 62141  1  0  0  0
 63 65  1  0  0  0
 63142  1  0  0  0
 63143  1  0  0  0
 63144  1  0  0  0
 64145  1  0  0  0
 65146  1  0  0  0
 68 83  1  0  0  0
 71 72  1  0  0  0
 71147  1  0  0  0
 71148  1  0  0  0
 71 80  1  0  0  0
 72 80  1  0  0  0
 72149  1  0  0  0
 72150  1  0  0  0
 73 75  1  0  0  0
 73 84  1  0  0  0
 73151  1  0  0  0
 73152  1  0  0  0
 74 76  1  0  0  0
 74 84  1  0  0  0
 74153  1  0  0  0
 74154  1  0  0  0
 75155  1  0  0  0
 75156  1  0  0  0
 75 86  1  0  0  0
 76 86  1  0  0  0
 76157  1  0  0  0
 76158  1  0  0  0
 77 87  1  0  0  0
 77159  1  0  0  0
 77160  1  0  0  0
 77 78  1  0  0  0
 78 79  1  0  0  0
 78 86  1  0  0  0
 78161  1  0  0  0
 79 81  1  0  0  0
 79 85  1  0  0  0
 79162  1  0  0  0
 80 85  1  0  0  0
 80 87  1  0  0  0
 81163  1  0  0  0
 81164  1  0  0  0
 81165  1  0  0  0
 82 83  1  0  0  0
 82 85  1  0  0  0
 82166  1  0  0  0
 82167  1  0  0  0
 83168  1  0  0  0
 83169  1  0  0  0
 86170  1  0  0  0
M  CHG  1  86   1
M  ISO  4   1 100  68 101  83 101  84 100
M  END
> <chiral flag>
0

> <version>
0

> <s_m_source_file>
/data/baiqing/PycharmProjects/Reinvent-master-3.2/result/LINK_invent/BTK/process_docking_weight1_custom_sum_contain_oxygen_bond_distance_aromatic_linkinvent_7_9_3/rearranged_h_0195.sdf

> <i_m_source_file_index>
21

> <r_mmod_Potential_Energy-OPLS-2005>
256.530700683594

> <r_mmod_Stretch_Energy-OPLS-2005>
91.144660949707

> <r_mmod_Bend_Energy-OPLS-2005>
229.874923706055

> <r_mmod_Torsional_Energy-OPLS-2005>
456.166107177734

> <r_mmod_Improper_Torsional_Energy-OPLS-2005>
6.26254463195801

> <r_mmod_Van_der_Waal_Energy-OPLS-2005>
143.016174316406

> <r_mmod_Electrostatic_Energy-OPLS-2005>
-285.087005615234

> <r_mmod_Solvation_Energy-OPLS-2005>
-441.977233886719

> <b_mmod_Minimization_Converged-OPLS-2005>
0

> <r_mmod_RMS_Derivative-OPLS-2005>
1.85011291503906

$$$$
21
                    3D
 Structure written by MMmdl.
167177  0  0  1  0            999 V2000
  -30.6838  -14.5032   20.5326 C   0  0  0  0  0  0
  -30.4315  -12.3091   19.4350 C   0  0  0  0  0  0
  -29.5060  -12.4975   18.2129 C   0  0  0  0  0  0
  -28.0250  -12.3594   18.6192 C   0  0  0  0  0  0
  -27.6665  -13.2049   19.8718 C   0  0  2  0  0  0
  -28.7089  -12.9951   20.9977 C   0  0  0  0  0  0
  -25.2647  -13.8165   20.5671 C   0  0  0  0  0  0
  -24.1888  -13.0448   20.9177 C   0  0  0  0  0  0
  -24.6429  -11.6910   20.8729 C   0  0  0  0  0  0
  -23.9066  -10.4304   21.0370 C   0  0  0  0  0  0
  -24.3621   -9.4227   21.9145 C   0  0  0  0  0  0
  -23.6294   -8.2255   22.0728 C   0  0  0  0  0  0
  -22.4279   -8.0271   21.3524 C   0  0  0  0  0  0
  -21.9915   -9.0245   20.4630 C   0  0  0  0  0  0
  -22.7238  -10.2135   20.3024 C   0  0  0  0  0  0
  -21.6868   -6.0725   22.5283 C   0  0  0  0  0  0
  -21.4014   -6.5620   23.8210 C   0  0  0  0  0  0
  -21.3656   -5.6771   24.9175 C   0  0  0  0  0  0
  -21.6046   -4.3035   24.7227 C   0  0  0  0  0  0
  -21.8820   -3.8132   23.4351 C   0  0  0  0  0  0
  -21.9193   -4.6951   22.3404 C   0  0  0  0  0  0
  -22.7905  -13.5234   21.1815 C   0  0  0  0  0  0
  -22.1663   -4.2130   21.0988 F   0  0  0  0  0  0
  -21.5645   -3.4520   25.7743 F   0  0  0  0  0  0
  -30.0428  -13.3038   20.4506 N   0  0  0  0  0  0
  -26.3065  -12.9314   20.3337 N   0  0  0  0  0  0
  -25.9350  -11.6470   20.5749 N   0  0  0  0  0  0
  -22.0521  -12.8251   22.0370 N   0  0  0  0  0  0
  -25.4425  -15.1881   20.4105 N   0  0  0  0  0  0
  -31.8045  -14.6930   20.0560 O   0  0  0  0  0  0
  -21.6647   -6.8870   21.4235 O   0  0  0  0  0  0
  -22.3588  -14.5521   20.6625 O   0  0  0  0  0  0
  -24.6197  -31.8677   23.2109 C   0  0  0  0  0  0
  -25.9070  -32.4820   23.8414 C   0  0  1  0  0  0
  -27.2381  -27.4166   20.0950 C   0  0  0  0  0  0
  -25.5925  -33.8619   24.2348 N   0  0  0  0  0  0
  -23.4077  -30.4960   21.5510 C   0  0  2  0  0  0
  -24.8536  -28.9646   20.1154 C   0  0  0  0  0  0
  -22.7422  -29.4693   22.4975 C   0  0  0  0  0  0
  -18.0281  -28.1381   22.8500 C   0  0  0  0  0  0
  -24.1479  -36.7322   23.2643 C   0  0  0  0  0  0
  -25.9412  -30.8291   21.3704 C   0  0  0  0  0  0
  -26.0179  -29.4652   20.7115 C   0  0  0  0  0  0
  -27.2119  -28.7014   20.6970 C   0  0  0  0  0  0
  -26.0478  -26.9477   19.4834 C   0  0  0  0  0  0
  -24.8664  -27.7059   19.4979 C   0  0  0  0  0  0
  -23.6177  -29.8351   20.1649 C   0  0  0  0  0  0
  -25.4096  -36.3120   24.0357 C   0  0  1  0  0  0
  -20.5873  -28.3689   23.1297 C   0  0  2  0  0  0
  -20.6771  -26.9421   22.5411 C   0  0  0  0  0  0
  -19.5741  -26.6383   21.5217 C   0  0  0  0  0  0
  -18.1923  -26.7927   22.1632 C   0  0  0  0  0  0
  -19.1530  -28.8844   23.2899 C   0  0  0  0  0  0
  -18.9456  -30.1451   23.8908 C   0  0  0  0  0  0
  -17.6457  -30.6587   24.0562 C   0  0  0  0  0  0
  -25.9033  -34.9479   23.5138 C   0  0  0  0  0  0
  -16.5349  -29.9095   23.6326 C   0  0  0  0  0  0
  -16.7269  -28.6514   23.0346 C   0  0  0  0  0  0
  -26.4477  -31.6605   25.0760 C   0  0  0  0  0  0
  -25.3740  -31.3742   26.1515 C   0  0  0  0  0  0
  -27.0310  -30.3034   24.6176 C   0  0  0  0  0  0
  -27.6042  -32.4338   25.7521 C   0  0  0  0  0  0
  -27.5578  -37.1824   24.8468 C   0  0  0  0  0  0
  -21.4145  -29.3066   22.3702 N   0  0  0  0  0  0
  -26.4282  -37.3808   23.9423 N   0  0  0  0  0  0
  -24.6737  -31.0780   22.1025 N   0  0  0  0  0  0
  -23.4184  -28.8218   23.3016 O   0  0  0  0  0  0
  -28.3949  -26.6457   20.1263 O   0  0  0  0  0  0
  -26.5571  -34.8925   22.4691 O   0  0  0  0  0  0
  -23.5377  -32.1427   23.7508 O   0  0  0  0  0  0
  -31.9225  -22.2016   21.3581 C   0  0  0  0  0  0
  -31.0106  -21.2913   20.7968 C   0  0  0  0  0  0
  -31.2332  -19.9107   21.0604 C   0  0  0  0  0  0
  -33.0855  -20.5107   22.3163 C   0  0  0  0  0  0
  -34.2322  -19.5557   24.4701 C   0  0  0  0  0  0
  -34.9475  -20.8445   24.1590 C   0  0  0  0  0  0
  -31.1951  -17.6209   20.1070 C   0  0  0  0  0  0
  -29.6944  -18.0313   21.4405 C   0  0  0  0  0  0
  -34.3167  -20.0420   23.0390 C   0  0  0  0  0  0
  -29.8740  -16.8991   20.4119 C   0  0  0  0  0  0
  -29.9314  -21.8111   19.8263 C   0  0  0  0  0  0
  -29.4164  -24.2967   20.2991 C   0  0  0  0  0  0
  -28.2073  -25.2177   19.9758 C   0  0  0  0  0  0
  -32.9666  -21.8104   22.1026 N   0  0  0  0  0  0
  -32.2689  -19.5720   21.8556 N   0  0  0  0  0  0
  -30.4664  -18.8418   20.4941 N   0  0  0  0  0  0
  -29.9189  -15.5257   20.9641 N   0  0  0  0  0  0
  -28.9923  -22.8584   20.3307 N   0  3  0  0  0  0
  -31.4770  -12.4072   19.1336 H   0  0  0  0  0  0
  -30.3298  -11.2997   19.8389 H   0  0  0  0  0  0
  -29.7532  -11.7691   17.4384 H   0  0  0  0  0  0
  -29.6724  -13.4783   17.7682 H   0  0  0  0  0  0
  -27.8339  -11.3038   18.8152 H   0  0  0  0  0  0
  -27.3820  -12.6321   17.7812 H   0  0  0  0  0  0
  -27.7093  -14.2514   19.5670 H   0  0  0  0  0  0
  -28.6881  -11.9615   21.3471 H   0  0  0  0  0  0
  -28.4654  -13.6052   21.8691 H   0  0  0  0  0  0
  -25.2762   -9.5708   22.4716 H   0  0  0  0  0  0
  -24.0009   -7.4654   22.7445 H   0  0  0  0  0  0
  -21.0839   -8.8749   19.8957 H   0  0  0  0  0  0
  -22.3666  -10.9648   19.6131 H   0  0  0  0  0  0
  -21.1984   -7.6128   23.9711 H   0  0  0  0  0  0
  -21.1489   -6.0505   25.9076 H   0  0  0  0  0  0
  -22.0602   -2.7588   23.2864 H   0  0  0  0  0  0
  -22.4124  -11.9928   22.4813 H   0  0  0  0  0  0
  -21.1117  -13.1270   22.2510 H   0  0  0  0  0  0
  -24.6813  -15.8498   20.5154 H   0  0  0  0  0  0
  -26.2960  -15.6185   20.0769 H   0  0  0  0  0  0
  -26.7159  -32.5519   23.1193 H   0  0  0  0  0  0
  -25.0095  -33.9776   25.0506 H   0  0  0  0  0  0
  -22.6986  -31.3153   21.4154 H   0  0  0  0  0  0
  -23.3745  -35.9651   23.3304 H   0  0  0  0  0  0
  -24.3577  -36.8927   22.2057 H   0  0  0  0  0  0
  -23.7207  -37.6526   23.6638 H   0  0  0  0  0  0
  -26.0633  -31.6020   20.6094 H   0  0  0  0  0  0
  -26.8236  -30.8728   21.9967 H   0  0  0  0  0  0
  -28.1051  -29.0867   21.1685 H   0  0  0  0  0  0
  -25.9951  -25.9925   18.9830 H   0  0  0  0  0  0
  -23.9764  -27.3129   19.0264 H   0  0  0  0  0  0
  -23.7315  -30.6146   19.4110 H   0  0  0  0  0  0
  -22.7394  -29.2635   19.8612 H   0  0  0  0  0  0
  -25.1263  -36.1998   25.0851 H   0  0  0  0  0  0
  -20.9986  -28.3260   24.1405 H   0  0  0  0  0  0
  -20.5664  -26.2310   23.3610 H   0  0  0  0  0  0
  -21.6637  -26.7447   22.1193 H   0  0  0  0  0  0
  -19.6896  -25.6291   21.1250 H   0  0  0  0  0  0
  -19.6661  -27.3183   20.6735 H   0  0  0  0  0  0
  -17.4189  -26.6685   21.4033 H   0  0  0  0  0  0
  -18.0319  -26.0054   22.9009 H   0  0  0  0  0  0
  -19.7934  -30.7265   24.2269 H   0  0  0  0  0  0
  -17.5018  -31.6268   24.5164 H   0  0  0  0  0  0
  -15.5346  -30.2997   23.7642 H   0  0  0  0  0  0
  -15.8677  -28.0840   22.7035 H   0  0  0  0  0  0
  -24.5876  -30.7123   25.7879 H   0  0  0  0  0  0
  -24.8974  -32.2910   26.4994 H   0  0  0  0  0  0
  -25.8088  -30.8888   27.0259 H   0  0  0  0  0  0
  -26.2877  -29.6807   24.1180 H   0  0  0  0  0  0
  -27.3998  -29.7269   25.4673 H   0  0  0  0  0  0
  -27.8750  -30.4342   23.9400 H   0  0  0  0  0  0
  -27.2644  -33.3632   26.2108 H   0  0  0  0  0  0
  -28.3836  -32.6911   25.0338 H   0  0  0  0  0  0
  -28.0718  -31.8456   26.5425 H   0  0  0  0  0  0
  -28.2607  -38.0113   24.7504 H   0  0  0  0  0  0
  -28.1053  -36.2638   24.6289 H   0  0  0  0  0  0
  -27.2304  -37.1483   25.8876 H   0  0  0  0  0  0
  -20.9300  -29.8828   21.6958 H   0  0  0  0  0  0
  -26.0180  -38.2900   24.1391 H   0  0  0  0  0  0
  -31.8411  -23.2656   21.1865 H   0  0  0  0  0  0
  -33.2650  -19.6234   24.9649 H   0  0  0  0  0  0
  -34.8400  -18.6991   24.7526 H   0  0  0  0  0  0
  -36.0354  -20.8488   24.2129 H   0  0  0  0  0  0
  -34.4622  -21.7727   24.4506 H   0  0  0  0  0  0
  -31.4913  -17.5899   19.0580 H   0  0  0  0  0  0
  -32.0130  -17.3412   20.7743 H   0  0  0  0  0  0
  -30.2112  -17.8620   22.3888 H   0  0  0  0  0  0
  -28.6682  -18.3697   21.5818 H   0  0  0  0  0  0
  -34.9862  -19.5145   22.3627 H   0  0  0  0  0  0
  -29.1667  -16.9839   19.5816 H   0  0  0  0  0  0
  -29.3083  -20.9693   19.5225 H   0  0  0  0  0  0
  -30.4095  -22.1604   18.9095 H   0  0  0  0  0  0
  -29.8451  -24.5674   21.2644 H   0  0  0  0  0  0
  -30.1891  -24.4515   19.5448 H   0  0  0  0  0  0
  -27.3811  -24.9150   20.6227 H   0  0  0  0  0  0
  -27.9105  -25.0132   18.9456 H   0  0  0  0  0  0
  -29.0594  -15.2246   21.3958 H   0  0  0  0  0  0
  -28.6173  -22.6065   21.2320 H   0  0  0  0  0  0
  -28.2103  -22.8009   19.6945 H   0  0  0  0  0  0
  1 25  1  0  0  0
  1 30  2  0  0  0
  1 87  1  0  0  0
  2  3  1  0  0  0
  2 25  1  0  0  0
  2 89  1  0  0  0
  2 90  1  0  0  0
  3  4  1  0  0  0
  3 91  1  0  0  0
  3 92  1  0  0  0
  4  5  1  0  0  0
  4 93  1  0  0  0
  4 94  1  0  0  0
  5  6  1  0  0  0
  5 26  1  0  0  0
  5 95  1  0  0  0
  6 25  1  0  0  0
  6 96  1  0  0  0
  6 97  1  0  0  0
  7  8  2  0  0  0
  7 26  1  0  0  0
  7 29  1  0  0  0
  8  9  1  0  0  0
  8 22  1  0  0  0
  9 10  1  0  0  0
  9 27  2  0  0  0
 10 11  2  0  0  0
 10 15  1  0  0  0
 11 12  1  0  0  0
 11 98  1  0  0  0
 12 13  2  0  0  0
 12 99  1  0  0  0
 13 14  1  0  0  0
 13 31  1  0  0  0
 14 15  2  0  0  0
 14100  1  0  0  0
 15101  1  0  0  0
 16 17  2  0  0  0
 16 21  1  0  0  0
 16 31  1  0  0  0
 17 18  1  0  0  0
 17102  1  0  0  0
 18 19  2  0  0  0
 18103  1  0  0  0
 19 20  1  0  0  0
 19 24  1  0  0  0
 20 21  2  0  0  0
 20104  1  0  0  0
 21 23  1  0  0  0
 22 28  1  0  0  0
 22 32  2  0  0  0
 26 27  1  0  0  0
 28105  1  0  0  0
 28106  1  0  0  0
 29107  1  0  0  0
 29108  1  0  0  0
 33 34  1  0  0  0
 33 66  1  0  0  0
 33 70  2  0  0  0
 34 36  1  0  0  0
 34 59  1  0  0  0
 34109  1  0  0  0
 35 44  2  0  0  0
 35 45  1  0  0  0
 35 68  1  0  0  0
 36 56  1  0  0  0
 36110  1  0  0  0
 37 39  1  0  0  0
 37 47  1  0  0  0
 37 66  1  0  0  0
 37111  1  0  0  0
 38 43  2  0  0  0
 38 46  1  0  0  0
 38 47  1  0  0  0
 39 64  1  0  0  0
 39 67  2  0  0  0
 40 52  1  0  0  0
 40 53  2  0  0  0
 40 58  1  0  0  0
 41112  1  0  0  0
 41113  1  0  0  0
 41114  1  0  0  0
 41 48  1  0  0  0
 42 43  1  0  0  0
 42 66  1  0  0  0
 42115  1  0  0  0
 42116  1  0  0  0
 43 44  1  0  0  0
 44117  1  0  0  0
 45 46  2  0  0  0
 45118  1  0  0  0
 46119  1  0  0  0
 47120  1  0  0  0
 47121  1  0  0  0
 48 56  1  0  0  0
 48 65  1  0  0  0
 48122  1  0  0  0
 49 50  1  0  0  0
 49 53  1  0  0  0
 49 64  1  0  0  0
 49123  1  0  0  0
 50 51  1  0  0  0
 50124  1  0  0  0
 50125  1  0  0  0
 51 52  1  0  0  0
 51126  1  0  0  0
 51127  1  0  0  0
 52128  1  0  0  0
 52129  1  0  0  0
 53 54  1  0  0  0
 54 55  2  0  0  0
 54130  1  0  0  0
 55 57  1  0  0  0
 55131  1  0  0  0
 56 69  2  0  0  0
 57 58  2  0  0  0
 57132  1  0  0  0
 58133  1  0  0  0
 59 60  1  0  0  0
 59 61  1  0  0  0
 59 62  1  0  0  0
 60134  1  0  0  0
 60135  1  0  0  0
 60136  1  0  0  0
 61137  1  0  0  0
 61138  1  0  0  0
 61139  1  0  0  0
 62140  1  0  0  0
 62141  1  0  0  0
 62142  1  0  0  0
 63 65  1  0  0  0
 63143  1  0  0  0
 63144  1  0  0  0
 63145  1  0  0  0
 64146  1  0  0  0
 65147  1  0  0  0
 68 83  1  0  0  0
 71 72  2  0  0  0
 71 84  1  0  0  0
 71148  1  0  0  0
 72 73  1  0  0  0
 72 81  1  0  0  0
 73 85  2  0  0  0
 73 86  1  0  0  0
 74 84  2  0  0  0
 74 85  1  0  0  0
 74 79  1  0  0  0
 75 76  1  0  0  0
 75 79  1  0  0  0
 75149  1  0  0  0
 75150  1  0  0  0
 76 79  1  0  0  0
 76151  1  0  0  0
 76152  1  0  0  0
 77 80  1  0  0  0
 77 86  1  0  0  0
 77153  1  0  0  0
 77154  1  0  0  0
 78 80  1  0  0  0
 78 86  1  0  0  0
 78155  1  0  0  0
 78156  1  0  0  0
 79157  1  0  0  0
 80 87  1  0  0  0
 80158  1  0  0  0
 81 88  1  0  0  0
 81159  1  0  0  0
 81160  1  0  0  0
 82 83  1  0  0  0
 82 88  1  0  0  0
 82161  1  0  0  0
 82162  1  0  0  0
 83163  1  0  0  0
 83164  1  0  0  0
 87165  1  0  0  0
 88166  1  0  0  0
 88167  1  0  0  0
M  CHG  1  88   1
M  ISO  4   1 100  68 101  83 101  87 100
M  END
> <chiral flag>
0

> <version>
0

> <s_m_source_file>
/data/baiqing/PycharmProjects/Reinvent-master-3.2/result/LINK_invent/BTK/process_docking_weight1_custom_sum_contain_oxygen_bond_distance_aromatic_linkinvent_7_9_3/rearranged_h_0195.sdf

> <i_m_source_file_index>
22

> <r_mmod_Potential_Energy-OPLS-2005>
-602.594543457031

> <r_mmod_Stretch_Energy-OPLS-2005>
44.2769546508789

> <r_mmod_Bend_Energy-OPLS-2005>
152.601531982422

> <r_mmod_Torsional_Energy-OPLS-2005>
265.762908935547

> <r_mmod_Improper_Torsional_Energy-OPLS-2005>
15.9685144424438

> <r_mmod_Van_der_Waal_Energy-OPLS-2005>
170.847412109375

> <r_mmod_Electrostatic_Energy-OPLS-2005>
-779.243347167969

> <r_mmod_Solvation_Energy-OPLS-2005>
-489.771697998047

> <b_mmod_Minimization_Converged-OPLS-2005>
0

> <r_mmod_RMS_Derivative-OPLS-2005>
3.04606604576111

$$$$
22
                    3D
 Structure written by MMmdl.
149158  0  0  1  0            999 V2000
  -30.6094  -14.9859   20.4148 C   0  0  0  0  0  0
  -30.4157  -12.6274   19.5024 C   0  0  0  0  0  0
  -29.5086  -12.5266   18.2571 C   0  0  0  0  0  0
  -28.0480  -12.3085   18.6847 C   0  0  0  0  0  0
  -27.6170  -13.2645   19.8282 C   0  0  2  0  0  0
  -28.6596  -13.3672   20.9627 C   0  0  0  0  0  0
  -25.2415  -13.8256   20.5752 C   0  0  0  0  0  0
  -24.1749  -13.0450   20.9247 C   0  0  0  0  0  0
  -24.6390  -11.6943   20.8770 C   0  0  0  0  0  0
  -23.9090  -10.4299   21.0413 C   0  0  0  0  0  0
  -24.3634   -9.4211   21.9185 C   0  0  0  0  0  0
  -23.6303   -8.2247   22.0754 C   0  0  0  0  0  0
  -22.4288   -8.0286   21.3544 C   0  0  0  0  0  0
  -21.9927   -9.0265   20.4645 C   0  0  0  0  0  0
  -22.7260  -10.2140   20.3057 C   0  0  0  0  0  0
  -21.6859   -6.0744   22.5279 C   0  0  0  0  0  0
  -21.4015   -6.5644   23.8211 C   0  0  0  0  0  0
  -21.3655   -5.6793   24.9170 C   0  0  0  0  0  0
  -21.6044   -4.3060   24.7221 C   0  0  0  0  0  0
  -21.8818   -3.8151   23.4341 C   0  0  0  0  0  0
  -21.9192   -4.6969   22.3400 C   0  0  0  0  0  0
  -22.7766  -13.5204   21.1895 C   0  0  0  0  0  0
  -22.1663   -4.2151   21.0982 F   0  0  0  0  0  0
  -21.5625   -3.4547   25.7736 F   0  0  0  0  0  0
  -29.9224  -13.7705   20.3356 N   0  0  0  0  0  0
  -26.2835  -12.9520   20.3258 N   0  0  0  0  0  0
  -25.9328  -11.6631   20.5761 N   0  0  0  0  0  0
  -22.0426  -12.8186   22.0444 N   0  0  0  0  0  0
  -25.4080  -15.1985   20.4191 N   0  0  0  0  0  0
  -31.8235  -14.9168   20.1975 O   0  0  0  0  0  0
  -21.6648   -6.8887   21.4241 O   0  0  0  0  0  0
  -22.3443  -14.5503   20.6733 O   0  0  0  0  0  0
  -24.6484  -31.8415   23.1865 C   0  0  0  0  0  0
  -25.9236  -32.4683   23.8261 C   0  0  1  0  0  0
  -27.2012  -27.0857   20.1526 C   0  0  0  0  0  0
  -25.5967  -33.8489   24.2167 N   0  0  0  0  0  0
  -23.4537  -30.4628   21.5334 C   0  0  2  0  0  0
  -24.9019  -28.8911   20.1080 C   0  0  0  0  0  0
  -22.7596  -29.4536   22.4834 C   0  0  0  0  0  0
  -18.0301  -28.1413   22.8470 C   0  0  0  0  0  0
  -24.1488  -36.7244   23.2643 C   0  0  0  0  0  0
  -26.0163  -30.6974   21.3966 C   0  0  0  0  0  0
  -26.0841  -29.3069   20.7343 C   0  0  0  0  0  0
  -27.2342  -28.4213   20.7416 C   0  0  0  0  0  0
  -25.9966  -26.7999   19.4690 C   0  0  0  0  0  0
  -24.8756  -27.6528   19.4569 C   0  0  0  0  0  0
  -23.6828  -29.7986   20.1518 C   0  0  0  0  0  0
  -25.4120  -36.3021   24.0314 C   0  0  1  0  0  0
  -20.5921  -28.3738   23.1214 C   0  0  2  0  0  0
  -20.6788  -26.9434   22.5394 C   0  0  0  0  0  0
  -19.5761  -26.6383   21.5213 C   0  0  0  0  0  0
  -18.1942  -26.7947   22.1623 C   0  0  0  0  0  0
  -19.1563  -28.8891   23.2836 C   0  0  0  0  0  0
  -18.9478  -30.1484   23.8870 C   0  0  0  0  0  0
  -17.6477  -30.6602   24.0564 C   0  0  0  0  0  0
  -25.9079  -34.9406   23.5050 C   0  0  0  0  0  0
  -16.5365  -29.9092   23.6349 C   0  0  0  0  0  0
  -16.7287  -28.6513   23.0361 C   0  0  0  0  0  0
  -26.4539  -31.6565   25.0715 C   0  0  0  0  0  0
  -25.3704  -31.3775   26.1394 C   0  0  0  0  0  0
  -27.0417  -30.2950   24.6345 C   0  0  0  0  0  0
  -27.6068  -32.4338   25.7497 C   0  0  0  0  0  0
  -27.5568  -37.1777   24.8466 C   0  0  0  0  0  0
  -21.4277  -29.3058   22.3582 N   0  0  0  0  0  0
  -26.4280  -37.3737   23.9408 N   0  0  0  0  0  0
  -24.7263  -31.0233   22.0929 N   0  0  0  0  0  0
  -23.4218  -28.8073   23.2997 O   0  0  0  0  0  0
  -28.2010  -26.0284   20.2470 O   0  0  0  0  0  0
  -26.5671  -34.8909   22.4628 O   0  0  0  0  0  0
  -23.5588  -32.1309   23.7056 O   0  0  0  0  0  0
  -28.7204  -22.0917   19.1719 C   0  0  0  0  0  0
  -28.6745  -22.3270   21.4520 C   0  0  0  0  0  0
  -28.5085  -23.0473   20.2257 C   0  0  0  0  0  0
  -29.1633  -20.1391   20.5124 C   0  0  0  0  0  0
  -28.7529  -17.1042   20.5752 C   0  0  0  0  0  0
  -30.7281  -17.6381   20.1610 C   0  0  0  0  0  0
  -29.5325  -18.5065   20.7198 C   0  0  0  0  0  0
  -27.7737  -24.5343   19.9938 C   0  0  0  0  0  0
  -29.0259  -20.7331   19.3052 N   0  0  0  0  0  0
  -28.9903  -20.9688   21.5763 N   0  0  0  0  0  0
  -30.0453  -16.3134   20.4583 N   0  0  0  0  0  0
  -31.4515  -12.7530   19.1829 H   0  0  0  0  0  0
  -30.3958  -11.6970   20.0734 H   0  0  0  0  0  0
  -29.8368  -11.7102   17.6121 H   0  0  0  0  0  0
  -29.5901  -13.4398   17.6652 H   0  0  0  0  0  0
  -27.9568  -11.2736   19.0153 H   0  0  0  0  0  0
  -27.3809  -12.4139   17.8281 H   0  0  0  0  0  0
  -27.5579  -14.2517   19.3675 H   0  0  0  0  0  0
  -28.7632  -12.4229   21.4987 H   0  0  0  0  0  0
  -28.3519  -14.1168   21.6941 H   0  0  0  0  0  0
  -25.2779   -9.5689   22.4763 H   0  0  0  0  0  0
  -24.0012   -7.4639   22.7474 H   0  0  0  0  0  0
  -21.0859   -8.8783   19.8950 H   0  0  0  0  0  0
  -22.3717  -10.9683   19.6167 H   0  0  0  0  0  0
  -21.2010   -7.6152   23.9711 H   0  0  0  0  0  0
  -21.1475   -6.0530   25.9071 H   0  0  0  0  0  0
  -22.0599   -2.7616   23.2845 H   0  0  0  0  0  0
  -22.4070  -11.9859   22.4837 H   0  0  0  0  0  0
  -21.1035  -13.1188   22.2649 H   0  0  0  0  0  0
  -24.6411  -15.8522   20.5312 H   0  0  0  0  0  0
  -26.2580  -15.6355   20.0909 H   0  0  0  0  0  0
  -26.7294  -32.5275   23.0982 H   0  0  0  0  0  0
  -25.0100  -33.9588   25.0304 H   0  0  0  0  0  0
  -22.7592  -31.2916   21.3783 H   0  0  0  0  0  0
  -23.3767  -35.9562   23.3304 H   0  0  0  0  0  0
  -24.3566  -36.8880   22.2058 H   0  0  0  0  0  0
  -23.7245  -37.6435   23.6685 H   0  0  0  0  0  0
  -26.1817  -31.4501   20.6247 H   0  0  0  0  0  0
  -26.8834  -30.7441   22.0434 H   0  0  0  0  0  0
  -28.1265  -28.7292   21.2671 H   0  0  0  0  0  0
  -25.8613  -25.8639   18.9505 H   0  0  0  0  0  0
  -23.9794  -27.3290   18.9460 H   0  0  0  0  0  0
  -23.8254  -30.5755   19.4007 H   0  0  0  0  0  0
  -22.7958  -29.2477   19.8345 H   0  0  0  0  0  0
  -25.1316  -36.1837   25.0810 H   0  0  0  0  0  0
  -21.0013  -28.3343   24.1336 H   0  0  0  0  0  0
  -20.5696  -26.2357   23.3621 H   0  0  0  0  0  0
  -21.6650  -26.7447   22.1186 H   0  0  0  0  0  0
  -19.6927  -25.6289   21.1260 H   0  0  0  0  0  0
  -19.6698  -27.3178   20.6737 H   0  0  0  0  0  0
  -17.4204  -26.6686   21.4032 H   0  0  0  0  0  0
  -18.0345  -26.0102   22.9035 H   0  0  0  0  0  0
  -19.7957  -30.7307   24.2230 H   0  0  0  0  0  0
  -17.5028  -31.6281   24.5167 H   0  0  0  0  0  0
  -15.5364  -30.2988   23.7690 H   0  0  0  0  0  0
  -15.8686  -28.0823   22.7098 H   0  0  0  0  0  0
  -24.5870  -30.7145   25.7696 H   0  0  0  0  0  0
  -24.8909  -32.2968   26.4767 H   0  0  0  0  0  0
  -25.7950  -30.8958   27.0210 H   0  0  0  0  0  0
  -26.3044  -29.6660   24.1339 H   0  0  0  0  0  0
  -27.3992  -29.7264   25.4945 H   0  0  0  0  0  0
  -27.8973  -30.4175   23.9704 H   0  0  0  0  0  0
  -27.2663  -33.3675   26.1987 H   0  0  0  0  0  0
  -28.3916  -32.6841   25.0347 H   0  0  0  0  0  0
  -28.0692  -31.8520   26.5480 H   0  0  0  0  0  0
  -28.2583  -38.0075   24.7508 H   0  0  0  0  0  0
  -28.1069  -36.2605   24.6305 H   0  0  0  0  0  0
  -27.2283  -37.1437   25.8868 H   0  0  0  0  0  0
  -20.9489  -29.8773   21.6758 H   0  0  0  0  0  0
  -26.0152  -38.2803   24.1418 H   0  0  0  0  0  0
  -28.5641  -22.4066   18.1508 H   0  0  0  0  0  0
  -28.4758  -22.8325   22.3854 H   0  0  0  0  0  0
  -28.1374  -17.0607   19.6763 H   0  0  0  0  0  0
  -28.1548  -16.8603   21.4544 H   0  0  0  0  0  0
  -31.6590  -17.7985   20.7059 H   0  0  0  0  0  0
  -30.8870  -17.8039   19.0944 H   0  0  0  0  0  0
  -29.7405  -18.5412   21.7914 H   0  0  0  0  0  0
  -26.8272  -24.4185   20.5231 H   0  0  0  0  0  0
  -27.5154  -24.5045   18.9350 H   0  0  0  0  0  0
  1 25  1  0  0  0
  1 30  2  0  0  0
  1 81  1  0  0  0
  2  3  1  0  0  0
  2 25  1  0  0  0
  2 82  1  0  0  0
  2 83  1  0  0  0
  3  4  1  0  0  0
  3 84  1  0  0  0
  3 85  1  0  0  0
  4  5  1  0  0  0
  4 86  1  0  0  0
  4 87  1  0  0  0
  5  6  1  0  0  0
  5 26  1  0  0  0
  5 88  1  0  0  0
  6 25  1  0  0  0
  6 89  1  0  0  0
  6 90  1  0  0  0
  7  8  2  0  0  0
  7 26  1  0  0  0
  7 29  1  0  0  0
  8  9  1  0  0  0
  8 22  1  0  0  0
  9 10  1  0  0  0
  9 27  2  0  0  0
 10 11  2  0  0  0
 10 15  1  0  0  0
 11 12  1  0  0  0
 11 91  1  0  0  0
 12 13  2  0  0  0
 12 92  1  0  0  0
 13 14  1  0  0  0
 13 31  1  0  0  0
 14 15  2  0  0  0
 14 93  1  0  0  0
 15 94  1  0  0  0
 16 17  2  0  0  0
 16 21  1  0  0  0
 16 31  1  0  0  0
 17 18  1  0  0  0
 17 95  1  0  0  0
 18 19  2  0  0  0
 18 96  1  0  0  0
 19 20  1  0  0  0
 19 24  1  0  0  0
 20 21  2  0  0  0
 20 97  1  0  0  0
 21 23  1  0  0  0
 22 28  1  0  0  0
 22 32  2  0  0  0
 26 27  1  0  0  0
 28 98  1  0  0  0
 28 99  1  0  0  0
 29100  1  0  0  0
 29101  1  0  0  0
 33 34  1  0  0  0
 33 66  1  0  0  0
 33 70  2  0  0  0
 34 36  1  0  0  0
 34 59  1  0  0  0
 34102  1  0  0  0
 35 44  2  0  0  0
 35 45  1  0  0  0
 35 68  1  0  0  0
 36 56  1  0  0  0
 36103  1  0  0  0
 37 39  1  0  0  0
 37 47  1  0  0  0
 37 66  1  0  0  0
 37104  1  0  0  0
 38 43  2  0  0  0
 38 46  1  0  0  0
 38 47  1  0  0  0
 39 64  1  0  0  0
 39 67  2  0  0  0
 40 52  1  0  0  0
 40 53  2  0  0  0
 40 58  1  0  0  0
 41105  1  0  0  0
 41106  1  0  0  0
 41107  1  0  0  0
 41 48  1  0  0  0
 42 43  1  0  0  0
 42 66  1  0  0  0
 42108  1  0  0  0
 42109  1  0  0  0
 43 44  1  0  0  0
 44110  1  0  0  0
 45 46  2  0  0  0
 45111  1  0  0  0
 46112  1  0  0  0
 47113  1  0  0  0
 47114  1  0  0  0
 48 56  1  0  0  0
 48 65  1  0  0  0
 48115  1  0  0  0
 49 50  1  0  0  0
 49 53  1  0  0  0
 49 64  1  0  0  0
 49116  1  0  0  0
 50 51  1  0  0  0
 50117  1  0  0  0
 50118  1  0  0  0
 51 52  1  0  0  0
 51119  1  0  0  0
 51120  1  0  0  0
 52121  1  0  0  0
 52122  1  0  0  0
 53 54  1  0  0  0
 54 55  2  0  0  0
 54123  1  0  0  0
 55 57  1  0  0  0
 55124  1  0  0  0
 56 69  2  0  0  0
 57 58  2  0  0  0
 57125  1  0  0  0
 58126  1  0  0  0
 59 60  1  0  0  0
 59 61  1  0  0  0
 59 62  1  0  0  0
 60127  1  0  0  0
 60128  1  0  0  0
 60129  1  0  0  0
 61130  1  0  0  0
 61131  1  0  0  0
 61132  1  0  0  0
 62133  1  0  0  0
 62134  1  0  0  0
 62135  1  0  0  0
 63 65  1  0  0  0
 63136  1  0  0  0
 63137  1  0  0  0
 63138  1  0  0  0
 64139  1  0  0  0
 65140  1  0  0  0
 68 78  1  0  0  0
 71 73  2  0  0  0
 71 79  1  0  0  0
 71141  1  0  0  0
 72 73  1  0  0  0
 72 80  2  0  0  0
 72142  1  0  0  0
 73 78  1  0  0  0
 74 79  2  0  0  0
 74 80  1  0  0  0
 74 77  1  0  0  0
 75 77  1  0  0  0
 75 81  1  0  0  0
 75143  1  0  0  0
 75144  1  0  0  0
 76 77  1  0  0  0
 76 81  1  0  0  0
 76145  1  0  0  0
 76146  1  0  0  0
 77147  1  0  0  0
 78148  1  0  0  0
 78149  1  0  0  0
M  ISO  4   1 100  68 101  78 101  81 100
M  END
> <chiral flag>
0

> <version>
0

> <s_m_source_file>
/data/baiqing/PycharmProjects/Reinvent-master-3.2/result/LINK_invent/BTK/process_docking_weight1_custom_sum_contain_oxygen_bond_distance_aromatic_linkinvent_7_9_3/rearranged_h_0195.sdf

> <i_m_source_file_index>
23

> <r_mmod_Potential_Energy-OPLS-2005>
322.772613525391

> <r_mmod_Stretch_Energy-OPLS-2005>
257.517913818359

> <r_mmod_Bend_Energy-OPLS-2005>
360.347564697266

> <r_mmod_Torsional_Energy-OPLS-2005>
248.795867919922

> <r_mmod_Improper_Torsional_Energy-OPLS-2005>
10.2911996841431

> <r_mmod_Van_der_Waal_Energy-OPLS-2005>
141.20149230957

> <r_mmod_Electrostatic_Energy-OPLS-2005>
-695.358520507812

> <r_mmod_Solvation_Energy-OPLS-2005>
-240.629013061523

> <b_mmod_Minimization_Converged-OPLS-2005>
0

> <r_mmod_RMS_Derivative-OPLS-2005>
1.53246438503265

$$$$
23
                    3D
 Structure written by MMmdl.
164174  0  0  1  0            999 V2000
  -30.6344  -14.7010   20.4219 C   0  0  0  0  0  0
  -30.4293  -12.4160   19.4614 C   0  0  0  0  0  0
  -29.5105  -12.4903   18.2215 C   0  0  0  0  0  0
  -28.0352  -12.3248   18.6399 C   0  0  0  0  0  0
  -27.6442  -13.2274   19.8433 C   0  0  2  0  0  0
  -28.6945  -13.1581   20.9761 C   0  0  0  0  0  0
  -25.2543  -13.8187   20.5709 C   0  0  0  0  0  0
  -24.1807  -13.0447   20.9179 C   0  0  0  0  0  0
  -24.6380  -11.6920   20.8711 C   0  0  0  0  0  0
  -23.9059  -10.4286   21.0379 C   0  0  0  0  0  0
  -24.3616   -9.4199   21.9154 C   0  0  0  0  0  0
  -23.6283   -8.2235   22.0752 C   0  0  0  0  0  0
  -22.4265   -8.0259   21.3536 C   0  0  0  0  0  0
  -21.9878   -9.0238   20.4658 C   0  0  0  0  0  0
  -22.7219  -10.2114   20.3047 C   0  0  0  0  0  0
  -21.6843   -6.0713   22.5266 C   0  0  0  0  0  0
  -21.4025   -6.5619   23.8199 C   0  0  0  0  0  0
  -21.3672   -5.6779   24.9166 C   0  0  0  0  0  0
  -21.6050   -4.3042   24.7218 C   0  0  0  0  0  0
  -21.8823   -3.8123   23.4344 C   0  0  0  0  0  0
  -21.9191   -4.6941   22.3396 C   0  0  0  0  0  0
  -22.7829  -13.5244   21.1824 C   0  0  0  0  0  0
  -22.1653   -4.2122   21.0971 F   0  0  0  0  0  0
  -21.5627   -3.4537   25.7739 F   0  0  0  0  0  0
  -29.9969  -13.4840   20.3860 N   0  0  0  0  0  0
  -26.2963  -12.9397   20.3267 N   0  0  0  0  0  0
  -25.9309  -11.6548   20.5700 N   0  0  0  0  0  0
  -22.0441  -12.8273   22.0389 N   0  0  0  0  0  0
  -25.4238  -15.1908   20.4180 N   0  0  0  0  0  0
  -31.8334  -14.7781   20.1434 O   0  0  0  0  0  0
  -21.6627   -6.8858   21.4231 O   0  0  0  0  0  0
  -22.3526  -14.5533   20.6651 O   0  0  0  0  0  0
  -24.6289  -31.8576   23.1975 C   0  0  0  0  0  0
  -25.9123  -32.4757   23.8320 C   0  0  1  0  0  0
  -27.2188  -27.2988   20.1157 C   0  0  0  0  0  0
  -25.5933  -33.8561   24.2255 N   0  0  0  0  0  0
  -23.4222  -30.4819   21.5399 C   0  0  2  0  0  0
  -24.8662  -28.9208   20.1172 C   0  0  0  0  0  0
  -22.7492  -29.4641   22.4922 C   0  0  0  0  0  0
  -18.0302  -28.1405   22.8482 C   0  0  0  0  0  0
  -24.1482  -36.7284   23.2641 C   0  0  0  0  0  0
  -25.9664  -30.7791   21.3718 C   0  0  0  0  0  0
  -26.0378  -29.4042   20.7140 C   0  0  0  0  0  0
  -27.2210  -28.6064   20.6926 C   0  0  0  0  0  0
  -26.0233  -26.8540   19.5174 C   0  0  0  0  0  0
  -24.8615  -27.6523   19.5096 C   0  0  0  0  0  0
  -23.6379  -29.8079   20.1591 C   0  0  0  0  0  0
  -25.4112  -36.3063   24.0316 C   0  0  1  0  0  0
  -20.5904  -28.3717   23.1270 C   0  0  2  0  0  0
  -20.6793  -26.9435   22.5411 C   0  0  0  0  0  0
  -19.5766  -26.6393   21.5215 C   0  0  0  0  0  0
  -18.1944  -26.7949   22.1621 C   0  0  0  0  0  0
  -19.1552  -28.8872   23.2876 C   0  0  0  0  0  0
  -18.9475  -30.1473   23.8896 C   0  0  0  0  0  0
  -17.6472  -30.6585   24.0574 C   0  0  0  0  0  0
  -25.9055  -34.9440   23.5087 C   0  0  0  0  0  0
  -16.5368  -29.9089   23.6337 C   0  0  0  0  0  0
  -16.7286  -28.6518   23.0339 C   0  0  0  0  0  0
  -26.4505  -31.6591   25.0712 C   0  0  0  0  0  0
  -25.3748  -31.3741   26.1444 C   0  0  0  0  0  0
  -27.0365  -30.3007   24.6207 C   0  0  0  0  0  0
  -27.6060  -32.4360   25.7477 C   0  0  0  0  0  0
  -27.5583  -37.1788   24.8462 C   0  0  0  0  0  0
  -21.4203  -29.3052   22.3640 N   0  0  0  0  0  0
  -26.4280  -37.3772   23.9410 N   0  0  0  0  0  0
  -24.6918  -31.0582   22.0924 N   0  0  0  0  0  0
  -23.4217  -28.8205   23.3017 O   0  0  0  0  0  0
  -28.3475  -26.4699   20.0724 O   0  0  0  0  0  0
  -26.5629  -34.8920   22.4652 O   0  0  0  0  0  0
  -23.5442  -32.1388   23.7298 O   0  0  0  0  0  0
  -30.3799  -22.9209   19.2169 C   0  0  0  0  0  0
  -31.3113  -21.8960   19.0419 C   0  0  0  0  0  0
  -29.1112  -22.5966   19.6952 C   0  0  0  0  0  0
  -29.8040  -20.3229   19.7928 C   0  0  0  0  0  0
  -32.7851  -23.0421   17.2328 C   0  0  0  0  0  0
  -33.1536  -21.5808   17.1787 C   0  0  0  0  0  0
  -30.1489  -18.0086   18.9628 C   0  0  0  0  0  0
  -29.8336  -18.2929   21.2804 C   0  0  0  0  0  0
  -29.6471  -16.5287   19.0217 C   0  0  0  0  0  0
  -29.4864  -16.7472   21.4368 C   0  0  0  0  0  0
  -32.6694  -22.1843   18.4790 C   0  0  0  0  0  0
  -28.0433  -23.7625   19.7096 C   0  0  0  0  0  0
  -28.2870  -25.0775   20.6036 C   0  0  0  0  0  0
  -31.0188  -20.6149   19.3406 N   0  0  0  0  0  0
  -28.8347  -21.2649   19.9868 N   0  0  0  0  0  0
  -29.5548  -18.9141   19.9685 N   0  0  0  0  0  0
  -29.8451  -15.8362   20.3165 N   0  0  0  0  0  0
  -31.4758  -12.5087   19.1662 H   0  0  0  0  0  0
  -30.3383  -11.4430   19.9468 H   0  0  0  0  0  0
  -29.7884  -11.7181   17.5027 H   0  0  0  0  0  0
  -29.6475  -13.4453   17.7080 H   0  0  0  0  0  0
  -27.8866  -11.2763   18.9042 H   0  0  0  0  0  0
  -27.3765  -12.5170   17.7919 H   0  0  0  0  0  0
  -27.6365  -14.2477   19.4630 H   0  0  0  0  0  0
  -28.7151  -12.1684   21.4330 H   0  0  0  0  0  0
  -28.4458  -13.8616   21.7713 H   0  0  0  0  0  0
  -25.2754   -9.5677   22.4748 H   0  0  0  0  0  0
  -23.9977   -7.4630   22.7489 H   0  0  0  0  0  0
  -21.0790   -8.8783   19.8982 H   0  0  0  0  0  0
  -22.3661  -10.9659   19.6175 H   0  0  0  0  0  0
  -21.2030   -7.6128   23.9705 H   0  0  0  0  0  0
  -21.1486   -6.0498   25.9071 H   0  0  0  0  0  0
  -22.0592   -2.7583   23.2844 H   0  0  0  0  0  0
  -22.4056  -11.9995   22.4889 H   0  0  0  0  0  0
  -21.1066  -13.1343   22.2564 H   0  0  0  0  0  0
  -24.6596  -15.8460   20.5425 H   0  0  0  0  0  0
  -26.2870  -15.6325   20.1292 H   0  0  0  0  0  0
  -26.7185  -32.5409   23.1066 H   0  0  0  0  0  0
  -25.0059  -33.9693   25.0381 H   0  0  0  0  0  0
  -22.7164  -31.3016   21.3921 H   0  0  0  0  0  0
  -23.3736  -35.9623   23.3305 H   0  0  0  0  0  0
  -24.3575  -36.8915   22.2060 H   0  0  0  0  0  0
  -23.7250  -37.6482   23.6677 H   0  0  0  0  0  0
  -26.1086  -31.5423   20.6047 H   0  0  0  0  0  0
  -26.8417  -30.8232   22.0096 H   0  0  0  0  0  0
  -28.1305  -28.9812   21.1425 H   0  0  0  0  0  0
  -25.9870  -25.8822   19.0451 H   0  0  0  0  0  0
  -23.9628  -27.2784   19.0401 H   0  0  0  0  0  0
  -23.7626  -30.5790   19.3976 H   0  0  0  0  0  0
  -22.7550  -29.2407   19.8585 H   0  0  0  0  0  0
  -25.1291  -36.1908   25.0804 H   0  0  0  0  0  0
  -21.0015  -28.3318   24.1384 H   0  0  0  0  0  0
  -20.5715  -26.2334   23.3622 H   0  0  0  0  0  0
  -21.6662  -26.7470   22.1200 H   0  0  0  0  0  0
  -19.6932  -25.6300   21.1254 H   0  0  0  0  0  0
  -19.6699  -27.3197   20.6739 H   0  0  0  0  0  0
  -17.4223  -26.6711   21.4010 H   0  0  0  0  0  0
  -18.0331  -26.0087   22.9012 H   0  0  0  0  0  0
  -19.7942  -30.7299   24.2268 H   0  0  0  0  0  0
  -17.5013  -31.6262   24.5181 H   0  0  0  0  0  0
  -15.5363  -30.2984   23.7641 H   0  0  0  0  0  0
  -15.8700  -28.0831   22.7035 H   0  0  0  0  0  0
  -24.5879  -30.7137   25.7779 H   0  0  0  0  0  0
  -24.8972  -32.2904   26.4919 H   0  0  0  0  0  0
  -25.8059  -30.8876   27.0200 H   0  0  0  0  0  0
  -26.2936  -29.6733   24.1252 H   0  0  0  0  0  0
  -27.4066  -29.7304   25.4741 H   0  0  0  0  0  0
  -27.8809  -30.4275   23.9429 H   0  0  0  0  0  0
  -27.2641  -33.3649   26.2060 H   0  0  0  0  0  0
  -28.3846  -32.6960   25.0290 H   0  0  0  0  0  0
  -28.0766  -31.8504   26.5388 H   0  0  0  0  0  0
  -28.2589  -38.0097   24.7509 H   0  0  0  0  0  0
  -28.1080  -36.2626   24.6261 H   0  0  0  0  0  0
  -27.2306  -37.1427   25.8866 H   0  0  0  0  0  0
  -20.9404  -29.8736   21.6804 H   0  0  0  0  0  0
  -26.0160  -38.2836   24.1413 H   0  0  0  0  0  0
  -30.6205  -23.9416   18.9453 H   0  0  0  0  0  0
  -31.8679  -23.3382   16.7259 H   0  0  0  0  0  0
  -33.5979  -23.7642   17.1785 H   0  0  0  0  0  0
  -34.2124  -21.3422   17.1007 H   0  0  0  0  0  0
  -32.4798  -20.9119   16.6470 H   0  0  0  0  0  0
  -29.9467  -18.4073   17.9675 H   0  0  0  0  0  0
  -31.2361  -18.0187   19.0687 H   0  0  0  0  0  0
  -30.8972  -18.4383   21.4836 H   0  0  0  0  0  0
  -29.3044  -18.8592   22.0489 H   0  0  0  0  0  0
  -30.1336  -15.9641   18.2247 H   0  0  0  0  0  0
  -28.5828  -16.4972   18.7839 H   0  0  0  0  0  0
  -28.4081  -16.6514   21.5698 H   0  0  0  0  0  0
  -29.9238  -16.3705   22.3622 H   0  0  0  0  0  0
  -33.3937  -22.3631   19.2716 H   0  0  0  0  0  0
  -27.0775  -23.3315   19.9729 H   0  0  0  0  0  0
  -27.9268  -24.0849   18.6741 H   0  0  0  0  0  0
  -29.2451  -24.9302   21.1012 H   0  0  0  0  0  0
  -27.5640  -25.0622   21.4197 H   0  0  0  0  0  0
  1 25  1  0  0  0
  1 30  2  0  0  0
  1 87  1  0  0  0
  2  3  1  0  0  0
  2 25  1  0  0  0
  2 88  1  0  0  0
  2 89  1  0  0  0
  3  4  1  0  0  0
  3 90  1  0  0  0
  3 91  1  0  0  0
  4  5  1  0  0  0
  4 92  1  0  0  0
  4 93  1  0  0  0
  5  6  1  0  0  0
  5 26  1  0  0  0
  5 94  1  0  0  0
  6 25  1  0  0  0
  6 95  1  0  0  0
  6 96  1  0  0  0
  7  8  2  0  0  0
  7 26  1  0  0  0
  7 29  1  0  0  0
  8  9  1  0  0  0
  8 22  1  0  0  0
  9 10  1  0  0  0
  9 27  2  0  0  0
 10 11  2  0  0  0
 10 15  1  0  0  0
 11 12  1  0  0  0
 11 97  1  0  0  0
 12 13  2  0  0  0
 12 98  1  0  0  0
 13 14  1  0  0  0
 13 31  1  0  0  0
 14 15  2  0  0  0
 14 99  1  0  0  0
 15100  1  0  0  0
 16 17  2  0  0  0
 16 21  1  0  0  0
 16 31  1  0  0  0
 17 18  1  0  0  0
 17101  1  0  0  0
 18 19  2  0  0  0
 18102  1  0  0  0
 19 20  1  0  0  0
 19 24  1  0  0  0
 20 21  2  0  0  0
 20103  1  0  0  0
 21 23  1  0  0  0
 22 28  1  0  0  0
 22 32  2  0  0  0
 26 27  1  0  0  0
 28104  1  0  0  0
 28105  1  0  0  0
 29106  1  0  0  0
 29107  1  0  0  0
 33 34  1  0  0  0
 33 66  1  0  0  0
 33 70  2  0  0  0
 34 36  1  0  0  0
 34 59  1  0  0  0
 34108  1  0  0  0
 35 44  2  0  0  0
 35 45  1  0  0  0
 35 68  1  0  0  0
 36 56  1  0  0  0
 36109  1  0  0  0
 37 39  1  0  0  0
 37 47  1  0  0  0
 37 66  1  0  0  0
 37110  1  0  0  0
 38 43  2  0  0  0
 38 46  1  0  0  0
 38 47  1  0  0  0
 39 64  1  0  0  0
 39 67  2  0  0  0
 40 52  1  0  0  0
 40 53  2  0  0  0
 40 58  1  0  0  0
 41111  1  0  0  0
 41112  1  0  0  0
 41113  1  0  0  0
 41 48  1  0  0  0
 42 43  1  0  0  0
 42 66  1  0  0  0
 42114  1  0  0  0
 42115  1  0  0  0
 43 44  1  0  0  0
 44116  1  0  0  0
 45 46  2  0  0  0
 45117  1  0  0  0
 46118  1  0  0  0
 47119  1  0  0  0
 47120  1  0  0  0
 48 56  1  0  0  0
 48 65  1  0  0  0
 48121  1  0  0  0
 49 50  1  0  0  0
 49 53  1  0  0  0
 49 64  1  0  0  0
 49122  1  0  0  0
 50 51  1  0  0  0
 50123  1  0  0  0
 50124  1  0  0  0
 51 52  1  0  0  0
 51125  1  0  0  0
 51126  1  0  0  0
 52127  1  0  0  0
 52128  1  0  0  0
 53 54  1  0  0  0
 54 55  2  0  0  0
 54129  1  0  0  0
 55 57  1  0  0  0
 55130  1  0  0  0
 56 69  2  0  0  0
 57 58  2  0  0  0
 57131  1  0  0  0
 58132  1  0  0  0
 59 60  1  0  0  0
 59 61  1  0  0  0
 59 62  1  0  0  0
 60133  1  0  0  0
 60134  1  0  0  0
 60135  1  0  0  0
 61136  1  0  0  0
 61137  1  0  0  0
 61138  1  0  0  0
 62139  1  0  0  0
 62140  1  0  0  0
 62141  1  0  0  0
 63 65  1  0  0  0
 63142  1  0  0  0
 63143  1  0  0  0
 63144  1  0  0  0
 64145  1  0  0  0
 65146  1  0  0  0
 68 83  1  0  0  0
 71 72  2  0  0  0
 71 73  1  0  0  0
 71147  1  0  0  0
 72 84  1  0  0  0
 72 81  1  0  0  0
 73 82  1  0  0  0
 73 85  2  0  0  0
 74 84  2  0  0  0
 74 85  1  0  0  0
 74 86  1  0  0  0
 75 76  1  0  0  0
 75 81  1  0  0  0
 75148  1  0  0  0
 75149  1  0  0  0
 76 81  1  0  0  0
 76150  1  0  0  0
 76151  1  0  0  0
 77 79  1  0  0  0
 77 86  1  0  0  0
 77152  1  0  0  0
 77153  1  0  0  0
 78 80  1  0  0  0
 78 86  1  0  0  0
 78154  1  0  0  0
 78155  1  0  0  0
 79 87  1  0  0  0
 79156  1  0  0  0
 79157  1  0  0  0
 80 87  1  0  0  0
 80158  1  0  0  0
 80159  1  0  0  0
 81160  1  0  0  0
 82 83  1  0  0  0
 82161  1  0  0  0
 82162  1  0  0  0
 83163  1  0  0  0
 83164  1  0  0  0
M  ISO  4   1 100  68 101  83 101  87 100
M  END
> <chiral flag>
0

> <version>
0

> <s_m_source_file>
/data/baiqing/PycharmProjects/Reinvent-master-3.2/result/LINK_invent/BTK/process_docking_weight1_custom_sum_contain_oxygen_bond_distance_aromatic_linkinvent_7_9_3/rearranged_h_0195.sdf

> <i_m_source_file_index>
24

> <r_mmod_Potential_Energy-OPLS-2005>
-150.763900756836

> <r_mmod_Stretch_Energy-OPLS-2005>
95.6624069213867

> <r_mmod_Bend_Energy-OPLS-2005>
166.188812255859

> <r_mmod_Torsional_Energy-OPLS-2005>
425.245880126953

> <r_mmod_Improper_Torsional_Energy-OPLS-2005>
20.4810523986816

> <r_mmod_Van_der_Waal_Energy-OPLS-2005>
141.397766113281

> <r_mmod_Electrostatic_Energy-OPLS-2005>
-825.432495117188

> <r_mmod_Solvation_Energy-OPLS-2005>
-239.277587890625

> <b_mmod_Minimization_Converged-OPLS-2005>
0

> <r_mmod_RMS_Derivative-OPLS-2005>
3.6610860824585

$$$$
24
                    3D
 Structure written by MMmdl.
157167  0  0  1  0            999 V2000
  -30.6371  -14.7964   20.4576 C   0  0  0  0  0  0
  -30.4251  -12.4923   19.4861 C   0  0  0  0  0  0
  -29.5095  -12.5098   18.2439 C   0  0  0  0  0  0
  -28.0396  -12.3254   18.6624 C   0  0  0  0  0  0
  -27.6366  -13.2452   19.8463 C   0  0  2  0  0  0
  -28.6811  -13.2342   20.9833 C   0  0  0  0  0  0
  -25.2493  -13.8232   20.5718 C   0  0  0  0  0  0
  -24.1793  -13.0457   20.9206 C   0  0  0  0  0  0
  -24.6404  -11.6939   20.8750 C   0  0  0  0  0  0
  -23.9090  -10.4306   21.0406 C   0  0  0  0  0  0
  -24.3632   -9.4217   21.9184 C   0  0  0  0  0  0
  -23.6301   -8.2255   22.0757 C   0  0  0  0  0  0
  -22.4286   -8.0292   21.3545 C   0  0  0  0  0  0
  -21.9926   -9.0270   20.4647 C   0  0  0  0  0  0
  -22.7259  -10.2146   20.3055 C   0  0  0  0  0  0
  -21.6858   -6.0741   22.5273 C   0  0  0  0  0  0
  -21.4016   -6.5641   23.8206 C   0  0  0  0  0  0
  -21.3660   -5.6793   24.9167 C   0  0  0  0  0  0
  -21.6045   -4.3056   24.7216 C   0  0  0  0  0  0
  -21.8820   -3.8150   23.4336 C   0  0  0  0  0  0
  -21.9192   -4.6969   22.3394 C   0  0  0  0  0  0
  -22.7812  -13.5224   21.1864 C   0  0  0  0  0  0
  -22.1662   -4.2156   21.0972 F   0  0  0  0  0  0
  -21.5630   -3.4541   25.7730 F   0  0  0  0  0  0
  -29.9740  -13.5847   20.3865 N   0  0  0  0  0  0
  -26.2927  -12.9464   20.3298 N   0  0  0  0  0  0
  -25.9341  -11.6590   20.5773 N   0  0  0  0  0  0
  -22.0465  -12.8205   22.0419 N   0  0  0  0  0  0
  -25.4196  -15.1956   20.4156 N   0  0  0  0  0  0
  -31.8348  -14.8179   20.1553 O   0  0  0  0  0  0
  -21.6643   -6.8890   21.4239 O   0  0  0  0  0  0
  -22.3493  -14.5530   20.6717 O   0  0  0  0  0  0
  -24.6384  -31.8521   23.1986 C   0  0  0  0  0  0
  -25.9189  -32.4732   23.8336 C   0  0  1  0  0  0
  -27.2047  -27.2054   20.1292 C   0  0  0  0  0  0
  -25.5964  -33.8536   24.2252 N   0  0  0  0  0  0
  -23.4362  -30.4787   21.5432 C   0  0  2  0  0  0
  -24.8824  -28.9301   20.1063 C   0  0  0  0  0  0
  -22.7534  -29.4595   22.4890 C   0  0  0  0  0  0
  -18.0296  -28.1393   22.8483 C   0  0  0  0  0  0
  -24.1487  -36.7271   23.2637 C   0  0  0  0  0  0
  -25.9904  -30.7462   21.3907 C   0  0  0  0  0  0
  -26.0588  -29.3671   20.7279 C   0  0  0  0  0  0
  -27.2220  -28.5177   20.7328 C   0  0  0  0  0  0
  -26.0080  -26.8773   19.4444 C   0  0  0  0  0  0
  -24.8665  -27.6951   19.4510 C   0  0  0  0  0  0
  -23.6568  -29.8225   20.1575 C   0  0  0  0  0  0
  -25.4113  -36.3052   24.0323 C   0  0  1  0  0  0
  -20.5909  -28.3717   23.1248 C   0  0  2  0  0  0
  -20.6785  -26.9427   22.5397 C   0  0  0  0  0  0
  -19.5754  -26.6385   21.5209 C   0  0  0  0  0  0
  -18.1935  -26.7932   22.1623 C   0  0  0  0  0  0
  -19.1552  -28.8872   23.2859 C   0  0  0  0  0  0
  -18.9471  -30.1471   23.8882 C   0  0  0  0  0  0
  -17.6469  -30.6592   24.0561 C   0  0  0  0  0  0
  -25.9068  -34.9425   23.5087 C   0  0  0  0  0  0
  -16.5361  -29.9087   23.6337 C   0  0  0  0  0  0
  -16.7280  -28.6503   23.0362 C   0  0  0  0  0  0
  -26.4528  -31.6574   25.0749 C   0  0  0  0  0  0
  -25.3729  -31.3756   26.1460 C   0  0  0  0  0  0
  -27.0380  -30.2969   24.6300 C   0  0  0  0  0  0
  -27.6080  -32.4328   25.7515 C   0  0  0  0  0  0
  -27.5580  -37.1780   24.8457 C   0  0  0  0  0  0
  -21.4235  -29.3058   22.3633 N   0  0  0  0  0  0
  -26.4275  -37.3765   23.9424 N   0  0  0  0  0  0
  -24.7077  -31.0443   22.0992 N   0  0  0  0  0  0
  -23.4207  -28.8119   23.2998 O   0  0  0  0  0  0
  -28.2403  -26.2201   20.2284 O   0  0  0  0  0  0
  -26.5635  -34.8904   22.4655 O   0  0  0  0  0  0
  -23.5518  -32.1373   23.7242 O   0  0  0  0  0  0
  -28.1086  -22.5362   21.3426 C   0  0  0  0  0  0
  -28.5923  -23.3868   20.3009 C   0  0  0  0  0  0
  -29.1930  -20.6396   20.4899 C   0  0  0  0  0  0
  -31.3680  -17.5267   21.8679 C   0  0  0  0  0  0
  -31.7226  -18.3077   20.5752 C   0  0  0  0  0  0
  -28.9797  -18.2312   21.5584 C   0  0  0  0  0  0
  -29.9630  -16.9724   19.3542 C   0  0  0  0  0  0
  -29.9402  -16.9419   21.7081 C   0  0  1  0  0  0
  -30.4463  -18.4603   19.7111 C   0  0  1  0  0  0
  -27.8594  -24.7757   19.9038 C   0  0  0  0  0  0
  -28.4046  -21.1890   21.4315 N   0  0  0  0  0  0
  -29.4104  -22.7483   19.3984 N   0  0  0  0  0  0
  -29.7174  -21.4122   19.5005 N   0  0  0  0  0  0
  -29.4401  -19.1984   20.5146 N   0  0  0  0  0  0
  -29.9246  -16.0112   20.5196 N   0  0  0  0  0  0
  -31.4664  -12.6032   19.1798 H   0  0  0  0  0  0
  -30.3671  -11.5296   19.9964 H   0  0  0  0  0  0
  -29.8020  -11.7237   17.5461 H   0  0  0  0  0  0
  -29.6263  -13.4545   17.7102 H   0  0  0  0  0  0
  -27.9119  -11.2806   18.9487 H   0  0  0  0  0  0
  -27.3783  -12.4901   17.8108 H   0  0  0  0  0  0
  -27.6162  -14.2577   19.4415 H   0  0  0  0  0  0
  -28.7292  -12.2576   21.4674 H   0  0  0  0  0  0
  -28.4099  -13.9550   21.7569 H   0  0  0  0  0  0
  -25.2775   -9.5688   22.4762 H   0  0  0  0  0  0
  -24.0004   -7.4648   22.7481 H   0  0  0  0  0  0
  -21.0856   -8.8796   19.8952 H   0  0  0  0  0  0
  -22.3722  -10.9688   19.6166 H   0  0  0  0  0  0
  -21.2010   -7.6148   23.9710 H   0  0  0  0  0  0
  -21.1481   -6.0523   25.9071 H   0  0  0  0  0  0
  -22.0599   -2.7616   23.2833 H   0  0  0  0  0  0
  -22.4087  -11.9859   22.4786 H   0  0  0  0  0  0
  -21.1086  -13.1228   22.2640 H   0  0  0  0  0  0
  -24.6561  -15.8535   20.5300 H   0  0  0  0  0  0
  -26.2792  -15.6349   20.1120 H   0  0  0  0  0  0
  -26.7254  -32.5355   23.1070 H   0  0  0  0  0  0
  -25.0110  -33.9666   25.0398 H   0  0  0  0  0  0
  -22.7351  -31.3038   21.3994 H   0  0  0  0  0  0
  -23.3756  -35.9591   23.3267 H   0  0  0  0  0  0
  -24.3587  -36.8928   22.2059 H   0  0  0  0  0  0
  -23.7229  -37.6456   23.6684 H   0  0  0  0  0  0
  -26.1418  -31.5062   20.6228 H   0  0  0  0  0  0
  -26.8631  -30.7896   22.0303 H   0  0  0  0  0  0
  -28.1126  -28.8415   21.2529 H   0  0  0  0  0  0
  -25.8953  -25.9503   18.9043 H   0  0  0  0  0  0
  -23.9718  -27.3617   18.9432 H   0  0  0  0  0  0
  -23.7856  -30.6037   19.4077 H   0  0  0  0  0  0
  -22.7725  -29.2628   19.8469 H   0  0  0  0  0  0
  -25.1287  -36.1882   25.0813 H   0  0  0  0  0  0
  -21.0001  -28.3300   24.1370 H   0  0  0  0  0  0
  -20.5692  -26.2328   23.3612 H   0  0  0  0  0  0
  -21.6651  -26.7445   22.1187 H   0  0  0  0  0  0
  -19.6919  -25.6295   21.1247 H   0  0  0  0  0  0
  -19.6686  -27.3189   20.6736 H   0  0  0  0  0  0
  -17.4203  -26.6681   21.4026 H   0  0  0  0  0  0
  -18.0337  -26.0074   22.9022 H   0  0  0  0  0  0
  -19.7947  -30.7290   24.2244 H   0  0  0  0  0  0
  -17.5021  -31.6271   24.5167 H   0  0  0  0  0  0
  -15.5362  -30.2982   23.7674 H   0  0  0  0  0  0
  -15.8680  -28.0815   22.7097 H   0  0  0  0  0  0
  -24.5906  -30.7098   25.7795 H   0  0  0  0  0  0
  -24.8923  -32.2936   26.4851 H   0  0  0  0  0  0
  -25.8030  -30.8958   27.0262 H   0  0  0  0  0  0
  -26.2989  -29.6699   24.1299 H   0  0  0  0  0  0
  -27.3991  -29.7256   25.4864 H   0  0  0  0  0  0
  -27.8896  -30.4203   23.9608 H   0  0  0  0  0  0
  -27.2704  -33.3673   26.2009 H   0  0  0  0  0  0
  -28.3928  -32.6814   25.0358 H   0  0  0  0  0  0
  -28.0693  -31.8499   26.5496 H   0  0  0  0  0  0
  -28.2556  -38.0117   24.7561 H   0  0  0  0  0  0
  -28.1118  -36.2656   24.6202 H   0  0  0  0  0  0
  -27.2312  -37.1330   25.8859 H   0  0  0  0  0  0
  -20.9433  -29.8790   21.6838 H   0  0  0  0  0  0
  -26.0142  -38.2822   24.1466 H   0  0  0  0  0  0
  -27.3850  -22.9096   22.0523 H   0  0  0  0  0  0
  -31.3915  -18.2030   22.7240 H   0  0  0  0  0  0
  -32.1100  -16.7544   22.0748 H   0  0  0  0  0  0
  -32.4842  -17.7675   20.0107 H   0  0  0  0  0  0
  -32.1543  -19.2801   20.8173 H   0  0  0  0  0  0
  -28.9323  -18.7544   22.5150 H   0  0  0  0  0  0
  -27.9590  -17.9200   21.3333 H   0  0  0  0  0  0
  -30.6235  -16.5756   18.5807 H   0  0  0  0  0  0
  -28.9737  -17.0006   18.8959 H   0  0  0  0  0  0
  -29.6576  -16.3755   22.5972 H   0  0  0  0  0  0
  -30.6636  -19.0114   18.7948 H   0  0  0  0  0  0
  -26.8623  -24.6164   20.3152 H   0  0  0  0  0  0
  -27.7462  -24.7317   18.8198 H   0  0  0  0  0  0
  1 25  1  0  0  0
  1 30  2  0  0  0
  1 85  1  0  0  0
  2  3  1  0  0  0
  2 25  1  0  0  0
  2 86  1  0  0  0
  2 87  1  0  0  0
  3  4  1  0  0  0
  3 88  1  0  0  0
  3 89  1  0  0  0
  4  5  1  0  0  0
  4 90  1  0  0  0
  4 91  1  0  0  0
  5  6  1  0  0  0
  5 26  1  0  0  0
  5 92  1  0  0  0
  6 25  1  0  0  0
  6 93  1  0  0  0
  6 94  1  0  0  0
  7  8  2  0  0  0
  7 26  1  0  0  0
  7 29  1  0  0  0
  8  9  1  0  0  0
  8 22  1  0  0  0
  9 10  1  0  0  0
  9 27  2  0  0  0
 10 11  2  0  0  0
 10 15  1  0  0  0
 11 12  1  0  0  0
 11 95  1  0  0  0
 12 13  2  0  0  0
 12 96  1  0  0  0
 13 14  1  0  0  0
 13 31  1  0  0  0
 14 15  2  0  0  0
 14 97  1  0  0  0
 15 98  1  0  0  0
 16 17  2  0  0  0
 16 21  1  0  0  0
 16 31  1  0  0  0
 17 18  1  0  0  0
 17 99  1  0  0  0
 18 19  2  0  0  0
 18100  1  0  0  0
 19 20  1  0  0  0
 19 24  1  0  0  0
 20 21  2  0  0  0
 20101  1  0  0  0
 21 23  1  0  0  0
 22 28  1  0  0  0
 22 32  2  0  0  0
 26 27  1  0  0  0
 28102  1  0  0  0
 28103  1  0  0  0
 29104  1  0  0  0
 29105  1  0  0  0
 33 34  1  0  0  0
 33 66  1  0  0  0
 33 70  2  0  0  0
 34 36  1  0  0  0
 34 59  1  0  0  0
 34106  1  0  0  0
 35 44  2  0  0  0
 35 45  1  0  0  0
 35 68  1  0  0  0
 36 56  1  0  0  0
 36107  1  0  0  0
 37 39  1  0  0  0
 37 47  1  0  0  0
 37 66  1  0  0  0
 37108  1  0  0  0
 38 43  2  0  0  0
 38 46  1  0  0  0
 38 47  1  0  0  0
 39 64  1  0  0  0
 39 67  2  0  0  0
 40 52  1  0  0  0
 40 53  2  0  0  0
 40 58  1  0  0  0
 41109  1  0  0  0
 41110  1  0  0  0
 41111  1  0  0  0
 41 48  1  0  0  0
 42 43  1  0  0  0
 42 66  1  0  0  0
 42112  1  0  0  0
 42113  1  0  0  0
 43 44  1  0  0  0
 44114  1  0  0  0
 45 46  2  0  0  0
 45115  1  0  0  0
 46116  1  0  0  0
 47117  1  0  0  0
 47118  1  0  0  0
 48 56  1  0  0  0
 48 65  1  0  0  0
 48119  1  0  0  0
 49 50  1  0  0  0
 49 53  1  0  0  0
 49 64  1  0  0  0
 49120  1  0  0  0
 50 51  1  0  0  0
 50121  1  0  0  0
 50122  1  0  0  0
 51 52  1  0  0  0
 51123  1  0  0  0
 51124  1  0  0  0
 52125  1  0  0  0
 52126  1  0  0  0
 53 54  1  0  0  0
 54 55  2  0  0  0
 54127  1  0  0  0
 55 57  1  0  0  0
 55128  1  0  0  0
 56 69  2  0  0  0
 57 58  2  0  0  0
 57129  1  0  0  0
 58130  1  0  0  0
 59 60  1  0  0  0
 59 61  1  0  0  0
 59 62  1  0  0  0
 60131  1  0  0  0
 60132  1  0  0  0
 60133  1  0  0  0
 61134  1  0  0  0
 61135  1  0  0  0
 61136  1  0  0  0
 62137  1  0  0  0
 62138  1  0  0  0
 62139  1  0  0  0
 63 65  1  0  0  0
 63140  1  0  0  0
 63141  1  0  0  0
 63142  1  0  0  0
 64143  1  0  0  0
 65144  1  0  0  0
 68 80  1  0  0  0
 71 72  2  0  0  0
 71 81  1  0  0  0
 71145  1  0  0  0
 72 80  1  0  0  0
 72 82  1  0  0  0
 73 81  2  0  0  0
 73 83  1  0  0  0
 73 84  1  0  0  0
 74 75  1  0  0  0
 74146  1  0  0  0
 74147  1  0  0  0
 74 78  1  0  0  0
 75148  1  0  0  0
 75149  1  0  0  0
 75 79  1  0  0  0
 76 78  1  0  0  0
 76 84  1  0  0  0
 76150  1  0  0  0
 76151  1  0  0  0
 77 79  1  0  0  0
 77 85  1  0  0  0
 77152  1  0  0  0
 77153  1  0  0  0
 78 85  1  0  0  0
 78154  1  0  0  0
 79 84  1  0  0  0
 79155  1  0  0  0
 80156  1  0  0  0
 80157  1  0  0  0
 82 83  2  0  0  0
M  ISO  4   1 100  68 101  80 101  85 100
M  END
> <chiral flag>
0

> <version>
0

> <s_m_source_file>
/data/baiqing/PycharmProjects/Reinvent-master-3.2/result/LINK_invent/BTK/process_docking_weight1_custom_sum_contain_oxygen_bond_distance_aromatic_linkinvent_7_9_3/rearranged_h_0195.sdf

> <i_m_source_file_index>
25

> <r_mmod_Potential_Energy-OPLS-2005>
528.045043945312

> <r_mmod_Stretch_Energy-OPLS-2005>
161.458953857422

> <r_mmod_Bend_Energy-OPLS-2005>
228.899520874023

> <r_mmod_Torsional_Energy-OPLS-2005>
414.386322021484

> <r_mmod_Improper_Torsional_Energy-OPLS-2005>
17.9876117706299

> <r_mmod_Van_der_Waal_Energy-OPLS-2005>
185.686157226562

> <r_mmod_Electrostatic_Energy-OPLS-2005>
-376.377349853516

> <r_mmod_Solvation_Energy-OPLS-2005>
-228.59797668457

> <b_mmod_Minimization_Converged-OPLS-2005>
0

> <r_mmod_RMS_Derivative-OPLS-2005>
0.841723144054413

$$$$
25
                    3D
 Structure written by MMmdl.
165174  0  0  1  0            999 V2000
  -29.3101  -15.6603   20.7830 C   0  0  0  0  0  0
  -30.2497  -13.2708   19.7293 C   0  0  0  0  0  0
  -29.5140  -12.7394   18.4447 C   0  0  0  0  0  0
  -28.0842  -12.2701   18.7667 C   0  0  0  0  0  0
  -27.4818  -13.2077   19.8266 C   0  0  2  0  0  0
  -28.3516  -13.3267   21.0666 C   0  0  0  0  0  0
  -25.1703  -13.7919   20.5552 C   0  0  0  0  0  0
  -24.1199  -13.0194   20.9392 C   0  0  0  0  0  0
  -24.5825  -11.6682   20.8842 C   0  0  0  0  0  0
  -23.8675  -10.4108   21.0513 C   0  0  0  0  0  0
  -24.3380   -9.4070   21.9241 C   0  0  0  0  0  0
  -23.6158   -8.2065   22.0756 C   0  0  0  0  0  0
  -22.4158   -8.0100   21.3535 C   0  0  0  0  0  0
  -21.9703   -9.0025   20.4656 C   0  0  0  0  0  0
  -22.6915  -10.1944   20.3100 C   0  0  0  0  0  0
  -21.6783   -6.0644   22.5292 C   0  0  0  0  0  0
  -21.3969   -6.5588   23.8213 C   0  0  0  0  0  0
  -21.3650   -5.6760   24.9186 C   0  0  0  0  0  0
  -21.6045   -4.3020   24.7245 C   0  0  0  0  0  0
  -21.8817   -3.8095   23.4370 C   0  0  0  0  0  0
  -21.9169   -4.6894   22.3421 C   0  0  0  0  0  0
  -22.7329  -13.5049   21.2118 C   0  0  0  0  0  0
  -22.1662   -4.2096   21.0997 F   0  0  0  0  0  0
  -21.5637   -3.4517   25.7764 F   0  0  0  0  0  0
  -29.3509  -14.2116   20.5797 N   0  0  0  0  0  0
  -26.1722  -12.8952   20.2632 N   0  0  0  0  0  0
  -25.8571  -11.6180   20.5446 N   0  0  0  0  0  0
  -22.0030  -12.8085   22.0726 N   0  0  0  0  0  0
  -25.3464  -15.1637   20.3864 N   0  0  0  0  0  0
  -30.5280  -15.9556   20.5454 O   0  0  0  0  0  0
  -21.6551   -6.8716   21.4229 O   0  0  0  0  0  0
  -22.3130  -14.5388   20.6936 O   0  0  0  0  0  0
  -24.6507  -31.9411   23.2348 C   0  0  0  0  0  0
  -25.9452  -32.5071   23.8647 C   0  0  1  0  0  0
  -26.1735  -27.2328   20.3362 C   0  0  0  0  0  0
  -25.6347  -33.8829   24.2578 N   0  0  0  0  0  0
  -23.4463  -30.5876   21.6092 C   0  0  2  0  0  0
  -24.8521  -29.3578   19.7978 C   0  0  0  0  0  0
  -23.0978  -29.4688   22.6302 C   0  0  0  0  0  0
  -18.6867  -27.4980   22.4910 C   0  0  0  0  0  0
  -24.1525  -36.7354   23.2589 C   0  0  0  0  0  0
  -25.9796  -30.8372   21.4398 C   0  0  0  0  0  0
  -25.9193  -29.5377   20.6753 C   0  0  0  0  0  0
  -26.7656  -28.4301   20.8549 C   0  0  0  0  0  0
  -25.9064  -27.2963   19.0016 C   0  0  0  0  0  0
  -24.9834  -28.3390   18.8031 C   0  0  0  0  0  0
  -23.6000  -30.1630   20.0993 C   0  0  0  0  0  0
  -25.4138  -36.3194   24.0318 C   0  0  1  0  0  0
  -21.4658  -27.9197   23.5601 C   0  0  2  0  0  0
  -22.5584  -26.3177   22.6880 C   0  0  0  0  0  0
  -20.9848  -25.1620   21.0435 C   0  0  0  0  0  0
  -19.0264  -26.0472   21.3848 C   0  0  0  0  0  0
  -19.7158  -28.2584   23.3548 C   0  0  0  0  0  0
  -19.2545  -29.5318   23.9379 C   0  0  0  0  0  0
  -17.9395  -30.0745   23.9083 C   0  0  0  0  0  0
  -25.9146  -34.9594   23.5152 C   0  0  0  0  0  0
  -16.9502  -29.3061   23.2890 C   0  0  0  0  0  0
  -17.3298  -28.0887   22.6146 C   0  0  0  0  0  0
  -26.4575  -31.6679   25.0974 C   0  0  0  0  0  0
  -25.3678  -31.3846   26.1576 C   0  0  0  0  0  0
  -27.0387  -30.3055   24.6502 C   0  0  0  0  0  0
  -27.6137  -32.4324   25.7817 C   0  0  0  0  0  0
  -27.5618  -37.1863   24.8454 C   0  0  0  0  0  0
  -21.8779  -29.2588   23.0446 N   0  0  0  0  0  0
  -26.4306  -37.3883   23.9434 N   0  0  0  0  0  0
  -24.7054  -31.1901   22.1061 N   0  0  0  0  0  0
  -23.9585  -28.7930   23.1663 O   0  0  0  0  0  0
  -24.8641  -26.9081   20.8808 O   0  0  0  0  0  0
  -26.5529  -34.8985   22.4607 O   0  0  0  0  0  0
  -23.5695  -32.2090   23.7835 O   0  0  0  0  0  0
  -22.9204  -20.0128   21.4072 C   0  0  0  0  0  0
  -21.5687  -19.8395   21.1290 C   0  0  0  0  0  0
  -21.0311  -21.8922   22.0861 C   0  0  0  0  0  0
  -22.3320  -22.3323   22.4763 C   0  0  0  0  0  0
  -23.5652  -21.0841   22.1040 C   0  0  0  0  0  0
  -25.7043  -18.7083   22.5183 C   0  0  0  0  0  0
  -25.9598  -19.3535   20.8190 C   0  0  0  0  0  0
  -27.1353  -18.2634   21.5677 C   0  0  0  0  0  0
  -20.4215  -27.6540   19.8865 C   0  0  0  0  0  0
  -21.5749  -23.9970   23.3351 C   0  0  0  0  0  0
  -23.0802  -27.1312   20.4690 C   0  0  0  0  0  0
  -21.1589  -27.3386   21.3007 C   0  0  2  0  0  0
  -20.6961  -20.7574   21.4853 N   0  3  0  0  0  0
  -25.1876  -20.1782   22.0158 N   0  0  0  0  0  0
  -27.9934  -16.6106   21.1201 N   0  0  0  0  0  0
  -20.5213  -25.6776   23.1283 N   0  3  0  0  0  0
  -31.1505  -13.8060   19.4273 H   0  0  0  0  0  0
  -30.6115  -12.4424   20.3414 H   0  0  0  0  0  0
  -30.0866  -11.9464   17.9639 H   0  0  0  0  0  0
  -29.4447  -13.5498   17.7166 H   0  0  0  0  0  0
  -28.1078  -11.2459   19.1431 H   0  0  0  0  0  0
  -27.4705  -12.2638   17.8672 H   0  0  0  0  0  0
  -27.3853  -14.1678   19.3137 H   0  0  0  0  0  0
  -28.7179  -12.3607   21.4271 H   0  0  0  0  0  0
  -27.8202  -13.8040   21.8916 H   0  0  0  0  0  0
  -25.2519   -9.5585   22.4803 H   0  0  0  0  0  0
  -23.9900   -7.4421   22.7415 H   0  0  0  0  0  0
  -21.0650   -8.8421   19.8965 H   0  0  0  0  0  0
  -22.3311  -10.9455   19.6208 H   0  0  0  0  0  0
  -21.1959   -7.6099   23.9698 H   0  0  0  0  0  0
  -21.1498   -6.0506   25.9087 H   0  0  0  0  0  0
  -22.0622   -2.7562   23.2874 H   0  0  0  0  0  0
  -22.3644  -11.9699   22.5023 H   0  0  0  0  0  0
  -21.0696  -13.1164   22.3072 H   0  0  0  0  0  0
  -24.4413  -15.6219   20.4175 H   0  0  0  0  0  0
  -25.8156  -15.3884   19.5159 H   0  0  0  0  0  0
  -26.7567  -32.5571   23.1409 H   0  0  0  0  0  0
  -25.0661  -34.0005   25.0830 H   0  0  0  0  0  0
  -22.6420  -31.3256   21.6415 H   0  0  0  0  0  0
  -23.3819  -35.9654   23.3209 H   0  0  0  0  0  0
  -24.3655  -36.9001   22.2018 H   0  0  0  0  0  0
  -23.7238  -37.6531   23.6616 H   0  0  0  0  0  0
  -26.2412  -31.6354   20.7434 H   0  0  0  0  0  0
  -26.8208  -30.7333   22.1132 H   0  0  0  0  0  0
  -27.5103  -28.4179   21.6392 H   0  0  0  0  0  0
  -25.7907  -26.4082   18.3957 H   0  0  0  0  0  0
  -24.2877  -28.2768   17.9764 H   0  0  0  0  0  0
  -23.6722  -31.0724   19.5021 H   0  0  0  0  0  0
  -22.6874  -29.7007   19.7432 H   0  0  0  0  0  0
  -25.1282  -36.2053   25.0802 H   0  0  0  0  0  0
  -21.6664  -27.9137   24.6335 H   0  0  0  0  0  0
  -22.8440  -25.8824   23.6366 H   0  0  0  0  0  0
  -23.6222  -26.3739   22.5554 H   0  0  0  0  0  0
  -20.9199  -24.0900   21.0560 H   0  0  0  0  0  0
  -21.2785  -25.2159   19.9989 H   0  0  0  0  0  0
  -18.4892  -26.1708   20.4431 H   0  0  0  0  0  0
  -18.4119  -25.2544   21.8206 H   0  0  0  0  0  0
  -19.9771  -30.1136   24.4958 H   0  0  0  0  0  0
  -17.7012  -31.0069   24.4002 H   0  0  0  0  0  0
  -15.9193  -29.6349   23.2789 H   0  0  0  0  0  0
  -16.5392  -27.5715   22.0907 H   0  0  0  0  0  0
  -24.5863  -30.7231   25.7815 H   0  0  0  0  0  0
  -24.8869  -32.3031   26.4944 H   0  0  0  0  0  0
  -25.7856  -30.9015   27.0413 H   0  0  0  0  0  0
  -26.3023  -29.6880   24.1363 H   0  0  0  0  0  0
  -27.3818  -29.7238   25.5071 H   0  0  0  0  0  0
  -27.9033  -30.4273   23.9978 H   0  0  0  0  0  0
  -27.2766  -33.3619   26.2413 H   0  0  0  0  0  0
  -28.3978  -32.6875   25.0678 H   0  0  0  0  0  0
  -28.0759  -31.8420   26.5731 H   0  0  0  0  0  0
  -28.2559  -38.0235   24.7609 H   0  0  0  0  0  0
  -28.1201  -36.2779   24.6140 H   0  0  0  0  0  0
  -27.2367  -37.1334   25.8857 H   0  0  0  0  0  0
  -21.1406  -29.8965   22.7735 H   0  0  0  0  0  0
  -26.0184  -38.2941   24.1495 H   0  0  0  0  0  0
  -23.4384  -19.1467   21.0422 H   0  0  0  0  0  0
  -21.1592  -18.9681   20.6331 H   0  0  0  0  0  0
  -20.1347  -22.4682   22.2662 H   0  0  0  0  0  0
  -25.9481  -18.7634   23.5776 H   0  0  0  0  0  0
  -24.9177  -17.9512   22.4079 H   0  0  0  0  0  0
  -25.2685  -18.7721   20.2026 H   0  0  0  0  0  0
  -26.4321  -20.0424   20.1195 H   0  0  0  0  0  0
  -27.9350  -18.8927   21.9526 H   0  0  0  0  0  0
  -20.9514  -28.4120   19.3116 H   0  0  0  0  0  0
  -19.4259  -28.0965   19.9848 H   0  0  0  0  0  0
  -20.3282  -26.8279   19.1836 H   0  0  0  0  0  0
  -22.2827  -24.1138   24.1544 H   0  0  0  0  0  0
  -20.8241  -23.5155   23.9613 H   0  0  0  0  0  0
  -22.9209  -27.6386   19.5361 H   0  0  0  0  0  0
  -23.0663  -26.1402   20.0289 H   0  0  0  0  0  0
  -20.8628  -28.3672   21.3487 H   0  0  0  0  0  0
  -19.7059  -20.5856   21.2908 H   0  0  0  0  0  0
  -27.2139  -15.9577   21.1063 H   0  0  0  0  0  0
  -20.5195  -26.1365   24.0234 H   0  0  0  0  0  0
  -19.5673  -25.4152   22.9490 H   0  0  0  0  0  0
  1 25  1  0  0  0
  1 30  2  0  0  0
  1 85  1  0  0  0
  2  3  1  0  0  0
  2 25  1  0  0  0
  2 87  1  0  0  0
  2 88  1  0  0  0
  3  4  1  0  0  0
  3 89  1  0  0  0
  3 90  1  0  0  0
  4  5  1  0  0  0
  4 91  1  0  0  0
  4 92  1  0  0  0
  5  6  1  0  0  0
  5 26  1  0  0  0
  5 93  1  0  0  0
  6 25  1  0  0  0
  6 94  1  0  0  0
  6 95  1  0  0  0
  7  8  2  0  0  0
  7 26  1  0  0  0
  7 29  1  0  0  0
  8  9  1  0  0  0
  8 22  1  0  0  0
  9 10  1  0  0  0
  9 27  2  0  0  0
 10 11  2  0  0  0
 10 15  1  0  0  0
 11 12  1  0  0  0
 11 96  1  0  0  0
 12 13  2  0  0  0
 12 97  1  0  0  0
 13 14  1  0  0  0
 13 31  1  0  0  0
 14 15  2  0  0  0
 14 98  1  0  0  0
 15 99  1  0  0  0
 16 17  2  0  0  0
 16 21  1  0  0  0
 16 31  1  0  0  0
 17 18  1  0  0  0
 17100  1  0  0  0
 18 19  2  0  0  0
 18101  1  0  0  0
 19 20  1  0  0  0
 19 24  1  0  0  0
 20 21  2  0  0  0
 20102  1  0  0  0
 21 23  1  0  0  0
 22 28  1  0  0  0
 22 32  2  0  0  0
 26 27  1  0  0  0
 28103  1  0  0  0
 28104  1  0  0  0
 29105  1  0  0  0
 29106  1  0  0  0
 33 34  1  0  0  0
 33 66  1  0  0  0
 33 70  2  0  0  0
 34 36  1  0  0  0
 34 59  1  0  0  0
 34107  1  0  0  0
 35 44  2  0  0  0
 35 45  1  0  0  0
 35 68  1  0  0  0
 36 56  1  0  0  0
 36108  1  0  0  0
 37 39  1  0  0  0
 37 47  1  0  0  0
 37 66  1  0  0  0
 37109  1  0  0  0
 38 43  2  0  0  0
 38 46  1  0  0  0
 38 47  1  0  0  0
 39 64  1  0  0  0
 39 67  2  0  0  0
 40 52  1  0  0  0
 40 53  2  0  0  0
 40 58  1  0  0  0
 41110  1  0  0  0
 41111  1  0  0  0
 41112  1  0  0  0
 41 48  1  0  0  0
 42 43  1  0  0  0
 42 66  1  0  0  0
 42113  1  0  0  0
 42114  1  0  0  0
 43 44  1  0  0  0
 44115  1  0  0  0
 45 46  2  0  0  0
 45116  1  0  0  0
 46117  1  0  0  0
 47118  1  0  0  0
 47119  1  0  0  0
 48 56  1  0  0  0
 48 65  1  0  0  0
 48120  1  0  0  0
 49 50  1  0  0  0
 49 53  1  0  0  0
 49 64  1  0  0  0
 49121  1  0  0  0
 50 51  1  0  0  0
 50122  1  0  0  0
 50123  1  0  0  0
 51 52  1  0  0  0
 51124  1  0  0  0
 51125  1  0  0  0
 52126  1  0  0  0
 52127  1  0  0  0
 53 54  1  0  0  0
 54 55  2  0  0  0
 54128  1  0  0  0
 55 57  1  0  0  0
 55129  1  0  0  0
 56 69  2  0  0  0
 57 58  2  0  0  0
 57130  1  0  0  0
 58131  1  0  0  0
 59 60  1  0  0  0
 59 61  1  0  0  0
 59 62  1  0  0  0
 60132  1  0  0  0
 60133  1  0  0  0
 60134  1  0  0  0
 61135  1  0  0  0
 61136  1  0  0  0
 61137  1  0  0  0
 62138  1  0  0  0
 62139  1  0  0  0
 62140  1  0  0  0
 63 65  1  0  0  0
 63141  1  0  0  0
 63142  1  0  0  0
 63143  1  0  0  0
 64144  1  0  0  0
 65145  1  0  0  0
 68 81  1  0  0  0
 71 72  2  0  0  0
 71 75  1  0  0  0
 71146  1  0  0  0
 72 83  1  0  0  0
 72147  1  0  0  0
 73 74  1  0  0  0
 73 83  2  0  0  0
 73148  1  0  0  0
 74 75  2  0  0  0
 74 80  1  0  0  0
 75 84  1  0  0  0
 76 78  1  0  0  0
 76 84  1  0  0  0
 76149  1  0  0  0
 76150  1  0  0  0
 77 78  1  0  0  0
 77 84  1  0  0  0
 77151  1  0  0  0
 77152  1  0  0  0
 78 85  1  0  0  0
 78153  1  0  0  0
 79154  1  0  0  0
 79155  1  0  0  0
 79156  1  0  0  0
 79 82  1  0  0  0
 80 86  1  0  0  0
 80157  1  0  0  0
 80158  1  0  0  0
 81 82  1  0  0  0
 81159  1  0  0  0
 81160  1  0  0  0
 82 86  1  0  0  0
 82161  1  0  0  0
 83162  1  0  0  0
 85163  1  0  0  0
 86164  1  0  0  0
 86165  1  0  0  0
M  CHG  2  83   1  86   1
M  ISO  4   1 100  68 101  81 101  85 100
M  END
> <chiral flag>
0

> <version>
0

> <s_m_source_file>
/data/baiqing/PycharmProjects/Reinvent-master-3.2/result/LINK_invent/BTK/process_docking_weight1_custom_sum_contain_oxygen_bond_distance_aromatic_linkinvent_7_9_3/rearranged_h_0195.sdf

> <i_m_source_file_index>
26

> <r_mmod_Potential_Energy-OPLS-2005>
15208.6220703125

> <r_mmod_Stretch_Energy-OPLS-2005>
7069.40283203125

> <r_mmod_Bend_Energy-OPLS-2005>
1855.64978027344

> <r_mmod_Torsional_Energy-OPLS-2005>
552.912353515625

> <r_mmod_Improper_Torsional_Energy-OPLS-2005>
52.1430358886719

> <r_mmod_Van_der_Waal_Energy-OPLS-2005>
2186.470703125

> <r_mmod_Electrostatic_Energy-OPLS-2005>
10.3495969772339

> <r_mmod_Solvation_Energy-OPLS-2005>
-921.361938476562

> <b_mmod_Minimization_Converged-OPLS-2005>
0

> <r_mmod_RMS_Derivative-OPLS-2005>
6.01119756698608

$$$$
27
                    3D
 Structure written by MMmdl.
167176  0  0  1  0            999 V2000
  -30.6872  -14.4479   20.6333 C   0  0  0  0  0  0
  -30.4309  -12.3113   19.4092 C   0  0  0  0  0  0
  -29.4955  -12.5178   18.1994 C   0  0  0  0  0  0
  -28.0145  -12.3743   18.6103 C   0  0  0  0  0  0
  -27.6637  -13.1991   19.8782 C   0  0  2  0  0  0
  -28.7000  -12.9380   20.9908 C   0  0  0  0  0  0
  -25.2598  -13.8159   20.5695 C   0  0  0  0  0  0
  -24.1826  -13.0440   20.9148 C   0  0  0  0  0  0
  -24.6377  -11.6904   20.8730 C   0  0  0  0  0  0
  -23.9050  -10.4289   21.0403 C   0  0  0  0  0  0
  -24.3598   -9.4200   21.9175 C   0  0  0  0  0  0
  -23.6267   -8.2240   22.0756 C   0  0  0  0  0  0
  -22.4251   -8.0283   21.3547 C   0  0  0  0  0  0
  -21.9888   -9.0257   20.4647 C   0  0  0  0  0  0
  -22.7225  -10.2128   20.3051 C   0  0  0  0  0  0
  -21.6833   -6.0747   22.5293 C   0  0  0  0  0  0
  -21.4012   -6.5647   23.8233 C   0  0  0  0  0  0
  -21.3659   -5.6793   24.9193 C   0  0  0  0  0  0
  -21.6037   -4.3062   24.7232 C   0  0  0  0  0  0
  -21.8813   -3.8161   23.4350 C   0  0  0  0  0  0
  -21.9188   -4.6981   22.3411 C   0  0  0  0  0  0
  -22.7854  -13.5255   21.1832 C   0  0  0  0  0  0
  -22.1658   -4.2181   21.0987 F   0  0  0  0  0  0
  -21.5610   -3.4529   25.7729 F   0  0  0  0  0  0
  -30.0325  -13.2677   20.4527 N   0  0  0  0  0  0
  -26.3021  -12.9311   20.3386 N   0  0  0  0  0  0
  -25.9303  -11.6481   20.5777 N   0  0  0  0  0  0
  -22.0479  -12.8244   22.0384 N   0  0  0  0  0  0
  -25.4342  -15.1881   20.4213 N   0  0  0  0  0  0
  -31.7691  -14.7089   20.0961 O   0  0  0  0  0  0
  -21.6612   -6.8886   21.4253 O   0  0  0  0  0  0
  -22.3542  -14.5564   20.6701 O   0  0  0  0  0  0
  -24.6130  -31.8694   23.2099 C   0  0  0  0  0  0
  -25.9031  -32.4823   23.8395 C   0  0  1  0  0  0
  -27.2374  -27.4482   20.1008 C   0  0  0  0  0  0
  -25.5895  -33.8620   24.2331 N   0  0  0  0  0  0
  -23.3997  -30.4916   21.5503 C   0  0  2  0  0  0
  -24.8472  -28.9512   20.1215 C   0  0  0  0  0  0
  -22.7390  -29.4672   22.5002 C   0  0  0  0  0  0
  -18.0271  -28.1378   22.8496 C   0  0  0  0  0  0
  -24.1484  -36.7318   23.2640 C   0  0  0  0  0  0
  -25.9257  -30.8381   21.3592 C   0  0  0  0  0  0
  -26.0049  -29.4694   20.7162 C   0  0  0  0  0  0
  -27.2046  -28.7254   20.7024 C   0  0  0  0  0  0
  -26.0660  -26.9339   19.5087 C   0  0  0  0  0  0
  -24.8710  -27.6810   19.5167 C   0  0  0  0  0  0
  -23.6080  -29.8182   20.1667 C   0  0  0  0  0  0
  -25.4103  -36.3112   24.0342 C   0  0  1  0  0  0
  -20.5856  -28.3666   23.1323 C   0  0  2  0  0  0
  -20.6761  -26.9405   22.5419 C   0  0  0  0  0  0
  -19.5742  -26.6389   21.5213 C   0  0  0  0  0  0
  -18.1919  -26.7926   22.1624 C   0  0  0  0  0  0
  -19.1519  -28.8838   23.2907 C   0  0  0  0  0  0
  -18.9449  -30.1442   23.8917 C   0  0  0  0  0  0
  -17.6453  -30.6583   24.0571 C   0  0  0  0  0  0
  -25.9031  -34.9479   23.5134 C   0  0  0  0  0  0
  -16.5343  -29.9088   23.6326 C   0  0  0  0  0  0
  -16.7261  -28.6506   23.0345 C   0  0  0  0  0  0
  -26.4476  -31.6589   25.0708 C   0  0  0  0  0  0
  -25.3760  -31.3681   26.1468 C   0  0  0  0  0  0
  -27.0292  -30.3034   24.6052 C   0  0  0  0  0  0
  -27.6059  -32.4301   25.7463 C   0  0  0  0  0  0
  -27.5577  -37.1810   24.8468 C   0  0  0  0  0  0
  -21.4122  -29.3037   22.3731 N   0  0  0  0  0  0
  -26.4290  -37.3793   23.9412 N   0  0  0  0  0  0
  -24.6645  -31.0806   22.0987 N   0  0  0  0  0  0
  -23.4168  -28.8227   23.3050 O   0  0  0  0  0  0
  -28.4158  -26.7488   20.0118 O   0  0  0  0  0  0
  -26.5593  -34.8929   22.4694 O   0  0  0  0  0  0
  -23.5329  -32.1440   23.7508 O   0  0  0  0  0  0
  -27.6788  -20.5114   18.9151 C   0  0  0  0  0  0
  -29.4683  -16.9473   22.5173 C   0  0  0  0  0  0
  -27.9169  -19.0093   18.7853 C   0  0  0  0  0  0
  -30.1213  -15.5908   22.7404 C   0  0  0  0  0  0
  -29.6356  -19.7471   20.1143 C   0  0  0  0  0  0
  -28.8721  -21.0375   19.7194 C   0  0  2  0  0  0
  -30.0176  -16.8567   21.0995 C   0  0  2  0  0  0
  -29.1759  -17.3010   19.8944 C   0  0  0  0  0  0
  -28.9988  -23.1409   21.1252 C   0  0  0  0  0  0
  -28.6168  -25.6950   20.9610 C   0  0  0  0  0  0
  -28.2186  -24.2904   20.4275 C   0  0  1  0  0  0
  -29.9747  -15.3888   21.2937 N   0  0  0  0  0  0
  -28.6472  -18.6698   20.0044 N   0  0  0  0  0  0
  -28.4643  -24.2425   18.9933 N   0  0  0  0  0  0
  -28.3956  -21.8053   20.8946 N   0  3  0  0  0  0
  -31.4740  -12.4341   19.1109 H   0  0  0  0  0  0
  -30.3483  -11.2910   19.7871 H   0  0  0  0  0  0
  -29.7374  -11.8044   17.4114 H   0  0  0  0  0  0
  -29.6639  -13.5082   17.7714 H   0  0  0  0  0  0
  -27.8208  -11.3176   18.7981 H   0  0  0  0  0  0
  -27.3664  -12.6560   17.7791 H   0  0  0  0  0  0
  -27.7211  -14.2528   19.6067 H   0  0  0  0  0  0
  -28.6772  -11.8905   21.2956 H   0  0  0  0  0  0
  -28.4383  -13.4957   21.8896 H   0  0  0  0  0  0
  -25.2758   -9.5657   22.4736 H   0  0  0  0  0  0
  -23.9975   -7.4635   22.7476 H   0  0  0  0  0  0
  -21.0820   -8.8782   19.8949 H   0  0  0  0  0  0
  -22.3713  -10.9657   19.6144 H   0  0  0  0  0  0
  -21.2018   -7.6159   23.9742 H   0  0  0  0  0  0
  -21.1478   -6.0529   25.9095 H   0  0  0  0  0  0
  -22.0594   -2.7626   23.2838 H   0  0  0  0  0  0
  -22.4064  -11.9905   22.4793 H   0  0  0  0  0  0
  -21.1115  -13.1319   22.2584 H   0  0  0  0  0  0
  -24.6772  -15.8456   20.5738 H   0  0  0  0  0  0
  -26.3142  -15.6372   20.2055 H   0  0  0  0  0  0
  -26.7103  -32.5549   23.1164 H   0  0  0  0  0  0
  -25.0047  -33.9781   25.0478 H   0  0  0  0  0  0
  -22.6888  -31.3083   21.4092 H   0  0  0  0  0  0
  -23.3734  -35.9662   23.3317 H   0  0  0  0  0  0
  -24.3581  -36.8913   22.2051 H   0  0  0  0  0  0
  -23.7247  -37.6535   23.6639 H   0  0  0  0  0  0
  -26.0298  -31.5992   20.5846 H   0  0  0  0  0  0
  -26.8169  -30.9001   21.9711 H   0  0  0  0  0  0
  -28.1060  -29.1308   21.1409 H   0  0  0  0  0  0
  -26.0812  -25.9670   19.0266 H   0  0  0  0  0  0
  -23.9831  -27.2771   19.0506 H   0  0  0  0  0  0
  -23.7143  -30.5906   19.4042 H   0  0  0  0  0  0
  -22.7322  -29.2364   19.8735 H   0  0  0  0  0  0
  -25.1276  -36.1980   25.0834 H   0  0  0  0  0  0
  -20.9952  -28.3232   24.1440 H   0  0  0  0  0  0
  -20.5661  -26.2277   23.3606 H   0  0  0  0  0  0
  -21.6634  -26.7449   22.1213 H   0  0  0  0  0  0
  -19.6905  -25.6306   21.1227 H   0  0  0  0  0  0
  -19.6677  -27.3213   20.6753 H   0  0  0  0  0  0
  -17.4190  -26.6679   21.4022 H   0  0  0  0  0  0
  -18.0319  -26.0060   22.9014 H   0  0  0  0  0  0
  -19.7925  -30.7254   24.2290 H   0  0  0  0  0  0
  -17.5009  -31.6265   24.5174 H   0  0  0  0  0  0
  -15.5344  -30.3000   23.7640 H   0  0  0  0  0  0
  -15.8658  -28.0835   22.7044 H   0  0  0  0  0  0
  -24.5933  -30.7022   25.7816 H   0  0  0  0  0  0
  -24.8952  -32.2829   26.4943 H   0  0  0  0  0  0
  -25.8139  -30.8841   27.0206 H   0  0  0  0  0  0
  -26.2807  -29.6791   24.1150 H   0  0  0  0  0  0
  -27.4123  -29.7271   25.4484 H   0  0  0  0  0  0
  -27.8621  -30.4357   23.9140 H   0  0  0  0  0  0
  -27.2683  -33.3587   26.2074 H   0  0  0  0  0  0
  -28.3848  -32.6876   25.0273 H   0  0  0  0  0  0
  -28.0747  -31.8400   26.5347 H   0  0  0  0  0  0
  -28.2608  -38.0094   24.7501 H   0  0  0  0  0  0
  -28.1058  -36.2627   24.6303 H   0  0  0  0  0  0
  -27.2300  -37.1478   25.8873 H   0  0  0  0  0  0
  -20.9278  -29.8757   21.6953 H   0  0  0  0  0  0
  -26.0182  -38.2873   24.1405 H   0  0  0  0  0  0
  -26.7348  -20.6808   19.4355 H   0  0  0  0  0  0
  -27.5983  -20.9934   17.9396 H   0  0  0  0  0  0
  -29.8773  -17.7616   23.1161 H   0  0  0  0  0  0
  -28.3764  -16.9173   22.5607 H   0  0  0  0  0  0
  -28.5268  -18.8101   17.9007 H   0  0  0  0  0  0
  -26.9850  -18.4488   18.6848 H   0  0  0  0  0  0
  -29.5291  -14.9272   23.3713 H   0  0  0  0  0  0
  -31.1576  -15.6482   23.0822 H   0  0  0  0  0  0
  -30.0831  -19.8009   21.1079 H   0  0  0  0  0  0
  -30.4463  -19.5734   19.4029 H   0  0  0  0  0  0
  -29.5071  -21.6583   19.0854 H   0  0  0  0  0  0
  -31.0400  -17.2399   21.0511 H   0  0  0  0  0  0
  -28.3202  -16.6339   19.7825 H   0  0  0  0  0  0
  -29.7622  -17.1945   18.9794 H   0  0  0  0  0  0
  -28.9664  -23.3127   22.2016 H   0  0  0  0  0  0
  -30.0574  -23.1473   20.8597 H   0  0  0  0  0  0
  -29.6816  -25.7014   21.1980 H   0  0  0  0  0  0
  -28.1052  -25.9081   21.9026 H   0  0  0  0  0  0
  -27.1474  -24.1653   20.5946 H   0  0  0  0  0  0
  -29.4505  -24.4129   18.8315 H   0  0  0  0  0  0
  -28.0315  -25.0758   18.6050 H   0  0  0  0  0  0
  -28.5473  -21.2308   21.7072 H   0  0  0  0  0  0
  -27.4032  -21.9340   20.7963 H   0  0  0  0  0  0
  1 25  1  0  0  0
  1 30  2  0  0  0
  1 82  1  0  0  0
  2  3  1  0  0  0
  2 25  1  0  0  0
  2 86  1  0  0  0
  2 87  1  0  0  0
  3  4  1  0  0  0
  3 88  1  0  0  0
  3 89  1  0  0  0
  4  5  1  0  0  0
  4 90  1  0  0  0
  4 91  1  0  0  0
  5  6  1  0  0  0
  5 26  1  0  0  0
  5 92  1  0  0  0
  6 25  1  0  0  0
  6 93  1  0  0  0
  6 94  1  0  0  0
  7  8  2  0  0  0
  7 26  1  0  0  0
  7 29  1  0  0  0
  8  9  1  0  0  0
  8 22  1  0  0  0
  9 10  1  0  0  0
  9 27  2  0  0  0
 10 11  2  0  0  0
 10 15  1  0  0  0
 11 12  1  0  0  0
 11 95  1  0  0  0
 12 13  2  0  0  0
 12 96  1  0  0  0
 13 14  1  0  0  0
 13 31  1  0  0  0
 14 15  2  0  0  0
 14 97  1  0  0  0
 15 98  1  0  0  0
 16 17  2  0  0  0
 16 21  1  0  0  0
 16 31  1  0  0  0
 17 18  1  0  0  0
 17 99  1  0  0  0
 18 19  2  0  0  0
 18100  1  0  0  0
 19 20  1  0  0  0
 19 24  1  0  0  0
 20 21  2  0  0  0
 20101  1  0  0  0
 21 23  1  0  0  0
 22 28  1  0  0  0
 22 32  2  0  0  0
 26 27  1  0  0  0
 28102  1  0  0  0
 28103  1  0  0  0
 29104  1  0  0  0
 29105  1  0  0  0
 33 34  1  0  0  0
 33 66  1  0  0  0
 33 70  2  0  0  0
 34 36  1  0  0  0
 34 59  1  0  0  0
 34106  1  0  0  0
 35 44  2  0  0  0
 35 45  1  0  0  0
 35 68  1  0  0  0
 36 56  1  0  0  0
 36107  1  0  0  0
 37 39  1  0  0  0
 37 47  1  0  0  0
 37 66  1  0  0  0
 37108  1  0  0  0
 38 43  2  0  0  0
 38 46  1  0  0  0
 38 47  1  0  0  0
 39 64  1  0  0  0
 39 67  2  0  0  0
 40 52  1  0  0  0
 40 53  2  0  0  0
 40 58  1  0  0  0
 41109  1  0  0  0
 41110  1  0  0  0
 41111  1  0  0  0
 41 48  1  0  0  0
 42 43  1  0  0  0
 42 66  1  0  0  0
 42112  1  0  0  0
 42113  1  0  0  0
 43 44  1  0  0  0
 44114  1  0  0  0
 45 46  2  0  0  0
 45115  1  0  0  0
 46116  1  0  0  0
 47117  1  0  0  0
 47118  1  0  0  0
 48 56  1  0  0  0
 48 65  1  0  0  0
 48119  1  0  0  0
 49 50  1  0  0  0
 49 53  1  0  0  0
 49 64  1  0  0  0
 49120  1  0  0  0
 50 51  1  0  0  0
 50121  1  0  0  0
 50122  1  0  0  0
 51 52  1  0  0  0
 51123  1  0  0  0
 51124  1  0  0  0
 52125  1  0  0  0
 52126  1  0  0  0
 53 54  1  0  0  0
 54 55  2  0  0  0
 54127  1  0  0  0
 55 57  1  0  0  0
 55128  1  0  0  0
 56 69  2  0  0  0
 57 58  2  0  0  0
 57129  1  0  0  0
 58130  1  0  0  0
 59 60  1  0  0  0
 59 61  1  0  0  0
 59 62  1  0  0  0
 60131  1  0  0  0
 60132  1  0  0  0
 60133  1  0  0  0
 61134  1  0  0  0
 61135  1  0  0  0
 61136  1  0  0  0
 62137  1  0  0  0
 62138  1  0  0  0
 62139  1  0  0  0
 63 65  1  0  0  0
 63140  1  0  0  0
 63141  1  0  0  0
 63142  1  0  0  0
 64143  1  0  0  0
 65144  1  0  0  0
 68 80  1  0  0  0
 71 73  1  0  0  0
 71 76  1  0  0  0
 71145  1  0  0  0
 71146  1  0  0  0
 72 74  1  0  0  0
 72 77  1  0  0  0
 72147  1  0  0  0
 72148  1  0  0  0
 73 83  1  0  0  0
 73149  1  0  0  0
 73150  1  0  0  0
 74 82  1  0  0  0
 74151  1  0  0  0
 74152  1  0  0  0
 75 76  1  0  0  0
 75 83  1  0  0  0
 75153  1  0  0  0
 75154  1  0  0  0
 76 85  1  0  0  0
 76155  1  0  0  0
 77 78  1  0  0  0
 77 82  1  0  0  0
 77156  1  0  0  0
 78 83  1  0  0  0
 78157  1  0  0  0
 78158  1  0  0  0
 79 81  1  0  0  0
 79 85  1  0  0  0
 79159  1  0  0  0
 79160  1  0  0  0
 80 81  1  0  0  0
 80161  1  0  0  0
 80162  1  0  0  0
 81 84  1  0  0  0
 81163  1  0  0  0
 84164  1  0  0  0
 84165  1  0  0  0
 85166  1  0  0  0
 85167  1  0  0  0
M  CHG  1  85   1
M  ISO  4   1 100  68 101  80 101  82 100
M  END
> <chiral flag>
0

> <version>
0

> <s_m_source_file>
/data/baiqing/PycharmProjects/Reinvent-master-3.2/result/LINK_invent/BTK/process_docking_weight1_custom_sum_contain_oxygen_bond_distance_aromatic_linkinvent_7_9_3/rearranged_h_0195.sdf

> <i_m_source_file_index>
27

> <r_mmod_Potential_Energy-OPLS-2005>
-63.7748527526855

> <r_mmod_Stretch_Energy-OPLS-2005>
37.2642288208008

> <r_mmod_Bend_Energy-OPLS-2005>
125.170951843262

> <r_mmod_Torsional_Energy-OPLS-2005>
373.1943359375

> <r_mmod_Improper_Torsional_Energy-OPLS-2005>
10.5470018386841

> <r_mmod_Van_der_Waal_Energy-OPLS-2005>
123.082786560059

> <r_mmod_Electrostatic_Energy-OPLS-2005>
-306.481353759766

> <r_mmod_Solvation_Energy-OPLS-2005>
-435.664001464844

> <b_mmod_Minimization_Converged-OPLS-2005>
0

> <r_mmod_RMS_Derivative-OPLS-2005>
1.89989483356476

$$$$
28
                    3D
 Structure written by MMmdl.
179190  0  0  1  0            999 V2000
  -30.7771  -14.3937   20.7170 C   0  0  0  0  0  0
  -30.4149  -12.3142   19.4196 C   0  0  0  0  0  0
  -29.4912  -12.5278   18.2049 C   0  0  0  0  0  0
  -28.0152  -12.3678   18.6103 C   0  0  0  0  0  0
  -27.6591  -13.2046   19.8637 C   0  0  2  0  0  0
  -28.6855  -12.9742   20.9893 C   0  0  0  0  0  0
  -25.2577  -13.8159   20.5634 C   0  0  0  0  0  0
  -24.1833  -13.0439   20.9159 C   0  0  0  0  0  0
  -24.6384  -11.6905   20.8711 C   0  0  0  0  0  0
  -23.9055  -10.4293   21.0400 C   0  0  0  0  0  0
  -24.3611   -9.4209   21.9178 C   0  0  0  0  0  0
  -23.6289   -8.2243   22.0751 C   0  0  0  0  0  0
  -22.4270   -8.0280   21.3544 C   0  0  0  0  0  0
  -21.9901   -9.0252   20.4647 C   0  0  0  0  0  0
  -22.7227  -10.2132   20.3053 C   0  0  0  0  0  0
  -21.6852   -6.0734   22.5280 C   0  0  0  0  0  0
  -21.4012   -6.5637   23.8214 C   0  0  0  0  0  0
  -21.3659   -5.6788   24.9174 C   0  0  0  0  0  0
  -21.6045   -4.3052   24.7225 C   0  0  0  0  0  0
  -21.8819   -3.8144   23.4345 C   0  0  0  0  0  0
  -21.9192   -4.6962   22.3402 C   0  0  0  0  0  0
  -22.7861  -13.5239   21.1849 C   0  0  0  0  0  0
  -22.1660   -4.2146   21.0980 F   0  0  0  0  0  0
  -21.5631   -3.4537   25.7738 F   0  0  0  0  0  0
  -30.0394  -13.2684   20.4800 N   0  0  0  0  0  0
  -26.2991  -12.9321   20.3254 N   0  0  0  0  0  0
  -25.9297  -11.6487   20.5691 N   0  0  0  0  0  0
  -22.0507  -12.8231   22.0410 N   0  0  0  0  0  0
  -25.4330  -15.1877   20.4077 N   0  0  0  0  0  0
  -31.7516  -14.6869   20.0145 O   0  0  0  0  0  0
  -21.6638   -6.8876   21.4241 O   0  0  0  0  0  0
  -22.3545  -14.5550   20.6710 O   0  0  0  0  0  0
  -24.6129  -31.8676   23.2083 C   0  0  0  0  0  0
  -25.9026  -32.4822   23.8377 C   0  0  1  0  0  0
  -27.2377  -27.4307   20.1009 C   0  0  0  0  0  0
  -25.5890  -33.8620   24.2313 N   0  0  0  0  0  0
  -23.4009  -30.4890   21.5482 C   0  0  2  0  0  0
  -24.8466  -28.9448   20.1199 C   0  0  0  0  0  0
  -22.7398  -29.4659   22.4991 C   0  0  0  0  0  0
  -18.0273  -28.1380   22.8503 C   0  0  0  0  0  0
  -24.1485  -36.7310   23.2638 C   0  0  0  0  0  0
  -25.9272  -30.8300   21.3610 C   0  0  0  0  0  0
  -26.0033  -29.4597   20.7173 C   0  0  0  0  0  0
  -27.1979  -28.7077   20.7070 C   0  0  0  0  0  0
  -26.0633  -26.9248   19.5016 C   0  0  0  0  0  0
  -24.8701  -27.6756   19.5126 C   0  0  0  0  0  0
  -23.6098  -29.8141   20.1651 C   0  0  0  0  0  0
  -25.4105  -36.3106   24.0339 C   0  0  1  0  0  0
  -20.5862  -28.3664   23.1328 C   0  0  2  0  0  0
  -20.6762  -26.9403   22.5423 C   0  0  0  0  0  0
  -19.5743  -26.6390   21.5219 C   0  0  0  0  0  0
  -18.1921  -26.7930   22.1630 C   0  0  0  0  0  0
  -19.1521  -28.8839   23.2917 C   0  0  0  0  0  0
  -18.9450  -30.1448   23.8929 C   0  0  0  0  0  0
  -17.6454  -30.6592   24.0569 C   0  0  0  0  0  0
  -25.9031  -34.9476   23.5120 C   0  0  0  0  0  0
  -16.5344  -29.9097   23.6326 C   0  0  0  0  0  0
  -16.7263  -28.6508   23.0354 C   0  0  0  0  0  0
  -26.4465  -31.6610   25.0707 C   0  0  0  0  0  0
  -25.3745  -31.3728   26.1473 C   0  0  0  0  0  0
  -27.0282  -30.3051   24.6074 C   0  0  0  0  0  0
  -27.6044  -32.4337   25.7464 C   0  0  0  0  0  0
  -27.5587  -37.1796   24.8461 C   0  0  0  0  0  0
  -21.4129  -29.3035   22.3734 N   0  0  0  0  0  0
  -26.4288  -37.3794   23.9420 N   0  0  0  0  0  0
  -24.6652  -31.0773   22.0981 N   0  0  0  0  0  0
  -23.4168  -28.8206   23.3034 O   0  0  0  0  0  0
  -28.4421  -26.7632   20.0481 O   0  0  0  0  0  0
  -26.5593  -34.8928   22.4682 O   0  0  0  0  0  0
  -23.5326  -32.1428   23.7482 O   0  0  0  0  0  0
  -28.9526  -23.2165   19.1841 C   0  0  0  0  0  0
  -28.4816  -24.5396   19.0625 C   0  0  0  0  0  0
  -29.4902  -22.7812   20.4153 C   0  0  0  0  0  0
  -29.4401  -23.6908   21.5033 C   0  0  0  0  0  0
  -28.5522  -25.3942   20.1761 C   0  0  0  0  0  0
  -29.4253  -22.2004   23.6642 C   0  0  0  0  0  0
  -29.1396  -23.6093   24.1110 C   0  0  0  0  0  0
  -30.5824  -13.9664   27.3984 C   0  0  0  0  0  0
  -29.8180  -13.3730   26.2335 C   0  0  0  0  0  0
  -31.0185  -16.9131   23.3464 C   0  0  0  0  0  0
  -30.2633  -14.6891   23.1066 C   0  0  0  0  0  0
  -29.9737  -23.3683   22.8705 C   0  0  0  0  0  0
  -31.1221  -14.1030   25.9910 C   0  0  0  0  0  0
  -31.2147  -15.5327   23.9548 C   0  0  2  0  0  0
  -30.8246  -16.6329   21.8404 C   0  0  2  0  0  0
  -30.3000  -21.4700   20.4820 C   0  0  0  0  0  0
  -29.8668  -17.6640   21.1665 C   0  0  0  0  0  0
  -30.4768  -19.0955   21.1249 C   0  0  0  0  0  0
  -28.9966  -24.9647   21.3753 N   0  0  0  0  0  0
  -30.3818  -15.2125   21.7349 N   0  0  0  0  0  0
  -30.9705  -15.4593   25.4156 N   0  3  0  0  0  0
  -29.5650  -20.1914   20.6866 N   0  3  0  0  0  0
  -31.4598  -12.4102   19.1195 H   0  0  0  0  0  0
  -30.3156  -11.2949   19.7957 H   0  0  0  0  0  0
  -29.7395  -11.8188   17.4140 H   0  0  0  0  0  0
  -29.6537  -13.5228   17.7877 H   0  0  0  0  0  0
  -27.8348  -11.3100   18.8075 H   0  0  0  0  0  0
  -27.3633  -12.6372   17.7784 H   0  0  0  0  0  0
  -27.7103  -14.2547   19.5743 H   0  0  0  0  0  0
  -28.6478  -11.9407   21.3364 H   0  0  0  0  0  0
  -28.3833  -13.5778   21.8390 H   0  0  0  0  0  0
  -25.2760   -9.5685   22.4747 H   0  0  0  0  0  0
  -24.0003   -7.4632   22.7465 H   0  0  0  0  0  0
  -21.0832   -8.8769   19.8953 H   0  0  0  0  0  0
  -22.3686  -10.9668   19.6158 H   0  0  0  0  0  0
  -21.2001   -7.6145   23.9716 H   0  0  0  0  0  0
  -21.1481   -6.0518   25.9078 H   0  0  0  0  0  0
  -22.0599   -2.7608   23.2846 H   0  0  0  0  0  0
  -22.4108  -11.9876   22.4780 H   0  0  0  0  0  0
  -21.1129  -13.1264   22.2626 H   0  0  0  0  0  0
  -24.6716  -15.8487   20.5182 H   0  0  0  0  0  0
  -26.2933  -15.6233   20.0990 H   0  0  0  0  0  0
  -26.7092  -32.5533   23.1137 H   0  0  0  0  0  0
  -25.0059  -33.9785   25.0472 H   0  0  0  0  0  0
  -22.6897  -31.3053   21.4056 H   0  0  0  0  0  0
  -23.3751  -35.9640   23.3296 H   0  0  0  0  0  0
  -24.3587  -36.8924   22.2053 H   0  0  0  0  0  0
  -23.7227  -37.6512   23.6651 H   0  0  0  0  0  0
  -26.0345  -31.5908   20.5863 H   0  0  0  0  0  0
  -26.8175  -30.8903   21.9754 H   0  0  0  0  0  0
  -28.0967  -29.1079   21.1550 H   0  0  0  0  0  0
  -26.0674  -25.9611   19.0130 H   0  0  0  0  0  0
  -23.9803  -27.2749   19.0463 H   0  0  0  0  0  0
  -23.7176  -30.5851   19.4016 H   0  0  0  0  0  0
  -22.7341  -29.2326   19.8717 H   0  0  0  0  0  0
  -25.1279  -36.1963   25.0831 H   0  0  0  0  0  0
  -20.9962  -28.3224   24.1442 H   0  0  0  0  0  0
  -20.5667  -26.2271   23.3605 H   0  0  0  0  0  0
  -21.6629  -26.7449   22.1206 H   0  0  0  0  0  0
  -19.6900  -25.6305   21.1236 H   0  0  0  0  0  0
  -19.6684  -27.3213   20.6756 H   0  0  0  0  0  0
  -17.4189  -26.6696   21.4027 H   0  0  0  0  0  0
  -18.0316  -26.0066   22.9017 H   0  0  0  0  0  0
  -19.7926  -30.7256   24.2310 H   0  0  0  0  0  0
  -17.5010  -31.6277   24.5162 H   0  0  0  0  0  0
  -15.5346  -30.3007   23.7638 H   0  0  0  0  0  0
  -15.8661  -28.0836   22.7055 H   0  0  0  0  0  0
  -24.5897  -30.7093   25.7820 H   0  0  0  0  0  0
  -24.8965  -32.2893   26.4943 H   0  0  0  0  0  0
  -25.8109  -30.8881   27.0214 H   0  0  0  0  0  0
  -26.2803  -29.6823   24.1150 H   0  0  0  0  0  0
  -27.4073  -29.7280   25.4517 H   0  0  0  0  0  0
  -27.8633  -30.4367   23.9190 H   0  0  0  0  0  0
  -27.2662  -33.3630   26.2061 H   0  0  0  0  0  0
  -28.3842  -32.6916   25.0286 H   0  0  0  0  0  0
  -28.0729  -31.8458   26.5366 H   0  0  0  0  0  0
  -28.2582  -38.0115   24.7542 H   0  0  0  0  0  0
  -28.1103  -36.2649   24.6236 H   0  0  0  0  0  0
  -27.2317  -37.1381   25.8865 H   0  0  0  0  0  0
  -20.9282  -29.8748   21.6956 H   0  0  0  0  0  0
  -26.0178  -38.2865   24.1450 H   0  0  0  0  0  0
  -28.9855  -22.5779   18.3129 H   0  0  0  0  0  0
  -28.1640  -24.9192   18.1021 H   0  0  0  0  0  0
  -28.5854  -21.6424   23.2564 H   0  0  0  0  0  0
  -30.1230  -21.6245   24.2687 H   0  0  0  0  0  0
  -29.6519  -23.9583   25.0050 H   0  0  0  0  0  0
  -28.1268  -23.9838   23.9746 H   0  0  0  0  0  0
  -31.0865  -13.2686   28.0653 H   0  0  0  0  0  0
  -30.1589  -14.8428   27.8858 H   0  0  0  0  0  0
  -28.8839  -13.8549   25.9492 H   0  0  0  0  0  0
  -29.8242  -12.2892   26.1334 H   0  0  0  0  0  0
  -31.8617  -17.5768   23.5441 H   0  0  0  0  0  0
  -30.1250  -17.3813   23.7631 H   0  0  0  0  0  0
  -29.2354  -14.8233   23.4470 H   0  0  0  0  0  0
  -30.5057  -13.6271   23.1872 H   0  0  0  0  0  0
  -31.0411  -23.5738   22.9353 H   0  0  0  0  0  0
  -32.0266  -13.5639   25.7129 H   0  0  0  0  0  0
  -32.2396  -15.2079   23.7642 H   0  0  0  0  0  0
  -31.8079  -16.7264   21.3733 H   0  0  0  0  0  0
  -31.0540  -21.5749   21.2632 H   0  0  0  0  0  0
  -30.8741  -21.3815   19.5580 H   0  0  0  0  0  0
  -28.9123  -17.6737   21.6953 H   0  0  0  0  0  0
  -29.6463  -17.3439   20.1471 H   0  0  0  0  0  0
  -31.3492  -19.0776   20.4689 H   0  0  0  0  0  0
  -30.8491  -19.3611   22.1149 H   0  0  0  0  0  0
  -31.6405  -16.0633   25.8669 H   0  0  0  0  0  0
  -30.0563  -15.8216   25.6310 H   0  0  0  0  0  0
  -29.1222  -19.9319   19.8194 H   0  0  0  0  0  0
  -28.8444  -20.3142   21.3783 H   0  0  0  0  0  0
  1 25  1  0  0  0
  1 30  2  0  0  0
  1 90  1  0  0  0
  2  3  1  0  0  0
  2 25  1  0  0  0
  2 93  1  0  0  0
  2 94  1  0  0  0
  3  4  1  0  0  0
  3 95  1  0  0  0
  3 96  1  0  0  0
  4  5  1  0  0  0
  4 97  1  0  0  0
  4 98  1  0  0  0
  5  6  1  0  0  0
  5 26  1  0  0  0
  5 99  1  0  0  0
  6 25  1  0  0  0
  6100  1  0  0  0
  6101  1  0  0  0
  7  8  2  0  0  0
  7 26  1  0  0  0
  7 29  1  0  0  0
  8  9  1  0  0  0
  8 22  1  0  0  0
  9 10  1  0  0  0
  9 27  2  0  0  0
 10 11  2  0  0  0
 10 15  1  0  0  0
 11 12  1  0  0  0
 11102  1  0  0  0
 12 13  2  0  0  0
 12103  1  0  0  0
 13 14  1  0  0  0
 13 31  1  0  0  0
 14 15  2  0  0  0
 14104  1  0  0  0
 15105  1  0  0  0
 16 17  2  0  0  0
 16 21  1  0  0  0
 16 31  1  0  0  0
 17 18  1  0  0  0
 17106  1  0  0  0
 18 19  2  0  0  0
 18107  1  0  0  0
 19 20  1  0  0  0
 19 24  1  0  0  0
 20 21  2  0  0  0
 20108  1  0  0  0
 21 23  1  0  0  0
 22 28  1  0  0  0
 22 32  2  0  0  0
 26 27  1  0  0  0
 28109  1  0  0  0
 28110  1  0  0  0
 29111  1  0  0  0
 29112  1  0  0  0
 33 34  1  0  0  0
 33 66  1  0  0  0
 33 70  2  0  0  0
 34 36  1  0  0  0
 34 59  1  0  0  0
 34113  1  0  0  0
 35 44  2  0  0  0
 35 45  1  0  0  0
 35 68  1  0  0  0
 36 56  1  0  0  0
 36114  1  0  0  0
 37 39  1  0  0  0
 37 47  1  0  0  0
 37 66  1  0  0  0
 37115  1  0  0  0
 38 43  2  0  0  0
 38 46  1  0  0  0
 38 47  1  0  0  0
 39 64  1  0  0  0
 39 67  2  0  0  0
 40 52  1  0  0  0
 40 53  2  0  0  0
 40 58  1  0  0  0
 41116  1  0  0  0
 41117  1  0  0  0
 41118  1  0  0  0
 41 48  1  0  0  0
 42 43  1  0  0  0
 42 66  1  0  0  0
 42119  1  0  0  0
 42120  1  0  0  0
 43 44  1  0  0  0
 44121  1  0  0  0
 45 46  2  0  0  0
 45122  1  0  0  0
 46123  1  0  0  0
 47124  1  0  0  0
 47125  1  0  0  0
 48 56  1  0  0  0
 48 65  1  0  0  0
 48126  1  0  0  0
 49 50  1  0  0  0
 49 53  1  0  0  0
 49 64  1  0  0  0
 49127  1  0  0  0
 50 51  1  0  0  0
 50128  1  0  0  0
 50129  1  0  0  0
 51 52  1  0  0  0
 51130  1  0  0  0
 51131  1  0  0  0
 52132  1  0  0  0
 52133  1  0  0  0
 53 54  1  0  0  0
 54 55  2  0  0  0
 54134  1  0  0  0
 55 57  1  0  0  0
 55135  1  0  0  0
 56 69  2  0  0  0
 57 58  2  0  0  0
 57136  1  0  0  0
 58137  1  0  0  0
 59 60  1  0  0  0
 59 61  1  0  0  0
 59 62  1  0  0  0
 60138  1  0  0  0
 60139  1  0  0  0
 60140  1  0  0  0
 61141  1  0  0  0
 61142  1  0  0  0
 61143  1  0  0  0
 62144  1  0  0  0
 62145  1  0  0  0
 62146  1  0  0  0
 63 65  1  0  0  0
 63147  1  0  0  0
 63148  1  0  0  0
 63149  1  0  0  0
 64150  1  0  0  0
 65151  1  0  0  0
 68 75  1  0  0  0
 71 72  2  0  0  0
 71 73  1  0  0  0
 71152  1  0  0  0
 72 75  1  0  0  0
 72153  1  0  0  0
 73 74  2  0  0  0
 73 86  1  0  0  0
 74 89  1  0  0  0
 74 82  1  0  0  0
 75 89  2  0  0  0
 76 77  1  0  0  0
 76 82  1  0  0  0
 76154  1  0  0  0
 76155  1  0  0  0
 77 82  1  0  0  0
 77156  1  0  0  0
 77157  1  0  0  0
 78 79  1  0  0  0
 78 83  1  0  0  0
 78158  1  0  0  0
 78159  1  0  0  0
 79 83  1  0  0  0
 79160  1  0  0  0
 79161  1  0  0  0
 80 84  1  0  0  0
 80 85  1  0  0  0
 80162  1  0  0  0
 80163  1  0  0  0
 81 84  1  0  0  0
 81 90  1  0  0  0
 81164  1  0  0  0
 81165  1  0  0  0
 82166  1  0  0  0
 83 91  1  0  0  0
 83167  1  0  0  0
 84 91  1  0  0  0
 84168  1  0  0  0
 85 87  1  0  0  0
 85 90  1  0  0  0
 85169  1  0  0  0
 86 92  1  0  0  0
 86170  1  0  0  0
 86171  1  0  0  0
 87 88  1  0  0  0
 87172  1  0  0  0
 87173  1  0  0  0
 88 92  1  0  0  0
 88174  1  0  0  0
 88175  1  0  0  0
 91176  1  0  0  0
 91177  1  0  0  0
 92178  1  0  0  0
 92179  1  0  0  0
M  CHG  2  91   1  92   1
M  ISO  4   1 100  68 101  75 101  90 100
M  END
> <chiral flag>
0

> <version>
0

> <s_m_source_file>
/data/baiqing/PycharmProjects/Reinvent-master-3.2/result/LINK_invent/BTK/process_docking_weight1_custom_sum_contain_oxygen_bond_distance_aromatic_linkinvent_7_9_3/rearranged_h_0195.sdf

> <i_m_source_file_index>
28

> <r_mmod_Potential_Energy-OPLS-2005>
-193.882598876953

> <r_mmod_Stretch_Energy-OPLS-2005>
43.5537643432617

> <r_mmod_Bend_Energy-OPLS-2005>
141.650680541992

> <r_mmod_Torsional_Energy-OPLS-2005>
399.816528320312

> <r_mmod_Improper_Torsional_Energy-OPLS-2005>
8.32367515563965

> <r_mmod_Van_der_Waal_Energy-OPLS-2005>
142.19172668457

> <r_mmod_Electrostatic_Energy-OPLS-2005>
9.96710586547852

> <r_mmod_Solvation_Energy-OPLS-2005>
-948.866088867188

> <b_mmod_Minimization_Converged-OPLS-2005>
0

> <r_mmod_RMS_Derivative-OPLS-2005>
0.889896035194397

$$$$
29
                    3D
 Structure written by MMmdl.
163172  0  0  1  0            999 V2000
  -30.7296  -14.4322   20.5752 C   0  0  0  0  0  0
  -30.4146  -12.2901   19.3961 C   0  0  0  0  0  0
  -29.4783  -12.5001   18.1903 C   0  0  0  0  0  0
  -28.0008  -12.3552   18.6099 C   0  0  0  0  0  0
  -27.6543  -13.1825   19.8746 C   0  0  2  0  0  0
  -28.7078  -12.9734   20.9874 C   0  0  0  0  0  0
  -25.2576  -13.8077   20.5702 C   0  0  0  0  0  0
  -24.1811  -13.0393   20.9215 C   0  0  0  0  0  0
  -24.6332  -11.6854   20.8778 C   0  0  0  0  0  0
  -23.8993  -10.4259   21.0428 C   0  0  0  0  0  0
  -24.3561   -9.4177   21.9203 C   0  0  0  0  0  0
  -23.6266   -8.2195   22.0747 C   0  0  0  0  0  0
  -22.4256   -8.0240   21.3534 C   0  0  0  0  0  0
  -21.9880   -9.0213   20.4639 C   0  0  0  0  0  0
  -22.7181  -10.2106   20.3064 C   0  0  0  0  0  0
  -21.6825   -6.0712   22.5279 C   0  0  0  0  0  0
  -21.3983   -6.5627   23.8211 C   0  0  0  0  0  0
  -21.3669   -5.6786   24.9184 C   0  0  0  0  0  0
  -21.6060   -4.3048   24.7234 C   0  0  0  0  0  0
  -21.8818   -3.8130   23.4351 C   0  0  0  0  0  0
  -21.9176   -4.6938   22.3403 C   0  0  0  0  0  0
  -22.7848  -13.5224   21.1882 C   0  0  0  0  0  0
  -22.1648   -4.2112   21.0986 F   0  0  0  0  0  0
  -21.5653   -3.4542   25.7750 F   0  0  0  0  0  0
  -30.0379  -13.2709   20.4239 N   0  0  0  0  0  0
  -26.2987  -12.9181   20.3430 N   0  0  0  0  0  0
  -25.9247  -11.6373   20.5823 N   0  0  0  0  0  0
  -22.0454  -12.8238   22.0425 N   0  0  0  0  0  0
  -25.4316  -15.1789   20.4044 N   0  0  0  0  0  0
  -31.8601  -14.6149   20.1158 O   0  0  0  0  0  0
  -21.6613   -6.8849   21.4239 O   0  0  0  0  0  0
  -22.3578  -14.5550   20.6740 O   0  0  0  0  0  0
  -24.6075  -31.8707   23.2132 C   0  0  0  0  0  0
  -25.8987  -32.4844   23.8416 C   0  0  1  0  0  0
  -27.2630  -27.4738   20.0962 C   0  0  0  0  0  0
  -25.5855  -33.8638   24.2345 N   0  0  0  0  0  0
  -23.3956  -30.4900   21.5528 C   0  0  2  0  0  0
  -24.8488  -28.9554   20.1226 C   0  0  0  0  0  0
  -22.7384  -29.4650   22.5035 C   0  0  0  0  0  0
  -18.0251  -28.1363   22.8493 C   0  0  0  0  0  0
  -24.1478  -36.7334   23.2640 C   0  0  0  0  0  0
  -25.9178  -30.8475   21.3612 C   0  0  0  0  0  0
  -26.0012  -29.4789   20.7210 C   0  0  0  0  0  0
  -27.2045  -28.7458   20.7183 C   0  0  0  0  0  0
  -26.0932  -26.9619   19.4961 C   0  0  0  0  0  0
  -24.8862  -27.6895   19.5120 C   0  0  0  0  0  0
  -23.6049  -29.8144   20.1697 C   0  0  0  0  0  0
  -25.4098  -36.3129   24.0346 C   0  0  1  0  0  0
  -20.5835  -28.3633   23.1339 C   0  0  2  0  0  0
  -20.6740  -26.9375   22.5429 C   0  0  0  0  0  0
  -19.5726  -26.6372   21.5218 C   0  0  0  0  0  0
  -18.1899  -26.7916   22.1618 C   0  0  0  0  0  0
  -19.1501  -28.8813   23.2908 C   0  0  0  0  0  0
  -18.9440  -30.1429   23.8903 C   0  0  0  0  0  0
  -17.6443  -30.6574   24.0550 C   0  0  0  0  0  0
  -25.9013  -34.9488   23.5140 C   0  0  0  0  0  0
  -16.5326  -29.9074   23.6324 C   0  0  0  0  0  0
  -16.7241  -28.6487   23.0345 C   0  0  0  0  0  0
  -26.4447  -31.6614   25.0727 C   0  0  0  0  0  0
  -25.3735  -31.3711   26.1491 C   0  0  0  0  0  0
  -27.0263  -30.3053   24.6064 C   0  0  0  0  0  0
  -27.6032  -32.4330   25.7474 C   0  0  0  0  0  0
  -27.5587  -37.1808   24.8454 C   0  0  0  0  0  0
  -21.4112  -29.3003   22.3762 N   0  0  0  0  0  0
  -26.4287  -37.3811   23.9416 N   0  0  0  0  0  0
  -24.6581  -31.0831   22.1020 N   0  0  0  0  0  0
  -23.4170  -28.8206   23.3066 O   0  0  0  0  0  0
  -28.3969  -26.6909   20.0181 O   0  0  0  0  0  0
  -26.5585  -34.8932   22.4712 O   0  0  0  0  0  0
  -23.5282  -32.1448   23.7552 O   0  0  0  0  0  0
  -32.1487  -21.4544   21.6820 C   0  0  0  0  0  0
  -29.9365  -20.5571   20.4314 C   0  0  0  0  0  0
  -31.2899  -22.3385   20.9858 C   0  0  0  0  0  0
  -30.8070  -19.6549   21.1085 C   0  0  0  0  0  0
  -30.0444  -17.6122   19.9623 C   0  0  0  0  0  0
  -31.3551  -17.4030   22.0437 C   0  0  0  0  0  0
  -29.2590  -16.3488   20.3428 C   0  0  0  0  0  0
  -30.6034  -16.0919   22.3725 C   0  0  0  0  0  0
  -31.6215  -23.8203   20.8533 C   0  0  0  0  0  0
  -30.6988  -26.0981   20.5185 C   0  0  0  0  0  0
  -29.5294  -27.0581   20.8023 C   0  0  0  0  0  0
  -30.1692  -21.8932   20.3658 N   0  0  0  0  0  0
  -31.9109  -20.1217   21.7443 N   0  0  0  0  0  0
  -30.5580  -18.2629   21.1641 N   0  0  0  0  0  0
  -30.0598  -15.4365   21.1744 N   0  0  0  0  0  0
  -30.4280  -24.6924   20.9196 N   0  3  0  0  0  0
  -31.4557  -12.3858   19.0821 H   0  0  0  0  0  0
  -30.3152  -11.2766   19.7860 H   0  0  0  0  0  0
  -29.7108  -11.7840   17.4016 H   0  0  0  0  0  0
  -29.6447  -13.4894   17.7598 H   0  0  0  0  0  0
  -27.8032  -11.2995   18.7958 H   0  0  0  0  0  0
  -27.3485  -12.6389   17.7821 H   0  0  0  0  0  0
  -27.6743  -14.2226   19.5733 H   0  0  0  0  0  0
  -28.6872  -11.9415   21.3400 H   0  0  0  0  0  0
  -28.4750  -13.5865   21.8596 H   0  0  0  0  0  0
  -25.2674   -9.5661   22.4816 H   0  0  0  0  0  0
  -23.9964   -7.4579   22.7464 H   0  0  0  0  0  0
  -21.0798   -8.8721   19.8963 H   0  0  0  0  0  0
  -22.3605  -10.9659   19.6196 H   0  0  0  0  0  0
  -21.1952   -7.6136   23.9708 H   0  0  0  0  0  0
  -21.1517   -6.0518   25.9094 H   0  0  0  0  0  0
  -22.0594   -2.7592   23.2856 H   0  0  0  0  0  0
  -22.3998  -11.9879   22.4820 H   0  0  0  0  0  0
  -21.1093  -13.1347   22.2635 H   0  0  0  0  0  0
  -24.6714  -15.8407   20.5120 H   0  0  0  0  0  0
  -26.2910  -15.6110   20.0901 H   0  0  0  0  0  0
  -26.7064  -32.5593   23.1199 H   0  0  0  0  0  0
  -24.9983  -33.9808   25.0475 H   0  0  0  0  0  0
  -22.6814  -31.3035   21.4118 H   0  0  0  0  0  0
  -23.3739  -35.9664   23.3290 H   0  0  0  0  0  0
  -24.3575  -36.8953   22.2054 H   0  0  0  0  0  0
  -23.7212  -37.6531   23.6656 H   0  0  0  0  0  0
  -26.0166  -31.6081   20.5852 H   0  0  0  0  0  0
  -26.8088  -30.9126   21.9735 H   0  0  0  0  0  0
  -28.0733  -29.1827   21.1875 H   0  0  0  0  0  0
  -26.1197  -25.9959   19.0123 H   0  0  0  0  0  0
  -24.0011  -27.2764   19.0475 H   0  0  0  0  0  0
  -23.7041  -30.5840   19.4030 H   0  0  0  0  0  0
  -22.7332  -29.2227   19.8831 H   0  0  0  0  0  0
  -25.1274  -36.2000   25.0837 H   0  0  0  0  0  0
  -20.9921  -28.3177   24.1460 H   0  0  0  0  0  0
  -20.5629  -26.2237   23.3606 H   0  0  0  0  0  0
  -21.6607  -26.7417   22.1215 H   0  0  0  0  0  0
  -19.6876  -25.6286   21.1231 H   0  0  0  0  0  0
  -19.6676  -27.3192   20.6759 H   0  0  0  0  0  0
  -17.4181  -26.6662   21.4005 H   0  0  0  0  0  0
  -18.0291  -26.0048   22.9001 H   0  0  0  0  0  0
  -19.7917  -30.7234   24.2274 H   0  0  0  0  0  0
  -17.4998  -31.6266   24.5137 H   0  0  0  0  0  0
  -15.5325  -30.2973   23.7651 H   0  0  0  0  0  0
  -15.8639  -28.0809   22.7061 H   0  0  0  0  0  0
  -24.5855  -30.7127   25.7825 H   0  0  0  0  0  0
  -24.9000  -32.2879   26.5019 H   0  0  0  0  0  0
  -25.8095  -30.8805   27.0201 H   0  0  0  0  0  0
  -26.2785  -29.6831   24.1136 H   0  0  0  0  0  0
  -27.4049  -29.7273   25.4505 H   0  0  0  0  0  0
  -27.8616  -30.4379   23.9186 H   0  0  0  0  0  0
  -27.2643  -33.3608   26.2104 H   0  0  0  0  0  0
  -28.3807  -32.6934   25.0280 H   0  0  0  0  0  0
  -28.0742  -31.8431   26.5350 H   0  0  0  0  0  0
  -28.2589  -38.0126   24.7541 H   0  0  0  0  0  0
  -28.1098  -36.2657   24.6228 H   0  0  0  0  0  0
  -27.2313  -37.1389   25.8857 H   0  0  0  0  0  0
  -20.9277  -29.8725   21.6986 H   0  0  0  0  0  0
  -26.0183  -38.2886   24.1441 H   0  0  0  0  0  0
  -33.0446  -21.8084   22.1722 H   0  0  0  0  0  0
  -29.0316  -20.2239   19.9460 H   0  0  0  0  0  0
  -29.3985  -18.2567   19.3688 H   0  0  0  0  0  0
  -30.8807  -17.3495   19.3118 H   0  0  0  0  0  0
  -32.3091  -17.1834   21.5615 H   0  0  0  0  0  0
  -31.5903  -17.9147   22.9783 H   0  0  0  0  0  0
  -28.9439  -15.8771   19.4128 H   0  0  0  0  0  0
  -28.3510  -16.6149   20.8840 H   0  0  0  0  0  0
  -29.7724  -16.3058   23.0466 H   0  0  0  0  0  0
  -31.2624  -15.4121   22.9165 H   0  0  0  0  0  0
  -32.1256  -23.9596   19.8967 H   0  0  0  0  0  0
  -32.3319  -24.1126   21.6278 H   0  0  0  0  0  0
  -31.5730  -26.4583   21.0624 H   0  0  0  0  0  0
  -30.9561  -26.1320   19.4588 H   0  0  0  0  0  0
  -29.8559  -28.0640   20.5341 H   0  0  0  0  0  0
  -29.2783  -27.0602   21.8647 H   0  0  0  0  0  0
  -30.0624  -24.6514   21.8572 H   0  0  0  0  0  0
  -29.7350  -24.2875   20.3082 H   0  0  0  0  0  0
  1 25  1  0  0  0
  1 30  2  0  0  0
  1 85  1  0  0  0
  2  3  1  0  0  0
  2 25  1  0  0  0
  2 87  1  0  0  0
  2 88  1  0  0  0
  3  4  1  0  0  0
  3 89  1  0  0  0
  3 90  1  0  0  0
  4  5  1  0  0  0
  4 91  1  0  0  0
  4 92  1  0  0  0
  5  6  1  0  0  0
  5 26  1  0  0  0
  5 93  1  0  0  0
  6 25  1  0  0  0
  6 94  1  0  0  0
  6 95  1  0  0  0
  7  8  2  0  0  0
  7 26  1  0  0  0
  7 29  1  0  0  0
  8  9  1  0  0  0
  8 22  1  0  0  0
  9 10  1  0  0  0
  9 27  2  0  0  0
 10 11  2  0  0  0
 10 15  1  0  0  0
 11 12  1  0  0  0
 11 96  1  0  0  0
 12 13  2  0  0  0
 12 97  1  0  0  0
 13 14  1  0  0  0
 13 31  1  0  0  0
 14 15  2  0  0  0
 14 98  1  0  0  0
 15 99  1  0  0  0
 16 17  2  0  0  0
 16 21  1  0  0  0
 16 31  1  0  0  0
 17 18  1  0  0  0
 17100  1  0  0  0
 18 19  2  0  0  0
 18101  1  0  0  0
 19 20  1  0  0  0
 19 24  1  0  0  0
 20 21  2  0  0  0
 20102  1  0  0  0
 21 23  1  0  0  0
 22 28  1  0  0  0
 22 32  2  0  0  0
 26 27  1  0  0  0
 28103  1  0  0  0
 28104  1  0  0  0
 29105  1  0  0  0
 29106  1  0  0  0
 33 34  1  0  0  0
 33 66  1  0  0  0
 33 70  2  0  0  0
 34 36  1  0  0  0
 34 59  1  0  0  0
 34107  1  0  0  0
 35 44  2  0  0  0
 35 45  1  0  0  0
 35 68  1  0  0  0
 36 56  1  0  0  0
 36108  1  0  0  0
 37 39  1  0  0  0
 37 47  1  0  0  0
 37 66  1  0  0  0
 37109  1  0  0  0
 38 43  2  0  0  0
 38 46  1  0  0  0
 38 47  1  0  0  0
 39 64  1  0  0  0
 39 67  2  0  0  0
 40 52  1  0  0  0
 40 53  2  0  0  0
 40 58  1  0  0  0
 41110  1  0  0  0
 41111  1  0  0  0
 41112  1  0  0  0
 41 48  1  0  0  0
 42 43  1  0  0  0
 42 66  1  0  0  0
 42113  1  0  0  0
 42114  1  0  0  0
 43 44  1  0  0  0
 44115  1  0  0  0
 45 46  2  0  0  0
 45116  1  0  0  0
 46117  1  0  0  0
 47118  1  0  0  0
 47119  1  0  0  0
 48 56  1  0  0  0
 48 65  1  0  0  0
 48120  1  0  0  0
 49 50  1  0  0  0
 49 53  1  0  0  0
 49 64  1  0  0  0
 49121  1  0  0  0
 50 51  1  0  0  0
 50122  1  0  0  0
 50123  1  0  0  0
 51 52  1  0  0  0
 51124  1  0  0  0
 51125  1  0  0  0
 52126  1  0  0  0
 52127  1  0  0  0
 53 54  1  0  0  0
 54 55  2  0  0  0
 54128  1  0  0  0
 55 57  1  0  0  0
 55129  1  0  0  0
 56 69  2  0  0  0
 57 58  2  0  0  0
 57130  1  0  0  0
 58131  1  0  0  0
 59 60  1  0  0  0
 59 61  1  0  0  0
 59 62  1  0  0  0
 60132  1  0  0  0
 60133  1  0  0  0
 60134  1  0  0  0
 61135  1  0  0  0
 61136  1  0  0  0
 61137  1  0  0  0
 62138  1  0  0  0
 62139  1  0  0  0
 62140  1  0  0  0
 63 65  1  0  0  0
 63141  1  0  0  0
 63142  1  0  0  0
 63143  1  0  0  0
 64144  1  0  0  0
 65145  1  0  0  0
 68 81  1  0  0  0
 71 73  2  0  0  0
 71 83  1  0  0  0
 71146  1  0  0  0
 72 74  1  0  0  0
 72 82  2  0  0  0
 72147  1  0  0  0
 73 79  1  0  0  0
 73 82  1  0  0  0
 74 83  2  0  0  0
 74 84  1  0  0  0
 75 77  1  0  0  0
 75 84  1  0  0  0
 75148  1  0  0  0
 75149  1  0  0  0
 76 78  1  0  0  0
 76 84  1  0  0  0
 76150  1  0  0  0
 76151  1  0  0  0
 77 85  1  0  0  0
 77152  1  0  0  0
 77153  1  0  0  0
 78 85  1  0  0  0
 78154  1  0  0  0
 78155  1  0  0  0
 79 86  1  0  0  0
 79156  1  0  0  0
 79157  1  0  0  0
 80 81  1  0  0  0
 80 86  1  0  0  0
 80158  1  0  0  0
 80159  1  0  0  0
 81160  1  0  0  0
 81161  1  0  0  0
 86162  1  0  0  0
 86163  1  0  0  0
M  CHG  1  86   1
M  ISO  4   1 100  68 101  81 101  85 100
M  END
> <chiral flag>
0

> <version>
0

> <s_m_source_file>
/data/baiqing/PycharmProjects/Reinvent-master-3.2/result/LINK_invent/BTK/process_docking_weight1_custom_sum_contain_oxygen_bond_distance_aromatic_linkinvent_7_9_3/rearranged_h_0195.sdf

> <i_m_source_file_index>
29

> <r_mmod_Potential_Energy-OPLS-2005>
-30.6756858825684

> <r_mmod_Stretch_Energy-OPLS-2005>
38.1625785827637

> <r_mmod_Bend_Energy-OPLS-2005>
108.487266540527

> <r_mmod_Torsional_Energy-OPLS-2005>
336.398681640625

> <r_mmod_Improper_Torsional_Energy-OPLS-2005>
7.13625478744507

> <r_mmod_Van_der_Waal_Energy-OPLS-2005>
176.249725341797

> <r_mmod_Electrostatic_Energy-OPLS-2005>
-240.257583618164

> <r_mmod_Solvation_Energy-OPLS-2005>
-466.386352539062

> <b_mmod_Minimization_Converged-OPLS-2005>
0

> <r_mmod_RMS_Derivative-OPLS-2005>
2.55852270126343

$$$$
30
                    3D
 Structure written by MMmdl.
172182  0  0  1  0            999 V2000
  -28.4630  -17.2148   20.6929 C   0  0  0  0  0  0
  -29.7786  -14.5275   19.6678 C   0  0  0  0  0  0
  -29.4327  -13.3276   18.6102 C   0  0  0  0  0  0
  -28.2546  -12.4630   19.0424 C   0  0  0  0  0  0
  -27.4182  -13.4256   19.8749 C   0  0  2  0  0  0
  -28.1106  -14.2537   21.0088 C   0  0  0  0  0  0
  -25.1222  -13.8256   20.5761 C   0  0  0  0  0  0
  -24.0957  -13.0239   20.9384 C   0  0  0  0  0  0
  -24.5943  -11.6838   20.8846 C   0  0  0  0  0  0
  -23.8863  -10.4169   21.0458 C   0  0  0  0  0  0
  -24.3513   -9.4124   21.9207 C   0  0  0  0  0  0
  -23.6227   -8.2145   22.0756 C   0  0  0  0  0  0
  -22.4202   -8.0178   21.3553 C   0  0  0  0  0  0
  -21.9815   -9.0104   20.4632 C   0  0  0  0  0  0
  -22.7097  -10.1987   20.3048 C   0  0  0  0  0  0
  -21.6825   -6.0667   22.5278 C   0  0  0  0  0  0
  -21.3989   -6.5603   23.8201 C   0  0  0  0  0  0
  -21.3658   -5.6781   24.9186 C   0  0  0  0  0  0
  -21.6041   -4.3037   24.7254 C   0  0  0  0  0  0
  -21.8827   -3.8105   23.4385 C   0  0  0  0  0  0
  -21.9186   -4.6904   22.3428 C   0  0  0  0  0  0
  -22.7061  -13.4943   21.2078 C   0  0  0  0  0  0
  -22.1661   -4.2104   21.1005 F   0  0  0  0  0  0
  -21.5641   -3.4520   25.7770 F   0  0  0  0  0  0
  -28.6191  -15.5515   20.3749 N   0  0  0  0  0  0
  -26.1640  -12.9698   20.3296 N   0  0  0  0  0  0
  -25.8856  -11.6696   20.5675 N   0  0  0  0  0  0
  -21.9799  -12.7949   22.0664 N   0  0  0  0  0  0
  -25.2549  -15.2047   20.4031 N   0  0  0  0  0  0
  -29.7860  -17.1077   20.6593 O   0  0  0  0  0  0
  -21.6596   -6.8770   21.4221 O   0  0  0  0  0  0
  -22.2790  -14.5264   20.6926 O   0  0  0  0  0  0
  -24.6456  -31.8575   23.2233 C   0  0  0  0  0  0
  -25.9357  -32.4707   23.8363 C   0  0  1  0  0  0
  -26.4763  -26.9341   19.9351 C   0  0  0  0  0  0
  -25.6168  -33.8535   24.2249 N   0  0  0  0  0  0
  -23.4109  -30.3990   21.7136 C   0  0  2  0  0  0
  -24.7327  -29.0531   20.0097 C   0  0  0  0  0  0
  -23.0307  -29.2440   22.7150 C   0  0  0  0  0  0
  -19.3847  -27.7978   21.8258 C   0  0  0  0  0  0
  -24.1513  -36.7220   23.2632 C   0  0  0  0  0  0
  -25.9790  -30.5919   21.4826 C   0  0  0  0  0  0
  -25.9143  -29.2421   20.7299 C   0  0  0  0  0  0
  -26.8143  -28.1006   20.7729 C   0  0  0  0  0  0
  -25.6736  -27.1673   18.8654 C   0  0  0  0  0  0
  -24.6307  -28.0391   19.0688 C   0  0  0  0  0  0
  -23.5493  -29.9464   20.2468 C   0  0  0  0  0  0
  -25.4167  -36.3017   24.0293 C   0  0  1  0  0  0
  -21.2024  -27.6904   23.8020 C   0  0  2  0  0  0
  -21.7276  -25.7067   24.0676 C   0  0  0  0  0  0
  -21.3595  -24.1153   22.5526 C   0  0  0  0  0  0
  -20.6678  -25.1159   20.5757 C   0  0  0  0  0  0
  -19.8386  -28.3417   23.1695 C   0  0  0  0  0  0
  -19.2737  -29.5013   23.8961 C   0  0  0  0  0  0
  -17.9802  -30.0355   23.7255 C   0  0  0  0  0  0
  -25.9146  -34.9410   23.5036 C   0  0  0  0  0  0
  -17.2294  -29.2905   22.8140 C   0  0  0  0  0  0
  -17.8947  -28.2644   21.9783 C   0  0  0  0  0  0
  -26.4595  -31.6605   25.0860 C   0  0  0  0  0  0
  -25.3724  -31.3839   26.1520 C   0  0  0  0  0  0
  -27.0541  -30.2968   24.6726 C   0  0  0  0  0  0
  -27.6076  -32.4409   25.7632 C   0  0  0  0  0  0
  -27.5591  -37.1787   24.8467 C   0  0  0  0  0  0
  -21.8079  -28.7583   22.8679 N   0  0  0  0  0  0
  -26.4318  -37.3754   23.9397 N   0  0  0  0  0  0
  -24.7006  -31.0190   22.1498 N   0  0  0  0  0  0
  -23.8806  -28.7401   23.4223 O   0  0  0  0  0  0
  -26.3659  -25.5130   20.1392 O   0  0  0  0  0  0
  -26.5668  -34.8914   22.4576 O   0  0  0  0  0  0
  -23.5630  -32.1653   23.7473 O   0  0  0  0  0  0
  -18.7610  -26.3060   20.1305 C   0  0  0  0  0  0
  -20.2168  -27.2035   19.7110 C   0  0  0  0  0  0
  -18.7458  -25.4059   21.6098 C   0  0  0  0  0  0
  -22.0605  -26.2072   21.8223 C   0  0  0  0  0  0
  -20.2281  -27.9581   18.4350 C   0  0  0  0  0  0
  -26.5040  -21.9924   21.7558 C   0  0  0  0  0  0
  -19.6110  -22.2416   21.4597 C   0  0  0  0  0  0
  -27.4339  -20.3489   21.7511 C   0  0  0  0  0  0
  -25.6914  -20.3632   20.9056 C   0  0  0  0  0  0
  -18.9374  -23.5804   21.0439 C   0  0  1  0  0  0
  -24.7790  -22.4984   21.6972 C   0  0  2  0  0  0
  -20.4090  -22.6821   20.1985 C   0  0  1  0  0  0
  -18.9935  -27.8712   17.5502 C   0  0  0  0  0  0
  -23.3435  -23.8376   19.2352 C   0  0  0  0  0  0
  -25.1712  -24.4116   19.4784 C   0  0  0  0  0  0
  -21.6469  -27.2019   20.5998 N   0  0  0  0  0  0
  -20.1125  -25.8767   22.5054 N   0  0  0  0  0  0
  -27.2789  -18.8679   20.9888 N   0  0  0  0  0  0
  -23.6371  -24.5927   21.6899 N   0  0  0  0  0  0
  -22.1561  -22.9409   20.1679 N   0  3  0  0  0  0
  -21.1960  -28.6143   18.0468 O   0  0  0  0  0  0
  -30.4278  -15.1983   19.1039 H   0  0  0  0  0  0
  -30.4686  -14.1501   20.4226 H   0  0  0  0  0  0
  -30.3107  -12.7096   18.4150 H   0  0  0  0  0  0
  -29.1811  -13.7894   17.6537 H   0  0  0  0  0  0
  -28.5936  -11.6275   19.6601 H   0  0  0  0  0  0
  -27.7068  -12.0500   18.1944 H   0  0  0  0  0  0
  -27.1306  -14.1477   19.1037 H   0  0  0  0  0  0
  -28.8140  -13.6644   21.6049 H   0  0  0  0  0  0
  -27.3948  -14.5759   21.7653 H   0  0  0  0  0  0
  -25.2606   -9.5682   22.4839 H   0  0  0  0  0  0
  -23.9933   -7.4553   22.7496 H   0  0  0  0  0  0
  -21.0743   -8.8596   19.8955 H   0  0  0  0  0  0
  -22.3504  -10.9539   19.6202 H   0  0  0  0  0  0
  -21.1965   -7.6107   23.9699 H   0  0  0  0  0  0
  -21.1473   -6.0510   25.9093 H   0  0  0  0  0  0
  -22.0609   -2.7562   23.2900 H   0  0  0  0  0  0
  -22.3451  -11.9624   22.5043 H   0  0  0  0  0  0
  -21.0438  -13.1000   22.2938 H   0  0  0  0  0  0
  -24.4563  -15.8271   20.4628 H   0  0  0  0  0  0
  -26.0519  -15.6089   19.9338 H   0  0  0  0  0  0
  -26.7285  -32.5034   23.0899 H   0  0  0  0  0  0
  -25.0285  -33.9676   25.0383 H   0  0  0  0  0  0
  -22.6018  -31.1331   21.7296 H   0  0  0  0  0  0
  -23.3816  -35.9508   23.3255 H   0  0  0  0  0  0
  -24.3596  -36.8895   22.2052 H   0  0  0  0  0  0
  -23.7219  -37.6384   23.6691 H   0  0  0  0  0  0
  -26.2404  -31.3644   20.7628 H   0  0  0  0  0  0
  -26.8257  -30.5318   22.1551 H   0  0  0  0  0  0
  -27.5521  -28.0326   21.5606 H   0  0  0  0  0  0
  -25.5415  -26.4777   18.0482 H   0  0  0  0  0  0
  -23.7667  -28.0007   18.4222 H   0  0  0  0  0  0
  -23.6573  -30.8156   19.5986 H   0  0  0  0  0  0
  -22.6321  -29.4615   19.9320 H   0  0  0  0  0  0
  -25.1344  -36.1834   25.0784 H   0  0  0  0  0  0
  -21.3265  -28.1237   24.7908 H   0  0  0  0  0  0
  -21.2464  -25.3741   24.9913 H   0  0  0  0  0  0
  -22.7883  -25.6908   24.3241 H   0  0  0  0  0  0
  -20.5271  -23.7307   23.1553 H   0  0  0  0  0  0
  -21.9861  -23.2184   22.6040 H   0  0  0  0  0  0
  -21.5064  -25.1536   19.8994 H   0  0  0  0  0  0
  -20.2573  -24.7531   19.6116 H   0  0  0  0  0  0
  -19.8563  -29.9072   24.7141 H   0  0  0  0  0  0
  -17.5773  -30.8271   24.3461 H   0  0  0  0  0  0
  -16.1791  -29.5180   22.6578 H   0  0  0  0  0  0
  -17.1986  -27.7982   21.3007 H   0  0  0  0  0  0
  -24.5980  -30.7087   25.7859 H   0  0  0  0  0  0
  -24.8823  -32.3019   26.4787 H   0  0  0  0  0  0
  -25.7998  -30.9147   27.0392 H   0  0  0  0  0  0
  -26.3209  -29.6511   24.1896 H   0  0  0  0  0  0
  -27.4104  -29.7498   25.5460 H   0  0  0  0  0  0
  -27.9146  -30.4089   24.0139 H   0  0  0  0  0  0
  -27.2661  -33.3762   26.2105 H   0  0  0  0  0  0
  -28.3964  -32.6906   25.0498 H   0  0  0  0  0  0
  -28.0677  -31.8624   26.5662 H   0  0  0  0  0  0
  -28.2570  -38.0107   24.7554 H   0  0  0  0  0  0
  -28.1122  -36.2653   24.6263 H   0  0  0  0  0  0
  -27.2295  -37.1372   25.8856 H   0  0  0  0  0  0
  -21.1061  -29.1461   22.2484 H   0  0  0  0  0  0
  -26.0163  -38.2815   24.1404 H   0  0  0  0  0  0
  -17.9458  -26.2136   19.4318 H   0  0  0  0  0  0
  -26.9958  -22.5412   20.9521 H   0  0  0  0  0  0
  -26.8910  -22.5066   22.6350 H   0  0  0  0  0  0
  -18.9409  -21.4109   21.2817 H   0  0  0  0  0  0
  -20.1027  -22.0125   22.3952 H   0  0  0  0  0  0
  -27.4374  -20.0510   22.8024 H   0  0  0  0  0  0
  -28.4738  -20.6209   21.5589 H   0  0  0  0  0  0
  -25.6844  -20.5259   19.8233 H   0  0  0  0  0  0
  -24.8285  -19.7018   21.0334 H   0  0  0  0  0  0
  -18.0521  -23.4465   20.4277 H   0  0  0  0  0  0
  -24.3622  -22.1585   22.6448 H   0  0  0  0  0  0
  -20.1775  -22.1223   19.2917 H   0  0  0  0  0  0
  -18.0713  -27.9600   18.1123 H   0  0  0  0  0  0
  -18.9726  -26.9283   17.0115 H   0  0  0  0  0  0
  -19.0276  -28.6808   16.8330 H   0  0  0  0  0  0
  -22.9176  -24.6464   18.6395 H   0  0  0  0  0  0
  -23.4267  -23.0987   18.4348 H   0  0  0  0  0  0
  -25.3980  -24.5292   18.4243 H   0  0  0  0  0  0
  -25.6930  -23.4724   19.6186 H   0  0  0  0  0  0
  -24.4689  -25.1658   21.5786 H   0  0  0  0  0  0
  -22.5400  -22.0034   20.1600 H   0  0  0  0  0  0
  -22.3464  -23.3014   21.0966 H   0  0  0  0  0  0
  1 25  1  0  0  0
  1 30  2  0  0  0
  1 88  1  0  0  0
  2  3  1  0  0  0
  2 25  1  0  0  0
  2 92  1  0  0  0
  2 93  1  0  0  0
  3  4  1  0  0  0
  3 94  1  0  0  0
  3 95  1  0  0  0
  4  5  1  0  0  0
  4 96  1  0  0  0
  4 97  1  0  0  0
  5  6  1  0  0  0
  5 26  1  0  0  0
  5 98  1  0  0  0
  6 25  1  0  0  0
  6 99  1  0  0  0
  6100  1  0  0  0
  7  8  2  0  0  0
  7 26  1  0  0  0
  7 29  1  0  0  0
  8  9  1  0  0  0
  8 22  1  0  0  0
  9 10  1  0  0  0
  9 27  2  0  0  0
 10 11  2  0  0  0
 10 15  1  0  0  0
 11 12  1  0  0  0
 11101  1  0  0  0
 12 13  2  0  0  0
 12102  1  0  0  0
 13 14  1  0  0  0
 13 31  1  0  0  0
 14 15  2  0  0  0
 14103  1  0  0  0
 15104  1  0  0  0
 16 17  2  0  0  0
 16 21  1  0  0  0
 16 31  1  0  0  0
 17 18  1  0  0  0
 17105  1  0  0  0
 18 19  2  0  0  0
 18106  1  0  0  0
 19 20  1  0  0  0
 19 24  1  0  0  0
 20 21  2  0  0  0
 20107  1  0  0  0
 21 23  1  0  0  0
 22 28  1  0  0  0
 22 32  2  0  0  0
 26 27  1  0  0  0
 28108  1  0  0  0
 28109  1  0  0  0
 29110  1  0  0  0
 29111  1  0  0  0
 33 34  1  0  0  0
 33 66  1  0  0  0
 33 70  2  0  0  0
 34 36  1  0  0  0
 34 59  1  0  0  0
 34112  1  0  0  0
 35 44  2  0  0  0
 35 45  1  0  0  0
 35 68  1  0  0  0
 36 56  1  0  0  0
 36113  1  0  0  0
 37 39  1  0  0  0
 37 47  1  0  0  0
 37 66  1  0  0  0
 37114  1  0  0  0
 38 43  2  0  0  0
 38 46  1  0  0  0
 38 47  1  0  0  0
 39 64  1  0  0  0
 39 67  2  0  0  0
 40 52  1  0  0  0
 40 53  2  0  0  0
 40 58  1  0  0  0
 41115  1  0  0  0
 41116  1  0  0  0
 41117  1  0  0  0
 41 48  1  0  0  0
 42 43  1  0  0  0
 42 66  1  0  0  0
 42118  1  0  0  0
 42119  1  0  0  0
 43 44  1  0  0  0
 44120  1  0  0  0
 45 46  2  0  0  0
 45121  1  0  0  0
 46122  1  0  0  0
 47123  1  0  0  0
 47124  1  0  0  0
 48 56  1  0  0  0
 48 65  1  0  0  0
 48125  1  0  0  0
 49 50  1  0  0  0
 49 53  1  0  0  0
 49 64  1  0  0  0
 49126  1  0  0  0
 50 51  1  0  0  0
 50127  1  0  0  0
 50128  1  0  0  0
 51 52  1  0  0  0
 51129  1  0  0  0
 51130  1  0  0  0
 52131  1  0  0  0
 52132  1  0  0  0
 53 54  1  0  0  0
 54 55  2  0  0  0
 54133  1  0  0  0
 55 57  1  0  0  0
 55134  1  0  0  0
 56 69  2  0  0  0
 57 58  2  0  0  0
 57135  1  0  0  0
 58136  1  0  0  0
 59 60  1  0  0  0
 59 61  1  0  0  0
 59 62  1  0  0  0
 60137  1  0  0  0
 60138  1  0  0  0
 60139  1  0  0  0
 61140  1  0  0  0
 61141  1  0  0  0
 61142  1  0  0  0
 62143  1  0  0  0
 62144  1  0  0  0
 62145  1  0  0  0
 63 65  1  0  0  0
 63146  1  0  0  0
 63147  1  0  0  0
 63148  1  0  0  0
 64149  1  0  0  0
 65150  1  0  0  0
 68 85  1  0  0  0
 71 72  2  0  0  0
 71 73  1  0  0  0
 71151  1  0  0  0
 72 75  1  0  0  0
 72 86  1  0  0  0
 73 87  2  0  0  0
 73 80  1  0  0  0
 74 86  2  0  0  0
 74 87  1  0  0  0
 74 89  1  0  0  0
 75 83  1  0  0  0
 75 91  2  0  0  0
 76 78  1  0  0  0
 76 81  1  0  0  0
 76152  1  0  0  0
 76153  1  0  0  0
 77 80  1  0  0  0
 77 82  1  0  0  0
 77154  1  0  0  0
 77155  1  0  0  0
 78 88  1  0  0  0
 78156  1  0  0  0
 78157  1  0  0  0
 79 81  1  0  0  0
 79 88  1  0  0  0
 79158  1  0  0  0
 79159  1  0  0  0
 80 82  1  0  0  0
 80160  1  0  0  0
 81 89  1  0  0  0
 81161  1  0  0  0
 82 90  1  0  0  0
 82162  1  0  0  0
 83163  1  0  0  0
 83164  1  0  0  0
 83165  1  0  0  0
 84 85  1  0  0  0
 84 90  1  0  0  0
 84166  1  0  0  0
 84167  1  0  0  0
 85168  1  0  0  0
 85169  1  0  0  0
 89170  1  0  0  0
 90171  1  0  0  0
 90172  1  0  0  0
M  CHG  1  90   1
M  ISO  4   1 100  68 101  85 101  88 100
M  END
> <chiral flag>
0

> <version>
0

> <s_m_source_file>
/data/baiqing/PycharmProjects/Reinvent-master-3.2/result/LINK_invent/BTK/process_docking_weight1_custom_sum_contain_oxygen_bond_distance_aromatic_linkinvent_7_9_3/rearranged_h_0195.sdf

> <i_m_source_file_index>
30

> <r_mmod_Potential_Energy-OPLS-2005>
30979.4140625

> <r_mmod_Stretch_Energy-OPLS-2005>
15337.099609375

> <r_mmod_Bend_Energy-OPLS-2005>
3107.1689453125

> <r_mmod_Torsional_Energy-OPLS-2005>
769.459350585938

> <r_mmod_Improper_Torsional_Energy-OPLS-2005>
76.4879837036133

> <r_mmod_Van_der_Waal_Energy-OPLS-2005>
4128.86865234375

> <r_mmod_Electrostatic_Energy-OPLS-2005>
-689.95068359375

> <r_mmod_Solvation_Energy-OPLS-2005>
-516.513671875

> <b_mmod_Minimization_Converged-OPLS-2005>
0

> <r_mmod_RMS_Derivative-OPLS-2005>
14.0821571350098

$$$$
31
                    3D
 Structure written by MMmdl.
167177  0  0  1  0            999 V2000
  -30.6231  -14.7419   20.4693 C   0  0  0  0  0  0
  -30.4312  -12.4536   19.4868 C   0  0  0  0  0  0
  -29.5152  -12.5137   18.2438 C   0  0  0  0  0  0
  -28.0401  -12.3365   18.6539 C   0  0  0  0  0  0
  -27.6434  -13.2353   19.8556 C   0  0  2  0  0  0
  -28.6876  -13.1729   20.9956 C   0  0  0  0  0  0
  -25.2491  -13.8195   20.5709 C   0  0  0  0  0  0
  -24.1777  -13.0434   20.9197 C   0  0  0  0  0  0
  -24.6369  -11.6917   20.8729 C   0  0  0  0  0  0
  -23.9047  -10.4296   21.0397 C   0  0  0  0  0  0
  -24.3600   -9.4209   21.9174 C   0  0  0  0  0  0
  -23.6287   -8.2236   22.0741 C   0  0  0  0  0  0
  -22.4269   -8.0281   21.3541 C   0  0  0  0  0  0
  -21.9903   -9.0237   20.4641 C   0  0  0  0  0  0
  -22.7220  -10.2127   20.3048 C   0  0  0  0  0  0
  -21.6859   -6.0727   22.5276 C   0  0  0  0  0  0
  -21.4010   -6.5620   23.8212 C   0  0  0  0  0  0
  -21.3661   -5.6772   24.9172 C   0  0  0  0  0  0
  -21.6056   -4.3036   24.7227 C   0  0  0  0  0  0
  -21.8821   -3.8131   23.4338 C   0  0  0  0  0  0
  -21.9183   -4.6946   22.3399 C   0  0  0  0  0  0
  -22.7802  -13.5200   21.1873 C   0  0  0  0  0  0
  -22.1665   -4.2139   21.0983 F   0  0  0  0  0  0
  -21.5637   -3.4524   25.7735 F   0  0  0  0  0  0
  -29.9920  -13.5193   20.4189 N   0  0  0  0  0  0
  -26.2932  -12.9413   20.3299 N   0  0  0  0  0  0
  -25.9305  -11.6544   20.5726 N   0  0  0  0  0  0
  -22.0440  -12.8208   22.0441 N   0  0  0  0  0  0
  -25.4170  -15.1930   20.4143 N   0  0  0  0  0  0
  -31.7986  -14.8408   20.1114 O   0  0  0  0  0  0
  -21.6641   -6.8874   21.4246 O   0  0  0  0  0  0
  -22.3500  -14.5509   20.6711 O   0  0  0  0  0  0
  -24.6338  -31.8556   23.1991 C   0  0  0  0  0  0
  -25.9163  -32.4751   23.8343 C   0  0  1  0  0  0
  -27.2115  -27.2427   20.1324 C   0  0  0  0  0  0
  -25.5959  -33.8561   24.2256 N   0  0  0  0  0  0
  -23.4301  -30.4798   21.5456 C   0  0  2  0  0  0
  -24.8770  -28.9317   20.1109 C   0  0  0  0  0  0
  -22.7515  -29.4600   22.4922 C   0  0  0  0  0  0
  -18.0293  -28.1388   22.8481 C   0  0  0  0  0  0
  -24.1496  -36.7280   23.2636 C   0  0  0  0  0  0
  -25.9799  -30.7611   21.3859 C   0  0  0  0  0  0
  -26.0512  -29.3845   20.7249 C   0  0  0  0  0  0
  -27.2220  -28.5530   20.7264 C   0  0  0  0  0  0
  -26.0133  -26.8756   19.4728 C   0  0  0  0  0  0
  -24.8650  -27.6858   19.4718 C   0  0  0  0  0  0
  -23.6492  -29.8196   20.1597 C   0  0  0  0  0  0
  -25.4121  -36.3067   24.0323 C   0  0  1  0  0  0
  -20.5900  -28.3697   23.1278 C   0  0  2  0  0  0
  -20.6785  -26.9419   22.5412 C   0  0  0  0  0  0
  -19.5757  -26.6386   21.5220 C   0  0  0  0  0  0
  -18.1938  -26.7930   22.1624 C   0  0  0  0  0  0
  -19.1548  -28.8861   23.2872 C   0  0  0  0  0  0
  -18.9464  -30.1463   23.8880 C   0  0  0  0  0  0
  -17.6459  -30.6587   24.0552 C   0  0  0  0  0  0
  -25.9067  -34.9437   23.5090 C   0  0  0  0  0  0
  -16.5351  -29.9070   23.6341 C   0  0  0  0  0  0
  -16.7280  -28.6499   23.0343 C   0  0  0  0  0  0
  -26.4515  -31.6572   25.0739 C   0  0  0  0  0  0
  -25.3730  -31.3727   26.1456 C   0  0  0  0  0  0
  -27.0352  -30.2974   24.6244 C   0  0  0  0  0  0
  -27.6070  -32.4307   25.7510 C   0  0  0  0  0  0
  -27.5588  -37.1792   24.8461 C   0  0  0  0  0  0
  -21.4222  -29.3041   22.3671 N   0  0  0  0  0  0
  -26.4292  -37.3770   23.9417 N   0  0  0  0  0  0
  -24.7005  -31.0502   22.0990 N   0  0  0  0  0  0
  -23.4215  -28.8147   23.3032 O   0  0  0  0  0  0
  -28.2777  -26.3032   20.2186 O   0  0  0  0  0  0
  -26.5632  -34.8914   22.4651 O   0  0  0  0  0  0
  -23.5484  -32.1409   23.7263 O   0  0  0  0  0  0
  -28.4910  -22.1994   20.2078 C   0  0  0  0  0  0
  -28.8845  -23.5961   20.3321 C   0  0  0  0  0  0
  -29.4736  -21.1656   20.4430 C   0  0  0  0  0  0
  -30.9673  -22.8454   20.9566 C   0  0  0  0  0  0
  -26.5349  -20.8622   18.9480 C   0  0  0  0  0  0
  -26.2437  -22.3317   18.7809 C   0  0  0  0  0  0
  -29.6743  -18.6067   21.1228 C   0  0  0  0  0  0
  -29.7601  -19.2970   18.9005 C   0  0  0  0  0  0
  -27.0362  -21.8508   19.9794 C   0  0  0  0  0  0
  -30.2072  -17.3403   20.2828 C   0  0  2  0  0  0
  -29.6683  -17.7528   18.9002 C   0  0  2  0  0  0
  -32.3616  -23.2037   21.4276 C   0  0  0  0  0  0
  -27.9229  -24.8419   20.0332 C   0  0  0  0  0  0
  -30.1475  -23.8681   20.7135 N   0  0  0  0  0  0
  -30.7044  -21.5416   20.8210 N   0  0  0  0  0  0
  -29.2844  -19.7423   20.2076 N   0  0  0  0  0  0
  -29.8642  -15.8887   20.6578 N   0  0  0  0  0  0
  -30.3623  -17.1190   17.7669 N   0  3  0  0  0  0
  -31.4770  -12.5643   19.1964 H   0  0  0  0  0  0
  -30.3609  -11.4770   19.9661 H   0  0  0  0  0  0
  -29.8030  -11.7453   17.5253 H   0  0  0  0  0  0
  -29.6449  -13.4691   17.7341 H   0  0  0  0  0  0
  -27.8993  -11.2878   18.9190 H   0  0  0  0  0  0
  -27.3828  -12.5274   17.8039 H   0  0  0  0  0  0
  -27.6351  -14.2574   19.4740 H   0  0  0  0  0  0
  -28.7206  -12.1767   21.4383 H   0  0  0  0  0  0
  -28.4210  -13.8583   21.8005 H   0  0  0  0  0  0
  -25.2744   -9.5707   22.4741 H   0  0  0  0  0  0
  -24.0018   -7.4628   22.7443 H   0  0  0  0  0  0
  -21.0846   -8.8743   19.8939 H   0  0  0  0  0  0
  -22.3674  -10.9649   19.6157 H   0  0  0  0  0  0
  -21.2007   -7.6131   23.9717 H   0  0  0  0  0  0
  -21.1492   -6.0504   25.9090 H   0  0  0  0  0  0
  -22.0599   -2.7594   23.2828 H   0  0  0  0  0  0
  -22.4028  -11.9870   22.4853 H   0  0  0  0  0  0
  -21.1052  -13.1250   22.2607 H   0  0  0  0  0  0
  -24.6466  -15.8430   20.5253 H   0  0  0  0  0  0
  -26.2626  -15.6385   20.0865 H   0  0  0  0  0  0
  -26.7228  -32.5390   23.1081 H   0  0  0  0  0  0
  -25.0097  -33.9701   25.0393 H   0  0  0  0  0  0
  -22.7268  -31.3020   21.4016 H   0  0  0  0  0  0
  -23.3767  -35.9604   23.3282 H   0  0  0  0  0  0
  -24.3594  -36.8923   22.2058 H   0  0  0  0  0  0
  -23.7236  -37.6472   23.6669 H   0  0  0  0  0  0
  -26.1254  -31.5214   20.6173 H   0  0  0  0  0  0
  -26.8549  -30.8052   22.0220 H   0  0  0  0  0  0
  -28.1154  -28.8897   21.2340 H   0  0  0  0  0  0
  -25.9099  -25.9317   18.9608 H   0  0  0  0  0  0
  -23.9698  -27.3345   18.9767 H   0  0  0  0  0  0
  -23.7757  -30.5993   19.4074 H   0  0  0  0  0  0
  -22.7669  -29.2558   19.8528 H   0  0  0  0  0  0
  -25.1296  -36.1909   25.0811 H   0  0  0  0  0  0
  -20.9985  -28.3279   24.1401 H   0  0  0  0  0  0
  -20.5713  -26.2307   23.3617 H   0  0  0  0  0  0
  -21.6650  -26.7464   22.1194 H   0  0  0  0  0  0
  -19.6920  -25.6298   21.1250 H   0  0  0  0  0  0
  -19.6691  -27.3194   20.6754 H   0  0  0  0  0  0
  -17.4218  -26.6685   21.4017 H   0  0  0  0  0  0
  -18.0325  -26.0073   22.9020 H   0  0  0  0  0  0
  -19.7941  -30.7282   24.2247 H   0  0  0  0  0  0
  -17.5013  -31.6272   24.5140 H   0  0  0  0  0  0
  -15.5343  -30.2943   23.7699 H   0  0  0  0  0  0
  -15.8692  -28.0813   22.7040 H   0  0  0  0  0  0
  -24.5904  -30.7076   25.7785 H   0  0  0  0  0  0
  -24.8915  -32.2894   26.4873 H   0  0  0  0  0  0
  -25.8043  -30.8913   27.0243 H   0  0  0  0  0  0
  -26.2940  -29.6719   24.1255 H   0  0  0  0  0  0
  -27.4002  -29.7237   25.4775 H   0  0  0  0  0  0
  -27.8839  -30.4220   23.9513 H   0  0  0  0  0  0
  -27.2690  -33.3619   26.2064 H   0  0  0  0  0  0
  -28.3894  -32.6846   25.0345 H   0  0  0  0  0  0
  -28.0726  -31.8445   26.5443 H   0  0  0  0  0  0
  -28.2579  -38.0115   24.7544 H   0  0  0  0  0  0
  -28.1103  -36.2646   24.6225 H   0  0  0  0  0  0
  -27.2322  -37.1387   25.8867 H   0  0  0  0  0  0
  -20.9419  -29.8754   21.6859 H   0  0  0  0  0  0
  -26.0164  -38.2845   24.1412 H   0  0  0  0  0  0
  -27.2110  -20.4372   18.2136 H   0  0  0  0  0  0
  -25.7042  -20.2216   19.2384 H   0  0  0  0  0  0
  -25.2137  -22.6455   18.9444 H   0  0  0  0  0  0
  -26.7552  -22.8230   17.9559 H   0  0  0  0  0  0
  -30.4281  -18.9329   21.8421 H   0  0  0  0  0  0
  -28.7893  -18.3255   21.6944 H   0  0  0  0  0  0
  -29.1881  -19.7347   18.0847 H   0  0  0  0  0  0
  -30.7968  -19.6132   18.7665 H   0  0  0  0  0  0
  -26.5197  -21.8458   20.9373 H   0  0  0  0  0  0
  -31.2959  -17.4242   20.2695 H   0  0  0  0  0  0
  -28.6124  -17.4788   18.8380 H   0  0  0  0  0  0
  -32.4535  -24.2723   21.6288 H   0  0  0  0  0  0
  -33.0992  -22.9375   20.6707 H   0  0  0  0  0  0
  -32.6020  -22.6711   22.3475 H   0  0  0  0  0  0
  -27.0117  -24.6430   20.5983 H   0  0  0  0  0  0
  -27.6732  -24.7293   18.9797 H   0  0  0  0  0  0
  -28.9116  -15.7258   20.9511 H   0  0  0  0  0  0
  -31.3384  -17.3577   17.7570 H   0  0  0  0  0  0
  -29.9486  -17.4173   16.9014 H   0  0  0  0  0  0
  -30.2796  -16.1202   17.8128 H   0  0  0  0  0  0
  1 25  1  0  0  0
  1 30  2  0  0  0
  1 87  1  0  0  0
  2  3  1  0  0  0
  2 25  1  0  0  0
  2 89  1  0  0  0
  2 90  1  0  0  0
  3  4  1  0  0  0
  3 91  1  0  0  0
  3 92  1  0  0  0
  4  5  1  0  0  0
  4 93  1  0  0  0
  4 94  1  0  0  0
  5  6  1  0  0  0
  5 26  1  0  0  0
  5 95  1  0  0  0
  6 25  1  0  0  0
  6 96  1  0  0  0
  6 97  1  0  0  0
  7  8  2  0  0  0
  7 26  1  0  0  0
  7 29  1  0  0  0
  8  9  1  0  0  0
  8 22  1  0  0  0
  9 10  1  0  0  0
  9 27  2  0  0  0
 10 11  2  0  0  0
 10 15  1  0  0  0
 11 12  1  0  0  0
 11 98  1  0  0  0
 12 13  2  0  0  0
 12 99  1  0  0  0
 13 14  1  0  0  0
 13 31  1  0  0  0
 14 15  2  0  0  0
 14100  1  0  0  0
 15101  1  0  0  0
 16 17  2  0  0  0
 16 21  1  0  0  0
 16 31  1  0  0  0
 17 18  1  0  0  0
 17102  1  0  0  0
 18 19  2  0  0  0
 18103  1  0  0  0
 19 20  1  0  0  0
 19 24  1  0  0  0
 20 21  2  0  0  0
 20104  1  0  0  0
 21 23  1  0  0  0
 22 28  1  0  0  0
 22 32  2  0  0  0
 26 27  1  0  0  0
 28105  1  0  0  0
 28106  1  0  0  0
 29107  1  0  0  0
 29108  1  0  0  0
 33 34  1  0  0  0
 33 66  1  0  0  0
 33 70  2  0  0  0
 34 36  1  0  0  0
 34 59  1  0  0  0
 34109  1  0  0  0
 35 44  2  0  0  0
 35 45  1  0  0  0
 35 68  1  0  0  0
 36 56  1  0  0  0
 36110  1  0  0  0
 37 39  1  0  0  0
 37 47  1  0  0  0
 37 66  1  0  0  0
 37111  1  0  0  0
 38 43  2  0  0  0
 38 46  1  0  0  0
 38 47  1  0  0  0
 39 64  1  0  0  0
 39 67  2  0  0  0
 40 52  1  0  0  0
 40 53  2  0  0  0
 40 58  1  0  0  0
 41112  1  0  0  0
 41113  1  0  0  0
 41114  1  0  0  0
 41 48  1  0  0  0
 42 43  1  0  0  0
 42 66  1  0  0  0
 42115  1  0  0  0
 42116  1  0  0  0
 43 44  1  0  0  0
 44117  1  0  0  0
 45 46  2  0  0  0
 45118  1  0  0  0
 46119  1  0  0  0
 47120  1  0  0  0
 47121  1  0  0  0
 48 56  1  0  0  0
 48 65  1  0  0  0
 48122  1  0  0  0
 49 50  1  0  0  0
 49 53  1  0  0  0
 49 64  1  0  0  0
 49123  1  0  0  0
 50 51  1  0  0  0
 50124  1  0  0  0
 50125  1  0  0  0
 51 52  1  0  0  0
 51126  1  0  0  0
 51127  1  0  0  0
 52128  1  0  0  0
 52129  1  0  0  0
 53 54  1  0  0  0
 54 55  2  0  0  0
 54130  1  0  0  0
 55 57  1  0  0  0
 55131  1  0  0  0
 56 69  2  0  0  0
 57 58  2  0  0  0
 57132  1  0  0  0
 58133  1  0  0  0
 59 60  1  0  0  0
 59 61  1  0  0  0
 59 62  1  0  0  0
 60134  1  0  0  0
 60135  1  0  0  0
 60136  1  0  0  0
 61137  1  0  0  0
 61138  1  0  0  0
 61139  1  0  0  0
 62140  1  0  0  0
 62141  1  0  0  0
 62142  1  0  0  0
 63 65  1  0  0  0
 63143  1  0  0  0
 63144  1  0  0  0
 63145  1  0  0  0
 64146  1  0  0  0
 65147  1  0  0  0
 68 83  1  0  0  0
 71 72  2  0  0  0
 71 73  1  0  0  0
 71 79  1  0  0  0
 72 83  1  0  0  0
 72 84  1  0  0  0
 73 85  2  0  0  0
 73 86  1  0  0  0
 74 82  1  0  0  0
 74 84  2  0  0  0
 74 85  1  0  0  0
 75 76  1  0  0  0
 75 79  1  0  0  0
 75148  1  0  0  0
 75149  1  0  0  0
 76 79  1  0  0  0
 76150  1  0  0  0
 76151  1  0  0  0
 77 80  1  0  0  0
 77 86  1  0  0  0
 77152  1  0  0  0
 77153  1  0  0  0
 78 81  1  0  0  0
 78 86  1  0  0  0
 78154  1  0  0  0
 78155  1  0  0  0
 79156  1  0  0  0
 80 81  1  0  0  0
 80 87  1  0  0  0
 80157  1  0  0  0
 81 88  1  0  0  0
 81158  1  0  0  0
 82159  1  0  0  0
 82160  1  0  0  0
 82161  1  0  0  0
 83162  1  0  0  0
 83163  1  0  0  0
 87164  1  0  0  0
 88165  1  0  0  0
 88166  1  0  0  0
 88167  1  0  0  0
M  CHG  1  88   1
M  ISO  4   1 100  68 101  83 101  87 100
M  END
> <chiral flag>
0

> <version>
0

> <s_m_source_file>
/data/baiqing/PycharmProjects/Reinvent-master-3.2/result/LINK_invent/BTK/process_docking_weight1_custom_sum_contain_oxygen_bond_distance_aromatic_linkinvent_7_9_3/rearranged_h_0195.sdf

> <i_m_source_file_index>
31

> <r_mmod_Potential_Energy-OPLS-2005>
-529.379333496094

> <r_mmod_Stretch_Energy-OPLS-2005>
122.40372467041

> <r_mmod_Bend_Energy-OPLS-2005>
210.514907836914

> <r_mmod_Torsional_Energy-OPLS-2005>
337.283447265625

> <r_mmod_Improper_Torsional_Energy-OPLS-2005>
12.169677734375

> <r_mmod_Van_der_Waal_Energy-OPLS-2005>
140.459136962891

> <r_mmod_Electrostatic_Energy-OPLS-2005>
-923.790405273438

> <r_mmod_Solvation_Energy-OPLS-2005>
-522.609008789062

> <b_mmod_Minimization_Converged-OPLS-2005>
0

> <r_mmod_RMS_Derivative-OPLS-2005>
2.6243724822998

$$$$
32
                    3D
 Structure written by MMmdl.
149158  0  0  1  0            999 V2000
  -30.6006  -14.9894   20.3942 C   0  0  0  0  0  0
  -30.4134  -12.6234   19.5048 C   0  0  0  0  0  0
  -29.5071  -12.5232   18.2596 C   0  0  0  0  0  0
  -28.0499  -12.2938   18.6911 C   0  0  0  0  0  0
  -27.6139  -13.2601   19.8240 C   0  0  2  0  0  0
  -28.6538  -13.3685   20.9597 C   0  0  0  0  0  0
  -25.2383  -13.8248   20.5720 C   0  0  0  0  0  0
  -24.1724  -13.0450   20.9252 C   0  0  0  0  0  0
  -24.6359  -11.6937   20.8769 C   0  0  0  0  0  0
  -23.9055  -10.4298   21.0412 C   0  0  0  0  0  0
  -24.3615   -9.4214   21.9187 C   0  0  0  0  0  0
  -23.6300   -8.2240   22.0755 C   0  0  0  0  0  0
  -22.4281   -8.0274   21.3548 C   0  0  0  0  0  0
  -21.9909   -9.0239   20.4646 C   0  0  0  0  0  0
  -22.7226  -10.2125   20.3058 C   0  0  0  0  0  0
  -21.6846   -6.0736   22.5276 C   0  0  0  0  0  0
  -21.4006   -6.5635   23.8212 C   0  0  0  0  0  0
  -21.3665   -5.6788   24.9175 C   0  0  0  0  0  0
  -21.6041   -4.3051   24.7215 C   0  0  0  0  0  0
  -21.8822   -3.8144   23.4336 C   0  0  0  0  0  0
  -21.9191   -4.6966   22.3396 C   0  0  0  0  0  0
  -22.7742  -13.5199   21.1901 C   0  0  0  0  0  0
  -22.1658   -4.2148   21.0976 F   0  0  0  0  0  0
  -21.5633   -3.4535   25.7732 F   0  0  0  0  0  0
  -29.9226  -13.7674   20.3393 N   0  0  0  0  0  0
  -26.2803  -12.9495   20.3218 N   0  0  0  0  0  0
  -25.9289  -11.6614   20.5744 N   0  0  0  0  0  0
  -22.0402  -12.8191   22.0466 N   0  0  0  0  0  0
  -25.4040  -15.1973   20.4130 N   0  0  0  0  0  0
  -31.8144  -14.9259   20.1702 O   0  0  0  0  0  0
  -21.6639   -6.8874   21.4242 O   0  0  0  0  0  0
  -22.3424  -14.5494   20.6739 O   0  0  0  0  0  0
  -24.6477  -31.8406   23.1850 C   0  0  0  0  0  0
  -25.9232  -32.4674   23.8254 C   0  0  1  0  0  0
  -27.2006  -27.0867   20.1459 C   0  0  0  0  0  0
  -25.5977  -33.8491   24.2158 N   0  0  0  0  0  0
  -23.4524  -30.4635   21.5315 C   0  0  2  0  0  0
  -24.8998  -28.8906   20.1061 C   0  0  0  0  0  0
  -22.7576  -29.4555   22.4825 C   0  0  0  0  0  0
  -18.0307  -28.1411   22.8480 C   0  0  0  0  0  0
  -24.1485  -36.7238   23.2645 C   0  0  0  0  0  0
  -26.0152  -30.6977   21.3946 C   0  0  0  0  0  0
  -26.0820  -29.3076   20.7304 C   0  0  0  0  0  0
  -27.2334  -28.4227   20.7348 C   0  0  0  0  0  0
  -25.9908  -26.7960   19.4738 C   0  0  0  0  0  0
  -24.8697  -27.6494   19.4627 C   0  0  0  0  0  0
  -23.6791  -29.7961   20.1504 C   0  0  0  0  0  0
  -25.4124  -36.3010   24.0300 C   0  0  1  0  0  0
  -20.5918  -28.3729   23.1219 C   0  0  2  0  0  0
  -20.6797  -26.9430   22.5403 C   0  0  0  0  0  0
  -19.5773  -26.6387   21.5214 C   0  0  0  0  0  0
  -18.1947  -26.7956   22.1611 C   0  0  0  0  0  0
  -19.1566  -28.8889   23.2846 C   0  0  0  0  0  0
  -18.9488  -30.1489   23.8870 C   0  0  0  0  0  0
  -17.6485  -30.6610   24.0561 C   0  0  0  0  0  0
  -25.9084  -34.9393   23.5025 C   0  0  0  0  0  0
  -16.5373  -29.9102   23.6348 C   0  0  0  0  0  0
  -16.7287  -28.6514   23.0376 C   0  0  0  0  0  0
  -26.4541  -31.6568   25.0722 C   0  0  0  0  0  0
  -25.3694  -31.3821   26.1396 C   0  0  0  0  0  0
  -27.0403  -30.2942   24.6365 C   0  0  0  0  0  0
  -27.6067  -32.4351   25.7507 C   0  0  0  0  0  0
  -27.5562  -37.1775   24.8468 C   0  0  0  0  0  0
  -21.4261  -29.3055   22.3579 N   0  0  0  0  0  0
  -26.4282  -37.3729   23.9399 N   0  0  0  0  0  0
  -24.7258  -31.0222   22.0913 N   0  0  0  0  0  0
  -23.4204  -28.8105   23.2990 O   0  0  0  0  0  0
  -28.2077  -26.0366   20.2292 O   0  0  0  0  0  0
  -26.5677  -34.8890   22.4607 O   0  0  0  0  0  0
  -23.5583  -32.1297   23.7028 O   0  0  0  0  0  0
  -29.0896  -21.1078   21.5339 C   0  0  0  0  0  0
  -28.6521  -22.0788   19.1034 C   0  0  0  0  0  0
  -29.1558  -20.1294   20.4662 C   0  0  0  0  0  0
  -28.5531  -23.0568   20.1725 C   0  0  0  0  0  0
  -28.7798  -17.1096   20.2579 C   0  0  0  0  0  0
  -30.7703  -17.6289   20.4064 C   0  0  0  0  0  0
  -29.4787  -18.4937   20.6905 C   0  0  0  0  0  0
  -27.7867  -24.5373   19.9820 C   0  0  0  0  0  0
  -28.9477  -20.7096   19.2302 N   0  0  0  0  0  0
  -28.7910  -22.4777   21.4049 N   0  0  0  0  0  0
  -30.0358  -16.3063   20.5619 N   0  0  0  0  0  0
  -31.4489  -12.7493   19.1860 H   0  0  0  0  0  0
  -30.3939  -11.6925   20.0751 H   0  0  0  0  0  0
  -29.8391  -11.7107   17.6123 H   0  0  0  0  0  0
  -29.5803  -13.4383   17.6692 H   0  0  0  0  0  0
  -27.9751  -11.2632   19.0417 H   0  0  0  0  0  0
  -27.3777  -12.3723   17.8358 H   0  0  0  0  0  0
  -27.5527  -14.2424   19.3538 H   0  0  0  0  0  0
  -28.7531  -12.4267   21.5012 H   0  0  0  0  0  0
  -28.3415  -14.1210   21.6862 H   0  0  0  0  0  0
  -25.2759   -9.5685   22.4762 H   0  0  0  0  0  0
  -24.0008   -7.4620   22.7467 H   0  0  0  0  0  0
  -21.0840   -8.8741   19.8944 H   0  0  0  0  0  0
  -22.3676  -10.9660   19.6161 H   0  0  0  0  0  0
  -21.1998   -7.6145   23.9710 H   0  0  0  0  0  0
  -21.1483   -6.0523   25.9077 H   0  0  0  0  0  0
  -22.0601   -2.7607   23.2831 H   0  0  0  0  0  0
  -22.4037  -11.9867   22.4856 H   0  0  0  0  0  0
  -21.1010  -13.1196   22.2661 H   0  0  0  0  0  0
  -24.6356  -15.8513   20.5191 H   0  0  0  0  0  0
  -26.2519  -15.6317   20.0740 H   0  0  0  0  0  0
  -26.7288  -32.5235   23.0972 H   0  0  0  0  0  0
  -25.0099  -33.9612   25.0287 H   0  0  0  0  0  0
  -22.7580  -31.2922   21.3748 H   0  0  0  0  0  0
  -23.3751  -35.9571   23.3317 H   0  0  0  0  0  0
  -24.3568  -36.8858   22.2062 H   0  0  0  0  0  0
  -23.7251  -37.6438   23.6682 H   0  0  0  0  0  0
  -26.1819  -31.4507   20.6238 H   0  0  0  0  0  0
  -26.8840  -30.7429   22.0411 H   0  0  0  0  0  0
  -28.1292  -28.7326   21.2520 H   0  0  0  0  0  0
  -25.8470  -25.8556   18.9665 H   0  0  0  0  0  0
  -23.9662  -27.3266   18.9625 H   0  0  0  0  0  0
  -23.8171  -30.5705   19.3944 H   0  0  0  0  0  0
  -22.7911  -29.2413   19.8399 H   0  0  0  0  0  0
  -25.1324  -36.1817   25.0798 H   0  0  0  0  0  0
  -21.0011  -28.3308   24.1336 H   0  0  0  0  0  0
  -20.5690  -26.2339   23.3621 H   0  0  0  0  0  0
  -21.6662  -26.7446   22.1199 H   0  0  0  0  0  0
  -19.6936  -25.6294   21.1257 H   0  0  0  0  0  0
  -19.6716  -27.3183   20.6733 H   0  0  0  0  0  0
  -17.4222  -26.6702   21.4006 H   0  0  0  0  0  0
  -18.0340  -26.0114   22.9016 H   0  0  0  0  0  0
  -19.7971  -30.7315   24.2214 H   0  0  0  0  0  0
  -17.5050  -31.6289   24.5173 H   0  0  0  0  0  0
  -15.5378  -30.3006   23.7719 H   0  0  0  0  0  0
  -15.8676  -28.0827   22.7128 H   0  0  0  0  0  0
  -24.5913  -30.7102   25.7748 H   0  0  0  0  0  0
  -24.8843  -32.3035   26.4637 H   0  0  0  0  0  0
  -25.7967  -30.9148   27.0276 H   0  0  0  0  0  0
  -26.3029  -29.6669   24.1343 H   0  0  0  0  0  0
  -27.3945  -29.7260   25.4982 H   0  0  0  0  0  0
  -27.8974  -30.4171   23.9738 H   0  0  0  0  0  0
  -27.2656  -33.3692   26.1994 H   0  0  0  0  0  0
  -28.3938  -32.6849   25.0373 H   0  0  0  0  0  0
  -28.0672  -31.8530   26.5503 H   0  0  0  0  0  0
  -28.2601  -38.0050   24.7475 H   0  0  0  0  0  0
  -28.1030  -36.2579   24.6338 H   0  0  0  0  0  0
  -27.2277  -37.1468   25.8873 H   0  0  0  0  0  0
  -20.9460  -29.8735   21.6738 H   0  0  0  0  0  0
  -26.0125  -38.2777   24.1430 H   0  0  0  0  0  0
  -29.2655  -20.7798   22.5478 H   0  0  0  0  0  0
  -28.4030  -22.3865   18.0974 H   0  0  0  0  0  0
  -28.5065  -17.0945   19.1998 H   0  0  0  0  0  0
  -27.9141  -16.8587   20.8732 H   0  0  0  0  0  0
  -31.5661  -17.7975   21.1328 H   0  0  0  0  0  0
  -31.1570  -17.7778   19.3965 H   0  0  0  0  0  0
  -29.3914  -18.4713   21.7783 H   0  0  0  0  0  0
  -26.8618  -24.4080   20.5467 H   0  0  0  0  0  0
  -27.4881  -24.5074   18.9347 H   0  0  0  0  0  0
  1 25  1  0  0  0
  1 30  2  0  0  0
  1 81  1  0  0  0
  2  3  1  0  0  0
  2 25  1  0  0  0
  2 82  1  0  0  0
  2 83  1  0  0  0
  3  4  1  0  0  0
  3 84  1  0  0  0
  3 85  1  0  0  0
  4  5  1  0  0  0
  4 86  1  0  0  0
  4 87  1  0  0  0
  5  6  1  0  0  0
  5 26  1  0  0  0
  5 88  1  0  0  0
  6 25  1  0  0  0
  6 89  1  0  0  0
  6 90  1  0  0  0
  7  8  2  0  0  0
  7 26  1  0  0  0
  7 29  1  0  0  0
  8  9  1  0  0  0
  8 22  1  0  0  0
  9 10  1  0  0  0
  9 27  2  0  0  0
 10 11  2  0  0  0
 10 15  1  0  0  0
 11 12  1  0  0  0
 11 91  1  0  0  0
 12 13  2  0  0  0
 12 92  1  0  0  0
 13 14  1  0  0  0
 13 31  1  0  0  0
 14 15  2  0  0  0
 14 93  1  0  0  0
 15 94  1  0  0  0
 16 17  2  0  0  0
 16 21  1  0  0  0
 16 31  1  0  0  0
 17 18  1  0  0  0
 17 95  1  0  0  0
 18 19  2  0  0  0
 18 96  1  0  0  0
 19 20  1  0  0  0
 19 24  1  0  0  0
 20 21  2  0  0  0
 20 97  1  0  0  0
 21 23  1  0  0  0
 22 28  1  0  0  0
 22 32  2  0  0  0
 26 27  1  0  0  0
 28 98  1  0  0  0
 28 99  1  0  0  0
 29100  1  0  0  0
 29101  1  0  0  0
 33 34  1  0  0  0
 33 66  1  0  0  0
 33 70  2  0  0  0
 34 36  1  0  0  0
 34 59  1  0  0  0
 34102  1  0  0  0
 35 44  2  0  0  0
 35 45  1  0  0  0
 35 68  1  0  0  0
 36 56  1  0  0  0
 36103  1  0  0  0
 37 39  1  0  0  0
 37 47  1  0  0  0
 37 66  1  0  0  0
 37104  1  0  0  0
 38 43  2  0  0  0
 38 46  1  0  0  0
 38 47  1  0  0  0
 39 64  1  0  0  0
 39 67  2  0  0  0
 40 52  1  0  0  0
 40 53  2  0  0  0
 40 58  1  0  0  0
 41105  1  0  0  0
 41106  1  0  0  0
 41107  1  0  0  0
 41 48  1  0  0  0
 42 43  1  0  0  0
 42 66  1  0  0  0
 42108  1  0  0  0
 42109  1  0  0  0
 43 44  1  0  0  0
 44110  1  0  0  0
 45 46  2  0  0  0
 45111  1  0  0  0
 46112  1  0  0  0
 47113  1  0  0  0
 47114  1  0  0  0
 48 56  1  0  0  0
 48 65  1  0  0  0
 48115  1  0  0  0
 49 50  1  0  0  0
 49 53  1  0  0  0
 49 64  1  0  0  0
 49116  1  0  0  0
 50 51  1  0  0  0
 50117  1  0  0  0
 50118  1  0  0  0
 51 52  1  0  0  0
 51119  1  0  0  0
 51120  1  0  0  0
 52121  1  0  0  0
 52122  1  0  0  0
 53 54  1  0  0  0
 54 55  2  0  0  0
 54123  1  0  0  0
 55 57  1  0  0  0
 55124  1  0  0  0
 56 69  2  0  0  0
 57 58  2  0  0  0
 57125  1  0  0  0
 58126  1  0  0  0
 59 60  1  0  0  0
 59 61  1  0  0  0
 59 62  1  0  0  0
 60127  1  0  0  0
 60128  1  0  0  0
 60129  1  0  0  0
 61130  1  0  0  0
 61131  1  0  0  0
 61132  1  0  0  0
 62133  1  0  0  0
 62134  1  0  0  0
 62135  1  0  0  0
 63 65  1  0  0  0
 63136  1  0  0  0
 63137  1  0  0  0
 63138  1  0  0  0
 64139  1  0  0  0
 65140  1  0  0  0
 68 78  1  0  0  0
 71 73  2  0  0  0
 71 80  1  0  0  0
 71141  1  0  0  0
 72 74  1  0  0  0
 72 79  2  0  0  0
 72142  1  0  0  0
 73 79  1  0  0  0
 73 77  1  0  0  0
 74 78  1  0  0  0
 74 80  2  0  0  0
 75 77  1  0  0  0
 75 81  1  0  0  0
 75143  1  0  0  0
 75144  1  0  0  0
 76 77  1  0  0  0
 76 81  1  0  0  0
 76145  1  0  0  0
 76146  1  0  0  0
 77147  1  0  0  0
 78148  1  0  0  0
 78149  1  0  0  0
M  ISO  4   1 100  68 101  78 101  81 100
M  END
> <chiral flag>
0

> <version>
0

> <s_m_source_file>
/data/baiqing/PycharmProjects/Reinvent-master-3.2/result/LINK_invent/BTK/process_docking_weight1_custom_sum_contain_oxygen_bond_distance_aromatic_linkinvent_7_9_3/rearranged_h_0195.sdf

> <i_m_source_file_index>
32

> <r_mmod_Potential_Energy-OPLS-2005>
785.733032226562

> <r_mmod_Stretch_Energy-OPLS-2005>
270.840606689453

> <r_mmod_Bend_Energy-OPLS-2005>
342.189147949219

> <r_mmod_Torsional_Energy-OPLS-2005>
253.449768066406

> <r_mmod_Improper_Torsional_Energy-OPLS-2005>
9.25667095184326

> <r_mmod_Van_der_Waal_Energy-OPLS-2005>
138.981002807617

> <r_mmod_Electrostatic_Energy-OPLS-2005>
-233.381744384766

> <r_mmod_Solvation_Energy-OPLS-2005>
-235.477233886719

> <b_mmod_Minimization_Converged-OPLS-2005>
0

> <r_mmod_RMS_Derivative-OPLS-2005>
2.15166139602661

$$$$
33
                    3D
 Structure written by MMmdl.
167176  0  0  1  0            999 V2000
  -30.6973  -14.4650   20.5994 C   0  0  0  0  0  0
  -30.4250  -12.3069   19.4260 C   0  0  0  0  0  0
  -29.4971  -12.5201   18.2105 C   0  0  0  0  0  0
  -28.0173  -12.3811   18.6177 C   0  0  0  0  0  0
  -27.6686  -13.2050   19.8856 C   0  0  2  0  0  0
  -28.7085  -12.9672   21.0060 C   0  0  0  0  0  0
  -25.2603  -13.8079   20.5672 C   0  0  0  0  0  0
  -24.1839  -13.0391   20.9142 C   0  0  0  0  0  0
  -24.6393  -11.6867   20.8715 C   0  0  0  0  0  0
  -23.9060  -10.4264   21.0390 C   0  0  0  0  0  0
  -24.3611   -9.4194   21.9174 C   0  0  0  0  0  0
  -23.6287   -8.2233   22.0754 C   0  0  0  0  0  0
  -22.4271   -8.0262   21.3552 C   0  0  0  0  0  0
  -21.9904   -9.0230   20.4646 C   0  0  0  0  0  0
  -22.7234  -10.2105   20.3037 C   0  0  0  0  0  0
  -21.6858   -6.0726   22.5288 C   0  0  0  0  0  0
  -21.4009   -6.5635   23.8219 C   0  0  0  0  0  0
  -21.3650   -5.6791   24.9178 C   0  0  0  0  0  0
  -21.6045   -4.3060   24.7242 C   0  0  0  0  0  0
  -21.8818   -3.8140   23.4368 C   0  0  0  0  0  0
  -21.9193   -4.6948   22.3414 C   0  0  0  0  0  0
  -22.7876  -13.5221   21.1815 C   0  0  0  0  0  0
  -22.1674   -4.2134   21.1000 F   0  0  0  0  0  0
  -21.5619   -3.4542   25.7757 F   0  0  0  0  0  0
  -30.0487  -13.2739   20.4722 N   0  0  0  0  0  0
  -26.3067  -12.9283   20.3420 N   0  0  0  0  0  0
  -25.9331  -11.6449   20.5770 N   0  0  0  0  0  0
  -22.0510  -12.8203   22.0356 N   0  0  0  0  0  0
  -25.4364  -15.1755   20.4123 N   0  0  0  0  0  0
  -31.7518  -14.7186   20.0085 O   0  0  0  0  0  0
  -21.6650   -6.8862   21.4244 O   0  0  0  0  0  0
  -22.3570  -14.5538   20.6675 O   0  0  0  0  0  0
  -24.6151  -31.8688   23.2098 C   0  0  0  0  0  0
  -25.9035  -32.4839   23.8402 C   0  0  1  0  0  0
  -27.2383  -27.4296   20.1241 C   0  0  0  0  0  0
  -25.5888  -33.8638   24.2348 N   0  0  0  0  0  0
  -23.4055  -30.4916   21.5480 C   0  0  2  0  0  0
  -24.8565  -28.9558   20.1168 C   0  0  0  0  0  0
  -22.7423  -29.4671   22.4971 C   0  0  0  0  0  0
  -18.0308  -28.1385   22.8515 C   0  0  0  0  0  0
  -24.1496  -36.7281   23.2641 C   0  0  0  0  0  0
  -25.9319  -30.8369   21.3623 C   0  0  0  0  0  0
  -26.0133  -29.4657   20.7229 C   0  0  0  0  0  0
  -27.2066  -28.7096   20.7291 C   0  0  0  0  0  0
  -26.0727  -26.9420   19.4973 C   0  0  0  0  0  0
  -24.8806  -27.6934   19.5002 C   0  0  0  0  0  0
  -23.6174  -29.8201   20.1632 C   0  0  0  0  0  0
  -25.4107  -36.3129   24.0369 C   0  0  1  0  0  0
  -20.5899  -28.3664   23.1325 C   0  0  2  0  0  0
  -20.6815  -26.9405   22.5411 C   0  0  0  0  0  0
  -19.5792  -26.6408   21.5218 C   0  0  0  0  0  0
  -18.1965  -26.7956   22.1615 C   0  0  0  0  0  0
  -19.1565  -28.8836   23.2922 C   0  0  0  0  0  0
  -18.9484  -30.1447   23.8917 C   0  0  0  0  0  0
  -17.6477  -30.6592   24.0583 C   0  0  0  0  0  0
  -25.9011  -34.9492   23.5146 C   0  0  0  0  0  0
  -16.5354  -29.9105   23.6344 C   0  0  0  0  0  0
  -16.7290  -28.6530   23.0353 C   0  0  0  0  0  0
  -26.4467  -31.6605   25.0700 C   0  0  0  0  0  0
  -25.3717  -31.3716   26.1432 C   0  0  0  0  0  0
  -27.0284  -30.3072   24.6008 C   0  0  0  0  0  0
  -27.6073  -32.4286   25.7447 C   0  0  0  0  0  0
  -27.5595  -37.1793   24.8474 C   0  0  0  0  0  0
  -21.4154  -29.3023   22.3702 N   0  0  0  0  0  0
  -26.4297  -37.3796   23.9437 N   0  0  0  0  0  0
  -24.6688  -31.0792   22.0992 N   0  0  0  0  0  0
  -23.4200  -28.8211   23.2999 O   0  0  0  0  0  0
  -28.3726  -26.6481   20.0912 O   0  0  0  0  0  0
  -26.5559  -34.8934   22.4707 O   0  0  0  0  0  0
  -23.5343  -32.1419   23.7493 O   0  0  0  0  0  0
  -30.6338  -20.4110   22.1776 C   0  0  0  0  0  0
  -30.1615  -19.1834   21.7905 C   0  0  0  0  0  0
  -29.7453  -21.3566   21.5754 C   0  0  0  0  0  0
  -30.5723  -17.7611   22.0480 C   0  0  0  0  0  0
  -29.9787  -16.8108   20.9760 C   0  0  1  0  0  0
  -28.2994  -18.3786   20.2890 C   0  0  1  0  0  0
  -24.6423  -19.5534   19.4084 C   0  0  0  0  0  0
  -29.7594  -22.8792   21.6967 C   0  0  0  0  0  0
  -26.7648  -18.5505   20.4223 C   0  0  0  0  0  0
  -26.1795  -19.5355   19.3937 C   0  0  0  0  0  0
  -28.0312  -24.7559   21.7077 C   0  0  0  0  0  0
  -28.7800  -26.0709   21.3440 C   0  0  0  0  0  0
  -28.8101  -20.7392   20.8570 N   0  0  0  0  0  0
  -29.0607  -19.4108   21.0035 N   0  0  0  0  0  0
  -30.0679  -15.3989   21.3408 N   0  0  0  0  0  0
  -28.5568  -23.5014   21.0853 N   0  3  0  0  0  0
  -28.6084  -17.0988   20.8168 O   0  0  0  0  0  0
  -31.4707  -12.4006   19.1287 H   0  0  0  0  0  0
  -30.3190  -11.2902   19.8077 H   0  0  0  0  0  0
  -29.7385  -11.8056   17.4216 H   0  0  0  0  0  0
  -29.6663  -13.5104   17.7843 H   0  0  0  0  0  0
  -27.8162  -11.3235   18.7924 H   0  0  0  0  0  0
  -27.3722  -12.6777   17.7901 H   0  0  0  0  0  0
  -27.7182  -14.2584   19.6043 H   0  0  0  0  0  0
  -28.6762  -11.9278   21.3338 H   0  0  0  0  0  0
  -28.4577  -13.5536   21.8907 H   0  0  0  0  0  0
  -25.2752   -9.5681   22.4755 H   0  0  0  0  0  0
  -24.0004   -7.4627   22.7471 H   0  0  0  0  0  0
  -21.0841   -8.8725   19.8956 H   0  0  0  0  0  0
  -22.3684  -10.9628   19.6137 H   0  0  0  0  0  0
  -21.1996   -7.6146   23.9709 H   0  0  0  0  0  0
  -21.1477   -6.0538   25.9087 H   0  0  0  0  0  0
  -22.0600   -2.7601   23.2881 H   0  0  0  0  0  0
  -22.4136  -11.9868   22.4741 H   0  0  0  0  0  0
  -21.1111  -13.1208   22.2532 H   0  0  0  0  0  0
  -24.6824  -15.8429   20.5301 H   0  0  0  0  0  0
  -26.3208  -15.6075   20.1730 H   0  0  0  0  0  0
  -26.7077  -32.5554   23.1162 H   0  0  0  0  0  0
  -25.0135  -33.9811   25.0566 H   0  0  0  0  0  0
  -22.6956  -31.3094   21.4035 H   0  0  0  0  0  0
  -23.3787  -35.9580   23.3298 H   0  0  0  0  0  0
  -24.3592  -36.8871   22.2050 H   0  0  0  0  0  0
  -23.7205  -37.6481   23.6616 H   0  0  0  0  0  0
  -26.0338  -31.5954   20.5857 H   0  0  0  0  0  0
  -26.8241  -30.9016   21.9705 H   0  0  0  0  0  0
  -28.1000  -29.1055   21.1930 H   0  0  0  0  0  0
  -26.0905  -25.9727   19.0157 H   0  0  0  0  0  0
  -23.9925  -27.3021   19.0221 H   0  0  0  0  0  0
  -23.7160  -30.5904   19.3976 H   0  0  0  0  0  0
  -22.7439  -29.2334   19.8751 H   0  0  0  0  0  0
  -25.1282  -36.1992   25.0861 H   0  0  0  0  0  0
  -21.0007  -28.3222   24.1434 H   0  0  0  0  0  0
  -20.5797  -26.2231   23.3575 H   0  0  0  0  0  0
  -21.6679  -26.7498   22.1130 H   0  0  0  0  0  0
  -19.6966  -25.6343   21.1211 H   0  0  0  0  0  0
  -19.6768  -27.3261   20.6791 H   0  0  0  0  0  0
  -17.4254  -26.6740   21.3995 H   0  0  0  0  0  0
  -18.0332  -26.0099   22.8993 H   0  0  0  0  0  0
  -19.7944  -30.7297   24.2275 H   0  0  0  0  0  0
  -17.5028  -31.6287   24.5169 H   0  0  0  0  0  0
  -15.5374  -30.3001   23.7682 H   0  0  0  0  0  0
  -15.8690  -28.0862   22.7021 H   0  0  0  0  0  0
  -24.5892  -30.7071   25.7739 H   0  0  0  0  0  0
  -24.8896  -32.2880   26.4849 H   0  0  0  0  0  0
  -25.8048  -30.8885   27.0198 H   0  0  0  0  0  0
  -26.2812  -29.6844   24.1073 H   0  0  0  0  0  0
  -27.4131  -29.7289   25.4412 H   0  0  0  0  0  0
  -27.8607  -30.4450   23.9105 H   0  0  0  0  0  0
  -27.2750  -33.3603   26.2039 H   0  0  0  0  0  0
  -28.3878  -32.6796   25.0246 H   0  0  0  0  0  0
  -28.0729  -31.8367   26.5341 H   0  0  0  0  0  0
  -28.2580  -38.0112   24.7542 H   0  0  0  0  0  0
  -28.1121  -36.2652   24.6273 H   0  0  0  0  0  0
  -27.2312  -37.1382   25.8868 H   0  0  0  0  0  0
  -20.9313  -29.8658   21.6845 H   0  0  0  0  0  0
  -26.0209  -38.2877   24.1457 H   0  0  0  0  0  0
  -31.4872  -20.6115   22.8090 H   0  0  0  0  0  0
  -30.2215  -17.4525   23.0326 H   0  0  0  0  0  0
  -31.6589  -17.6667   22.0440 H   0  0  0  0  0  0
  -30.4781  -16.9611   20.0152 H   0  0  0  0  0  0
  -28.6117  -18.3964   19.2434 H   0  0  0  0  0  0
  -24.2499  -20.1840   18.6092 H   0  0  0  0  0  0
  -24.2611  -19.9418   20.3536 H   0  0  0  0  0  0
  -24.2234  -18.5558   19.2668 H   0  0  0  0  0  0
  -30.6553  -23.2956   21.2342 H   0  0  0  0  0  0
  -29.8106  -23.1371   22.7544 H   0  0  0  0  0  0
  -26.5142  -18.8333   21.4456 H   0  0  0  0  0  0
  -26.3108  -17.5813   20.2442 H   0  0  0  0  0  0
  -26.5412  -20.5455   19.5805 H   0  0  0  0  0  0
  -26.5251  -19.2635   18.3964 H   0  0  0  0  0  0
  -26.9792  -24.8628   21.4454 H   0  0  0  0  0  0
  -28.0433  -24.6267   22.7899 H   0  0  0  0  0  0
  -29.8559  -25.9011   21.3322 H   0  0  0  0  0  0
  -28.6133  -26.7978   22.1415 H   0  0  0  0  0  0
  -29.3678  -15.0711   21.9891 H   0  0  0  0  0  0
  -27.8640  -22.7773   21.1925 H   0  0  0  0  0  0
  -28.6990  -23.6030   20.0936 H   0  0  0  0  0  0
  1 25  1  0  0  0
  1 30  2  0  0  0
  1 85  1  0  0  0
  2  3  1  0  0  0
  2 25  1  0  0  0
  2 88  1  0  0  0
  2 89  1  0  0  0
  3  4  1  0  0  0
  3 90  1  0  0  0
  3 91  1  0  0  0
  4  5  1  0  0  0
  4 92  1  0  0  0
  4 93  1  0  0  0
  5  6  1  0  0  0
  5 26  1  0  0  0
  5 94  1  0  0  0
  6 25  1  0  0  0
  6 95  1  0  0  0
  6 96  1  0  0  0
  7  8  2  0  0  0
  7 26  1  0  0  0
  7 29  1  0  0  0
  8  9  1  0  0  0
  8 22  1  0  0  0
  9 10  1  0  0  0
  9 27  2  0  0  0
 10 11  2  0  0  0
 10 15  1  0  0  0
 11 12  1  0  0  0
 11 97  1  0  0  0
 12 13  2  0  0  0
 12 98  1  0  0  0
 13 14  1  0  0  0
 13 31  1  0  0  0
 14 15  2  0  0  0
 14 99  1  0  0  0
 15100  1  0  0  0
 16 17  2  0  0  0
 16 21  1  0  0  0
 16 31  1  0  0  0
 17 18  1  0  0  0
 17101  1  0  0  0
 18 19  2  0  0  0
 18102  1  0  0  0
 19 20  1  0  0  0
 19 24  1  0  0  0
 20 21  2  0  0  0
 20103  1  0  0  0
 21 23  1  0  0  0
 22 28  1  0  0  0
 22 32  2  0  0  0
 26 27  1  0  0  0
 28104  1  0  0  0
 28105  1  0  0  0
 29106  1  0  0  0
 29107  1  0  0  0
 33 34  1  0  0  0
 33 66  1  0  0  0
 33 70  2  0  0  0
 34 36  1  0  0  0
 34 59  1  0  0  0
 34108  1  0  0  0
 35 44  2  0  0  0
 35 45  1  0  0  0
 35 68  1  0  0  0
 36 56  1  0  0  0
 36109  1  0  0  0
 37 39  1  0  0  0
 37 47  1  0  0  0
 37 66  1  0  0  0
 37110  1  0  0  0
 38 43  2  0  0  0
 38 46  1  0  0  0
 38 47  1  0  0  0
 39 64  1  0  0  0
 39 67  2  0  0  0
 40 52  1  0  0  0
 40 53  2  0  0  0
 40 58  1  0  0  0
 41111  1  0  0  0
 41112  1  0  0  0
 41113  1  0  0  0
 41 48  1  0  0  0
 42 43  1  0  0  0
 42 66  1  0  0  0
 42114  1  0  0  0
 42115  1  0  0  0
 43 44  1  0  0  0
 44116  1  0  0  0
 45 46  2  0  0  0
 45117  1  0  0  0
 46118  1  0  0  0
 47119  1  0  0  0
 47120  1  0  0  0
 48 56  1  0  0  0
 48 65  1  0  0  0
 48121  1  0  0  0
 49 50  1  0  0  0
 49 53  1  0  0  0
 49 64  1  0  0  0
 49122  1  0  0  0
 50 51  1  0  0  0
 50123  1  0  0  0
 50124  1  0  0  0
 51 52  1  0  0  0
 51125  1  0  0  0
 51126  1  0  0  0
 52127  1  0  0  0
 52128  1  0  0  0
 53 54  1  0  0  0
 54 55  2  0  0  0
 54129  1  0  0  0
 55 57  1  0  0  0
 55130  1  0  0  0
 56 69  2  0  0  0
 57 58  2  0  0  0
 57131  1  0  0  0
 58132  1  0  0  0
 59 60  1  0  0  0
 59 61  1  0  0  0
 59 62  1  0  0  0
 60133  1  0  0  0
 60134  1  0  0  0
 60135  1  0  0  0
 61136  1  0  0  0
 61137  1  0  0  0
 61138  1  0  0  0
 62139  1  0  0  0
 62140  1  0  0  0
 62141  1  0  0  0
 63 65  1  0  0  0
 63142  1  0  0  0
 63143  1  0  0  0
 63144  1  0  0  0
 64145  1  0  0  0
 65146  1  0  0  0
 68 82  1  0  0  0
 71 72  2  0  0  0
 71 73  1  0  0  0
 71147  1  0  0  0
 72 74  1  0  0  0
 72 84  1  0  0  0
 73 78  1  0  0  0
 73 83  2  0  0  0
 74 75  1  0  0  0
 74148  1  0  0  0
 74149  1  0  0  0
 75 85  1  0  0  0
 75 87  1  0  0  0
 75150  1  0  0  0
 76 79  1  0  0  0
 76 84  1  0  0  0
 76 87  1  0  0  0
 76151  1  0  0  0
 77 80  1  0  0  0
 77152  1  0  0  0
 77153  1  0  0  0
 77154  1  0  0  0
 78 86  1  0  0  0
 78155  1  0  0  0
 78156  1  0  0  0
 79 80  1  0  0  0
 79157  1  0  0  0
 79158  1  0  0  0
 80159  1  0  0  0
 80160  1  0  0  0
 81 82  1  0  0  0
 81 86  1  0  0  0
 81161  1  0  0  0
 81162  1  0  0  0
 82163  1  0  0  0
 82164  1  0  0  0
 83 84  1  0  0  0
 85165  1  0  0  0
 86166  1  0  0  0
 86167  1  0  0  0
M  CHG  1  86   1
M  ISO  4   1 100  68 101  82 101  85 100
M  END
> <chiral flag>
0

> <version>
0

> <s_m_source_file>
/data/baiqing/PycharmProjects/Reinvent-master-3.2/result/LINK_invent/BTK/process_docking_weight1_custom_sum_contain_oxygen_bond_distance_aromatic_linkinvent_7_9_3/rearranged_h_0195.sdf

> <i_m_source_file_index>
33

> <r_mmod_Potential_Energy-OPLS-2005>
-284.294738769531

> <r_mmod_Stretch_Energy-OPLS-2005>
41.8384780883789

> <r_mmod_Bend_Energy-OPLS-2005>
109.975021362305

> <r_mmod_Torsional_Energy-OPLS-2005>
220.578079223633

> <r_mmod_Improper_Torsional_Energy-OPLS-2005>
4.03390264511108

> <r_mmod_Van_der_Waal_Energy-OPLS-2005>
129.025100708008

> <r_mmod_Electrostatic_Energy-OPLS-2005>
-376.28759765625

> <r_mmod_Solvation_Energy-OPLS-2005>
-425.429626464844

> <b_mmod_Minimization_Converged-OPLS-2005>
0

> <r_mmod_RMS_Derivative-OPLS-2005>
3.88945651054382

$$$$
34
                    3D
 Structure written by MMmdl.
165174  0  0  1  0            999 V2000
  -30.6887  -14.6656   20.4447 C   0  0  0  0  0  0
  -30.4090  -12.4050   19.4577 C   0  0  0  0  0  0
  -29.4942  -12.4928   18.2207 C   0  0  0  0  0  0
  -28.0200  -12.3388   18.6398 C   0  0  0  0  0  0
  -27.6392  -13.2367   19.8489 C   0  0  2  0  0  0
  -28.6906  -13.1718   20.9770 C   0  0  0  0  0  0
  -25.2496  -13.8203   20.5736 C   0  0  0  0  0  0
  -24.1798  -13.0443   20.9225 C   0  0  0  0  0  0
  -24.6398  -11.6922   20.8766 C   0  0  0  0  0  0
  -23.9074  -10.4296   21.0405 C   0  0  0  0  0  0
  -24.3617   -9.4208   21.9179 C   0  0  0  0  0  0
  -23.6293   -8.2246   22.0751 C   0  0  0  0  0  0
  -22.4275   -8.0278   21.3543 C   0  0  0  0  0  0
  -21.9918   -9.0258   20.4641 C   0  0  0  0  0  0
  -22.7250  -10.2137   20.3053 C   0  0  0  0  0  0
  -21.6853   -6.0729   22.5273 C   0  0  0  0  0  0
  -21.4018   -6.5642   23.8204 C   0  0  0  0  0  0
  -21.3665   -5.6801   24.9170 C   0  0  0  0  0  0
  -21.6039   -4.3060   24.7220 C   0  0  0  0  0  0
  -21.8819   -3.8144   23.4346 C   0  0  0  0  0  0
  -21.9197   -4.6957   22.3402 C   0  0  0  0  0  0
  -22.7813  -13.5200   21.1891 C   0  0  0  0  0  0
  -22.1665   -4.2149   21.0983 F   0  0  0  0  0  0
  -21.5626   -3.4547   25.7742 F   0  0  0  0  0  0
  -29.9905  -13.4867   20.3740 N   0  0  0  0  0  0
  -26.2934  -12.9432   20.3320 N   0  0  0  0  0  0
  -25.9331  -11.6577   20.5787 N   0  0  0  0  0  0
  -22.0482  -12.8182   22.0439 N   0  0  0  0  0  0
  -25.4183  -15.1937   20.4185 N   0  0  0  0  0  0
  -31.8961  -14.6650   20.1832 O   0  0  0  0  0  0
  -21.6641   -6.8874   21.4241 O   0  0  0  0  0  0
  -22.3506  -14.5524   20.6747 O   0  0  0  0  0  0
  -24.6246  -31.8593   23.2035 C   0  0  0  0  0  0
  -25.9084  -32.4780   23.8367 C   0  0  1  0  0  0
  -27.2285  -27.3083   20.1463 C   0  0  0  0  0  0
  -25.5908  -33.8574   24.2300 N   0  0  0  0  0  0
  -23.4213  -30.4799   21.5470 C   0  0  2  0  0  0
  -24.8733  -28.9248   20.1293 C   0  0  0  0  0  0
  -22.7486  -29.4605   22.4969 C   0  0  0  0  0  0
  -18.0278  -28.1375   22.8480 C   0  0  0  0  0  0
  -24.1487  -36.7296   23.2637 C   0  0  0  0  0  0
  -25.9628  -30.7864   21.3797 C   0  0  0  0  0  0
  -26.0401  -29.4044   20.7411 C   0  0  0  0  0  0
  -27.2232  -28.6055   20.7497 C   0  0  0  0  0  0
  -26.0476  -26.8850   19.5056 C   0  0  0  0  0  0
  -24.8760  -27.6661   19.5088 C   0  0  0  0  0  0
  -23.6421  -29.8082   20.1666 C   0  0  0  0  0  0
  -25.4108  -36.3072   24.0312 C   0  0  1  0  0  0
  -20.5882  -28.3675   23.1278 C   0  0  2  0  0  0
  -20.6773  -26.9402   22.5410 C   0  0  0  0  0  0
  -19.5754  -26.6372   21.5210 C   0  0  0  0  0  0
  -18.1926  -26.7915   22.1613 C   0  0  0  0  0  0
  -19.1535  -28.8849   23.2870 C   0  0  0  0  0  0
  -18.9462  -30.1449   23.8894 C   0  0  0  0  0  0
  -17.6463  -30.6586   24.0551 C   0  0  0  0  0  0
  -25.9039  -34.9440   23.5104 C   0  0  0  0  0  0
  -16.5351  -29.9080   23.6332 C   0  0  0  0  0  0
  -16.7266  -28.6493   23.0361 C   0  0  0  0  0  0
  -26.4479  -31.6593   25.0732 C   0  0  0  0  0  0
  -25.3705  -31.3705   26.1453 C   0  0  0  0  0  0
  -27.0326  -30.3021   24.6177 C   0  0  0  0  0  0
  -27.6078  -32.4316   25.7470 C   0  0  0  0  0  0
  -27.5575  -37.1788   24.8451 C   0  0  0  0  0  0
  -21.4205  -29.3035   22.3691 N   0  0  0  0  0  0
  -26.4292  -37.3761   23.9394 N   0  0  0  0  0  0
  -24.6884  -31.0590   22.1003 N   0  0  0  0  0  0
  -23.4212  -28.8151   23.3052 O   0  0  0  0  0  0
  -28.3459  -26.4744   20.0404 O   0  0  0  0  0  0
  -26.5623  -34.8896   22.4678 O   0  0  0  0  0  0
  -23.5404  -32.1399   23.7354 O   0  0  0  0  0  0
  -28.0269  -20.5346   18.7632 C   0  0  0  0  0  0
  -27.1186  -19.9566   19.8003 C   0  0  0  0  0  0
  -29.6458  -16.6448   21.5685 C   0  0  0  0  0  0
  -30.5472  -16.8742   19.3962 C   0  0  0  0  0  0
  -28.8035  -17.9567   21.3135 C   0  0  0  0  0  0
  -29.6814  -18.1526   19.1669 C   0  0  0  0  0  0
  -28.5817  -20.2060   20.1570 C   0  0  0  0  0  0
  -26.6577  -23.7865   20.8078 C   0  0  0  0  0  0
  -28.8683  -21.4228   21.1321 C   0  0  0  0  0  0
  -28.6682  -25.4816   21.0821 C   0  0  0  0  0  0
  -28.1503  -23.9527   21.1372 C   0  0  2  0  0  0
  -30.0047  -15.8712   20.3552 N   0  0  0  0  0  0
  -29.4149  -18.9411   20.3860 N   0  0  0  0  0  0
  -29.0058  -22.8289   20.5447 N   0  3  0  0  0  0
  -31.4555  -12.4816   19.1587 H   0  0  0  0  0  0
  -30.3086  -11.4337   19.9439 H   0  0  0  0  0  0
  -29.7596  -11.7229   17.4954 H   0  0  0  0  0  0
  -29.6371  -13.4502   17.7183 H   0  0  0  0  0  0
  -27.8621  -11.2906   18.8941 H   0  0  0  0  0  0
  -27.3615  -12.5442   17.7953 H   0  0  0  0  0  0
  -27.6345  -14.2608   19.4733 H   0  0  0  0  0  0
  -28.7125  -12.1831   21.4389 H   0  0  0  0  0  0
  -28.4460  -13.8786   21.7704 H   0  0  0  0  0  0
  -25.2762   -9.5691   22.4757 H   0  0  0  0  0  0
  -24.0003   -7.4637   22.7477 H   0  0  0  0  0  0
  -21.0849   -8.8762   19.8947 H   0  0  0  0  0  0
  -22.3692  -10.9662   19.6170 H   0  0  0  0  0  0
  -21.2008   -7.6151   23.9715 H   0  0  0  0  0  0
  -21.1490   -6.0527   25.9075 H   0  0  0  0  0  0
  -22.0591   -2.7609   23.2850 H   0  0  0  0  0  0
  -22.4115  -11.9835   22.4793 H   0  0  0  0  0  0
  -21.1089  -13.1175   22.2656 H   0  0  0  0  0  0
  -24.6490  -15.8449   20.5328 H   0  0  0  0  0  0
  -26.2732  -15.6362   20.1072 H   0  0  0  0  0  0
  -26.7153  -32.5466   23.1128 H   0  0  0  0  0  0
  -25.0011  -33.9729   25.0413 H   0  0  0  0  0  0
  -22.7147  -31.2983   21.3987 H   0  0  0  0  0  0
  -23.3739  -35.9645   23.3309 H   0  0  0  0  0  0
  -24.3571  -36.8933   22.2060 H   0  0  0  0  0  0
  -23.7261  -37.6492   23.6671 H   0  0  0  0  0  0
  -26.0817  -31.5385   20.5979 H   0  0  0  0  0  0
  -26.8466  -30.8541   22.0019 H   0  0  0  0  0  0
  -28.1226  -28.9761   21.2234 H   0  0  0  0  0  0
  -26.0317  -25.9335   18.9951 H   0  0  0  0  0  0
  -23.9836  -27.2968   19.0227 H   0  0  0  0  0  0
  -23.7668  -30.5789   19.4052 H   0  0  0  0  0  0
  -22.7619  -29.2366   19.8636 H   0  0  0  0  0  0
  -25.1298  -36.1939   25.0804 H   0  0  0  0  0  0
  -20.9965  -28.3250   24.1399 H   0  0  0  0  0  0
  -20.5683  -26.2279   23.3603 H   0  0  0  0  0  0
  -21.6638  -26.7433   22.1208 H   0  0  0  0  0  0
  -19.6919  -25.6285   21.1237 H   0  0  0  0  0  0
  -19.6703  -27.3189   20.6746 H   0  0  0  0  0  0
  -17.4202  -26.6663   21.4012 H   0  0  0  0  0  0
  -18.0324  -26.0066   22.9018 H   0  0  0  0  0  0
  -19.7946  -30.7243   24.2295 H   0  0  0  0  0  0
  -17.5018  -31.6269   24.5137 H   0  0  0  0  0  0
  -15.5353  -30.2971   23.7658 H   0  0  0  0  0  0
  -15.8661  -28.0792   22.7102 H   0  0  0  0  0  0
  -24.5926  -30.7014   25.7755 H   0  0  0  0  0  0
  -24.8824  -32.2850   26.4838 H   0  0  0  0  0  0
  -25.8017  -30.8914   27.0257 H   0  0  0  0  0  0
  -26.2907  -29.6751   24.1215 H   0  0  0  0  0  0
  -27.4050  -29.7287   25.4669 H   0  0  0  0  0  0
  -27.8753  -30.4303   23.9379 H   0  0  0  0  0  0
  -27.2775  -33.3674   26.1981 H   0  0  0  0  0  0
  -28.3899  -32.6781   25.0279 H   0  0  0  0  0  0
  -28.0716  -31.8464   26.5418 H   0  0  0  0  0  0
  -28.2580  -38.0099   24.7524 H   0  0  0  0  0  0
  -28.1099  -36.2628   24.6284 H   0  0  0  0  0  0
  -27.2270  -37.1446   25.8846 H   0  0  0  0  0  0
  -20.9393  -29.8764   21.6906 H   0  0  0  0  0  0
  -26.0174  -38.2822   24.1450 H   0  0  0  0  0  0
  -27.8117  -21.5661   18.4926 H   0  0  0  0  0  0
  -28.2546  -19.9024   17.9087 H   0  0  0  0  0  0
  -26.7646  -18.9466   19.6047 H   0  0  0  0  0  0
  -26.3731  -20.6147   20.2423 H   0  0  0  0  0  0
  -29.0868  -16.0015   22.2482 H   0  0  0  0  0  0
  -30.5679  -16.9042   22.0919 H   0  0  0  0  0  0
  -31.5401  -17.1863   19.7287 H   0  0  0  0  0  0
  -30.6949  -16.3988   18.4238 H   0  0  0  0  0  0
  -28.6113  -18.4480   22.2694 H   0  0  0  0  0  0
  -27.8284  -17.6486   20.9354 H   0  0  0  0  0  0
  -28.7431  -17.8533   18.6983 H   0  0  0  0  0  0
  -30.2043  -18.7897   18.4506 H   0  0  0  0  0  0
  -26.0623  -24.5655   21.2843 H   0  0  0  0  0  0
  -26.2727  -22.8371   21.1797 H   0  0  0  0  0  0
  -26.4745  -23.8215   19.7347 H   0  0  0  0  0  0
  -29.7934  -21.2154   21.6706 H   0  0  0  0  0  0
  -28.0996  -21.4225   21.9054 H   0  0  0  0  0  0
  -29.7575  -25.4628   21.1395 H   0  0  0  0  0  0
  -28.3688  -25.9486   22.0220 H   0  0  0  0  0  0
  -28.2186  -23.7423   22.2062 H   0  0  0  0  0  0
  -28.8911  -22.7803   19.5446 H   0  0  0  0  0  0
  -29.9728  -23.0758   20.6930 H   0  0  0  0  0  0
  1 25  1  0  0  0
  1 30  2  0  0  0
  1 82  1  0  0  0
  2  3  1  0  0  0
  2 25  1  0  0  0
  2 85  1  0  0  0
  2 86  1  0  0  0
  3  4  1  0  0  0
  3 87  1  0  0  0
  3 88  1  0  0  0
  4  5  1  0  0  0
  4 89  1  0  0  0
  4 90  1  0  0  0
  5  6  1  0  0  0
  5 26  1  0  0  0
  5 91  1  0  0  0
  6 25  1  0  0  0
  6 92  1  0  0  0
  6 93  1  0  0  0
  7  8  2  0  0  0
  7 26  1  0  0  0
  7 29  1  0  0  0
  8  9  1  0  0  0
  8 22  1  0  0  0
  9 10  1  0  0  0
  9 27  2  0  0  0
 10 11  2  0  0  0
 10 15  1  0  0  0
 11 12  1  0  0  0
 11 94  1  0  0  0
 12 13  2  0  0  0
 12 95  1  0  0  0
 13 14  1  0  0  0
 13 31  1  0  0  0
 14 15  2  0  0  0
 14 96  1  0  0  0
 15 97  1  0  0  0
 16 17  2  0  0  0
 16 21  1  0  0  0
 16 31  1  0  0  0
 17 18  1  0  0  0
 17 98  1  0  0  0
 18 19  2  0  0  0
 18 99  1  0  0  0
 19 20  1  0  0  0
 19 24  1  0  0  0
 20 21  2  0  0  0
 20100  1  0  0  0
 21 23  1  0  0  0
 22 28  1  0  0  0
 22 32  2  0  0  0
 26 27  1  0  0  0
 28101  1  0  0  0
 28102  1  0  0  0
 29103  1  0  0  0
 29104  1  0  0  0
 33 34  1  0  0  0
 33 66  1  0  0  0
 33 70  2  0  0  0
 34 36  1  0  0  0
 34 59  1  0  0  0
 34105  1  0  0  0
 35 44  2  0  0  0
 35 45  1  0  0  0
 35 68  1  0  0  0
 36 56  1  0  0  0
 36106  1  0  0  0
 37 39  1  0  0  0
 37 47  1  0  0  0
 37 66  1  0  0  0
 37107  1  0  0  0
 38 43  2  0  0  0
 38 46  1  0  0  0
 38 47  1  0  0  0
 39 64  1  0  0  0
 39 67  2  0  0  0
 40 52  1  0  0  0
 40 53  2  0  0  0
 40 58  1  0  0  0
 41108  1  0  0  0
 41109  1  0  0  0
 41110  1  0  0  0
 41 48  1  0  0  0
 42 43  1  0  0  0
 42 66  1  0  0  0
 42111  1  0  0  0
 42112  1  0  0  0
 43 44  1  0  0  0
 44113  1  0  0  0
 45 46  2  0  0  0
 45114  1  0  0  0
 46115  1  0  0  0
 47116  1  0  0  0
 47117  1  0  0  0
 48 56  1  0  0  0
 48 65  1  0  0  0
 48118  1  0  0  0
 49 50  1  0  0  0
 49 53  1  0  0  0
 49 64  1  0  0  0
 49119  1  0  0  0
 50 51  1  0  0  0
 50120  1  0  0  0
 50121  1  0  0  0
 51 52  1  0  0  0
 51122  1  0  0  0
 51123  1  0  0  0
 52124  1  0  0  0
 52125  1  0  0  0
 53 54  1  0  0  0
 54 55  2  0  0  0
 54126  1  0  0  0
 55 57  1  0  0  0
 55127  1  0  0  0
 56 69  2  0  0  0
 57 58  2  0  0  0
 57128  1  0  0  0
 58129  1  0  0  0
 59 60  1  0  0  0
 59 61  1  0  0  0
 59 62  1  0  0  0
 60130  1  0  0  0
 60131  1  0  0  0
 60132  1  0  0  0
 61133  1  0  0  0
 61134  1  0  0  0
 61135  1  0  0  0
 62136  1  0  0  0
 62137  1  0  0  0
 62138  1  0  0  0
 63 65  1  0  0  0
 63139  1  0  0  0
 63140  1  0  0  0
 63141  1  0  0  0
 64142  1  0  0  0
 65143  1  0  0  0
 68 80  1  0  0  0
 71 72  1  0  0  0
 71 77  1  0  0  0
 71144  1  0  0  0
 71145  1  0  0  0
 72 77  1  0  0  0
 72146  1  0  0  0
 72147  1  0  0  0
 73 75  1  0  0  0
 73 82  1  0  0  0
 73148  1  0  0  0
 73149  1  0  0  0
 74 76  1  0  0  0
 74 82  1  0  0  0
 74150  1  0  0  0
 74151  1  0  0  0
 75 83  1  0  0  0
 75152  1  0  0  0
 75153  1  0  0  0
 76 83  1  0  0  0
 76154  1  0  0  0
 76155  1  0  0  0
 77 79  1  0  0  0
 77 83  1  0  0  0
 78156  1  0  0  0
 78157  1  0  0  0
 78158  1  0  0  0
 78 81  1  0  0  0
 79 84  1  0  0  0
 79159  1  0  0  0
 79160  1  0  0  0
 80 81  1  0  0  0
 80161  1  0  0  0
 80162  1  0  0  0
 81 84  1  0  0  0
 81163  1  0  0  0
 84164  1  0  0  0
 84165  1  0  0  0
M  CHG  1  84   1
M  ISO  4   1 100  68 101  80 101  82 100
M  END
> <chiral flag>
0

> <version>
0

> <s_m_source_file>
/data/baiqing/PycharmProjects/Reinvent-master-3.2/result/LINK_invent/BTK/process_docking_weight1_custom_sum_contain_oxygen_bond_distance_aromatic_linkinvent_7_9_3/rearranged_h_0195.sdf

> <i_m_source_file_index>
34

> <r_mmod_Potential_Energy-OPLS-2005>
310.034729003906

> <r_mmod_Stretch_Energy-OPLS-2005>
97.1725463867188

> <r_mmod_Bend_Energy-OPLS-2005>
195.79704284668

> <r_mmod_Torsional_Energy-OPLS-2005>
459.112121582031

> <r_mmod_Improper_Torsional_Energy-OPLS-2005>
18.3395328521729

> <r_mmod_Van_der_Waal_Energy-OPLS-2005>
131.6455078125

> <r_mmod_Electrostatic_Energy-OPLS-2005>
-228.236877441406

> <r_mmod_Solvation_Energy-OPLS-2005>
-422.661376953125

> <b_mmod_Minimization_Converged-OPLS-2005>
0

> <r_mmod_RMS_Derivative-OPLS-2005>
2.91789221763611

$$$$
35
                    3D
 Structure written by MMmdl.
169178  0  0  1  0            999 V2000
  -30.6854  -14.4988   20.4462 C   0  0  0  0  0  0
  -30.4196  -12.2878   19.4259 C   0  0  0  0  0  0
  -29.4870  -12.4377   18.2047 C   0  0  0  0  0  0
  -28.0075  -12.3260   18.6253 C   0  0  0  0  0  0
  -27.6489  -13.1917   19.8633 C   0  0  2  0  0  0
  -28.7041  -13.0463   20.9832 C   0  0  0  0  0  0
  -25.2575  -13.8113   20.5716 C   0  0  0  0  0  0
  -24.1812  -13.0411   20.9203 C   0  0  0  0  0  0
  -24.6354  -11.6873   20.8773 C   0  0  0  0  0  0
  -23.9028  -10.4271   21.0433 C   0  0  0  0  0  0
  -24.3592   -9.4189   21.9202 C   0  0  0  0  0  0
  -23.6275   -8.2223   22.0761 C   0  0  0  0  0  0
  -22.4259   -8.0268   21.3548 C   0  0  0  0  0  0
  -21.9893   -9.0238   20.4647 C   0  0  0  0  0  0
  -22.7214  -10.2120   20.3067 C   0  0  0  0  0  0
  -21.6844   -6.0728   22.5281 C   0  0  0  0  0  0
  -21.4009   -6.5636   23.8214 C   0  0  0  0  0  0
  -21.3656   -5.6792   24.9178 C   0  0  0  0  0  0
  -21.6044   -4.3055   24.7230 C   0  0  0  0  0  0
  -21.8818   -3.8143   23.4352 C   0  0  0  0  0  0
  -21.9192   -4.6957   22.3406 C   0  0  0  0  0  0
  -22.7841  -13.5229   21.1853 C   0  0  0  0  0  0
  -22.1661   -4.2142   21.0984 F   0  0  0  0  0  0
  -21.5632   -3.4541   25.7745 F   0  0  0  0  0  0
  -30.0253  -13.3133   20.3976 N   0  0  0  0  0  0
  -26.2972  -12.9237   20.3386 N   0  0  0  0  0  0
  -25.9276  -11.6423   20.5826 N   0  0  0  0  0  0
  -22.0470  -12.8224   22.0404 N   0  0  0  0  0  0
  -25.4332  -15.1831   20.4130 N   0  0  0  0  0  0
  -31.8948  -14.6117   20.2313 O   0  0  0  0  0  0
  -21.6629   -6.8865   21.4240 O   0  0  0  0  0  0
  -22.3548  -14.5545   20.6704 O   0  0  0  0  0  0
  -24.6109  -31.8691   23.2103 C   0  0  0  0  0  0
  -25.9016  -32.4827   23.8392 C   0  0  1  0  0  0
  -27.2371  -27.4509   20.1058 C   0  0  0  0  0  0
  -25.5884  -33.8625   24.2327 N   0  0  0  0  0  0
  -23.3977  -30.4911   21.5498 C   0  0  2  0  0  0
  -24.8446  -28.9544   20.1165 C   0  0  0  0  0  0
  -22.7389  -29.4659   22.4997 C   0  0  0  0  0  0
  -18.0268  -28.1371   22.8494 C   0  0  0  0  0  0
  -24.1486  -36.7319   23.2639 C   0  0  0  0  0  0
  -25.9227  -30.8419   21.3581 C   0  0  0  0  0  0
  -26.0008  -29.4764   20.7079 C   0  0  0  0  0  0
  -27.1993  -28.7337   20.6932 C   0  0  0  0  0  0
  -26.0654  -26.9348   19.5081 C   0  0  0  0  0  0
  -24.8711  -27.6832   19.5130 C   0  0  0  0  0  0
  -23.6048  -29.8189   20.1651 C   0  0  0  0  0  0
  -25.4108  -36.3115   24.0338 C   0  0  1  0  0  0
  -20.5854  -28.3652   23.1331 C   0  0  2  0  0  0
  -20.6758  -26.9393   22.5421 C   0  0  0  0  0  0
  -19.5740  -26.6383   21.5213 C   0  0  0  0  0  0
  -18.1917  -26.7922   22.1619 C   0  0  0  0  0  0
  -19.1515  -28.8829   23.2911 C   0  0  0  0  0  0
  -18.9445  -30.1438   23.8915 C   0  0  0  0  0  0
  -17.6449  -30.6583   24.0563 C   0  0  0  0  0  0
  -25.9033  -34.9480   23.5131 C   0  0  0  0  0  0
  -16.5340  -29.9084   23.6321 C   0  0  0  0  0  0
  -16.7258  -28.6499   23.0345 C   0  0  0  0  0  0
  -26.4459  -31.6600   25.0711 C   0  0  0  0  0  0
  -25.3736  -31.3691   26.1465 C   0  0  0  0  0  0
  -27.0291  -30.3051   24.6064 C   0  0  0  0  0  0
  -27.6034  -32.4318   25.7474 C   0  0  0  0  0  0
  -27.5583  -37.1814   24.8463 C   0  0  0  0  0  0
  -21.4121  -29.3025   22.3741 N   0  0  0  0  0  0
  -26.4297  -37.3797   23.9406 N   0  0  0  0  0  0
  -24.6620  -31.0812   22.0985 N   0  0  0  0  0  0
  -23.4176  -28.8205   23.3034 O   0  0  0  0  0  0
  -28.4336  -26.7729   20.1138 O   0  0  0  0  0  0
  -26.5599  -34.8926   22.4695 O   0  0  0  0  0  0
  -23.5313  -32.1430   23.7519 O   0  0  0  0  0  0
  -29.9965  -17.5157   18.8285 C   0  0  0  0  0  0
  -28.7874  -20.7999   18.9350 C   0  0  0  0  0  0
  -31.0785  -21.6063   19.9237 C   0  0  0  0  0  0
  -29.6799  -16.0289   18.8932 C   0  0  0  0  0  0
  -30.0673  -16.8109   21.0950 C   0  0  0  0  0  0
  -28.2495  -22.2063   19.2897 C   0  0  0  0  0  0
  -30.3610  -22.9374   20.2196 C   0  0  0  0  0  0
  -29.5986  -17.9944   20.2158 C   0  0  1  0  0  0
  -30.1620  -20.4010   19.5627 C   0  0  1  0  0  0
  -30.0296  -25.4216   18.2769 C   0  0  0  0  0  0
  -28.4384  -25.3515   20.2918 C   0  0  0  0  0  0
  -28.9099  -24.6375   18.9973 C   0  0  2  0  0  0
  -29.8877  -15.5853   20.2879 N   0  0  0  0  0  0
  -29.3342  -23.2103   19.1821 N   0  3  2  0  0  0
  -30.1081  -19.3411   20.6217 N   0  3  0  0  0  0
  -31.4638  -12.3812   19.1210 H   0  0  0  0  0  0
  -30.3200  -11.2953   19.8686 H   0  0  0  0  0  0
  -29.7171  -11.6696   17.4648 H   0  0  0  0  0  0
  -29.6579  -13.3897   17.7055 H   0  0  0  0  0  0
  -27.8130  -11.2753   18.8445 H   0  0  0  0  0  0
  -27.3581  -12.5826   17.7874 H   0  0  0  0  0  0
  -27.6536  -14.2221   19.5283 H   0  0  0  0  0  0
  -28.6814  -12.0421   21.4085 H   0  0  0  0  0  0
  -28.4922  -13.7342   21.8039 H   0  0  0  0  0  0
  -25.2740   -9.5664   22.4772 H   0  0  0  0  0  0
  -23.9986   -7.4612   22.7474 H   0  0  0  0  0  0
  -21.0831   -8.8752   19.8942 H   0  0  0  0  0  0
  -22.3683  -10.9660   19.6172 H   0  0  0  0  0  0
  -21.1998   -7.6144   23.9711 H   0  0  0  0  0  0
  -21.1480   -6.0528   25.9079 H   0  0  0  0  0  0
  -22.0601   -2.7605   23.2859 H   0  0  0  0  0  0
  -22.4079  -11.9873   22.4771 H   0  0  0  0  0  0
  -21.1085  -13.1247   22.2603 H   0  0  0  0  0  0
  -24.6719  -15.8438   20.5258 H   0  0  0  0  0  0
  -26.2970  -15.6182   20.1164 H   0  0  0  0  0  0
  -26.7086  -32.5551   23.1160 H   0  0  0  0  0  0
  -25.0028  -33.9790   25.0467 H   0  0  0  0  0  0
  -22.6850  -31.3066   21.4105 H   0  0  0  0  0  0
  -23.3747  -35.9654   23.3306 H   0  0  0  0  0  0
  -24.3581  -36.8933   22.2053 H   0  0  0  0  0  0
  -23.7239  -37.6524   23.6654 H   0  0  0  0  0  0
  -26.0306  -31.6089   20.5897 H   0  0  0  0  0  0
  -26.8121  -30.8968   21.9740 H   0  0  0  0  0  0
  -28.0957  -29.1377   21.1434 H   0  0  0  0  0  0
  -26.0667  -25.9679   19.0262 H   0  0  0  0  0  0
  -23.9814  -27.2780   19.0504 H   0  0  0  0  0  0
  -23.7097  -30.5917   19.4027 H   0  0  0  0  0  0
  -22.7298  -29.2354   19.8729 H   0  0  0  0  0  0
  -25.1285  -36.1984   25.0831 H   0  0  0  0  0  0
  -20.9948  -28.3214   24.1451 H   0  0  0  0  0  0
  -20.5664  -26.2255   23.3599 H   0  0  0  0  0  0
  -21.6631  -26.7442   22.1215 H   0  0  0  0  0  0
  -19.6902  -25.6301   21.1226 H   0  0  0  0  0  0
  -19.6684  -27.3204   20.6754 H   0  0  0  0  0  0
  -17.4192  -26.6679   21.4014 H   0  0  0  0  0  0
  -18.0309  -26.0055   22.9004 H   0  0  0  0  0  0
  -19.7924  -30.7248   24.2289 H   0  0  0  0  0  0
  -17.5007  -31.6266   24.5160 H   0  0  0  0  0  0
  -15.5341  -30.2994   23.7638 H   0  0  0  0  0  0
  -15.8657  -28.0829   22.7046 H   0  0  0  0  0  0
  -24.5895  -30.7059   25.7798 H   0  0  0  0  0  0
  -24.8946  -32.2844   26.4952 H   0  0  0  0  0  0
  -25.8098  -30.8825   27.0199 H   0  0  0  0  0  0
  -26.2826  -29.6812   24.1136 H   0  0  0  0  0  0
  -27.4096  -29.7286   25.4507 H   0  0  0  0  0  0
  -27.8644  -30.4387   23.9183 H   0  0  0  0  0  0
  -27.2646  -33.3597   26.2097 H   0  0  0  0  0  0
  -28.3820  -32.6917   25.0291 H   0  0  0  0  0  0
  -28.0729  -31.8418   26.5356 H   0  0  0  0  0  0
  -28.2601  -38.0111   24.7517 H   0  0  0  0  0  0
  -28.1079  -36.2644   24.6282 H   0  0  0  0  0  0
  -27.2299  -37.1458   25.8865 H   0  0  0  0  0  0
  -20.9268  -29.8748   21.6972 H   0  0  0  0  0  0
  -26.0187  -38.2878   24.1404 H   0  0  0  0  0  0
  -29.4548  -18.0134   18.0227 H   0  0  0  0  0  0
  -31.0667  -17.6486   18.6598 H   0  0  0  0  0  0
  -28.9072  -20.7725   17.8508 H   0  0  0  0  0  0
  -28.0189  -20.0559   19.1417 H   0  0  0  0  0  0
  -31.7488  -21.3588   20.7473 H   0  0  0  0  0  0
  -31.7412  -21.7871   19.0754 H   0  0  0  0  0  0
  -30.2933  -15.4937   18.1654 H   0  0  0  0  0  0
  -28.6410  -15.8748   18.6068 H   0  0  0  0  0  0
  -29.4912  -16.7470   22.0190 H   0  0  0  0  0  0
  -31.1181  -16.9258   21.3703 H   0  0  0  0  0  0
  -27.8254  -22.2154   20.2952 H   0  0  0  0  0  0
  -27.4307  -22.4527   18.6114 H   0  0  0  0  0  0
  -31.1037  -23.7347   20.2542 H   0  0  0  0  0  0
  -29.9021  -22.9049   21.2090 H   0  0  0  0  0  0
  -28.5079  -18.0326   20.2532 H   0  0  0  0  0  0
  -30.7170  -19.9318   18.7501 H   0  0  0  0  0  0
  -29.6794  -26.4034   17.9553 H   0  0  0  0  0  0
  -30.3710  -24.9045   17.3798 H   0  0  0  0  0  0
  -30.8957  -25.5874   18.9181 H   0  0  0  0  0  0
  -29.1413  -25.1674   21.1032 H   0  0  0  0  0  0
  -27.4813  -24.9588   20.6379 H   0  0  0  0  0  0
  -28.0659  -24.6389   18.3059 H   0  0  0  0  0  0
  -29.7779  -23.0056   18.2987 H   0  0  0  0  0  0
  -31.0531  -19.2032   20.9444 H   0  0  0  0  0  0
  -29.5789  -19.6630   21.4180 H   0  0  0  0  0  0
  1 25  1  0  0  0
  1 30  2  0  0  0
  1 83  1  0  0  0
  2  3  1  0  0  0
  2 25  1  0  0  0
  2 86  1  0  0  0
  2 87  1  0  0  0
  3  4  1  0  0  0
  3 88  1  0  0  0
  3 89  1  0  0  0
  4  5  1  0  0  0
  4 90  1  0  0  0
  4 91  1  0  0  0
  5  6  1  0  0  0
  5 26  1  0  0  0
  5 92  1  0  0  0
  6 25  1  0  0  0
  6 93  1  0  0  0
  6 94  1  0  0  0
  7  8  2  0  0  0
  7 26  1  0  0  0
  7 29  1  0  0  0
  8  9  1  0  0  0
  8 22  1  0  0  0
  9 10  1  0  0  0
  9 27  2  0  0  0
 10 11  2  0  0  0
 10 15  1  0  0  0
 11 12  1  0  0  0
 11 95  1  0  0  0
 12 13  2  0  0  0
 12 96  1  0  0  0
 13 14  1  0  0  0
 13 31  1  0  0  0
 14 15  2  0  0  0
 14 97  1  0  0  0
 15 98  1  0  0  0
 16 17  2  0  0  0
 16 21  1  0  0  0
 16 31  1  0  0  0
 17 18  1  0  0  0
 17 99  1  0  0  0
 18 19  2  0  0  0
 18100  1  0  0  0
 19 20  1  0  0  0
 19 24  1  0  0  0
 20 21  2  0  0  0
 20101  1  0  0  0
 21 23  1  0  0  0
 22 28  1  0  0  0
 22 32  2  0  0  0
 26 27  1  0  0  0
 28102  1  0  0  0
 28103  1  0  0  0
 29104  1  0  0  0
 29105  1  0  0  0
 33 34  1  0  0  0
 33 66  1  0  0  0
 33 70  2  0  0  0
 34 36  1  0  0  0
 34 59  1  0  0  0
 34106  1  0  0  0
 35 44  2  0  0  0
 35 45  1  0  0  0
 35 68  1  0  0  0
 36 56  1  0  0  0
 36107  1  0  0  0
 37 39  1  0  0  0
 37 47  1  0  0  0
 37 66  1  0  0  0
 37108  1  0  0  0
 38 43  2  0  0  0
 38 46  1  0  0  0
 38 47  1  0  0  0
 39 64  1  0  0  0
 39 67  2  0  0  0
 40 52  1  0  0  0
 40 53  2  0  0  0
 40 58  1  0  0  0
 41109  1  0  0  0
 41110  1  0  0  0
 41111  1  0  0  0
 41 48  1  0  0  0
 42 43  1  0  0  0
 42 66  1  0  0  0
 42112  1  0  0  0
 42113  1  0  0  0
 43 44  1  0  0  0
 44114  1  0  0  0
 45 46  2  0  0  0
 45115  1  0  0  0
 46116  1  0  0  0
 47117  1  0  0  0
 47118  1  0  0  0
 48 56  1  0  0  0
 48 65  1  0  0  0
 48119  1  0  0  0
 49 50  1  0  0  0
 49 53  1  0  0  0
 49 64  1  0  0  0
 49120  1  0  0  0
 50 51  1  0  0  0
 50121  1  0  0  0
 50122  1  0  0  0
 51 52  1  0  0  0
 51123  1  0  0  0
 51124  1  0  0  0
 52125  1  0  0  0
 52126  1  0  0  0
 53 54  1  0  0  0
 54 55  2  0  0  0
 54127  1  0  0  0
 55 57  1  0  0  0
 55128  1  0  0  0
 56 69  2  0  0  0
 57 58  2  0  0  0
 57129  1  0  0  0
 58130  1  0  0  0
 59 60  1  0  0  0
 59 61  1  0  0  0
 59 62  1  0  0  0
 60131  1  0  0  0
 60132  1  0  0  0
 60133  1  0  0  0
 61134  1  0  0  0
 61135  1  0  0  0
 61136  1  0  0  0
 62137  1  0  0  0
 62138  1  0  0  0
 62139  1  0  0  0
 63 65  1  0  0  0
 63140  1  0  0  0
 63141  1  0  0  0
 63142  1  0  0  0
 64143  1  0  0  0
 65144  1  0  0  0
 68 81  1  0  0  0
 71 74  1  0  0  0
 71 78  1  0  0  0
 71145  1  0  0  0
 71146  1  0  0  0
 72 76  1  0  0  0
 72 79  1  0  0  0
 72147  1  0  0  0
 72148  1  0  0  0
 73 77  1  0  0  0
 73 79  1  0  0  0
 73149  1  0  0  0
 73150  1  0  0  0
 74 83  1  0  0  0
 74151  1  0  0  0
 74152  1  0  0  0
 75 78  1  0  0  0
 75 83  1  0  0  0
 75153  1  0  0  0
 75154  1  0  0  0
 76155  1  0  0  0
 76156  1  0  0  0
 76 84  1  0  0  0
 77 84  1  0  0  0
 77157  1  0  0  0
 77158  1  0  0  0
 78 85  1  0  0  0
 78159  1  0  0  0
 79 85  1  0  0  0
 79160  1  0  0  0
 80161  1  0  0  0
 80162  1  0  0  0
 80163  1  0  0  0
 80 82  1  0  0  0
 81 82  1  0  0  0
 81164  1  0  0  0
 81165  1  0  0  0
 82 84  1  0  0  0
 82166  1  0  0  0
 84167  1  0  0  0
 85168  1  0  0  0
 85169  1  0  0  0
M  CHG  2  84   1  85   1
M  ISO  4   1 100  68 101  81 101  83 100
M  END
> <chiral flag>
0

> <version>
0

> <s_m_source_file>
/data/baiqing/PycharmProjects/Reinvent-master-3.2/result/LINK_invent/BTK/process_docking_weight1_custom_sum_contain_oxygen_bond_distance_aromatic_linkinvent_7_9_3/rearranged_h_0195.sdf

> <i_m_source_file_index>
35

> <r_mmod_Potential_Energy-OPLS-2005>
64.358039855957

> <r_mmod_Stretch_Energy-OPLS-2005>
40.3383674621582

> <r_mmod_Bend_Energy-OPLS-2005>
155.1357421875

> <r_mmod_Torsional_Energy-OPLS-2005>
431.321899414062

> <r_mmod_Improper_Torsional_Energy-OPLS-2005>
17.4633255004883

> <r_mmod_Van_der_Waal_Energy-OPLS-2005>
136.684463500977

> <r_mmod_Electrostatic_Energy-OPLS-2005>
219.827362060547

> <r_mmod_Solvation_Energy-OPLS-2005>
-960.218200683594

> <b_mmod_Minimization_Converged-OPLS-2005>
0

> <r_mmod_RMS_Derivative-OPLS-2005>
0.637187480926514

$$$$
36
                    3D
 Structure written by MMmdl.
170180  0  0  1  0            999 V2000
  -30.6624  -14.4514   20.5866 C   0  0  0  0  0  0
  -30.4239  -12.2991   19.4071 C   0  0  0  0  0  0
  -29.4825  -12.5109   18.1997 C   0  0  0  0  0  0
  -28.0014  -12.3787   18.6146 C   0  0  0  0  0  0
  -27.6615  -13.1944   19.8915 C   0  0  2  0  0  0
  -28.7108  -12.9075   20.9929 C   0  0  0  0  0  0
  -25.2515  -13.8115   20.5584 C   0  0  0  0  0  0
  -24.1817  -13.0446   20.9248 C   0  0  0  0  0  0
  -24.6356  -11.6903   20.8797 C   0  0  0  0  0  0
  -23.9015  -10.4315   21.0440 C   0  0  0  0  0  0
  -24.3596   -9.4221   21.9188 C   0  0  0  0  0  0
  -23.6299   -8.2239   22.0721 C   0  0  0  0  0  0
  -22.4262   -8.0275   21.3530 C   0  0  0  0  0  0
  -21.9886   -9.0267   20.4659 C   0  0  0  0  0  0
  -22.7207  -10.2146   20.3062 C   0  0  0  0  0  0
  -21.6852   -6.0713   22.5258 C   0  0  0  0  0  0
  -21.4021   -6.5613   23.8195 C   0  0  0  0  0  0
  -21.3658   -5.6755   24.9161 C   0  0  0  0  0  0
  -21.6056   -4.3021   24.7183 C   0  0  0  0  0  0
  -21.8825   -3.8112   23.4308 C   0  0  0  0  0  0
  -21.9194   -4.6934   22.3367 C   0  0  0  0  0  0
  -22.7821  -13.5224   21.1918 C   0  0  0  0  0  0
  -22.1651   -4.2145   21.0933 F   0  0  0  0  0  0
  -21.5656   -3.4500   25.7688 F   0  0  0  0  0  0
  -30.0272  -13.2574   20.4472 N   0  0  0  0  0  0
  -26.3006  -12.9300   20.3463 N   0  0  0  0  0  0
  -25.9280  -11.6470   20.5869 N   0  0  0  0  0  0
  -22.0445  -12.8190   22.0419 N   0  0  0  0  0  0
  -25.4141  -15.1812   20.3616 N   0  0  0  0  0  0
  -31.8063  -14.6539   20.1724 O   0  0  0  0  0  0
  -21.6636   -6.8858   21.4222 O   0  0  0  0  0  0
  -22.3535  -14.5565   20.6810 O   0  0  0  0  0  0
  -24.6095  -31.8749   23.2160 C   0  0  0  0  0  0
  -25.9035  -32.4840   23.8415 C   0  0  1  0  0  0
  -27.2272  -27.4935   20.0831 C   0  0  0  0  0  0
  -25.5925  -33.8632   24.2359 N   0  0  0  0  0  0
  -23.3895  -30.5023   21.5553 C   0  0  2  0  0  0
  -24.8315  -28.9706   20.1196 C   0  0  0  0  0  0
  -22.7366  -29.4714   22.5019 C   0  0  0  0  0  0
  -18.0279  -28.1316   22.8544 C   0  0  0  0  0  0
  -24.1497  -36.7307   23.2630 C   0  0  0  0  0  0
  -25.9125  -30.8616   21.3553 C   0  0  0  0  0  0
  -25.9897  -29.4989   20.7028 C   0  0  0  0  0  0
  -27.1923  -28.7685   20.6785 C   0  0  0  0  0  0
  -26.0557  -26.9581   19.5057 C   0  0  0  0  0  0
  -24.8551  -27.6942   19.5251 C   0  0  0  0  0  0
  -23.5917  -29.8344   20.1696 C   0  0  0  0  0  0
  -25.4117  -36.3102   24.0327 C   0  0  1  0  0  0
  -20.5867  -28.3642   23.1298 C   0  0  2  0  0  0
  -20.6822  -26.9424   22.5290 C   0  0  0  0  0  0
  -19.5713  -26.6358   21.5196 C   0  0  0  0  0  0
  -18.1963  -26.7828   22.1754 C   0  0  0  0  0  0
  -19.1525  -28.8804   23.2902 C   0  0  0  0  0  0
  -18.9446  -30.1435   23.8873 C   0  0  0  0  0  0
  -17.6450  -30.6590   24.0487 C   0  0  0  0  0  0
  -25.9042  -34.9471   23.5127 C   0  0  0  0  0  0
  -16.5345  -29.9058   23.6305 C   0  0  0  0  0  0
  -16.7267  -28.6433   23.0408 C   0  0  0  0  0  0
  -26.4497  -31.6574   25.0702 C   0  0  0  0  0  0
  -25.3769  -31.3673   26.1462 C   0  0  0  0  0  0
  -27.0318  -30.3022   24.6013 C   0  0  0  0  0  0
  -27.6084  -32.4289   25.7459 C   0  0  0  0  0  0
  -27.5589  -37.1808   24.8464 C   0  0  0  0  0  0
  -21.4098  -29.3072   22.3753 N   0  0  0  0  0  0
  -26.4309  -37.3786   23.9398 N   0  0  0  0  0  0
  -24.6553  -31.0925   22.1013 N   0  0  0  0  0  0
  -23.4193  -28.8244   23.3010 O   0  0  0  0  0  0
  -28.4055  -26.7960   20.0921 O   0  0  0  0  0  0
  -26.5590  -34.8916   22.4681 O   0  0  0  0  0  0
  -23.5324  -32.1498   23.7613 O   0  0  0  0  0  0
  -25.0451  -19.8262   22.8411 C   0  0  0  0  0  0
  -25.3745  -21.1214   23.1175 C   0  0  0  0  0  0
  -26.2542  -19.0954   23.0408 C   0  0  0  0  0  0
  -27.0404  -23.2212   24.8113 C   0  0  0  0  0  0
  -27.7229  -24.5665   24.4902 C   0  0  0  0  0  0
  -27.7375  -23.2102   22.5244 C   0  0  0  0  0  0
  -28.1403  -15.7736   22.6459 C   0  0  0  0  0  0
  -28.7413  -17.5140   21.7581 C   0  0  0  0  0  0
  -27.5721  -22.2800   23.7276 C   0  0  2  0  0  0
  -29.4622  -16.1817   21.9979 C   0  0  2  0  0  0
  -26.4783  -17.6083   22.8563 C   0  0  0  0  0  0
  -27.8680  -25.6891   22.2445 C   0  0  0  0  0  0
  -28.3705  -25.5514   20.7829 C   0  0  0  0  0  0
  -27.2507  -19.8992   23.3982 N   0  0  0  0  0  0
  -26.7157  -21.1407   23.4406 N   0  0  0  0  0  0
  -29.8453  -15.5082   20.7455 N   0  0  0  0  0  0
  -27.9034  -17.1953   22.9199 N   0  3  1  0  0  0
  -28.1941  -24.5006   23.0796 N   0  3  1  0  0  0
  -31.4654  -12.4140   19.1042 H   0  0  0  0  0  0
  -30.3337  -11.2782   19.7810 H   0  0  0  0  0  0
  -29.7086  -11.7885   17.4135 H   0  0  0  0  0  0
  -29.6549  -13.4991   17.7708 H   0  0  0  0  0  0
  -27.8071  -11.3218   18.8007 H   0  0  0  0  0  0
  -27.3447  -12.6686   17.7916 H   0  0  0  0  0  0
  -27.7200  -14.2490   19.6254 H   0  0  0  0  0  0
  -28.6939  -11.8491   21.2625 H   0  0  0  0  0  0
  -28.5090  -13.4167   21.9272 H   0  0  0  0  0  0
  -25.2787   -9.5698   22.4702 H   0  0  0  0  0  0
  -24.0046   -7.4625   22.7399 H   0  0  0  0  0  0
  -21.0821   -8.8798   19.8963 H   0  0  0  0  0  0
  -22.3706  -10.9686   19.6153 H   0  0  0  0  0  0
  -21.2003   -7.6121   23.9717 H   0  0  0  0  0  0
  -21.1473   -6.0466   25.9078 H   0  0  0  0  0  0
  -22.0613   -2.7573   23.2784 H   0  0  0  0  0  0
  -22.4085  -11.9877   22.4841 H   0  0  0  0  0  0
  -21.1006  -13.1111   22.2574 H   0  0  0  0  0  0
  -24.5754  -15.7460   20.2868 H   0  0  0  0  0  0
  -26.1414  -15.4886   19.7292 H   0  0  0  0  0  0
  -26.7091  -32.5566   23.1169 H   0  0  0  0  0  0
  -25.0070  -33.9792   25.0507 H   0  0  0  0  0  0
  -22.6755  -31.3188   21.4232 H   0  0  0  0  0  0
  -23.3742  -35.9656   23.3307 H   0  0  0  0  0  0
  -24.3591  -36.8928   22.2045 H   0  0  0  0  0  0
  -23.7293  -37.6528   23.6648 H   0  0  0  0  0  0
  -26.0196  -31.6349   20.5935 H   0  0  0  0  0  0
  -26.8035  -30.9142   21.9670 H   0  0  0  0  0  0
  -28.0861  -29.1777   21.1289 H   0  0  0  0  0  0
  -26.0727  -25.9840   19.0379 H   0  0  0  0  0  0
  -23.9571  -27.2791   19.0877 H   0  0  0  0  0  0
  -23.6887  -30.6136   19.4126 H   0  0  0  0  0  0
  -22.7174  -29.2527   19.8743 H   0  0  0  0  0  0
  -25.1302  -36.1952   25.0823 H   0  0  0  0  0  0
  -20.9961  -28.3156   24.1409 H   0  0  0  0  0  0
  -20.5903  -26.2232   23.3444 H   0  0  0  0  0  0
  -21.6651  -26.7610   22.0928 H   0  0  0  0  0  0
  -19.6894  -25.6269   21.1226 H   0  0  0  0  0  0
  -19.6502  -27.3189   20.6728 H   0  0  0  0  0  0
  -17.4140  -26.6441   21.4277 H   0  0  0  0  0  0
  -18.0549  -26.0021   22.9249 H   0  0  0  0  0  0
  -19.7917  -30.7251   24.2236 H   0  0  0  0  0  0
  -17.5009  -31.6318   24.4977 H   0  0  0  0  0  0
  -15.5352  -30.2979   23.7574 H   0  0  0  0  0  0
  -15.8665  -28.0705   22.7199 H   0  0  0  0  0  0
  -24.5917  -30.7064   25.7784 H   0  0  0  0  0  0
  -24.8987  -32.2839   26.4925 H   0  0  0  0  0  0
  -25.8132  -30.8815   27.0198 H   0  0  0  0  0  0
  -26.2832  -29.6770   24.1142 H   0  0  0  0  0  0
  -27.4213  -29.7275   25.4421 H   0  0  0  0  0  0
  -27.8612  -30.4354   23.9064 H   0  0  0  0  0  0
  -27.2696  -33.3563   26.2087 H   0  0  0  0  0  0
  -28.3865  -32.6906   25.0273 H   0  0  0  0  0  0
  -28.0779  -31.8381   26.5335 H   0  0  0  0  0  0
  -28.2605  -38.0100   24.7492 H   0  0  0  0  0  0
  -28.1089  -36.2636   24.6309 H   0  0  0  0  0  0
  -27.2295  -37.1478   25.8863 H   0  0  0  0  0  0
  -20.9230  -29.8814   21.6999 H   0  0  0  0  0  0
  -26.0187  -38.2862   24.1404 H   0  0  0  0  0  0
  -24.0735  -19.4631   22.5306 H   0  0  0  0  0  0
  -24.7805  -22.0248   23.0896 H   0  0  0  0  0  0
  -25.9565  -23.3307   24.7423 H   0  0  0  0  0  0
  -27.2598  -22.8631   25.8179 H   0  0  0  0  0  0
  -28.5830  -24.7254   25.1417 H   0  0  0  0  0  0
  -27.0407  -25.4004   24.6613 H   0  0  0  0  0  0
  -26.7817  -23.3550   22.0198 H   0  0  0  0  0  0
  -28.4432  -22.8198   21.7913 H   0  0  0  0  0  0
  -28.2296  -15.1661   23.5472 H   0  0  0  0  0  0
  -27.4156  -15.3609   21.9485 H   0  0  0  0  0  0
  -28.1684  -17.5557   20.8295 H   0  0  0  0  0  0
  -29.3567  -18.4051   21.8963 H   0  0  0  0  0  0
  -28.5561  -21.9117   24.0314 H   0  0  0  0  0  0
  -30.2736  -16.2714   22.7254 H   0  0  0  0  0  0
  -26.0485  -17.3019   21.9039 H   0  0  0  0  0  0
  -25.9368  -17.0544   23.6221 H   0  0  0  0  0  0
  -26.7894  -25.8614   22.2502 H   0  0  0  0  0  0
  -28.3266  -26.5668   22.7045 H   0  0  0  0  0  0
  -27.7782  -24.8296   20.2217 H   0  0  0  0  0  0
  -29.3915  -25.1710   20.7906 H   0  0  0  0  0  0
  -30.1350  -16.2058   20.0750 H   0  0  0  0  0  0
  -28.3407  -17.5096   23.7729 H   0  0  0  0  0  0
  -29.2033  -24.4386   23.1215 H   0  0  0  0  0  0
  1 25  1  0  0  0
  1 30  2  0  0  0
  1 86  1  0  0  0
  2  3  1  0  0  0
  2 25  1  0  0  0
  2 89  1  0  0  0
  2 90  1  0  0  0
  3  4  1  0  0  0
  3 91  1  0  0  0
  3 92  1  0  0  0
  4  5  1  0  0  0
  4 93  1  0  0  0
  4 94  1  0  0  0
  5  6  1  0  0  0
  5 26  1  0  0  0
  5 95  1  0  0  0
  6 25  1  0  0  0
  6 96  1  0  0  0
  6 97  1  0  0  0
  7  8  2  0  0  0
  7 26  1  0  0  0
  7 29  1  0  0  0
  8  9  1  0  0  0
  8 22  1  0  0  0
  9 10  1  0  0  0
  9 27  2  0  0  0
 10 11  2  0  0  0
 10 15  1  0  0  0
 11 12  1  0  0  0
 11 98  1  0  0  0
 12 13  2  0  0  0
 12 99  1  0  0  0
 13 14  1  0  0  0
 13 31  1  0  0  0
 14 15  2  0  0  0
 14100  1  0  0  0
 15101  1  0  0  0
 16 17  2  0  0  0
 16 21  1  0  0  0
 16 31  1  0  0  0
 17 18  1  0  0  0
 17102  1  0  0  0
 18 19  2  0  0  0
 18103  1  0  0  0
 19 20  1  0  0  0
 19 24  1  0  0  0
 20 21  2  0  0  0
 20104  1  0  0  0
 21 23  1  0  0  0
 22 28  1  0  0  0
 22 32  2  0  0  0
 26 27  1  0  0  0
 28105  1  0  0  0
 28106  1  0  0  0
 29107  1  0  0  0
 29108  1  0  0  0
 33 34  1  0  0  0
 33 66  1  0  0  0
 33 70  2  0  0  0
 34 36  1  0  0  0
 34 59  1  0  0  0
 34109  1  0  0  0
 35 44  2  0  0  0
 35 45  1  0  0  0
 35 68  1  0  0  0
 36 56  1  0  0  0
 36110  1  0  0  0
 37 39  1  0  0  0
 37 47  1  0  0  0
 37 66  1  0  0  0
 37111  1  0  0  0
 38 43  2  0  0  0
 38 46  1  0  0  0
 38 47  1  0  0  0
 39 64  1  0  0  0
 39 67  2  0  0  0
 40 52  1  0  0  0
 40 53  2  0  0  0
 40 58  1  0  0  0
 41112  1  0  0  0
 41113  1  0  0  0
 41114  1  0  0  0
 41 48  1  0  0  0
 42 43  1  0  0  0
 42 66  1  0  0  0
 42115  1  0  0  0
 42116  1  0  0  0
 43 44  1  0  0  0
 44117  1  0  0  0
 45 46  2  0  0  0
 45118  1  0  0  0
 46119  1  0  0  0
 47120  1  0  0  0
 47121  1  0  0  0
 48 56  1  0  0  0
 48 65  1  0  0  0
 48122  1  0  0  0
 49 50  1  0  0  0
 49 53  1  0  0  0
 49 64  1  0  0  0
 49123  1  0  0  0
 50 51  1  0  0  0
 50124  1  0  0  0
 50125  1  0  0  0
 51 52  1  0  0  0
 51126  1  0  0  0
 51127  1  0  0  0
 52128  1  0  0  0
 52129  1  0  0  0
 53 54  1  0  0  0
 54 55  2  0  0  0
 54130  1  0  0  0
 55 57  1  0  0  0
 55131  1  0  0  0
 56 69  2  0  0  0
 57 58  2  0  0  0
 57132  1  0  0  0
 58133  1  0  0  0
 59 60  1  0  0  0
 59 61  1  0  0  0
 59 62  1  0  0  0
 60134  1  0  0  0
 60135  1  0  0  0
 60136  1  0  0  0
 61137  1  0  0  0
 61138  1  0  0  0
 61139  1  0  0  0
 62140  1  0  0  0
 62141  1  0  0  0
 62142  1  0  0  0
 63 65  1  0  0  0
 63143  1  0  0  0
 63144  1  0  0  0
 63145  1  0  0  0
 64146  1  0  0  0
 65147  1  0  0  0
 68 83  1  0  0  0
 71 72  2  0  0  0
 71 73  1  0  0  0
 71148  1  0  0  0
 72 85  1  0  0  0
 72149  1  0  0  0
 73 81  1  0  0  0
 73 84  2  0  0  0
 74 75  1  0  0  0
 74 79  1  0  0  0
 74150  1  0  0  0
 74151  1  0  0  0
 75 88  1  0  0  0
 75152  1  0  0  0
 75153  1  0  0  0
 76 79  1  0  0  0
 76 88  1  0  0  0
 76154  1  0  0  0
 76155  1  0  0  0
 77 80  1  0  0  0
 77 87  1  0  0  0
 77156  1  0  0  0
 77157  1  0  0  0
 78 80  1  0  0  0
 78 87  1  0  0  0
 78158  1  0  0  0
 78159  1  0  0  0
 79 85  1  0  0  0
 79160  1  0  0  0
 80 86  1  0  0  0
 80161  1  0  0  0
 81162  1  0  0  0
 81163  1  0  0  0
 81 87  1  0  0  0
 82 83  1  0  0  0
 82164  1  0  0  0
 82165  1  0  0  0
 82 88  1  0  0  0
 83166  1  0  0  0
 83167  1  0  0  0
 84 85  1  0  0  0
 86168  1  0  0  0
 87169  1  0  0  0
 88170  1  0  0  0
M  CHG  2  87   1  88   1
M  ISO  4   1 100  68 101  83 101  86 100
M  END
> <chiral flag>
0

> <version>
0

> <s_m_source_file>
/data/baiqing/PycharmProjects/Reinvent-master-3.2/result/LINK_invent/BTK/process_docking_weight1_custom_sum_contain_oxygen_bond_distance_aromatic_linkinvent_7_9_3/rearranged_h_0195.sdf

> <i_m_source_file_index>
36

> <r_mmod_Potential_Energy-OPLS-2005>
-193.084823608398

> <r_mmod_Stretch_Energy-OPLS-2005>
33.3489990234375

> <r_mmod_Bend_Energy-OPLS-2005>
145.544128417969

> <r_mmod_Torsional_Energy-OPLS-2005>
412.003356933594

> <r_mmod_Improper_Torsional_Energy-OPLS-2005>
22.7124290466309

> <r_mmod_Van_der_Waal_Energy-OPLS-2005>
124.738418579102

> <r_mmod_Electrostatic_Energy-OPLS-2005>
-77.8876037597656

> <r_mmod_Solvation_Energy-OPLS-2005>
-865.693969726562

> <b_mmod_Minimization_Converged-OPLS-2005>
0

> <r_mmod_RMS_Derivative-OPLS-2005>
4.21054553985596

$$$$
37
                    3D
 Structure written by MMmdl.
159169  0  0  1  0            999 V2000
  -30.4692  -15.0135   20.4393 C   0  0  0  0  0  0
  -30.4282  -12.6296   19.5206 C   0  0  0  0  0  0
  -29.5257  -12.5521   18.2665 C   0  0  0  0  0  0
  -28.0570  -12.3258   18.6738 C   0  0  0  0  0  0
  -27.6215  -13.2495   19.8398 C   0  0  2  0  0  0
  -28.6521  -13.2780   20.9848 C   0  0  0  0  0  0
  -25.2457  -13.8208   20.5793 C   0  0  0  0  0  0
  -24.1767  -13.0477   20.9230 C   0  0  0  0  0  0
  -24.6353  -11.6935   20.8697 C   0  0  0  0  0  0
  -23.9065  -10.4317   21.0360 C   0  0  0  0  0  0
  -24.3611   -9.4233   21.9163 C   0  0  0  0  0  0
  -23.6302   -8.2256   22.0749 C   0  0  0  0  0  0
  -22.4292   -8.0264   21.3529 C   0  0  0  0  0  0
  -21.9894   -9.0256   20.4650 C   0  0  0  0  0  0
  -22.7212  -10.2144   20.3053 C   0  0  0  0  0  0
  -21.6854   -6.0733   22.5267 C   0  0  0  0  0  0
  -21.4030   -6.5641   23.8208 C   0  0  0  0  0  0
  -21.3679   -5.6789   24.9155 C   0  0  0  0  0  0
  -21.6043   -4.3049   24.7207 C   0  0  0  0  0  0
  -21.8827   -3.8140   23.4320 C   0  0  0  0  0  0
  -21.9210   -4.6964   22.3377 C   0  0  0  0  0  0
  -22.7780  -13.5215   21.1907 C   0  0  0  0  0  0
  -22.1659   -4.2140   21.0962 F   0  0  0  0  0  0
  -21.5634   -3.4529   25.7732 F   0  0  0  0  0  0
  -29.9125  -13.7291   20.3951 N   0  0  0  0  0  0
  -26.2825  -12.9421   20.3194 N   0  0  0  0  0  0
  -25.9257  -11.6560   20.5678 N   0  0  0  0  0  0
  -22.0408  -12.8262   22.0440 N   0  0  0  0  0  0
  -25.4258  -15.1974   20.4414 N   0  0  0  0  0  0
  -31.6518  -15.0858   20.0855 O   0  0  0  0  0  0
  -21.6639   -6.8865   21.4226 O   0  0  0  0  0  0
  -22.3478  -14.5522   20.6726 O   0  0  0  0  0  0
  -24.6534  -31.8382   23.1827 C   0  0  0  0  0  0
  -25.9276  -32.4629   23.8202 C   0  0  1  0  0  0
  -27.1611  -27.0114   20.1645 C   0  0  0  0  0  0
  -25.6033  -33.8445   24.2110 N   0  0  0  0  0  0
  -23.4587  -30.4595   21.5333 C   0  0  2  0  0  0
  -24.8979  -28.8775   20.1088 C   0  0  0  0  0  0
  -22.7620  -29.4504   22.4811 C   0  0  0  0  0  0
  -18.0303  -28.1423   22.8455 C   0  0  0  0  0  0
  -24.1505  -36.7215   23.2611 C   0  0  0  0  0  0
  -26.0243  -30.6717   21.4044 C   0  0  0  0  0  0
  -26.0854  -29.2744   20.7404 C   0  0  0  0  0  0
  -27.2257  -28.3640   20.7352 C   0  0  0  0  0  0
  -25.9462  -26.7480   19.4974 C   0  0  0  0  0  0
  -24.8500  -27.6325   19.4670 C   0  0  0  0  0  0
  -23.6882  -29.7995   20.1497 C   0  0  0  0  0  0
  -25.4155  -36.2954   24.0247 C   0  0  1  0  0  0
  -20.5899  -28.3748   23.1243 C   0  0  2  0  0  0
  -20.6826  -26.9464   22.5405 C   0  0  0  0  0  0
  -19.5818  -26.6396   21.5211 C   0  0  0  0  0  0
  -18.1981  -26.7958   22.1602 C   0  0  0  0  0  0
  -19.1545  -28.8919   23.2821 C   0  0  0  0  0  0
  -18.9464  -30.1513   23.8846 C   0  0  0  0  0  0
  -17.6461  -30.6617   24.0564 C   0  0  0  0  0  0
  -25.9123  -34.9338   23.4970 C   0  0  0  0  0  0
  -16.5356  -29.9106   23.6350 C   0  0  0  0  0  0
  -16.7280  -28.6535   23.0344 C   0  0  0  0  0  0
  -26.4580  -31.6562   25.0712 C   0  0  0  0  0  0
  -25.3729  -31.3857   26.1381 C   0  0  0  0  0  0
  -27.0429  -30.2896   24.6480 C   0  0  0  0  0  0
  -27.6068  -32.4381   25.7541 C   0  0  0  0  0  0
  -27.5579  -37.1750   24.8421 C   0  0  0  0  0  0
  -21.4292  -29.3068   22.3588 N   0  0  0  0  0  0
  -26.4280  -37.3722   23.9379 N   0  0  0  0  0  0
  -24.7307  -31.0108   22.0940 N   0  0  0  0  0  0
  -23.4182  -28.8092   23.3046 O   0  0  0  0  0  0
  -28.1515  -25.9289   20.1866 O   0  0  0  0  0  0
  -26.5678  -34.8855   22.4517 O   0  0  0  0  0  0
  -23.5652  -32.1311   23.7016 O   0  0  0  0  0  0
  -29.6606  -20.6779   18.7583 C   0  0  0  0  0  0
  -29.5744  -21.9303   18.1243 C   0  0  0  0  0  0
  -29.0738  -20.4785   20.0151 C   0  0  0  0  0  0
  -28.5521  -22.9606   19.9483 C   0  0  0  0  0  0
  -28.6653  -22.4234   15.7652 C   0  0  0  0  0  0
  -29.3896  -21.1236   15.5729 C   0  0  0  0  0  0
  -29.5210  -18.4139   21.9078 C   0  0  0  0  0  0
  -29.4716  -16.8204   21.9622 C   0  0  0  0  0  0
  -29.5525  -17.5297   19.7697 C   0  0  0  0  0  0
  -29.8542  -22.0987   16.6548 C   0  0  0  0  0  0
  -28.9588  -18.8790   20.5489 C   0  0  2  0  0  0
  -27.7664  -24.3814   20.4300 C   0  0  0  0  0  0
  -29.0784  -23.0361   18.7291 N   0  0  0  0  0  0
  -28.4997  -21.6788   20.5687 N   0  0  0  0  0  0
  -29.6752  -16.2147   20.6201 N   0  0  0  0  0  0
  -31.4651  -12.7963   19.2301 H   0  0  0  0  0  0
  -30.4203  -11.6745   20.0502 H   0  0  0  0  0  0
  -29.8619  -11.7529   17.6031 H   0  0  0  0  0  0
  -29.6106  -13.4753   17.6939 H   0  0  0  0  0  0
  -27.9569  -11.2841   18.9776 H   0  0  0  0  0  0
  -27.3978  -12.4561   17.8154 H   0  0  0  0  0  0
  -27.5827  -14.2545   19.4199 H   0  0  0  0  0  0
  -28.7509  -12.2950   21.4504 H   0  0  0  0  0  0
  -28.3377  -13.9574   21.7752 H   0  0  0  0  0  0
  -25.2740   -9.5741   22.4727 H   0  0  0  0  0  0
  -24.0025   -7.4661   22.7475 H   0  0  0  0  0  0
  -21.0795   -8.8782   19.8969 H   0  0  0  0  0  0
  -22.3637  -10.9689   19.6173 H   0  0  0  0  0  0
  -21.2025   -7.6144   23.9714 H   0  0  0  0  0  0
  -21.1488   -6.0496   25.9067 H   0  0  0  0  0  0
  -22.0595   -2.7601   23.2815 H   0  0  0  0  0  0
  -22.3985  -11.9937   22.4881 H   0  0  0  0  0  0
  -21.1032  -13.1331   22.2643 H   0  0  0  0  0  0
  -24.6922  -15.8674   20.6437 H   0  0  0  0  0  0
  -26.3123  -15.6291   20.2122 H   0  0  0  0  0  0
  -26.7337  -32.5177   23.0904 H   0  0  0  0  0  0
  -25.0154  -33.9557   25.0242 H   0  0  0  0  0  0
  -22.7659  -31.2868   21.3789 H   0  0  0  0  0  0
  -23.3762  -35.9547   23.3245 H   0  0  0  0  0  0
  -24.3586  -36.8916   22.2030 H   0  0  0  0  0  0
  -23.7290  -37.6397   23.6735 H   0  0  0  0  0  0
  -26.2002  -31.4331   20.6421 H   0  0  0  0  0  0
  -26.8816  -30.7108   22.0634 H   0  0  0  0  0  0
  -28.1338  -28.6648   21.2357 H   0  0  0  0  0  0
  -25.7916  -25.8045   18.9997 H   0  0  0  0  0  0
  -23.9495  -27.3359   18.9451 H   0  0  0  0  0  0
  -23.8385  -30.5722   19.3956 H   0  0  0  0  0  0
  -22.7998  -29.2507   19.8329 H   0  0  0  0  0  0
  -25.1371  -36.1709   25.0755 H   0  0  0  0  0  0
  -20.9961  -28.3338   24.1368 H   0  0  0  0  0  0
  -20.5789  -26.2356   23.3600 H   0  0  0  0  0  0
  -21.6696  -26.7557   22.1165 H   0  0  0  0  0  0
  -19.7002  -25.6295   21.1295 H   0  0  0  0  0  0
  -19.6768  -27.3150   20.6701 H   0  0  0  0  0  0
  -17.4266  -26.6641   21.4004 H   0  0  0  0  0  0
  -18.0402  -26.0125   22.9040 H   0  0  0  0  0  0
  -19.7930  -30.7342   24.2189 H   0  0  0  0  0  0
  -17.5015  -31.6270   24.5187 H   0  0  0  0  0  0
  -15.5362  -30.2981   23.7754 H   0  0  0  0  0  0
  -15.8661  -28.0855   22.7081 H   0  0  0  0  0  0
  -24.5753  -30.7448   25.7624 H   0  0  0  0  0  0
  -24.9116  -32.3107   26.4861 H   0  0  0  0  0  0
  -25.7872  -30.8859   27.0143 H   0  0  0  0  0  0
  -26.3059  -29.6603   24.1491 H   0  0  0  0  0  0
  -27.3888  -29.7284   25.5177 H   0  0  0  0  0  0
  -27.9061  -30.3990   23.9910 H   0  0  0  0  0  0
  -27.2566  -33.3622   26.2182 H   0  0  0  0  0  0
  -28.3859  -32.7104   25.0400 H   0  0  0  0  0  0
  -28.0802  -31.8525   26.5450 H   0  0  0  0  0  0
  -28.2520  -38.0131   24.7558 H   0  0  0  0  0  0
  -28.1166  -36.2648   24.6143 H   0  0  0  0  0  0
  -27.2288  -37.1234   25.8825 H   0  0  0  0  0  0
  -20.9528  -29.8647   21.6639 H   0  0  0  0  0  0
  -26.0084  -38.2744   24.1520 H   0  0  0  0  0  0
  -30.0916  -19.8473   18.2220 H   0  0  0  0  0  0
  -27.6644  -22.3355   16.1933 H   0  0  0  0  0  0
  -28.7724  -23.1753   14.9876 H   0  0  0  0  0  0
  -29.9311  -21.0555   14.6324 H   0  0  0  0  0  0
  -28.8245  -20.2368   15.8504 H   0  0  0  0  0  0
  -30.5595  -18.7365   22.0008 H   0  0  0  0  0  0
  -28.9779  -18.8572   22.7441 H   0  0  0  0  0  0
  -28.4912  -16.5006   22.3342 H   0  0  0  0  0  0
  -30.1975  -16.4238   22.6790 H   0  0  0  0  0  0
  -30.5447  -17.7434   19.3722 H   0  0  0  0  0  0
  -28.9217  -17.3156   18.9087 H   0  0  0  0  0  0
  -30.8012  -22.6033   16.4908 H   0  0  0  0  0  0
  -27.8795  -18.7304   20.6214 H   0  0  0  0  0  0
  -27.6226  -24.2695   21.5030 H   0  0  0  0  0  0
  -26.7703  -24.2318   20.0200 H   0  0  0  0  0  0
  1 25  1  0  0  0
  1 30  2  0  0  0
  1 85  1  0  0  0
  2  3  1  0  0  0
  2 25  1  0  0  0
  2 86  1  0  0  0
  2 87  1  0  0  0
  3  4  1  0  0  0
  3 88  1  0  0  0
  3 89  1  0  0  0
  4  5  1  0  0  0
  4 90  1  0  0  0
  4 91  1  0  0  0
  5  6  1  0  0  0
  5 26  1  0  0  0
  5 92  1  0  0  0
  6 25  1  0  0  0
  6 93  1  0  0  0
  6 94  1  0  0  0
  7  8  2  0  0  0
  7 26  1  0  0  0
  7 29  1  0  0  0
  8  9  1  0  0  0
  8 22  1  0  0  0
  9 10  1  0  0  0
  9 27  2  0  0  0
 10 11  2  0  0  0
 10 15  1  0  0  0
 11 12  1  0  0  0
 11 95  1  0  0  0
 12 13  2  0  0  0
 12 96  1  0  0  0
 13 14  1  0  0  0
 13 31  1  0  0  0
 14 15  2  0  0  0
 14 97  1  0  0  0
 15 98  1  0  0  0
 16 17  2  0  0  0
 16 21  1  0  0  0
 16 31  1  0  0  0
 17 18  1  0  0  0
 17 99  1  0  0  0
 18 19  2  0  0  0
 18100  1  0  0  0
 19 20  1  0  0  0
 19 24  1  0  0  0
 20 21  2  0  0  0
 20101  1  0  0  0
 21 23  1  0  0  0
 22 28  1  0  0  0
 22 32  2  0  0  0
 26 27  1  0  0  0
 28102  1  0  0  0
 28103  1  0  0  0
 29104  1  0  0  0
 29105  1  0  0  0
 33 34  1  0  0  0
 33 66  1  0  0  0
 33 70  2  0  0  0
 34 36  1  0  0  0
 34 59  1  0  0  0
 34106  1  0  0  0
 35 44  2  0  0  0
 35 45  1  0  0  0
 35 68  1  0  0  0
 36 56  1  0  0  0
 36107  1  0  0  0
 37 39  1  0  0  0
 37 47  1  0  0  0
 37 66  1  0  0  0
 37108  1  0  0  0
 38 43  2  0  0  0
 38 46  1  0  0  0
 38 47  1  0  0  0
 39 64  1  0  0  0
 39 67  2  0  0  0
 40 52  1  0  0  0
 40 53  2  0  0  0
 40 58  1  0  0  0
 41109  1  0  0  0
 41110  1  0  0  0
 41111  1  0  0  0
 41 48  1  0  0  0
 42 43  1  0  0  0
 42 66  1  0  0  0
 42112  1  0  0  0
 42113  1  0  0  0
 43 44  1  0  0  0
 44114  1  0  0  0
 45 46  2  0  0  0
 45115  1  0  0  0
 46116  1  0  0  0
 47117  1  0  0  0
 47118  1  0  0  0
 48 56  1  0  0  0
 48 65  1  0  0  0
 48119  1  0  0  0
 49 50  1  0  0  0
 49 53  1  0  0  0
 49 64  1  0  0  0
 49120  1  0  0  0
 50 51  1  0  0  0
 50121  1  0  0  0
 50122  1  0  0  0
 51 52  1  0  0  0
 51123  1  0  0  0
 51124  1  0  0  0
 52125  1  0  0  0
 52126  1  0  0  0
 53 54  1  0  0  0
 54 55  2  0  0  0
 54127  1  0  0  0
 55 57  1  0  0  0
 55128  1  0  0  0
 56 69  2  0  0  0
 57 58  2  0  0  0
 57129  1  0  0  0
 58130  1  0  0  0
 59 60  1  0  0  0
 59 61  1  0  0  0
 59 62  1  0  0  0
 60131  1  0  0  0
 60132  1  0  0  0
 60133  1  0  0  0
 61134  1  0  0  0
 61135  1  0  0  0
 61136  1  0  0  0
 62137  1  0  0  0
 62138  1  0  0  0
 62139  1  0  0  0
 63 65  1  0  0  0
 63140  1  0  0  0
 63141  1  0  0  0
 63142  1  0  0  0
 64143  1  0  0  0
 65144  1  0  0  0
 68 82  1  0  0  0
 71 72  2  0  0  0
 71 73  1  0  0  0
 71145  1  0  0  0
 72 83  1  0  0  0
 72 80  1  0  0  0
 73 84  2  0  0  0
 73 81  1  0  0  0
 74 82  1  0  0  0
 74 83  2  0  0  0
 74 84  1  0  0  0
 75 76  1  0  0  0
 75 80  1  0  0  0
 75146  1  0  0  0
 75147  1  0  0  0
 76 80  1  0  0  0
 76148  1  0  0  0
 76149  1  0  0  0
 77 78  1  0  0  0
 77 81  1  0  0  0
 77150  1  0  0  0
 77151  1  0  0  0
 78 85  1  0  0  0
 78152  1  0  0  0
 78153  1  0  0  0
 79 81  1  0  0  0
 79 85  1  0  0  0
 79154  1  0  0  0
 79155  1  0  0  0
 80156  1  0  0  0
 81157  1  0  0  0
 82158  1  0  0  0
 82159  1  0  0  0
M  ISO  4   1 100  68 101  82 101  85 100
M  END
> <chiral flag>
0

> <version>
0

> <s_m_source_file>
/data/baiqing/PycharmProjects/Reinvent-master-3.2/result/LINK_invent/BTK/process_docking_weight1_custom_sum_contain_oxygen_bond_distance_aromatic_linkinvent_7_9_3/rearranged_h_0195.sdf

> <i_m_source_file_index>
37

> <r_mmod_Potential_Energy-OPLS-2005>
581.380065917969

> <r_mmod_Stretch_Energy-OPLS-2005>
344.607238769531

> <r_mmod_Bend_Energy-OPLS-2005>
348.813751220703

> <r_mmod_Torsional_Energy-OPLS-2005>
358.337493896484

> <r_mmod_Improper_Torsional_Energy-OPLS-2005>
12.2754182815552

> <r_mmod_Van_der_Waal_Energy-OPLS-2005>
124.150009155273

> <r_mmod_Electrostatic_Energy-OPLS-2005>
-655.62353515625

> <r_mmod_Solvation_Energy-OPLS-2005>
-233.773086547852

> <b_mmod_Minimization_Converged-OPLS-2005>
0

> <r_mmod_RMS_Derivative-OPLS-2005>
8.46297359466553

$$$$
38
                    3D
 Structure written by MMmdl.
158167  0  0  1  0            999 V2000
  -30.6883  -14.5962   20.4786 C   0  0  0  0  0  0
  -30.4166  -12.3648   19.4489 C   0  0  0  0  0  0
  -29.4955  -12.4843   18.2177 C   0  0  0  0  0  0
  -28.0194  -12.3371   18.6348 C   0  0  0  0  0  0
  -27.6441  -13.2203   19.8559 C   0  0  2  0  0  0
  -28.6933  -13.1191   20.9849 C   0  0  0  0  0  0
  -25.2528  -13.8172   20.5713 C   0  0  0  0  0  0
  -24.1801  -13.0433   20.9208 C   0  0  0  0  0  0
  -24.6379  -11.6906   20.8756 C   0  0  0  0  0  0
  -23.9055  -10.4287   21.0412 C   0  0  0  0  0  0
  -24.3611   -9.4203   21.9187 C   0  0  0  0  0  0
  -23.6290   -8.2237   22.0753 C   0  0  0  0  0  0
  -22.4273   -8.0276   21.3542 C   0  0  0  0  0  0
  -21.9906   -9.0248   20.4645 C   0  0  0  0  0  0
  -22.7231  -10.2129   20.3057 C   0  0  0  0  0  0
  -21.6851   -6.0732   22.5279 C   0  0  0  0  0  0
  -21.4011   -6.5637   23.8212 C   0  0  0  0  0  0
  -21.3660   -5.6790   24.9175 C   0  0  0  0  0  0
  -21.6046   -4.3053   24.7225 C   0  0  0  0  0  0
  -21.8819   -3.8145   23.4346 C   0  0  0  0  0  0
  -21.9192   -4.6961   22.3402 C   0  0  0  0  0  0
  -22.7825  -13.5227   21.1863 C   0  0  0  0  0  0
  -22.1661   -4.2147   21.0980 F   0  0  0  0  0  0
  -21.5632   -3.4538   25.7739 F   0  0  0  0  0  0
  -30.0058  -13.4148   20.3988 N   0  0  0  0  0  0
  -26.2950  -12.9358   20.3334 N   0  0  0  0  0  0
  -25.9309  -11.6512   20.5784 N   0  0  0  0  0  0
  -22.0465  -12.8219   22.0416 N   0  0  0  0  0  0
  -25.4250  -15.1891   20.4133 N   0  0  0  0  0  0
  -31.8839  -14.6656   20.1815 O   0  0  0  0  0  0
  -21.6638   -6.8873   21.4239 O   0  0  0  0  0  0
  -22.3519  -14.5536   20.6711 O   0  0  0  0  0  0
  -24.6221  -31.8628   23.2056 C   0  0  0  0  0  0
  -25.9086  -32.4795   23.8372 C   0  0  1  0  0  0
  -27.2211  -27.3583   20.1185 C   0  0  0  0  0  0
  -25.5917  -33.8596   24.2300 N   0  0  0  0  0  0
  -23.4140  -30.4867   21.5470 C   0  0  2  0  0  0
  -24.8612  -28.9473   20.1106 C   0  0  0  0  0  0
  -22.7453  -29.4637   22.4952 C   0  0  0  0  0  0
  -18.0281  -28.1381   22.8489 C   0  0  0  0  0  0
  -24.1488  -36.7302   23.2639 C   0  0  0  0  0  0
  -25.9510  -30.8065   21.3707 C   0  0  0  0  0  0
  -26.0274  -29.4367   20.7142 C   0  0  0  0  0  0
  -27.2144  -28.6530   20.7093 C   0  0  0  0  0  0
  -26.0415  -26.9146   19.4835 C   0  0  0  0  0  0
  -24.8676  -27.6898   19.4863 C   0  0  0  0  0  0
  -23.6267  -29.8219   20.1614 C   0  0  0  0  0  0
  -25.4112  -36.3096   24.0333 C   0  0  1  0  0  0
  -20.5878  -28.3680   23.1293 C   0  0  2  0  0  0
  -20.6771  -26.9408   22.5412 C   0  0  0  0  0  0
  -19.5747  -26.6384   21.5212 C   0  0  0  0  0  0
  -18.1926  -26.7926   22.1624 C   0  0  0  0  0  0
  -19.1532  -28.8848   23.2888 C   0  0  0  0  0  0
  -18.9458  -30.1452   23.8900 C   0  0  0  0  0  0
  -17.6459  -30.6585   24.0564 C   0  0  0  0  0  0
  -25.9045  -34.9461   23.5116 C   0  0  0  0  0  0
  -16.5349  -29.9085   23.6330 C   0  0  0  0  0  0
  -16.7268  -28.6502   23.0351 C   0  0  0  0  0  0
  -26.4488  -31.6591   25.0725 C   0  0  0  0  0  0
  -25.3736  -31.3714   26.1463 C   0  0  0  0  0  0
  -27.0326  -30.3021   24.6150 C   0  0  0  0  0  0
  -27.6053  -32.4320   25.7493 C   0  0  0  0  0  0
  -27.5581  -37.1805   24.8464 C   0  0  0  0  0  0
  -21.4171  -29.3039   22.3693 N   0  0  0  0  0  0
  -26.4293  -37.3785   23.9409 N   0  0  0  0  0  0
  -24.6809  -31.0675   22.0986 N   0  0  0  0  0  0
  -23.4193  -28.8174   23.3016 O   0  0  0  0  0  0
  -28.3276  -26.5138   20.1519 O   0  0  0  0  0  0
  -26.5610  -34.8922   22.4680 O   0  0  0  0  0  0
  -23.5395  -32.1407   23.7407 O   0  0  0  0  0  0
  -28.9288  -24.0063   20.2002 C   0  0  0  0  0  0
  -28.5105  -20.7283   19.0610 C   0  0  0  0  0  0
  -29.6538  -16.4405   19.3250 C   0  0  0  0  0  0
  -30.4588  -16.7773   21.5725 C   0  0  0  0  0  0
  -28.8029  -17.7418   19.4392 C   0  0  0  0  0  0
  -29.6553  -18.1263   21.6511 C   0  0  0  0  0  0
  -29.2216  -21.4750   20.1597 C   0  0  2  0  0  0
  -28.5902  -20.0578   20.4178 C   0  0  2  0  0  0
  -28.0868  -25.1998   20.7712 C   0  0  0  0  0  0
  -29.9659  -15.7610   20.6050 N   0  0  0  0  0  0
  -28.5668  -22.7331   20.5351 N   0  0  0  0  0  0
  -29.4055  -18.7750   20.3318 N   0  3  0  0  0  0
  -29.8960  -24.2309   19.4672 O   0  0  0  0  0  0
  -31.4618  -12.4548   19.1473 H   0  0  0  0  0  0
  -30.3215  -11.3800   19.9092 H   0  0  0  0  0  0
  -29.7517  -11.7228   17.4798 H   0  0  0  0  0  0
  -29.6489  -13.4470   17.7278 H   0  0  0  0  0  0
  -27.8526  -11.2865   18.8756 H   0  0  0  0  0  0
  -27.3641  -12.5606   17.7921 H   0  0  0  0  0  0
  -27.6442  -14.2479   19.4985 H   0  0  0  0  0  0
  -28.6944  -12.1220   21.4275 H   0  0  0  0  0  0
  -28.4580  -13.8157   21.7916 H   0  0  0  0  0  0
  -25.2754   -9.5682   22.4763 H   0  0  0  0  0  0
  -24.0002   -7.4626   22.7470 H   0  0  0  0  0  0
  -21.0839   -8.8763   19.8950 H   0  0  0  0  0  0
  -22.3688  -10.9668   19.6168 H   0  0  0  0  0  0
  -21.1999   -7.6144   23.9715 H   0  0  0  0  0  0
  -21.1484   -6.0520   25.9078 H   0  0  0  0  0  0
  -22.0599   -2.7608   23.2847 H   0  0  0  0  0  0
  -22.4076  -11.9879   22.4805 H   0  0  0  0  0  0
  -21.1081  -13.1243   22.2616 H   0  0  0  0  0  0
  -24.6605  -15.8463   20.5231 H   0  0  0  0  0  0
  -26.2817  -15.6221   20.0980 H   0  0  0  0  0  0
  -26.7155  -32.5481   23.1127 H   0  0  0  0  0  0
  -25.0073  -33.9747   25.0451 H   0  0  0  0  0  0
  -22.7061  -31.3060   21.4059 H   0  0  0  0  0  0
  -23.3749  -35.9637   23.3306 H   0  0  0  0  0  0
  -24.3582  -36.8915   22.2052 H   0  0  0  0  0  0
  -23.7241  -37.6508   23.6653 H   0  0  0  0  0  0
  -26.0763  -31.5714   20.6030 H   0  0  0  0  0  0
  -26.8339  -30.8561   21.9965 H   0  0  0  0  0  0
  -28.1104  -29.0212   21.1893 H   0  0  0  0  0  0
  -26.0197  -25.9513   18.9934 H   0  0  0  0  0  0
  -23.9749  -27.3112   19.0076 H   0  0  0  0  0  0
  -23.7409  -30.5985   19.4042 H   0  0  0  0  0  0
  -22.7481  -29.2476   19.8617 H   0  0  0  0  0  0
  -25.1291  -36.1955   25.0826 H   0  0  0  0  0  0
  -20.9970  -28.3251   24.1414 H   0  0  0  0  0  0
  -20.5675  -26.2289   23.3608 H   0  0  0  0  0  0
  -21.6640  -26.7444   22.1202 H   0  0  0  0  0  0
  -19.6909  -25.6297   21.1238 H   0  0  0  0  0  0
  -19.6685  -27.3199   20.6746 H   0  0  0  0  0  0
  -17.4196  -26.6676   21.4025 H   0  0  0  0  0  0
  -18.0326  -26.0066   22.9017 H   0  0  0  0  0  0
  -19.7934  -30.7268   24.2270 H   0  0  0  0  0  0
  -17.5013  -31.6266   24.5163 H   0  0  0  0  0  0
  -15.5351  -30.2988   23.7652 H   0  0  0  0  0  0
  -15.8668  -28.0824   22.7064 H   0  0  0  0  0  0
  -24.5910  -30.7063   25.7796 H   0  0  0  0  0  0
  -24.8932  -32.2874   26.4908 H   0  0  0  0  0  0
  -25.8077  -30.8881   27.0225 H   0  0  0  0  0  0
  -26.2888  -29.6773   24.1192 H   0  0  0  0  0  0
  -27.4057  -29.7273   25.4638 H   0  0  0  0  0  0
  -27.8743  -30.4321   23.9343 H   0  0  0  0  0  0
  -27.2668  -33.3615   26.2083 H   0  0  0  0  0  0
  -28.3858  -32.6886   25.0317 H   0  0  0  0  0  0
  -28.0728  -31.8437   26.5400 H   0  0  0  0  0  0
  -28.2598  -38.0103   24.7517 H   0  0  0  0  0  0
  -28.1078  -36.2635   24.6284 H   0  0  0  0  0  0
  -27.2300  -37.1446   25.8868 H   0  0  0  0  0  0
  -20.9341  -29.8768   21.6914 H   0  0  0  0  0  0
  -26.0179  -38.2862   24.1411 H   0  0  0  0  0  0
  -29.1443  -20.3887   18.2436 H   0  0  0  0  0  0
  -27.5307  -21.0868   18.7495 H   0  0  0  0  0  0
  -30.5897  -16.6802   18.8149 H   0  0  0  0  0  0
  -29.1363  -15.7482   18.6600 H   0  0  0  0  0  0
  -30.4794  -16.3279   22.5669 H   0  0  0  0  0  0
  -31.4986  -17.0132   21.3363 H   0  0  0  0  0  0
  -27.8060  -17.4943   19.8066 H   0  0  0  0  0  0
  -28.6600  -18.1449   18.4372 H   0  0  0  0  0  0
  -30.1813  -18.8293   22.2979 H   0  0  0  0  0  0
  -28.6942  -17.9368   22.1316 H   0  0  0  0  0  0
  -30.3096  -21.5046   20.1115 H   0  0  0  0  0  0
  -27.6664  -19.9592   20.9856 H   0  0  0  0  0  0
  -28.3292  -25.2923   21.8303 H   0  0  0  0  0  0
  -27.0383  -24.9043   20.7383 H   0  0  0  0  0  0
  -27.7654  -22.6552   21.1480 H   0  0  0  0  0  0
  -30.3053  -19.0186   19.9456 H   0  0  0  0  0  0
  1 25  1  0  0  0
  1 30  2  0  0  0
  1 80  1  0  0  0
  2  3  1  0  0  0
  2 25  1  0  0  0
  2 84  1  0  0  0
  2 85  1  0  0  0
  3  4  1  0  0  0
  3 86  1  0  0  0
  3 87  1  0  0  0
  4  5  1  0  0  0
  4 88  1  0  0  0
  4 89  1  0  0  0
  5  6  1  0  0  0
  5 26  1  0  0  0
  5 90  1  0  0  0
  6 25  1  0  0  0
  6 91  1  0  0  0
  6 92  1  0  0  0
  7  8  2  0  0  0
  7 26  1  0  0  0
  7 29  1  0  0  0
  8  9  1  0  0  0
  8 22  1  0  0  0
  9 10  1  0  0  0
  9 27  2  0  0  0
 10 11  2  0  0  0
 10 15  1  0  0  0
 11 12  1  0  0  0
 11 93  1  0  0  0
 12 13  2  0  0  0
 12 94  1  0  0  0
 13 14  1  0  0  0
 13 31  1  0  0  0
 14 15  2  0  0  0
 14 95  1  0  0  0
 15 96  1  0  0  0
 16 17  2  0  0  0
 16 21  1  0  0  0
 16 31  1  0  0  0
 17 18  1  0  0  0
 17 97  1  0  0  0
 18 19  2  0  0  0
 18 98  1  0  0  0
 19 20  1  0  0  0
 19 24  1  0  0  0
 20 21  2  0  0  0
 20 99  1  0  0  0
 21 23  1  0  0  0
 22 28  1  0  0  0
 22 32  2  0  0  0
 26 27  1  0  0  0
 28100  1  0  0  0
 28101  1  0  0  0
 29102  1  0  0  0
 29103  1  0  0  0
 33 34  1  0  0  0
 33 66  1  0  0  0
 33 70  2  0  0  0
 34 36  1  0  0  0
 34 59  1  0  0  0
 34104  1  0  0  0
 35 44  2  0  0  0
 35 45  1  0  0  0
 35 68  1  0  0  0
 36 56  1  0  0  0
 36105  1  0  0  0
 37 39  1  0  0  0
 37 47  1  0  0  0
 37 66  1  0  0  0
 37106  1  0  0  0
 38 43  2  0  0  0
 38 46  1  0  0  0
 38 47  1  0  0  0
 39 64  1  0  0  0
 39 67  2  0  0  0
 40 52  1  0  0  0
 40 53  2  0  0  0
 40 58  1  0  0  0
 41107  1  0  0  0
 41108  1  0  0  0
 41109  1  0  0  0
 41 48  1  0  0  0
 42 43  1  0  0  0
 42 66  1  0  0  0
 42110  1  0  0  0
 42111  1  0  0  0
 43 44  1  0  0  0
 44112  1  0  0  0
 45 46  2  0  0  0
 45113  1  0  0  0
 46114  1  0  0  0
 47115  1  0  0  0
 47116  1  0  0  0
 48 56  1  0  0  0
 48 65  1  0  0  0
 48117  1  0  0  0
 49 50  1  0  0  0
 49 53  1  0  0  0
 49 64  1  0  0  0
 49118  1  0  0  0
 50 51  1  0  0  0
 50119  1  0  0  0
 50120  1  0  0  0
 51 52  1  0  0  0
 51121  1  0  0  0
 51122  1  0  0  0
 52123  1  0  0  0
 52124  1  0  0  0
 53 54  1  0  0  0
 54 55  2  0  0  0
 54125  1  0  0  0
 55 57  1  0  0  0
 55126  1  0  0  0
 56 69  2  0  0  0
 57 58  2  0  0  0
 57127  1  0  0  0
 58128  1  0  0  0
 59 60  1  0  0  0
 59 61  1  0  0  0
 59 62  1  0  0  0
 60129  1  0  0  0
 60130  1  0  0  0
 60131  1  0  0  0
 61132  1  0  0  0
 61133  1  0  0  0
 61134  1  0  0  0
 62135  1  0  0  0
 62136  1  0  0  0
 62137  1  0  0  0
 63 65  1  0  0  0
 63138  1  0  0  0
 63139  1  0  0  0
 63140  1  0  0  0
 64141  1  0  0  0
 65142  1  0  0  0
 68 79  1  0  0  0
 71 79  1  0  0  0
 71 81  1  0  0  0
 71 83  2  0  0  0
 72 77  1  0  0  0
 72143  1  0  0  0
 72144  1  0  0  0
 72 78  1  0  0  0
 73 75  1  0  0  0
 73 80  1  0  0  0
 73145  1  0  0  0
 73146  1  0  0  0
 74 76  1  0  0  0
 74 80  1  0  0  0
 74147  1  0  0  0
 74148  1  0  0  0
 75149  1  0  0  0
 75150  1  0  0  0
 75 82  1  0  0  0
 76 82  1  0  0  0
 76151  1  0  0  0
 76152  1  0  0  0
 77 78  1  0  0  0
 77 81  1  0  0  0
 77153  1  0  0  0
 78 82  1  0  0  0
 78154  1  0  0  0
 79155  1  0  0  0
 79156  1  0  0  0
 81157  1  0  0  0
 82158  1  0  0  0
M  CHG  1  82   1
M  ISO  4   1 100  68 101  79 101  80 100
M  END
> <chiral flag>
0

> <version>
0

> <s_m_source_file>
/data/baiqing/PycharmProjects/Reinvent-master-3.2/result/LINK_invent/BTK/process_docking_weight1_custom_sum_contain_oxygen_bond_distance_aromatic_linkinvent_7_9_3/rearranged_h_0195.sdf

> <i_m_source_file_index>
38

> <r_mmod_Potential_Energy-OPLS-2005>
151.133819580078

> <r_mmod_Stretch_Energy-OPLS-2005>
66.3637237548828

> <r_mmod_Bend_Energy-OPLS-2005>
139.134902954102

> <r_mmod_Torsional_Energy-OPLS-2005>
469.524291992188

> <r_mmod_Improper_Torsional_Energy-OPLS-2005>
11.7320384979248

> <r_mmod_Van_der_Waal_Energy-OPLS-2005>
128.873428344727

> <r_mmod_Electrostatic_Energy-OPLS-2005>
-203.161392211914

> <r_mmod_Solvation_Energy-OPLS-2005>
-502.662292480469

> <b_mmod_Minimization_Converged-OPLS-2005>
0

> <r_mmod_RMS_Derivative-OPLS-2005>
0.245891660451889

$$$$
39
                    3D
 Structure written by MMmdl.
157167  0  0  1  0            999 V2000
  -27.9303  -17.0135   21.0632 C   0  0  0  0  0  0
  -29.6213  -14.5428   19.8965 C   0  0  0  0  0  0
  -29.4046  -13.3702   18.7521 C   0  0  0  0  0  0
  -28.2274  -12.4480   19.0515 C   0  0  0  0  0  0
  -27.3590  -13.3542   19.9065 C   0  0  2  0  0  0
  -27.9694  -14.0338   21.1639 C   0  0  0  0  0  0
  -25.0772  -13.8020   20.5427 C   0  0  0  0  0  0
  -24.0613  -13.0076   20.9320 C   0  0  0  0  0  0
  -24.5594  -11.6668   20.8837 C   0  0  0  0  0  0
  -23.8619  -10.4054   21.0510 C   0  0  0  0  0  0
  -24.3377   -9.4055   21.9241 C   0  0  0  0  0  0
  -23.6158   -8.2051   22.0760 C   0  0  0  0  0  0
  -22.4147   -8.0078   21.3535 C   0  0  0  0  0  0
  -21.9681   -8.9982   20.4630 C   0  0  0  0  0  0
  -22.6890  -10.1889   20.3073 C   0  0  0  0  0  0
  -21.6789   -6.0627   22.5299 C   0  0  0  0  0  0
  -21.3965   -6.5577   23.8216 C   0  0  0  0  0  0
  -21.3646   -5.6755   24.9194 C   0  0  0  0  0  0
  -21.6049   -4.3017   24.7260 C   0  0  0  0  0  0
  -21.8828   -3.8083   23.4392 C   0  0  0  0  0  0
  -21.9176   -4.6875   22.3435 C   0  0  0  0  0  0
  -22.6809  -13.4880   21.2113 C   0  0  0  0  0  0
  -22.1657   -4.2070   21.1011 F   0  0  0  0  0  0
  -21.5641   -3.4516   25.7781 F   0  0  0  0  0  0
  -28.3637  -15.4029   20.6876 N   0  0  0  0  0  0
  -26.0978  -12.9238   20.2821 N   0  0  0  0  0  0
  -25.8399  -11.6358   20.5544 N   0  0  0  0  0  0
  -21.9643  -12.7913   22.0795 N   0  0  0  0  0  0
  -25.2158  -15.1836   20.3741 N   0  0  0  0  0  0
  -29.2457  -17.1136   20.8549 O   0  0  0  0  0  0
  -21.6544   -6.8694   21.4234 O   0  0  0  0  0  0
  -22.2604  -14.5254   20.6987 O   0  0  0  0  0  0
  -24.7046  -31.9740   23.2854 C   0  0  0  0  0  0
  -25.9845  -32.5317   23.9259 C   0  0  1  0  0  0
  -26.2404  -27.3146   20.1282 C   0  0  0  0  0  0
  -25.6618  -33.9070   24.3005 N   0  0  0  0  0  0
  -23.6053  -30.6839   21.5785 C   0  0  2  0  0  0
  -25.1160  -29.6032   19.7459 C   0  0  0  0  0  0
  -23.3031  -29.4274   22.5056 C   0  0  0  0  0  0
  -18.6254  -26.2984   22.3806 C   0  0  0  0  0  0
  -24.1534  -36.7410   23.2551 C   0  0  0  0  0  0
  -26.1454  -30.8127   21.6051 C   0  0  0  0  0  0
  -26.0794  -29.5805   20.7294 C   0  0  0  0  0  0
  -26.8353  -28.4053   20.8394 C   0  0  0  0  0  0
  -26.0520  -27.5306   18.8069 C   0  0  0  0  0  0
  -25.2359  -28.6735   18.6591 C   0  0  0  0  0  0
  -24.0426  -30.6280   20.0417 C   0  0  0  0  0  0
  -25.4134  -36.3326   24.0340 C   0  0  1  0  0  0
  -22.2488  -27.2502   23.0026 C   0  0  2  0  0  0
  -22.7329  -25.5148   21.7712 C   0  0  0  0  0  0
  -20.9045  -24.2416   20.8431 C   0  0  0  0  0  0
  -18.9483  -24.8364   21.4069 C   0  0  0  0  0  0
  -20.6553  -27.5985   23.4375 C   0  0  0  0  0  0
  -20.0311  -29.1503   24.1719 C   0  0  0  0  0  0
  -18.3828  -29.6161   24.1464 C   0  0  0  0  0  0
  -25.9171  -34.9703   23.5308 C   0  0  0  0  0  0
  -17.0908  -28.7835   23.4827 C   0  0  0  0  0  0
  -17.1112  -27.2729   22.6627 C   0  0  0  0  0  0
  -26.4769  -31.6837   25.1564 C   0  0  0  0  0  0
  -25.3713  -31.3972   26.1959 C   0  0  0  0  0  0
  -27.0747  -30.3156   24.7474 C   0  0  0  0  0  0
  -27.6256  -32.4497   25.8425 C   0  0  0  0  0  0
  -27.5607  -37.1956   24.8469 C   0  0  0  0  0  0
  -22.2488  -28.6737   22.4464 N   0  0  0  0  0  0
  -26.4334  -37.3972   23.9396 N   0  0  0  0  0  0
  -24.8260  -31.2244   22.1790 N   0  0  0  0  0  0
  -24.0691  -29.0582   23.3803 O   0  0  0  0  0  0
  -24.8633  -27.0972   20.4759 O   0  0  0  0  0  0
  -26.5400  -34.8962   22.4675 O   0  0  0  0  0  0
  -23.6009  -32.2351   23.7912 O   0  0  0  0  0  0
  -19.8073  -25.5733   24.3202 C   0  0  0  0  0  0
  -20.7003  -26.3738   21.5026 C   0  0  0  0  0  0
  -18.7653  -27.1482   24.3520 C   0  0  0  0  0  0
  -20.9231  -24.9250   23.0590 C   0  0  0  0  0  0
  -20.1507  -27.7432   21.1015 C   0  0  0  0  0  0
  -22.4021  -28.7238   19.4161 C   0  0  0  0  0  0
  -24.0292  -22.2884   21.8977 C   0  0  0  0  0  0
  -23.1456  -21.2459   22.9408 C   0  0  0  0  0  0
  -21.3564  -27.9188   19.8204 C   0  0  1  0  0  0
  -24.7852  -20.2791   21.9270 C   0  0  0  0  0  0
  -23.1982  -27.4264   19.8034 C   0  0  1  0  0  0
  -19.0857  -28.4079   22.1954 N   0  3  0  0  0  0
  -22.4762  -23.0010   22.7172 N   0  0  0  0  0  0
  -26.3912  -18.3511   21.4805 N   0  0  0  0  0  0
  -30.1996  -15.3121   19.3833 H   0  0  0  0  0  0
  -30.3470  -14.1902   20.6343 H   0  0  0  0  0  0
  -30.3210  -12.7984   18.5994 H   0  0  0  0  0  0
  -29.2056  -13.8705   17.8029 H   0  0  0  0  0  0
  -28.5451  -11.5745   19.6218 H   0  0  0  0  0  0
  -27.7250  -12.1070   18.1454 H   0  0  0  0  0  0
  -27.1194  -14.1278   19.1709 H   0  0  0  0  0  0
  -28.7072  -13.4176   21.6859 H   0  0  0  0  0  0
  -27.2338  -14.2145   21.9495 H   0  0  0  0  0  0
  -25.2508   -9.5638   22.4809 H   0  0  0  0  0  0
  -23.9913   -7.4440   22.7452 H   0  0  0  0  0  0
  -21.0626   -8.8417   19.8931 H   0  0  0  0  0  0
  -22.3308  -10.9425   19.6197 H   0  0  0  0  0  0
  -21.1933   -7.6085   23.9692 H   0  0  0  0  0  0
  -21.1473   -6.0496   25.9093 H   0  0  0  0  0  0
  -22.0628   -2.7545   23.2913 H   0  0  0  0  0  0
  -22.3339  -11.9570   22.5106 H   0  0  0  0  0  0
  -21.0311  -13.0945   22.3190 H   0  0  0  0  0  0
  -24.3468  -15.7054   20.3267 H   0  0  0  0  0  0
  -25.8841  -15.4907   19.6796 H   0  0  0  0  0  0
  -26.8097  -32.5819   23.2168 H   0  0  0  0  0  0
  -25.1059  -34.0365   25.1330 H   0  0  0  0  0  0
  -22.7723  -31.3858   21.6530 H   0  0  0  0  0  0
  -23.3812  -35.9733   23.3270 H   0  0  0  0  0  0
  -24.3674  -36.8912   22.1960 H   0  0  0  0  0  0
  -23.7252  -37.6651   23.6442 H   0  0  0  0  0  0
  -26.5328  -31.6376   21.0042 H   0  0  0  0  0  0
  -26.9213  -30.6137   22.3227 H   0  0  0  0  0  0
  -27.5330  -28.2532   21.6505 H   0  0  0  0  0  0
  -25.9538  -26.7273   18.0894 H   0  0  0  0  0  0
  -24.6256  -28.7775   17.7734 H   0  0  0  0  0  0
  -24.5462  -31.5751   19.8353 H   0  0  0  0  0  0
  -23.3086  -30.8479   19.2688 H   0  0  0  0  0  0
  -25.1242  -36.2299   25.0825 H   0  0  0  0  0  0
  -22.7964  -27.1597   23.9422 H   0  0  0  0  0  0
  -23.3751  -25.0524   22.5141 H   0  0  0  0  0  0
  -23.5350  -25.4602   21.0572 H   0  0  0  0  0  0
  -20.9809  -23.1565   20.8964 H   0  0  0  0  0  0
  -20.9563  -24.3396   19.7542 H   0  0  0  0  0  0
  -18.3527  -24.9267   20.4975 H   0  0  0  0  0  0
  -18.4890  -24.0052   21.9435 H   0  0  0  0  0  0
  -20.7504  -29.8424   24.5902 H   0  0  0  0  0  0
  -18.1490  -30.5670   24.6071 H   0  0  0  0  0  0
  -16.1238  -29.2601   23.5679 H   0  0  0  0  0  0
  -16.1798  -26.8977   22.2622 H   0  0  0  0  0  0
  -24.6051  -30.7238   25.8092 H   0  0  0  0  0  0
  -24.8757  -32.3121   26.5210 H   0  0  0  0  0  0
  -25.7813  -30.9229   27.0883 H   0  0  0  0  0  0
  -26.3649  -29.6792   24.2236 H   0  0  0  0  0  0
  -27.3805  -29.7514   25.6294 H   0  0  0  0  0  0
  -27.9766  -30.4252   24.1441 H   0  0  0  0  0  0
  -27.2894  -33.3860   26.2885 H   0  0  0  0  0  0
  -28.4220  -32.6920   25.1375 H   0  0  0  0  0  0
  -28.0722  -31.8653   26.6479 H   0  0  0  0  0  0
  -28.2632  -38.0249   24.7541 H   0  0  0  0  0  0
  -28.1107  -36.2791   24.6284 H   0  0  0  0  0  0
  -27.2314  -37.1585   25.8868 H   0  0  0  0  0  0
  -21.4555  -28.9726   21.9029 H   0  0  0  0  0  0
  -26.0247  -38.3068   24.1365 H   0  0  0  0  0  0
  -19.7457  -24.9789   25.2190 H   0  0  0  0  0  0
  -21.1046  -26.1923   20.5528 H   0  0  0  0  0  0
  -18.1570  -27.4591   25.1937 H   0  0  0  0  0  0
  -22.0420  -29.5204   20.0462 H   0  0  0  0  0  0
  -22.4057  -28.9812   18.3579 H   0  0  0  0  0  0
  -23.9521  -22.5702   20.8461 H   0  0  0  0  0  0
  -24.8444  -22.9167   22.2666 H   0  0  0  0  0  0
  -23.3411  -21.1440   24.0111 H   0  0  0  0  0  0
  -22.2807  -20.5994   22.7771 H   0  0  0  0  0  0
  -20.7804  -27.6087   18.9467 H   0  0  0  0  0  0
  -24.1993  -19.9854   21.0561 H   0  0  0  0  0  0
  -23.3576  -27.5267   20.8310 H   0  0  0  0  0  0
  -18.6922  -29.3440   22.1020 H   0  0  0  0  0  0
  -25.6975  -17.6127   21.5097 H   0  0  0  0  0  0
  1 25  1  0  0  0
  1 30  2  0  0  0
  1 84  1  0  0  0
  2  3  1  0  0  0
  2 25  1  0  0  0
  2 85  1  0  0  0
  2 86  1  0  0  0
  3  4  1  0  0  0
  3 87  1  0  0  0
  3 88  1  0  0  0
  4  5  1  0  0  0
  4 89  1  0  0  0
  4 90  1  0  0  0
  5  6  1  0  0  0
  5 26  1  0  0  0
  5 91  1  0  0  0
  6 25  1  0  0  0
  6 92  1  0  0  0
  6 93  1  0  0  0
  7  8  2  0  0  0
  7 26  1  0  0  0
  7 29  1  0  0  0
  8  9  1  0  0  0
  8 22  1  0  0  0
  9 10  1  0  0  0
  9 27  2  0  0  0
 10 11  2  0  0  0
 10 15  1  0  0  0
 11 12  1  0  0  0
 11 94  1  0  0  0
 12 13  2  0  0  0
 12 95  1  0  0  0
 13 14  1  0  0  0
 13 31  1  0  0  0
 14 15  2  0  0  0
 14 96  1  0  0  0
 15 97  1  0  0  0
 16 17  2  0  0  0
 16 21  1  0  0  0
 16 31  1  0  0  0
 17 18  1  0  0  0
 17 98  1  0  0  0
 18 19  2  0  0  0
 18 99  1  0  0  0
 19 20  1  0  0  0
 19 24  1  0  0  0
 20 21  2  0  0  0
 20100  1  0  0  0
 21 23  1  0  0  0
 22 28  1  0  0  0
 22 32  2  0  0  0
 26 27  1  0  0  0
 28101  1  0  0  0
 28102  1  0  0  0
 29103  1  0  0  0
 29104  1  0  0  0
 33 34  1  0  0  0
 33 66  1  0  0  0
 33 70  2  0  0  0
 34 36  1  0  0  0
 34 59  1  0  0  0
 34105  1  0  0  0
 35 44  2  0  0  0
 35 45  1  0  0  0
 35 68  1  0  0  0
 36 56  1  0  0  0
 36106  1  0  0  0
 37 39  1  0  0  0
 37 47  1  0  0  0
 37 66  1  0  0  0
 37107  1  0  0  0
 38 43  2  0  0  0
 38 46  1  0  0  0
 38 47  1  0  0  0
 39 64  1  0  0  0
 39 67  2  0  0  0
 40 52  1  0  0  0
 40 53  2  0  0  0
 40 58  1  0  0  0
 41108  1  0  0  0
 41109  1  0  0  0
 41110  1  0  0  0
 41 48  1  0  0  0
 42 43  1  0  0  0
 42 66  1  0  0  0
 42111  1  0  0  0
 42112  1  0  0  0
 43 44  1  0  0  0
 44113  1  0  0  0
 45 46  2  0  0  0
 45114  1  0  0  0
 46115  1  0  0  0
 47116  1  0  0  0
 47117  1  0  0  0
 48 56  1  0  0  0
 48 65  1  0  0  0
 48118  1  0  0  0
 49 50  1  0  0  0
 49 53  1  0  0  0
 49 64  1  0  0  0
 49119  1  0  0  0
 50 51  1  0  0  0
 50120  1  0  0  0
 50121  1  0  0  0
 51 52  1  0  0  0
 51122  1  0  0  0
 51123  1  0  0  0
 52124  1  0  0  0
 52125  1  0  0  0
 53 54  1  0  0  0
 54 55  2  0  0  0
 54126  1  0  0  0
 55 57  1  0  0  0
 55127  1  0  0  0
 56 69  2  0  0  0
 57 58  2  0  0  0
 57128  1  0  0  0
 58129  1  0  0  0
 59 60  1  0  0  0
 59 61  1  0  0  0
 59 62  1  0  0  0
 60130  1  0  0  0
 60131  1  0  0  0
 60132  1  0  0  0
 61133  1  0  0  0
 61134  1  0  0  0
 61135  1  0  0  0
 62136  1  0  0  0
 62137  1  0  0  0
 62138  1  0  0  0
 63 65  1  0  0  0
 63139  1  0  0  0
 63140  1  0  0  0
 63141  1  0  0  0
 64142  1  0  0  0
 65143  1  0  0  0
 68 81  1  0  0  0
 71 73  2  0  0  0
 71 74  1  0  0  0
 71144  1  0  0  0
 72 74  2  0  0  0
 72 75  1  0  0  0
 72145  1  0  0  0
 73 82  1  0  0  0
 73146  1  0  0  0
 74 83  1  0  0  0
 75 82  2  0  0  0
 75 79  1  0  0  0
 76 79  1  0  0  0
 76 81  1  0  0  0
 76147  1  0  0  0
 76148  1  0  0  0
 77 80  1  0  0  0
 77 83  1  0  0  0
 77149  1  0  0  0
 77150  1  0  0  0
 78 80  1  0  0  0
 78 83  1  0  0  0
 78151  1  0  0  0
 78152  1  0  0  0
 79 81  1  0  0  0
 79153  1  0  0  0
 80 84  1  0  0  0
 80154  1  0  0  0
 81155  1  0  0  0
 82156  1  0  0  0
 84157  1  0  0  0
M  CHG  1  82   1
M  ISO  4   1 100  68 101  81 101  84 100
M  END
> <chiral flag>
0

> <version>
0

> <s_m_source_file>
/data/baiqing/PycharmProjects/Reinvent-master-3.2/result/LINK_invent/BTK/process_docking_weight1_custom_sum_contain_oxygen_bond_distance_aromatic_linkinvent_7_9_3/rearranged_h_0195.sdf

> <i_m_source_file_index>
39

> <r_mmod_Potential_Energy-OPLS-2005>
37563.9765625

> <r_mmod_Stretch_Energy-OPLS-2005>
18190.111328125

> <r_mmod_Bend_Energy-OPLS-2005>
3440.07153320312

> <r_mmod_Torsional_Energy-OPLS-2005>
543.04541015625

> <r_mmod_Improper_Torsional_Energy-OPLS-2005>
48.9236450195312

> <r_mmod_Van_der_Waal_Energy-OPLS-2005>
5521.8330078125

> <r_mmod_Electrostatic_Energy-OPLS-2005>
-347.227935791016

> <r_mmod_Solvation_Energy-OPLS-2005>
-408.603363037109

> <b_mmod_Minimization_Converged-OPLS-2005>
0

> <r_mmod_RMS_Derivative-OPLS-2005>
2.5752637386322

$$$$
40
                    3D
 Structure written by MMmdl.
164174  0  0  1  0            999 V2000
  -30.6212  -14.5786   20.5292 C   0  0  0  0  0  0
  -30.4433  -12.3669   19.4058 C   0  0  0  0  0  0
  -29.4989  -12.4967   18.1897 C   0  0  0  0  0  0
  -28.0197  -12.3340   18.6094 C   0  0  0  0  0  0
  -27.6485  -13.2007   19.8438 C   0  0  2  0  0  0
  -28.6956  -13.0201   20.9624 C   0  0  0  0  0  0
  -25.2544  -13.8149   20.5627 C   0  0  0  0  0  0
  -24.1814  -13.0433   20.9183 C   0  0  0  0  0  0
  -24.6350  -11.6905   20.8717 C   0  0  0  0  0  0
  -23.9027  -10.4296   21.0404 C   0  0  0  0  0  0
  -24.3593   -9.4218   21.9189 C   0  0  0  0  0  0
  -23.6270   -8.2246   22.0760 C   0  0  0  0  0  0
  -22.4255   -8.0297   21.3550 C   0  0  0  0  0  0
  -21.9875   -9.0262   20.4656 C   0  0  0  0  0  0
  -22.7197  -10.2140   20.3059 C   0  0  0  0  0  0
  -21.6843   -6.0746   22.5286 C   0  0  0  0  0  0
  -21.4026   -6.5648   23.8227 C   0  0  0  0  0  0
  -21.3659   -5.6796   24.9180 C   0  0  0  0  0  0
  -21.6024   -4.3053   24.7223 C   0  0  0  0  0  0
  -21.8822   -3.8158   23.4344 C   0  0  0  0  0  0
  -21.9196   -4.6973   22.3405 C   0  0  0  0  0  0
  -22.7825  -13.5248   21.1824 C   0  0  0  0  0  0
  -22.1658   -4.2169   21.0982 F   0  0  0  0  0  0
  -21.5615   -3.4534   25.7734 F   0  0  0  0  0  0
  -30.0091  -13.3658   20.3933 N   0  0  0  0  0  0
  -26.2947  -12.9295   20.3207 N   0  0  0  0  0  0
  -25.9265  -11.6469   20.5666 N   0  0  0  0  0  0
  -22.0423  -12.8305   22.0409 N   0  0  0  0  0  0
  -25.4224  -15.1868   20.4052 N   0  0  0  0  0  0
  -31.8052  -14.7668   20.2450 O   0  0  0  0  0  0
  -21.6631   -6.8884   21.4252 O   0  0  0  0  0  0
  -22.3537  -14.5552   20.6658 O   0  0  0  0  0  0
  -24.6231  -31.8611   23.2024 C   0  0  0  0  0  0
  -25.9124  -32.4751   23.8329 C   0  0  1  0  0  0
  -27.2456  -27.3693   20.1291 C   0  0  0  0  0  0
  -25.5968  -33.8553   24.2302 N   0  0  0  0  0  0
  -23.4148  -30.4781   21.5485 C   0  0  2  0  0  0
  -24.8609  -28.9234   20.1253 C   0  0  0  0  0  0
  -22.7430  -29.4658   22.5036 C   0  0  0  0  0  0
  -18.0273  -28.1350   22.8497 C   0  0  0  0  0  0
  -24.1491  -36.7259   23.2636 C   0  0  0  0  0  0
  -25.9474  -30.8047   21.3648 C   0  0  0  0  0  0
  -26.0248  -29.4336   20.7156 C   0  0  0  0  0  0
  -27.2212  -28.6701   20.7015 C   0  0  0  0  0  0
  -26.0649  -26.8828   19.5357 C   0  0  0  0  0  0
  -24.8796  -27.6497   19.5272 C   0  0  0  0  0  0
  -23.6220  -29.7943   20.1711 C   0  0  0  0  0  0
  -25.4117  -36.3057   24.0329 C   0  0  1  0  0  0
  -20.5868  -28.3664   23.1296 C   0  0  2  0  0  0
  -20.6763  -26.9398   22.5400 C   0  0  0  0  0  0
  -19.5755  -26.6375   21.5187 C   0  0  0  0  0  0
  -18.1929  -26.7902   22.1602 C   0  0  0  0  0  0
  -19.1521  -28.8822   23.2889 C   0  0  0  0  0  0
  -18.9451  -30.1427   23.8893 C   0  0  0  0  0  0
  -17.6456  -30.6567   24.0549 C   0  0  0  0  0  0
  -25.9066  -34.9428   23.5112 C   0  0  0  0  0  0
  -16.5351  -29.9058   23.6332 C   0  0  0  0  0  0
  -16.7263  -28.6471   23.0368 C   0  0  0  0  0  0
  -26.4524  -31.6539   25.0690 C   0  0  0  0  0  0
  -25.3768  -31.3630   26.1422 C   0  0  0  0  0  0
  -27.0406  -30.2978   24.6127 C   0  0  0  0  0  0
  -27.6088  -32.4271   25.7452 C   0  0  0  0  0  0
  -27.5579  -37.1771   24.8469 C   0  0  0  0  0  0
  -21.4164  -29.3027   22.3705 N   0  0  0  0  0  0
  -26.4297  -37.3742   23.9407 N   0  0  0  0  0  0
  -24.6801  -31.0650   22.0954 N   0  0  0  0  0  0
  -23.4153  -28.8244   23.3155 O   0  0  0  0  0  0
  -28.4071  -26.6120   20.0659 O   0  0  0  0  0  0
  -26.5610  -34.8903   22.4658 O   0  0  0  0  0  0
  -23.5422  -32.1417   23.7391 O   0  0  0  0  0  0
  -32.1145  -19.6501   21.4706 C   0  0  0  0  0  0
  -31.2573  -20.7447   21.2205 C   0  0  0  0  0  0
  -29.9371  -20.4084   20.8313 C   0  0  0  0  0  0
  -30.4379  -18.1437   21.1487 C   0  0  0  0  0  0
  -29.9254  -24.9614   20.7320 C   0  0  0  0  0  0
  -32.7422  -22.4422   20.3960 C   0  0  0  0  0  0
  -33.7275  -23.3082   21.1792 C   0  0  0  0  0  0
  -32.2617  -22.4873   22.6459 C   0  0  0  0  0  0
  -28.8655  -23.9831   20.2903 C   0  0  2  0  0  0
  -28.4816  -25.3914   20.8581 C   0  0  1  0  0  0
  -29.9500  -16.7726   21.6744 C   0  0  0  0  0  0
  -28.7095  -22.6611   21.1061 C   0  0  0  0  0  0
  -31.7150  -18.3714   21.4130 N   0  0  0  0  0  0
  -29.5437  -19.1017   20.8171 N   0  0  0  0  0  0
  -31.7212  -22.0666   21.3648 N   0  0  0  0  0  0
  -28.9827  -21.3748   20.4018 N   0  0  0  0  0  0
  -29.7690  -15.5940   20.8031 N   0  0  0  0  0  0
  -33.6102  -22.7617   22.4827 O   0  0  0  0  0  0
  -31.4813  -12.5168   19.1025 H   0  0  0  0  0  0
  -30.4002  -11.3630   19.8306 H   0  0  0  0  0  0
  -29.7528  -11.7587   17.4265 H   0  0  0  0  0  0
  -29.6365  -13.4735   17.7233 H   0  0  0  0  0  0
  -27.8460  -11.2785   18.8259 H   0  0  0  0  0  0
  -27.3663  -12.5782   17.7713 H   0  0  0  0  0  0
  -27.6755  -14.2379   19.5077 H   0  0  0  0  0  0
  -28.6955  -11.9866   21.3110 H   0  0  0  0  0  0
  -28.4542  -13.6274   21.8363 H   0  0  0  0  0  0
  -25.2738   -9.5708   22.4756 H   0  0  0  0  0  0
  -23.9996   -7.4638   22.7468 H   0  0  0  0  0  0
  -21.0811   -8.8788   19.8948 H   0  0  0  0  0  0
  -22.3673  -10.9683   19.6170 H   0  0  0  0  0  0
  -21.2047   -7.6159   23.9749 H   0  0  0  0  0  0
  -21.1448   -6.0511   25.9088 H   0  0  0  0  0  0
  -22.0596   -2.7617   23.2838 H   0  0  0  0  0  0
  -22.4000  -12.0021   22.4933 H   0  0  0  0  0  0
  -21.1016  -13.1367   22.2488 H   0  0  0  0  0  0
  -24.6393  -15.8237   20.5053 H   0  0  0  0  0  0
  -26.2528  -15.6398   20.0489 H   0  0  0  0  0  0
  -26.7198  -32.5425   23.1078 H   0  0  0  0  0  0
  -25.0151  -33.9662   25.0481 H   0  0  0  0  0  0
  -22.7106  -31.2982   21.4024 H   0  0  0  0  0  0
  -23.3753  -35.9593   23.3309 H   0  0  0  0  0  0
  -24.3591  -36.8865   22.2052 H   0  0  0  0  0  0
  -23.7250  -37.6462   23.6655 H   0  0  0  0  0  0
  -26.0789  -31.5699   20.5986 H   0  0  0  0  0  0
  -26.8273  -30.8443   21.9948 H   0  0  0  0  0  0
  -28.1235  -29.0752   21.1341 H   0  0  0  0  0  0
  -26.0655  -25.9065   19.0745 H   0  0  0  0  0  0
  -23.9889  -27.2439   19.0693 H   0  0  0  0  0  0
  -23.7198  -30.5602   19.4011 H   0  0  0  0  0  0
  -22.7443  -29.2076   19.8913 H   0  0  0  0  0  0
  -25.1284  -36.1894   25.0814 H   0  0  0  0  0  0
  -20.9928  -28.3214   24.1430 H   0  0  0  0  0  0
  -20.5629  -26.2268   23.3581 H   0  0  0  0  0  0
  -21.6636  -26.7421   22.1213 H   0  0  0  0  0  0
  -19.6922  -25.6288   21.1205 H   0  0  0  0  0  0
  -19.6687  -27.3183   20.6713 H   0  0  0  0  0  0
  -17.4189  -26.6649   21.4006 H   0  0  0  0  0  0
  -18.0353  -26.0020   22.8975 H   0  0  0  0  0  0
  -19.7941  -30.7231   24.2249 H   0  0  0  0  0  0
  -17.5027  -31.6257   24.5124 H   0  0  0  0  0  0
  -15.5352  -30.2945   23.7667 H   0  0  0  0  0  0
  -15.8676  -28.0767   22.7106 H   0  0  0  0  0  0
  -24.5949  -30.6980   25.7730 H   0  0  0  0  0  0
  -24.8967  -32.2775   26.4898 H   0  0  0  0  0  0
  -25.8097  -30.8763   27.0173 H   0  0  0  0  0  0
  -26.2978  -29.6632   24.1282 H   0  0  0  0  0  0
  -27.4287  -29.7290   25.4590 H   0  0  0  0  0  0
  -27.8741  -30.4284   23.9220 H   0  0  0  0  0  0
  -27.2715  -33.3575   26.2018 H   0  0  0  0  0  0
  -28.3887  -32.6799   25.0260 H   0  0  0  0  0  0
  -28.0776  -31.8405   26.5360 H   0  0  0  0  0  0
  -28.2583  -38.0078   24.7515 H   0  0  0  0  0  0
  -28.1078  -36.2601   24.6282 H   0  0  0  0  0  0
  -27.2297  -37.1420   25.8873 H   0  0  0  0  0  0
  -20.9342  -29.8670   21.6852 H   0  0  0  0  0  0
  -26.0167  -38.2806   24.1403 H   0  0  0  0  0  0
  -33.1443  -19.8008   21.7612 H   0  0  0  0  0  0
  -30.5391  -25.3977   19.9445 H   0  0  0  0  0  0
  -30.4556  -24.7651   21.6601 H   0  0  0  0  0  0
  -33.2634  -21.5739   19.9867 H   0  0  0  0  0  0
  -32.3137  -22.9970   19.5596 H   0  0  0  0  0  0
  -33.4188  -24.3547   21.1841 H   0  0  0  0  0  0
  -34.7466  -23.2430   20.7949 H   0  0  0  0  0  0
  -32.1144  -21.7160   23.4075 H   0  0  0  0  0  0
  -31.7393  -23.3931   22.9645 H   0  0  0  0  0  0
  -28.6729  -23.8775   19.2238 H   0  0  0  0  0  0
  -28.0845  -25.4859   21.8694 H   0  0  0  0  0  0
  -28.9856  -16.9488   22.1496 H   0  0  0  0  0  0
  -30.6096  -16.4741   22.4921 H   0  0  0  0  0  0
  -27.6658  -22.6260   21.4258 H   0  0  0  0  0  0
  -29.2876  -22.7265   22.0291 H   0  0  0  0  0  0
  -28.1448  -20.9295   20.0481 H   0  0  0  0  0  0
  -28.8034  -15.3237   20.7274 H   0  0  0  0  0  0
  1 25  1  0  0  0
  1 30  2  0  0  0
  1 87  1  0  0  0
  2  3  1  0  0  0
  2 25  1  0  0  0
  2 89  1  0  0  0
  2 90  1  0  0  0
  3  4  1  0  0  0
  3 91  1  0  0  0
  3 92  1  0  0  0
  4  5  1  0  0  0
  4 93  1  0  0  0
  4 94  1  0  0  0
  5  6  1  0  0  0
  5 26  1  0  0  0
  5 95  1  0  0  0
  6 25  1  0  0  0
  6 96  1  0  0  0
  6 97  1  0  0  0
  7  8  2  0  0  0
  7 26  1  0  0  0
  7 29  1  0  0  0
  8  9  1  0  0  0
  8 22  1  0  0  0
  9 10  1  0  0  0
  9 27  2  0  0  0
 10 11  2  0  0  0
 10 15  1  0  0  0
 11 12  1  0  0  0
 11 98  1  0  0  0
 12 13  2  0  0  0
 12 99  1  0  0  0
 13 14  1  0  0  0
 13 31  1  0  0  0
 14 15  2  0  0  0
 14100  1  0  0  0
 15101  1  0  0  0
 16 17  2  0  0  0
 16 21  1  0  0  0
 16 31  1  0  0  0
 17 18  1  0  0  0
 17102  1  0  0  0
 18 19  2  0  0  0
 18103  1  0  0  0
 19 20  1  0  0  0
 19 24  1  0  0  0
 20 21  2  0  0  0
 20104  1  0  0  0
 21 23  1  0  0  0
 22 28  1  0  0  0
 22 32  2  0  0  0
 26 27  1  0  0  0
 28105  1  0  0  0
 28106  1  0  0  0
 29107  1  0  0  0
 29108  1  0  0  0
 33 34  1  0  0  0
 33 66  1  0  0  0
 33 70  2  0  0  0
 34 36  1  0  0  0
 34 59  1  0  0  0
 34109  1  0  0  0
 35 44  2  0  0  0
 35 45  1  0  0  0
 35 68  1  0  0  0
 36 56  1  0  0  0
 36110  1  0  0  0
 37 39  1  0  0  0
 37 47  1  0  0  0
 37 66  1  0  0  0
 37111  1  0  0  0
 38 43  2  0  0  0
 38 46  1  0  0  0
 38 47  1  0  0  0
 39 64  1  0  0  0
 39 67  2  0  0  0
 40 52  1  0  0  0
 40 53  2  0  0  0
 40 58  1  0  0  0
 41112  1  0  0  0
 41113  1  0  0  0
 41114  1  0  0  0
 41 48  1  0  0  0
 42 43  1  0  0  0
 42 66  1  0  0  0
 42115  1  0  0  0
 42116  1  0  0  0
 43 44  1  0  0  0
 44117  1  0  0  0
 45 46  2  0  0  0
 45118  1  0  0  0
 46119  1  0  0  0
 47120  1  0  0  0
 47121  1  0  0  0
 48 56  1  0  0  0
 48 65  1  0  0  0
 48122  1  0  0  0
 49 50  1  0  0  0
 49 53  1  0  0  0
 49 64  1  0  0  0
 49123  1  0  0  0
 50 51  1  0  0  0
 50124  1  0  0  0
 50125  1  0  0  0
 51 52  1  0  0  0
 51126  1  0  0  0
 51127  1  0  0  0
 52128  1  0  0  0
 52129  1  0  0  0
 53 54  1  0  0  0
 54 55  2  0  0  0
 54130  1  0  0  0
 55 57  1  0  0  0
 55131  1  0  0  0
 56 69  2  0  0  0
 57 58  2  0  0  0
 57132  1  0  0  0
 58133  1  0  0  0
 59 60  1  0  0  0
 59 61  1  0  0  0
 59 62  1  0  0  0
 60134  1  0  0  0
 60135  1  0  0  0
 60136  1  0  0  0
 61137  1  0  0  0
 61138  1  0  0  0
 61139  1  0  0  0
 62140  1  0  0  0
 62141  1  0  0  0
 62142  1  0  0  0
 63 65  1  0  0  0
 63143  1  0  0  0
 63144  1  0  0  0
 63145  1  0  0  0
 64146  1  0  0  0
 65147  1  0  0  0
 68 80  1  0  0  0
 71 72  2  0  0  0
 71 83  1  0  0  0
 71148  1  0  0  0
 72 73  1  0  0  0
 72 85  1  0  0  0
 73 84  2  0  0  0
 73 86  1  0  0  0
 74 81  1  0  0  0
 74 83  2  0  0  0
 74 84  1  0  0  0
 75 79  1  0  0  0
 75 80  1  0  0  0
 75149  1  0  0  0
 75150  1  0  0  0
 76 77  1  0  0  0
 76 85  1  0  0  0
 76151  1  0  0  0
 76152  1  0  0  0
 77 88  1  0  0  0
 77153  1  0  0  0
 77154  1  0  0  0
 78 85  1  0  0  0
 78 88  1  0  0  0
 78155  1  0  0  0
 78156  1  0  0  0
 79 80  1  0  0  0
 79 82  1  0  0  0
 79157  1  0  0  0
 80158  1  0  0  0
 81 87  1  0  0  0
 81159  1  0  0  0
 81160  1  0  0  0
 82 86  1  0  0  0
 82161  1  0  0  0
 82162  1  0  0  0
 86163  1  0  0  0
 87164  1  0  0  0
M  ISO  4   1 100  68 101  80 101  87 100
M  END
> <chiral flag>
0

> <version>
0

> <s_m_source_file>
/data/baiqing/PycharmProjects/Reinvent-master-3.2/result/LINK_invent/BTK/process_docking_weight1_custom_sum_contain_oxygen_bond_distance_aromatic_linkinvent_7_9_3/rearranged_h_0195.sdf

> <i_m_source_file_index>
40

> <r_mmod_Potential_Energy-OPLS-2005>
-372.861145019531

> <r_mmod_Stretch_Energy-OPLS-2005>
55.446044921875

> <r_mmod_Bend_Energy-OPLS-2005>
174.146438598633

> <r_mmod_Torsional_Energy-OPLS-2005>
347.923095703125

> <r_mmod_Improper_Torsional_Energy-OPLS-2005>
19.2750568389893

> <r_mmod_Van_der_Waal_Energy-OPLS-2005>
141.754302978516

> <r_mmod_Electrostatic_Energy-OPLS-2005>
-878.921508789062

> <r_mmod_Solvation_Energy-OPLS-2005>
-264.630828857422

> <b_mmod_Minimization_Converged-OPLS-2005>
0

> <r_mmod_RMS_Derivative-OPLS-2005>
4.15824413299561

$$$$
41
                    3D
 Structure written by MMmdl.
166175  0  0  1  0            999 V2000
  -30.7363  -14.5429   20.5582 C   0  0  0  0  0  0
  -30.4143  -12.3521   19.4436 C   0  0  0  0  0  0
  -29.4929  -12.4914   18.2155 C   0  0  0  0  0  0
  -28.0212  -12.3107   18.6318 C   0  0  0  0  0  0
  -27.6462  -13.1876   19.8512 C   0  0  2  0  0  0
  -28.6957  -13.0643   20.9874 C   0  0  0  0  0  0
  -25.2546  -13.8080   20.5629 C   0  0  0  0  0  0
  -24.1812  -13.0397   20.9216 C   0  0  0  0  0  0
  -24.6352  -11.6862   20.8779 C   0  0  0  0  0  0
  -23.9016  -10.4267   21.0439 C   0  0  0  0  0  0
  -24.3581   -9.4191   21.9209 C   0  0  0  0  0  0
  -23.6272   -8.2219   22.0759 C   0  0  0  0  0  0
  -22.4259   -8.0256   21.3542 C   0  0  0  0  0  0
  -21.9886   -9.0234   20.4653 C   0  0  0  0  0  0
  -22.7200  -10.2119   20.3081 C   0  0  0  0  0  0
  -21.6837   -6.0720   22.5277 C   0  0  0  0  0  0
  -21.4001   -6.5628   23.8209 C   0  0  0  0  0  0
  -21.3660   -5.6783   24.9172 C   0  0  0  0  0  0
  -21.6054   -4.3047   24.7224 C   0  0  0  0  0  0
  -21.8818   -3.8136   23.4343 C   0  0  0  0  0  0
  -21.9188   -4.6950   22.3397 C   0  0  0  0  0  0
  -22.7850  -13.5237   21.1866 C   0  0  0  0  0  0
  -22.1664   -4.2138   21.0974 F   0  0  0  0  0  0
  -21.5634   -3.4535   25.7739 F   0  0  0  0  0  0
  -30.0145  -13.3846   20.4230 N   0  0  0  0  0  0
  -26.2934  -12.9210   20.3251 N   0  0  0  0  0  0
  -25.9257  -11.6405   20.5769 N   0  0  0  0  0  0
  -22.0466  -12.8253   22.0416 N   0  0  0  0  0  0
  -25.4222  -15.1785   20.3890 N   0  0  0  0  0  0
  -31.8899  -14.6086   20.1253 O   0  0  0  0  0  0
  -21.6625   -6.8859   21.4239 O   0  0  0  0  0  0
  -22.3583  -14.5561   20.6709 O   0  0  0  0  0  0
  -24.6178  -31.8683   23.2108 C   0  0  0  0  0  0
  -25.9065  -32.4827   23.8403 C   0  0  1  0  0  0
  -27.2264  -27.4102   20.1022 C   0  0  0  0  0  0
  -25.5919  -33.8624   24.2336 N   0  0  0  0  0  0
  -23.4056  -30.4962   21.5513 C   0  0  2  0  0  0
  -24.8512  -28.9674   20.1113 C   0  0  0  0  0  0
  -22.7425  -29.4674   22.4963 C   0  0  0  0  0  0
  -18.0277  -28.1389   22.8484 C   0  0  0  0  0  0
  -24.1487  -36.7314   23.2634 C   0  0  0  0  0  0
  -25.9387  -30.8299   21.3660 C   0  0  0  0  0  0
  -26.0156  -29.4644   20.7094 C   0  0  0  0  0  0
  -27.2068  -28.6965   20.6993 C   0  0  0  0  0  0
  -26.0408  -26.9492   19.4770 C   0  0  0  0  0  0
  -24.8606  -27.7107   19.4894 C   0  0  0  0  0  0
  -23.6152  -29.8365   20.1639 C   0  0  0  0  0  0
  -25.4105  -36.3110   24.0338 C   0  0  1  0  0  0
  -20.5872  -28.3682   23.1307 C   0  0  2  0  0  0
  -20.6771  -26.9417   22.5416 C   0  0  0  0  0  0
  -19.5753  -26.6394   21.5210 C   0  0  0  0  0  0
  -18.1927  -26.7933   22.1616 C   0  0  0  0  0  0
  -19.1528  -28.8848   23.2894 C   0  0  0  0  0  0
  -18.9454  -30.1452   23.8911 C   0  0  0  0  0  0
  -17.6458  -30.6588   24.0569 C   0  0  0  0  0  0
  -25.9037  -34.9477   23.5129 C   0  0  0  0  0  0
  -16.5348  -29.9094   23.6330 C   0  0  0  0  0  0
  -16.7264  -28.6516   23.0340 C   0  0  0  0  0  0
  -26.4484  -31.6598   25.0729 C   0  0  0  0  0  0
  -25.3750  -31.3721   26.1480 C   0  0  0  0  0  0
  -27.0303  -30.3035   24.6106 C   0  0  0  0  0  0
  -27.6075  -32.4304   25.7478 C   0  0  0  0  0  0
  -27.5581  -37.1805   24.8462 C   0  0  0  0  0  0
  -21.4150  -29.3050   22.3707 N   0  0  0  0  0  0
  -26.4291  -37.3795   23.9413 N   0  0  0  0  0  0
  -24.6727  -31.0782   22.1012 N   0  0  0  0  0  0
  -23.4199  -28.8200   23.2987 O   0  0  0  0  0  0
  -28.3652  -26.6161   20.1611 O   0  0  0  0  0  0
  -26.5590  -34.8927   22.4685 O   0  0  0  0  0  0
  -23.5369  -32.1431   23.7503 O   0  0  0  0  0  0
  -30.2721  -21.0374   22.0028 C   0  0  0  0  0  0
  -28.6308  -20.7732   20.2226 C   0  0  0  0  0  0
  -28.9388  -16.2388   20.5800 C   0  0  0  0  0  0
  -31.0976  -16.6129   21.8116 C   0  0  0  0  0  0
  -29.6405  -22.3924   22.4288 C   0  0  0  0  0  0
  -27.9207  -22.0937   20.6081 C   0  0  0  0  0  0
  -28.5603  -17.7030   20.9246 C   0  0  0  0  0  0
  -30.5493  -18.0102   22.2057 C   0  0  0  0  0  0
  -29.2156  -20.0417   21.4572 C   0  0  1  0  0  0
  -29.2565  -24.2756   20.7442 C   0  0  0  0  0  0
  -28.1141  -25.1884   20.2052 C   0  0  0  0  0  0
  -30.1756  -15.6545   21.1449 N   0  0  0  0  0  0
  -29.6958  -18.6313   21.1595 N   0  3  0  0  0  0
  -28.7342  -23.0417   21.4303 N   0  3  2  0  0  0
  -31.4595  -12.4316   19.1384 H   0  0  0  0  0  0
  -30.3153  -11.3585   19.8844 H   0  0  0  0  0  0
  -29.7604  -11.7552   17.4565 H   0  0  0  0  0  0
  -29.6309  -13.4714   17.7560 H   0  0  0  0  0  0
  -27.8683  -11.2579   18.8728 H   0  0  0  0  0  0
  -27.3606  -12.5289   17.7920 H   0  0  0  0  0  0
  -27.6482  -14.1978   19.4560 H   0  0  0  0  0  0
  -28.7031  -12.0504   21.3885 H   0  0  0  0  0  0
  -28.4518  -13.7035   21.8361 H   0  0  0  0  0  0
  -25.2716   -9.5686   22.4789 H   0  0  0  0  0  0
  -23.9985   -7.4607   22.7464 H   0  0  0  0  0  0
  -21.0819   -8.8748   19.8959 H   0  0  0  0  0  0
  -22.3644  -10.9665   19.6205 H   0  0  0  0  0  0
  -21.1988   -7.6136   23.9708 H   0  0  0  0  0  0
  -21.1492   -6.0514   25.9078 H   0  0  0  0  0  0
  -22.0602   -2.7600   23.2833 H   0  0  0  0  0  0
  -22.4042  -11.9900   22.4810 H   0  0  0  0  0  0
  -21.1099  -13.1338   22.2619 H   0  0  0  0  0  0
  -24.6269  -15.8055   20.4405 H   0  0  0  0  0  0
  -26.2103  -15.5811   19.9015 H   0  0  0  0  0  0
  -26.7134  -32.5538   23.1165 H   0  0  0  0  0  0
  -25.0086  -33.9785   25.0494 H   0  0  0  0  0  0
  -22.6946  -31.3143   21.4156 H   0  0  0  0  0  0
  -23.3747  -35.9651   23.3307 H   0  0  0  0  0  0
  -24.3582  -36.8913   22.2046 H   0  0  0  0  0  0
  -23.7246  -37.6526   23.6638 H   0  0  0  0  0  0
  -26.0519  -31.5961   20.5983 H   0  0  0  0  0  0
  -26.8268  -30.8826   21.9839 H   0  0  0  0  0  0
  -28.1001  -29.0746   21.1770 H   0  0  0  0  0  0
  -25.9957  -25.9941   18.9759 H   0  0  0  0  0  0
  -23.9675  -27.3255   19.0173 H   0  0  0  0  0  0
  -23.7278  -30.6155   19.4086 H   0  0  0  0  0  0
  -22.7375  -29.2613   19.8637 H   0  0  0  0  0  0
  -25.1279  -36.1970   25.0830 H   0  0  0  0  0  0
  -20.9965  -28.3255   24.1427 H   0  0  0  0  0  0
  -20.5676  -26.2295   23.3609 H   0  0  0  0  0  0
  -21.6644  -26.7456   22.1215 H   0  0  0  0  0  0
  -19.6920  -25.6304   21.1246 H   0  0  0  0  0  0
  -19.6703  -27.3203   20.6740 H   0  0  0  0  0  0
  -17.4205  -26.6682   21.4011 H   0  0  0  0  0  0
  -18.0323  -26.0074   22.9011 H   0  0  0  0  0  0
  -19.7929  -30.7260   24.2289 H   0  0  0  0  0  0
  -17.5015  -31.6269   24.5175 H   0  0  0  0  0  0
  -15.5350  -30.3004   23.7646 H   0  0  0  0  0  0
  -15.8664  -28.0849   22.7035 H   0  0  0  0  0  0
  -24.5915  -30.7074   25.7820 H   0  0  0  0  0  0
  -24.8955  -32.2890   26.4923 H   0  0  0  0  0  0
  -25.8105  -30.8894   27.0239 H   0  0  0  0  0  0
  -26.2838  -29.6796   24.1178 H   0  0  0  0  0  0
  -27.4078  -29.7270   25.4561 H   0  0  0  0  0  0
  -27.8676  -30.4334   23.9246 H   0  0  0  0  0  0
  -27.2712  -33.3595   26.2088 H   0  0  0  0  0  0
  -28.3868  -32.6873   25.0290 H   0  0  0  0  0  0
  -28.0766  -31.8405   26.5362 H   0  0  0  0  0  0
  -28.2606  -38.0095   24.7506 H   0  0  0  0  0  0
  -28.1066  -36.2629   24.6282 H   0  0  0  0  0  0
  -27.2306  -37.1453   25.8867 H   0  0  0  0  0  0
  -20.9307  -29.8788   21.6945 H   0  0  0  0  0  0
  -26.0180  -38.2874   24.1416 H   0  0  0  0  0  0
  -30.7668  -20.6397   22.8875 H   0  0  0  0  0  0
  -31.0548  -21.2078   21.2624 H   0  0  0  0  0  0
  -29.4191  -20.9791   19.4964 H   0  0  0  0  0  0
  -27.9005  -20.1610   19.6977 H   0  0  0  0  0  0
  -28.9773  -16.1445   19.4923 H   0  0  0  0  0  0
  -28.0908  -15.6580   20.9253 H   0  0  0  0  0  0
  -31.5094  -16.1324   22.7008 H   0  0  0  0  0  0
  -31.9548  -16.8012   21.1624 H   0  0  0  0  0  0
  -30.4204  -23.0821   22.7531 H   0  0  0  0  0  0
  -29.0343  -22.2123   23.3180 H   0  0  0  0  0  0
  -27.0365  -21.8439   21.1956 H   0  0  0  0  0  0
  -27.5391  -22.5760   19.7087 H   0  0  0  0  0  0
  -27.9426  -17.6910   21.8248 H   0  0  0  0  0  0
  -27.9051  -18.0694   20.1362 H   0  0  0  0  0  0
  -31.4120  -18.6375   22.4248 H   0  0  0  0  0  0
  -29.9802  -17.9344   23.1333 H   0  0  0  0  0  0
  -28.4349  -19.9495   22.2157 H   0  0  0  0  0  0
  -29.8239  -24.8585   21.4706 H   0  0  0  0  0  0
  -29.9531  -24.0100   19.9481 H   0  0  0  0  0  0
  -27.2443  -25.0265   20.8460 H   0  0  0  0  0  0
  -27.8430  -24.8438   19.2072 H   0  0  0  0  0  0
  -30.2501  -18.6704   20.3166 H   0  0  0  0  0  0
  -28.0369  -23.4509   22.0393 H   0  0  0  0  0  0
  1 25  1  0  0  0
  1 30  2  0  0  0
  1 82  1  0  0  0
  2  3  1  0  0  0
  2 25  1  0  0  0
  2 85  1  0  0  0
  2 86  1  0  0  0
  3  4  1  0  0  0
  3 87  1  0  0  0
  3 88  1  0  0  0
  4  5  1  0  0  0
  4 89  1  0  0  0
  4 90  1  0  0  0
  5  6  1  0  0  0
  5 26  1  0  0  0
  5 91  1  0  0  0
  6 25  1  0  0  0
  6 92  1  0  0  0
  6 93  1  0  0  0
  7  8  2  0  0  0
  7 26  1  0  0  0
  7 29  1  0  0  0
  8  9  1  0  0  0
  8 22  1  0  0  0
  9 10  1  0  0  0
  9 27  2  0  0  0
 10 11  2  0  0  0
 10 15  1  0  0  0
 11 12  1  0  0  0
 11 94  1  0  0  0
 12 13  2  0  0  0
 12 95  1  0  0  0
 13 14  1  0  0  0
 13 31  1  0  0  0
 14 15  2  0  0  0
 14 96  1  0  0  0
 15 97  1  0  0  0
 16 17  2  0  0  0
 16 21  1  0  0  0
 16 31  1  0  0  0
 17 18  1  0  0  0
 17 98  1  0  0  0
 18 19  2  0  0  0
 18 99  1  0  0  0
 19 20  1  0  0  0
 19 24  1  0  0  0
 20 21  2  0  0  0
 20100  1  0  0  0
 21 23  1  0  0  0
 22 28  1  0  0  0
 22 32  2  0  0  0
 26 27  1  0  0  0
 28101  1  0  0  0
 28102  1  0  0  0
 29103  1  0  0  0
 29104  1  0  0  0
 33 34  1  0  0  0
 33 66  1  0  0  0
 33 70  2  0  0  0
 34 36  1  0  0  0
 34 59  1  0  0  0
 34105  1  0  0  0
 35 44  2  0  0  0
 35 45  1  0  0  0
 35 68  1  0  0  0
 36 56  1  0  0  0
 36106  1  0  0  0
 37 39  1  0  0  0
 37 47  1  0  0  0
 37 66  1  0  0  0
 37107  1  0  0  0
 38 43  2  0  0  0
 38 46  1  0  0  0
 38 47  1  0  0  0
 39 64  1  0  0  0
 39 67  2  0  0  0
 40 52  1  0  0  0
 40 53  2  0  0  0
 40 58  1  0  0  0
 41108  1  0  0  0
 41109  1  0  0  0
 41110  1  0  0  0
 41 48  1  0  0  0
 42 43  1  0  0  0
 42 66  1  0  0  0
 42111  1  0  0  0
 42112  1  0  0  0
 43 44  1  0  0  0
 44113  1  0  0  0
 45 46  2  0  0  0
 45114  1  0  0  0
 46115  1  0  0  0
 47116  1  0  0  0
 47117  1  0  0  0
 48 56  1  0  0  0
 48 65  1  0  0  0
 48118  1  0  0  0
 49 50  1  0  0  0
 49 53  1  0  0  0
 49 64  1  0  0  0
 49119  1  0  0  0
 50 51  1  0  0  0
 50120  1  0  0  0
 50121  1  0  0  0
 51 52  1  0  0  0
 51122  1  0  0  0
 51123  1  0  0  0
 52124  1  0  0  0
 52125  1  0  0  0
 53 54  1  0  0  0
 54 55  2  0  0  0
 54126  1  0  0  0
 55 57  1  0  0  0
 55127  1  0  0  0
 56 69  2  0  0  0
 57 58  2  0  0  0
 57128  1  0  0  0
 58129  1  0  0  0
 59 60  1  0  0  0
 59 61  1  0  0  0
 59 62  1  0  0  0
 60130  1  0  0  0
 60131  1  0  0  0
 60132  1  0  0  0
 61133  1  0  0  0
 61134  1  0  0  0
 61135  1  0  0  0
 62136  1  0  0  0
 62137  1  0  0  0
 62138  1  0  0  0
 63 65  1  0  0  0
 63139  1  0  0  0
 63140  1  0  0  0
 63141  1  0  0  0
 64142  1  0  0  0
 65143  1  0  0  0
 68 81  1  0  0  0
 71 75  1  0  0  0
 71144  1  0  0  0
 71145  1  0  0  0
 71 79  1  0  0  0
 72 76  1  0  0  0
 72 79  1  0  0  0
 72146  1  0  0  0
 72147  1  0  0  0
 73 77  1  0  0  0
 73 82  1  0  0  0
 73148  1  0  0  0
 73149  1  0  0  0
 74 78  1  0  0  0
 74 82  1  0  0  0
 74150  1  0  0  0
 74151  1  0  0  0
 75 84  1  0  0  0
 75152  1  0  0  0
 75153  1  0  0  0
 76 84  1  0  0  0
 76154  1  0  0  0
 76155  1  0  0  0
 77156  1  0  0  0
 77157  1  0  0  0
 77 83  1  0  0  0
 78 83  1  0  0  0
 78158  1  0  0  0
 78159  1  0  0  0
 79 83  1  0  0  0
 79160  1  0  0  0
 80 81  1  0  0  0
 80161  1  0  0  0
 80162  1  0  0  0
 80 84  1  0  0  0
 81163  1  0  0  0
 81164  1  0  0  0
 83165  1  0  0  0
 84166  1  0  0  0
M  CHG  2  83   1  84   1
M  ISO  4   1 100  68 101  81 101  82 100
M  END
> <chiral flag>
0

> <version>
0

> <s_m_source_file>
/data/baiqing/PycharmProjects/Reinvent-master-3.2/result/LINK_invent/BTK/process_docking_weight1_custom_sum_contain_oxygen_bond_distance_aromatic_linkinvent_7_9_3/rearranged_h_0195.sdf

> <i_m_source_file_index>
41

> <r_mmod_Potential_Energy-OPLS-2005>
69.4196929931641

> <r_mmod_Stretch_Energy-OPLS-2005>
53.9074668884277

> <r_mmod_Bend_Energy-OPLS-2005>
156.72412109375

> <r_mmod_Torsional_Energy-OPLS-2005>
426.476226806641

> <r_mmod_Improper_Torsional_Energy-OPLS-2005>
4.96797800064087

> <r_mmod_Van_der_Waal_Energy-OPLS-2005>
162.412750244141

> <r_mmod_Electrostatic_Energy-OPLS-2005>
173.940734863281

> <r_mmod_Solvation_Energy-OPLS-2005>
-935.176147460938

> <b_mmod_Minimization_Converged-OPLS-2005>
0

> <r_mmod_RMS_Derivative-OPLS-2005>
1.3780460357666

$$$$
42
                    3D
 Structure written by MMmdl.
184193  0  0  1  0            999 V2000
  -30.6990  -14.5237   20.4890 C   0  0  0  0  0  0
  -30.4121  -12.3201   19.4359 C   0  0  0  0  0  0
  -29.4885  -12.4736   18.2117 C   0  0  0  0  0  0
  -28.0094  -12.3381   18.6257 C   0  0  0  0  0  0
  -27.6383  -13.1961   19.8663 C   0  0  2  0  0  0
  -28.6933  -13.0690   20.9883 C   0  0  0  0  0  0
  -25.2510  -13.8075   20.5747 C   0  0  0  0  0  0
  -24.1773  -13.0376   20.9239 C   0  0  0  0  0  0
  -24.6332  -11.6849   20.8791 C   0  0  0  0  0  0
  -23.9008  -10.4258   21.0403 C   0  0  0  0  0  0
  -24.3584   -9.4198   21.9177 C   0  0  0  0  0  0
  -23.6291   -8.2225   22.0737 C   0  0  0  0  0  0
  -22.4280   -8.0245   21.3525 C   0  0  0  0  0  0
  -21.9893   -9.0212   20.4631 C   0  0  0  0  0  0
  -22.7192  -10.2107   20.3048 C   0  0  0  0  0  0
  -21.6853   -6.0710   22.5276 C   0  0  0  0  0  0
  -21.4004   -6.5620   23.8208 C   0  0  0  0  0  0
  -21.3679   -5.6779   24.9180 C   0  0  0  0  0  0
  -21.6056   -4.3042   24.7219 C   0  0  0  0  0  0
  -21.8826   -3.8127   23.4343 C   0  0  0  0  0  0
  -21.9196   -4.6940   22.3401 C   0  0  0  0  0  0
  -22.7809  -13.5206   21.1868 C   0  0  0  0  0  0
  -22.1662   -4.2140   21.0974 F   0  0  0  0  0  0
  -21.5646   -3.4524   25.7722 F   0  0  0  0  0  0
  -30.0151  -13.3482   20.4083 N   0  0  0  0  0  0
  -26.2906  -12.9209   20.3412 N   0  0  0  0  0  0
  -25.9256  -11.6394   20.5842 N   0  0  0  0  0  0
  -22.0431  -12.8229   22.0425 N   0  0  0  0  0  0
  -25.4195  -15.1792   20.4147 N   0  0  0  0  0  0
  -31.8935  -14.6155   20.1878 O   0  0  0  0  0  0
  -21.6646   -6.8846   21.4234 O   0  0  0  0  0  0
  -22.3527  -14.5514   20.6690 O   0  0  0  0  0  0
  -24.6125  -31.8707   23.2114 C   0  0  0  0  0  0
  -25.9008  -32.4847   23.8420 C   0  0  1  0  0  0
  -27.2395  -27.4359   20.1039 C   0  0  0  0  0  0
  -25.5895  -33.8640   24.2347 N   0  0  0  0  0  0
  -23.4027  -30.4913   21.5535 C   0  0  2  0  0  0
  -24.8537  -28.9560   20.1226 C   0  0  0  0  0  0
  -22.7404  -29.4641   22.5001 C   0  0  0  0  0  0
  -18.0262  -28.1366   22.8484 C   0  0  0  0  0  0
  -24.1489  -36.7320   23.2635 C   0  0  0  0  0  0
  -25.9322  -30.8321   21.3686 C   0  0  0  0  0  0
  -26.0135  -29.4626   20.7265 C   0  0  0  0  0  0
  -27.2136  -28.7114   20.7220 C   0  0  0  0  0  0
  -26.0676  -26.9520   19.4906 C   0  0  0  0  0  0
  -24.8733  -27.6957   19.5022 C   0  0  0  0  0  0
  -23.6150  -29.8236   20.1693 C   0  0  0  0  0  0
  -25.4111  -36.3128   24.0344 C   0  0  1  0  0  0
  -20.5862  -28.3637   23.1329 C   0  0  2  0  0  0
  -20.6745  -26.9377   22.5417 C   0  0  0  0  0  0
  -19.5728  -26.6371   21.5203 C   0  0  0  0  0  0
  -18.1917  -26.7917   22.1617 C   0  0  0  0  0  0
  -19.1520  -28.8816   23.2900 C   0  0  0  0  0  0
  -18.9447  -30.1432   23.8897 C   0  0  0  0  0  0
  -17.6453  -30.6571   24.0567 C   0  0  0  0  0  0
  -25.9035  -34.9490   23.5136 C   0  0  0  0  0  0
  -16.5334  -29.9074   23.6334 C   0  0  0  0  0  0
  -16.7260  -28.6492   23.0347 C   0  0  0  0  0  0
  -26.4451  -31.6602   25.0720 C   0  0  0  0  0  0
  -25.3732  -31.3701   26.1472 C   0  0  0  0  0  0
  -27.0258  -30.3048   24.6059 C   0  0  0  0  0  0
  -27.6037  -32.4303   25.7488 C   0  0  0  0  0  0
  -27.5594  -37.1823   24.8470 C   0  0  0  0  0  0
  -21.4137  -29.3005   22.3736 N   0  0  0  0  0  0
  -26.4303  -37.3807   23.9414 N   0  0  0  0  0  0
  -24.6668  -31.0786   22.1034 N   0  0  0  0  0  0
  -23.4177  -28.8185   23.3043 O   0  0  0  0  0  0
  -28.3588  -26.6397   19.9691 O   0  0  0  0  0  0
  -26.5587  -34.8945   22.4698 O   0  0  0  0  0  0
  -23.5319  -32.1454   23.7510 O   0  0  0  0  0  0
  -29.7725  -20.5842   17.6603 C   0  0  0  0  0  0
  -29.9823  -21.8314   18.2702 C   0  0  0  0  0  0
  -29.8775  -21.8448   19.6875 C   0  0  0  0  0  0
  -29.3487  -19.5910   19.6676 C   0  0  0  0  0  0
  -29.5872  -18.0067   21.6211 C   0  0  0  0  0  0
  -28.3799  -17.2892   19.6506 C   0  0  0  0  0  0
  -30.5114  -16.7530   21.4801 C   0  0  0  0  0  0
  -29.4528  -16.2233   19.3803 C   0  0  0  0  0  0
  -28.2194  -27.2458   15.8386 C   0  0  0  0  0  0
  -29.9448  -27.9104   17.5477 C   0  0  0  0  0  0
  -30.4335  -23.0105   17.3861 C   0  0  0  0  0  0
  -30.1678  -23.0870   20.5548 C   0  0  0  0  0  0
  -30.3782  -25.8799   16.0869 C   0  0  0  0  0  0
  -29.8891  -24.5415   15.4788 C   0  0  0  0  0  0
  -29.1105  -25.1016   21.6967 C   0  0  0  0  0  0
  -29.2949  -26.4900   21.0333 C   0  0  0  0  0  0
  -29.3023  -26.7289   16.7996 C   0  0  0  0  0  0
  -29.4494  -19.4871   18.3556 N   0  0  0  0  0  0
  -29.5398  -20.7112   20.3635 N   0  0  0  0  0  0
  -28.9932  -18.4180   20.3472 N   0  0  0  0  0  0
  -29.9604  -15.6557   20.6426 N   0  0  0  0  0  0
  -29.3933  -23.5524   16.4690 N   0  3  0  0  0  0
  -28.9788  -23.9586   20.7390 N   0  3  0  0  0  0
  -31.4570  -12.4118   19.1323 H   0  0  0  0  0  0
  -30.3089  -11.3252   19.8725 H   0  0  0  0  0  0
  -29.7364  -11.7185   17.4660 H   0  0  0  0  0  0
  -29.6582  -13.4382   17.7310 H   0  0  0  0  0  0
  -27.8296  -11.2845   18.8426 H   0  0  0  0  0  0
  -27.3601  -12.5837   17.7849 H   0  0  0  0  0  0
  -27.6149  -14.2256   19.5370 H   0  0  0  0  0  0
  -28.6814  -12.0690   21.4209 H   0  0  0  0  0  0
  -28.4677  -13.7566   21.8052 H   0  0  0  0  0  0
  -25.2719   -9.5703   22.4764 H   0  0  0  0  0  0
  -24.0012   -7.4621   22.7450 H   0  0  0  0  0  0
  -21.0820   -8.8715   19.8944 H   0  0  0  0  0  0
  -22.3623  -10.9644   19.6170 H   0  0  0  0  0  0
  -21.1973   -7.6128   23.9709 H   0  0  0  0  0  0
  -21.1507   -6.0504   25.9089 H   0  0  0  0  0  0
  -22.0591   -2.7588   23.2840 H   0  0  0  0  0  0
  -22.4026  -11.9922   22.4875 H   0  0  0  0  0  0
  -21.1033  -13.1242   22.2556 H   0  0  0  0  0  0
  -24.6539  -15.8325   20.5394 H   0  0  0  0  0  0
  -26.2758  -15.6199   20.1105 H   0  0  0  0  0  0
  -26.7079  -32.5586   23.1187 H   0  0  0  0  0  0
  -25.0060  -33.9816   25.0503 H   0  0  0  0  0  0
  -22.6901  -31.3072   21.4150 H   0  0  0  0  0  0
  -23.3762  -35.9645   23.3307 H   0  0  0  0  0  0
  -24.3564  -36.8913   22.2043 H   0  0  0  0  0  0
  -23.7230  -37.6530   23.6628 H   0  0  0  0  0  0
  -26.0413  -31.5898   20.5921 H   0  0  0  0  0  0
  -26.8214  -30.8934   21.9837 H   0  0  0  0  0  0
  -28.1087  -29.1271   21.1628 H   0  0  0  0  0  0
  -26.0808  -25.9925   18.9942 H   0  0  0  0  0  0
  -23.9866  -27.3028   19.0223 H   0  0  0  0  0  0
  -23.7252  -30.5985   19.4104 H   0  0  0  0  0  0
  -22.7399  -29.2436   19.8731 H   0  0  0  0  0  0
  -25.1292  -36.2002   25.0838 H   0  0  0  0  0  0
  -20.9959  -28.3182   24.1451 H   0  0  0  0  0  0
  -20.5632  -26.2246   23.3600 H   0  0  0  0  0  0
  -21.6623  -26.7407   22.1225 H   0  0  0  0  0  0
  -19.6887  -25.6282   21.1228 H   0  0  0  0  0  0
  -19.6679  -27.3182   20.6741 H   0  0  0  0  0  0
  -17.4197  -26.6671   21.4015 H   0  0  0  0  0  0
  -18.0313  -26.0046   22.8996 H   0  0  0  0  0  0
  -19.7920  -30.7257   24.2268 H   0  0  0  0  0  0
  -17.4996  -31.6268   24.5155 H   0  0  0  0  0  0
  -15.5335  -30.2983   23.7641 H   0  0  0  0  0  0
  -15.8652  -28.0816   22.7048 H   0  0  0  0  0  0
  -24.5909  -30.7034   25.7819 H   0  0  0  0  0  0
  -24.8915  -32.2853   26.4939 H   0  0  0  0  0  0
  -25.8100  -30.8871   27.0219 H   0  0  0  0  0  0
  -26.2781  -29.6837   24.1104 H   0  0  0  0  0  0
  -27.4025  -29.7244   25.4492 H   0  0  0  0  0  0
  -27.8629  -30.4368   23.9194 H   0  0  0  0  0  0
  -27.2670  -33.3605   26.2081 H   0  0  0  0  0  0
  -28.3855  -32.6850   25.0317 H   0  0  0  0  0  0
  -28.0685  -31.8400   26.5398 H   0  0  0  0  0  0
  -28.2631  -38.0104   24.7522 H   0  0  0  0  0  0
  -28.1084  -36.2645   24.6309 H   0  0  0  0  0  0
  -27.2306  -37.1479   25.8869 H   0  0  0  0  0  0
  -20.9294  -29.8750   21.6979 H   0  0  0  0  0  0
  -26.0207  -38.2896   24.1401 H   0  0  0  0  0  0
  -29.8696  -20.4565   16.5914 H   0  0  0  0  0  0
  -30.1463  -18.8279   22.0720 H   0  0  0  0  0  0
  -28.7756  -17.7835   22.3156 H   0  0  0  0  0  0
  -27.5770  -16.8857   20.2698 H   0  0  0  0  0  0
  -27.9052  -17.5994   18.7173 H   0  0  0  0  0  0
  -30.7416  -16.3698   22.4760 H   0  0  0  0  0  0
  -31.4641  -17.0721   21.0530 H   0  0  0  0  0  0
  -30.2813  -16.6541   18.8149 H   0  0  0  0  0  0
  -29.0467  -15.4605   18.7211 H   0  0  0  0  0  0
  -27.4767  -27.8413   16.3715 H   0  0  0  0  0  0
  -27.6826  -26.4340   15.3491 H   0  0  0  0  0  0
  -28.6507  -27.8765   15.0598 H   0  0  0  0  0  0
  -29.2004  -28.4750   18.1106 H   0  0  0  0  0  0
  -30.4279  -28.6034   16.8586 H   0  0  0  0  0  0
  -30.6986  -27.5742   18.2600 H   0  0  0  0  0  0
  -31.2709  -22.6568   16.7808 H   0  0  0  0  0  0
  -30.8351  -23.8199   17.9895 H   0  0  0  0  0  0
  -31.0012  -23.6552   20.1462 H   0  0  0  0  0  0
  -30.5087  -22.7483   21.5333 H   0  0  0  0  0  0
  -30.8201  -26.4802   15.2899 H   0  0  0  0  0  0
  -31.2031  -25.6836   16.7710 H   0  0  0  0  0  0
  -30.7036  -24.0877   14.9127 H   0  0  0  0  0  0
  -29.1035  -24.7310   14.7482 H   0  0  0  0  0  0
  -28.1980  -25.1392   22.2930 H   0  0  0  0  0  0
  -29.9242  -24.9219   22.4009 H   0  0  0  0  0  0
  -30.2948  -26.5723   20.6061 H   0  0  0  0  0  0
  -29.2178  -27.2775   21.7807 H   0  0  0  0  0  0
  -28.8128  -26.1042   17.5449 H   0  0  0  0  0  0
  -28.6219  -23.9571   16.9722 H   0  0  0  0  0  0
  -29.0126  -22.7994   15.9181 H   0  0  0  0  0  0
  -28.2654  -23.3414   21.0961 H   0  0  0  0  0  0
  -28.6462  -24.3023   19.8559 H   0  0  0  0  0  0
  1 25  1  0  0  0
  1 30  2  0  0  0
  1 91  1  0  0  0
  2  3  1  0  0  0
  2 25  1  0  0  0
  2 94  1  0  0  0
  2 95  1  0  0  0
  3  4  1  0  0  0
  3 96  1  0  0  0
  3 97  1  0  0  0
  4  5  1  0  0  0
  4 98  1  0  0  0
  4 99  1  0  0  0
  5  6  1  0  0  0
  5 26  1  0  0  0
  5100  1  0  0  0
  6 25  1  0  0  0
  6101  1  0  0  0
  6102  1  0  0  0
  7  8  2  0  0  0
  7 26  1  0  0  0
  7 29  1  0  0  0
  8  9  1  0  0  0
  8 22  1  0  0  0
  9 10  1  0  0  0
  9 27  2  0  0  0
 10 11  2  0  0  0
 10 15  1  0  0  0
 11 12  1  0  0  0
 11103  1  0  0  0
 12 13  2  0  0  0
 12104  1  0  0  0
 13 14  1  0  0  0
 13 31  1  0  0  0
 14 15  2  0  0  0
 14105  1  0  0  0
 15106  1  0  0  0
 16 17  2  0  0  0
 16 21  1  0  0  0
 16 31  1  0  0  0
 17 18  1  0  0  0
 17107  1  0  0  0
 18 19  2  0  0  0
 18108  1  0  0  0
 19 20  1  0  0  0
 19 24  1  0  0  0
 20 21  2  0  0  0
 20109  1  0  0  0
 21 23  1  0  0  0
 22 28  1  0  0  0
 22 32  2  0  0  0
 26 27  1  0  0  0
 28110  1  0  0  0
 28111  1  0  0  0
 29112  1  0  0  0
 29113  1  0  0  0
 33 34  1  0  0  0
 33 66  1  0  0  0
 33 70  2  0  0  0
 34 36  1  0  0  0
 34 59  1  0  0  0
 34114  1  0  0  0
 35 44  2  0  0  0
 35 45  1  0  0  0
 35 68  1  0  0  0
 36 56  1  0  0  0
 36115  1  0  0  0
 37 39  1  0  0  0
 37 47  1  0  0  0
 37 66  1  0  0  0
 37116  1  0  0  0
 38 43  2  0  0  0
 38 46  1  0  0  0
 38 47  1  0  0  0
 39 64  1  0  0  0
 39 67  2  0  0  0
 40 52  1  0  0  0
 40 53  2  0  0  0
 40 58  1  0  0  0
 41117  1  0  0  0
 41118  1  0  0  0
 41119  1  0  0  0
 41 48  1  0  0  0
 42 43  1  0  0  0
 42 66  1  0  0  0
 42120  1  0  0  0
 42121  1  0  0  0
 43 44  1  0  0  0
 44122  1  0  0  0
 45 46  2  0  0  0
 45123  1  0  0  0
 46124  1  0  0  0
 47125  1  0  0  0
 47126  1  0  0  0
 48 56  1  0  0  0
 48 65  1  0  0  0
 48127  1  0  0  0
 49 50  1  0  0  0
 49 53  1  0  0  0
 49 64  1  0  0  0
 49128  1  0  0  0
 50 51  1  0  0  0
 50129  1  0  0  0
 50130  1  0  0  0
 51 52  1  0  0  0
 51131  1  0  0  0
 51132  1  0  0  0
 52133  1  0  0  0
 52134  1  0  0  0
 53 54  1  0  0  0
 54 55  2  0  0  0
 54135  1  0  0  0
 55 57  1  0  0  0
 55136  1  0  0  0
 56 69  2  0  0  0
 57 58  2  0  0  0
 57137  1  0  0  0
 58138  1  0  0  0
 59 60  1  0  0  0
 59 61  1  0  0  0
 59 62  1  0  0  0
 60139  1  0  0  0
 60140  1  0  0  0
 60141  1  0  0  0
 61142  1  0  0  0
 61143  1  0  0  0
 61144  1  0  0  0
 62145  1  0  0  0
 62146  1  0  0  0
 62147  1  0  0  0
 63 65  1  0  0  0
 63148  1  0  0  0
 63149  1  0  0  0
 63150  1  0  0  0
 64151  1  0  0  0
 65152  1  0  0  0
 68 86  1  0  0  0
 71 72  2  0  0  0
 71 88  1  0  0  0
 71153  1  0  0  0
 72 73  1  0  0  0
 72 81  1  0  0  0
 73 82  1  0  0  0
 73 89  2  0  0  0
 74 88  2  0  0  0
 74 89  1  0  0  0
 74 90  1  0  0  0
 75 77  1  0  0  0
 75 90  1  0  0  0
 75154  1  0  0  0
 75155  1  0  0  0
 76 78  1  0  0  0
 76 90  1  0  0  0
 76156  1  0  0  0
 76157  1  0  0  0
 77 91  1  0  0  0
 77158  1  0  0  0
 77159  1  0  0  0
 78 91  1  0  0  0
 78160  1  0  0  0
 78161  1  0  0  0
 79162  1  0  0  0
 79163  1  0  0  0
 79164  1  0  0  0
 79 87  1  0  0  0
 80 87  1  0  0  0
 80165  1  0  0  0
 80166  1  0  0  0
 80167  1  0  0  0
 81 92  1  0  0  0
 81168  1  0  0  0
 81169  1  0  0  0
 82 93  1  0  0  0
 82170  1  0  0  0
 82171  1  0  0  0
 83 84  1  0  0  0
 83 87  1  0  0  0
 83172  1  0  0  0
 83173  1  0  0  0
 84 92  1  0  0  0
 84174  1  0  0  0
 84175  1  0  0  0
 85 86  1  0  0  0
 85 93  1  0  0  0
 85176  1  0  0  0
 85177  1  0  0  0
 86178  1  0  0  0
 86179  1  0  0  0
 87180  1  0  0  0
 92181  1  0  0  0
 92182  1  0  0  0
 93183  1  0  0  0
 93184  1  0  0  0
M  CHG  2  92   1  93   1
M  ISO  4   1 100  68 101  86 101  91 100
M  END
> <chiral flag>
0

> <version>
0

> <s_m_source_file>
/data/baiqing/PycharmProjects/Reinvent-master-3.2/result/LINK_invent/BTK/process_docking_weight1_custom_sum_contain_oxygen_bond_distance_aromatic_linkinvent_7_9_3/rearranged_h_0195.sdf

> <i_m_source_file_index>
42

> <r_mmod_Potential_Energy-OPLS-2005>
-664.023864746094

> <r_mmod_Stretch_Energy-OPLS-2005>
45.4858436584473

> <r_mmod_Bend_Energy-OPLS-2005>
143.99885559082

> <r_mmod_Torsional_Energy-OPLS-2005>
368.655395507812

> <r_mmod_Improper_Torsional_Energy-OPLS-2005>
12.920392036438

> <r_mmod_Van_der_Waal_Energy-OPLS-2005>
153.942276000977

> <r_mmod_Electrostatic_Energy-OPLS-2005>
-420.982635498047

> <r_mmod_Solvation_Energy-OPLS-2005>
-990.837707519531

> <b_mmod_Minimization_Converged-OPLS-2005>
0

> <r_mmod_RMS_Derivative-OPLS-2005>
3.20761942863464

$$$$
43
                    3D
 Structure written by MMmdl.
158168  0  0  1  0            999 V2000
  -30.6875  -14.5539   20.5082 C   0  0  0  0  0  0
  -30.4173  -12.3416   19.4477 C   0  0  0  0  0  0
  -29.5002  -12.4828   18.2152 C   0  0  0  0  0  0
  -28.0215  -12.3493   18.6265 C   0  0  0  0  0  0
  -27.6514  -13.2173   19.8603 C   0  0  2  0  0  0
  -28.6916  -13.0838   20.9929 C   0  0  0  0  0  0
  -25.2564  -13.8157   20.5694 C   0  0  0  0  0  0
  -24.1823  -13.0424   20.9184 C   0  0  0  0  0  0
  -24.6368  -11.6890   20.8691 C   0  0  0  0  0  0
  -23.9036  -10.4277   21.0388 C   0  0  0  0  0  0
  -24.3591   -9.4202   21.9181 C   0  0  0  0  0  0
  -23.6294   -8.2208   22.0740 C   0  0  0  0  0  0
  -22.4278   -8.0237   21.3524 C   0  0  0  0  0  0
  -21.9901   -9.0210   20.4635 C   0  0  0  0  0  0
  -22.7200  -10.2106   20.3055 C   0  0  0  0  0  0
  -21.6857   -6.0720   22.5272 C   0  0  0  0  0  0
  -21.4013   -6.5628   23.8209 C   0  0  0  0  0  0
  -21.3672   -5.6769   24.9172 C   0  0  0  0  0  0
  -21.6061   -4.3037   24.7215 C   0  0  0  0  0  0
  -21.8815   -3.8140   23.4330 C   0  0  0  0  0  0
  -21.9213   -4.6953   22.3393 C   0  0  0  0  0  0
  -22.7859  -13.5238   21.1858 C   0  0  0  0  0  0
  -22.1680   -4.2121   21.0972 F   0  0  0  0  0  0
  -21.5641   -3.4536   25.7744 F   0  0  0  0  0  0
  -30.0095  -13.3741   20.4149 N   0  0  0  0  0  0
  -26.2981  -12.9343   20.3304 N   0  0  0  0  0  0
  -25.9301  -11.6491   20.5692 N   0  0  0  0  0  0
  -22.0484  -12.8222   22.0389 N   0  0  0  0  0  0
  -25.4324  -15.1863   20.4135 N   0  0  0  0  0  0
  -31.8686  -14.6491   20.1624 O   0  0  0  0  0  0
  -21.6629   -6.8848   21.4236 O   0  0  0  0  0  0
  -22.3555  -14.5575   20.6760 O   0  0  0  0  0  0
  -24.6205  -31.8643   23.2091 C   0  0  0  0  0  0
  -25.9085  -32.4806   23.8386 C   0  0  1  0  0  0
  -27.2309  -27.3958   20.0970 C   0  0  0  0  0  0
  -25.5917  -33.8599   24.2329 N   0  0  0  0  0  0
  -23.4106  -30.4914   21.5506 C   0  0  2  0  0  0
  -24.8574  -28.9576   20.1088 C   0  0  0  0  0  0
  -22.7460  -29.4647   22.4975 C   0  0  0  0  0  0
  -18.0288  -28.1374   22.8500 C   0  0  0  0  0  0
  -24.1508  -36.7346   23.2634 C   0  0  0  0  0  0
  -25.9449  -30.8199   21.3676 C   0  0  0  0  0  0
  -26.0211  -29.4522   20.7141 C   0  0  0  0  0  0
  -27.2103  -28.6790   20.7027 C   0  0  0  0  0  0
  -26.0487  -26.9377   19.4667 C   0  0  0  0  0  0
  -24.8710  -27.7064   19.4751 C   0  0  0  0  0  0
  -23.6209  -29.8295   20.1623 C   0  0  0  0  0  0
  -25.4124  -36.3120   24.0332 C   0  0  1  0  0  0
  -20.5884  -28.3686   23.1333 C   0  0  2  0  0  0
  -20.6783  -26.9418   22.5431 C   0  0  0  0  0  0
  -19.5755  -26.6390   21.5241 C   0  0  0  0  0  0
  -18.1929  -26.7929   22.1623 C   0  0  0  0  0  0
  -19.1531  -28.8842   23.2911 C   0  0  0  0  0  0
  -18.9436  -30.1455   23.8914 C   0  0  0  0  0  0
  -17.6424  -30.6568   24.0591 C   0  0  0  0  0  0
  -25.9031  -34.9473   23.5128 C   0  0  0  0  0  0
  -16.5331  -29.9063   23.6332 C   0  0  0  0  0  0
  -16.7271  -28.6498   23.0326 C   0  0  0  0  0  0
  -26.4473  -31.6565   25.0712 C   0  0  0  0  0  0
  -25.3731  -31.3664   26.1464 C   0  0  0  0  0  0
  -27.0264  -30.2992   24.6064 C   0  0  0  0  0  0
  -27.6055  -32.4271   25.7482 C   0  0  0  0  0  0
  -27.5612  -37.1832   24.8455 C   0  0  0  0  0  0
  -21.4173  -29.3048   22.3718 N   0  0  0  0  0  0
  -26.4321  -37.3801   23.9392 N   0  0  0  0  0  0
  -24.6784  -31.0726   22.1017 N   0  0  0  0  0  0
  -23.4225  -28.8173   23.3001 O   0  0  0  0  0  0
  -28.3706  -26.6029   20.1337 O   0  0  0  0  0  0
  -26.5600  -34.8934   22.4697 O   0  0  0  0  0  0
  -23.5378  -32.1392   23.7482 O   0  0  0  0  0  0
  -29.8519  -20.5996   19.4179 C   0  0  0  0  0  0
  -28.8855  -20.9112   21.5498 C   0  0  0  0  0  0
  -29.3500  -19.9806   20.5839 C   0  0  0  0  0  0
  -29.3375  -22.7044   20.1713 C   0  0  0  0  0  0
  -28.4154  -24.6259   18.7117 C   0  0  0  0  0  0
  -28.9293  -17.7308   19.5797 C   0  0  0  0  0  0
  -29.3214  -17.8281   21.9843 C   0  0  0  0  0  0
  -29.9030  -16.5492   19.4518 C   0  0  0  0  0  0
  -30.1607  -16.5081   21.8784 C   0  0  0  0  0  0
  -29.3195  -24.2007   19.8602 C   0  0  1  0  0  0
  -28.1447  -25.1655   20.0906 C   0  0  1  0  0  0
  -29.8428  -21.9321   19.2152 N   0  0  0  0  0  0
  -28.8794  -22.2548   21.3400 N   0  0  0  0  0  0
  -29.3204  -18.5595   20.7152 N   0  0  0  0  0  0
  -29.9415  -15.6881   20.6581 N   0  0  0  0  0  0
  -31.4653  -12.4226   19.1522 H   0  0  0  0  0  0
  -30.3097  -11.3537   19.8940 H   0  0  0  0  0  0
  -29.7515  -11.7154   17.4799 H   0  0  0  0  0  0
  -29.6652  -13.4491   17.7327 H   0  0  0  0  0  0
  -27.8412  -11.2987   18.8542 H   0  0  0  0  0  0
  -27.3678  -12.5925   17.7873 H   0  0  0  0  0  0
  -27.6761  -14.2519   19.5191 H   0  0  0  0  0  0
  -28.6823  -12.0804   21.4188 H   0  0  0  0  0  0
  -28.4542  -13.7685   21.8085 H   0  0  0  0  0  0
  -25.2726   -9.5720   22.4756 H   0  0  0  0  0  0
  -24.0030   -7.4618   22.7469 H   0  0  0  0  0  0
  -21.0817   -8.8708   19.8955 H   0  0  0  0  0  0
  -22.3631  -10.9637   19.6155 H   0  0  0  0  0  0
  -21.1977   -7.6129   23.9712 H   0  0  0  0  0  0
  -21.1521   -6.0492   25.9074 H   0  0  0  0  0  0
  -22.0602   -2.7608   23.2820 H   0  0  0  0  0  0
  -22.4105  -11.9873   22.4753 H   0  0  0  0  0  0
  -21.1121  -13.1284   22.2623 H   0  0  0  0  0  0
  -24.6731  -15.8459   20.5417 H   0  0  0  0  0  0
  -26.3026  -15.6264   20.1433 H   0  0  0  0  0  0
  -26.7162  -32.5509   23.1152 H   0  0  0  0  0  0
  -25.0138  -33.9748   25.0517 H   0  0  0  0  0  0
  -22.7016  -31.3116   21.4145 H   0  0  0  0  0  0
  -23.3751  -35.9702   23.3280 H   0  0  0  0  0  0
  -24.3630  -36.8962   22.2056 H   0  0  0  0  0  0
  -23.7266  -37.6556   23.6638 H   0  0  0  0  0  0
  -26.0590  -31.5864   20.5991 H   0  0  0  0  0  0
  -26.8339  -30.8740   21.9853 H   0  0  0  0  0  0
  -28.1060  -29.0528   21.1817 H   0  0  0  0  0  0
  -26.0222  -25.9853   18.9570 H   0  0  0  0  0  0
  -23.9857  -27.3350   18.9771 H   0  0  0  0  0  0
  -23.7340  -30.6090   19.4080 H   0  0  0  0  0  0
  -22.7415  -29.2581   19.8619 H   0  0  0  0  0  0
  -25.1294  -36.1994   25.0821 H   0  0  0  0  0  0
  -20.9985  -28.3241   24.1454 H   0  0  0  0  0  0
  -20.5738  -26.2276   23.3604 H   0  0  0  0  0  0
  -21.6640  -26.7486   22.1180 H   0  0  0  0  0  0
  -19.6918  -25.6317   21.1232 H   0  0  0  0  0  0
  -19.6674  -27.3242   20.6796 H   0  0  0  0  0  0
  -17.4208  -26.6733   21.3999 H   0  0  0  0  0  0
  -18.0282  -26.0053   22.8990 H   0  0  0  0  0  0
  -19.7895  -30.7292   24.2259 H   0  0  0  0  0  0
  -17.4957  -31.6235   24.5213 H   0  0  0  0  0  0
  -15.5318  -30.2944   23.7645 H   0  0  0  0  0  0
  -15.8684  -28.0836   22.6971 H   0  0  0  0  0  0
  -24.5918  -30.6984   25.7819 H   0  0  0  0  0  0
  -24.8904  -32.2804   26.4931 H   0  0  0  0  0  0
  -25.8096  -30.8840   27.0217 H   0  0  0  0  0  0
  -26.2757  -29.6789   24.1144 H   0  0  0  0  0  0
  -27.4042  -29.7194   25.4497 H   0  0  0  0  0  0
  -27.8618  -30.4301   23.9178 H   0  0  0  0  0  0
  -27.2672  -33.3571   26.2079 H   0  0  0  0  0  0
  -28.3858  -32.6820   25.0294 H   0  0  0  0  0  0
  -28.0720  -31.8360   26.5379 H   0  0  0  0  0  0
  -28.2599  -38.0158   24.7534 H   0  0  0  0  0  0
  -28.1119  -36.2682   24.6221 H   0  0  0  0  0  0
  -27.2343  -37.1445   25.8861 H   0  0  0  0  0  0
  -20.9325  -29.8763   21.6939 H   0  0  0  0  0  0
  -26.0208  -38.2891   24.1337 H   0  0  0  0  0  0
  -30.2756  -20.0125   18.6164 H   0  0  0  0  0  0
  -28.4770  -20.5772   22.4929 H   0  0  0  0  0  0
  -27.7147  -23.8846   18.3276 H   0  0  0  0  0  0
  -28.8508  -25.2784   17.9570 H   0  0  0  0  0  0
  -27.9152  -17.3595   19.7468 H   0  0  0  0  0  0
  -28.8854  -18.2913   18.6453 H   0  0  0  0  0  0
  -29.7022  -18.4494   22.7977 H   0  0  0  0  0  0
  -28.2873  -17.5835   22.2432 H   0  0  0  0  0  0
  -30.9023  -16.9415   19.2446 H   0  0  0  0  0  0
  -29.6241  -15.9586   18.5761 H   0  0  0  0  0  0
  -29.9852  -15.8972   22.7671 H   0  0  0  0  0  0
  -31.2189  -16.7798   21.9047 H   0  0  0  0  0  0
  -30.3277  -24.6121   19.8788 H   0  0  0  0  0  0
  -27.2992  -24.8036   20.6759 H   0  0  0  0  0  0
  1 25  1  0  0  0
  1 30  2  0  0  0
  1 85  1  0  0  0
  2  3  1  0  0  0
  2 25  1  0  0  0
  2 86  1  0  0  0
  2 87  1  0  0  0
  3  4  1  0  0  0
  3 88  1  0  0  0
  3 89  1  0  0  0
  4  5  1  0  0  0
  4 90  1  0  0  0
  4 91  1  0  0  0
  5  6  1  0  0  0
  5 26  1  0  0  0
  5 92  1  0  0  0
  6 25  1  0  0  0
  6 93  1  0  0  0
  6 94  1  0  0  0
  7  8  2  0  0  0
  7 26  1  0  0  0
  7 29  1  0  0  0
  8  9  1  0  0  0
  8 22  1  0  0  0
  9 10  1  0  0  0
  9 27  2  0  0  0
 10 11  2  0  0  0
 10 15  1  0  0  0
 11 12  1  0  0  0
 11 95  1  0  0  0
 12 13  2  0  0  0
 12 96  1  0  0  0
 13 14  1  0  0  0
 13 31  1  0  0  0
 14 15  2  0  0  0
 14 97  1  0  0  0
 15 98  1  0  0  0
 16 17  2  0  0  0
 16 21  1  0  0  0
 16 31  1  0  0  0
 17 18  1  0  0  0
 17 99  1  0  0  0
 18 19  2  0  0  0
 18100  1  0  0  0
 19 20  1  0  0  0
 19 24  1  0  0  0
 20 21  2  0  0  0
 20101  1  0  0  0
 21 23  1  0  0  0
 22 28  1  0  0  0
 22 32  2  0  0  0
 26 27  1  0  0  0
 28102  1  0  0  0
 28103  1  0  0  0
 29104  1  0  0  0
 29105  1  0  0  0
 33 34  1  0  0  0
 33 66  1  0  0  0
 33 70  2  0  0  0
 34 36  1  0  0  0
 34 59  1  0  0  0
 34106  1  0  0  0
 35 44  2  0  0  0
 35 45  1  0  0  0
 35 68  1  0  0  0
 36 56  1  0  0  0
 36107  1  0  0  0
 37 39  1  0  0  0
 37 47  1  0  0  0
 37 66  1  0  0  0
 37108  1  0  0  0
 38 43  2  0  0  0
 38 46  1  0  0  0
 38 47  1  0  0  0
 39 64  1  0  0  0
 39 67  2  0  0  0
 40 52  1  0  0  0
 40 53  2  0  0  0
 40 58  1  0  0  0
 41109  1  0  0  0
 41110  1  0  0  0
 41111  1  0  0  0
 41 48  1  0  0  0
 42 43  1  0  0  0
 42 66  1  0  0  0
 42112  1  0  0  0
 42113  1  0  0  0
 43 44  1  0  0  0
 44114  1  0  0  0
 45 46  2  0  0  0
 45115  1  0  0  0
 46116  1  0  0  0
 47117  1  0  0  0
 47118  1  0  0  0
 48 56  1  0  0  0
 48 65  1  0  0  0
 48119  1  0  0  0
 49 50  1  0  0  0
 49 53  1  0  0  0
 49 64  1  0  0  0
 49120  1  0  0  0
 50 51  1  0  0  0
 50121  1  0  0  0
 50122  1  0  0  0
 51 52  1  0  0  0
 51123  1  0  0  0
 51124  1  0  0  0
 52125  1  0  0  0
 52126  1  0  0  0
 53 54  1  0  0  0
 54 55  2  0  0  0
 54127  1  0  0  0
 55 57  1  0  0  0
 55128  1  0  0  0
 56 69  2  0  0  0
 57 58  2  0  0  0
 57129  1  0  0  0
 58130  1  0  0  0
 59 60  1  0  0  0
 59 61  1  0  0  0
 59 62  1  0  0  0
 60131  1  0  0  0
 60132  1  0  0  0
 60133  1  0  0  0
 61134  1  0  0  0
 61135  1  0  0  0
 61136  1  0  0  0
 62137  1  0  0  0
 62138  1  0  0  0
 62139  1  0  0  0
 63 65  1  0  0  0
 63140  1  0  0  0
 63141  1  0  0  0
 63142  1  0  0  0
 64143  1  0  0  0
 65144  1  0  0  0
 68 81  1  0  0  0
 71 73  2  0  0  0
 71 82  1  0  0  0
 71145  1  0  0  0
 72 73  1  0  0  0
 72 83  2  0  0  0
 72146  1  0  0  0
 73 84  1  0  0  0
 74 82  2  0  0  0
 74 83  1  0  0  0
 74 80  1  0  0  0
 75 80  1  0  0  0
 75 81  1  0  0  0
 75147  1  0  0  0
 75148  1  0  0  0
 76 78  1  0  0  0
 76 84  1  0  0  0
 76149  1  0  0  0
 76150  1  0  0  0
 77 79  1  0  0  0
 77 84  1  0  0  0
 77151  1  0  0  0
 77152  1  0  0  0
 78 85  1  0  0  0
 78153  1  0  0  0
 78154  1  0  0  0
 79 85  1  0  0  0
 79155  1  0  0  0
 79156  1  0  0  0
 80 81  1  0  0  0
 80157  1  0  0  0
 81158  1  0  0  0
M  ISO  4   1 100  68 101  81 101  85 100
M  END
> <chiral flag>
0

> <version>
0

> <s_m_source_file>
/data/baiqing/PycharmProjects/Reinvent-master-3.2/result/LINK_invent/BTK/process_docking_weight1_custom_sum_contain_oxygen_bond_distance_aromatic_linkinvent_7_9_3/rearranged_h_0195.sdf

> <i_m_source_file_index>
43

> <r_mmod_Potential_Energy-OPLS-2005>
-72.1821441650391

> <r_mmod_Stretch_Energy-OPLS-2005>
50.1147117614746

> <r_mmod_Bend_Energy-OPLS-2005>
144.305725097656

> <r_mmod_Torsional_Energy-OPLS-2005>
351.986999511719

> <r_mmod_Improper_Torsional_Energy-OPLS-2005>
13.831446647644

> <r_mmod_Van_der_Waal_Energy-OPLS-2005>
160.404281616211

> <r_mmod_Electrostatic_Energy-OPLS-2005>
-589.0048828125

> <r_mmod_Solvation_Energy-OPLS-2005>
-231.836486816406

> <b_mmod_Minimization_Converged-OPLS-2005>
0

> <r_mmod_RMS_Derivative-OPLS-2005>
4.32009840011597

$$$$
44
                    3D
 Structure written by MMmdl.
166175  0  0  1  0            999 V2000
  -30.6464  -14.4923   20.5262 C   0  0  0  0  0  0
  -30.4277  -12.3034   19.4238 C   0  0  0  0  0  0
  -29.4933  -12.4922   18.2076 C   0  0  0  0  0  0
  -28.0128  -12.3555   18.6178 C   0  0  0  0  0  0
  -27.6594  -13.1941   19.8744 C   0  0  2  0  0  0
  -28.7012  -12.9677   20.9962 C   0  0  0  0  0  0
  -25.2587  -13.8128   20.5669 C   0  0  0  0  0  0
  -24.1838  -13.0426   20.9198 C   0  0  0  0  0  0
  -24.6364  -11.6888   20.8738 C   0  0  0  0  0  0
  -23.9029  -10.4283   21.0415 C   0  0  0  0  0  0
  -24.3594   -9.4201   21.9192 C   0  0  0  0  0  0
  -23.6288   -8.2233   22.0757 C   0  0  0  0  0  0
  -22.4270   -8.0264   21.3544 C   0  0  0  0  0  0
  -21.9892   -9.0232   20.4646 C   0  0  0  0  0  0
  -22.7208  -10.2124   20.3065 C   0  0  0  0  0  0
  -21.6848   -6.0730   22.5280 C   0  0  0  0  0  0
  -21.4009   -6.5640   23.8212 C   0  0  0  0  0  0
  -21.3658   -5.6795   24.9176 C   0  0  0  0  0  0
  -21.6047   -4.3057   24.7232 C   0  0  0  0  0  0
  -21.8817   -3.8146   23.4352 C   0  0  0  0  0  0
  -21.9192   -4.6960   22.3406 C   0  0  0  0  0  0
  -22.7865  -13.5239   21.1862 C   0  0  0  0  0  0
  -22.1664   -4.2143   21.0984 F   0  0  0  0  0  0
  -21.5629   -3.4542   25.7749 F   0  0  0  0  0  0
  -30.0316  -13.2817   20.4481 N   0  0  0  0  0  0
  -26.3003  -12.9270   20.3348 N   0  0  0  0  0  0
  -25.9287  -11.6445   20.5767 N   0  0  0  0  0  0
  -22.0497  -12.8227   22.0405 N   0  0  0  0  0  0
  -25.4321  -15.1837   20.4033 N   0  0  0  0  0  0
  -31.7803  -14.7060   20.0865 O   0  0  0  0  0  0
  -21.6635   -6.8865   21.4243 O   0  0  0  0  0  0
  -22.3563  -14.5553   20.6714 O   0  0  0  0  0  0
  -24.6144  -31.8663   23.2075 C   0  0  0  0  0  0
  -25.9032  -32.4801   23.8371 C   0  0  1  0  0  0
  -27.2400  -27.4301   20.1011 C   0  0  0  0  0  0
  -25.5899  -33.8603   24.2313 N   0  0  0  0  0  0
  -23.4039  -30.4886   21.5456 C   0  0  2  0  0  0
  -24.8526  -28.9490   20.1163 C   0  0  0  0  0  0
  -22.7416  -29.4653   22.4957 C   0  0  0  0  0  0
  -18.0284  -28.1398   22.8462 C   0  0  0  0  0  0
  -24.1500  -36.7300   23.2643 C   0  0  0  0  0  0
  -25.9311  -30.8330   21.3584 C   0  0  0  0  0  0
  -26.0103  -29.4658   20.7081 C   0  0  0  0  0  0
  -27.2081  -28.7143   20.6934 C   0  0  0  0  0  0
  -26.0673  -26.9307   19.4989 C   0  0  0  0  0  0
  -24.8746  -27.6804   19.5097 C   0  0  0  0  0  0
  -23.6153  -29.8162   20.1615 C   0  0  0  0  0  0
  -25.4112  -36.3085   24.0346 C   0  0  1  0  0  0
  -20.5877  -28.3683   23.1312 C   0  0  2  0  0  0
  -20.6781  -26.9421   22.5413 C   0  0  0  0  0  0
  -19.5767  -26.6396   21.5209 C   0  0  0  0  0  0
  -18.1940  -26.7937   22.1614 C   0  0  0  0  0  0
  -19.1530  -28.8849   23.2886 C   0  0  0  0  0  0
  -18.9467  -30.1444   23.8920 C   0  0  0  0  0  0
  -17.6472  -30.6599   24.0565 C   0  0  0  0  0  0
  -25.9039  -34.9463   23.5125 C   0  0  0  0  0  0
  -16.5360  -29.9103   23.6329 C   0  0  0  0  0  0
  -16.7269  -28.6531   23.0320 C   0  0  0  0  0  0
  -26.4463  -31.6578   25.0698 C   0  0  0  0  0  0
  -25.3740  -31.3693   26.1451 C   0  0  0  0  0  0
  -27.0292  -30.3031   24.6040 C   0  0  0  0  0  0
  -27.6034  -32.4296   25.7464 C   0  0  0  0  0  0
  -27.5581  -37.1788   24.8463 C   0  0  0  0  0  0
  -21.4149  -29.3039   22.3704 N   0  0  0  0  0  0
  -26.4290  -37.3769   23.9419 N   0  0  0  0  0  0
  -24.6681  -31.0766   22.0963 N   0  0  0  0  0  0
  -23.4173  -28.8202   23.3022 O   0  0  0  0  0  0
  -28.4187  -26.7088   20.0891 O   0  0  0  0  0  0
  -26.5585  -34.8909   22.4672 O   0  0  0  0  0  0
  -23.5331  -32.1408   23.7460 O   0  0  0  0  0  0
  -29.9483  -21.1644   21.6134 C   0  0  0  0  0  0
  -27.5459  -20.5868   20.9175 C   0  0  0  0  0  0
  -29.8562  -22.3837   20.6539 C   0  0  0  0  0  0
  -27.5964  -21.8183   19.9827 C   0  0  0  0  0  0
  -30.4463  -17.9896   21.1768 C   0  0  0  0  0  0
  -28.5831  -17.6835   20.4223 C   0  0  0  0  0  0
  -29.8768  -16.8704   20.3048 C   0  0  2  0  0  0
  -28.9247  -20.0163   21.3632 C   0  0  1  0  0  0
  -27.5969  -25.3648   22.0339 C   0  0  0  0  0  0
  -28.3239  -24.2085   19.8347 C   0  0  0  0  0  0
  -28.4924  -25.4359   20.7780 C   0  0  1  0  0  0
  -29.8250  -15.5059   20.8690 N   0  0  0  0  0  0
  -29.4474  -18.8769   20.5337 N   0  3  1  0  0  0
  -28.4622  -22.8903   20.5400 N   0  3  2  0  0  0
  -31.4704  -12.4163   19.1220 H   0  0  0  0  0  0
  -30.3400  -11.2903   19.8195 H   0  0  0  0  0  0
  -29.7310  -11.7610   17.4336 H   0  0  0  0  0  0
  -29.6587  -13.4738   17.7598 H   0  0  0  0  0  0
  -27.8192  -11.2997   18.8105 H   0  0  0  0  0  0
  -27.3639  -12.6342   17.7859 H   0  0  0  0  0  0
  -27.7019  -14.2410   19.5736 H   0  0  0  0  0  0
  -28.6787  -11.9273   21.3258 H   0  0  0  0  0  0
  -28.4664  -13.5599   21.8824 H   0  0  0  0  0  0
  -25.2742   -9.5686   22.4759 H   0  0  0  0  0  0
  -24.0003   -7.4623   22.7471 H   0  0  0  0  0  0
  -21.0827   -8.8741   19.8948 H   0  0  0  0  0  0
  -22.3661  -10.9661   19.6172 H   0  0  0  0  0  0
  -21.1996   -7.6145   23.9712 H   0  0  0  0  0  0
  -21.1485   -6.0528   25.9076 H   0  0  0  0  0  0
  -22.0596   -2.7610   23.2857 H   0  0  0  0  0  0
  -22.4120  -11.9882   22.4781 H   0  0  0  0  0  0
  -21.1115  -13.1243   22.2615 H   0  0  0  0  0  0
  -24.6546  -15.8294   20.4858 H   0  0  0  0  0  0
  -26.2552  -15.6042   19.9940 H   0  0  0  0  0  0
  -26.7103  -32.5530   23.1142 H   0  0  0  0  0  0
  -25.0079  -33.9759   25.0474 H   0  0  0  0  0  0
  -22.6937  -31.3053   21.3999 H   0  0  0  0  0  0
  -23.3749  -35.9645   23.3308 H   0  0  0  0  0  0
  -24.3613  -36.8903   22.2057 H   0  0  0  0  0  0
  -23.7269  -37.6516   23.6655 H   0  0  0  0  0  0
  -26.0392  -31.5979   20.5881 H   0  0  0  0  0  0
  -26.8200  -30.8882   21.9754 H   0  0  0  0  0  0
  -28.1057  -29.1116   21.1465 H   0  0  0  0  0  0
  -26.0665  -25.9702   19.0087 H   0  0  0  0  0  0
  -23.9840  -27.2749   19.0489 H   0  0  0  0  0  0
  -23.7280  -30.5891   19.4002 H   0  0  0  0  0  0
  -22.7408  -29.2353   19.8630 H   0  0  0  0  0  0
  -25.1284  -36.1941   25.0839 H   0  0  0  0  0  0
  -20.9954  -28.3253   24.1435 H   0  0  0  0  0  0
  -20.5720  -26.2284   23.3598 H   0  0  0  0  0  0
  -21.6651  -26.7482   22.1189 H   0  0  0  0  0  0
  -19.6950  -25.6310   21.1240 H   0  0  0  0  0  0
  -19.6737  -27.3203   20.6741 H   0  0  0  0  0  0
  -17.4211  -26.6676   21.4008 H   0  0  0  0  0  0
  -18.0339  -26.0092   22.9028 H   0  0  0  0  0  0
  -19.7947  -30.7236   24.2318 H   0  0  0  0  0  0
  -17.5038  -31.6291   24.5147 H   0  0  0  0  0  0
  -15.5363  -30.3012   23.7654 H   0  0  0  0  0  0
  -15.8669  -28.0875   22.6995 H   0  0  0  0  0  0
  -24.5912  -30.7039   25.7793 H   0  0  0  0  0  0
  -24.8936  -32.2865   26.4881 H   0  0  0  0  0  0
  -25.8091  -30.8880   27.0223 H   0  0  0  0  0  0
  -26.2823  -29.6795   24.1111 H   0  0  0  0  0  0
  -27.4116  -29.7253   25.4464 H   0  0  0  0  0  0
  -27.8639  -30.4373   23.9149 H   0  0  0  0  0  0
  -27.2643  -33.3587   26.2050 H   0  0  0  0  0  0
  -28.3834  -32.6858   25.0285 H   0  0  0  0  0  0
  -28.0711  -31.8420   26.5371 H   0  0  0  0  0  0
  -28.2552  -38.0116   24.7499 H   0  0  0  0  0  0
  -28.1107  -36.2640   24.6285 H   0  0  0  0  0  0
  -27.2306  -37.1425   25.8863 H   0  0  0  0  0  0
  -20.9298  -29.8751   21.6929 H   0  0  0  0  0  0
  -26.0180  -38.2847   24.1419 H   0  0  0  0  0  0
  -29.7804  -21.5392   22.6243 H   0  0  0  0  0  0
  -30.9679  -20.7763   21.6272 H   0  0  0  0  0  0
  -26.9168  -19.8134   20.4748 H   0  0  0  0  0  0
  -27.0135  -20.8938   21.8189 H   0  0  0  0  0  0
  -30.2325  -22.1188   19.6644 H   0  0  0  0  0  0
  -30.5092  -23.1766   21.0209 H   0  0  0  0  0  0
  -26.5798  -22.1929   19.8516 H   0  0  0  0  0  0
  -27.9496  -21.5379   18.9888 H   0  0  0  0  0  0
  -31.4796  -18.2525   20.9500 H   0  0  0  0  0  0
  -30.2916  -17.8400   22.2484 H   0  0  0  0  0  0
  -27.9993  -17.4773   21.3238 H   0  0  0  0  0  0
  -27.9565  -17.6776   19.5296 H   0  0  0  0  0  0
  -30.2734  -16.8974   19.2857 H   0  0  0  0  0  0
  -28.7417  -19.5633   22.3392 H   0  0  0  0  0  0
  -27.8486  -24.5036   22.6536 H   0  0  0  0  0  0
  -26.5399  -25.2893   21.7768 H   0  0  0  0  0  0
  -27.7275  -26.2478   22.6596 H   0  0  0  0  0  0
  -29.0408  -24.2668   19.0133 H   0  0  0  0  0  0
  -27.3411  -24.2647   19.3709 H   0  0  0  0  0  0
  -29.5202  -25.4095   21.1423 H   0  0  0  0  0  0
  -28.9460  -15.2119   21.2700 H   0  0  0  0  0  0
  -29.7606  -19.1609   19.6166 H   0  0  0  0  0  0
  -28.1257  -23.0668   21.4766 H   0  0  0  0  0  0
  1 25  1  0  0  0
  1 30  2  0  0  0
  1 82  1  0  0  0
  2  3  1  0  0  0
  2 25  1  0  0  0
  2 85  1  0  0  0
  2 86  1  0  0  0
  3  4  1  0  0  0
  3 87  1  0  0  0
  3 88  1  0  0  0
  4  5  1  0  0  0
  4 89  1  0  0  0
  4 90  1  0  0  0
  5  6  1  0  0  0
  5 26  1  0  0  0
  5 91  1  0  0  0
  6 25  1  0  0  0
  6 92  1  0  0  0
  6 93  1  0  0  0
  7  8  2  0  0  0
  7 26  1  0  0  0
  7 29  1  0  0  0
  8  9  1  0  0  0
  8 22  1  0  0  0
  9 10  1  0  0  0
  9 27  2  0  0  0
 10 11  2  0  0  0
 10 15  1  0  0  0
 11 12  1  0  0  0
 11 94  1  0  0  0
 12 13  2  0  0  0
 12 95  1  0  0  0
 13 14  1  0  0  0
 13 31  1  0  0  0
 14 15  2  0  0  0
 14 96  1  0  0  0
 15 97  1  0  0  0
 16 17  2  0  0  0
 16 21  1  0  0  0
 16 31  1  0  0  0
 17 18  1  0  0  0
 17 98  1  0  0  0
 18 19  2  0  0  0
 18 99  1  0  0  0
 19 20  1  0  0  0
 19 24  1  0  0  0
 20 21  2  0  0  0
 20100  1  0  0  0
 21 23  1  0  0  0
 22 28  1  0  0  0
 22 32  2  0  0  0
 26 27  1  0  0  0
 28101  1  0  0  0
 28102  1  0  0  0
 29103  1  0  0  0
 29104  1  0  0  0
 33 34  1  0  0  0
 33 66  1  0  0  0
 33 70  2  0  0  0
 34 36  1  0  0  0
 34 59  1  0  0  0
 34105  1  0  0  0
 35 44  2  0  0  0
 35 45  1  0  0  0
 35 68  1  0  0  0
 36 56  1  0  0  0
 36106  1  0  0  0
 37 39  1  0  0  0
 37 47  1  0  0  0
 37 66  1  0  0  0
 37107  1  0  0  0
 38 43  2  0  0  0
 38 46  1  0  0  0
 38 47  1  0  0  0
 39 64  1  0  0  0
 39 67  2  0  0  0
 40 52  1  0  0  0
 40 53  2  0  0  0
 40 58  1  0  0  0
 41108  1  0  0  0
 41109  1  0  0  0
 41110  1  0  0  0
 41 48  1  0  0  0
 42 43  1  0  0  0
 42 66  1  0  0  0
 42111  1  0  0  0
 42112  1  0  0  0
 43 44  1  0  0  0
 44113  1  0  0  0
 45 46  2  0  0  0
 45114  1  0  0  0
 46115  1  0  0  0
 47116  1  0  0  0
 47117  1  0  0  0
 48 56  1  0  0  0
 48 65  1  0  0  0
 48118  1  0  0  0
 49 50  1  0  0  0
 49 53  1  0  0  0
 49 64  1  0  0  0
 49119  1  0  0  0
 50 51  1  0  0  0
 50120  1  0  0  0
 50121  1  0  0  0
 51 52  1  0  0  0
 51122  1  0  0  0
 51123  1  0  0  0
 52124  1  0  0  0
 52125  1  0  0  0
 53 54  1  0  0  0
 54 55  2  0  0  0
 54126  1  0  0  0
 55 57  1  0  0  0
 55127  1  0  0  0
 56 69  2  0  0  0
 57 58  2  0  0  0
 57128  1  0  0  0
 58129  1  0  0  0
 59 60  1  0  0  0
 59 61  1  0  0  0
 59 62  1  0  0  0
 60130  1  0  0  0
 60131  1  0  0  0
 60132  1  0  0  0
 61133  1  0  0  0
 61134  1  0  0  0
 61135  1  0  0  0
 62136  1  0  0  0
 62137  1  0  0  0
 62138  1  0  0  0
 63 65  1  0  0  0
 63139  1  0  0  0
 63140  1  0  0  0
 63141  1  0  0  0
 64142  1  0  0  0
 65143  1  0  0  0
 68 81  1  0  0  0
 71 73  1  0  0  0
 71144  1  0  0  0
 71145  1  0  0  0
 71 78  1  0  0  0
 72 74  1  0  0  0
 72 78  1  0  0  0
 72146  1  0  0  0
 72147  1  0  0  0
 73 84  1  0  0  0
 73148  1  0  0  0
 73149  1  0  0  0
 74 84  1  0  0  0
 74150  1  0  0  0
 74151  1  0  0  0
 75 77  1  0  0  0
 75152  1  0  0  0
 75153  1  0  0  0
 75 83  1  0  0  0
 76 77  1  0  0  0
 76 83  1  0  0  0
 76154  1  0  0  0
 76155  1  0  0  0
 77 82  1  0  0  0
 77156  1  0  0  0
 78 83  1  0  0  0
 78157  1  0  0  0
 79158  1  0  0  0
 79159  1  0  0  0
 79160  1  0  0  0
 79 81  1  0  0  0
 80 81  1  0  0  0
 80161  1  0  0  0
 80162  1  0  0  0
 80 84  1  0  0  0
 81163  1  0  0  0
 82164  1  0  0  0
 83165  1  0  0  0
 84166  1  0  0  0
M  CHG  2  83   1  84   1
M  ISO  4   1 100  68 101  81 101  82 100
M  END
> <chiral flag>
0

> <version>
0

> <s_m_source_file>
/data/baiqing/PycharmProjects/Reinvent-master-3.2/result/LINK_invent/BTK/process_docking_weight1_custom_sum_contain_oxygen_bond_distance_aromatic_linkinvent_7_9_3/rearranged_h_0195.sdf

> <i_m_source_file_index>
44

> <r_mmod_Potential_Energy-OPLS-2005>
-193.699203491211

> <r_mmod_Stretch_Energy-OPLS-2005>
43.9351043701172

> <r_mmod_Bend_Energy-OPLS-2005>
137.064086914062

> <r_mmod_Torsional_Energy-OPLS-2005>
333.23828125

> <r_mmod_Improper_Torsional_Energy-OPLS-2005>
8.22881698608398

> <r_mmod_Van_der_Waal_Energy-OPLS-2005>
133.248672485352

> <r_mmod_Electrostatic_Energy-OPLS-2005>
117.594772338867

> <r_mmod_Solvation_Energy-OPLS-2005>
-981.551696777344

> <b_mmod_Minimization_Converged-OPLS-2005>
0

> <r_mmod_RMS_Derivative-OPLS-2005>
2.11084270477295

$$$$
45
                    3D
 Structure written by MMmdl.
182192  0  0  1  0            999 V2000
  -30.8030  -14.3605   20.6872 C   0  0  0  0  0  0
  -30.4079  -12.2927   19.3994 C   0  0  0  0  0  0
  -29.4797  -12.5364   18.1966 C   0  0  0  0  0  0
  -28.0061  -12.3870   18.6146 C   0  0  0  0  0  0
  -27.6665  -13.2066   19.8868 C   0  0  2  0  0  0
  -28.7103  -12.9763   21.0051 C   0  0  0  0  0  0
  -25.2603  -13.8171   20.5704 C   0  0  0  0  0  0
  -24.1843  -13.0446   20.9161 C   0  0  0  0  0  0
  -24.6395  -11.6913   20.8717 C   0  0  0  0  0  0
  -23.9058  -10.4303   21.0381 C   0  0  0  0  0  0
  -24.3623   -9.4231   21.9163 C   0  0  0  0  0  0
  -23.6318   -8.2250   22.0744 C   0  0  0  0  0  0
  -22.4286   -8.0283   21.3550 C   0  0  0  0  0  0
  -21.9912   -9.0241   20.4635 C   0  0  0  0  0  0
  -22.7224  -10.2128   20.3038 C   0  0  0  0  0  0
  -21.6857   -6.0737   22.5289 C   0  0  0  0  0  0
  -21.4023   -6.5641   23.8226 C   0  0  0  0  0  0
  -21.3653   -5.6784   24.9184 C   0  0  0  0  0  0
  -21.6048   -4.3053   24.7226 C   0  0  0  0  0  0
  -21.8818   -3.8147   23.4346 C   0  0  0  0  0  0
  -21.9203   -4.6967   22.3410 C   0  0  0  0  0  0
  -22.7866  -13.5244   21.1832 C   0  0  0  0  0  0
  -22.1663   -4.2154   21.0982 F   0  0  0  0  0  0
  -21.5624   -3.4535   25.7734 F   0  0  0  0  0  0
  -30.0539  -13.2478   20.4618 N   0  0  0  0  0  0
  -26.3055  -12.9342   20.3443 N   0  0  0  0  0  0
  -25.9334  -11.6497   20.5786 N   0  0  0  0  0  0
  -22.0525  -12.8223   22.0394 N   0  0  0  0  0  0
  -25.4320  -15.1894   20.4120 N   0  0  0  0  0  0
  -31.8054  -14.6354   20.0190 O   0  0  0  0  0  0
  -21.6647   -6.8883   21.4247 O   0  0  0  0  0  0
  -22.3549  -14.5549   20.6687 O   0  0  0  0  0  0
  -24.6129  -31.8699   23.2140 C   0  0  0  0  0  0
  -25.9029  -32.4831   23.8431 C   0  0  1  0  0  0
  -27.2303  -27.4648   20.0855 C   0  0  0  0  0  0
  -25.5898  -33.8639   24.2347 N   0  0  0  0  0  0
  -23.3990  -30.4969   21.5524 C   0  0  2  0  0  0
  -24.8429  -28.9653   20.1171 C   0  0  0  0  0  0
  -22.7396  -29.4696   22.4992 C   0  0  0  0  0  0
  -18.0281  -28.1386   22.8509 C   0  0  0  0  0  0
  -24.1471  -36.7339   23.2633 C   0  0  0  0  0  0
  -25.9258  -30.8415   21.3638 C   0  0  0  0  0  0
  -26.0021  -29.4752   20.7207 C   0  0  0  0  0  0
  -27.1999  -28.7281   20.7137 C   0  0  0  0  0  0
  -26.0667  -26.9807   19.4563 C   0  0  0  0  0  0
  -24.8671  -27.7121   19.4855 C   0  0  0  0  0  0
  -23.6049  -29.8303   20.1662 C   0  0  0  0  0  0
  -25.4094  -36.3134   24.0328 C   0  0  1  0  0  0
  -20.5864  -28.3678   23.1317 C   0  0  2  0  0  0
  -20.6753  -26.9407   22.5423 C   0  0  0  0  0  0
  -19.5724  -26.6395   21.5227 C   0  0  0  0  0  0
  -18.1911  -26.7934   22.1645 C   0  0  0  0  0  0
  -19.1531  -28.8847   23.2902 C   0  0  0  0  0  0
  -18.9463  -30.1455   23.8911 C   0  0  0  0  0  0
  -17.6465  -30.6574   24.0583 C   0  0  0  0  0  0
  -25.9021  -34.9490   23.5123 C   0  0  0  0  0  0
  -16.5353  -29.9089   23.6326 C   0  0  0  0  0  0
  -16.7269  -28.6508   23.0336 C   0  0  0  0  0  0
  -26.4467  -31.6581   25.0741 C   0  0  0  0  0  0
  -25.3783  -31.3631   26.1500 C   0  0  0  0  0  0
  -27.0287  -30.3037   24.6094 C   0  0  0  0  0  0
  -27.6044  -32.4286   25.7487 C   0  0  0  0  0  0
  -27.5559  -37.1822   24.8463 C   0  0  0  0  0  0
  -21.4138  -29.3044   22.3742 N   0  0  0  0  0  0
  -26.4292  -37.3810   23.9400 N   0  0  0  0  0  0
  -24.6645  -31.0836   22.1027 N   0  0  0  0  0  0
  -23.4194  -28.8218   23.3002 O   0  0  0  0  0  0
  -28.3867  -26.7260   20.0272 O   0  0  0  0  0  0
  -26.5590  -34.8922   22.4686 O   0  0  0  0  0  0
  -23.5326  -32.1442   23.7556 O   0  0  0  0  0  0
  -30.6671  -16.5298   21.6993 C   0  0  0  0  0  0
  -30.2150  -17.4912   20.8490 C   0  0  0  0  0  0
  -31.6729  -16.5015   22.8152 C   0  0  0  0  0  0
  -29.1058  -17.1637   19.8427 C   0  0  0  0  0  0
  -26.5566  -21.9219   18.9436 C   0  0  0  0  0  0
  -31.1252  -15.0783   22.9983 C   0  0  0  0  0  0
  -26.5650  -23.4425   19.0151 C   0  0  0  0  0  0
  -28.6782  -22.6077   19.7749 C   0  0  0  0  0  0
  -30.6510  -19.5971   19.5386 C   0  0  0  0  0  0
  -28.0327  -21.5300   18.8757 C   0  0  1  0  0  0
  -29.2107  -17.9176   18.5060 C   0  0  2  0  0  0
  -30.2979  -17.2946   17.6046 C   0  0  0  0  0  0
  -30.6080  -20.7920   22.3622 C   0  0  0  0  0  0
  -28.2175  -20.0522   19.3138 C   0  0  0  0  0  0
  -31.3596  -19.5475   21.8678 C   0  0  0  0  0  0
  -27.6449  -24.5663   20.9762 C   0  0  0  0  0  0
  -28.5747  -25.7940   21.0962 C   0  0  0  0  0  0
  -30.4087  -15.1544   21.7081 N   0  0  0  0  0  0
  -30.6539  -18.8329   20.7981 N   0  0  0  0  0  0
  -27.8295  -23.8285   19.6899 N   0  3  2  0  0  0
  -29.4195  -19.3704   18.7480 N   0  3  1  0  0  0
  -31.4539  -12.3672   19.0959 H   0  0  0  0  0  0
  -30.2850  -11.2742   19.7703 H   0  0  0  0  0  0
  -29.7109  -11.8357   17.3935 H   0  0  0  0  0  0
  -29.6495  -13.5370   17.7947 H   0  0  0  0  0  0
  -27.8130  -11.3275   18.7904 H   0  0  0  0  0  0
  -27.3494  -12.6830   17.7944 H   0  0  0  0  0  0
  -27.7130  -14.2557   19.6030 H   0  0  0  0  0  0
  -28.6726  -11.9441   21.3567 H   0  0  0  0  0  0
  -28.4715  -13.5895   21.8747 H   0  0  0  0  0  0
  -25.2782   -9.5724   22.4716 H   0  0  0  0  0  0
  -24.0048   -7.4648   22.7466 H   0  0  0  0  0  0
  -21.0840   -8.8734   19.8955 H   0  0  0  0  0  0
  -22.3669  -10.9645   19.6136 H   0  0  0  0  0  0
  -21.2013   -7.6148   23.9743 H   0  0  0  0  0  0
  -21.1467   -6.0503   25.9087 H   0  0  0  0  0  0
  -22.0601   -2.7613   23.2835 H   0  0  0  0  0  0
  -22.4143  -11.9870   22.4748 H   0  0  0  0  0  0
  -21.1146  -13.1222   22.2623 H   0  0  0  0  0  0
  -24.6690  -15.8476   20.5294 H   0  0  0  0  0  0
  -26.2975  -15.6300   20.1296 H   0  0  0  0  0  0
  -26.7122  -32.5540   23.1224 H   0  0  0  0  0  0
  -25.0106  -33.9817   25.0529 H   0  0  0  0  0  0
  -22.6872  -31.3128   21.4158 H   0  0  0  0  0  0
  -23.3734  -35.9671   23.3314 H   0  0  0  0  0  0
  -24.3577  -36.8956   22.2046 H   0  0  0  0  0  0
  -23.7223  -37.6546   23.6646 H   0  0  0  0  0  0
  -26.0341  -31.6018   20.5889 H   0  0  0  0  0  0
  -26.8171  -30.9008   21.9754 H   0  0  0  0  0  0
  -28.0947  -29.1210   21.1745 H   0  0  0  0  0  0
  -26.0814  -26.0448   18.9249 H   0  0  0  0  0  0
  -23.9855  -27.3181   18.9996 H   0  0  0  0  0  0
  -23.7144  -30.6041   19.4056 H   0  0  0  0  0  0
  -22.7300  -29.2474   19.8698 H   0  0  0  0  0  0
  -25.1280  -36.2011   25.0831 H   0  0  0  0  0  0
  -20.9970  -28.3244   24.1428 H   0  0  0  0  0  0
  -20.5666  -26.2293   23.3621 H   0  0  0  0  0  0
  -21.6620  -26.7425   22.1211 H   0  0  0  0  0  0
  -19.6859  -25.6317   21.1216 H   0  0  0  0  0  0
  -19.6640  -27.3242   20.6787 H   0  0  0  0  0  0
  -17.4172  -26.6733   21.4029 H   0  0  0  0  0  0
  -18.0269  -26.0064   22.9028 H   0  0  0  0  0  0
  -19.7944  -30.7282   24.2241 H   0  0  0  0  0  0
  -17.5014  -31.6237   24.5236 H   0  0  0  0  0  0
  -15.5353  -30.2998   23.7608 H   0  0  0  0  0  0
  -15.8680  -28.0837   22.7004 H   0  0  0  0  0  0
  -24.6006  -30.6903   25.7861 H   0  0  0  0  0  0
  -24.8913  -32.2739   26.4959 H   0  0  0  0  0  0
  -25.8190  -30.8825   27.0247 H   0  0  0  0  0  0
  -26.2812  -29.6821   24.1155 H   0  0  0  0  0  0
  -27.4084  -29.7237   25.4517 H   0  0  0  0  0  0
  -27.8628  -30.4383   23.9215 H   0  0  0  0  0  0
  -27.2686  -33.3613   26.2026 H   0  0  0  0  0  0
  -28.3842  -32.6805   25.0288 H   0  0  0  0  0  0
  -28.0723  -31.8442   26.5421 H   0  0  0  0  0  0
  -28.2586  -38.0113   24.7508 H   0  0  0  0  0  0
  -28.1050  -36.2643   24.6296 H   0  0  0  0  0  0
  -27.2278  -37.1470   25.8871 H   0  0  0  0  0  0
  -20.9261  -29.8823   21.7033 H   0  0  0  0  0  0
  -26.0183  -38.2889   24.1423 H   0  0  0  0  0  0
  -31.4911  -17.0903   23.7151 H   0  0  0  0  0  0
  -32.7266  -16.5316   22.5339 H   0  0  0  0  0  0
  -28.1551  -17.3873   20.3282 H   0  0  0  0  0  0
  -29.0604  -16.1000   19.6254 H   0  0  0  0  0  0
  -25.9754  -21.5450   18.1012 H   0  0  0  0  0  0
  -26.1013  -21.5311   19.8553 H   0  0  0  0  0  0
  -30.4595  -14.9931   23.8593 H   0  0  0  0  0  0
  -31.9158  -14.3263   23.0562 H   0  0  0  0  0  0
  -25.6588  -23.8134   19.4960 H   0  0  0  0  0  0
  -26.5765  -23.8594   18.0075 H   0  0  0  0  0  0
  -29.7068  -22.8285   19.4843 H   0  0  0  0  0  0
  -28.7019  -22.2396   20.7990 H   0  0  0  0  0  0
  -31.5209  -19.3152   18.9459 H   0  0  0  0  0  0
  -30.7654  -20.6661   19.7054 H   0  0  0  0  0  0
  -28.3745  -21.6728   17.8481 H   0  0  0  0  0  0
  -28.2708  -17.7928   17.9660 H   0  0  0  0  0  0
  -31.2689  -17.2576   18.0986 H   0  0  0  0  0  0
  -30.4114  -17.8434   16.6692 H   0  0  0  0  0  0
  -30.0390  -16.2667   17.3473 H   0  0  0  0  0  0
  -31.0368  -21.1521   23.2966 H   0  0  0  0  0  0
  -29.5550  -20.5751   22.5445 H   0  0  0  0  0  0
  -30.6843  -21.6180   21.6583 H   0  0  0  0  0  0
  -27.3334  -19.5140   18.9696 H   0  0  0  0  0  0
  -28.1863  -19.9604   20.4009 H   0  0  0  0  0  0
  -31.5315  -18.9259   22.7346 H   0  0  0  0  0  0
  -32.3489  -19.8343   21.5096 H   0  0  0  0  0  0
  -26.6176  -24.9087   21.0905 H   0  0  0  0  0  0
  -27.7954  -23.9089   21.8320 H   0  0  0  0  0  0
  -29.6153  -25.4709   21.0956 H   0  0  0  0  0  0
  -28.4129  -26.2952   22.0532 H   0  0  0  0  0  0
  -28.2879  -24.4712   19.0551 H   0  0  0  0  0  0
  -29.5685  -19.7863   17.8390 H   0  0  0  0  0  0
  1 25  1  0  0  0
  1 30  2  0  0  0
  1 88  1  0  0  0
  2  3  1  0  0  0
  2 25  1  0  0  0
  2 92  1  0  0  0
  2 93  1  0  0  0
  3  4  1  0  0  0
  3 94  1  0  0  0
  3 95  1  0  0  0
  4  5  1  0  0  0
  4 96  1  0  0  0
  4 97  1  0  0  0
  5  6  1  0  0  0
  5 26  1  0  0  0
  5 98  1  0  0  0
  6 25  1  0  0  0
  6 99  1  0  0  0
  6100  1  0  0  0
  7  8  2  0  0  0
  7 26  1  0  0  0
  7 29  1  0  0  0
  8  9  1  0  0  0
  8 22  1  0  0  0
  9 10  1  0  0  0
  9 27  2  0  0  0
 10 11  2  0  0  0
 10 15  1  0  0  0
 11 12  1  0  0  0
 11101  1  0  0  0
 12 13  2  0  0  0
 12102  1  0  0  0
 13 14  1  0  0  0
 13 31  1  0  0  0
 14 15  2  0  0  0
 14103  1  0  0  0
 15104  1  0  0  0
 16 17  2  0  0  0
 16 21  1  0  0  0
 16 31  1  0  0  0
 17 18  1  0  0  0
 17105  1  0  0  0
 18 19  2  0  0  0
 18106  1  0  0  0
 19 20  1  0  0  0
 19 24  1  0  0  0
 20 21  2  0  0  0
 20107  1  0  0  0
 21 23  1  0  0  0
 22 28  1  0  0  0
 22 32  2  0  0  0
 26 27  1  0  0  0
 28108  1  0  0  0
 28109  1  0  0  0
 29110  1  0  0  0
 29111  1  0  0  0
 33 34  1  0  0  0
 33 66  1  0  0  0
 33 70  2  0  0  0
 34 36  1  0  0  0
 34 59  1  0  0  0
 34112  1  0  0  0
 35 44  2  0  0  0
 35 45  1  0  0  0
 35 68  1  0  0  0
 36 56  1  0  0  0
 36113  1  0  0  0
 37 39  1  0  0  0
 37 47  1  0  0  0
 37 66  1  0  0  0
 37114  1  0  0  0
 38 43  2  0  0  0
 38 46  1  0  0  0
 38 47  1  0  0  0
 39 64  1  0  0  0
 39 67  2  0  0  0
 40 52  1  0  0  0
 40 53  2  0  0  0
 40 58  1  0  0  0
 41115  1  0  0  0
 41116  1  0  0  0
 41117  1  0  0  0
 41 48  1  0  0  0
 42 43  1  0  0  0
 42 66  1  0  0  0
 42118  1  0  0  0
 42119  1  0  0  0
 43 44  1  0  0  0
 44120  1  0  0  0
 45 46  2  0  0  0
 45121  1  0  0  0
 46122  1  0  0  0
 47123  1  0  0  0
 47124  1  0  0  0
 48 56  1  0  0  0
 48 65  1  0  0  0
 48125  1  0  0  0
 49 50  1  0  0  0
 49 53  1  0  0  0
 49 64  1  0  0  0
 49126  1  0  0  0
 50 51  1  0  0  0
 50127  1  0  0  0
 50128  1  0  0  0
 51 52  1  0  0  0
 51129  1  0  0  0
 51130  1  0  0  0
 52131  1  0  0  0
 52132  1  0  0  0
 53 54  1  0  0  0
 54 55  2  0  0  0
 54133  1  0  0  0
 55 57  1  0  0  0
 55134  1  0  0  0
 56 69  2  0  0  0
 57 58  2  0  0  0
 57135  1  0  0  0
 58136  1  0  0  0
 59 60  1  0  0  0
 59 61  1  0  0  0
 59 62  1  0  0  0
 60137  1  0  0  0
 60138  1  0  0  0
 60139  1  0  0  0
 61140  1  0  0  0
 61141  1  0  0  0
 61142  1  0  0  0
 62143  1  0  0  0
 62144  1  0  0  0
 62145  1  0  0  0
 63 65  1  0  0  0
 63146  1  0  0  0
 63147  1  0  0  0
 63148  1  0  0  0
 64149  1  0  0  0
 65150  1  0  0  0
 68 87  1  0  0  0
 71 72  2  0  0  0
 71 73  1  0  0  0
 71 88  1  0  0  0
 72 74  1  0  0  0
 72 89  1  0  0  0
 73 76  1  0  0  0
 73151  1  0  0  0
 73152  1  0  0  0
 74 81  1  0  0  0
 74153  1  0  0  0
 74154  1  0  0  0
 75 77  1  0  0  0
 75 80  1  0  0  0
 75155  1  0  0  0
 75156  1  0  0  0
 76 88  1  0  0  0
 76157  1  0  0  0
 76158  1  0  0  0
 77 90  1  0  0  0
 77159  1  0  0  0
 77160  1  0  0  0
 78 80  1  0  0  0
 78 90  1  0  0  0
 78161  1  0  0  0
 78162  1  0  0  0
 79 89  1  0  0  0
 79 91  1  0  0  0
 79163  1  0  0  0
 79164  1  0  0  0
 80 84  1  0  0  0
 80165  1  0  0  0
 81 82  1  0  0  0
 81 91  1  0  0  0
 81166  1  0  0  0
 82167  1  0  0  0
 82168  1  0  0  0
 82169  1  0  0  0
 83 85  1  0  0  0
 83170  1  0  0  0
 83171  1  0  0  0
 83172  1  0  0  0
 84173  1  0  0  0
 84174  1  0  0  0
 84 91  1  0  0  0
 85 89  1  0  0  0
 85175  1  0  0  0
 85176  1  0  0  0
 86 87  1  0  0  0
 86177  1  0  0  0
 86178  1  0  0  0
 86 90  1  0  0  0
 87179  1  0  0  0
 87180  1  0  0  0
 90181  1  0  0  0
 91182  1  0  0  0
M  CHG  2  90   1  91   1
M  ISO  4   1 100  68 101  87 101  88 100
M  END
> <chiral flag>
0

> <version>
0

> <s_m_source_file>
/data/baiqing/PycharmProjects/Reinvent-master-3.2/result/LINK_invent/BTK/process_docking_weight1_custom_sum_contain_oxygen_bond_distance_aromatic_linkinvent_7_9_3/rearranged_h_0195.sdf

> <i_m_source_file_index>
45

> <r_mmod_Potential_Energy-OPLS-2005>
-20.5244178771973

> <r_mmod_Stretch_Energy-OPLS-2005>
41.6948738098145

> <r_mmod_Bend_Energy-OPLS-2005>
149.79866027832

> <r_mmod_Torsional_Energy-OPLS-2005>
391.603698730469

> <r_mmod_Improper_Torsional_Energy-OPLS-2005>
9.68219375610352

> <r_mmod_Van_der_Waal_Energy-OPLS-2005>
140.690032958984

> <r_mmod_Electrostatic_Energy-OPLS-2005>
110.756759643555

> <r_mmod_Solvation_Energy-OPLS-2005>
-872.086486816406

> <b_mmod_Minimization_Converged-OPLS-2005>
0

> <r_mmod_RMS_Derivative-OPLS-2005>
3.29786610603333

$$$$
46
                    3D
 Structure written by MMmdl.
163172  0  0  1  0            999 V2000
  -30.6663  -14.5621   20.5202 C   0  0  0  0  0  0
  -30.4291  -12.3511   19.4376 C   0  0  0  0  0  0
  -29.5017  -12.5023   18.2134 C   0  0  0  0  0  0
  -28.0237  -12.3484   18.6258 C   0  0  0  0  0  0
  -27.6548  -13.2111   19.8629 C   0  0  2  0  0  0
  -28.6996  -13.0478   20.9900 C   0  0  0  0  0  0
  -25.2567  -13.8159   20.5683 C   0  0  0  0  0  0
  -24.1826  -13.0440   20.9196 C   0  0  0  0  0  0
  -24.6371  -11.6906   20.8724 C   0  0  0  0  0  0
  -23.9033  -10.4298   21.0388 C   0  0  0  0  0  0
  -24.3596   -9.4217   21.9172 C   0  0  0  0  0  0
  -23.6281   -8.2243   22.0745 C   0  0  0  0  0  0
  -22.4267   -8.0268   21.3537 C   0  0  0  0  0  0
  -21.9893   -9.0238   20.4645 C   0  0  0  0  0  0
  -22.7204  -10.2126   20.3044 C   0  0  0  0  0  0
  -21.6853   -6.0715   22.5277 C   0  0  0  0  0  0
  -21.4008   -6.5622   23.8206 C   0  0  0  0  0  0
  -21.3666   -5.6775   24.9175 C   0  0  0  0  0  0
  -21.6052   -4.3037   24.7225 C   0  0  0  0  0  0
  -21.8823   -3.8128   23.4344 C   0  0  0  0  0  0
  -21.9196   -4.6943   22.3402 C   0  0  0  0  0  0
  -22.7855  -13.5242   21.1867 C   0  0  0  0  0  0
  -22.1667   -4.2130   21.0981 F   0  0  0  0  0  0
  -21.5640   -3.4522   25.7733 F   0  0  0  0  0  0
  -30.0205  -13.3639   20.4255 N   0  0  0  0  0  0
  -26.2988  -12.9329   20.3310 N   0  0  0  0  0  0
  -25.9299  -11.6487   20.5738 N   0  0  0  0  0  0
  -22.0481  -12.8238   22.0411 N   0  0  0  0  0  0
  -25.4271  -15.1879   20.4091 N   0  0  0  0  0  0
  -31.8247  -14.7203   20.1256 O   0  0  0  0  0  0
  -21.6642   -6.8859   21.4239 O   0  0  0  0  0  0
  -22.3554  -14.5545   20.6704 O   0  0  0  0  0  0
  -24.6209  -31.8640   23.2068 C   0  0  0  0  0  0
  -25.9081  -32.4795   23.8382 C   0  0  1  0  0  0
  -27.2261  -27.3729   20.1096 C   0  0  0  0  0  0
  -25.5931  -33.8595   24.2312 N   0  0  0  0  0  0
  -23.4122  -30.4878   21.5480 C   0  0  2  0  0  0
  -24.8598  -28.9508   20.1122 C   0  0  0  0  0  0
  -22.7453  -29.4637   22.4957 C   0  0  0  0  0  0
  -18.0271  -28.1386   22.8485 C   0  0  0  0  0  0
  -24.1489  -36.7291   23.2636 C   0  0  0  0  0  0
  -25.9482  -30.8109   21.3717 C   0  0  0  0  0  0
  -26.0244  -29.4424   20.7156 C   0  0  0  0  0  0
  -27.2126  -28.6632   20.7073 C   0  0  0  0  0  0
  -26.0461  -26.9273   19.4736 C   0  0  0  0  0  0
  -24.8687  -27.6960   19.4842 C   0  0  0  0  0  0
  -23.6246  -29.8236   20.1622 C   0  0  0  0  0  0
  -25.4105  -36.3085   24.0340 C   0  0  1  0  0  0
  -20.5871  -28.3677   23.1303 C   0  0  2  0  0  0
  -20.6764  -26.9409   22.5419 C   0  0  0  0  0  0
  -19.5749  -26.6388   21.5210 C   0  0  0  0  0  0
  -18.1922  -26.7934   22.1613 C   0  0  0  0  0  0
  -19.1525  -28.8845   23.2889 C   0  0  0  0  0  0
  -18.9452  -30.1451   23.8899 C   0  0  0  0  0  0
  -17.6455  -30.6592   24.0554 C   0  0  0  0  0  0
  -25.9045  -34.9461   23.5119 C   0  0  0  0  0  0
  -16.5343  -29.9086   23.6336 C   0  0  0  0  0  0
  -16.7259  -28.6507   23.0353 C   0  0  0  0  0  0
  -26.4494  -31.6586   25.0729 C   0  0  0  0  0  0
  -25.3749  -31.3708   26.1473 C   0  0  0  0  0  0
  -27.0325  -30.3012   24.6153 C   0  0  0  0  0  0
  -27.6071  -32.4307   25.7488 C   0  0  0  0  0  0
  -27.5589  -37.1778   24.8449 C   0  0  0  0  0  0
  -21.4170  -29.3030   22.3703 N   0  0  0  0  0  0
  -26.4274  -37.3791   23.9434 N   0  0  0  0  0  0
  -24.6786  -31.0704   22.0988 N   0  0  0  0  0  0
  -23.4203  -28.8186   23.3025 O   0  0  0  0  0  0
  -28.3553  -26.5590   20.1293 O   0  0  0  0  0  0
  -26.5598  -34.8922   22.4673 O   0  0  0  0  0  0
  -23.5387  -32.1412   23.7429 O   0  0  0  0  0  0
  -29.4961  -21.5121   19.9253 C   0  0  0  0  0  0
  -28.5497  -22.3904   21.8070 C   0  0  0  0  0  0
  -29.4169  -18.0000   21.7686 C   0  0  0  0  0  0
  -29.9819  -18.0189   19.8298 C   0  0  0  0  0  0
  -30.3395  -17.0550   20.9830 C   0  0  2  0  0  0
  -28.9229  -20.2356   20.6299 C   0  0  2  0  0  0
  -28.3718  -20.8608   21.9481 C   0  0  2  0  0  0
  -29.2420  -24.2309   18.5120 C   0  0  0  0  0  0
  -28.1469  -25.1810   20.5797 C   0  0  0  0  0  0
  -29.1097  -24.0533   20.0339 C   0  0  1  0  0  0
  -28.6711  -22.6585   20.3831 N   0  0  0  0  0  0
  -29.9114  -15.6272   20.8964 N   0  0  0  0  0  0
  -29.8751  -19.0824   20.8635 N   0  3  1  0  0  0
  -26.9857  -20.5948   22.1098 O   0  0  0  0  0  0
  -31.4729  -12.4599   19.1381 H   0  0  0  0  0  0
  -30.3439  -11.3504   19.8647 H   0  0  0  0  0  0
  -29.7604  -11.7648   17.4524 H   0  0  0  0  0  0
  -29.6537  -13.4804   17.7537 H   0  0  0  0  0  0
  -27.8527  -11.2944   18.8473 H   0  0  0  0  0  0
  -27.3700  -12.5913   17.7874 H   0  0  0  0  0  0
  -27.6806  -14.2502   19.5329 H   0  0  0  0  0  0
  -28.6947  -12.0259   21.3715 H   0  0  0  0  0  0
  -28.4575  -13.6824   21.8432 H   0  0  0  0  0  0
  -25.2736   -9.5702   22.4738 H   0  0  0  0  0  0
  -24.0002   -7.4636   22.7452 H   0  0  0  0  0  0
  -21.0824   -8.8732   19.8952 H   0  0  0  0  0  0
  -22.3643  -10.9649   19.6144 H   0  0  0  0  0  0
  -21.1981   -7.6126   23.9699 H   0  0  0  0  0  0
  -21.1498   -6.0507   25.9076 H   0  0  0  0  0  0
  -22.0595   -2.7590   23.2843 H   0  0  0  0  0  0
  -22.4089  -11.9907   22.4816 H   0  0  0  0  0  0
  -21.1094  -13.1268   22.2588 H   0  0  0  0  0  0
  -24.6519  -15.8347   20.5075 H   0  0  0  0  0  0
  -26.2645  -15.6264   20.0489 H   0  0  0  0  0  0
  -26.7147  -32.5490   23.1141 H   0  0  0  0  0  0
  -25.0117  -33.9755   25.0481 H   0  0  0  0  0  0
  -22.7027  -31.3059   21.4070 H   0  0  0  0  0  0
  -23.3770  -35.9602   23.3251 H   0  0  0  0  0  0
  -24.3601  -36.8954   22.2062 H   0  0  0  0  0  0
  -23.7214  -37.6472   23.6677 H   0  0  0  0  0  0
  -26.0738  -31.5773   20.6052 H   0  0  0  0  0  0
  -26.8309  -30.8599   21.9978 H   0  0  0  0  0  0
  -28.1081  -29.0339   21.1859 H   0  0  0  0  0  0
  -26.0222  -25.9760   18.9610 H   0  0  0  0  0  0
  -23.9770  -27.3192   19.0015 H   0  0  0  0  0  0
  -23.7391  -30.5989   19.4036 H   0  0  0  0  0  0
  -22.7486  -29.2457   19.8636 H   0  0  0  0  0  0
  -25.1277  -36.1930   25.0830 H   0  0  0  0  0  0
  -20.9954  -28.3240   24.1427 H   0  0  0  0  0  0
  -20.5674  -26.2283   23.3607 H   0  0  0  0  0  0
  -21.6635  -26.7455   22.1211 H   0  0  0  0  0  0
  -19.6917  -25.6299   21.1243 H   0  0  0  0  0  0
  -19.6709  -27.3191   20.6735 H   0  0  0  0  0  0
  -17.4211  -26.6692   21.3996 H   0  0  0  0  0  0
  -18.0309  -26.0072   22.9002 H   0  0  0  0  0  0
  -19.7925  -30.7255   24.2285 H   0  0  0  0  0  0
  -17.5012  -31.6272   24.5148 H   0  0  0  0  0  0
  -15.5346  -30.2983   23.7673 H   0  0  0  0  0  0
  -15.8657  -28.0824   22.7070 H   0  0  0  0  0  0
  -24.5944  -30.7027   25.7815 H   0  0  0  0  0  0
  -24.8911  -32.2862   26.4889 H   0  0  0  0  0  0
  -25.8105  -30.8916   27.0253 H   0  0  0  0  0  0
  -26.2874  -29.6767   24.1206 H   0  0  0  0  0  0
  -27.4059  -29.7268   25.4644 H   0  0  0  0  0  0
  -27.8738  -30.4298   23.9335 H   0  0  0  0  0  0
  -27.2695  -33.3605   26.2080 H   0  0  0  0  0  0
  -28.3872  -32.6867   25.0303 H   0  0  0  0  0  0
  -28.0756  -31.8420   26.5392 H   0  0  0  0  0  0
  -28.2543  -38.0136   24.7585 H   0  0  0  0  0  0
  -28.1141  -36.2672   24.6140 H   0  0  0  0  0  0
  -27.2330  -37.1267   25.8852 H   0  0  0  0  0  0
  -20.9343  -29.8750   21.6910 H   0  0  0  0  0  0
  -26.0150  -38.2852   24.1495 H   0  0  0  0  0  0
  -29.4761  -21.4050   18.8396 H   0  0  0  0  0  0
  -30.5375  -21.6668   20.2156 H   0  0  0  0  0  0
  -29.4689  -22.6880   22.3169 H   0  0  0  0  0  0
  -27.7381  -22.9549   22.2689 H   0  0  0  0  0  0
  -29.6963  -18.1433   22.8131 H   0  0  0  0  0  0
  -28.3510  -17.7779   21.6707 H   0  0  0  0  0  0
  -29.0385  -17.7901   19.3275 H   0  0  0  0  0  0
  -30.7845  -18.1922   19.1116 H   0  0  0  0  0  0
  -31.3824  -17.1631   21.2942 H   0  0  0  0  0  0
  -28.0861  -19.8719   20.0313 H   0  0  0  0  0  0
  -28.9075  -20.5146   22.8333 H   0  0  0  0  0  0
  -29.5818  -25.2370   18.2635 H   0  0  0  0  0  0
  -28.2883  -24.0746   18.0064 H   0  0  0  0  0  0
  -29.9694  -23.5436   18.0809 H   0  0  0  0  0  0
  -28.2338  -25.2094   21.6657 H   0  0  0  0  0  0
  -27.1290  -24.8379   20.4006 H   0  0  0  0  0  0
  -30.0965  -24.2312   20.4670 H   0  0  0  0  0  0
  -28.9614  -15.4129   21.1619 H   0  0  0  0  0  0
  -30.7874  -19.4016   21.1523 H   0  0  0  0  0  0
  -26.5314  -21.0703   21.4190 H   0  0  0  0  0  0
  1 25  1  0  0  0
  1 30  2  0  0  0
  1 82  1  0  0  0
  2  3  1  0  0  0
  2 25  1  0  0  0
  2 85  1  0  0  0
  2 86  1  0  0  0
  3  4  1  0  0  0
  3 87  1  0  0  0
  3 88  1  0  0  0
  4  5  1  0  0  0
  4 89  1  0  0  0
  4 90  1  0  0  0
  5  6  1  0  0  0
  5 26  1  0  0  0
  5 91  1  0  0  0
  6 25  1  0  0  0
  6 92  1  0  0  0
  6 93  1  0  0  0
  7  8  2  0  0  0
  7 26  1  0  0  0
  7 29  1  0  0  0
  8  9  1  0  0  0
  8 22  1  0  0  0
  9 10  1  0  0  0
  9 27  2  0  0  0
 10 11  2  0  0  0
 10 15  1  0  0  0
 11 12  1  0  0  0
 11 94  1  0  0  0
 12 13  2  0  0  0
 12 95  1  0  0  0
 13 14  1  0  0  0
 13 31  1  0  0  0
 14 15  2  0  0  0
 14 96  1  0  0  0
 15 97  1  0  0  0
 16 17  2  0  0  0
 16 21  1  0  0  0
 16 31  1  0  0  0
 17 18  1  0  0  0
 17 98  1  0  0  0
 18 19  2  0  0  0
 18 99  1  0  0  0
 19 20  1  0  0  0
 19 24  1  0  0  0
 20 21  2  0  0  0
 20100  1  0  0  0
 21 23  1  0  0  0
 22 28  1  0  0  0
 22 32  2  0  0  0
 26 27  1  0  0  0
 28101  1  0  0  0
 28102  1  0  0  0
 29103  1  0  0  0
 29104  1  0  0  0
 33 34  1  0  0  0
 33 66  1  0  0  0
 33 70  2  0  0  0
 34 36  1  0  0  0
 34 59  1  0  0  0
 34105  1  0  0  0
 35 44  2  0  0  0
 35 45  1  0  0  0
 35 68  1  0  0  0
 36 56  1  0  0  0
 36106  1  0  0  0
 37 39  1  0  0  0
 37 47  1  0  0  0
 37 66  1  0  0  0
 37107  1  0  0  0
 38 43  2  0  0  0
 38 46  1  0  0  0
 38 47  1  0  0  0
 39 64  1  0  0  0
 39 67  2  0  0  0
 40 52  1  0  0  0
 40 53  2  0  0  0
 40 58  1  0  0  0
 41108  1  0  0  0
 41109  1  0  0  0
 41110  1  0  0  0
 41 48  1  0  0  0
 42 43  1  0  0  0
 42 66  1  0  0  0
 42111  1  0  0  0
 42112  1  0  0  0
 43 44  1  0  0  0
 44113  1  0  0  0
 45 46  2  0  0  0
 45114  1  0  0  0
 46115  1  0  0  0
 47116  1  0  0  0
 47117  1  0  0  0
 48 56  1  0  0  0
 48 65  1  0  0  0
 48118  1  0  0  0
 49 50  1  0  0  0
 49 53  1  0  0  0
 49 64  1  0  0  0
 49119  1  0  0  0
 50 51  1  0  0  0
 50120  1  0  0  0
 50121  1  0  0  0
 51 52  1  0  0  0
 51122  1  0  0  0
 51123  1  0  0  0
 52124  1  0  0  0
 52125  1  0  0  0
 53 54  1  0  0  0
 54 55  2  0  0  0
 54126  1  0  0  0
 55 57  1  0  0  0
 55127  1  0  0  0
 56 69  2  0  0  0
 57 58  2  0  0  0
 57128  1  0  0  0
 58129  1  0  0  0
 59 60  1  0  0  0
 59 61  1  0  0  0
 59 62  1  0  0  0
 60130  1  0  0  0
 60131  1  0  0  0
 60132  1  0  0  0
 61133  1  0  0  0
 61134  1  0  0  0
 61135  1  0  0  0
 62136  1  0  0  0
 62137  1  0  0  0
 62138  1  0  0  0
 63 65  1  0  0  0
 63139  1  0  0  0
 63140  1  0  0  0
 63141  1  0  0  0
 64142  1  0  0  0
 65143  1  0  0  0
 68 79  1  0  0  0
 71 81  1  0  0  0
 71144  1  0  0  0
 71145  1  0  0  0
 71 76  1  0  0  0
 72 77  1  0  0  0
 72 81  1  0  0  0
 72146  1  0  0  0
 72147  1  0  0  0
 73 75  1  0  0  0
 73148  1  0  0  0
 73149  1  0  0  0
 73 83  1  0  0  0
 74 75  1  0  0  0
 74 83  1  0  0  0
 74150  1  0  0  0
 74151  1  0  0  0
 75 82  1  0  0  0
 75152  1  0  0  0
 76 77  1  0  0  0
 76 83  1  0  0  0
 76153  1  0  0  0
 77 84  1  0  0  0
 77154  1  0  0  0
 78155  1  0  0  0
 78156  1  0  0  0
 78157  1  0  0  0
 78 80  1  0  0  0
 79 80  1  0  0  0
 79158  1  0  0  0
 79159  1  0  0  0
 80 81  1  0  0  0
 80160  1  0  0  0
 82161  1  0  0  0
 83162  1  0  0  0
 84163  1  0  0  0
M  CHG  1  83   1
M  ISO  4   1 100  68 101  79 101  82 100
M  END
> <chiral flag>
0

> <version>
0

> <s_m_source_file>
/data/baiqing/PycharmProjects/Reinvent-master-3.2/result/LINK_invent/BTK/process_docking_weight1_custom_sum_contain_oxygen_bond_distance_aromatic_linkinvent_7_9_3/rearranged_h_0195.sdf

> <i_m_source_file_index>
46

> <r_mmod_Potential_Energy-OPLS-2005>
41.9347763061523

> <r_mmod_Stretch_Energy-OPLS-2005>
59.7062873840332

> <r_mmod_Bend_Energy-OPLS-2005>
179.24430847168

> <r_mmod_Torsional_Energy-OPLS-2005>
376.249877929688

> <r_mmod_Improper_Torsional_Energy-OPLS-2005>
4.09282779693604

> <r_mmod_Van_der_Waal_Energy-OPLS-2005>
130.899368286133

> <r_mmod_Electrostatic_Energy-OPLS-2005>
-245.89665222168

> <r_mmod_Solvation_Energy-OPLS-2005>
-491.053253173828

> <b_mmod_Minimization_Converged-OPLS-2005>
0

> <r_mmod_RMS_Derivative-OPLS-2005>
1.52578926086426

$$$$
47
                    3D
 Structure written by MMmdl.
177187  0  0  1  0            999 V2000
  -30.7360  -14.3998   20.6607 C   0  0  0  0  0  0
  -30.4041  -12.2856   19.4361 C   0  0  0  0  0  0
  -29.4911  -12.5270   18.2208 C   0  0  0  0  0  0
  -28.0126  -12.3818   18.6272 C   0  0  0  0  0  0
  -27.6647  -13.2028   19.8960 C   0  0  2  0  0  0
  -28.6970  -12.9600   21.0214 C   0  0  0  0  0  0
  -25.2610  -13.8160   20.5808 C   0  0  0  0  0  0
  -24.1819  -13.0464   20.9229 C   0  0  0  0  0  0
  -24.6383  -11.6930   20.8749 C   0  0  0  0  0  0
  -23.9109  -10.4303   21.0404 C   0  0  0  0  0  0
  -24.3649   -9.4228   21.9188 C   0  0  0  0  0  0
  -23.6313   -8.2256   22.0747 C   0  0  0  0  0  0
  -22.4291   -8.0316   21.3522 C   0  0  0  0  0  0
  -21.9943   -9.0302   20.4610 C   0  0  0  0  0  0
  -22.7291  -10.2170   20.3039 C   0  0  0  0  0  0
  -21.6863   -6.0753   22.5291 C   0  0  0  0  0  0
  -21.4030   -6.5652   23.8233 C   0  0  0  0  0  0
  -21.3659   -5.6800   24.9176 C   0  0  0  0  0  0
  -21.6036   -4.3064   24.7218 C   0  0  0  0  0  0
  -21.8831   -3.8157   23.4344 C   0  0  0  0  0  0
  -21.9177   -4.6971   22.3402 C   0  0  0  0  0  0
  -22.7848  -13.5257   21.1865 C   0  0  0  0  0  0
  -22.1636   -4.2182   21.0964 F   0  0  0  0  0  0
  -21.5646   -3.4531   25.7723 F   0  0  0  0  0  0
  -30.0354  -13.2510   20.4838 N   0  0  0  0  0  0
  -26.3036  -12.9333   20.3510 N   0  0  0  0  0  0
  -25.9285  -11.6503   20.5802 N   0  0  0  0  0  0
  -22.0474  -12.8199   22.0340 N   0  0  0  0  0  0
  -25.4454  -15.1866   20.4331 N   0  0  0  0  0  0
  -31.7988  -14.6321   20.0724 O   0  0  0  0  0  0
  -21.6616   -6.8924   21.4265 O   0  0  0  0  0  0
  -22.3533  -14.5640   20.6837 O   0  0  0  0  0  0
  -24.6090  -31.8750   23.2148 C   0  0  0  0  0  0
  -25.9004  -32.4845   23.8440 C   0  0  1  0  0  0
  -27.2237  -27.4625   20.0847 C   0  0  0  0  0  0
  -25.5887  -33.8654   24.2359 N   0  0  0  0  0  0
  -23.3934  -30.4972   21.5602 C   0  0  2  0  0  0
  -24.8423  -28.9655   20.1244 C   0  0  0  0  0  0
  -22.7388  -29.4659   22.5056 C   0  0  0  0  0  0
  -18.0254  -28.1350   22.8503 C   0  0  0  0  0  0
  -24.1489  -36.7295   23.2635 C   0  0  0  0  0  0
  -25.9259  -30.8342   21.3812 C   0  0  0  0  0  0
  -26.0011  -29.4737   20.7260 C   0  0  0  0  0  0
  -27.1980  -28.7234   20.7176 C   0  0  0  0  0  0
  -26.0572  -26.9706   19.4686 C   0  0  0  0  0  0
  -24.8586  -27.7052   19.5054 C   0  0  0  0  0  0
  -23.6041  -29.8311   20.1742 C   0  0  0  0  0  0
  -25.4114  -36.3119   24.0339 C   0  0  1  0  0  0
  -20.5842  -28.3617   23.1350 C   0  0  2  0  0  0
  -20.6737  -26.9359   22.5419 C   0  0  0  0  0  0
  -19.5711  -26.6359   21.5216 C   0  0  0  0  0  0
  -18.1895  -26.7898   22.1631 C   0  0  0  0  0  0
  -19.1501  -28.8806   23.2918 C   0  0  0  0  0  0
  -18.9443  -30.1424   23.8904 C   0  0  0  0  0  0
  -17.6443  -30.6570   24.0544 C   0  0  0  0  0  0
  -25.9045  -34.9484   23.5145 C   0  0  0  0  0  0
  -16.5330  -29.9066   23.6323 C   0  0  0  0  0  0
  -16.7243  -28.6471   23.0369 C   0  0  0  0  0  0
  -26.4451  -31.6627   25.0771 C   0  0  0  0  0  0
  -25.3712  -31.3746   26.1514 C   0  0  0  0  0  0
  -27.0307  -30.3065   24.6189 C   0  0  0  0  0  0
  -27.6040  -32.4361   25.7513 C   0  0  0  0  0  0
  -27.5581  -37.1807   24.8461 C   0  0  0  0  0  0
  -21.4124  -29.2992   22.3783 N   0  0  0  0  0  0
  -26.4297  -37.3800   23.9402 N   0  0  0  0  0  0
  -24.6601  -31.0846   22.1082 N   0  0  0  0  0  0
  -23.4172  -28.8186   23.3072 O   0  0  0  0  0  0
  -28.3752  -26.7172   20.0168 O   0  0  0  0  0  0
  -26.5591  -34.8921   22.4695 O   0  0  0  0  0  0
  -23.5294  -32.1480   23.7562 O   0  0  0  0  0  0
  -30.1813  -22.4068   18.3281 C   0  0  0  0  0  0
  -30.2651  -21.6617   20.4254 C   0  0  0  0  0  0
  -28.6801  -23.0670   19.7893 C   0  0  0  0  0  0
  -30.9806  -19.9038   23.7502 C   0  0  0  0  0  0
  -32.5180  -19.0826   22.1164 C   0  0  0  0  0  0
  -30.1698  -20.6702   22.6825 C   0  0  0  0  0  0
  -31.7875  -19.7921   20.9639 C   0  0  0  0  0  0
  -32.1280  -17.6146   24.2706 C   0  0  0  0  0  0
  -30.5318  -17.4772   22.8409 C   0  0  1  0  0  0
  -31.5500  -18.5834   23.2077 C   0  0  0  0  0  0
  -30.8150  -22.4863   16.9492 C   0  0  0  0  0  0
  -30.6328  -16.7274   21.4905 C   0  0  0  0  0  0
  -27.5993  -24.7064   21.2610 C   0  0  0  0  0  0
  -28.6082  -25.8707   21.1447 C   0  0  0  0  0  0
  -30.8138  -21.6344   19.2162 N   0  0  0  0  0  0
  -29.0950  -23.1389   18.5445 N   0  0  0  0  0  0
  -29.1995  -22.3688   20.7833 N   0  0  0  0  0  0
  -30.8803  -20.8685   21.4074 N   0  0  0  0  0  0
  -27.5955  -23.8555   20.0710 N   0  0  0  0  0  0
  -30.1832  -15.3270   21.4700 N   0  0  0  0  0  0
  -30.9999  -16.7175   23.9928 N   0  3  0  0  0  0
  -32.2242  -22.1214   17.0956 N   0  3  0  0  0  0
  -31.4589  -12.3568   19.1567 H   0  0  0  0  0  0
  -30.2662  -11.2705   19.8140 H   0  0  0  0  0  0
  -29.7321  -11.8238   17.4189 H   0  0  0  0  0  0
  -29.6733  -13.5267   17.8208 H   0  0  0  0  0  0
  -27.8266  -11.3263   18.8161 H   0  0  0  0  0  0
  -27.3522  -12.6643   17.8056 H   0  0  0  0  0  0
  -27.7212  -14.2553   19.6131 H   0  0  0  0  0  0
  -28.6671  -11.9224   21.3584 H   0  0  0  0  0  0
  -28.4534  -13.5487   21.9072 H   0  0  0  0  0  0
  -25.2792   -9.5723   22.4744 H   0  0  0  0  0  0
  -24.0032   -7.4655   22.7469 H   0  0  0  0  0  0
  -21.0878   -8.8811   19.8908 H   0  0  0  0  0  0
  -22.3752  -10.9687   19.6134 H   0  0  0  0  0  0
  -21.2014   -7.6154   23.9751 H   0  0  0  0  0  0
  -21.1491   -6.0515   25.9090 H   0  0  0  0  0  0
  -22.0600   -2.7627   23.2822 H   0  0  0  0  0  0
  -22.4135  -11.9835   22.4581 H   0  0  0  0  0  0
  -21.1149  -13.1236   22.2684 H   0  0  0  0  0  0
  -24.7047  -15.8594   20.5983 H   0  0  0  0  0  0
  -26.3162  -15.6127   20.1460 H   0  0  0  0  0  0
  -26.7081  -32.5552   23.1215 H   0  0  0  0  0  0
  -25.0078  -33.9860   25.0537 H   0  0  0  0  0  0
  -22.6757  -31.3108   21.4249 H   0  0  0  0  0  0
  -23.3767  -35.9616   23.3327 H   0  0  0  0  0  0
  -24.3582  -36.8880   22.2041 H   0  0  0  0  0  0
  -23.7228  -37.6503   23.6638 H   0  0  0  0  0  0
  -26.0604  -31.6082   20.6241 H   0  0  0  0  0  0
  -26.8010  -30.8678   22.0164 H   0  0  0  0  0  0
  -28.0916  -29.1086   21.1890 H   0  0  0  0  0  0
  -26.0759  -26.0173   18.9626 H   0  0  0  0  0  0
  -23.9673  -27.3024   19.0439 H   0  0  0  0  0  0
  -23.7106  -30.6066   19.4153 H   0  0  0  0  0  0
  -22.7266  -29.2553   19.8718 H   0  0  0  0  0  0
  -25.1299  -36.1993   25.0835 H   0  0  0  0  0  0
  -20.9934  -28.3146   24.1472 H   0  0  0  0  0  0
  -20.5645  -26.2209   23.3599 H   0  0  0  0  0  0
  -21.6612  -26.7414   22.1196 H   0  0  0  0  0  0
  -19.6864  -25.6281   21.1220 H   0  0  0  0  0  0
  -19.6654  -27.3193   20.6767 H   0  0  0  0  0  0
  -17.4168  -26.6657   21.4027 H   0  0  0  0  0  0
  -18.0289  -26.0045   22.9023 H   0  0  0  0  0  0
  -19.7925  -30.7226   24.2284 H   0  0  0  0  0  0
  -17.5008  -31.6262   24.5126 H   0  0  0  0  0  0
  -15.5333  -30.2969   23.7670 H   0  0  0  0  0  0
  -15.8635  -28.0785   22.7120 H   0  0  0  0  0  0
  -24.5858  -30.7147   25.7805 H   0  0  0  0  0  0
  -24.8952  -32.2933   26.4963 H   0  0  0  0  0  0
  -25.8039  -30.8868   27.0258 H   0  0  0  0  0  0
  -26.2890  -29.6829   24.1193 H   0  0  0  0  0  0
  -27.4000  -29.7298   25.4677 H   0  0  0  0  0  0
  -27.8757  -30.4365   23.9424 H   0  0  0  0  0  0
  -27.2665  -33.3672   26.2073 H   0  0  0  0  0  0
  -28.3840  -32.6901   25.0325 H   0  0  0  0  0  0
  -28.0715  -31.8500   26.5439 H   0  0  0  0  0  0
  -28.2598  -38.0102   24.7530 H   0  0  0  0  0  0
  -28.1088  -36.2645   24.6289 H   0  0  0  0  0  0
  -27.2297  -37.1426   25.8858 H   0  0  0  0  0  0
  -20.9281  -29.8759   21.7059 H   0  0  0  0  0  0
  -26.0195  -38.2886   24.1405 H   0  0  0  0  0  0
  -30.3497  -19.7275   24.6224 H   0  0  0  0  0  0
  -31.7849  -20.5512   24.1093 H   0  0  0  0  0  0
  -33.2499  -19.7747   22.5344 H   0  0  0  0  0  0
  -33.1325  -18.2725   21.7199 H   0  0  0  0  0  0
  -29.9171  -21.6470   23.1033 H   0  0  0  0  0  0
  -29.2204  -20.1665   22.4948 H   0  0  0  0  0  0
  -31.2341  -19.0850   20.3453 H   0  0  0  0  0  0
  -32.5600  -20.2057   20.3139 H   0  0  0  0  0  0
  -32.5582  -16.6590   23.9627 H   0  0  0  0  0  0
  -33.1998  -17.7240   24.1050 H   0  0  0  0  0  0
  -29.5111  -17.8070   23.0503 H   0  0  0  0  0  0
  -30.7228  -23.4909   16.5274 H   0  0  0  0  0  0
  -30.3102  -21.7887   16.2819 H   0  0  0  0  0  0
  -30.0435  -17.2594   20.7396 H   0  0  0  0  0  0
  -31.6592  -16.7867   21.1305 H   0  0  0  0  0  0
  -26.5956  -25.0927   21.4345 H   0  0  0  0  0  0
  -27.8420  -24.1045   22.1389 H   0  0  0  0  0  0
  -29.6151  -25.4604   21.0570 H   0  0  0  0  0  0
  -28.6000  -26.4566   22.0669 H   0  0  0  0  0  0
  -27.2331  -24.3049   19.2403 H   0  0  0  0  0  0
  -29.2842  -15.0981   21.8725 H   0  0  0  0  0  0
  -30.3323  -16.7342   24.7489 H   0  0  0  0  0  0
  -31.2795  -15.7725   23.7796 H   0  0  0  0  0  0
  -32.7909  -22.9331   17.2589 H   0  0  0  0  0  0
  -32.5616  -21.5654   16.3337 H   0  0  0  0  0  0
  -32.1664  -21.5871   17.9557 H   0  0  0  0  0  0
  1 25  1  0  0  0
  1 30  2  0  0  0
  1 90  1  0  0  0
  2  3  1  0  0  0
  2 25  1  0  0  0
  2 93  1  0  0  0
  2 94  1  0  0  0
  3  4  1  0  0  0
  3 95  1  0  0  0
  3 96  1  0  0  0
  4  5  1  0  0  0
  4 97  1  0  0  0
  4 98  1  0  0  0
  5  6  1  0  0  0
  5 26  1  0  0  0
  5 99  1  0  0  0
  6 25  1  0  0  0
  6100  1  0  0  0
  6101  1  0  0  0
  7  8  2  0  0  0
  7 26  1  0  0  0
  7 29  1  0  0  0
  8  9  1  0  0  0
  8 22  1  0  0  0
  9 10  1  0  0  0
  9 27  2  0  0  0
 10 11  2  0  0  0
 10 15  1  0  0  0
 11 12  1  0  0  0
 11102  1  0  0  0
 12 13  2  0  0  0
 12103  1  0  0  0
 13 14  1  0  0  0
 13 31  1  0  0  0
 14 15  2  0  0  0
 14104  1  0  0  0
 15105  1  0  0  0
 16 17  2  0  0  0
 16 21  1  0  0  0
 16 31  1  0  0  0
 17 18  1  0  0  0
 17106  1  0  0  0
 18 19  2  0  0  0
 18107  1  0  0  0
 19 20  1  0  0  0
 19 24  1  0  0  0
 20 21  2  0  0  0
 20108  1  0  0  0
 21 23  1  0  0  0
 22 28  1  0  0  0
 22 32  2  0  0  0
 26 27  1  0  0  0
 28109  1  0  0  0
 28110  1  0  0  0
 29111  1  0  0  0
 29112  1  0  0  0
 33 34  1  0  0  0
 33 66  1  0  0  0
 33 70  2  0  0  0
 34 36  1  0  0  0
 34 59  1  0  0  0
 34113  1  0  0  0
 35 44  2  0  0  0
 35 45  1  0  0  0
 35 68  1  0  0  0
 36 56  1  0  0  0
 36114  1  0  0  0
 37 39  1  0  0  0
 37 47  1  0  0  0
 37 66  1  0  0  0
 37115  1  0  0  0
 38 43  2  0  0  0
 38 46  1  0  0  0
 38 47  1  0  0  0
 39 64  1  0  0  0
 39 67  2  0  0  0
 40 52  1  0  0  0
 40 53  2  0  0  0
 40 58  1  0  0  0
 41116  1  0  0  0
 41117  1  0  0  0
 41118  1  0  0  0
 41 48  1  0  0  0
 42 43  1  0  0  0
 42 66  1  0  0  0
 42119  1  0  0  0
 42120  1  0  0  0
 43 44  1  0  0  0
 44121  1  0  0  0
 45 46  2  0  0  0
 45122  1  0  0  0
 46123  1  0  0  0
 47124  1  0  0  0
 47125  1  0  0  0
 48 56  1  0  0  0
 48 65  1  0  0  0
 48126  1  0  0  0
 49 50  1  0  0  0
 49 53  1  0  0  0
 49 64  1  0  0  0
 49127  1  0  0  0
 50 51  1  0  0  0
 50128  1  0  0  0
 50129  1  0  0  0
 51 52  1  0  0  0
 51130  1  0  0  0
 51131  1  0  0  0
 52132  1  0  0  0
 52133  1  0  0  0
 53 54  1  0  0  0
 54 55  2  0  0  0
 54134  1  0  0  0
 55 57  1  0  0  0
 55135  1  0  0  0
 56 69  2  0  0  0
 57 58  2  0  0  0
 57136  1  0  0  0
 58137  1  0  0  0
 59 60  1  0  0  0
 59 61  1  0  0  0
 59 62  1  0  0  0
 60138  1  0  0  0
 60139  1  0  0  0
 60140  1  0  0  0
 61141  1  0  0  0
 61142  1  0  0  0
 61143  1  0  0  0
 62144  1  0  0  0
 62145  1  0  0  0
 62146  1  0  0  0
 63 65  1  0  0  0
 63147  1  0  0  0
 63148  1  0  0  0
 63149  1  0  0  0
 64150  1  0  0  0
 65151  1  0  0  0
 68 84  1  0  0  0
 71 81  1  0  0  0
 71 85  2  0  0  0
 71 86  1  0  0  0
 72 85  1  0  0  0
 72 87  2  0  0  0
 72 88  1  0  0  0
 73 86  2  0  0  0
 73 87  1  0  0  0
 73 89  1  0  0  0
 74 76  1  0  0  0
 74152  1  0  0  0
 74153  1  0  0  0
 74 80  1  0  0  0
 75 77  1  0  0  0
 75 80  1  0  0  0
 75154  1  0  0  0
 75155  1  0  0  0
 76 88  1  0  0  0
 76156  1  0  0  0
 76157  1  0  0  0
 77 88  1  0  0  0
 77158  1  0  0  0
 77159  1  0  0  0
 78 80  1  0  0  0
 78 91  1  0  0  0
 78160  1  0  0  0
 78161  1  0  0  0
 79 80  1  0  0  0
 79 82  1  0  0  0
 79 91  1  0  0  0
 79162  1  0  0  0
 81 92  1  0  0  0
 81163  1  0  0  0
 81164  1  0  0  0
 82 90  1  0  0  0
 82165  1  0  0  0
 82166  1  0  0  0
 83 84  1  0  0  0
 83 89  1  0  0  0
 83167  1  0  0  0
 83168  1  0  0  0
 84169  1  0  0  0
 84170  1  0  0  0
 89171  1  0  0  0
 90172  1  0  0  0
 91173  1  0  0  0
 91174  1  0  0  0
 92175  1  0  0  0
 92176  1  0  0  0
 92177  1  0  0  0
M  CHG  2  91   1  92   1
M  ISO  4   1 100  68 101  84 101  90 100
M  END
> <chiral flag>
0

> <version>
0

> <s_m_source_file>
/data/baiqing/PycharmProjects/Reinvent-master-3.2/result/LINK_invent/BTK/process_docking_weight1_custom_sum_contain_oxygen_bond_distance_aromatic_linkinvent_7_9_3/rearranged_h_0195.sdf

> <i_m_source_file_index>
47

> <r_mmod_Potential_Energy-OPLS-2005>
-1335.82067871094

> <r_mmod_Stretch_Energy-OPLS-2005>
38.8327026367188

> <r_mmod_Bend_Energy-OPLS-2005>
296.690856933594

> <r_mmod_Torsional_Energy-OPLS-2005>
351.116729736328

> <r_mmod_Improper_Torsional_Energy-OPLS-2005>
8.5892162322998

> <r_mmod_Van_der_Waal_Energy-OPLS-2005>
218.858749389648

> <r_mmod_Electrostatic_Energy-OPLS-2005>
-1294.18530273438

> <r_mmod_Solvation_Energy-OPLS-2005>
-963.954772949219

> <b_mmod_Minimization_Converged-OPLS-2005>
0

> <r_mmod_RMS_Derivative-OPLS-2005>
6.83242416381836

$$$$
48
                    3D
 Structure written by MMmdl.
172181  0  0  1  0            999 V2000
  -30.7680  -14.3917   20.6827 C   0  0  0  0  0  0
  -30.4022  -12.3004   19.4164 C   0  0  0  0  0  0
  -29.4852  -12.5221   18.1966 C   0  0  0  0  0  0
  -28.0063  -12.3720   18.5967 C   0  0  0  0  0  0
  -27.6511  -13.2076   19.8513 C   0  0  2  0  0  0
  -28.6744  -12.9762   20.9786 C   0  0  0  0  0  0
  -25.2516  -13.8166   20.5558 C   0  0  0  0  0  0
  -24.1795  -13.0419   20.9143 C   0  0  0  0  0  0
  -24.6358  -11.6900   20.8696 C   0  0  0  0  0  0
  -23.9037  -10.4274   21.0385 C   0  0  0  0  0  0
  -24.3606   -9.4192   21.9155 C   0  0  0  0  0  0
  -23.6284   -8.2235   22.0744 C   0  0  0  0  0  0
  -22.4241   -8.0274   21.3562 C   0  0  0  0  0  0
  -21.9882   -9.0231   20.4645 C   0  0  0  0  0  0
  -22.7219  -10.2105   20.3029 C   0  0  0  0  0  0
  -21.6839   -6.0729   22.5290 C   0  0  0  0  0  0
  -21.3990   -6.5638   23.8219 C   0  0  0  0  0  0
  -21.3649   -5.6791   24.9189 C   0  0  0  0  0  0
  -21.6054   -4.3055   24.7234 C   0  0  0  0  0  0
  -21.8811   -3.8141   23.4353 C   0  0  0  0  0  0
  -21.9180   -4.6963   22.3408 C   0  0  0  0  0  0
  -22.7826  -13.5225   21.1847 C   0  0  0  0  0  0
  -22.1649   -4.2153   21.0991 F   0  0  0  0  0  0
  -21.5638   -3.4529   25.7745 F   0  0  0  0  0  0
  -30.0265  -13.2667   20.4664 N   0  0  0  0  0  0
  -26.2933  -12.9328   20.3165 N   0  0  0  0  0  0
  -25.9266  -11.6489   20.5638 N   0  0  0  0  0  0
  -22.0486  -12.8225   22.0449 N   0  0  0  0  0  0
  -25.4232  -15.1870   20.3924 N   0  0  0  0  0  0
  -31.8227  -14.6011   20.0693 O   0  0  0  0  0  0
  -21.6606   -6.8867   21.4249 O   0  0  0  0  0  0
  -22.3492  -14.5508   20.6680 O   0  0  0  0  0  0
  -24.6218  -31.8740   23.2156 C   0  0  0  0  0  0
  -25.9113  -32.4865   23.8467 C   0  0  1  0  0  0
  -27.2140  -27.4391   20.0896 C   0  0  0  0  0  0
  -25.5981  -33.8660   24.2460 N   0  0  0  0  0  0
  -23.4087  -30.5036   21.5579 C   0  0  2  0  0  0
  -24.8428  -28.9713   20.1226 C   0  0  0  0  0  0
  -22.7441  -29.4720   22.4990 C   0  0  0  0  0  0
  -18.0276  -28.1415   22.8519 C   0  0  0  0  0  0
  -24.1479  -36.7297   23.2621 C   0  0  0  0  0  0
  -25.9385  -30.8366   21.3735 C   0  0  0  0  0  0
  -26.0062  -29.4751   20.7134 C   0  0  0  0  0  0
  -27.1967  -28.7183   20.6908 C   0  0  0  0  0  0
  -26.0247  -26.9411   19.5065 C   0  0  0  0  0  0
  -24.8435  -27.7020   19.5220 C   0  0  0  0  0  0
  -23.6180  -29.8498   20.1669 C   0  0  0  0  0  0
  -25.4086  -36.3153   24.0375 C   0  0  1  0  0  0
  -20.5871  -28.3744   23.1302 C   0  0  2  0  0  0
  -20.6786  -26.9507   22.5374 C   0  0  0  0  0  0
  -19.5746  -26.6413   21.5203 C   0  0  0  0  0  0
  -18.1934  -26.7955   22.1652 C   0  0  0  0  0  0
  -19.1519  -28.8890   23.2927 C   0  0  0  0  0  0
  -18.9468  -30.1478   23.8977 C   0  0  0  0  0  0
  -17.6477  -30.6644   24.0603 C   0  0  0  0  0  0
  -25.8998  -34.9512   23.5193 C   0  0  0  0  0  0
  -16.5372  -29.9147   23.6347 C   0  0  0  0  0  0
  -16.7258  -28.6540   23.0390 C   0  0  0  0  0  0
  -26.4545  -31.6594   25.0784 C   0  0  0  0  0  0
  -25.3800  -31.3714   26.1517 C   0  0  0  0  0  0
  -27.0380  -30.3031   24.6157 C   0  0  0  0  0  0
  -27.6156  -32.4294   25.7527 C   0  0  0  0  0  0
  -27.5602  -37.1793   24.8460 C   0  0  0  0  0  0
  -21.4160  -29.3174   22.3783 N   0  0  0  0  0  0
  -26.4306  -37.3826   23.9419 N   0  0  0  0  0  0
  -24.6749  -31.0872   22.1045 N   0  0  0  0  0  0
  -23.4204  -28.8157   23.2949 O   0  0  0  0  0  0
  -28.4032  -26.7405   20.0832 O   0  0  0  0  0  0
  -26.5484  -34.8945   22.4707 O   0  0  0  0  0  0
  -23.5395  -32.1510   23.7529 O   0  0  0  0  0  0
  -27.7575  -20.5237   24.6436 C   0  0  0  0  0  0
  -28.6381  -19.4849   24.3046 C   0  0  0  0  0  0
  -26.1054  -19.4520   23.2406 C   0  0  0  0  0  0
  -26.4764  -20.5371   24.0577 C   0  0  0  0  0  0
  -28.2007  -18.4813   23.4256 C   0  0  0  0  0  0
  -28.8532  -16.1506   23.3488 C   0  0  0  0  0  0
  -29.4351  -17.7245   21.5518 C   0  0  0  0  0  0
  -30.0228  -15.2457   22.8953 C   0  0  0  0  0  0
  -30.5572  -16.7719   21.1145 C   0  0  0  0  0  0
  -25.5118  -21.6915   24.3095 C   0  0  0  0  0  0
  -25.4082  -22.6605   23.1122 C   0  0  0  0  0  0
  -26.7912  -23.8873   21.4171 C   0  0  0  0  0  0
  -28.4027  -25.3113   19.9315 C   0  0  0  0  0  0
  -28.1805  -24.5445   21.2649 C   0  0  1  0  0  0
  -26.9504  -18.4486   22.9256 N   0  0  0  0  0  0
  -29.1197  -17.5337   22.9637 N   0  0  0  0  0  0
  -30.2206  -15.3755   21.4386 N   0  0  0  0  0  0
  -28.4027  -25.4422   22.3928 N   0  0  0  0  0  0
  -26.7340  -23.1839   22.7138 N   0  3  0  0  0  0
  -31.4499  -12.3793   19.1221 H   0  0  0  0  0  0
  -30.2824  -11.2849   19.7956 H   0  0  0  0  0  0
  -29.7312  -11.8111   17.4056 H   0  0  0  0  0  0
  -29.6545  -13.5156   17.7773 H   0  0  0  0  0  0
  -27.8184  -11.3152   18.7890 H   0  0  0  0  0  0
  -27.3595  -12.6431   17.7623 H   0  0  0  0  0  0
  -27.6976  -14.2575   19.5582 H   0  0  0  0  0  0
  -28.6360  -11.9389   21.3149 H   0  0  0  0  0  0
  -28.3736  -13.5718   21.8341 H   0  0  0  0  0  0
  -25.2762   -9.5657   22.4718 H   0  0  0  0  0  0
  -23.9985   -7.4608   22.7461 H   0  0  0  0  0  0
  -21.0803   -8.8733   19.8966 H   0  0  0  0  0  0
  -22.3670  -10.9617   19.6114 H   0  0  0  0  0  0
  -21.1958   -7.6144   23.9733 H   0  0  0  0  0  0
  -21.1493   -6.0522   25.9102 H   0  0  0  0  0  0
  -22.0598   -2.7607   23.2853 H   0  0  0  0  0  0
  -22.4100  -11.9886   22.4821 H   0  0  0  0  0  0
  -21.1113  -13.1250   22.2668 H   0  0  0  0  0  0
  -24.6538  -15.8436   20.4682 H   0  0  0  0  0  0
  -26.2829  -15.6194   20.0757 H   0  0  0  0  0  0
  -26.7225  -32.5558   23.1257 H   0  0  0  0  0  0
  -25.0436  -33.9815   25.0826 H   0  0  0  0  0  0
  -22.7052  -31.3274   21.4224 H   0  0  0  0  0  0
  -23.3814  -35.9559   23.3266 H   0  0  0  0  0  0
  -24.3620  -36.8880   22.2042 H   0  0  0  0  0  0
  -23.7147  -37.6478   23.6598 H   0  0  0  0  0  0
  -26.0641  -31.6092   20.6143 H   0  0  0  0  0  0
  -26.8191  -30.8739   22.0018 H   0  0  0  0  0  0
  -28.1043  -29.1066   21.1359 H   0  0  0  0  0  0
  -25.9753  -25.9851   19.0138 H   0  0  0  0  0  0
  -23.9443  -27.3096   19.0672 H   0  0  0  0  0  0
  -23.7559  -30.6330   19.4185 H   0  0  0  0  0  0
  -22.7352  -29.2920   19.8540 H   0  0  0  0  0  0
  -25.1268  -36.2060   25.0885 H   0  0  0  0  0  0
  -20.9979  -28.3283   24.1400 H   0  0  0  0  0  0
  -20.5685  -26.2393   23.3580 H   0  0  0  0  0  0
  -21.6666  -26.7603   22.1159 H   0  0  0  0  0  0
  -19.6944  -25.6299   21.1334 H   0  0  0  0  0  0
  -19.6693  -27.3177   20.6700 H   0  0  0  0  0  0
  -17.4160  -26.6645   21.4107 H   0  0  0  0  0  0
  -18.0429  -26.0126   22.9095 H   0  0  0  0  0  0
  -19.7931  -30.7239   24.2447 H   0  0  0  0  0  0
  -17.5055  -31.6324   24.5238 H   0  0  0  0  0  0
  -15.5388  -30.3070   23.7678 H   0  0  0  0  0  0
  -15.8643  -28.0835   22.7144 H   0  0  0  0  0  0
  -24.5989  -30.7051   25.7862 H   0  0  0  0  0  0
  -24.8978  -32.2875   26.4933 H   0  0  0  0  0  0
  -25.8118  -30.8909   27.0300 H   0  0  0  0  0  0
  -26.2947  -29.6777   24.1186 H   0  0  0  0  0  0
  -27.4161  -29.7273   25.4611 H   0  0  0  0  0  0
  -27.8799  -30.4397   23.9359 H   0  0  0  0  0  0
  -27.2860  -33.3643   26.2082 H   0  0  0  0  0  0
  -28.3965  -32.6729   25.0318 H   0  0  0  0  0  0
  -28.0859  -31.8408   26.5405 H   0  0  0  0  0  0
  -28.2617  -38.0097   24.7581 H   0  0  0  0  0  0
  -28.1114  -36.2637   24.6244 H   0  0  0  0  0  0
  -27.2328  -37.1410   25.8863 H   0  0  0  0  0  0
  -20.9321  -29.9259   21.7352 H   0  0  0  0  0  0
  -26.0224  -38.2929   24.1413 H   0  0  0  0  0  0
  -28.0780  -21.3133   25.3081 H   0  0  0  0  0  0
  -29.6469  -19.4808   24.6950 H   0  0  0  0  0  0
  -25.1219  -19.3997   22.7988 H   0  0  0  0  0  0
  -28.7274  -16.0952   24.4309 H   0  0  0  0  0  0
  -27.9138  -15.8173   22.9062 H   0  0  0  0  0  0
  -28.5430  -17.5635   20.9447 H   0  0  0  0  0  0
  -29.7440  -18.7567   21.3832 H   0  0  0  0  0  0
  -29.8610  -14.2152   23.2102 H   0  0  0  0  0  0
  -30.9372  -15.5580   23.4039 H   0  0  0  0  0  0
  -31.4874  -17.0383   21.6188 H   0  0  0  0  0  0
  -30.7330  -16.9080   20.0459 H   0  0  0  0  0  0
  -25.8071  -22.2305   25.2112 H   0  0  0  0  0  0
  -24.5225  -21.2798   24.5214 H   0  0  0  0  0  0
  -24.7486  -23.4950   23.3621 H   0  0  0  0  0  0
  -24.9503  -22.1405   22.2698 H   0  0  0  0  0  0
  -26.6261  -23.1675   20.6128 H   0  0  0  0  0  0
  -25.9942  -24.6295   21.3440 H   0  0  0  0  0  0
  -27.7660  -24.9407   19.1288 H   0  0  0  0  0  0
  -29.4078  -25.0687   19.5871 H   0  0  0  0  0  0
  -28.9330  -23.7523   21.3225 H   0  0  0  0  0  0
  -27.8871  -26.2953   22.1887 H   0  0  0  0  0  0
  -29.3650  -25.7609   22.3283 H   0  0  0  0  0  0
  -27.3830  -22.4152   22.6851 H   0  0  0  0  0  0
  -27.0824  -23.8464   23.3898 H   0  0  0  0  0  0
  1 25  1  0  0  0
  1 30  2  0  0  0
  1 87  1  0  0  0
  2  3  1  0  0  0
  2 25  1  0  0  0
  2 90  1  0  0  0
  2 91  1  0  0  0
  3  4  1  0  0  0
  3 92  1  0  0  0
  3 93  1  0  0  0
  4  5  1  0  0  0
  4 94  1  0  0  0
  4 95  1  0  0  0
  5  6  1  0  0  0
  5 26  1  0  0  0
  5 96  1  0  0  0
  6 25  1  0  0  0
  6 97  1  0  0  0
  6 98  1  0  0  0
  7  8  2  0  0  0
  7 26  1  0  0  0
  7 29  1  0  0  0
  8  9  1  0  0  0
  8 22  1  0  0  0
  9 10  1  0  0  0
  9 27  2  0  0  0
 10 11  2  0  0  0
 10 15  1  0  0  0
 11 12  1  0  0  0
 11 99  1  0  0  0
 12 13  2  0  0  0
 12100  1  0  0  0
 13 14  1  0  0  0
 13 31  1  0  0  0
 14 15  2  0  0  0
 14101  1  0  0  0
 15102  1  0  0  0
 16 17  2  0  0  0
 16 21  1  0  0  0
 16 31  1  0  0  0
 17 18  1  0  0  0
 17103  1  0  0  0
 18 19  2  0  0  0
 18104  1  0  0  0
 19 20  1  0  0  0
 19 24  1  0  0  0
 20 21  2  0  0  0
 20105  1  0  0  0
 21 23  1  0  0  0
 22 28  1  0  0  0
 22 32  2  0  0  0
 26 27  1  0  0  0
 28106  1  0  0  0
 28107  1  0  0  0
 29108  1  0  0  0
 29109  1  0  0  0
 33 34  1  0  0  0
 33 66  1  0  0  0
 33 70  2  0  0  0
 34 36  1  0  0  0
 34 59  1  0  0  0
 34110  1  0  0  0
 35 44  2  0  0  0
 35 45  1  0  0  0
 35 68  1  0  0  0
 36 56  1  0  0  0
 36111  1  0  0  0
 37 39  1  0  0  0
 37 47  1  0  0  0
 37 66  1  0  0  0
 37112  1  0  0  0
 38 43  2  0  0  0
 38 46  1  0  0  0
 38 47  1  0  0  0
 39 64  1  0  0  0
 39 67  2  0  0  0
 40 52  1  0  0  0
 40 53  2  0  0  0
 40 58  1  0  0  0
 41113  1  0  0  0
 41114  1  0  0  0
 41115  1  0  0  0
 41 48  1  0  0  0
 42 43  1  0  0  0
 42 66  1  0  0  0
 42116  1  0  0  0
 42117  1  0  0  0
 43 44  1  0  0  0
 44118  1  0  0  0
 45 46  2  0  0  0
 45119  1  0  0  0
 46120  1  0  0  0
 47121  1  0  0  0
 47122  1  0  0  0
 48 56  1  0  0  0
 48 65  1  0  0  0
 48123  1  0  0  0
 49 50  1  0  0  0
 49 53  1  0  0  0
 49 64  1  0  0  0
 49124  1  0  0  0
 50 51  1  0  0  0
 50125  1  0  0  0
 50126  1  0  0  0
 51 52  1  0  0  0
 51127  1  0  0  0
 51128  1  0  0  0
 52129  1  0  0  0
 52130  1  0  0  0
 53 54  1  0  0  0
 54 55  2  0  0  0
 54131  1  0  0  0
 55 57  1  0  0  0
 55132  1  0  0  0
 56 69  2  0  0  0
 57 58  2  0  0  0
 57133  1  0  0  0
 58134  1  0  0  0
 59 60  1  0  0  0
 59 61  1  0  0  0
 59 62  1  0  0  0
 60135  1  0  0  0
 60136  1  0  0  0
 60137  1  0  0  0
 61138  1  0  0  0
 61139  1  0  0  0
 61140  1  0  0  0
 62141  1  0  0  0
 62142  1  0  0  0
 62143  1  0  0  0
 63 65  1  0  0  0
 63144  1  0  0  0
 63145  1  0  0  0
 63146  1  0  0  0
 64147  1  0  0  0
 65148  1  0  0  0
 68 83  1  0  0  0
 71 72  2  0  0  0
 71 74  1  0  0  0
 71149  1  0  0  0
 72 75  1  0  0  0
 72150  1  0  0  0
 73 74  2  0  0  0
 73 85  1  0  0  0
 73151  1  0  0  0
 74 80  1  0  0  0
 75 85  2  0  0  0
 75 86  1  0  0  0
 76 78  1  0  0  0
 76 86  1  0  0  0
 76152  1  0  0  0
 76153  1  0  0  0
 77 79  1  0  0  0
 77 86  1  0  0  0
 77154  1  0  0  0
 77155  1  0  0  0
 78 87  1  0  0  0
 78156  1  0  0  0
 78157  1  0  0  0
 79 87  1  0  0  0
 79158  1  0  0  0
 79159  1  0  0  0
 80 81  1  0  0  0
 80160  1  0  0  0
 80161  1  0  0  0
 81 89  1  0  0  0
 81162  1  0  0  0
 81163  1  0  0  0
 82 84  1  0  0  0
 82 89  1  0  0  0
 82164  1  0  0  0
 82165  1  0  0  0
 83 84  1  0  0  0
 83166  1  0  0  0
 83167  1  0  0  0
 84 88  1  0  0  0
 84168  1  0  0  0
 88169  1  0  0  0
 88170  1  0  0  0
 89171  1  0  0  0
 89172  1  0  0  0
M  CHG  1  89   1
M  ISO  4   1 100  68 101  83 101  87 100
M  END
> <chiral flag>
0

> <version>
0

> <s_m_source_file>
/data/baiqing/PycharmProjects/Reinvent-master-3.2/result/LINK_invent/BTK/process_docking_weight1_custom_sum_contain_oxygen_bond_distance_aromatic_linkinvent_7_9_3/rearranged_h_0195.sdf

> <i_m_source_file_index>
48

> <r_mmod_Potential_Energy-OPLS-2005>
-297.214965820312

> <r_mmod_Stretch_Energy-OPLS-2005>
37.6478500366211

> <r_mmod_Bend_Energy-OPLS-2005>
114.287254333496

> <r_mmod_Torsional_Energy-OPLS-2005>
367.489074707031

> <r_mmod_Improper_Torsional_Energy-OPLS-2005>
11.9383573532104

> <r_mmod_Van_der_Waal_Energy-OPLS-2005>
171.699188232422

> <r_mmod_Electrostatic_Energy-OPLS-2005>
-566.828430175781

> <r_mmod_Solvation_Energy-OPLS-2005>
-444.281097412109

> <b_mmod_Minimization_Converged-OPLS-2005>
0

> <r_mmod_RMS_Derivative-OPLS-2005>
4.69640064239502

$$$$
49
                    3D
 Structure written by MMmdl.
160169  0  0  1  0            999 V2000
  -30.4932  -15.2251   20.3763 C   0  0  0  0  0  0
  -30.4257  -12.7829   19.5230 C   0  0  0  0  0  0
  -29.5273  -12.5594   18.2837 C   0  0  0  0  0  0
  -28.0773  -12.2918   18.7191 C   0  0  0  0  0  0
  -27.6077  -13.2763   19.8197 C   0  0  2  0  0  0
  -28.6417  -13.4650   20.9504 C   0  0  0  0  0  0
  -25.2384  -13.8256   20.5764 C   0  0  0  0  0  0
  -24.1730  -13.0445   20.9249 C   0  0  0  0  0  0
  -24.6385  -11.6938   20.8769 C   0  0  0  0  0  0
  -23.9083  -10.4299   21.0417 C   0  0  0  0  0  0
  -24.3631   -9.4203   21.9188 C   0  0  0  0  0  0
  -23.6293   -8.2248   22.0751 C   0  0  0  0  0  0
  -22.4278   -8.0289   21.3548 C   0  0  0  0  0  0
  -21.9922   -9.0267   20.4650 C   0  0  0  0  0  0
  -22.7261  -10.2137   20.3064 C   0  0  0  0  0  0
  -21.6860   -6.0742   22.5281 C   0  0  0  0  0  0
  -21.4021   -6.5643   23.8214 C   0  0  0  0  0  0
  -21.3650   -5.6791   24.9170 C   0  0  0  0  0  0
  -21.6034   -4.3053   24.7226 C   0  0  0  0  0  0
  -21.8813   -3.8150   23.4347 C   0  0  0  0  0  0
  -21.9186   -4.6967   22.3404 C   0  0  0  0  0  0
  -22.7749  -13.5206   21.1891 C   0  0  0  0  0  0
  -22.1660   -4.2153   21.0983 F   0  0  0  0  0  0
  -21.5622   -3.4530   25.7736 F   0  0  0  0  0  0
  -29.8744  -13.9475   20.3116 N   0  0  0  0  0  0
  -26.2797  -12.9526   20.3227 N   0  0  0  0  0  0
  -25.9323  -11.6628   20.5741 N   0  0  0  0  0  0
  -22.0402  -12.8202   22.0454 N   0  0  0  0  0  0
  -25.4051  -15.1993   20.4234 N   0  0  0  0  0  0
  -31.7110  -15.1586   20.1500 O   0  0  0  0  0  0
  -21.6640   -6.8891   21.4249 O   0  0  0  0  0  0
  -22.3433  -14.5500   20.6721 O   0  0  0  0  0  0
  -24.6608  -31.8261   23.1715 C   0  0  0  0  0  0
  -25.9304  -32.4595   23.8170 C   0  0  1  0  0  0
  -27.2154  -26.9541   20.1766 C   0  0  0  0  0  0
  -25.5984  -33.8410   24.2081 N   0  0  0  0  0  0
  -23.4723  -30.4394   21.5203 C   0  0  2  0  0  0
  -24.9232  -28.8283   20.1123 C   0  0  0  0  0  0
  -22.7649  -29.4465   22.4786 C   0  0  0  0  0  0
  -18.0328  -28.1397   22.8471 C   0  0  0  0  0  0
  -24.1498  -36.7213   23.2644 C   0  0  0  0  0  0
  -26.0402  -30.6407   21.3968 C   0  0  0  0  0  0
  -26.1075  -29.2336   20.7403 C   0  0  0  0  0  0
  -27.2503  -28.3184   20.7441 C   0  0  0  0  0  0
  -26.0007  -26.6905   19.5067 C   0  0  0  0  0  0
  -24.8938  -27.5770   19.4755 C   0  0  0  0  0  0
  -23.7089  -29.7547   20.1463 C   0  0  0  0  0  0
  -25.4138  -36.2972   24.0298 C   0  0  1  0  0  0
  -20.5947  -28.3746   23.1192 C   0  0  2  0  0  0
  -20.6800  -26.9430   22.5396 C   0  0  0  0  0  0
  -19.5775  -26.6373   21.5207 C   0  0  0  0  0  0
  -18.1959  -26.7934   22.1619 C   0  0  0  0  0  0
  -19.1585  -28.8890   23.2821 C   0  0  0  0  0  0
  -18.9496  -30.1479   23.8857 C   0  0  0  0  0  0
  -17.6486  -30.6590   24.0551 C   0  0  0  0  0  0
  -25.9099  -34.9352   23.5014 C   0  0  0  0  0  0
  -16.5381  -29.9074   23.6338 C   0  0  0  0  0  0
  -16.7307  -28.6493   23.0368 C   0  0  0  0  0  0
  -26.4559  -31.6534   25.0692 C   0  0  0  0  0  0
  -25.3694  -31.3782   26.1355 C   0  0  0  0  0  0
  -27.0449  -30.2902   24.6415 C   0  0  0  0  0  0
  -27.6046  -32.4351   25.7495 C   0  0  0  0  0  0
  -27.5574  -37.1765   24.8466 C   0  0  0  0  0  0
  -21.4321  -29.3050   22.3542 N   0  0  0  0  0  0
  -26.4283  -37.3705   23.9405 N   0  0  0  0  0  0
  -24.7456  -30.9956   22.0829 N   0  0  0  0  0  0
  -23.4217  -28.8036   23.3016 O   0  0  0  0  0  0
  -28.2371  -25.8768   20.2319 O   0  0  0  0  0  0
  -26.5703  -34.8887   22.4605 O   0  0  0  0  0  0
  -23.5690  -32.1217   23.6837 O   0  0  0  0  0  0
  -31.8961  -22.1346   20.1730 C   0  0  0  0  0  0
  -31.5919  -23.4908   20.0585 C   0  0  0  0  0  0
  -29.2680  -23.0699   20.2054 C   0  0  0  0  0  0
  -29.6092  -21.5092   20.2616 C   0  0  0  0  0  0
  -29.4009  -19.1007   19.1528 C   0  0  0  0  0  0
  -29.2569  -19.0889   21.4189 C   0  0  0  0  0  0
  -30.3216  -17.7260   19.4088 C   0  0  0  0  0  0
  -29.0275  -17.4201   21.2601 C   0  0  0  0  0  0
  -32.6797  -24.5344   19.8575 C   0  0  0  0  0  0
  -28.0149  -24.2418   20.1811 C   0  0  0  0  0  0
  -30.9350  -21.2044   20.2773 N   0  0  0  0  0  0
  -30.3204  -23.9283   20.1033 N   0  0  0  0  0  0
  -29.0293  -20.0832   20.2685 N   0  0  0  0  0  0
  -29.8308  -16.5557   20.2715 N   0  0  0  0  0  0
  -32.4228  -25.7271   20.6724 N   0  3  0  0  0  0
  -31.4487  -12.9580   19.1887 H   0  0  0  0  0  0
  -30.4736  -11.8831   20.1388 H   0  0  0  0  0  0
  -29.8994  -11.7261   17.6858 H   0  0  0  0  0  0
  -29.5642  -13.4400   17.6408 H   0  0  0  0  0  0
  -28.0375  -11.2714   19.1026 H   0  0  0  0  0  0
  -27.4047  -12.3230   17.8624 H   0  0  0  0  0  0
  -27.5188  -14.2388   19.3131 H   0  0  0  0  0  0
  -28.8036  -12.5421   21.5084 H   0  0  0  0  0  0
  -28.2884  -14.2094   21.6665 H   0  0  0  0  0  0
  -25.2773   -9.5666   22.4762 H   0  0  0  0  0  0
  -23.9984   -7.4643   22.7480 H   0  0  0  0  0  0
  -21.0843   -8.8795   19.8975 H   0  0  0  0  0  0
  -22.3716  -10.9677   19.6173 H   0  0  0  0  0  0
  -21.2034   -7.6154   23.9718 H   0  0  0  0  0  0
  -21.1473   -6.0526   25.9070 H   0  0  0  0  0  0
  -22.0601   -2.7614   23.2848 H   0  0  0  0  0  0
  -22.4023  -11.9875   22.4859 H   0  0  0  0  0  0
  -21.1015  -13.1224   22.2647 H   0  0  0  0  0  0
  -24.6411  -15.8550   20.5453 H   0  0  0  0  0  0
  -26.2582  -15.6408   20.1055 H   0  0  0  0  0  0
  -26.7371  -32.5131   23.0877 H   0  0  0  0  0  0
  -25.0091  -33.9491   25.0207 H   0  0  0  0  0  0
  -22.7845  -31.2707   21.3515 H   0  0  0  0  0  0
  -23.3766  -35.9537   23.3278 H   0  0  0  0  0  0
  -24.3575  -36.8889   22.2064 H   0  0  0  0  0  0
  -23.7250  -37.6392   23.6719 H   0  0  0  0  0  0
  -26.2228  -31.3837   20.6190 H   0  0  0  0  0  0
  -26.8998  -30.6923   22.0533 H   0  0  0  0  0  0
  -28.1509  -28.6313   21.2535 H   0  0  0  0  0  0
  -25.8767  -25.7354   19.0182 H   0  0  0  0  0  0
  -23.9933  -27.2624   18.9653 H   0  0  0  0  0  0
  -23.8626  -30.5224   19.3870 H   0  0  0  0  0  0
  -22.8178  -29.2090   19.8308 H   0  0  0  0  0  0
  -25.1337  -36.1762   25.0787 H   0  0  0  0  0  0
  -21.0046  -28.3349   24.1309 H   0  0  0  0  0  0
  -20.5678  -26.2366   23.3636 H   0  0  0  0  0  0
  -21.6666  -26.7403   22.1211 H   0  0  0  0  0  0
  -19.6936  -25.6270   21.1273 H   0  0  0  0  0  0
  -19.6711  -27.3150   20.6712 H   0  0  0  0  0  0
  -17.4230  -26.6682   21.4022 H   0  0  0  0  0  0
  -18.0354  -26.0076   22.9016 H   0  0  0  0  0  0
  -19.7966  -30.7304   24.2219 H   0  0  0  0  0  0
  -17.5036  -31.6268   24.5153 H   0  0  0  0  0  0
  -15.5378  -30.2964   23.7675 H   0  0  0  0  0  0
  -15.8711  -28.0785   22.7120 H   0  0  0  0  0  0
  -24.5876  -30.7133   25.7663 H   0  0  0  0  0  0
  -24.8885  -32.2986   26.4680 H   0  0  0  0  0  0
  -25.7932  -30.9007   27.0200 H   0  0  0  0  0  0
  -26.3103  -29.6579   24.1413 H   0  0  0  0  0  0
  -27.3972  -29.7267   25.5066 H   0  0  0  0  0  0
  -27.9054  -30.4082   23.9826 H   0  0  0  0  0  0
  -27.2598  -33.3684   26.1963 H   0  0  0  0  0  0
  -28.3910  -32.6871   25.0365 H   0  0  0  0  0  0
  -28.0658  -31.8558   26.5505 H   0  0  0  0  0  0
  -28.2574  -38.0077   24.7509 H   0  0  0  0  0  0
  -28.1091  -36.2605   24.6299 H   0  0  0  0  0  0
  -27.2294  -37.1409   25.8870 H   0  0  0  0  0  0
  -20.9564  -29.8732   21.6667 H   0  0  0  0  0  0
  -26.0133  -38.2766   24.1400 H   0  0  0  0  0  0
  -32.9179  -21.7819   20.1571 H   0  0  0  0  0  0
  -28.4622  -18.7855   18.6945 H   0  0  0  0  0  0
  -29.8970  -19.6769   18.3696 H   0  0  0  0  0  0
  -30.2629  -19.2445   21.8114 H   0  0  0  0  0  0
  -28.6024  -19.4221   22.2265 H   0  0  0  0  0  0
  -31.3055  -18.0209   19.7787 H   0  0  0  0  0  0
  -30.5199  -17.2962   18.4258 H   0  0  0  0  0  0
  -27.9748  -17.2430   21.0383 H   0  0  0  0  0  0
  -29.1803  -16.9759   22.2443 H   0  0  0  0  0  0
  -32.7029  -24.8101   18.8024 H   0  0  0  0  0  0
  -33.6595  -24.1204   20.1000 H   0  0  0  0  0  0
  -27.3478  -23.9926   21.0062 H   0  0  0  0  0  0
  -27.4438  -24.0316   19.2771 H   0  0  0  0  0  0
  -31.4857  -26.0356   20.4854 H   0  0  0  0  0  0
  -33.0730  -26.4552   20.4419 H   0  0  0  0  0  0
  -32.5012  -25.4995   21.6456 H   0  0  0  0  0  0
  1 25  1  0  0  0
  1 30  2  0  0  0
  1 84  1  0  0  0
  2  3  1  0  0  0
  2 25  1  0  0  0
  2 86  1  0  0  0
  2 87  1  0  0  0
  3  4  1  0  0  0
  3 88  1  0  0  0
  3 89  1  0  0  0
  4  5  1  0  0  0
  4 90  1  0  0  0
  4 91  1  0  0  0
  5  6  1  0  0  0
  5 26  1  0  0  0
  5 92  1  0  0  0
  6 25  1  0  0  0
  6 93  1  0  0  0
  6 94  1  0  0  0
  7  8  2  0  0  0
  7 26  1  0  0  0
  7 29  1  0  0  0
  8  9  1  0  0  0
  8 22  1  0  0  0
  9 10  1  0  0  0
  9 27  2  0  0  0
 10 11  2  0  0  0
 10 15  1  0  0  0
 11 12  1  0  0  0
 11 95  1  0  0  0
 12 13  2  0  0  0
 12 96  1  0  0  0
 13 14  1  0  0  0
 13 31  1  0  0  0
 14 15  2  0  0  0
 14 97  1  0  0  0
 15 98  1  0  0  0
 16 17  2  0  0  0
 16 21  1  0  0  0
 16 31  1  0  0  0
 17 18  1  0  0  0
 17 99  1  0  0  0
 18 19  2  0  0  0
 18100  1  0  0  0
 19 20  1  0  0  0
 19 24  1  0  0  0
 20 21  2  0  0  0
 20101  1  0  0  0
 21 23  1  0  0  0
 22 28  1  0  0  0
 22 32  2  0  0  0
 26 27  1  0  0  0
 28102  1  0  0  0
 28103  1  0  0  0
 29104  1  0  0  0
 29105  1  0  0  0
 33 34  1  0  0  0
 33 66  1  0  0  0
 33 70  2  0  0  0
 34 36  1  0  0  0
 34 59  1  0  0  0
 34106  1  0  0  0
 35 44  2  0  0  0
 35 45  1  0  0  0
 35 68  1  0  0  0
 36 56  1  0  0  0
 36107  1  0  0  0
 37 39  1  0  0  0
 37 47  1  0  0  0
 37 66  1  0  0  0
 37108  1  0  0  0
 38 43  2  0  0  0
 38 46  1  0  0  0
 38 47  1  0  0  0
 39 64  1  0  0  0
 39 67  2  0  0  0
 40 52  1  0  0  0
 40 53  2  0  0  0
 40 58  1  0  0  0
 41109  1  0  0  0
 41110  1  0  0  0
 41111  1  0  0  0
 41 48  1  0  0  0
 42 43  1  0  0  0
 42 66  1  0  0  0
 42112  1  0  0  0
 42113  1  0  0  0
 43 44  1  0  0  0
 44114  1  0  0  0
 45 46  2  0  0  0
 45115  1  0  0  0
 46116  1  0  0  0
 47117  1  0  0  0
 47118  1  0  0  0
 48 56  1  0  0  0
 48 65  1  0  0  0
 48119  1  0  0  0
 49 50  1  0  0  0
 49 53  1  0  0  0
 49 64  1  0  0  0
 49120  1  0  0  0
 50 51  1  0  0  0
 50121  1  0  0  0
 50122  1  0  0  0
 51 52  1  0  0  0
 51123  1  0  0  0
 51124  1  0  0  0
 52125  1  0  0  0
 52126  1  0  0  0
 53 54  1  0  0  0
 54 55  2  0  0  0
 54127  1  0  0  0
 55 57  1  0  0  0
 55128  1  0  0  0
 56 69  2  0  0  0
 57 58  2  0  0  0
 57129  1  0  0  0
 58130  1  0  0  0
 59 60  1  0  0  0
 59 61  1  0  0  0
 59 62  1  0  0  0
 60131  1  0  0  0
 60132  1  0  0  0
 60133  1  0  0  0
 61134  1  0  0  0
 61135  1  0  0  0
 61136  1  0  0  0
 62137  1  0  0  0
 62138  1  0  0  0
 62139  1  0  0  0
 63 65  1  0  0  0
 63140  1  0  0  0
 63141  1  0  0  0
 63142  1  0  0  0
 64143  1  0  0  0
 65144  1  0  0  0
 68 80  1  0  0  0
 71 72  2  0  0  0
 71 81  1  0  0  0
 71145  1  0  0  0
 72 79  1  0  0  0
 72 82  1  0  0  0
 73 74  1  0  0  0
 73 80  1  0  0  0
 73 82  2  0  0  0
 74 81  2  0  0  0
 74 83  1  0  0  0
 75 77  1  0  0  0
 75 83  1  0  0  0
 75146  1  0  0  0
 75147  1  0  0  0
 76 78  1  0  0  0
 76 83  1  0  0  0
 76148  1  0  0  0
 76149  1  0  0  0
 77 84  1  0  0  0
 77150  1  0  0  0
 77151  1  0  0  0
 78 84  1  0  0  0
 78152  1  0  0  0
 78153  1  0  0  0
 79 85  1  0  0  0
 79154  1  0  0  0
 79155  1  0  0  0
 80156  1  0  0  0
 80157  1  0  0  0
 85158  1  0  0  0
 85159  1  0  0  0
 85160  1  0  0  0
M  CHG  1  85   1
M  ISO  4   1 100  68 101  80 101  84 100
M  END
> <chiral flag>
0

> <version>
0

> <s_m_source_file>
/data/baiqing/PycharmProjects/Reinvent-master-3.2/result/LINK_invent/BTK/process_docking_weight1_custom_sum_contain_oxygen_bond_distance_aromatic_linkinvent_7_9_3/rearranged_h_0195.sdf

> <i_m_source_file_index>
49

> <r_mmod_Potential_Energy-OPLS-2005>
1168.92602539062

> <r_mmod_Stretch_Energy-OPLS-2005>
509.348419189453

> <r_mmod_Bend_Energy-OPLS-2005>
546.484741210938

> <r_mmod_Torsional_Energy-OPLS-2005>
360.312774658203

> <r_mmod_Improper_Torsional_Energy-OPLS-2005>
20.8648376464844

> <r_mmod_Van_der_Waal_Energy-OPLS-2005>
151.045059204102

> <r_mmod_Electrostatic_Energy-OPLS-2005>
-303.9873046875

> <r_mmod_Solvation_Energy-OPLS-2005>
-527.404479980469

> <b_mmod_Minimization_Converged-OPLS-2005>
0

> <r_mmod_RMS_Derivative-OPLS-2005>
1.62313270568848

$$$$
50
                    3D
 Structure written by MMmdl.
182193  0  0  1  0            999 V2000
  -30.7817  -14.3631   20.6682 C   0  0  0  0  0  0
  -30.4293  -12.2857   19.3869 C   0  0  0  0  0  0
  -29.4902  -12.5026   18.1864 C   0  0  0  0  0  0
  -28.0162  -12.3663   18.6118 C   0  0  0  0  0  0
  -27.6712  -13.1950   19.8766 C   0  0  2  0  0  0
  -28.7148  -12.9385   20.9878 C   0  0  0  0  0  0
  -25.2669  -13.8133   20.5621 C   0  0  0  0  0  0
  -24.1897  -13.0443   20.9217 C   0  0  0  0  0  0
  -24.6448  -11.6909   20.8757 C   0  0  0  0  0  0
  -23.9091  -10.4312   21.0417 C   0  0  0  0  0  0
  -24.3629   -9.4218   21.9192 C   0  0  0  0  0  0
  -23.6297   -8.2243   22.0731 C   0  0  0  0  0  0
  -22.4288   -8.0263   21.3518 C   0  0  0  0  0  0
  -21.9954   -9.0266   20.4621 C   0  0  0  0  0  0
  -22.7274  -10.2167   20.3051 C   0  0  0  0  0  0
  -21.6840   -6.0737   22.5271 C   0  0  0  0  0  0
  -21.3986   -6.5643   23.8214 C   0  0  0  0  0  0
  -21.3680   -5.6783   24.9171 C   0  0  0  0  0  0
  -21.6055   -4.3041   24.7217 C   0  0  0  0  0  0
  -21.8819   -3.8150   23.4335 C   0  0  0  0  0  0
  -21.9208   -4.6972   22.3402 C   0  0  0  0  0  0
  -22.7912  -13.5265   21.1846 C   0  0  0  0  0  0
  -22.1674   -4.2180   21.0961 F   0  0  0  0  0  0
  -21.5655   -3.4525   25.7735 F   0  0  0  0  0  0
  -30.0541  -13.2373   20.4433 N   0  0  0  0  0  0
  -26.3102  -12.9266   20.3375 N   0  0  0  0  0  0
  -25.9377  -11.6441   20.5809 N   0  0  0  0  0  0
  -22.0474  -12.8275   22.0356 N   0  0  0  0  0  0
  -25.4383  -15.1802   20.3778 N   0  0  0  0  0  0
  -31.8373  -14.6146   20.0773 O   0  0  0  0  0  0
  -21.6631   -6.8861   21.4218 O   0  0  0  0  0  0
  -22.3628  -14.5547   20.6664 O   0  0  0  0  0  0
  -24.6007  -31.8723   23.2136 C   0  0  0  0  0  0
  -25.8943  -32.4852   23.8418 C   0  0  1  0  0  0
  -27.2984  -27.5207   20.0994 C   0  0  0  0  0  0
  -25.5833  -33.8657   24.2350 N   0  0  0  0  0  0
  -23.3868  -30.4857   21.5498 C   0  0  2  0  0  0
  -24.8484  -28.9539   20.1164 C   0  0  0  0  0  0
  -22.7332  -29.4645   22.5042 C   0  0  0  0  0  0
  -18.0243  -28.1357   22.8491 C   0  0  0  0  0  0
  -24.1487  -36.7334   23.2646 C   0  0  0  0  0  0
  -25.8990  -30.8632   21.3513 C   0  0  0  0  0  0
  -25.9877  -29.4973   20.7154 C   0  0  0  0  0  0
  -27.1968  -28.7867   20.7230 C   0  0  0  0  0  0
  -26.1327  -26.9683   19.5186 C   0  0  0  0  0  0
  -24.9107  -27.6789   19.5197 C   0  0  0  0  0  0
  -23.5954  -29.7992   20.1684 C   0  0  0  0  0  0
  -25.4113  -36.3148   24.0351 C   0  0  1  0  0  0
  -20.5818  -28.3623   23.1371 C   0  0  2  0  0  0
  -20.6725  -26.9371   22.5446 C   0  0  0  0  0  0
  -19.5730  -26.6370   21.5218 C   0  0  0  0  0  0
  -18.1892  -26.7900   22.1605 C   0  0  0  0  0  0
  -19.1482  -28.8811   23.2927 C   0  0  0  0  0  0
  -18.9421  -30.1424   23.8940 C   0  0  0  0  0  0
  -17.6426  -30.6567   24.0564 C   0  0  0  0  0  0
  -25.9009  -34.9509   23.5152 C   0  0  0  0  0  0
  -16.5323  -29.9067   23.6330 C   0  0  0  0  0  0
  -16.7238  -28.6479   23.0364 C   0  0  0  0  0  0
  -26.4430  -31.6605   25.0699 C   0  0  0  0  0  0
  -25.3745  -31.3660   26.1480 C   0  0  0  0  0  0
  -27.0253  -30.3078   24.5974 C   0  0  0  0  0  0
  -27.6029  -32.4324   25.7429 C   0  0  0  0  0  0
  -27.5601  -37.1812   24.8465 C   0  0  0  0  0  0
  -21.4075  -29.3002   22.3793 N   0  0  0  0  0  0
  -26.4313  -37.3825   23.9403 N   0  0  0  0  0  0
  -24.6458  -31.0874   22.0987 N   0  0  0  0  0  0
  -23.4146  -28.8229   23.3090 O   0  0  0  0  0  0
  -28.4797  -26.8032   20.0414 O   0  0  0  0  0  0
  -26.5590  -34.8958   22.4724 O   0  0  0  0  0  0
  -23.5227  -32.1435   23.7597 O   0  0  0  0  0  0
  -32.0262  -19.5971   22.6136 C   0  0  0  0  0  0
  -30.7889  -19.1149   23.0950 C   0  0  0  0  0  0
  -30.0414  -20.0263   23.8727 C   0  0  0  0  0  0
  -31.6258  -21.6265   23.5313 C   0  0  0  0  0  0
  -27.5024  -19.2746   23.6821 C   0  0  0  0  0  0
  -27.5298  -20.6687   24.2454 C   0  0  0  0  0  0
  -29.8226  -24.1185   22.9840 C   0  0  0  0  0  0
  -31.7575  -25.4009   23.9540 C   0  0  0  0  0  0
  -29.9641  -17.5923   21.3965 C   0  0  0  0  0  0
  -30.7768  -16.7183   23.6091 C   0  0  0  0  0  0
  -29.3460  -16.1959   21.2686 C   0  0  0  0  0  0
  -31.2419  -15.5159   22.7552 C   0  0  0  0  0  0
  -30.1919  -24.6688   21.6042 C   0  0  0  0  0  0
  -32.0354  -25.9686   22.5405 C   0  0  0  0  0  0
  -28.6999  -19.7343   24.4904 C   0  0  0  0  0  0
  -31.0466  -24.0340   23.9299 C   0  0  2  0  0  0
  -30.9457  -26.6759   20.4016 C   0  0  0  0  0  0
  -29.7201  -27.5433   20.0562 C   0  0  0  0  0  0
  -32.4338  -20.8653   22.8236 N   0  0  0  0  0  0
  -30.4908  -21.2702   24.1034 N   0  0  0  0  0  0
  -30.3080  -17.8340   22.7913 N   0  0  0  0  0  0
  -30.3295  -15.1685   21.6457 N   0  0  0  0  0  0
  -31.9739  -22.9514   23.5890 N   0  0  0  0  0  0
  -30.7909  -26.0185   21.7244 N   0  3  1  0  0  0
  -31.4664  -12.4026   19.0662 H   0  0  0  0  0  0
  -30.3438  -11.2645   19.7637 H   0  0  0  0  0  0
  -29.7099  -11.7771   17.4013 H   0  0  0  0  0  0
  -29.6663  -13.4866   17.7482 H   0  0  0  0  0  0
  -27.8329  -11.3079   18.8042 H   0  0  0  0  0  0
  -27.3586  -12.6480   17.7865 H   0  0  0  0  0  0
  -27.7269  -14.2476   19.5999 H   0  0  0  0  0  0
  -28.6927  -11.8947   21.2990 H   0  0  0  0  0  0
  -28.4667  -13.5121   21.8826 H   0  0  0  0  0  0
  -25.2773   -9.5724   22.4785 H   0  0  0  0  0  0
  -24.0002   -7.4649   22.7457 H   0  0  0  0  0  0
  -21.0884   -8.8833   19.8931 H   0  0  0  0  0  0
  -22.3734  -10.9720   19.6169 H   0  0  0  0  0  0
  -21.1916   -7.6133   23.9738 H   0  0  0  0  0  0
  -21.1517   -6.0492   25.9102 H   0  0  0  0  0  0
  -22.0596   -2.7622   23.2808 H   0  0  0  0  0  0
  -22.4037  -11.9994   22.4860 H   0  0  0  0  0  0
  -21.1118  -13.1394   22.2515 H   0  0  0  0  0  0
  -24.6469  -15.8134   20.3976 H   0  0  0  0  0  0
  -26.2640  -15.5908   19.9589 H   0  0  0  0  0  0
  -26.7009  -32.5636   23.1213 H   0  0  0  0  0  0
  -25.0006  -33.9820   25.0503 H   0  0  0  0  0  0
  -22.6706  -31.2984   21.4044 H   0  0  0  0  0  0
  -23.3756  -35.9657   23.3322 H   0  0  0  0  0  0
  -24.3575  -36.8922   22.2051 H   0  0  0  0  0  0
  -23.7210  -37.6542   23.6637 H   0  0  0  0  0  0
  -25.9790  -31.6237   20.5728 H   0  0  0  0  0  0
  -26.7926  -30.9436   21.9568 H   0  0  0  0  0  0
  -28.0227  -29.2523   21.2333 H   0  0  0  0  0  0
  -26.1784  -25.9956   19.0473 H   0  0  0  0  0  0
  -24.0334  -27.2436   19.0609 H   0  0  0  0  0  0
  -23.6777  -30.5599   19.3924 H   0  0  0  0  0  0
  -22.7278  -29.1960   19.8919 H   0  0  0  0  0  0
  -25.1280  -36.2043   25.0842 H   0  0  0  0  0  0
  -20.9899  -28.3162   24.1503 H   0  0  0  0  0  0
  -20.5590  -26.2233   23.3619 H   0  0  0  0  0  0
  -21.6602  -26.7402   22.1279 H   0  0  0  0  0  0
  -19.6888  -25.6290   21.1233 H   0  0  0  0  0  0
  -19.6675  -27.3200   20.6766 H   0  0  0  0  0  0
  -17.4178  -26.6695   21.3988 H   0  0  0  0  0  0
  -18.0269  -26.0012   22.8973 H   0  0  0  0  0  0
  -19.7904  -30.7226   24.2315 H   0  0  0  0  0  0
  -17.4988  -31.6247   24.5153 H   0  0  0  0  0  0
  -15.5329  -30.2989   23.7616 H   0  0  0  0  0  0
  -15.8640  -28.0808   22.7079 H   0  0  0  0  0  0
  -24.5903  -30.7025   25.7818 H   0  0  0  0  0  0
  -24.8975  -32.2801   26.5027 H   0  0  0  0  0  0
  -25.8153  -30.8760   27.0167 H   0  0  0  0  0  0
  -26.2739  -29.6820   24.1149 H   0  0  0  0  0  0
  -27.4185  -29.7327   25.4359 H   0  0  0  0  0  0
  -27.8499  -30.4441   23.8978 H   0  0  0  0  0  0
  -27.2646  -33.3586   26.2092 H   0  0  0  0  0  0
  -28.3778  -32.6940   25.0211 H   0  0  0  0  0  0
  -28.0771  -31.8406   26.5261 H   0  0  0  0  0  0
  -28.2632  -38.0106   24.7545 H   0  0  0  0  0  0
  -28.1083  -36.2638   24.6255 H   0  0  0  0  0  0
  -27.2319  -37.1431   25.8872 H   0  0  0  0  0  0
  -20.9224  -29.8717   21.7016 H   0  0  0  0  0  0
  -26.0220  -38.2915   24.1407 H   0  0  0  0  0  0
  -32.6815  -18.9778   22.0176 H   0  0  0  0  0  0
  -27.6174  -19.1677   22.6058 H   0  0  0  0  0  0
  -26.8147  -18.5726   24.1486 H   0  0  0  0  0  0
  -26.8636  -20.8876   25.0798 H   0  0  0  0  0  0
  -27.6524  -21.4751   23.5239 H   0  0  0  0  0  0
  -29.3270  -23.1573   22.8527 H   0  0  0  0  0  0
  -29.0683  -24.7652   23.4356 H   0  0  0  0  0  0
  -31.1214  -26.1079   24.4897 H   0  0  0  0  0  0
  -32.6825  -25.3407   24.5295 H   0  0  0  0  0  0
  -29.2473  -18.3444   21.0605 H   0  0  0  0  0  0
  -30.8419  -17.6914   20.7537 H   0  0  0  0  0  0
  -31.5736  -17.0224   24.2916 H   0  0  0  0  0  0
  -29.9433  -16.4034   24.2403 H   0  0  0  0  0  0
  -28.9902  -16.0599   20.2441 H   0  0  0  0  0  0
  -28.4726  -16.0913   21.9156 H   0  0  0  0  0  0
  -31.3587  -14.6419   23.3993 H   0  0  0  0  0  0
  -32.2338  -15.7383   22.3534 H   0  0  0  0  0  0
  -29.3015  -24.6910   20.9782 H   0  0  0  0  0  0
  -30.8966  -23.9999   21.1064 H   0  0  0  0  0  0
  -32.7823  -25.3615   22.0249 H   0  0  0  0  0  0
  -32.4610  -26.9668   22.6469 H   0  0  0  0  0  0
  -28.8205  -19.3044   25.4812 H   0  0  0  0  0  0
  -30.6888  -23.8272   24.9398 H   0  0  0  0  0  0
  -31.8109  -27.3445   20.4255 H   0  0  0  0  0  0
  -31.1519  -25.9488   19.6168 H   0  0  0  0  0  0
  -29.8640  -27.9965   19.0739 H   0  0  0  0  0  0
  -29.7407  -28.3556   20.7751 H   0  0  0  0  0  0
  -32.8687  -23.1769   23.1752 H   0  0  0  0  0  0
  -30.1337  -26.5836   22.2421 H   0  0  0  0  0  0
  1 25  1  0  0  0
  1 30  2  0  0  0
  1 92  1  0  0  0
  2  3  1  0  0  0
  2 25  1  0  0  0
  2 95  1  0  0  0
  2 96  1  0  0  0
  3  4  1  0  0  0
  3 97  1  0  0  0
  3 98  1  0  0  0
  4  5  1  0  0  0
  4 99  1  0  0  0
  4100  1  0  0  0
  5  6  1  0  0  0
  5 26  1  0  0  0
  5101  1  0  0  0
  6 25  1  0  0  0
  6102  1  0  0  0
  6103  1  0  0  0
  7  8  2  0  0  0
  7 26  1  0  0  0
  7 29  1  0  0  0
  8  9  1  0  0  0
  8 22  1  0  0  0
  9 10  1  0  0  0
  9 27  2  0  0  0
 10 11  2  0  0  0
 10 15  1  0  0  0
 11 12  1  0  0  0
 11104  1  0  0  0
 12 13  2  0  0  0
 12105  1  0  0  0
 13 14  1  0  0  0
 13 31  1  0  0  0
 14 15  2  0  0  0
 14106  1  0  0  0
 15107  1  0  0  0
 16 17  2  0  0  0
 16 21  1  0  0  0
 16 31  1  0  0  0
 17 18  1  0  0  0
 17108  1  0  0  0
 18 19  2  0  0  0
 18109  1  0  0  0
 19 20  1  0  0  0
 19 24  1  0  0  0
 20 21  2  0  0  0
 20110  1  0  0  0
 21 23  1  0  0  0
 22 28  1  0  0  0
 22 32  2  0  0  0
 26 27  1  0  0  0
 28111  1  0  0  0
 28112  1  0  0  0
 29113  1  0  0  0
 29114  1  0  0  0
 33 34  1  0  0  0
 33 66  1  0  0  0
 33 70  2  0  0  0
 34 36  1  0  0  0
 34 59  1  0  0  0
 34115  1  0  0  0
 35 44  2  0  0  0
 35 45  1  0  0  0
 35 68  1  0  0  0
 36 56  1  0  0  0
 36116  1  0  0  0
 37 39  1  0  0  0
 37 47  1  0  0  0
 37 66  1  0  0  0
 37117  1  0  0  0
 38 43  2  0  0  0
 38 46  1  0  0  0
 38 47  1  0  0  0
 39 64  1  0  0  0
 39 67  2  0  0  0
 40 52  1  0  0  0
 40 53  2  0  0  0
 40 58  1  0  0  0
 41118  1  0  0  0
 41119  1  0  0  0
 41120  1  0  0  0
 41 48  1  0  0  0
 42 43  1  0  0  0
 42 66  1  0  0  0
 42121  1  0  0  0
 42122  1  0  0  0
 43 44  1  0  0  0
 44123  1  0  0  0
 45 46  2  0  0  0
 45124  1  0  0  0
 46125  1  0  0  0
 47126  1  0  0  0
 47127  1  0  0  0
 48 56  1  0  0  0
 48 65  1  0  0  0
 48128  1  0  0  0
 49 50  1  0  0  0
 49 53  1  0  0  0
 49 64  1  0  0  0
 49129  1  0  0  0
 50 51  1  0  0  0
 50130  1  0  0  0
 50131  1  0  0  0
 51 52  1  0  0  0
 51132  1  0  0  0
 51133  1  0  0  0
 52134  1  0  0  0
 52135  1  0  0  0
 53 54  1  0  0  0
 54 55  2  0  0  0
 54136  1  0  0  0
 55 57  1  0  0  0
 55137  1  0  0  0
 56 69  2  0  0  0
 57 58  2  0  0  0
 57138  1  0  0  0
 58139  1  0  0  0
 59 60  1  0  0  0
 59 61  1  0  0  0
 59 62  1  0  0  0
 60140  1  0  0  0
 60141  1  0  0  0
 60142  1  0  0  0
 61143  1  0  0  0
 61144  1  0  0  0
 61145  1  0  0  0
 62146  1  0  0  0
 62147  1  0  0  0
 62148  1  0  0  0
 63 65  1  0  0  0
 63149  1  0  0  0
 63150  1  0  0  0
 63151  1  0  0  0
 64152  1  0  0  0
 65153  1  0  0  0
 68 88  1  0  0  0
 71 72  2  0  0  0
 71 89  1  0  0  0
 71154  1  0  0  0
 72 73  1  0  0  0
 72 91  1  0  0  0
 73 90  2  0  0  0
 73 85  1  0  0  0
 74 89  2  0  0  0
 74 90  1  0  0  0
 74 93  1  0  0  0
 75 76  1  0  0  0
 75 85  1  0  0  0
 75155  1  0  0  0
 75156  1  0  0  0
 76 85  1  0  0  0
 76157  1  0  0  0
 76158  1  0  0  0
 77 83  1  0  0  0
 77 86  1  0  0  0
 77159  1  0  0  0
 77160  1  0  0  0
 78 84  1  0  0  0
 78 86  1  0  0  0
 78161  1  0  0  0
 78162  1  0  0  0
 79 81  1  0  0  0
 79 91  1  0  0  0
 79163  1  0  0  0
 79164  1  0  0  0
 80 82  1  0  0  0
 80 91  1  0  0  0
 80165  1  0  0  0
 80166  1  0  0  0
 81 92  1  0  0  0
 81167  1  0  0  0
 81168  1  0  0  0
 82 92  1  0  0  0
 82169  1  0  0  0
 82170  1  0  0  0
 83 94  1  0  0  0
 83171  1  0  0  0
 83172  1  0  0  0
 84 94  1  0  0  0
 84173  1  0  0  0
 84174  1  0  0  0
 85175  1  0  0  0
 86 93  1  0  0  0
 86176  1  0  0  0
 87 88  1  0  0  0
 87177  1  0  0  0
 87178  1  0  0  0
 87 94  1  0  0  0
 88179  1  0  0  0
 88180  1  0  0  0
 93181  1  0  0  0
 94182  1  0  0  0
M  CHG  1  94   1
M  ISO  4   1 100  68 101  88 101  92 100
M  END
> <chiral flag>
0

> <version>
0

> <s_m_source_file>
/data/baiqing/PycharmProjects/Reinvent-master-3.2/result/LINK_invent/BTK/process_docking_weight1_custom_sum_contain_oxygen_bond_distance_aromatic_linkinvent_7_9_3/rearranged_h_0195.sdf

> <i_m_source_file_index>
50

> <r_mmod_Potential_Energy-OPLS-2005>
-258.850372314453

> <r_mmod_Stretch_Energy-OPLS-2005>
38.8298416137695

> <r_mmod_Bend_Energy-OPLS-2005>
123.201530456543

> <r_mmod_Torsional_Energy-OPLS-2005>
452.404083251953

> <r_mmod_Improper_Torsional_Energy-OPLS-2005>
7.95146894454956

> <r_mmod_Van_der_Waal_Energy-OPLS-2005>
180.632476806641

> <r_mmod_Electrostatic_Energy-OPLS-2005>
-642.631896972656

> <r_mmod_Solvation_Energy-OPLS-2005>
-426.981414794922

> <b_mmod_Minimization_Converged-OPLS-2005>
0

> <r_mmod_RMS_Derivative-OPLS-2005>
4.65897989273071

$$$$
51
                    3D
 Structure written by MMmdl.
164173  0  0  1  0            999 V2000
  -30.7307  -14.5812   20.5515 C   0  0  0  0  0  0
  -30.4044  -12.3759   19.4685 C   0  0  0  0  0  0
  -29.4986  -12.4929   18.2339 C   0  0  0  0  0  0
  -28.0214  -12.3247   18.6384 C   0  0  0  0  0  0
  -27.6403  -13.2157   19.8556 C   0  0  2  0  0  0
  -28.6781  -13.1310   20.9893 C   0  0  0  0  0  0
  -25.2459  -13.8210   20.5627 C   0  0  0  0  0  0
  -24.1730  -13.0420   20.9274 C   0  0  0  0  0  0
  -24.6326  -11.6925   20.8833 C   0  0  0  0  0  0
  -23.9081  -10.4274   21.0491 C   0  0  0  0  0  0
  -24.3647   -9.4155   21.9219 C   0  0  0  0  0  0
  -23.6307   -8.2171   22.0775 C   0  0  0  0  0  0
  -22.4273   -8.0260   21.3543 C   0  0  0  0  0  0
  -21.9923   -9.0273   20.4648 C   0  0  0  0  0  0
  -22.7320  -10.2142   20.3073 C   0  0  0  0  0  0
  -21.6791   -6.0763   22.5337 C   0  0  0  0  0  0
  -21.3970   -6.5655   23.8284 C   0  0  0  0  0  0
  -21.3660   -5.6790   24.9238 C   0  0  0  0  0  0
  -21.6011   -4.3067   24.7225 C   0  0  0  0  0  0
  -21.8839   -3.8182   23.4339 C   0  0  0  0  0  0
  -21.9183   -4.6987   22.3430 C   0  0  0  0  0  0
  -22.7787  -13.5258   21.2055 C   0  0  0  0  0  0
  -22.1672   -4.2180   21.0987 F   0  0  0  0  0  0
  -21.5614   -3.4550   25.7746 F   0  0  0  0  0  0
  -29.9919  -13.4401   20.4070 N   0  0  0  0  0  0
  -26.2878  -12.9336   20.3277 N   0  0  0  0  0  0
  -25.9237  -11.6521   20.5844 N   0  0  0  0  0  0
  -22.0337  -12.8217   22.0584 N   0  0  0  0  0  0
  -25.4123  -15.1919   20.3874 N   0  0  0  0  0  0
  -31.9453  -14.5542   20.3501 O   0  0  0  0  0  0
  -21.6610   -6.8862   21.4287 O   0  0  0  0  0  0
  -22.3468  -14.5577   20.6956 O   0  0  0  0  0  0
  -24.6162  -31.8646   23.2156 C   0  0  0  0  0  0
  -25.9037  -32.4811   23.8442 C   0  0  1  0  0  0
  -27.1745  -27.3463   20.1449 C   0  0  0  0  0  0
  -25.5895  -33.8620   24.2337 N   0  0  0  0  0  0
  -23.4032  -30.5013   21.5498 C   0  0  2  0  0  0
  -24.8458  -28.9807   20.0911 C   0  0  0  0  0  0
  -22.7402  -29.4611   22.4847 C   0  0  0  0  0  0
  -18.0285  -28.1351   22.8525 C   0  0  0  0  0  0
  -24.1470  -36.7327   23.2642 C   0  0  0  0  0  0
  -25.9423  -30.8089   21.3782 C   0  0  0  0  0  0
  -26.0113  -29.4441   20.7152 C   0  0  0  0  0  0
  -27.1788  -28.6331   20.7449 C   0  0  0  0  0  0
  -26.0089  -26.9428   19.4525 C   0  0  0  0  0  0
  -24.8501  -27.7391   19.4404 C   0  0  0  0  0  0
  -23.6141  -29.8600   20.1539 C   0  0  0  0  0  0
  -25.4084  -36.3091   24.0326 C   0  0  1  0  0  0
  -20.5874  -28.3619   23.1319 C   0  0  2  0  0  0
  -20.6749  -26.9330   22.5435 C   0  0  0  0  0  0
  -19.5723  -26.6339   21.5235 C   0  0  0  0  0  0
  -18.1907  -26.7905   22.1647 C   0  0  0  0  0  0
  -19.1538  -28.8794   23.2938 C   0  0  0  0  0  0
  -18.9466  -30.1407   23.8929 C   0  0  0  0  0  0
  -17.6467  -30.6562   24.0555 C   0  0  0  0  0  0
  -25.9010  -34.9464   23.5118 C   0  0  0  0  0  0
  -16.5351  -29.9057   23.6322 C   0  0  0  0  0  0
  -16.7273  -28.6468   23.0358 C   0  0  0  0  0  0
  -26.4462  -31.6628   25.0791 C   0  0  0  0  0  0
  -25.3775  -31.3758   26.1584 C   0  0  0  0  0  0
  -27.0286  -30.3078   24.6158 C   0  0  0  0  0  0
  -27.5999  -32.4365   25.7598 C   0  0  0  0  0  0
  -27.5553  -37.1826   24.8450 C   0  0  0  0  0  0
  -21.4100  -29.3026   22.3685 N   0  0  0  0  0  0
  -26.4255  -37.3788   23.9417 N   0  0  0  0  0  0
  -24.6738  -31.0691   22.1092 N   0  0  0  0  0  0
  -23.4196  -28.8061   23.2806 O   0  0  0  0  0  0
  -28.2503  -26.4722   20.2614 O   0  0  0  0  0  0
  -26.5550  -34.8910   22.4661 O   0  0  0  0  0  0
  -23.5339  -32.1408   23.7523 O   0  0  0  0  0  0
  -28.4368  -20.3117   22.1385 C   0  0  0  0  0  0
  -26.5530  -21.5879   19.9764 C   0  0  0  0  0  0
  -26.5346  -21.8772   21.4785 C   0  0  0  0  0  0
  -31.2708  -17.5375   20.4022 C   0  0  0  0  0  0
  -30.5961  -16.6702   19.3489 C   0  0  0  0  0  0
  -27.8221  -22.3026   19.4826 C   0  0  0  0  0  0
  -28.0378  -21.8327   21.8345 C   0  0  2  0  0  0
  -30.1749  -17.0394   21.3206 C   0  0  2  0  0  0
  -28.8401  -17.8779   21.4001 C   0  0  0  0  0  0
  -29.0306  -24.0510   20.8186 C   0  0  0  0  0  0
  -27.9050  -25.1650   20.8529 C   0  0  0  0  0  0
  -30.0838  -15.7997   20.4403 N   0  0  0  0  0  0
  -28.8880  -19.3873   21.2295 N   0  0  0  0  0  0
  -28.6625  -22.5680   20.6798 N   0  3  2  0  0  0
  -28.2531  -19.9350   23.2971 O   0  0  0  0  0  0
  -31.4513  -12.4371   19.1715 H   0  0  0  0  0  0
  -30.2897  -11.4065   19.9411 H   0  0  0  0  0  0
  -29.7695  -11.7098   17.5260 H   0  0  0  0  0  0
  -29.6584  -13.4361   17.7031 H   0  0  0  0  0  0
  -27.8803  -11.2739   18.9094 H   0  0  0  0  0  0
  -27.3714  -12.4935   17.7691 H   0  0  0  0  0  0
  -27.6496  -14.2516   19.4986 H   0  0  0  0  0  0
  -28.6849  -12.1445   21.4558 H   0  0  0  0  0  0
  -28.3939  -13.8390   21.7696 H   0  0  0  0  0  0
  -25.2741   -9.5601   22.4886 H   0  0  0  0  0  0
  -23.9968   -7.4516   22.7493 H   0  0  0  0  0  0
  -21.0808   -8.8796   19.8977 H   0  0  0  0  0  0
  -22.3746  -10.9686   19.6178 H   0  0  0  0  0  0
  -21.1935   -7.6169   23.9775 H   0  0  0  0  0  0
  -21.1482   -6.0533   25.9132 H   0  0  0  0  0  0
  -22.0591   -2.7628   23.2873 H   0  0  0  0  0  0
  -22.3731  -11.9868   22.5144 H   0  0  0  0  0  0
  -21.0912  -13.1311   22.2507 H   0  0  0  0  0  0
  -24.6522  -15.8657   20.4520 H   0  0  0  0  0  0
  -26.2682  -15.6230   20.0686 H   0  0  0  0  0  0
  -26.7082  -32.5486   23.1179 H   0  0  0  0  0  0
  -25.0121  -33.9823   25.0524 H   0  0  0  0  0  0
  -22.6923  -31.3229   21.4243 H   0  0  0  0  0  0
  -23.3708  -35.9691   23.3309 H   0  0  0  0  0  0
  -24.3560  -36.8949   22.2060 H   0  0  0  0  0  0
  -23.7257  -37.6543   23.6664 H   0  0  0  0  0  0
  -26.0489  -31.5704   20.6064 H   0  0  0  0  0  0
  -26.8342  -30.8658   21.9913 H   0  0  0  0  0  0
  -28.0597  -28.9518   21.2860 H   0  0  0  0  0  0
  -25.9562  -26.0004   18.9249 H   0  0  0  0  0  0
  -23.9620  -27.3861   18.9331 H   0  0  0  0  0  0
  -23.7355  -30.6549   19.4180 H   0  0  0  0  0  0
  -22.7263  -29.3095   19.8371 H   0  0  0  0  0  0
  -25.1259  -36.1952   25.0818 H   0  0  0  0  0  0
  -21.0056  -28.3202   24.1406 H   0  0  0  0  0  0
  -20.5619  -26.2211   23.3630 H   0  0  0  0  0  0
  -21.6618  -26.7314   22.1245 H   0  0  0  0  0  0
  -19.6854  -25.6257   21.1243 H   0  0  0  0  0  0
  -19.6687  -27.3175   20.6795 H   0  0  0  0  0  0
  -17.4177  -26.6692   21.4040 H   0  0  0  0  0  0
  -18.0266  -26.0029   22.9025 H   0  0  0  0  0  0
  -19.7928  -30.7233   24.2299 H   0  0  0  0  0  0
  -17.5002  -31.6266   24.5124 H   0  0  0  0  0  0
  -15.5338  -30.2967   23.7619 H   0  0  0  0  0  0
  -15.8674  -28.0796   22.7047 H   0  0  0  0  0  0
  -24.5924  -30.7077   25.8020 H   0  0  0  0  0  0
  -24.9009  -32.2937   26.5056 H   0  0  0  0  0  0
  -25.8223  -30.8989   27.0331 H   0  0  0  0  0  0
  -26.2834  -29.6882   24.1154 H   0  0  0  0  0  0
  -27.3992  -29.7273   25.4612 H   0  0  0  0  0  0
  -27.8698  -30.4417   23.9352 H   0  0  0  0  0  0
  -27.2546  -33.3623   26.2220 H   0  0  0  0  0  0
  -28.3846  -32.6991   25.0497 H   0  0  0  0  0  0
  -28.0609  -31.8472   26.5535 H   0  0  0  0  0  0
  -28.2539  -38.0144   24.7464 H   0  0  0  0  0  0
  -28.1064  -36.2663   24.6280 H   0  0  0  0  0  0
  -27.2280  -37.1489   25.8856 H   0  0  0  0  0  0
  -20.9150  -29.8879   21.7106 H   0  0  0  0  0  0
  -26.0117  -38.2846   24.1477 H   0  0  0  0  0  0
  -25.6483  -21.9145   19.4622 H   0  0  0  0  0  0
  -26.6584  -20.5171   19.8073 H   0  0  0  0  0  0
  -25.9352  -21.1469   22.0270 H   0  0  0  0  0  0
  -26.1084  -22.8667   21.6700 H   0  0  0  0  0  0
  -31.2979  -18.6130   20.2119 H   0  0  0  0  0  0
  -32.2560  -17.1793   20.7087 H   0  0  0  0  0  0
  -31.3189  -16.2316   18.6541 H   0  0  0  0  0  0
  -29.8001  -17.1652   18.7955 H   0  0  0  0  0  0
  -28.3747  -21.6871   18.7770 H   0  0  0  0  0  0
  -27.5765  -23.2193   18.9497 H   0  0  0  0  0  0
  -28.2302  -22.3749   22.7621 H   0  0  0  0  0  0
  -30.5942  -16.8247   22.3104 H   0  0  0  0  0  0
  -28.3933  -17.6566   22.3609 H   0  0  0  0  0  0
  -28.1198  -17.4566   20.6893 H   0  0  0  0  0  0
  -29.7075  -24.1953   21.6645 H   0  0  0  0  0  0
  -29.6376  -24.2768   19.9453 H   0  0  0  0  0  0
  -27.6114  -25.3392   21.8889 H   0  0  0  0  0  0
  -27.0058  -24.7695   20.3875 H   0  0  0  0  0  0
  -29.0516  -19.7168   20.2913 H   0  0  0  0  0  0
  -29.5534  -22.1000   20.5663 H   0  0  0  0  0  0
  1 25  1  0  0  0
  1 30  2  0  0  0
  1 82  1  0  0  0
  2  3  1  0  0  0
  2 25  1  0  0  0
  2 86  1  0  0  0
  2 87  1  0  0  0
  3  4  1  0  0  0
  3 88  1  0  0  0
  3 89  1  0  0  0
  4  5  1  0  0  0
  4 90  1  0  0  0
  4 91  1  0  0  0
  5  6  1  0  0  0
  5 26  1  0  0  0
  5 92  1  0  0  0
  6 25  1  0  0  0
  6 93  1  0  0  0
  6 94  1  0  0  0
  7  8  2  0  0  0
  7 26  1  0  0  0
  7 29  1  0  0  0
  8  9  1  0  0  0
  8 22  1  0  0  0
  9 10  1  0  0  0
  9 27  2  0  0  0
 10 11  2  0  0  0
 10 15  1  0  0  0
 11 12  1  0  0  0
 11 95  1  0  0  0
 12 13  2  0  0  0
 12 96  1  0  0  0
 13 14  1  0  0  0
 13 31  1  0  0  0
 14 15  2  0  0  0
 14 97  1  0  0  0
 15 98  1  0  0  0
 16 17  2  0  0  0
 16 21  1  0  0  0
 16 31  1  0  0  0
 17 18  1  0  0  0
 17 99  1  0  0  0
 18 19  2  0  0  0
 18100  1  0  0  0
 19 20  1  0  0  0
 19 24  1  0  0  0
 20 21  2  0  0  0
 20101  1  0  0  0
 21 23  1  0  0  0
 22 28  1  0  0  0
 22 32  2  0  0  0
 26 27  1  0  0  0
 28102  1  0  0  0
 28103  1  0  0  0
 29104  1  0  0  0
 29105  1  0  0  0
 33 34  1  0  0  0
 33 66  1  0  0  0
 33 70  2  0  0  0
 34 36  1  0  0  0
 34 59  1  0  0  0
 34106  1  0  0  0
 35 44  2  0  0  0
 35 45  1  0  0  0
 35 68  1  0  0  0
 36 56  1  0  0  0
 36107  1  0  0  0
 37 39  1  0  0  0
 37 47  1  0  0  0
 37 66  1  0  0  0
 37108  1  0  0  0
 38 43  2  0  0  0
 38 46  1  0  0  0
 38 47  1  0  0  0
 39 64  1  0  0  0
 39 67  2  0  0  0
 40 52  1  0  0  0
 40 53  2  0  0  0
 40 58  1  0  0  0
 41109  1  0  0  0
 41110  1  0  0  0
 41111  1  0  0  0
 41 48  1  0  0  0
 42 43  1  0  0  0
 42 66  1  0  0  0
 42112  1  0  0  0
 42113  1  0  0  0
 43 44  1  0  0  0
 44114  1  0  0  0
 45 46  2  0  0  0
 45115  1  0  0  0
 46116  1  0  0  0
 47117  1  0  0  0
 47118  1  0  0  0
 48 56  1  0  0  0
 48 65  1  0  0  0
 48119  1  0  0  0
 49 50  1  0  0  0
 49 53  1  0  0  0
 49 64  1  0  0  0
 49120  1  0  0  0
 50 51  1  0  0  0
 50121  1  0  0  0
 50122  1  0  0  0
 51 52  1  0  0  0
 51123  1  0  0  0
 51124  1  0  0  0
 52125  1  0  0  0
 52126  1  0  0  0
 53 54  1  0  0  0
 54 55  2  0  0  0
 54127  1  0  0  0
 55 57  1  0  0  0
 55128  1  0  0  0
 56 69  2  0  0  0
 57 58  2  0  0  0
 57129  1  0  0  0
 58130  1  0  0  0
 59 60  1  0  0  0
 59 61  1  0  0  0
 59 62  1  0  0  0
 60131  1  0  0  0
 60132  1  0  0  0
 60133  1  0  0  0
 61134  1  0  0  0
 61135  1  0  0  0
 61136  1  0  0  0
 62137  1  0  0  0
 62138  1  0  0  0
 62139  1  0  0  0
 63 65  1  0  0  0
 63140  1  0  0  0
 63141  1  0  0  0
 63142  1  0  0  0
 64143  1  0  0  0
 65144  1  0  0  0
 68 81  1  0  0  0
 71 83  1  0  0  0
 71 85  2  0  0  0
 71 77  1  0  0  0
 72 73  1  0  0  0
 72 76  1  0  0  0
 72145  1  0  0  0
 72146  1  0  0  0
 73 77  1  0  0  0
 73147  1  0  0  0
 73148  1  0  0  0
 74 75  1  0  0  0
 74 78  1  0  0  0
 74149  1  0  0  0
 74150  1  0  0  0
 75 82  1  0  0  0
 75151  1  0  0  0
 75152  1  0  0  0
 76 84  1  0  0  0
 76153  1  0  0  0
 76154  1  0  0  0
 77 84  1  0  0  0
 77155  1  0  0  0
 78 79  1  0  0  0
 78 82  1  0  0  0
 78156  1  0  0  0
 79 83  1  0  0  0
 79157  1  0  0  0
 79158  1  0  0  0
 80 81  1  0  0  0
 80159  1  0  0  0
 80160  1  0  0  0
 80 84  1  0  0  0
 81161  1  0  0  0
 81162  1  0  0  0
 83163  1  0  0  0
 84164  1  0  0  0
M  CHG  1  84   1
M  ISO  4   1 100  68 101  81 101  82 100
M  END
> <chiral flag>
0

> <version>
0

> <s_m_source_file>
/data/baiqing/PycharmProjects/Reinvent-master-3.2/result/LINK_invent/BTK/process_docking_weight1_custom_sum_contain_oxygen_bond_distance_aromatic_linkinvent_7_9_3/rearranged_h_0195.sdf

> <i_m_source_file_index>
51

> <r_mmod_Potential_Energy-OPLS-2005>
166.998046875

> <r_mmod_Stretch_Energy-OPLS-2005>
88.9748687744141

> <r_mmod_Bend_Energy-OPLS-2005>
203.011642456055

> <r_mmod_Torsional_Energy-OPLS-2005>
371.405700683594

> <r_mmod_Improper_Torsional_Energy-OPLS-2005>
23.0830936431885

> <r_mmod_Van_der_Waal_Energy-OPLS-2005>
134.742568969727

> <r_mmod_Electrostatic_Energy-OPLS-2005>
-253.338638305664

> <r_mmod_Solvation_Energy-OPLS-2005>
-462.835083007812

> <b_mmod_Minimization_Converged-OPLS-2005>
0

> <r_mmod_RMS_Derivative-OPLS-2005>
14.2436275482178

$$$$
52
                    3D
 Structure written by MMmdl.
174184  0  0  1  0            999 V2000
  -30.8098  -14.3133   20.7038 C   0  0  0  0  0  0
  -30.4054  -12.2632   19.4090 C   0  0  0  0  0  0
  -29.4843  -12.5129   18.2031 C   0  0  0  0  0  0
  -28.0118  -12.3689   18.6213 C   0  0  0  0  0  0
  -27.6684  -13.2013   19.8858 C   0  0  2  0  0  0
  -28.7028  -12.9593   21.0049 C   0  0  0  0  0  0
  -25.2607  -13.8169   20.5694 C   0  0  0  0  0  0
  -24.1859  -13.0448   20.9143 C   0  0  0  0  0  0
  -24.6385  -11.6921   20.8702 C   0  0  0  0  0  0
  -23.9049  -10.4308   21.0393 C   0  0  0  0  0  0
  -24.3602   -9.4212   21.9165 C   0  0  0  0  0  0
  -23.6281   -8.2246   22.0741 C   0  0  0  0  0  0
  -22.4258   -8.0296   21.3547 C   0  0  0  0  0  0
  -21.9893   -9.0263   20.4650 C   0  0  0  0  0  0
  -22.7214  -10.2143   20.3047 C   0  0  0  0  0  0
  -21.6858   -6.0728   22.5284 C   0  0  0  0  0  0
  -21.4023   -6.5637   23.8217 C   0  0  0  0  0  0
  -21.3656   -5.6791   24.9173 C   0  0  0  0  0  0
  -21.6038   -4.3051   24.7228 C   0  0  0  0  0  0
  -21.8815   -3.8148   23.4352 C   0  0  0  0  0  0
  -21.9194   -4.6958   22.3408 C   0  0  0  0  0  0
  -22.7863  -13.5252   21.1823 C   0  0  0  0  0  0
  -22.1656   -4.2147   21.0980 F   0  0  0  0  0  0
  -21.5607   -3.4533   25.7729 F   0  0  0  0  0  0
  -30.0515  -13.2126   20.4710 N   0  0  0  0  0  0
  -26.3056  -12.9326   20.3419 N   0  0  0  0  0  0
  -25.9314  -11.6484   20.5767 N   0  0  0  0  0  0
  -22.0499  -12.8256   22.0380 N   0  0  0  0  0  0
  -25.4343  -15.1887   20.4089 N   0  0  0  0  0  0
  -31.7939  -14.6180   20.0193 O   0  0  0  0  0  0
  -21.6643   -6.8877   21.4251 O   0  0  0  0  0  0
  -22.3563  -14.5557   20.6677 O   0  0  0  0  0  0
  -24.6086  -31.8721   23.2158 C   0  0  0  0  0  0
  -25.9014  -32.4849   23.8420 C   0  0  1  0  0  0
  -27.2206  -27.4681   20.0344 C   0  0  0  0  0  0
  -25.5899  -33.8640   24.2327 N   0  0  0  0  0  0
  -23.3873  -30.5037   21.5596 C   0  0  2  0  0  0
  -24.8243  -28.9717   20.1215 C   0  0  0  0  0  0
  -22.7377  -29.4672   22.5041 C   0  0  0  0  0  0
  -18.0242  -28.1338   22.8486 C   0  0  0  0  0  0
  -24.1477  -36.7300   23.2641 C   0  0  0  0  0  0
  -25.9174  -30.8447   21.3640 C   0  0  0  0  0  0
  -25.9915  -29.4838   20.7020 C   0  0  0  0  0  0
  -27.1924  -28.7425   20.6497 C   0  0  0  0  0  0
  -26.0141  -26.9442   19.5100 C   0  0  0  0  0  0
  -24.8284  -27.6965   19.5359 C   0  0  0  0  0  0
  -23.5906  -29.8422   20.1730 C   0  0  0  0  0  0
  -25.4114  -36.3112   24.0332 C   0  0  1  0  0  0
  -20.5823  -28.3627   23.1349 C   0  0  2  0  0  0
  -20.6743  -26.9381   22.5427 C   0  0  0  0  0  0
  -19.5729  -26.6363   21.5199 C   0  0  0  0  0  0
  -18.1902  -26.7877   22.1605 C   0  0  0  0  0  0
  -19.1490  -28.8791   23.2914 C   0  0  0  0  0  0
  -18.9443  -30.1398   23.8923 C   0  0  0  0  0  0
  -17.6463  -30.6589   24.0537 C   0  0  0  0  0  0
  -25.9032  -34.9478   23.5110 C   0  0  0  0  0  0
  -16.5344  -29.9090   23.6322 C   0  0  0  0  0  0
  -16.7237  -28.6473   23.0388 C   0  0  0  0  0  0
  -26.4458  -31.6639   25.0749 C   0  0  0  0  0  0
  -25.3759  -31.3760   26.1528 C   0  0  0  0  0  0
  -27.0274  -30.3087   24.6108 C   0  0  0  0  0  0
  -27.6035  -32.4348   25.7544 C   0  0  0  0  0  0
  -27.5566  -37.1825   24.8470 C   0  0  0  0  0  0
  -21.4103  -29.3004   22.3786 N   0  0  0  0  0  0
  -26.4285  -37.3813   23.9400 N   0  0  0  0  0  0
  -24.6559  -31.0858   22.1029 N   0  0  0  0  0  0
  -23.4203  -28.8204   23.3033 O   0  0  0  0  0  0
  -28.4282  -26.8057   19.9495 O   0  0  0  0  0  0
  -26.5594  -34.8927   22.4672 O   0  0  0  0  0  0
  -23.5310  -32.1472   23.7599 O   0  0  0  0  0  0
  -31.7581  -16.5172   23.2184 C   0  0  0  0  0  0
  -27.7756  -22.0267   18.4084 C   0  0  0  0  0  0
  -31.3168  -15.0596   22.9677 C   0  0  0  0  0  0
  -27.1820  -23.2360   17.6570 C   0  0  0  0  0  0
  -30.1385  -16.4600   21.5138 C   0  0  0  0  0  0
  -31.0893  -20.8561   20.8059 C   0  0  0  0  0  0
  -31.2073  -19.1530   19.6021 C   0  0  0  0  0  0
  -29.5400  -23.3116   17.4181 C   0  0  0  0  0  0
  -31.3842  -17.2502   21.9344 C   0  0  1  0  0  0
  -29.2753  -22.3127   18.5585 C   0  0  2  0  0  0
  -30.1773  -20.2817   19.7014 C   0  0  0  0  0  0
  -31.1428  -18.7743   22.0598 C   0  0  0  0  0  0
  -28.3234  -25.4422   17.8218 C   0  0  0  0  0  0
  -28.4774  -25.4978   19.3704 C   0  0  0  0  0  0
  -30.4564  -15.0586   21.7729 N   0  0  0  0  0  0
  -31.7045  -19.5310   20.9287 N   0  0  0  0  0  0
  -28.3084  -24.0847   17.2460 N   0  0  0  0  0  0
  -30.1204  -21.0995   18.4624 N   0  3  0  0  0  0
  -31.4519  -12.3409   19.1111 H   0  0  0  0  0  0
  -30.2804  -11.2459   19.7774 H   0  0  0  0  0  0
  -29.7156  -11.8075   17.4018 H   0  0  0  0  0  0
  -29.6617  -13.5089   17.7968 H   0  0  0  0  0  0
  -27.8258  -11.3122   18.8148 H   0  0  0  0  0  0
  -27.3541  -12.6448   17.7973 H   0  0  0  0  0  0
  -27.7261  -14.2521   19.6013 H   0  0  0  0  0  0
  -28.6494  -11.9290   21.3587 H   0  0  0  0  0  0
  -28.4581  -13.5736   21.8715 H   0  0  0  0  0  0
  -25.2745   -9.5695   22.4733 H   0  0  0  0  0  0
  -23.9984   -7.4658   22.7470 H   0  0  0  0  0  0
  -21.0811   -8.8794   19.8978 H   0  0  0  0  0  0
  -22.3669  -10.9676   19.6165 H   0  0  0  0  0  0
  -21.2058   -7.6150   23.9726 H   0  0  0  0  0  0
  -21.1448   -6.0512   25.9073 H   0  0  0  0  0  0
  -22.0607   -2.7611   23.2849 H   0  0  0  0  0  0
  -22.4087  -11.9912   22.4770 H   0  0  0  0  0  0
  -21.1135  -13.1322   22.2612 H   0  0  0  0  0  0
  -24.6715  -15.8468   20.5268 H   0  0  0  0  0  0
  -26.2950  -15.6284   20.1093 H   0  0  0  0  0  0
  -26.7065  -32.5554   23.1161 H   0  0  0  0  0  0
  -25.0093  -33.9820   25.0485 H   0  0  0  0  0  0
  -22.6703  -31.3178   21.4341 H   0  0  0  0  0  0
  -23.3735  -35.9634   23.3348 H   0  0  0  0  0  0
  -24.3554  -36.8871   22.2046 H   0  0  0  0  0  0
  -23.7234  -37.6516   23.6619 H   0  0  0  0  0  0
  -26.0326  -31.6236   20.6094 H   0  0  0  0  0  0
  -26.8042  -30.8893   21.9856 H   0  0  0  0  0  0
  -28.1047  -29.1537   21.0575 H   0  0  0  0  0  0
  -25.9536  -25.9693   19.0565 H   0  0  0  0  0  0
  -23.9220  -27.2910   19.1091 H   0  0  0  0  0  0
  -23.6955  -30.6176   19.4166 H   0  0  0  0  0  0
  -22.7111  -29.2684   19.8754 H   0  0  0  0  0  0
  -25.1293  -36.1971   25.0831 H   0  0  0  0  0  0
  -20.9893  -28.3153   24.1476 H   0  0  0  0  0  0
  -20.5608  -26.2244   23.3616 H   0  0  0  0  0  0
  -21.6636  -26.7431   22.1244 H   0  0  0  0  0  0
  -19.6919  -25.6267   21.1234 H   0  0  0  0  0  0
  -19.6653  -27.3164   20.6728 H   0  0  0  0  0  0
  -17.4185  -26.6600   21.4011 H   0  0  0  0  0  0
  -18.0331  -26.0008   22.8998 H   0  0  0  0  0  0
  -19.7937  -30.7181   24.2339 H   0  0  0  0  0  0
  -17.5042  -31.6280   24.5112 H   0  0  0  0  0  0
  -15.5347  -30.3032   23.7637 H   0  0  0  0  0  0
  -15.8611  -28.0796   22.7168 H   0  0  0  0  0  0
  -24.5903  -30.7123   25.7888 H   0  0  0  0  0  0
  -24.9001  -32.2944   26.4985 H   0  0  0  0  0  0
  -25.8172  -30.8935   27.0271 H   0  0  0  0  0  0
  -26.2826  -29.6930   24.1064 H   0  0  0  0  0  0
  -27.3937  -29.7251   25.4561 H   0  0  0  0  0  0
  -27.8702  -30.4393   23.9328 H   0  0  0  0  0  0
  -27.2615  -33.3599   26.2200 H   0  0  0  0  0  0
  -28.3851  -32.7002   25.0411 H   0  0  0  0  0  0
  -28.0697  -31.8433   26.5431 H   0  0  0  0  0  0
  -28.2624  -38.0091   24.7514 H   0  0  0  0  0  0
  -28.1037  -36.2634   24.6307 H   0  0  0  0  0  0
  -27.2297  -37.1502   25.8882 H   0  0  0  0  0  0
  -20.9255  -29.8795   21.7056 H   0  0  0  0  0  0
  -26.0169  -38.2879   24.1431 H   0  0  0  0  0  0
  -32.8228  -16.5889   23.4480 H   0  0  0  0  0  0
  -31.2107  -16.9297   24.0676 H   0  0  0  0  0  0
  -27.5972  -21.1245   17.8193 H   0  0  0  0  0  0
  -27.2993  -21.8665   19.3797 H   0  0  0  0  0  0
  -30.7536  -14.6723   23.8199 H   0  0  0  0  0  0
  -32.1821  -14.4066   22.8421 H   0  0  0  0  0  0
  -26.4383  -23.7645   18.2565 H   0  0  0  0  0  0
  -26.6585  -22.8914   16.7595 H   0  0  0  0  0  0
  -29.2782  -16.7331   22.1291 H   0  0  0  0  0  0
  -29.8456  -16.6312   20.4780 H   0  0  0  0  0  0
  -30.6002  -21.1753   21.7270 H   0  0  0  0  0  0
  -31.8354  -21.5764   20.4615 H   0  0  0  0  0  0
  -32.0016  -19.3147   18.8725 H   0  0  0  0  0  0
  -30.8169  -18.1451   19.5483 H   0  0  0  0  0  0
  -29.6951  -22.7641   16.4836 H   0  0  0  0  0  0
  -30.4256  -23.9360   17.5765 H   0  0  0  0  0  0
  -32.1883  -17.0641   21.2209 H   0  0  0  0  0  0
  -29.4694  -22.8040   19.5138 H   0  0  0  0  0  0
  -29.2048  -19.9425   20.0698 H   0  0  0  0  0  0
  -31.6409  -19.1357   22.9605 H   0  0  0  0  0  0
  -30.0779  -18.9716   22.2006 H   0  0  0  0  0  0
  -29.1396  -25.9953   17.3558 H   0  0  0  0  0  0
  -27.4192  -25.9548   17.4960 H   0  0  0  0  0  0
  -29.4576  -25.1072   19.6321 H   0  0  0  0  0  0
  -27.7591  -24.8537   19.8708 H   0  0  0  0  0  0
  -31.0567  -21.3817   18.2268 H   0  0  0  0  0  0
  -29.7862  -20.5313   17.7014 H   0  0  0  0  0  0
  1 25  1  0  0  0
  1 30  2  0  0  0
  1 85  1  0  0  0
  2  3  1  0  0  0
  2 25  1  0  0  0
  2 89  1  0  0  0
  2 90  1  0  0  0
  3  4  1  0  0  0
  3 91  1  0  0  0
  3 92  1  0  0  0
  4  5  1  0  0  0
  4 93  1  0  0  0
  4 94  1  0  0  0
  5  6  1  0  0  0
  5 26  1  0  0  0
  5 95  1  0  0  0
  6 25  1  0  0  0
  6 96  1  0  0  0
  6 97  1  0  0  0
  7  8  2  0  0  0
  7 26  1  0  0  0
  7 29  1  0  0  0
  8  9  1  0  0  0
  8 22  1  0  0  0
  9 10  1  0  0  0
  9 27  2  0  0  0
 10 11  2  0  0  0
 10 15  1  0  0  0
 11 12  1  0  0  0
 11 98  1  0  0  0
 12 13  2  0  0  0
 12 99  1  0  0  0
 13 14  1  0  0  0
 13 31  1  0  0  0
 14 15  2  0  0  0
 14100  1  0  0  0
 15101  1  0  0  0
 16 17  2  0  0  0
 16 21  1  0  0  0
 16 31  1  0  0  0
 17 18  1  0  0  0
 17102  1  0  0  0
 18 19  2  0  0  0
 18103  1  0  0  0
 19 20  1  0  0  0
 19 24  1  0  0  0
 20 21  2  0  0  0
 20104  1  0  0  0
 21 23  1  0  0  0
 22 28  1  0  0  0
 22 32  2  0  0  0
 26 27  1  0  0  0
 28105  1  0  0  0
 28106  1  0  0  0
 29107  1  0  0  0
 29108  1  0  0  0
 33 34  1  0  0  0
 33 66  1  0  0  0
 33 70  2  0  0  0
 34 36  1  0  0  0
 34 59  1  0  0  0
 34109  1  0  0  0
 35 44  2  0  0  0
 35 45  1  0  0  0
 35 68  1  0  0  0
 36 56  1  0  0  0
 36110  1  0  0  0
 37 39  1  0  0  0
 37 47  1  0  0  0
 37 66  1  0  0  0
 37111  1  0  0  0
 38 43  2  0  0  0
 38 46  1  0  0  0
 38 47  1  0  0  0
 39 64  1  0  0  0
 39 67  2  0  0  0
 40 52  1  0  0  0
 40 53  2  0  0  0
 40 58  1  0  0  0
 41112  1  0  0  0
 41113  1  0  0  0
 41114  1  0  0  0
 41 48  1  0  0  0
 42 43  1  0  0  0
 42 66  1  0  0  0
 42115  1  0  0  0
 42116  1  0  0  0
 43 44  1  0  0  0
 44117  1  0  0  0
 45 46  2  0  0  0
 45118  1  0  0  0
 46119  1  0  0  0
 47120  1  0  0  0
 47121  1  0  0  0
 48 56  1  0  0  0
 48 65  1  0  0  0
 48122  1  0  0  0
 49 50  1  0  0  0
 49 53  1  0  0  0
 49 64  1  0  0  0
 49123  1  0  0  0
 50 51  1  0  0  0
 50124  1  0  0  0
 50125  1  0  0  0
 51 52  1  0  0  0
 51126  1  0  0  0
 51127  1  0  0  0
 52128  1  0  0  0
 52129  1  0  0  0
 53 54  1  0  0  0
 54 55  2  0  0  0
 54130  1  0  0  0
 55 57  1  0  0  0
 55131  1  0  0  0
 56 69  2  0  0  0
 57 58  2  0  0  0
 57132  1  0  0  0
 58133  1  0  0  0
 59 60  1  0  0  0
 59 61  1  0  0  0
 59 62  1  0  0  0
 60134  1  0  0  0
 60135  1  0  0  0
 60136  1  0  0  0
 61137  1  0  0  0
 61138  1  0  0  0
 61139  1  0  0  0
 62140  1  0  0  0
 62141  1  0  0  0
 62142  1  0  0  0
 63 65  1  0  0  0
 63143  1  0  0  0
 63144  1  0  0  0
 63145  1  0  0  0
 64146  1  0  0  0
 65147  1  0  0  0
 68 84  1  0  0  0
 71 73  1  0  0  0
 71 79  1  0  0  0
 71148  1  0  0  0
 71149  1  0  0  0
 72 74  1  0  0  0
 72 80  1  0  0  0
 72150  1  0  0  0
 72151  1  0  0  0
 73 85  1  0  0  0
 73152  1  0  0  0
 73153  1  0  0  0
 74 87  1  0  0  0
 74154  1  0  0  0
 74155  1  0  0  0
 75 79  1  0  0  0
 75 85  1  0  0  0
 75156  1  0  0  0
 75157  1  0  0  0
 76 81  1  0  0  0
 76 86  1  0  0  0
 76158  1  0  0  0
 76159  1  0  0  0
 77 81  1  0  0  0
 77 86  1  0  0  0
 77160  1  0  0  0
 77161  1  0  0  0
 78 80  1  0  0  0
 78 87  1  0  0  0
 78162  1  0  0  0
 78163  1  0  0  0
 79 82  1  0  0  0
 79164  1  0  0  0
 80 88  1  0  0  0
 80165  1  0  0  0
 81 88  1  0  0  0
 81166  1  0  0  0
 82 86  1  0  0  0
 82167  1  0  0  0
 82168  1  0  0  0
 83 84  1  0  0  0
 83 87  1  0  0  0
 83169  1  0  0  0
 83170  1  0  0  0
 84171  1  0  0  0
 84172  1  0  0  0
 88173  1  0  0  0
 88174  1  0  0  0
M  CHG  1  88   1
M  ISO  4   1 100  68 101  84 101  85 100
M  END
> <chiral flag>
0

> <version>
0

> <s_m_source_file>
/data/baiqing/PycharmProjects/Reinvent-master-3.2/result/LINK_invent/BTK/process_docking_weight1_custom_sum_contain_oxygen_bond_distance_aromatic_linkinvent_7_9_3/rearranged_h_0195.sdf

> <i_m_source_file_index>
52

> <r_mmod_Potential_Energy-OPLS-2005>
182.24494934082

> <r_mmod_Stretch_Energy-OPLS-2005>
37.6723785400391

> <r_mmod_Bend_Energy-OPLS-2005>
177.853515625

> <r_mmod_Torsional_Energy-OPLS-2005>
428.226257324219

> <r_mmod_Improper_Torsional_Energy-OPLS-2005>
6.73670530319214

> <r_mmod_Van_der_Waal_Energy-OPLS-2005>
145.548477172852

> <r_mmod_Electrostatic_Energy-OPLS-2005>
-151.548248291016

> <r_mmod_Solvation_Energy-OPLS-2005>
-472.865081787109

> <b_mmod_Minimization_Converged-OPLS-2005>
0

> <r_mmod_RMS_Derivative-OPLS-2005>
5.72935676574707

$$$$
53
                    3D
 Structure written by MMmdl.
177187  0  0  1  0            999 V2000
  -30.7185  -14.5160   20.5171 C   0  0  0  0  0  0
  -30.3982  -12.3310   19.4118 C   0  0  0  0  0  0
  -29.4779  -12.4764   18.1833 C   0  0  0  0  0  0
  -28.0010  -12.3291   18.5938 C   0  0  0  0  0  0
  -27.6373  -13.1898   19.8327 C   0  0  2  0  0  0
  -28.6843  -13.0522   20.9641 C   0  0  0  0  0  0
  -25.2506  -13.8070   20.5524 C   0  0  0  0  0  0
  -24.1781  -13.0389   20.9160 C   0  0  0  0  0  0
  -24.6331  -11.6858   20.8701 C   0  0  0  0  0  0
  -23.9007  -10.4254   21.0360 C   0  0  0  0  0  0
  -24.3566   -9.4191   21.9160 C   0  0  0  0  0  0
  -23.6253   -8.2228   22.0735 C   0  0  0  0  0  0
  -22.4241   -8.0250   21.3520 C   0  0  0  0  0  0
  -21.9853   -9.0215   20.4625 C   0  0  0  0  0  0
  -22.7162  -10.2106   20.3026 C   0  0  0  0  0  0
  -21.6853   -6.0687   22.5261 C   0  0  0  0  0  0
  -21.4020   -6.5604   23.8191 C   0  0  0  0  0  0
  -21.3664   -5.6772   24.9161 C   0  0  0  0  0  0
  -21.6046   -4.3036   24.7217 C   0  0  0  0  0  0
  -21.8822   -3.8109   23.4343 C   0  0  0  0  0  0
  -21.9197   -4.6912   22.3388 C   0  0  0  0  0  0
  -22.7822  -13.5205   21.1821 C   0  0  0  0  0  0
  -22.1644   -4.2081   21.0962 F   0  0  0  0  0  0
  -21.5653   -3.4532   25.7737 F   0  0  0  0  0  0
  -30.0045  -13.3561   20.3976 N   0  0  0  0  0  0
  -26.2877  -12.9218   20.3128 N   0  0  0  0  0  0
  -25.9225  -11.6400   20.5647 N   0  0  0  0  0  0
  -22.0418  -12.8271   22.0416 N   0  0  0  0  0  0
  -25.4220  -15.1775   20.3787 N   0  0  0  0  0  0
  -31.8780  -14.5837   20.1051 O   0  0  0  0  0  0
  -21.6622   -6.8830   21.4229 O   0  0  0  0  0  0
  -22.3540  -14.5510   20.6626 O   0  0  0  0  0  0
  -24.6133  -31.8675   23.2094 C   0  0  0  0  0  0
  -25.9015  -32.4824   23.8411 C   0  0  1  0  0  0
  -27.2445  -27.4368   20.1095 C   0  0  0  0  0  0
  -25.5871  -33.8627   24.2321 N   0  0  0  0  0  0
  -23.4034  -30.4874   21.5500 C   0  0  2  0  0  0
  -24.8532  -28.9448   20.1273 C   0  0  0  0  0  0
  -22.7398  -29.4645   22.4991 C   0  0  0  0  0  0
  -18.0256  -28.1393   22.8478 C   0  0  0  0  0  0
  -24.1479  -36.7337   23.2635 C   0  0  0  0  0  0
  -25.9319  -30.8288   21.3668 C   0  0  0  0  0  0
  -26.0122  -29.4609   20.7241 C   0  0  0  0  0  0
  -27.2123  -28.7130   20.7168 C   0  0  0  0  0  0
  -26.0732  -26.9291   19.5161 C   0  0  0  0  0  0
  -24.8761  -27.6752   19.5239 C   0  0  0  0  0  0
  -23.6173  -29.8157   20.1674 C   0  0  0  0  0  0
  -25.4098  -36.3121   24.0337 C   0  0  1  0  0  0
  -20.5844  -28.3666   23.1328 C   0  0  2  0  0  0
  -20.6754  -26.9407   22.5421 C   0  0  0  0  0  0
  -19.5737  -26.6386   21.5217 C   0  0  0  0  0  0
  -18.1911  -26.7931   22.1619 C   0  0  0  0  0  0
  -19.1503  -28.8844   23.2894 C   0  0  0  0  0  0
  -18.9443  -30.1452   23.8896 C   0  0  0  0  0  0
  -17.6449  -30.6594   24.0574 C   0  0  0  0  0  0
  -25.9027  -34.9481   23.5133 C   0  0  0  0  0  0
  -16.5338  -29.9097   23.6346 C   0  0  0  0  0  0
  -16.7251  -28.6523   23.0351 C   0  0  0  0  0  0
  -26.4446  -31.6600   25.0732 C   0  0  0  0  0  0
  -25.3723  -31.3717   26.1491 C   0  0  0  0  0  0
  -27.0259  -30.3037   24.6108 C   0  0  0  0  0  0
  -27.6027  -32.4311   25.7485 C   0  0  0  0  0  0
  -27.5583  -37.1819   24.8450 C   0  0  0  0  0  0
  -21.4120  -29.3027   22.3730 N   0  0  0  0  0  0
  -26.4286  -37.3801   23.9408 N   0  0  0  0  0  0
  -24.6679  -31.0766   22.1009 N   0  0  0  0  0  0
  -23.4149  -28.8210   23.3076 O   0  0  0  0  0  0
  -28.3987  -26.6886   20.0304 O   0  0  0  0  0  0
  -26.5602  -34.8931   22.4702 O   0  0  0  0  0  0
  -23.5329  -32.1449   23.7475 O   0  0  0  0  0  0
  -32.4801  -20.6328   22.5828 C   0  0  0  0  0  0
  -31.7013  -19.4806   22.4225 C   0  0  0  0  0  0
  -32.3757  -21.6796   21.6444 C   0  0  0  0  0  0
  -30.8358  -19.3942   21.3215 C   0  0  0  0  0  0
  -31.3447  -21.5891   20.6701 C   0  0  0  0  0  0
  -28.8424  -17.7084   20.9750 C   0  0  0  0  0  0
  -28.8207  -16.1937   20.6819 C   0  0  0  0  0  0
  -30.3079  -26.2168   21.2858 C   0  0  0  0  0  0
  -28.3307  -24.8780   21.5545 C   0  0  0  0  0  0
  -30.9514  -16.7798   21.4835 C   0  0  0  0  0  0
  -30.8536  -25.2145   20.2398 C   0  0  0  0  0  0
  -28.8851  -23.8322   20.5542 C   0  0  0  0  0  0
  -30.3195  -18.0279   20.8383 C   0  0  2  0  0  0
  -34.8466  -22.1560   21.5025 C   0  0  0  0  0  0
  -33.3950  -23.6431   22.9336 C   0  0  0  0  0  0
  -30.9909  -22.7605   19.7479 C   0  0  0  0  0  0
  -33.4471  -22.7790   21.6671 C   0  0  0  0  0  0
  -30.5991  -20.4605   20.5188 N   0  0  0  0  0  0
  -30.1310  -15.6264   21.0662 N   0  0  0  0  0  0
  -28.8409  -26.2421   21.3360 N   0  0  0  0  0  0
  -30.3670  -23.8472   20.5467 N   0  3  0  0  0  0
  -31.4380  -12.4132   19.0978 H   0  0  0  0  0  0
  -30.2937  -11.3349   19.8459 H   0  0  0  0  0  0
  -29.7264  -11.7243   17.4331 H   0  0  0  0  0  0
  -29.6353  -13.4463   17.7081 H   0  0  0  0  0  0
  -27.8254  -11.2772   18.8117 H   0  0  0  0  0  0
  -27.3518  -12.5786   17.7509 H   0  0  0  0  0  0
  -27.6396  -14.2039   19.4591 H   0  0  0  0  0  0
  -28.6729  -12.0399   21.3654 H   0  0  0  0  0  0
  -28.4391  -13.6983   21.8059 H   0  0  0  0  0  0
  -25.2678   -9.5701   22.4774 H   0  0  0  0  0  0
  -23.9943   -7.4627   22.7459 H   0  0  0  0  0  0
  -21.0770   -8.8711   19.8967 H   0  0  0  0  0  0
  -22.3542  -10.9652   19.6166 H   0  0  0  0  0  0
  -21.2010   -7.6109   23.9669 H   0  0  0  0  0  0
  -21.1501   -6.0506   25.9077 H   0  0  0  0  0  0
  -22.0603   -2.7561   23.2842 H   0  0  0  0  0  0
  -22.3928  -11.9965   22.4914 H   0  0  0  0  0  0
  -21.1019  -13.1379   22.2468 H   0  0  0  0  0  0
  -24.6615  -15.8361   20.4962 H   0  0  0  0  0  0
  -26.2693  -15.6123   20.0359 H   0  0  0  0  0  0
  -26.7073  -32.5545   23.1170 H   0  0  0  0  0  0
  -24.9978  -33.9793   25.0435 H   0  0  0  0  0  0
  -22.6949  -31.3048   21.4057 H   0  0  0  0  0  0
  -23.3728  -35.9683   23.3300 H   0  0  0  0  0  0
  -24.3570  -36.8953   22.2049 H   0  0  0  0  0  0
  -23.7246  -37.6551   23.6651 H   0  0  0  0  0  0
  -26.0411  -31.5878   20.5914 H   0  0  0  0  0  0
  -26.8216  -30.8882   21.9835 H   0  0  0  0  0  0
  -28.1114  -29.1035   21.1721 H   0  0  0  0  0  0
  -26.0883  -25.9579   19.0416 H   0  0  0  0  0  0
  -23.9866  -27.2683   19.0640 H   0  0  0  0  0  0
  -23.7350  -30.5882   19.4066 H   0  0  0  0  0  0
  -22.7418  -29.2376   19.8670 H   0  0  0  0  0  0
  -25.1269  -36.1991   25.0830 H   0  0  0  0  0  0
  -20.9931  -28.3240   24.1457 H   0  0  0  0  0  0
  -20.5675  -26.2284   23.3610 H   0  0  0  0  0  0
  -21.6633  -26.7471   22.1215 H   0  0  0  0  0  0
  -19.6917  -25.6295   21.1256 H   0  0  0  0  0  0
  -19.6706  -27.3191   20.6744 H   0  0  0  0  0  0
  -17.4202  -26.6681   21.4005 H   0  0  0  0  0  0
  -18.0307  -26.0069   22.9010 H   0  0  0  0  0  0
  -19.7932  -30.7253   24.2271 H   0  0  0  0  0  0
  -17.5025  -31.6285   24.5165 H   0  0  0  0  0  0
  -15.5344  -30.3017   23.7672 H   0  0  0  0  0  0
  -15.8646  -28.0857   22.7065 H   0  0  0  0  0  0
  -24.5868  -30.7089   25.7836 H   0  0  0  0  0  0
  -24.8953  -32.2885   26.4969 H   0  0  0  0  0  0
  -25.8089  -30.8864   27.0229 H   0  0  0  0  0  0
  -26.2811  -29.6819   24.1131 H   0  0  0  0  0  0
  -27.3978  -29.7242   25.4562 H   0  0  0  0  0  0
  -27.8663  -30.4325   23.9286 H   0  0  0  0  0  0
  -27.2634  -33.3576   26.2124 H   0  0  0  0  0  0
  -28.3801  -32.6927   25.0295 H   0  0  0  0  0  0
  -28.0734  -31.8406   26.5352 H   0  0  0  0  0  0
  -28.2582  -38.0134   24.7512 H   0  0  0  0  0  0
  -28.1099  -36.2671   24.6240 H   0  0  0  0  0  0
  -27.2317  -37.1412   25.8856 H   0  0  0  0  0  0
  -20.9295  -29.8747   21.6933 H   0  0  0  0  0  0
  -26.0180  -38.2876   24.1440 H   0  0  0  0  0  0
  -33.2141  -20.6614   23.3735 H   0  0  0  0  0  0
  -31.8720  -18.6465   23.0866 H   0  0  0  0  0  0
  -28.5065  -17.8963   21.9957 H   0  0  0  0  0  0
  -28.2033  -18.2854   20.3022 H   0  0  0  0  0  0
  -28.6826  -16.0494   19.6078 H   0  0  0  0  0  0
  -27.9818  -15.7337   21.2027 H   0  0  0  0  0  0
  -30.6807  -27.2177   21.0756 H   0  0  0  0  0  0
  -30.6878  -25.9538   22.2750 H   0  0  0  0  0  0
  -28.5965  -24.5720   22.5681 H   0  0  0  0  0  0
  -27.2408  -24.8829   21.5244 H   0  0  0  0  0  0
  -32.0121  -16.7228   21.2277 H   0  0  0  0  0  0
  -30.8782  -16.8169   22.5693 H   0  0  0  0  0  0
  -31.9425  -25.2436   20.2646 H   0  0  0  0  0  0
  -30.5609  -25.5084   19.2303 H   0  0  0  0  0  0
  -28.4959  -24.0273   19.5532 H   0  0  0  0  0  0
  -28.5283  -22.8406   20.8394 H   0  0  0  0  0  0
  -30.5553  -17.9981   19.7720 H   0  0  0  0  0  0
  -34.9006  -21.5315   20.6090 H   0  0  0  0  0  0
  -35.1160  -21.5321   22.3545 H   0  0  0  0  0  0
  -35.6173  -22.9227   21.4173 H   0  0  0  0  0  0
  -32.4462  -24.1671   23.0288 H   0  0  0  0  0  0
  -34.1865  -24.3959   22.9158 H   0  0  0  0  0  0
  -33.5378  -23.0431   23.8320 H   0  0  0  0  0  0
  -30.3252  -22.4353   18.9474 H   0  0  0  0  0  0
  -31.8876  -23.1072   19.2373 H   0  0  0  0  0  0
  -33.3270  -23.4475   20.8196 H   0  0  0  0  0  0
  -30.6658  -23.6328   21.4863 H   0  0  0  0  0  0
  1 25  1  0  0  0
  1 30  2  0  0  0
  1 89  1  0  0  0
  2  3  1  0  0  0
  2 25  1  0  0  0
  2 92  1  0  0  0
  2 93  1  0  0  0
  3  4  1  0  0  0
  3 94  1  0  0  0
  3 95  1  0  0  0
  4  5  1  0  0  0
  4 96  1  0  0  0
  4 97  1  0  0  0
  5  6  1  0  0  0
  5 26  1  0  0  0
  5 98  1  0  0  0
  6 25  1  0  0  0
  6 99  1  0  0  0
  6100  1  0  0  0
  7  8  2  0  0  0
  7 26  1  0  0  0
  7 29  1  0  0  0
  8  9  1  0  0  0
  8 22  1  0  0  0
  9 10  1  0  0  0
  9 27  2  0  0  0
 10 11  2  0  0  0
 10 15  1  0  0  0
 11 12  1  0  0  0
 11101  1  0  0  0
 12 13  2  0  0  0
 12102  1  0  0  0
 13 14  1  0  0  0
 13 31  1  0  0  0
 14 15  2  0  0  0
 14103  1  0  0  0
 15104  1  0  0  0
 16 17  2  0  0  0
 16 21  1  0  0  0
 16 31  1  0  0  0
 17 18  1  0  0  0
 17105  1  0  0  0
 18 19  2  0  0  0
 18106  1  0  0  0
 19 20  1  0  0  0
 19 24  1  0  0  0
 20 21  2  0  0  0
 20107  1  0  0  0
 21 23  1  0  0  0
 22 28  1  0  0  0
 22 32  2  0  0  0
 26 27  1  0  0  0
 28108  1  0  0  0
 28109  1  0  0  0
 29110  1  0  0  0
 29111  1  0  0  0
 33 34  1  0  0  0
 33 66  1  0  0  0
 33 70  2  0  0  0
 34 36  1  0  0  0
 34 59  1  0  0  0
 34112  1  0  0  0
 35 44  2  0  0  0
 35 45  1  0  0  0
 35 68  1  0  0  0
 36 56  1  0  0  0
 36113  1  0  0  0
 37 39  1  0  0  0
 37 47  1  0  0  0
 37 66  1  0  0  0
 37114  1  0  0  0
 38 43  2  0  0  0
 38 46  1  0  0  0
 38 47  1  0  0  0
 39 64  1  0  0  0
 39 67  2  0  0  0
 40 52  1  0  0  0
 40 53  2  0  0  0
 40 58  1  0  0  0
 41115  1  0  0  0
 41116  1  0  0  0
 41117  1  0  0  0
 41 48  1  0  0  0
 42 43  1  0  0  0
 42 66  1  0  0  0
 42118  1  0  0  0
 42119  1  0  0  0
 43 44  1  0  0  0
 44120  1  0  0  0
 45 46  2  0  0  0
 45121  1  0  0  0
 46122  1  0  0  0
 47123  1  0  0  0
 47124  1  0  0  0
 48 56  1  0  0  0
 48 65  1  0  0  0
 48125  1  0  0  0
 49 50  1  0  0  0
 49 53  1  0  0  0
 49 64  1  0  0  0
 49126  1  0  0  0
 50 51  1  0  0  0
 50127  1  0  0  0
 50128  1  0  0  0
 51 52  1  0  0  0
 51129  1  0  0  0
 51130  1  0  0  0
 52131  1  0  0  0
 52132  1  0  0  0
 53 54  1  0  0  0
 54 55  2  0  0  0
 54133  1  0  0  0
 55 57  1  0  0  0
 55134  1  0  0  0
 56 69  2  0  0  0
 57 58  2  0  0  0
 57135  1  0  0  0
 58136  1  0  0  0
 59 60  1  0  0  0
 59 61  1  0  0  0
 59 62  1  0  0  0
 60137  1  0  0  0
 60138  1  0  0  0
 60139  1  0  0  0
 61140  1  0  0  0
 61141  1  0  0  0
 61142  1  0  0  0
 62143  1  0  0  0
 62144  1  0  0  0
 62145  1  0  0  0
 63 65  1  0  0  0
 63146  1  0  0  0
 63147  1  0  0  0
 63148  1  0  0  0
 64149  1  0  0  0
 65150  1  0  0  0
 68 90  1  0  0  0
 71 72  2  0  0  0
 71 73  1  0  0  0
 71151  1  0  0  0
 72 74  1  0  0  0
 72152  1  0  0  0
 73 75  2  0  0  0
 73 87  1  0  0  0
 74 88  2  0  0  0
 74 83  1  0  0  0
 75 86  1  0  0  0
 75 88  1  0  0  0
 76 77  1  0  0  0
 76 83  1  0  0  0
 76153  1  0  0  0
 76154  1  0  0  0
 77 89  1  0  0  0
 77155  1  0  0  0
 77156  1  0  0  0
 78 81  1  0  0  0
 78 90  1  0  0  0
 78157  1  0  0  0
 78158  1  0  0  0
 79 82  1  0  0  0
 79 90  1  0  0  0
 79159  1  0  0  0
 79160  1  0  0  0
 80 83  1  0  0  0
 80 89  1  0  0  0
 80161  1  0  0  0
 80162  1  0  0  0
 81 91  1  0  0  0
 81163  1  0  0  0
 81164  1  0  0  0
 82 91  1  0  0  0
 82165  1  0  0  0
 82166  1  0  0  0
 83167  1  0  0  0
 84168  1  0  0  0
 84169  1  0  0  0
 84170  1  0  0  0
 84 87  1  0  0  0
 85 87  1  0  0  0
 85171  1  0  0  0
 85172  1  0  0  0
 85173  1  0  0  0
 86174  1  0  0  0
 86175  1  0  0  0
 86 91  1  0  0  0
 87176  1  0  0  0
 91177  1  0  0  0
M  CHG  1  91   1
M  ISO  4   1 100  68 101  89 100  90 101
M  END
> <chiral flag>
0

> <version>
0

> <s_m_source_file>
/data/baiqing/PycharmProjects/Reinvent-master-3.2/result/LINK_invent/BTK/process_docking_weight1_custom_sum_contain_oxygen_bond_distance_aromatic_linkinvent_7_9_3/rearranged_h_0195.sdf

> <i_m_source_file_index>
53

> <r_mmod_Potential_Energy-OPLS-2005>
-157.451766967773

> <r_mmod_Stretch_Energy-OPLS-2005>
44.3925247192383

> <r_mmod_Bend_Energy-OPLS-2005>
153.264572143555

> <r_mmod_Torsional_Energy-OPLS-2005>
320.002777099609

> <r_mmod_Improper_Torsional_Energy-OPLS-2005>
6.39465475082397

> <r_mmod_Van_der_Waal_Energy-OPLS-2005>
160.152481079102

> <r_mmod_Electrostatic_Energy-OPLS-2005>
-431.65625

> <r_mmod_Solvation_Energy-OPLS-2005>
-430.198089599609

> <b_mmod_Minimization_Converged-OPLS-2005>
0

> <r_mmod_RMS_Derivative-OPLS-2005>
5.63808059692383

$$$$
54
                    3D
 Structure written by MMmdl.
163172  0  0  1  0            999 V2000
  -30.7347  -14.4584   20.6018 C   0  0  0  0  0  0
  -30.4081  -12.3114   19.4150 C   0  0  0  0  0  0
  -29.4879  -12.5354   18.2011 C   0  0  0  0  0  0
  -28.0123  -12.3807   18.6128 C   0  0  0  0  0  0
  -27.6577  -13.2135   19.8745 C   0  0  2  0  0  0
  -28.7011  -13.0025   20.9955 C   0  0  0  0  0  0
  -25.2537  -13.8190   20.5656 C   0  0  0  0  0  0
  -24.1806  -13.0447   20.9177 C   0  0  0  0  0  0
  -24.6372  -11.6917   20.8726 C   0  0  0  0  0  0
  -23.9045  -10.4293   21.0382 C   0  0  0  0  0  0
  -24.3609   -9.4222   21.9162 C   0  0  0  0  0  0
  -23.6296   -8.2249   22.0749 C   0  0  0  0  0  0
  -22.4276   -8.0270   21.3548 C   0  0  0  0  0  0
  -21.9895   -9.0226   20.4637 C   0  0  0  0  0  0
  -22.7211  -10.2118   20.3039 C   0  0  0  0  0  0
  -21.6845   -6.0732   22.5280 C   0  0  0  0  0  0
  -21.4010   -6.5634   23.8222 C   0  0  0  0  0  0
  -21.3670   -5.6784   24.9176 C   0  0  0  0  0  0
  -21.6055   -4.3040   24.7216 C   0  0  0  0  0  0
  -21.8817   -3.8143   23.4334 C   0  0  0  0  0  0
  -21.9187   -4.6968   22.3396 C   0  0  0  0  0  0
  -22.7826  -13.5236   21.1811 C   0  0  0  0  0  0
  -22.1642   -4.2154   21.0976 F   0  0  0  0  0  0
  -21.5635   -3.4531   25.7728 F   0  0  0  0  0  0
  -30.0337  -13.3000   20.4409 N   0  0  0  0  0  0
  -26.2996  -12.9376   20.3376 N   0  0  0  0  0  0
  -25.9308  -11.6521   20.5768 N   0  0  0  0  0  0
  -22.0441  -12.8270   22.0381 N   0  0  0  0  0  0
  -25.4208  -15.1916   20.3985 N   0  0  0  0  0  0
  -31.8297  -14.6295   20.0614 O   0  0  0  0  0  0
  -21.6631   -6.8883   21.4247 O   0  0  0  0  0  0
  -22.3532  -14.5534   20.6633 O   0  0  0  0  0  0
  -24.6151  -31.8692   23.2103 C   0  0  0  0  0  0
  -25.9042  -32.4846   23.8408 C   0  0  1  0  0  0
  -27.2224  -27.4144   20.1082 C   0  0  0  0  0  0
  -25.5917  -33.8643   24.2354 N   0  0  0  0  0  0
  -23.4044  -30.4923   21.5505 C   0  0  2  0  0  0
  -24.8476  -28.9544   20.1208 C   0  0  0  0  0  0
  -22.7400  -29.4674   22.4983 C   0  0  0  0  0  0
  -18.0263  -28.1393   22.8484 C   0  0  0  0  0  0
  -24.1467  -36.7298   23.2640 C   0  0  0  0  0  0
  -25.9322  -30.8316   21.3631 C   0  0  0  0  0  0
  -26.0085  -29.4589   20.7208 C   0  0  0  0  0  0
  -27.1995  -28.6957   20.7117 C   0  0  0  0  0  0
  -26.0475  -26.9361   19.4910 C   0  0  0  0  0  0
  -24.8621  -27.6931   19.5028 C   0  0  0  0  0  0
  -23.6120  -29.8240   20.1650 C   0  0  0  0  0  0
  -25.4106  -36.3134   24.0338 C   0  0  1  0  0  0
  -20.5862  -28.3682   23.1322 C   0  0  2  0  0  0
  -20.6770  -26.9427   22.5416 C   0  0  0  0  0  0
  -19.5748  -26.6397   21.5216 C   0  0  0  0  0  0
  -18.1923  -26.7941   22.1619 C   0  0  0  0  0  0
  -19.1521  -28.8851   23.2895 C   0  0  0  0  0  0
  -18.9454  -30.1458   23.8902 C   0  0  0  0  0  0
  -17.6446  -30.6591   24.0573 C   0  0  0  0  0  0
  -25.9030  -34.9495   23.5138 C   0  0  0  0  0  0
  -16.5350  -29.9115   23.6330 C   0  0  0  0  0  0
  -16.7263  -28.6523   23.0347 C   0  0  0  0  0  0
  -26.4487  -31.6614   25.0720 C   0  0  0  0  0  0
  -25.3763  -31.3676   26.1457 C   0  0  0  0  0  0
  -27.0314  -30.3072   24.6080 C   0  0  0  0  0  0
  -27.6101  -32.4299   25.7460 C   0  0  0  0  0  0
  -27.5572  -37.1811   24.8472 C   0  0  0  0  0  0
  -21.4128  -29.3050   22.3715 N   0  0  0  0  0  0
  -26.4287  -37.3835   23.9419 N   0  0  0  0  0  0
  -24.6699  -31.0784   22.1008 N   0  0  0  0  0  0
  -23.4159  -28.8212   23.3030 O   0  0  0  0  0  0
  -28.3894  -26.6823   20.0618 O   0  0  0  0  0  0
  -26.5576  -34.8944   22.4684 O   0  0  0  0  0  0
  -23.5335  -32.1440   23.7488 O   0  0  0  0  0  0
  -32.7403  -18.3132   19.5040 C   0  0  0  0  0  0
  -32.2988  -19.5918   19.1151 C   0  0  0  0  0  0
  -30.6392  -17.8312   20.3720 C   0  0  0  0  0  0
  -30.2012  -19.1528   19.9995 C   0  0  0  0  0  0
  -29.6986  -16.9449   22.6395 C   0  0  0  0  0  0
  -30.7157  -15.8117   22.6713 C   0  0  0  0  0  0
  -29.7321  -16.8173   21.1194 C   0  0  2  0  0  0
  -28.2617  -20.4919   19.2525 C   0  0  0  0  0  0
  -27.4857  -21.7315   19.7693 C   0  0  0  0  0  0
  -27.7846  -24.2150   19.9031 C   0  0  0  0  0  0
  -28.4062  -25.3905   20.7099 C   0  0  0  0  0  0
  -31.9205  -17.4491   20.1429 N   0  0  0  0  0  0
  -31.0402  -20.0138   19.3737 N   0  0  0  0  0  0
  -30.1525  -15.3986   21.3837 N   0  0  0  0  0  0
  -28.9263  -19.6792   20.2869 N   0  0  0  0  0  0
  -28.3452  -22.8600   20.2135 N   0  3  0  0  0  0
  -31.4531  -12.3862   19.1154 H   0  0  0  0  0  0
  -30.2822  -11.2992   19.8041 H   0  0  0  0  0  0
  -29.7375  -11.8418   17.3974 H   0  0  0  0  0  0
  -29.6504  -13.5405   17.8052 H   0  0  0  0  0  0
  -27.8268  -11.3226   18.8014 H   0  0  0  0  0  0
  -27.3603  -12.6581   17.7834 H   0  0  0  0  0  0
  -27.7007  -14.2640   19.5852 H   0  0  0  0  0  0
  -28.6768  -11.9720   21.3519 H   0  0  0  0  0  0
  -28.4575  -13.6151   21.8639 H   0  0  0  0  0  0
  -25.2739   -9.5718   22.4755 H   0  0  0  0  0  0
  -23.9997   -7.4655   22.7491 H   0  0  0  0  0  0
  -21.0814   -8.8719   19.8960 H   0  0  0  0  0  0
  -22.3623  -10.9645   19.6158 H   0  0  0  0  0  0
  -21.1999   -7.6138   23.9733 H   0  0  0  0  0  0
  -21.1502   -6.0503   25.9092 H   0  0  0  0  0  0
  -22.0596   -2.7606   23.2820 H   0  0  0  0  0  0
  -22.3976  -11.9917   22.4810 H   0  0  0  0  0  0
  -21.1052  -13.1345   22.2537 H   0  0  0  0  0  0
  -24.6468  -15.8407   20.4865 H   0  0  0  0  0  0
  -26.2638  -15.6251   20.0476 H   0  0  0  0  0  0
  -26.7108  -32.5564   23.1169 H   0  0  0  0  0  0
  -25.0151  -33.9822   25.0553 H   0  0  0  0  0  0
  -22.6973  -31.3106   21.4089 H   0  0  0  0  0  0
  -23.3761  -35.9595   23.3317 H   0  0  0  0  0  0
  -24.3556  -36.8896   22.2052 H   0  0  0  0  0  0
  -23.7161  -37.6498   23.6621 H   0  0  0  0  0  0
  -26.0355  -31.5934   20.5883 H   0  0  0  0  0  0
  -26.8245  -30.8940   21.9729 H   0  0  0  0  0  0
  -28.0982  -29.0820   21.1725 H   0  0  0  0  0  0
  -26.0386  -25.9938   18.9686 H   0  0  0  0  0  0
  -23.9731  -27.3029   19.0257 H   0  0  0  0  0  0
  -23.7250  -30.5981   19.4053 H   0  0  0  0  0  0
  -22.7350  -29.2456   19.8696 H   0  0  0  0  0  0
  -25.1275  -36.2024   25.0834 H   0  0  0  0  0  0
  -20.9949  -28.3246   24.1441 H   0  0  0  0  0  0
  -20.5688  -26.2292   23.3602 H   0  0  0  0  0  0
  -21.6639  -26.7479   22.1206 H   0  0  0  0  0  0
  -19.6917  -25.6306   21.1248 H   0  0  0  0  0  0
  -19.6700  -27.3206   20.6747 H   0  0  0  0  0  0
  -17.4202  -26.6680   21.4026 H   0  0  0  0  0  0
  -18.0318  -26.0090   22.9018 H   0  0  0  0  0  0
  -19.7926  -30.7270   24.2269 H   0  0  0  0  0  0
  -17.5019  -31.6273   24.5185 H   0  0  0  0  0  0
  -15.5352  -30.3032   23.7637 H   0  0  0  0  0  0
  -15.8653  -28.0856   22.7077 H   0  0  0  0  0  0
  -24.5974  -30.6990   25.7762 H   0  0  0  0  0  0
  -24.8894  -32.2804   26.4910 H   0  0  0  0  0  0
  -25.8114  -30.8845   27.0206 H   0  0  0  0  0  0
  -26.2845  -29.6856   24.1134 H   0  0  0  0  0  0
  -27.4109  -29.7302   25.4521 H   0  0  0  0  0  0
  -27.8666  -30.4422   23.9198 H   0  0  0  0  0  0
  -27.2798  -33.3620   26.2046 H   0  0  0  0  0  0
  -28.3901  -32.6820   25.0258 H   0  0  0  0  0  0
  -28.0781  -31.8402   26.5359 H   0  0  0  0  0  0
  -28.2617  -38.0099   24.7568 H   0  0  0  0  0  0
  -28.1047  -36.2641   24.6239 H   0  0  0  0  0  0
  -27.2283  -37.1380   25.8876 H   0  0  0  0  0  0
  -20.9258  -29.8762   21.6947 H   0  0  0  0  0  0
  -26.0182  -38.2899   24.1494 H   0  0  0  0  0  0
  -33.7518  -17.9886   19.3011 H   0  0  0  0  0  0
  -32.9606  -20.2792   18.6087 H   0  0  0  0  0  0
  -30.0538  -17.8965   23.0355 H   0  0  0  0  0  0
  -28.7405  -16.6551   23.0756 H   0  0  0  0  0  0
  -30.5599  -15.1071   23.4896 H   0  0  0  0  0  0
  -31.7538  -16.1435   22.6253 H   0  0  0  0  0  0
  -28.7261  -16.8696   20.7029 H   0  0  0  0  0  0
  -28.9290  -20.7987   18.4454 H   0  0  0  0  0  0
  -27.5314  -19.8373   18.7732 H   0  0  0  0  0  0
  -26.7948  -21.4582   20.5667 H   0  0  0  0  0  0
  -26.8606  -22.0777   18.9465 H   0  0  0  0  0  0
  -27.9146  -24.3900   18.8351 H   0  0  0  0  0  0
  -26.7108  -24.2016   20.0963 H   0  0  0  0  0  0
  -29.4568  -25.1717   20.8985 H   0  0  0  0  0  0
  -27.9387  -25.4604   21.6939 H   0  0  0  0  0  0
  -28.3057  -19.0532   20.7925 H   0  0  0  0  0  0
  -29.2484  -22.7579   19.7761 H   0  0  0  0  0  0
  -28.4899  -22.7467   21.2046 H   0  0  0  0  0  0
  1 25  1  0  0  0
  1 30  2  0  0  0
  1 84  1  0  0  0
  2  3  1  0  0  0
  2 25  1  0  0  0
  2 87  1  0  0  0
  2 88  1  0  0  0
  3  4  1  0  0  0
  3 89  1  0  0  0
  3 90  1  0  0  0
  4  5  1  0  0  0
  4 91  1  0  0  0
  4 92  1  0  0  0
  5  6  1  0  0  0
  5 26  1  0  0  0
  5 93  1  0  0  0
  6 25  1  0  0  0
  6 94  1  0  0  0
  6 95  1  0  0  0
  7  8  2  0  0  0
  7 26  1  0  0  0
  7 29  1  0  0  0
  8  9  1  0  0  0
  8 22  1  0  0  0
  9 10  1  0  0  0
  9 27  2  0  0  0
 10 11  2  0  0  0
 10 15  1  0  0  0
 11 12  1  0  0  0
 11 96  1  0  0  0
 12 13  2  0  0  0
 12 97  1  0  0  0
 13 14  1  0  0  0
 13 31  1  0  0  0
 14 15  2  0  0  0
 14 98  1  0  0  0
 15 99  1  0  0  0
 16 17  2  0  0  0
 16 21  1  0  0  0
 16 31  1  0  0  0
 17 18  1  0  0  0
 17100  1  0  0  0
 18 19  2  0  0  0
 18101  1  0  0  0
 19 20  1  0  0  0
 19 24  1  0  0  0
 20 21  2  0  0  0
 20102  1  0  0  0
 21 23  1  0  0  0
 22 28  1  0  0  0
 22 32  2  0  0  0
 26 27  1  0  0  0
 28103  1  0  0  0
 28104  1  0  0  0
 29105  1  0  0  0
 29106  1  0  0  0
 33 34  1  0  0  0
 33 66  1  0  0  0
 33 70  2  0  0  0
 34 36  1  0  0  0
 34 59  1  0  0  0
 34107  1  0  0  0
 35 44  2  0  0  0
 35 45  1  0  0  0
 35 68  1  0  0  0
 36 56  1  0  0  0
 36108  1  0  0  0
 37 39  1  0  0  0
 37 47  1  0  0  0
 37 66  1  0  0  0
 37109  1  0  0  0
 38 43  2  0  0  0
 38 46  1  0  0  0
 38 47  1  0  0  0
 39 64  1  0  0  0
 39 67  2  0  0  0
 40 52  1  0  0  0
 40 53  2  0  0  0
 40 58  1  0  0  0
 41110  1  0  0  0
 41111  1  0  0  0
 41112  1  0  0  0
 41 48  1  0  0  0
 42 43  1  0  0  0
 42 66  1  0  0  0
 42113  1  0  0  0
 42114  1  0  0  0
 43 44  1  0  0  0
 44115  1  0  0  0
 45 46  2  0  0  0
 45116  1  0  0  0
 46117  1  0  0  0
 47118  1  0  0  0
 47119  1  0  0  0
 48 56  1  0  0  0
 48 65  1  0  0  0
 48120  1  0  0  0
 49 50  1  0  0  0
 49 53  1  0  0  0
 49 64  1  0  0  0
 49121  1  0  0  0
 50 51  1  0  0  0
 50122  1  0  0  0
 50123  1  0  0  0
 51 52  1  0  0  0
 51124  1  0  0  0
 51125  1  0  0  0
 52126  1  0  0  0
 52127  1  0  0  0
 53 54  1  0  0  0
 54 55  2  0  0  0
 54128  1  0  0  0
 55 57  1  0  0  0
 55129  1  0  0  0
 56 69  2  0  0  0
 57 58  2  0  0  0
 57130  1  0  0  0
 58131  1  0  0  0
 59 60  1  0  0  0
 59 61  1  0  0  0
 59 62  1  0  0  0
 60132  1  0  0  0
 60133  1  0  0  0
 60134  1  0  0  0
 61135  1  0  0  0
 61136  1  0  0  0
 61137  1  0  0  0
 62138  1  0  0  0
 62139  1  0  0  0
 62140  1  0  0  0
 63 65  1  0  0  0
 63141  1  0  0  0
 63142  1  0  0  0
 63143  1  0  0  0
 64144  1  0  0  0
 65145  1  0  0  0
 68 81  1  0  0  0
 71 72  2  0  0  0
 71 82  1  0  0  0
 71146  1  0  0  0
 72 83  1  0  0  0
 72147  1  0  0  0
 73 74  1  0  0  0
 73 82  2  0  0  0
 73 77  1  0  0  0
 74 83  2  0  0  0
 74 85  1  0  0  0
 75 76  1  0  0  0
 75 77  1  0  0  0
 75148  1  0  0  0
 75149  1  0  0  0
 76 84  1  0  0  0
 76150  1  0  0  0
 76151  1  0  0  0
 77 84  1  0  0  0
 77152  1  0  0  0
 78 79  1  0  0  0
 78 85  1  0  0  0
 78153  1  0  0  0
 78154  1  0  0  0
 79 86  1  0  0  0
 79155  1  0  0  0
 79156  1  0  0  0
 80 81  1  0  0  0
 80 86  1  0  0  0
 80157  1  0  0  0
 80158  1  0  0  0
 81159  1  0  0  0
 81160  1  0  0  0
 85161  1  0  0  0
 86162  1  0  0  0
 86163  1  0  0  0
M  CHG  1  86   1
M  ISO  4   1 100  68 101  81 101  84 100
M  END
> <chiral flag>
0

> <version>
0

> <s_m_source_file>
/data/baiqing/PycharmProjects/Reinvent-master-3.2/result/LINK_invent/BTK/process_docking_weight1_custom_sum_contain_oxygen_bond_distance_aromatic_linkinvent_7_9_3/rearranged_h_0195.sdf

> <i_m_source_file_index>
54

> <r_mmod_Potential_Energy-OPLS-2005>
-6.8320951461792

> <r_mmod_Stretch_Energy-OPLS-2005>
49.3981666564941

> <r_mmod_Bend_Energy-OPLS-2005>
134.022430419922

> <r_mmod_Torsional_Energy-OPLS-2005>
310.680725097656

> <r_mmod_Improper_Torsional_Energy-OPLS-2005>
11.2854442596436

> <r_mmod_Van_der_Waal_Energy-OPLS-2005>
157.564102172852

> <r_mmod_Electrostatic_Energy-OPLS-2005>
-222.656478881836

> <r_mmod_Solvation_Energy-OPLS-2005>
-458.938140869141

> <b_mmod_Minimization_Converged-OPLS-2005>
0

> <r_mmod_RMS_Derivative-OPLS-2005>
3.54344773292542

$$$$
55
                    3D
 Structure written by MMmdl.
165175  0  0  1  0            999 V2000
  -30.6604  -14.6248   20.4657 C   0  0  0  0  0  0
  -30.4257  -12.3748   19.4518 C   0  0  0  0  0  0
  -29.5015  -12.4905   18.2208 C   0  0  0  0  0  0
  -28.0245  -12.3388   18.6356 C   0  0  0  0  0  0
  -27.6479  -13.2231   19.8551 C   0  0  2  0  0  0
  -28.6975  -13.1166   20.9848 C   0  0  0  0  0  0
  -25.2557  -13.8170   20.5720 C   0  0  0  0  0  0
  -24.1824  -13.0431   20.9201 C   0  0  0  0  0  0
  -24.6397  -11.6905   20.8746 C   0  0  0  0  0  0
  -23.9054  -10.4294   21.0412 C   0  0  0  0  0  0
  -24.3615   -9.4202   21.9189 C   0  0  0  0  0  0
  -23.6305   -8.2229   22.0743 C   0  0  0  0  0  0
  -22.4280   -8.0268   21.3530 C   0  0  0  0  0  0
  -21.9914   -9.0231   20.4638 C   0  0  0  0  0  0
  -22.7232  -10.2129   20.3058 C   0  0  0  0  0  0
  -21.6855   -6.0741   22.5286 C   0  0  0  0  0  0
  -21.4015   -6.5645   23.8215 C   0  0  0  0  0  0
  -21.3655   -5.6793   24.9179 C   0  0  0  0  0  0
  -21.6051   -4.3058   24.7235 C   0  0  0  0  0  0
  -21.8812   -3.8152   23.4350 C   0  0  0  0  0  0
  -21.9193   -4.6968   22.3411 C   0  0  0  0  0  0
  -22.7846  -13.5212   21.1875 C   0  0  0  0  0  0
  -22.1657   -4.2157   21.0987 F   0  0  0  0  0  0
  -21.5634   -3.4536   25.7746 F   0  0  0  0  0  0
  -30.0090  -13.4233   20.4016 N   0  0  0  0  0  0
  -26.2982  -12.9369   20.3330 N   0  0  0  0  0  0
  -25.9331  -11.6517   20.5776 N   0  0  0  0  0  0
  -22.0485  -12.8192   22.0426 N   0  0  0  0  0  0
  -25.4279  -15.1888   20.4154 N   0  0  0  0  0  0
  -31.8570  -14.7152   20.1826 O   0  0  0  0  0  0
  -21.6639   -6.8873   21.4238 O   0  0  0  0  0  0
  -22.3531  -14.5517   20.6728 O   0  0  0  0  0  0
  -24.6252  -31.8609   23.2038 C   0  0  0  0  0  0
  -25.9106  -32.4782   23.8356 C   0  0  1  0  0  0
  -27.2261  -27.3279   20.1142 C   0  0  0  0  0  0
  -25.5921  -33.8585   24.2279 N   0  0  0  0  0  0
  -23.4175  -30.4856   21.5463 C   0  0  2  0  0  0
  -24.8649  -28.9448   20.1110 C   0  0  0  0  0  0
  -22.7463  -29.4626   22.4939 C   0  0  0  0  0  0
  -18.0284  -28.1392   22.8480 C   0  0  0  0  0  0
  -24.1487  -36.7290   23.2634 C   0  0  0  0  0  0
  -25.9595  -30.7939   21.3762 C   0  0  0  0  0  0
  -26.0325  -29.4232   20.7167 C   0  0  0  0  0  0
  -27.2153  -28.6256   20.7104 C   0  0  0  0  0  0
  -26.0329  -26.9051   19.4795 C   0  0  0  0  0  0
  -24.8661  -27.6895   19.4850 C   0  0  0  0  0  0
  -23.6320  -29.8225   20.1607 C   0  0  0  0  0  0
  -25.4110  -36.3085   24.0326 C   0  0  1  0  0  0
  -20.5881  -28.3686   23.1289 C   0  0  2  0  0  0
  -20.6783  -26.9412   22.5415 C   0  0  0  0  0  0
  -19.5758  -26.6383   21.5219 C   0  0  0  0  0  0
  -18.1930  -26.7931   22.1622 C   0  0  0  0  0  0
  -19.1536  -28.8856   23.2885 C   0  0  0  0  0  0
  -18.9461  -30.1456   23.8900 C   0  0  0  0  0  0
  -17.6462  -30.6594   24.0565 C   0  0  0  0  0  0
  -25.9050  -34.9452   23.5100 C   0  0  0  0  0  0
  -16.5354  -29.9092   23.6336 C   0  0  0  0  0  0
  -16.7273  -28.6516   23.0347 C   0  0  0  0  0  0
  -26.4487  -31.6597   25.0727 C   0  0  0  0  0  0
  -25.3714  -31.3754   26.1452 C   0  0  0  0  0  0
  -27.0335  -30.3017   24.6192 C   0  0  0  0  0  0
  -27.6050  -32.4331   25.7491 C   0  0  0  0  0  0
  -27.5582  -37.1791   24.8452 C   0  0  0  0  0  0
  -21.4182  -29.3041   22.3683 N   0  0  0  0  0  0
  -26.4286  -37.3782   23.9408 N   0  0  0  0  0  0
  -24.6857  -31.0626   22.0988 N   0  0  0  0  0  0
  -23.4194  -28.8164   23.3017 O   0  0  0  0  0  0
  -28.3489  -26.4853   20.1783 O   0  0  0  0  0  0
  -26.5620  -34.8914   22.4666 O   0  0  0  0  0  0
  -23.5417  -32.1409   23.7366 O   0  0  0  0  0  0
  -30.4770  -22.8091   17.0666 C   0  0  0  0  0  0
  -30.5090  -21.4045   17.1247 C   0  0  0  0  0  0
  -29.6629  -22.9146   19.2526 C   0  0  0  0  0  0
  -29.7624  -21.4577   19.3393 C   0  0  0  0  0  0
  -30.5031  -20.8231   14.5640 C   0  0  0  0  0  0
  -30.0198  -19.5949   15.2951 C   0  0  0  0  0  0
  -29.2934  -16.7134   21.2528 C   0  0  0  0  0  0
  -30.0667  -16.8242   19.3088 C   0  0  0  0  0  0
  -30.9670  -20.5553   15.9788 C   0  0  0  0  0  0
  -29.9592  -17.8603   20.4437 C   0  0  0  0  0  0
  -29.2605  -23.9717   20.3286 C   0  0  0  0  0  0
  -29.5393  -20.5017   20.5525 C   0  0  0  0  0  0
  -28.1630  -25.0445   19.8897 C   0  0  0  0  0  0
  -30.0604  -23.5470   18.1165 N   0  0  0  0  0  0
  -30.1601  -20.7431   18.2493 N   0  0  0  0  0  0
  -29.8658  -15.7325   20.2934 N   0  0  0  0  0  0
  -29.1611  -19.1091   20.0949 N   0  3  0  0  0  0
  -31.4697  -12.4747   19.1507 H   0  0  0  0  0  0
  -30.3360  -11.3896   19.9123 H   0  0  0  0  0  0
  -29.7595  -11.7310   17.4815 H   0  0  0  0  0  0
  -29.6515  -13.4548   17.7340 H   0  0  0  0  0  0
  -27.8578  -11.2875   18.8756 H   0  0  0  0  0  0
  -27.3693  -12.5622   17.7924 H   0  0  0  0  0  0
  -27.6520  -14.2524   19.4961 H   0  0  0  0  0  0
  -28.7024  -12.1163   21.4215 H   0  0  0  0  0  0
  -28.4628  -13.8111   21.7931 H   0  0  0  0  0  0
  -25.2756   -9.5686   22.4767 H   0  0  0  0  0  0
  -24.0021   -7.4617   22.7455 H   0  0  0  0  0  0
  -21.0844   -8.8731   19.8950 H   0  0  0  0  0  0
  -22.3664  -10.9657   19.6168 H   0  0  0  0  0  0
  -21.1995   -7.6152   23.9719 H   0  0  0  0  0  0
  -21.1491   -6.0533   25.9080 H   0  0  0  0  0  0
  -22.0600   -2.7616   23.2854 H   0  0  0  0  0  0
  -22.4119  -11.9854   22.4809 H   0  0  0  0  0  0
  -21.1095  -13.1210   22.2628 H   0  0  0  0  0  0
  -24.6639  -15.8472   20.5239 H   0  0  0  0  0  0
  -26.2857  -15.6197   20.0961 H   0  0  0  0  0  0
  -26.7171  -32.5448   23.1101 H   0  0  0  0  0  0
  -25.0078  -33.9742   25.0427 H   0  0  0  0  0  0
  -22.7106  -31.3058   21.4040 H   0  0  0  0  0  0
  -23.3765  -35.9609   23.3284 H   0  0  0  0  0  0
  -24.3586  -36.8932   22.2054 H   0  0  0  0  0  0
  -23.7229  -37.6476   23.6676 H   0  0  0  0  0  0
  -26.0923  -31.5602   20.6109 H   0  0  0  0  0  0
  -26.8388  -30.8384   22.0073 H   0  0  0  0  0  0
  -28.1088  -28.9867   21.1987 H   0  0  0  0  0  0
  -25.9649  -25.9494   18.9818 H   0  0  0  0  0  0
  -23.9707  -27.3180   19.0063 H   0  0  0  0  0  0
  -23.7483  -30.6004   19.4052 H   0  0  0  0  0  0
  -22.7531  -29.2506   19.8581 H   0  0  0  0  0  0
  -25.1297  -36.1925   25.0821 H   0  0  0  0  0  0
  -20.9969  -28.3266   24.1412 H   0  0  0  0  0  0
  -20.5700  -26.2293   23.3611 H   0  0  0  0  0  0
  -21.6651  -26.7459   22.1194 H   0  0  0  0  0  0
  -19.6927  -25.6292   21.1255 H   0  0  0  0  0  0
  -19.6713  -27.3192   20.6748 H   0  0  0  0  0  0
  -17.4206  -26.6678   21.4017 H   0  0  0  0  0  0
  -18.0331  -26.0072   22.9019 H   0  0  0  0  0  0
  -19.7941  -30.7272   24.2266 H   0  0  0  0  0  0
  -17.5022  -31.6273   24.5164 H   0  0  0  0  0  0
  -15.5354  -30.3002   23.7666 H   0  0  0  0  0  0
  -15.8667  -28.0845   22.7058 H   0  0  0  0  0  0
  -24.5850  -30.7155   25.7768 H   0  0  0  0  0  0
  -24.8952  -32.2939   26.4896 H   0  0  0  0  0  0
  -25.8009  -30.8890   27.0219 H   0  0  0  0  0  0
  -26.2919  -29.6763   24.1206 H   0  0  0  0  0  0
  -27.4025  -29.7279   25.4705 H   0  0  0  0  0  0
  -27.8791  -30.4309   23.9430 H   0  0  0  0  0  0
  -27.2667  -33.3638   26.2059 H   0  0  0  0  0  0
  -28.3860  -32.6882   25.0315 H   0  0  0  0  0  0
  -28.0716  -31.8461   26.5414 H   0  0  0  0  0  0
  -28.2571  -38.0120   24.7544 H   0  0  0  0  0  0
  -28.1116  -36.2651   24.6227 H   0  0  0  0  0  0
  -27.2308  -37.1370   25.8858 H   0  0  0  0  0  0
  -20.9352  -29.8756   21.6893 H   0  0  0  0  0  0
  -26.0167  -38.2850   24.1445 H   0  0  0  0  0  0
  -30.7852  -23.3420   16.1781 H   0  0  0  0  0  0
  -29.7804  -21.6210   14.4026 H   0  0  0  0  0  0
  -31.2177  -20.6680   13.7575 H   0  0  0  0  0  0
  -30.4151  -18.6375   14.9617 H   0  0  0  0  0  0
  -28.9805  -19.5842   15.6184 H   0  0  0  0  0  0
  -28.2032  -16.7329   21.2445 H   0  0  0  0  0  0
  -29.6734  -16.6285   22.2716 H   0  0  0  0  0  0
  -31.0403  -16.8313   18.8146 H   0  0  0  0  0  0
  -29.2653  -16.8794   18.5699 H   0  0  0  0  0  0
  -31.9993  -20.2400   16.1182 H   0  0  0  0  0  0
  -30.9510  -18.1044   20.8284 H   0  0  0  0  0  0
  -30.1698  -24.5065   20.6050 H   0  0  0  0  0  0
  -28.9371  -23.4634   21.2370 H   0  0  0  0  0  0
  -28.7571  -20.8996   21.1983 H   0  0  0  0  0  0
  -30.4560  -20.4679   21.1414 H   0  0  0  0  0  0
  -27.2276  -24.7037   20.3372 H   0  0  0  0  0  0
  -28.0120  -24.9730   18.8123 H   0  0  0  0  0  0
  -28.1761  -18.9709   20.2379 H   0  0  0  0  0  0
  -29.2936  -19.2448   19.1008 H   0  0  0  0  0  0
  1 25  1  0  0  0
  1 30  2  0  0  0
  1 86  1  0  0  0
  2  3  1  0  0  0
  2 25  1  0  0  0
  2 88  1  0  0  0
  2 89  1  0  0  0
  3  4  1  0  0  0
  3 90  1  0  0  0
  3 91  1  0  0  0
  4  5  1  0  0  0
  4 92  1  0  0  0
  4 93  1  0  0  0
  5  6  1  0  0  0
  5 26  1  0  0  0
  5 94  1  0  0  0
  6 25  1  0  0  0
  6 95  1  0  0  0
  6 96  1  0  0  0
  7  8  2  0  0  0
  7 26  1  0  0  0
  7 29  1  0  0  0
  8  9  1  0  0  0
  8 22  1  0  0  0
  9 10  1  0  0  0
  9 27  2  0  0  0
 10 11  2  0  0  0
 10 15  1  0  0  0
 11 12  1  0  0  0
 11 97  1  0  0  0
 12 13  2  0  0  0
 12 98  1  0  0  0
 13 14  1  0  0  0
 13 31  1  0  0  0
 14 15  2  0  0  0
 14 99  1  0  0  0
 15100  1  0  0  0
 16 17  2  0  0  0
 16 21  1  0  0  0
 16 31  1  0  0  0
 17 18  1  0  0  0
 17101  1  0  0  0
 18 19  2  0  0  0
 18102  1  0  0  0
 19 20  1  0  0  0
 19 24  1  0  0  0
 20 21  2  0  0  0
 20103  1  0  0  0
 21 23  1  0  0  0
 22 28  1  0  0  0
 22 32  2  0  0  0
 26 27  1  0  0  0
 28104  1  0  0  0
 28105  1  0  0  0
 29106  1  0  0  0
 29107  1  0  0  0
 33 34  1  0  0  0
 33 66  1  0  0  0
 33 70  2  0  0  0
 34 36  1  0  0  0
 34 59  1  0  0  0
 34108  1  0  0  0
 35 44  2  0  0  0
 35 45  1  0  0  0
 35 68  1  0  0  0
 36 56  1  0  0  0
 36109  1  0  0  0
 37 39  1  0  0  0
 37 47  1  0  0  0
 37 66  1  0  0  0
 37110  1  0  0  0
 38 43  2  0  0  0
 38 46  1  0  0  0
 38 47  1  0  0  0
 39 64  1  0  0  0
 39 67  2  0  0  0
 40 52  1  0  0  0
 40 53  2  0  0  0
 40 58  1  0  0  0
 41111  1  0  0  0
 41112  1  0  0  0
 41113  1  0  0  0
 41 48  1  0  0  0
 42 43  1  0  0  0
 42 66  1  0  0  0
 42114  1  0  0  0
 42115  1  0  0  0
 43 44  1  0  0  0
 44116  1  0  0  0
 45 46  2  0  0  0
 45117  1  0  0  0
 46118  1  0  0  0
 47119  1  0  0  0
 47120  1  0  0  0
 48 56  1  0  0  0
 48 65  1  0  0  0
 48121  1  0  0  0
 49 50  1  0  0  0
 49 53  1  0  0  0
 49 64  1  0  0  0
 49122  1  0  0  0
 50 51  1  0  0  0
 50123  1  0  0  0
 50124  1  0  0  0
 51 52  1  0  0  0
 51125  1  0  0  0
 51126  1  0  0  0
 52127  1  0  0  0
 52128  1  0  0  0
 53 54  1  0  0  0
 54 55  2  0  0  0
 54129  1  0  0  0
 55 57  1  0  0  0
 55130  1  0  0  0
 56 69  2  0  0  0
 57 58  2  0  0  0
 57131  1  0  0  0
 58132  1  0  0  0
 59 60  1  0  0  0
 59 61  1  0  0  0
 59 62  1  0  0  0
 60133  1  0  0  0
 60134  1  0  0  0
 60135  1  0  0  0
 61136  1  0  0  0
 61137  1  0  0  0
 61138  1  0  0  0
 62139  1  0  0  0
 62140  1  0  0  0
 62141  1  0  0  0
 63 65  1  0  0  0
 63142  1  0  0  0
 63143  1  0  0  0
 63144  1  0  0  0
 64145  1  0  0  0
 65146  1  0  0  0
 68 83  1  0  0  0
 71 72  2  0  0  0
 71 84  1  0  0  0
 71147  1  0  0  0
 72 85  1  0  0  0
 72 79  1  0  0  0
 73 74  1  0  0  0
 73 81  1  0  0  0
 73 84  2  0  0  0
 74 82  1  0  0  0
 74 85  2  0  0  0
 75 76  1  0  0  0
 75 79  1  0  0  0
 75148  1  0  0  0
 75149  1  0  0  0
 76 79  1  0  0  0
 76150  1  0  0  0
 76151  1  0  0  0
 77 80  1  0  0  0
 77 86  1  0  0  0
 77152  1  0  0  0
 77153  1  0  0  0
 78 80  1  0  0  0
 78 86  1  0  0  0
 78154  1  0  0  0
 78155  1  0  0  0
 79156  1  0  0  0
 80 87  1  0  0  0
 80157  1  0  0  0
 81 83  1  0  0  0
 81158  1  0  0  0
 81159  1  0  0  0
 82 87  1  0  0  0
 82160  1  0  0  0
 82161  1  0  0  0
 83162  1  0  0  0
 83163  1  0  0  0
 87164  1  0  0  0
 87165  1  0  0  0
M  CHG  1  87   1
M  ISO  4   1 100  68 101  83 101  86 100
M  END
> <chiral flag>
0

> <version>
0

> <s_m_source_file>
/data/baiqing/PycharmProjects/Reinvent-master-3.2/result/LINK_invent/BTK/process_docking_weight1_custom_sum_contain_oxygen_bond_distance_aromatic_linkinvent_7_9_3/rearranged_h_0195.sdf

> <i_m_source_file_index>
55

> <r_mmod_Potential_Energy-OPLS-2005>
40.4682807922363

> <r_mmod_Stretch_Energy-OPLS-2005>
80.3327407836914

> <r_mmod_Bend_Energy-OPLS-2005>
175.697219848633

> <r_mmod_Torsional_Energy-OPLS-2005>
350.495635986328

> <r_mmod_Improper_Torsional_Energy-OPLS-2005>
23.2085876464844

> <r_mmod_Van_der_Waal_Energy-OPLS-2005>
148.482528686523

> <r_mmod_Electrostatic_Energy-OPLS-2005>
-292.903961181641

> <r_mmod_Solvation_Energy-OPLS-2005>
-493.590850830078

> <b_mmod_Minimization_Converged-OPLS-2005>
0

> <r_mmod_RMS_Derivative-OPLS-2005>
1.7945009469986

$$$$
56
                    3D
 Structure written by MMmdl.
158168  0  0  1  0            999 V2000
  -30.6449  -14.5825   20.4947 C   0  0  0  0  0  0
  -30.4271  -12.3510   19.4501 C   0  0  0  0  0  0
  -29.5023  -12.4912   18.2213 C   0  0  0  0  0  0
  -28.0230  -12.3474   18.6307 C   0  0  0  0  0  0
  -27.6547  -13.2099   19.8680 C   0  0  2  0  0  0
  -28.6980  -13.0552   20.9984 C   0  0  0  0  0  0
  -25.2590  -13.8153   20.5711 C   0  0  0  0  0  0
  -24.1854  -13.0436   20.9231 C   0  0  0  0  0  0
  -24.6405  -11.6900   20.8777 C   0  0  0  0  0  0
  -23.9076  -10.4293   21.0430 C   0  0  0  0  0  0
  -24.3628   -9.4200   21.9196 C   0  0  0  0  0  0
  -23.6304   -8.2234   22.0750 C   0  0  0  0  0  0
  -22.4280   -8.0287   21.3544 C   0  0  0  0  0  0
  -21.9925   -9.0260   20.4640 C   0  0  0  0  0  0
  -22.7253  -10.2142   20.3063 C   0  0  0  0  0  0
  -21.6848   -6.0754   22.5290 C   0  0  0  0  0  0
  -21.4002   -6.5653   23.8225 C   0  0  0  0  0  0
  -21.3661   -5.6800   24.9187 C   0  0  0  0  0  0
  -21.6045   -4.3066   24.7226 C   0  0  0  0  0  0
  -21.8817   -3.8159   23.4344 C   0  0  0  0  0  0
  -21.9189   -4.6980   22.3404 C   0  0  0  0  0  0
  -22.7878  -13.5240   21.1880 C   0  0  0  0  0  0
  -22.1662   -4.2170   21.0980 F   0  0  0  0  0  0
  -21.5633   -3.4541   25.7735 F   0  0  0  0  0  0
  -30.0167  -13.3713   20.4338 N   0  0  0  0  0  0
  -26.3002  -12.9316   20.3359 N   0  0  0  0  0  0
  -25.9328  -11.6487   20.5811 N   0  0  0  0  0  0
  -22.0504  -12.8223   22.0419 N   0  0  0  0  0  0
  -25.4323  -15.1866   20.4087 N   0  0  0  0  0  0
  -31.8072  -14.7331   20.1091 O   0  0  0  0  0  0
  -21.6634   -6.8888   21.4247 O   0  0  0  0  0  0
  -22.3575  -14.5551   20.6736 O   0  0  0  0  0  0
  -24.6210  -31.8616   23.2050 C   0  0  0  0  0  0
  -25.9083  -32.4780   23.8347 C   0  0  1  0  0  0
  -27.2183  -27.3511   20.1129 C   0  0  0  0  0  0
  -25.5915  -33.8582   24.2274 N   0  0  0  0  0  0
  -23.4112  -30.4866   21.5465 C   0  0  2  0  0  0
  -24.8542  -28.9466   20.1052 C   0  0  0  0  0  0
  -22.7442  -29.4643   22.4966 C   0  0  0  0  0  0
  -18.0281  -28.1384   22.8481 C   0  0  0  0  0  0
  -24.1506  -36.7303   23.2645 C   0  0  0  0  0  0
  -25.9474  -30.8044   21.3692 C   0  0  0  0  0  0
  -26.0200  -29.4357   20.7074 C   0  0  0  0  0  0
  -27.2017  -28.6482   20.7008 C   0  0  0  0  0  0
  -26.0325  -26.9026   19.4862 C   0  0  0  0  0  0
  -24.8615  -27.6855   19.4858 C   0  0  0  0  0  0
  -23.6196  -29.8209   20.1603 C   0  0  0  0  0  0
  -25.4128  -36.3085   24.0328 C   0  0  1  0  0  0
  -20.5874  -28.3676   23.1295 C   0  0  2  0  0  0
  -20.6777  -26.9399   22.5416 C   0  0  0  0  0  0
  -19.5756  -26.6381   21.5212 C   0  0  0  0  0  0
  -18.1932  -26.7925   22.1623 C   0  0  0  0  0  0
  -19.1529  -28.8853   23.2885 C   0  0  0  0  0  0
  -18.9458  -30.1466   23.8878 C   0  0  0  0  0  0
  -17.6455  -30.6583   24.0574 C   0  0  0  0  0  0
  -25.9058  -34.9449   23.5113 C   0  0  0  0  0  0
  -16.5348  -29.9076   23.6334 C   0  0  0  0  0  0
  -16.7271  -28.6509   23.0327 C   0  0  0  0  0  0
  -26.4483  -31.6584   25.0710 C   0  0  0  0  0  0
  -25.3722  -31.3692   26.1440 C   0  0  0  0  0  0
  -27.0340  -30.3024   24.6150 C   0  0  0  0  0  0
  -27.6065  -32.4315   25.7447 C   0  0  0  0  0  0
  -27.5582  -37.1817   24.8461 C   0  0  0  0  0  0
  -21.4163  -29.3030   22.3696 N   0  0  0  0  0  0
  -26.4303  -37.3778   23.9387 N   0  0  0  0  0  0
  -24.6781  -31.0679   22.0968 N   0  0  0  0  0  0
  -23.4183  -28.8176   23.3026 O   0  0  0  0  0  0
  -28.3556  -26.5408   20.2265 O   0  0  0  0  0  0
  -26.5639  -34.8912   22.4687 O   0  0  0  0  0  0
  -23.5397  -32.1403   23.7421 O   0  0  0  0  0  0
  -27.6029  -21.6745   21.9700 C   0  0  0  0  0  0
  -28.0488  -22.3523   20.8558 C   0  0  0  0  0  0
  -28.8599  -20.2361   20.8534 C   0  0  0  0  0  0
  -27.7364  -24.8422   21.3515 C   0  0  0  0  0  0
  -30.2880  -18.1557   21.3700 C   0  0  0  0  0  0
  -28.8671  -17.8865   19.8957 C   0  0  0  0  0  0
  -27.5961  -23.7626   20.4116 C   0  0  1  0  0  0
  -30.1146  -17.0592   20.2931 C   0  0  0  0  0  0
  -28.3734  -25.0807   19.9527 C   0  0  2  0  0  0
  -27.7460  -19.3476   22.9246 C   0  0  0  0  0  0
  -28.0783  -20.3828   21.9380 N   0  0  0  0  0  0
  -28.8431  -21.4189   20.1934 N   0  3  0  0  0  0
  -29.6000  -19.0514   20.4151 N   0  0  0  0  0  0
  -29.8529  -15.6602   20.7534 N   0  0  0  0  0  0
  -31.4708  -12.4592   19.1505 H   0  0  0  0  0  0
  -30.3438  -11.3525   19.8844 H   0  0  0  0  0  0
  -29.7560  -11.7394   17.4719 H   0  0  0  0  0  0
  -29.6598  -13.4598   17.7460 H   0  0  0  0  0  0
  -27.8419  -11.2939   18.8459 H   0  0  0  0  0  0
  -27.3743  -12.6002   17.7905 H   0  0  0  0  0  0
  -27.6784  -14.2458   19.5344 H   0  0  0  0  0  0
  -28.6958  -12.0359   21.3872 H   0  0  0  0  0  0
  -28.4573  -13.6979   21.8468 H   0  0  0  0  0  0
  -25.2776   -9.5672   22.4774 H   0  0  0  0  0  0
  -24.0021   -7.4612   22.7452 H   0  0  0  0  0  0
  -21.0869   -8.8784   19.8923 H   0  0  0  0  0  0
  -22.3726  -10.9698   19.6178 H   0  0  0  0  0  0
  -21.1984   -7.6156   23.9740 H   0  0  0  0  0  0
  -21.1493   -6.0527   25.9098 H   0  0  0  0  0  0
  -22.0593   -2.7624   23.2835 H   0  0  0  0  0  0
  -22.4118  -11.9877   22.4798 H   0  0  0  0  0  0
  -21.1115  -13.1237   22.2605 H   0  0  0  0  0  0
  -24.6563  -15.8329   20.5023 H   0  0  0  0  0  0
  -26.2612  -15.6162   20.0204 H   0  0  0  0  0  0
  -26.7147  -32.5469   23.1092 H   0  0  0  0  0  0
  -24.9994  -33.9720   25.0371 H   0  0  0  0  0  0
  -22.7029  -31.3062   21.4086 H   0  0  0  0  0  0
  -23.3754  -35.9654   23.3312 H   0  0  0  0  0  0
  -24.3591  -36.8929   22.2059 H   0  0  0  0  0  0
  -23.7270  -37.6513   23.6666 H   0  0  0  0  0  0
  -26.0782  -31.5700   20.6028 H   0  0  0  0  0  0
  -26.8293  -30.8486   21.9967 H   0  0  0  0  0  0
  -28.0946  -29.0170   21.1869 H   0  0  0  0  0  0
  -25.9793  -25.9304   19.0215 H   0  0  0  0  0  0
  -23.9650  -27.3049   19.0151 H   0  0  0  0  0  0
  -23.7247  -30.5957   19.3998 H   0  0  0  0  0  0
  -22.7419  -29.2428   19.8646 H   0  0  0  0  0  0
  -25.1317  -36.1948   25.0822 H   0  0  0  0  0  0
  -20.9973  -28.3253   24.1418 H   0  0  0  0  0  0
  -20.5678  -26.2281   23.3616 H   0  0  0  0  0  0
  -21.6648  -26.7433   22.1211 H   0  0  0  0  0  0
  -19.6911  -25.6290   21.1241 H   0  0  0  0  0  0
  -19.6698  -27.3194   20.6745 H   0  0  0  0  0  0
  -17.4206  -26.6665   21.4031 H   0  0  0  0  0  0
  -18.0349  -26.0072   22.9028 H   0  0  0  0  0  0
  -19.7930  -30.7307   24.2208 H   0  0  0  0  0  0
  -17.4998  -31.6249   24.5193 H   0  0  0  0  0  0
  -15.5342  -30.2967   23.7671 H   0  0  0  0  0  0
  -15.8681  -28.0841   22.7005 H   0  0  0  0  0  0
  -24.5879  -30.7094   25.7707 H   0  0  0  0  0  0
  -24.8937  -32.2854   26.4920 H   0  0  0  0  0  0
  -25.8026  -30.8781   27.0180 H   0  0  0  0  0  0
  -26.2923  -29.6749   24.1207 H   0  0  0  0  0  0
  -27.4089  -29.7298   25.4643 H   0  0  0  0  0  0
  -27.8751  -30.4315   23.9336 H   0  0  0  0  0  0
  -27.2701  -33.3606   26.2062 H   0  0  0  0  0  0
  -28.3817  -32.6909   25.0220 H   0  0  0  0  0  0
  -28.0808  -31.8428   26.5312 H   0  0  0  0  0  0
  -28.2620  -38.0094   24.7499 H   0  0  0  0  0  0
  -28.1058  -36.2632   24.6310 H   0  0  0  0  0  0
  -27.2295  -37.1509   25.8863 H   0  0  0  0  0  0
  -20.9337  -29.8729   21.6892 H   0  0  0  0  0  0
  -26.0188  -38.2858   24.1367 H   0  0  0  0  0  0
  -26.9343  -22.0109   22.7496 H   0  0  0  0  0  0
  -28.4388  -24.7133   22.1730 H   0  0  0  0  0  0
  -26.8018  -25.3150   21.6494 H   0  0  0  0  0  0
  -31.3279  -18.4242   21.5641 H   0  0  0  0  0  0
  -29.7561  -17.9236   22.2908 H   0  0  0  0  0  0
  -27.9673  -17.6284   20.4569 H   0  0  0  0  0  0
  -28.6749  -17.9188   18.8226 H   0  0  0  0  0  0
  -26.6054  -23.6473   19.9749 H   0  0  0  0  0  0
  -30.8885  -17.1223   19.5219 H   0  0  0  0  0  0
  -27.9855  -25.1110   18.9374 H   0  0  0  0  0  0
  -26.8429  -19.6400   23.4613 H   0  0  0  0  0  0
  -28.5625  -19.2484   23.6389 H   0  0  0  0  0  0
  -27.5482  -18.3984   22.4321 H   0  0  0  0  0  0
  -29.3356  -21.5872   19.3257 H   0  0  0  0  0  0
  -28.9204  -15.4528   21.0770 H   0  0  0  0  0  0
  1 25  1  0  0  0
  1 30  2  0  0  0
  1 84  1  0  0  0
  2  3  1  0  0  0
  2 25  1  0  0  0
  2 85  1  0  0  0
  2 86  1  0  0  0
  3  4  1  0  0  0
  3 87  1  0  0  0
  3 88  1  0  0  0
  4  5  1  0  0  0
  4 89  1  0  0  0
  4 90  1  0  0  0
  5  6  1  0  0  0
  5 26  1  0  0  0
  5 91  1  0  0  0
  6 25  1  0  0  0
  6 92  1  0  0  0
  6 93  1  0  0  0
  7  8  2  0  0  0
  7 26  1  0  0  0
  7 29  1  0  0  0
  8  9  1  0  0  0
  8 22  1  0  0  0
  9 10  1  0  0  0
  9 27  2  0  0  0
 10 11  2  0  0  0
 10 15  1  0  0  0
 11 12  1  0  0  0
 11 94  1  0  0  0
 12 13  2  0  0  0
 12 95  1  0  0  0
 13 14  1  0  0  0
 13 31  1  0  0  0
 14 15  2  0  0  0
 14 96  1  0  0  0
 15 97  1  0  0  0
 16 17  2  0  0  0
 16 21  1  0  0  0
 16 31  1  0  0  0
 17 18  1  0  0  0
 17 98  1  0  0  0
 18 19  2  0  0  0
 18 99  1  0  0  0
 19 20  1  0  0  0
 19 24  1  0  0  0
 20 21  2  0  0  0
 20100  1  0  0  0
 21 23  1  0  0  0
 22 28  1  0  0  0
 22 32  2  0  0  0
 26 27  1  0  0  0
 28101  1  0  0  0
 28102  1  0  0  0
 29103  1  0  0  0
 29104  1  0  0  0
 33 34  1  0  0  0
 33 66  1  0  0  0
 33 70  2  0  0  0
 34 36  1  0  0  0
 34 59  1  0  0  0
 34105  1  0  0  0
 35 44  2  0  0  0
 35 45  1  0  0  0
 35 68  1  0  0  0
 36 56  1  0  0  0
 36106  1  0  0  0
 37 39  1  0  0  0
 37 47  1  0  0  0
 37 66  1  0  0  0
 37107  1  0  0  0
 38 43  2  0  0  0
 38 46  1  0  0  0
 38 47  1  0  0  0
 39 64  1  0  0  0
 39 67  2  0  0  0
 40 52  1  0  0  0
 40 53  2  0  0  0
 40 58  1  0  0  0
 41108  1  0  0  0
 41109  1  0  0  0
 41110  1  0  0  0
 41 48  1  0  0  0
 42 43  1  0  0  0
 42 66  1  0  0  0
 42111  1  0  0  0
 42112  1  0  0  0
 43 44  1  0  0  0
 44113  1  0  0  0
 45 46  2  0  0  0
 45114  1  0  0  0
 46115  1  0  0  0
 47116  1  0  0  0
 47117  1  0  0  0
 48 56  1  0  0  0
 48 65  1  0  0  0
 48118  1  0  0  0
 49 50  1  0  0  0
 49 53  1  0  0  0
 49 64  1  0  0  0
 49119  1  0  0  0
 50 51  1  0  0  0
 50120  1  0  0  0
 50121  1  0  0  0
 51 52  1  0  0  0
 51122  1  0  0  0
 51123  1  0  0  0
 52124  1  0  0  0
 52125  1  0  0  0
 53 54  1  0  0  0
 54 55  2  0  0  0
 54126  1  0  0  0
 55 57  1  0  0  0
 55127  1  0  0  0
 56 69  2  0  0  0
 57 58  2  0  0  0
 57128  1  0  0  0
 58129  1  0  0  0
 59 60  1  0  0  0
 59 61  1  0  0  0
 59 62  1  0  0  0
 60130  1  0  0  0
 60131  1  0  0  0
 60132  1  0  0  0
 61133  1  0  0  0
 61134  1  0  0  0
 61135  1  0  0  0
 62136  1  0  0  0
 62137  1  0  0  0
 62138  1  0  0  0
 63 65  1  0  0  0
 63139  1  0  0  0
 63140  1  0  0  0
 63141  1  0  0  0
 64142  1  0  0  0
 65143  1  0  0  0
 68 79  1  0  0  0
 71 72  2  0  0  0
 71 81  1  0  0  0
 71144  1  0  0  0
 72 82  1  0  0  0
 72 77  1  0  0  0
 73 81  1  0  0  0
 73 82  2  0  0  0
 73 83  1  0  0  0
 74 77  1  0  0  0
 74 79  1  0  0  0
 74145  1  0  0  0
 74146  1  0  0  0
 75 78  1  0  0  0
 75 83  1  0  0  0
 75147  1  0  0  0
 75148  1  0  0  0
 76 78  1  0  0  0
 76 83  1  0  0  0
 76149  1  0  0  0
 76150  1  0  0  0
 77 79  1  0  0  0
 77151  1  0  0  0
 78 84  1  0  0  0
 78152  1  0  0  0
 79153  1  0  0  0
 80 81  1  0  0  0
 80154  1  0  0  0
 80155  1  0  0  0
 80156  1  0  0  0
 82157  1  0  0  0
 84158  1  0  0  0
M  CHG  1  82   1
M  ISO  4   1 100  68 101  79 101  84 100
M  END
> <chiral flag>
0

> <version>
0

> <s_m_source_file>
/data/baiqing/PycharmProjects/Reinvent-master-3.2/result/LINK_invent/BTK/process_docking_weight1_custom_sum_contain_oxygen_bond_distance_aromatic_linkinvent_7_9_3/rearranged_h_0195.sdf

> <i_m_source_file_index>
56

> <r_mmod_Potential_Energy-OPLS-2005>
97.6764373779297

> <r_mmod_Stretch_Energy-OPLS-2005>
77.6877136230469

> <r_mmod_Bend_Energy-OPLS-2005>
314.072021484375

> <r_mmod_Torsional_Energy-OPLS-2005>
255.565414428711

> <r_mmod_Improper_Torsional_Energy-OPLS-2005>
15.2914228439331

> <r_mmod_Van_der_Waal_Energy-OPLS-2005>
131.608505249023

> <r_mmod_Electrostatic_Energy-OPLS-2005>
-282.04052734375

> <r_mmod_Solvation_Energy-OPLS-2005>
-451.126647949219

> <b_mmod_Minimization_Converged-OPLS-2005>
0

> <r_mmod_RMS_Derivative-OPLS-2005>
2.397301197052

$$$$
57
                    3D
 Structure written by MMmdl.
173183  0  0  1  0            999 V2000
  -30.7618  -14.4095   20.6520 C   0  0  0  0  0  0
  -30.4077  -12.3018   19.4110 C   0  0  0  0  0  0
  -29.4826  -12.5159   18.1983 C   0  0  0  0  0  0
  -28.0087  -12.3470   18.6105 C   0  0  0  0  0  0
  -27.6539  -13.1872   19.8617 C   0  0  2  0  0  0
  -28.6935  -12.9804   20.9909 C   0  0  0  0  0  0
  -25.2579  -13.8113   20.5651 C   0  0  0  0  0  0
  -24.1828  -13.0415   20.9177 C   0  0  0  0  0  0
  -24.6365  -11.6878   20.8754 C   0  0  0  0  0  0
  -23.9037  -10.4277   21.0436 C   0  0  0  0  0  0
  -24.3606   -9.4198   21.9202 C   0  0  0  0  0  0
  -23.6289   -8.2231   22.0766 C   0  0  0  0  0  0
  -22.4271   -8.0270   21.3551 C   0  0  0  0  0  0
  -21.9900   -9.0244   20.4647 C   0  0  0  0  0  0
  -22.7227  -10.2125   20.3066 C   0  0  0  0  0  0
  -21.6844   -6.0738   22.5284 C   0  0  0  0  0  0
  -21.4008   -6.5646   23.8218 C   0  0  0  0  0  0
  -21.3655   -5.6795   24.9177 C   0  0  0  0  0  0
  -21.6043   -4.3059   24.7227 C   0  0  0  0  0  0
  -21.8817   -3.8149   23.4350 C   0  0  0  0  0  0
  -21.9192   -4.6965   22.3407 C   0  0  0  0  0  0
  -22.7856  -13.5240   21.1847 C   0  0  0  0  0  0
  -22.1656   -4.2157   21.0980 F   0  0  0  0  0  0
  -21.5634   -3.4535   25.7740 F   0  0  0  0  0  0
  -30.0324  -13.2746   20.4519 N   0  0  0  0  0  0
  -26.2968  -12.9238   20.3285 N   0  0  0  0  0  0
  -25.9270  -11.6424   20.5749 N   0  0  0  0  0  0
  -22.0478  -12.8242   22.0390 N   0  0  0  0  0  0
  -25.4318  -15.1829   20.4058 N   0  0  0  0  0  0
  -31.8364  -14.6051   20.0741 O   0  0  0  0  0  0
  -21.6634   -6.8875   21.4244 O   0  0  0  0  0  0
  -22.3560  -14.5567   20.6709 O   0  0  0  0  0  0
  -24.6086  -31.8708   23.2124 C   0  0  0  0  0  0
  -25.8996  -32.4840   23.8404 C   0  0  1  0  0  0
  -27.2525  -27.4831   20.0884 C   0  0  0  0  0  0
  -25.5863  -33.8634   24.2339 N   0  0  0  0  0  0
  -23.3955  -30.4932   21.5507 C   0  0  2  0  0  0
  -24.8459  -28.9626   20.1171 C   0  0  0  0  0  0
  -22.7384  -29.4664   22.4996 C   0  0  0  0  0  0
  -18.0267  -28.1379   22.8482 C   0  0  0  0  0  0
  -24.1476  -36.7325   23.2638 C   0  0  0  0  0  0
  -25.9170  -30.8540   21.3549 C   0  0  0  0  0  0
  -26.0005  -29.4893   20.7078 C   0  0  0  0  0  0
  -27.2050  -28.7591   20.6968 C   0  0  0  0  0  0
  -26.0767  -26.9510   19.5208 C   0  0  0  0  0  0
  -24.8758  -27.6881   19.5221 C   0  0  0  0  0  0
  -23.6038  -29.8233   20.1650 C   0  0  0  0  0  0
  -25.4092  -36.3121   24.0351 C   0  0  1  0  0  0
  -20.5856  -28.3653   23.1335 C   0  0  2  0  0  0
  -20.6760  -26.9389   22.5434 C   0  0  0  0  0  0
  -19.5763  -26.6380   21.5210 C   0  0  0  0  0  0
  -18.1924  -26.7937   22.1585 C   0  0  0  0  0  0
  -19.1516  -28.8830   23.2914 C   0  0  0  0  0  0
  -18.9449  -30.1436   23.8922 C   0  0  0  0  0  0
  -17.6456  -30.6580   24.0571 C   0  0  0  0  0  0
  -25.9015  -34.9486   23.5140 C   0  0  0  0  0  0
  -16.5347  -29.9094   23.6319 C   0  0  0  0  0  0
  -16.7258  -28.6515   23.0327 C   0  0  0  0  0  0
  -26.4444  -31.6608   25.0707 C   0  0  0  0  0  0
  -25.3739  -31.3721   26.1484 C   0  0  0  0  0  0
  -27.0246  -30.3058   24.6026 C   0  0  0  0  0  0
  -27.6035  -32.4311   25.7461 C   0  0  0  0  0  0
  -27.5589  -37.1812   24.8455 C   0  0  0  0  0  0
  -21.4116  -29.3025   22.3739 N   0  0  0  0  0  0
  -26.4282  -37.3806   23.9423 N   0  0  0  0  0  0
  -24.6589  -31.0850   22.0996 N   0  0  0  0  0  0
  -23.4184  -28.8209   23.3021 O   0  0  0  0  0  0
  -28.3910  -26.7145   20.0278 O   0  0  0  0  0  0
  -26.5577  -34.8938   22.4700 O   0  0  0  0  0  0
  -23.5290  -32.1424   23.7556 O   0  0  0  0  0  0
  -31.2501  -21.1360   19.1110 C   0  0  0  0  0  0
  -28.9368  -21.8003   20.2649 C   0  0  0  0  0  0
  -30.5242  -22.2599   18.6927 C   0  0  0  0  0  0
  -30.7140  -20.3808   20.1531 C   0  0  0  0  0  0
  -30.2957  -23.1276   16.2456 C   0  0  0  0  0  0
  -31.6896  -22.5715   16.3802 C   0  0  0  0  0  0
  -31.8581  -17.2172   21.9178 C   0  0  0  0  0  0
  -29.7043  -17.4411   20.5889 C   0  0  0  0  0  0
  -31.2667  -15.9235   22.5275 C   0  0  0  0  0  0
  -29.2062  -16.1910   21.3373 C   0  0  0  0  0  0
  -30.7778  -18.1975   21.4017 C   0  0  0  0  0  0
  -30.9960  -23.1723   17.5885 C   0  0  0  0  0  0
  -31.4774  -24.5074   18.1423 C   0  0  0  0  0  0
  -30.7353  -26.3682   19.6217 C   0  0  0  0  0  0
  -29.6226  -27.4037   19.8322 C   0  0  0  0  0  0
  -29.3616  -22.5962   19.2837 N   0  0  0  0  0  0
  -29.5549  -20.7193   20.7329 N   0  0  0  0  0  0
  -30.3244  -15.2744   21.6027 N   0  0  0  0  0  0
  -31.4055  -19.2564   20.6138 N   0  0  0  0  0  0
  -30.3544  -25.3397   18.6261 N   0  3  0  0  0  0
  -31.4533  -12.3859   19.1096 H   0  0  0  0  0  0
  -30.2984  -11.2871   19.7964 H   0  0  0  0  0  0
  -29.7329  -11.8113   17.4040 H   0  0  0  0  0  0
  -29.6379  -13.5134   17.7838 H   0  0  0  0  0  0
  -27.8316  -11.2895   18.8088 H   0  0  0  0  0  0
  -27.3530  -12.6134   17.7811 H   0  0  0  0  0  0
  -27.6822  -14.2190   19.5229 H   0  0  0  0  0  0
  -28.6664  -11.9476   21.3421 H   0  0  0  0  0  0
  -28.4415  -13.5832   21.8633 H   0  0  0  0  0  0
  -25.2754   -9.5675   22.4776 H   0  0  0  0  0  0
  -24.0000   -7.4615   22.7480 H   0  0  0  0  0  0
  -21.0838   -8.8763   19.8941 H   0  0  0  0  0  0
  -22.3704  -10.9671   19.6174 H   0  0  0  0  0  0
  -21.1990   -7.6156   23.9731 H   0  0  0  0  0  0
  -21.1476   -6.0519   25.9082 H   0  0  0  0  0  0
  -22.0601   -2.7607   23.2844 H   0  0  0  0  0  0
  -22.4047  -11.9871   22.4753 H   0  0  0  0  0  0
  -21.1095  -13.1296   22.2588 H   0  0  0  0  0  0
  -24.6658  -15.8383   20.5205 H   0  0  0  0  0  0
  -26.2825  -15.6222   20.0780 H   0  0  0  0  0  0
  -26.7078  -32.5584   23.1192 H   0  0  0  0  0  0
  -25.0028  -33.9794   25.0495 H   0  0  0  0  0  0
  -22.6832  -31.3090   21.4118 H   0  0  0  0  0  0
  -23.3750  -35.9643   23.3261 H   0  0  0  0  0  0
  -24.3595  -36.8970   22.2061 H   0  0  0  0  0  0
  -23.7199  -37.6511   23.6666 H   0  0  0  0  0  0
  -26.0119  -31.6179   20.5819 H   0  0  0  0  0  0
  -26.8099  -30.9194   21.9638 H   0  0  0  0  0  0
  -28.0802  -29.1856   21.1653 H   0  0  0  0  0  0
  -26.0979  -25.9716   19.0643 H   0  0  0  0  0  0
  -23.9875  -27.2711   19.0683 H   0  0  0  0  0  0
  -23.7092  -30.5978   19.4048 H   0  0  0  0  0  0
  -22.7293  -29.2399   19.8705 H   0  0  0  0  0  0
  -25.1274  -36.1978   25.0848 H   0  0  0  0  0  0
  -20.9953  -28.3215   24.1454 H   0  0  0  0  0  0
  -20.5626  -26.2268   23.3624 H   0  0  0  0  0  0
  -21.6647  -26.7418   22.1249 H   0  0  0  0  0  0
  -19.6926  -25.6291   21.1236 H   0  0  0  0  0  0
  -19.6740  -27.3197   20.6752 H   0  0  0  0  0  0
  -17.4220  -26.6725   21.3952 H   0  0  0  0  0  0
  -18.0283  -26.0053   22.8948 H   0  0  0  0  0  0
  -19.7930  -30.7242   24.2305 H   0  0  0  0  0  0
  -17.5016  -31.6266   24.5167 H   0  0  0  0  0  0
  -15.5353  -30.3016   23.7624 H   0  0  0  0  0  0
  -15.8661  -28.0858   22.7013 H   0  0  0  0  0  0
  -24.5951  -30.6997   25.7874 H   0  0  0  0  0  0
  -24.8883  -32.2874   26.4887 H   0  0  0  0  0  0
  -25.8131  -30.8974   27.0268 H   0  0  0  0  0  0
  -26.2764  -29.6849   24.1088 H   0  0  0  0  0  0
  -27.4046  -29.7262   25.4445 H   0  0  0  0  0  0
  -27.8587  -30.4387   23.9133 H   0  0  0  0  0  0
  -27.2666  -33.3614   26.2054 H   0  0  0  0  0  0
  -28.3851  -32.6855   25.0288 H   0  0  0  0  0  0
  -28.0693  -31.8416   26.5369 H   0  0  0  0  0  0
  -28.2586  -38.0127   24.7518 H   0  0  0  0  0  0
  -28.1105  -36.2665   24.6232 H   0  0  0  0  0  0
  -27.2340  -37.1405   25.8867 H   0  0  0  0  0  0
  -20.9249  -29.8771   21.7000 H   0  0  0  0  0  0
  -26.0174  -38.2882   24.1452 H   0  0  0  0  0  0
  -32.1874  -20.8738   18.6397 H   0  0  0  0  0  0
  -28.0073  -22.0724   20.7415 H   0  0  0  0  0  0
  -29.4821  -22.4139   16.1265 H   0  0  0  0  0  0
  -30.1891  -24.0557   15.6874 H   0  0  0  0  0  0
  -32.4932  -23.1377   15.9138 H   0  0  0  0  0  0
  -31.7930  -21.4905   16.3225 H   0  0  0  0  0  0
  -32.5265  -16.9413   21.1016 H   0  0  0  0  0  0
  -32.4861  -17.7138   22.6597 H   0  0  0  0  0  0
  -28.8545  -18.0930   20.3827 H   0  0  0  0  0  0
  -30.1054  -17.1485   19.6175 H   0  0  0  0  0  0
  -30.7507  -16.1537   23.4604 H   0  0  0  0  0  0
  -32.0690  -15.2330   22.7938 H   0  0  0  0  0  0
  -28.4243  -15.7250   20.7514 H   0  0  0  0  0  0
  -28.7307  -16.4750   22.2768 H   0  0  0  0  0  0
  -30.2941  -18.6500   22.2702 H   0  0  0  0  0  0
  -32.0225  -25.0583   17.3762 H   0  0  0  0  0  0
  -32.1810  -24.3087   18.9524 H   0  0  0  0  0  0
  -30.9680  -25.8757   20.5665 H   0  0  0  0  0  0
  -31.6415  -26.8833   19.3005 H   0  0  0  0  0  0
  -29.5488  -28.0586   18.9616 H   0  0  0  0  0  0
  -29.8753  -28.0245   20.6920 H   0  0  0  0  0  0
  -32.2696  -19.0270   20.1357 H   0  0  0  0  0  0
  -29.6702  -24.7168   19.0427 H   0  0  0  0  0  0
  -29.9102  -25.7767   17.8337 H   0  0  0  0  0  0
  1 25  1  0  0  0
  1 30  2  0  0  0
  1 88  1  0  0  0
  2  3  1  0  0  0
  2 25  1  0  0  0
  2 91  1  0  0  0
  2 92  1  0  0  0
  3  4  1  0  0  0
  3 93  1  0  0  0
  3 94  1  0  0  0
  4  5  1  0  0  0
  4 95  1  0  0  0
  4 96  1  0  0  0
  5  6  1  0  0  0
  5 26  1  0  0  0
  5 97  1  0  0  0
  6 25  1  0  0  0
  6 98  1  0  0  0
  6 99  1  0  0  0
  7  8  2  0  0  0
  7 26  1  0  0  0
  7 29  1  0  0  0
  8  9  1  0  0  0
  8 22  1  0  0  0
  9 10  1  0  0  0
  9 27  2  0  0  0
 10 11  2  0  0  0
 10 15  1  0  0  0
 11 12  1  0  0  0
 11100  1  0  0  0
 12 13  2  0  0  0
 12101  1  0  0  0
 13 14  1  0  0  0
 13 31  1  0  0  0
 14 15  2  0  0  0
 14102  1  0  0  0
 15103  1  0  0  0
 16 17  2  0  0  0
 16 21  1  0  0  0
 16 31  1  0  0  0
 17 18  1  0  0  0
 17104  1  0  0  0
 18 19  2  0  0  0
 18105  1  0  0  0
 19 20  1  0  0  0
 19 24  1  0  0  0
 20 21  2  0  0  0
 20106  1  0  0  0
 21 23  1  0  0  0
 22 28  1  0  0  0
 22 32  2  0  0  0
 26 27  1  0  0  0
 28107  1  0  0  0
 28108  1  0  0  0
 29109  1  0  0  0
 29110  1  0  0  0
 33 34  1  0  0  0
 33 66  1  0  0  0
 33 70  2  0  0  0
 34 36  1  0  0  0
 34 59  1  0  0  0
 34111  1  0  0  0
 35 44  2  0  0  0
 35 45  1  0  0  0
 35 68  1  0  0  0
 36 56  1  0  0  0
 36112  1  0  0  0
 37 39  1  0  0  0
 37 47  1  0  0  0
 37 66  1  0  0  0
 37113  1  0  0  0
 38 43  2  0  0  0
 38 46  1  0  0  0
 38 47  1  0  0  0
 39 64  1  0  0  0
 39 67  2  0  0  0
 40 52  1  0  0  0
 40 53  2  0  0  0
 40 58  1  0  0  0
 41114  1  0  0  0
 41115  1  0  0  0
 41116  1  0  0  0
 41 48  1  0  0  0
 42 43  1  0  0  0
 42 66  1  0  0  0
 42117  1  0  0  0
 42118  1  0  0  0
 43 44  1  0  0  0
 44119  1  0  0  0
 45 46  2  0  0  0
 45120  1  0  0  0
 46121  1  0  0  0
 47122  1  0  0  0
 47123  1  0  0  0
 48 56  1  0  0  0
 48 65  1  0  0  0
 48124  1  0  0  0
 49 50  1  0  0  0
 49 53  1  0  0  0
 49 64  1  0  0  0
 49125  1  0  0  0
 50 51  1  0  0  0
 50126  1  0  0  0
 50127  1  0  0  0
 51 52  1  0  0  0
 51128  1  0  0  0
 51129  1  0  0  0
 52130  1  0  0  0
 52131  1  0  0  0
 53 54  1  0  0  0
 54 55  2  0  0  0
 54132  1  0  0  0
 55 57  1  0  0  0
 55133  1  0  0  0
 56 69  2  0  0  0
 57 58  2  0  0  0
 57134  1  0  0  0
 58135  1  0  0  0
 59 60  1  0  0  0
 59 61  1  0  0  0
 59 62  1  0  0  0
 60136  1  0  0  0
 60137  1  0  0  0
 60138  1  0  0  0
 61139  1  0  0  0
 61140  1  0  0  0
 61141  1  0  0  0
 62142  1  0  0  0
 62143  1  0  0  0
 62144  1  0  0  0
 63 65  1  0  0  0
 63145  1  0  0  0
 63146  1  0  0  0
 63147  1  0  0  0
 64148  1  0  0  0
 65149  1  0  0  0
 68 85  1  0  0  0
 71 73  2  0  0  0
 71 74  1  0  0  0
 71150  1  0  0  0
 72 86  2  0  0  0
 72 87  1  0  0  0
 72151  1  0  0  0
 73 82  1  0  0  0
 73 86  1  0  0  0
 74 87  2  0  0  0
 74 89  1  0  0  0
 75 76  1  0  0  0
 75 82  1  0  0  0
 75152  1  0  0  0
 75153  1  0  0  0
 76 82  1  0  0  0
 76154  1  0  0  0
 76155  1  0  0  0
 77 79  1  0  0  0
 77 81  1  0  0  0
 77156  1  0  0  0
 77157  1  0  0  0
 78 80  1  0  0  0
 78 81  1  0  0  0
 78158  1  0  0  0
 78159  1  0  0  0
 79 88  1  0  0  0
 79160  1  0  0  0
 79161  1  0  0  0
 80 88  1  0  0  0
 80162  1  0  0  0
 80163  1  0  0  0
 81 89  1  0  0  0
 81164  1  0  0  0
 82 83  1  0  0  0
 83 90  1  0  0  0
 83165  1  0  0  0
 83166  1  0  0  0
 84 85  1  0  0  0
 84 90  1  0  0  0
 84167  1  0  0  0
 84168  1  0  0  0
 85169  1  0  0  0
 85170  1  0  0  0
 89171  1  0  0  0
 90172  1  0  0  0
 90173  1  0  0  0
M  CHG  1  90   1
M  ISO  4   1 100  68 101  85 101  88 100
M  END
> <chiral flag>
0

> <version>
0

> <s_m_source_file>
/data/baiqing/PycharmProjects/Reinvent-master-3.2/result/LINK_invent/BTK/process_docking_weight1_custom_sum_contain_oxygen_bond_distance_aromatic_linkinvent_7_9_3/rearranged_h_0195.sdf

> <i_m_source_file_index>
57

> <r_mmod_Potential_Energy-OPLS-2005>
-508.718292236328

> <r_mmod_Stretch_Energy-OPLS-2005>
34.7249717712402

> <r_mmod_Bend_Energy-OPLS-2005>
112.443458557129

> <r_mmod_Torsional_Energy-OPLS-2005>
355.819274902344

> <r_mmod_Improper_Torsional_Energy-OPLS-2005>
6.42316627502441

> <r_mmod_Van_der_Waal_Energy-OPLS-2005>
172.642456054688

> <r_mmod_Electrostatic_Energy-OPLS-2005>
-758.329467773438

> <r_mmod_Solvation_Energy-OPLS-2005>
-440.324462890625

> <b_mmod_Minimization_Converged-OPLS-2005>
0

> <r_mmod_RMS_Derivative-OPLS-2005>
1.69818115234375

$$$$
58
                    3D
 Structure written by MMmdl.
163172  0  0  1  0            999 V2000
  -30.6718  -14.4870   20.5597 C   0  0  0  0  0  0
  -30.4286  -12.3140   19.4150 C   0  0  0  0  0  0
  -29.4926  -12.4853   18.1984 C   0  0  0  0  0  0
  -28.0139  -12.3496   18.6183 C   0  0  0  0  0  0
  -27.6578  -13.1992   19.8681 C   0  0  2  0  0  0
  -28.6981  -12.9834   20.9889 C   0  0  0  0  0  0
  -25.2568  -13.8139   20.5679 C   0  0  0  0  0  0
  -24.1809  -13.0429   20.9173 C   0  0  0  0  0  0
  -24.6357  -11.6896   20.8731 C   0  0  0  0  0  0
  -23.9038  -10.4281   21.0400 C   0  0  0  0  0  0
  -24.3587   -9.4187   21.9179 C   0  0  0  0  0  0
  -23.6255   -8.2231   22.0749 C   0  0  0  0  0  0
  -22.4233   -8.0273   21.3550 C   0  0  0  0  0  0
  -21.9863   -9.0259   20.4659 C   0  0  0  0  0  0
  -22.7202  -10.2130   20.3071 C   0  0  0  0  0  0
  -21.6843   -6.0717   22.5267 C   0  0  0  0  0  0
  -21.4024   -6.5626   23.8202 C   0  0  0  0  0  0
  -21.3659   -5.6776   24.9162 C   0  0  0  0  0  0
  -21.6037   -4.3038   24.7224 C   0  0  0  0  0  0
  -21.8816   -3.8132   23.4339 C   0  0  0  0  0  0
  -21.9195   -4.6956   22.3400 C   0  0  0  0  0  0
  -22.7840  -13.5251   21.1842 C   0  0  0  0  0  0
  -22.1658   -4.2141   21.0975 F   0  0  0  0  0  0
  -21.5632   -3.4521   25.7735 F   0  0  0  0  0  0
  -30.0242  -13.2988   20.4297 N   0  0  0  0  0  0
  -26.2989  -12.9300   20.3324 N   0  0  0  0  0  0
  -25.9264  -11.6472   20.5725 N   0  0  0  0  0  0
  -22.0476  -12.8268   22.0415 N   0  0  0  0  0  0
  -25.4304  -15.1852   20.4120 N   0  0  0  0  0  0
  -31.8082  -14.6894   20.1191 O   0  0  0  0  0  0
  -21.6620   -6.8861   21.4222 O   0  0  0  0  0  0
  -22.3543  -14.5565   20.6691 O   0  0  0  0  0  0
  -24.6200  -31.8644   23.2086 C   0  0  0  0  0  0
  -25.9066  -32.4810   23.8383 C   0  0  1  0  0  0
  -27.2073  -27.3760   20.1009 C   0  0  0  0  0  0
  -25.5904  -33.8610   24.2297 N   0  0  0  0  0  0
  -23.4078  -30.4946   21.5516 C   0  0  2  0  0  0
  -24.8478  -28.9621   20.1114 C   0  0  0  0  0  0
  -22.7424  -29.4649   22.4945 C   0  0  0  0  0  0
  -18.0274  -28.1391   22.8494 C   0  0  0  0  0  0
  -24.1485  -36.7307   23.2632 C   0  0  0  0  0  0
  -25.9456  -30.8141   21.3707 C   0  0  0  0  0  0
  -26.0169  -29.4487   20.7103 C   0  0  0  0  0  0
  -27.2013  -28.6647   20.6982 C   0  0  0  0  0  0
  -26.0136  -26.9265   19.4872 C   0  0  0  0  0  0
  -24.8435  -27.7027   19.4968 C   0  0  0  0  0  0
  -23.6177  -29.8397   20.1631 C   0  0  0  0  0  0
  -25.4111  -36.3102   24.0325 C   0  0  1  0  0  0
  -20.5869  -28.3680   23.1297 C   0  0  2  0  0  0
  -20.6767  -26.9410   22.5406 C   0  0  0  0  0  0
  -19.5743  -26.6391   21.5207 C   0  0  0  0  0  0
  -18.1929  -26.7932   22.1633 C   0  0  0  0  0  0
  -19.1527  -28.8844   23.2901 C   0  0  0  0  0  0
  -18.9461  -30.1452   23.8921 C   0  0  0  0  0  0
  -17.6471  -30.6601   24.0565 C   0  0  0  0  0  0
  -25.9043  -34.9469   23.5107 C   0  0  0  0  0  0
  -16.5356  -29.9113   23.6329 C   0  0  0  0  0  0
  -16.7268  -28.6518   23.0358 C   0  0  0  0  0  0
  -26.4477  -31.6612   25.0730 C   0  0  0  0  0  0
  -25.3741  -31.3775   26.1490 C   0  0  0  0  0  0
  -27.0270  -30.3027   24.6152 C   0  0  0  0  0  0
  -27.6077  -32.4311   25.7475 C   0  0  0  0  0  0
  -27.5581  -37.1801   24.8460 C   0  0  0  0  0  0
  -21.4137  -29.3041   22.3686 N   0  0  0  0  0  0
  -26.4290  -37.3795   23.9412 N   0  0  0  0  0  0
  -24.6767  -31.0721   22.1013 N   0  0  0  0  0  0
  -23.4181  -28.8167   23.2973 O   0  0  0  0  0  0
  -28.3404  -26.5679   20.1434 O   0  0  0  0  0  0
  -26.5616  -34.8922   22.4674 O   0  0  0  0  0  0
  -23.5376  -32.1415   23.7463 O   0  0  0  0  0  0
  -27.7887  -21.9923   20.3222 C   0  0  0  0  0  0
  -28.1354  -20.6663   20.3852 C   0  0  0  0  0  0
  -29.0140  -22.7072   20.4608 C   0  0  0  0  0  0
  -30.2364  -17.8111   18.9474 C   0  0  0  0  0  0
  -31.6652  -19.4770   19.8509 C   0  0  0  0  0  0
  -29.7989  -17.9973   20.4063 C   0  0  2  0  0  0
  -30.3929  -19.4088   20.7398 C   0  0  2  0  0  0
  -32.1697  -18.5799   17.5733 C   0  0  0  0  0  0
  -29.2711  -24.2202   20.5187 C   0  0  0  0  0  0
  -30.3672  -16.8775   21.3487 C   0  0  0  0  0  0
  -28.1262  -25.1333   19.9903 C   0  0  0  0  0  0
  -30.0281  -21.8481   20.6040 N   0  0  0  0  0  0
  -29.5096  -20.5857   20.5264 N   0  0  0  0  0  0
  -29.9309  -15.4964   21.0598 N   0  0  0  0  0  0
  -31.6177  -18.3246   18.9209 N   0  3  2  0  0  0
  -31.4712  -12.4294   19.1127 H   0  0  0  0  0  0
  -30.3487  -11.3062   19.8240 H   0  0  0  0  0  0
  -29.7259  -11.7351   17.4404 H   0  0  0  0  0  0
  -29.6572  -13.4566   17.7299 H   0  0  0  0  0  0
  -27.8210  -11.2958   18.8238 H   0  0  0  0  0  0
  -27.3622  -12.6196   17.7872 H   0  0  0  0  0  0
  -27.7029  -14.2448   19.5627 H   0  0  0  0  0  0
  -28.6782  -11.9474   21.3313 H   0  0  0  0  0  0
  -28.4582  -13.5810   21.8693 H   0  0  0  0  0  0
  -25.2740   -9.5657   22.4733 H   0  0  0  0  0  0
  -23.9979   -7.4609   22.7441 H   0  0  0  0  0  0
  -21.0801   -8.8778   19.8961 H   0  0  0  0  0  0
  -22.3659  -10.9671   19.6183 H   0  0  0  0  0  0
  -21.2023   -7.6131   23.9707 H   0  0  0  0  0  0
  -21.1478   -6.0503   25.9064 H   0  0  0  0  0  0
  -22.0600   -2.7598   23.2835 H   0  0  0  0  0  0
  -22.4091  -11.9957   22.4847 H   0  0  0  0  0  0
  -21.1111  -13.1323   22.2639 H   0  0  0  0  0  0
  -24.6631  -15.8373   20.5244 H   0  0  0  0  0  0
  -26.2800  -15.6252   20.0825 H   0  0  0  0  0  0
  -26.7127  -32.5494   23.1132 H   0  0  0  0  0  0
  -25.0020  -33.9768   25.0420 H   0  0  0  0  0  0
  -22.7015  -31.3163   21.4175 H   0  0  0  0  0  0
  -23.3747  -35.9639   23.3291 H   0  0  0  0  0  0
  -24.3587  -36.8930   22.2047 H   0  0  0  0  0  0
  -23.7231  -37.6506   23.6656 H   0  0  0  0  0  0
  -26.0716  -31.5829   20.6074 H   0  0  0  0  0  0
  -26.8282  -30.8595   21.9963 H   0  0  0  0  0  0
  -28.0995  -29.0303   21.1755 H   0  0  0  0  0  0
  -25.9459  -25.9636   19.0036 H   0  0  0  0  0  0
  -23.9425  -27.3218   19.0347 H   0  0  0  0  0  0
  -23.7424  -30.6222   19.4139 H   0  0  0  0  0  0
  -22.7359  -29.2770   19.8503 H   0  0  0  0  0  0
  -25.1285  -36.1960   25.0819 H   0  0  0  0  0  0
  -20.9984  -28.3255   24.1409 H   0  0  0  0  0  0
  -20.5679  -26.2280   23.3594 H   0  0  0  0  0  0
  -21.6636  -26.7458   22.1192 H   0  0  0  0  0  0
  -19.6909  -25.6305   21.1232 H   0  0  0  0  0  0
  -19.6679  -27.3201   20.6736 H   0  0  0  0  0  0
  -17.4179  -26.6643   21.4064 H   0  0  0  0  0  0
  -18.0372  -26.0094   22.9053 H   0  0  0  0  0  0
  -19.7940  -30.7248   24.2310 H   0  0  0  0  0  0
  -17.5036  -31.6291   24.5148 H   0  0  0  0  0  0
  -15.5366  -30.3033   23.7643 H   0  0  0  0  0  0
  -15.8658  -28.0852   22.7083 H   0  0  0  0  0  0
  -24.5898  -30.7127   25.7848 H   0  0  0  0  0  0
  -24.8959  -32.2959   26.4903 H   0  0  0  0  0  0
  -25.8090  -30.8973   27.0265 H   0  0  0  0  0  0
  -26.2802  -29.6819   24.1186 H   0  0  0  0  0  0
  -27.3967  -29.7250   25.4631 H   0  0  0  0  0  0
  -27.8686  -30.4287   23.9339 H   0  0  0  0  0  0
  -27.2740  -33.3648   26.2012 H   0  0  0  0  0  0
  -28.3906  -32.6797   25.0298 H   0  0  0  0  0  0
  -28.0709  -31.8443   26.5417 H   0  0  0  0  0  0
  -28.2597  -38.0098   24.7522 H   0  0  0  0  0  0
  -28.1073  -36.2634   24.6263 H   0  0  0  0  0  0
  -27.2306  -37.1426   25.8863 H   0  0  0  0  0  0
  -20.9291  -29.8788   21.6938 H   0  0  0  0  0  0
  -26.0170  -38.2858   24.1466 H   0  0  0  0  0  0
  -26.7902  -22.3925   20.2105 H   0  0  0  0  0  0
  -27.5069  -19.7873   20.3504 H   0  0  0  0  0  0
  -29.6097  -18.4213   18.2920 H   0  0  0  0  0  0
  -30.1678  -16.7804   18.5986 H   0  0  0  0  0  0
  -32.5684  -19.4158   20.4578 H   0  0  0  0  0  0
  -31.7290  -20.4130   19.2939 H   0  0  0  0  0  0
  -28.7125  -17.9711   20.4829 H   0  0  0  0  0  0
  -30.6770  -19.4334   21.7926 H   0  0  0  0  0  0
  -32.0570  -17.7017   16.9384 H   0  0  0  0  0  0
  -33.2360  -18.8024   17.6345 H   0  0  0  0  0  0
  -31.6717  -19.4188   17.0884 H   0  0  0  0  0  0
  -30.1802  -24.4548   19.9648 H   0  0  0  0  0  0
  -29.4700  -24.4957   21.5546 H   0  0  0  0  0  0
  -30.0578  -17.0932   22.3726 H   0  0  0  0  0  0
  -31.4576  -16.9165   21.3751 H   0  0  0  0  0  0
  -27.2215  -24.8441   20.5291 H   0  0  0  0  0  0
  -27.9646  -24.9115   18.9343 H   0  0  0  0  0  0
  -28.9900  -15.2495   21.3313 H   0  0  0  0  0  0
  -32.1903  -17.5976   19.3268 H   0  0  0  0  0  0
  1 25  1  0  0  0
  1 30  2  0  0  0
  1 84  1  0  0  0
  2  3  1  0  0  0
  2 25  1  0  0  0
  2 86  1  0  0  0
  2 87  1  0  0  0
  3  4  1  0  0  0
  3 88  1  0  0  0
  3 89  1  0  0  0
  4  5  1  0  0  0
  4 90  1  0  0  0
  4 91  1  0  0  0
  5  6  1  0  0  0
  5 26  1  0  0  0
  5 92  1  0  0  0
  6 25  1  0  0  0
  6 93  1  0  0  0
  6 94  1  0  0  0
  7  8  2  0  0  0
  7 26  1  0  0  0
  7 29  1  0  0  0
  8  9  1  0  0  0
  8 22  1  0  0  0
  9 10  1  0  0  0
  9 27  2  0  0  0
 10 11  2  0  0  0
 10 15  1  0  0  0
 11 12  1  0  0  0
 11 95  1  0  0  0
 12 13  2  0  0  0
 12 96  1  0  0  0
 13 14  1  0  0  0
 13 31  1  0  0  0
 14 15  2  0  0  0
 14 97  1  0  0  0
 15 98  1  0  0  0
 16 17  2  0  0  0
 16 21  1  0  0  0
 16 31  1  0  0  0
 17 18  1  0  0  0
 17 99  1  0  0  0
 18 19  2  0  0  0
 18100  1  0  0  0
 19 20  1  0  0  0
 19 24  1  0  0  0
 20 21  2  0  0  0
 20101  1  0  0  0
 21 23  1  0  0  0
 22 28  1  0  0  0
 22 32  2  0  0  0
 26 27  1  0  0  0
 28102  1  0  0  0
 28103  1  0  0  0
 29104  1  0  0  0
 29105  1  0  0  0
 33 34  1  0  0  0
 33 66  1  0  0  0
 33 70  2  0  0  0
 34 36  1  0  0  0
 34 59  1  0  0  0
 34106  1  0  0  0
 35 44  2  0  0  0
 35 45  1  0  0  0
 35 68  1  0  0  0
 36 56  1  0  0  0
 36107  1  0  0  0
 37 39  1  0  0  0
 37 47  1  0  0  0
 37 66  1  0  0  0
 37108  1  0  0  0
 38 43  2  0  0  0
 38 46  1  0  0  0
 38 47  1  0  0  0
 39 64  1  0  0  0
 39 67  2  0  0  0
 40 52  1  0  0  0
 40 53  2  0  0  0
 40 58  1  0  0  0
 41109  1  0  0  0
 41110  1  0  0  0
 41111  1  0  0  0
 41 48  1  0  0  0
 42 43  1  0  0  0
 42 66  1  0  0  0
 42112  1  0  0  0
 42113  1  0  0  0
 43 44  1  0  0  0
 44114  1  0  0  0
 45 46  2  0  0  0
 45115  1  0  0  0
 46116  1  0  0  0
 47117  1  0  0  0
 47118  1  0  0  0
 48 56  1  0  0  0
 48 65  1  0  0  0
 48119  1  0  0  0
 49 50  1  0  0  0
 49 53  1  0  0  0
 49 64  1  0  0  0
 49120  1  0  0  0
 50 51  1  0  0  0
 50121  1  0  0  0
 50122  1  0  0  0
 51 52  1  0  0  0
 51123  1  0  0  0
 51124  1  0  0  0
 52125  1  0  0  0
 52126  1  0  0  0
 53 54  1  0  0  0
 54 55  2  0  0  0
 54127  1  0  0  0
 55 57  1  0  0  0
 55128  1  0  0  0
 56 69  2  0  0  0
 57 58  2  0  0  0
 57129  1  0  0  0
 58130  1  0  0  0
 59 60  1  0  0  0
 59 61  1  0  0  0
 59 62  1  0  0  0
 60131  1  0  0  0
 60132  1  0  0  0
 60133  1  0  0  0
 61134  1  0  0  0
 61135  1  0  0  0
 61136  1  0  0  0
 62137  1  0  0  0
 62138  1  0  0  0
 62139  1  0  0  0
 63 65  1  0  0  0
 63140  1  0  0  0
 63141  1  0  0  0
 63142  1  0  0  0
 64143  1  0  0  0
 65144  1  0  0  0
 68 81  1  0  0  0
 71 72  2  0  0  0
 71 73  1  0  0  0
 71145  1  0  0  0
 72 83  1  0  0  0
 72146  1  0  0  0
 73 79  1  0  0  0
 73 82  2  0  0  0
 74 76  1  0  0  0
 74 85  1  0  0  0
 74147  1  0  0  0
 74148  1  0  0  0
 75 77  1  0  0  0
 75 85  1  0  0  0
 75149  1  0  0  0
 75150  1  0  0  0
 76 77  1  0  0  0
 76 80  1  0  0  0
 76151  1  0  0  0
 77 83  1  0  0  0
 77152  1  0  0  0
 78153  1  0  0  0
 78154  1  0  0  0
 78155  1  0  0  0
 78 85  1  0  0  0
 79 81  1  0  0  0
 79156  1  0  0  0
 79157  1  0  0  0
 80 84  1  0  0  0
 80158  1  0  0  0
 80159  1  0  0  0
 81160  1  0  0  0
 81161  1  0  0  0
 82 83  1  0  0  0
 84162  1  0  0  0
 85163  1  0  0  0
M  CHG  1  85   1
M  ISO  4   1 100  68 101  81 101  84 100
M  END
> <chiral flag>
0

> <version>
0

> <s_m_source_file>
/data/baiqing/PycharmProjects/Reinvent-master-3.2/result/LINK_invent/BTK/process_docking_weight1_custom_sum_contain_oxygen_bond_distance_aromatic_linkinvent_7_9_3/rearranged_h_0195.sdf

> <i_m_source_file_index>
58

> <r_mmod_Potential_Energy-OPLS-2005>
-133.464645385742

> <r_mmod_Stretch_Energy-OPLS-2005>
47.0678977966309

> <r_mmod_Bend_Energy-OPLS-2005>
131.305023193359

> <r_mmod_Torsional_Energy-OPLS-2005>
291.022369384766

> <r_mmod_Improper_Torsional_Energy-OPLS-2005>
4.03448295593262

> <r_mmod_Van_der_Waal_Energy-OPLS-2005>
129.159652709961

> <r_mmod_Electrostatic_Energy-OPLS-2005>
-318.442840576172

> <r_mmod_Solvation_Energy-OPLS-2005>
-439.635284423828

> <b_mmod_Minimization_Converged-OPLS-2005>
0

> <r_mmod_RMS_Derivative-OPLS-2005>
3.30992126464844

$$$$
59
                    3D
 Structure written by MMmdl.
183193  0  0  1  0            999 V2000
  -30.7991  -14.3272   20.6889 C   0  0  0  0  0  0
  -30.4055  -12.2702   19.3939 C   0  0  0  0  0  0
  -29.4772  -12.5184   18.1924 C   0  0  0  0  0  0
  -28.0033  -12.3789   18.6105 C   0  0  0  0  0  0
  -27.6661  -13.2012   19.8813 C   0  0  2  0  0  0
  -28.7036  -12.9509   20.9977 C   0  0  0  0  0  0
  -25.2610  -13.8102   20.5698 C   0  0  0  0  0  0
  -24.1868  -13.0411   20.9208 C   0  0  0  0  0  0
  -24.6407  -11.6874   20.8776 C   0  0  0  0  0  0
  -23.9068  -10.4274   21.0422 C   0  0  0  0  0  0
  -24.3612   -9.4188   21.9203 C   0  0  0  0  0  0
  -23.6269   -8.2235   22.0765 C   0  0  0  0  0  0
  -22.4259   -8.0282   21.3545 C   0  0  0  0  0  0
  -21.9915   -9.0259   20.4640 C   0  0  0  0  0  0
  -22.7252  -10.2131   20.3056 C   0  0  0  0  0  0
  -21.6842   -6.0744   22.5279 C   0  0  0  0  0  0
  -21.4006   -6.5644   23.8220 C   0  0  0  0  0  0
  -21.3650   -5.6795   24.9179 C   0  0  0  0  0  0
  -21.6041   -4.3056   24.7223 C   0  0  0  0  0  0
  -21.8818   -3.8151   23.4343 C   0  0  0  0  0  0
  -21.9184   -4.6971   22.3401 C   0  0  0  0  0  0
  -22.7893  -13.5234   21.1841 C   0  0  0  0  0  0
  -22.1661   -4.2161   21.0977 F   0  0  0  0  0  0
  -21.5620   -3.4538   25.7735 F   0  0  0  0  0  0
  -30.0503  -13.2201   20.4592 N   0  0  0  0  0  0
  -26.3065  -12.9295   20.3426 N   0  0  0  0  0  0
  -25.9338  -11.6457   20.5808 N   0  0  0  0  0  0
  -22.0474  -12.8237   22.0336 N   0  0  0  0  0  0
  -25.4270  -15.1806   20.3949 N   0  0  0  0  0  0
  -31.8133  -14.5950   20.0411 O   0  0  0  0  0  0
  -21.6615   -6.8889   21.4241 O   0  0  0  0  0  0
  -22.3691  -14.5612   20.6727 O   0  0  0  0  0  0
  -24.6054  -31.8745   23.2194 C   0  0  0  0  0  0
  -25.8996  -32.4850   23.8445 C   0  0  1  0  0  0
  -27.2306  -27.5013   20.0727 C   0  0  0  0  0  0
  -25.5897  -33.8650   24.2397 N   0  0  0  0  0  0
  -23.3862  -30.4975   21.5618 C   0  0  2  0  0  0
  -24.8326  -28.9794   20.1154 C   0  0  0  0  0  0
  -22.7355  -29.4653   22.5065 C   0  0  0  0  0  0
  -18.0264  -28.1317   22.8518 C   0  0  0  0  0  0
  -24.1480  -36.7272   23.2651 C   0  0  0  0  0  0
  -25.9087  -30.8616   21.3628 C   0  0  0  0  0  0
  -25.9904  -29.5055   20.6997 C   0  0  0  0  0  0
  -27.1935  -28.7730   20.6770 C   0  0  0  0  0  0
  -26.0522  -26.9793   19.4852 C   0  0  0  0  0  0
  -24.8536  -27.7100   19.5154 C   0  0  0  0  0  0
  -23.5880  -29.8323   20.1741 C   0  0  0  0  0  0
  -25.4115  -36.3124   24.0355 C   0  0  1  0  0  0
  -20.5847  -28.3596   23.1358 C   0  0  2  0  0  0
  -20.6734  -26.9352   22.5401 C   0  0  0  0  0  0
  -19.5722  -26.6363   21.5178 C   0  0  0  0  0  0
  -18.1904  -26.7883   22.1599 C   0  0  0  0  0  0
  -19.1509  -28.8770   23.2941 C   0  0  0  0  0  0
  -18.9450  -30.1382   23.8943 C   0  0  0  0  0  0
  -17.6458  -30.6552   24.0546 C   0  0  0  0  0  0
  -25.9026  -34.9483   23.5168 C   0  0  0  0  0  0
  -16.5351  -29.9046   23.6318 C   0  0  0  0  0  0
  -16.7257  -28.6433   23.0410 C   0  0  0  0  0  0
  -26.4505  -31.6591   25.0718 C   0  0  0  0  0  0
  -25.3798  -31.3532   26.1455 C   0  0  0  0  0  0
  -27.0448  -30.3111   24.5995 C   0  0  0  0  0  0
  -27.6054  -32.4321   25.7516 C   0  0  0  0  0  0
  -27.5569  -37.1833   24.8506 C   0  0  0  0  0  0
  -21.4095  -29.2991   22.3797 N   0  0  0  0  0  0
  -26.4320  -37.3786   23.9383 N   0  0  0  0  0  0
  -24.6509  -31.0890   22.1071 N   0  0  0  0  0  0
  -23.4182  -28.8195   23.3060 O   0  0  0  0  0  0
  -28.4130  -26.8014   20.1128 O   0  0  0  0  0  0
  -26.5552  -34.8921   22.4715 O   0  0  0  0  0  0
  -23.5267  -32.1478   23.7628 O   0  0  0  0  0  0
  -30.7054  -19.2228   18.9665 C   0  0  0  0  0  0
  -31.9094  -18.5549   19.2751 C   0  0  0  0  0  0
  -29.6054  -18.9343   19.7860 C   0  0  0  0  0  0
  -29.7248  -18.0288   20.8176 C   0  0  0  0  0  0
  -30.9486  -17.3945   21.0615 C   0  0  0  0  0  0
  -28.2130  -19.4959   19.7899 C   0  0  0  0  0  0
  -28.4178  -17.9243   21.5489 C   0  0  0  0  0  0
  -25.8518  -21.7976   20.7749 C   0  0  0  0  0  0
  -27.3356  -21.4824   22.8871 C   0  0  0  0  0  0
  -25.9246  -23.2965   21.0659 C   0  0  0  0  0  0
  -27.3534  -23.0119   23.0102 C   0  0  0  0  0  0
  -26.1764  -20.9134   22.0067 C   0  0  2  0  0  0
  -23.0062  -17.9157   20.6525 C   0  0  0  0  0  0
  -31.0749  -16.3160   22.1238 C   0  0  0  0  0  0
  -27.5878  -25.0482   21.6186 C   0  0  0  0  0  0
  -25.3391  -18.7578   20.7287 C   0  0  0  0  0  0
  -28.3114  -25.3948   20.2957 C   0  0  0  0  0  0
  -26.4101  -19.4138   21.6428 C   0  0  1  0  0  0
  -32.0350  -17.6717   20.2999 N   0  0  0  0  0  0
  -27.7837  -19.1914   21.1700 N   0  0  0  0  0  0
  -30.4038  -15.0877   21.7129 N   0  0  0  0  0  0
  -27.2426  -23.6127   21.6648 N   0  3  2  0  0  0
  -24.1556  -18.3114   21.4915 N   0  3  0  0  0  0
  -31.4497  -12.3506   19.0860 H   0  0  0  0  0  0
  -30.2875  -11.2492   19.7614 H   0  0  0  0  0  0
  -29.7047  -11.8165   17.3891 H   0  0  0  0  0  0
  -29.6515  -13.5168   17.7883 H   0  0  0  0  0  0
  -27.8048  -11.3215   18.7877 H   0  0  0  0  0  0
  -27.3502  -12.6757   17.7893 H   0  0  0  0  0  0
  -27.7244  -14.2551   19.6078 H   0  0  0  0  0  0
  -28.6576  -11.9131   21.3317 H   0  0  0  0  0  0
  -28.4564  -13.5469   21.8765 H   0  0  0  0  0  0
  -25.2754   -9.5650   22.4790 H   0  0  0  0  0  0
  -23.9958   -7.4626   22.7496 H   0  0  0  0  0  0
  -21.0856   -8.8794   19.8933 H   0  0  0  0  0  0
  -22.3736  -10.9680   19.6166 H   0  0  0  0  0  0
  -21.2013   -7.6157   23.9730 H   0  0  0  0  0  0
  -21.1468   -6.0522   25.9086 H   0  0  0  0  0  0
  -22.0607   -2.7616   23.2841 H   0  0  0  0  0  0
  -22.4018  -11.9838   22.4672 H   0  0  0  0  0  0
  -21.1094  -13.1294   22.2514 H   0  0  0  0  0  0
  -24.5602  -15.6466   20.1655 H   0  0  0  0  0  0
  -26.1908  -15.4682   19.7966 H   0  0  0  0  0  0
  -26.7056  -32.5611   23.1204 H   0  0  0  0  0  0
  -25.0144  -33.9832   25.0613 H   0  0  0  0  0  0
  -22.6689  -31.3112   21.4294 H   0  0  0  0  0  0
  -23.3766  -35.9579   23.3352 H   0  0  0  0  0  0
  -24.3558  -36.8841   22.2051 H   0  0  0  0  0  0
  -23.7208  -37.6478   23.6643 H   0  0  0  0  0  0
  -26.0163  -31.6442   20.6102 H   0  0  0  0  0  0
  -26.7939  -30.9074   21.9833 H   0  0  0  0  0  0
  -28.0864  -29.1683   21.1429 H   0  0  0  0  0  0
  -26.0275  -26.0144   19.0036 H   0  0  0  0  0  0
  -23.9581  -27.2910   19.0770 H   0  0  0  0  0  0
  -23.6748  -30.6056   19.4102 H   0  0  0  0  0  0
  -22.7153  -29.2400   19.8918 H   0  0  0  0  0  0
  -25.1300  -36.2011   25.0848 H   0  0  0  0  0  0
  -20.9947  -28.3104   24.1476 H   0  0  0  0  0  0
  -20.5601  -26.2185   23.3550 H   0  0  0  0  0  0
  -21.6617  -26.7381   22.1224 H   0  0  0  0  0  0
  -19.6884  -25.6290   21.1167 H   0  0  0  0  0  0
  -19.6656  -27.3181   20.6712 H   0  0  0  0  0  0
  -17.4179  -26.6687   21.3989 H   0  0  0  0  0  0
  -18.0292  -25.9977   22.8933 H   0  0  0  0  0  0
  -19.7937  -30.7170   24.2351 H   0  0  0  0  0  0
  -17.5028  -31.6257   24.5108 H   0  0  0  0  0  0
  -15.5358  -30.2974   23.7599 H   0  0  0  0  0  0
  -15.8657  -28.0719   22.7198 H   0  0  0  0  0  0
  -24.6035  -30.6848   25.7718 H   0  0  0  0  0  0
  -24.8918  -32.2609   26.5009 H   0  0  0  0  0  0
  -25.8192  -30.8621   27.0152 H   0  0  0  0  0  0
  -26.3008  -29.6733   24.1215 H   0  0  0  0  0  0
  -27.4543  -29.7446   25.4374 H   0  0  0  0  0  0
  -27.8661  -30.4555   23.8962 H   0  0  0  0  0  0
  -27.2680  -33.3631   26.2080 H   0  0  0  0  0  0
  -28.3900  -32.6852   25.0371 H   0  0  0  0  0  0
  -28.0692  -31.8452   26.5455 H   0  0  0  0  0  0
  -28.2645  -38.0072   24.7506 H   0  0  0  0  0  0
  -28.1017  -36.2610   24.6455 H   0  0  0  0  0  0
  -27.2252  -37.1620   25.8903 H   0  0  0  0  0  0
  -20.9215  -29.8744   21.7077 H   0  0  0  0  0  0
  -26.0220  -38.2881   24.1335 H   0  0  0  0  0  0
  -30.6484  -19.9285   18.1487 H   0  0  0  0  0  0
  -32.7994  -18.7331   18.6879 H   0  0  0  0  0  0
  -27.6063  -18.9860   19.0407 H   0  0  0  0  0  0
  -28.2530  -20.5597   19.5653 H   0  0  0  0  0  0
  -28.5608  -17.8484   22.6277 H   0  0  0  0  0  0
  -27.8525  -17.0618   21.1935 H   0  0  0  0  0  0
  -26.5240  -21.5902   19.9501 H   0  0  0  0  0  0
  -24.8526  -21.5712   20.4003 H   0  0  0  0  0  0
  -27.2936  -21.0415   23.8856 H   0  0  0  0  0  0
  -28.3126  -21.2043   22.4937 H   0  0  0  0  0  0
  -25.1133  -23.6021   21.7298 H   0  0  0  0  0  0
  -25.7770  -23.8401   20.1325 H   0  0  0  0  0  0
  -28.2958  -23.3112   23.4732 H   0  0  0  0  0  0
  -26.5527  -23.3748   23.6582 H   0  0  0  0  0  0
  -25.2864  -20.9580   22.6378 H   0  0  0  0  0  0
  -22.2030  -17.5194   21.2747 H   0  0  0  0  0  0
  -23.2810  -17.1463   19.9317 H   0  0  0  0  0  0
  -22.6092  -18.7667   20.0982 H   0  0  0  0  0  0
  -30.6243  -16.6725   23.0513 H   0  0  0  0  0  0
  -32.1237  -16.1150   22.3483 H   0  0  0  0  0  0
  -26.6714  -25.6196   21.7627 H   0  0  0  0  0  0
  -28.2428  -25.3263   22.4452 H   0  0  0  0  0  0
  -25.7553  -17.8780   20.2415 H   0  0  0  0  0  0
  -25.0445  -19.4157   19.9129 H   0  0  0  0  0  0
  -27.8414  -24.9373   19.4262 H   0  0  0  0  0  0
  -29.3223  -24.9854   20.3270 H   0  0  0  0  0  0
  -26.3774  -18.8865   22.5979 H   0  0  0  0  0  0
  -29.5756  -14.8108   22.2157 H   0  0  0  0  0  0
  -27.9364  -23.1427   21.1015 H   0  0  0  0  0  0
  -24.4176  -17.5294   22.0709 H   0  0  0  0  0  0
  -23.8483  -19.0524   22.1004 H   0  0  0  0  0  0
  1 25  1  0  0  0
  1 30  2  0  0  0
  1 91  1  0  0  0
  2  3  1  0  0  0
  2 25  1  0  0  0
  2 94  1  0  0  0
  2 95  1  0  0  0
  3  4  1  0  0  0
  3 96  1  0  0  0
  3 97  1  0  0  0
  4  5  1  0  0  0
  4 98  1  0  0  0
  4 99  1  0  0  0
  5  6  1  0  0  0
  5 26  1  0  0  0
  5100  1  0  0  0
  6 25  1  0  0  0
  6101  1  0  0  0
  6102  1  0  0  0
  7  8  2  0  0  0
  7 26  1  0  0  0
  7 29  1  0  0  0
  8  9  1  0  0  0
  8 22  1  0  0  0
  9 10  1  0  0  0
  9 27  2  0  0  0
 10 11  2  0  0  0
 10 15  1  0  0  0
 11 12  1  0  0  0
 11103  1  0  0  0
 12 13  2  0  0  0
 12104  1  0  0  0
 13 14  1  0  0  0
 13 31  1  0  0  0
 14 15  2  0  0  0
 14105  1  0  0  0
 15106  1  0  0  0
 16 17  2  0  0  0
 16 21  1  0  0  0
 16 31  1  0  0  0
 17 18  1  0  0  0
 17107  1  0  0  0
 18 19  2  0  0  0
 18108  1  0  0  0
 19 20  1  0  0  0
 19 24  1  0  0  0
 20 21  2  0  0  0
 20109  1  0  0  0
 21 23  1  0  0  0
 22 28  1  0  0  0
 22 32  2  0  0  0
 26 27  1  0  0  0
 28110  1  0  0  0
 28111  1  0  0  0
 29112  1  0  0  0
 29113  1  0  0  0
 33 34  1  0  0  0
 33 66  1  0  0  0
 33 70  2  0  0  0
 34 36  1  0  0  0
 34 59  1  0  0  0
 34114  1  0  0  0
 35 44  2  0  0  0
 35 45  1  0  0  0
 35 68  1  0  0  0
 36 56  1  0  0  0
 36115  1  0  0  0
 37 39  1  0  0  0
 37 47  1  0  0  0
 37 66  1  0  0  0
 37116  1  0  0  0
 38 43  2  0  0  0
 38 46  1  0  0  0
 38 47  1  0  0  0
 39 64  1  0  0  0
 39 67  2  0  0  0
 40 52  1  0  0  0
 40 53  2  0  0  0
 40 58  1  0  0  0
 41117  1  0  0  0
 41118  1  0  0  0
 41119  1  0  0  0
 41 48  1  0  0  0
 42 43  1  0  0  0
 42 66  1  0  0  0
 42120  1  0  0  0
 42121  1  0  0  0
 43 44  1  0  0  0
 44122  1  0  0  0
 45 46  2  0  0  0
 45123  1  0  0  0
 46124  1  0  0  0
 47125  1  0  0  0
 47126  1  0  0  0
 48 56  1  0  0  0
 48 65  1  0  0  0
 48127  1  0  0  0
 49 50  1  0  0  0
 49 53  1  0  0  0
 49 64  1  0  0  0
 49128  1  0  0  0
 50 51  1  0  0  0
 50129  1  0  0  0
 50130  1  0  0  0
 51 52  1  0  0  0
 51131  1  0  0  0
 51132  1  0  0  0
 52133  1  0  0  0
 52134  1  0  0  0
 53 54  1  0  0  0
 54 55  2  0  0  0
 54135  1  0  0  0
 55 57  1  0  0  0
 55136  1  0  0  0
 56 69  2  0  0  0
 57 58  2  0  0  0
 57137  1  0  0  0
 58138  1  0  0  0
 59 60  1  0  0  0
 59 61  1  0  0  0
 59 62  1  0  0  0
 60139  1  0  0  0
 60140  1  0  0  0
 60141  1  0  0  0
 61142  1  0  0  0
 61143  1  0  0  0
 61144  1  0  0  0
 62145  1  0  0  0
 62146  1  0  0  0
 62147  1  0  0  0
 63 65  1  0  0  0
 63148  1  0  0  0
 63149  1  0  0  0
 63150  1  0  0  0
 64151  1  0  0  0
 65152  1  0  0  0
 68 87  1  0  0  0
 71 72  2  0  0  0
 71 73  1  0  0  0
 71153  1  0  0  0
 72 89  1  0  0  0
 72154  1  0  0  0
 73 74  2  0  0  0
 73 76  1  0  0  0
 74 75  1  0  0  0
 74 77  1  0  0  0
 75 84  1  0  0  0
 75 89  2  0  0  0
 76 90  1  0  0  0
 76155  1  0  0  0
 76156  1  0  0  0
 77 90  1  0  0  0
 77157  1  0  0  0
 77158  1  0  0  0
 78 80  1  0  0  0
 78159  1  0  0  0
 78160  1  0  0  0
 78 82  1  0  0  0
 79 81  1  0  0  0
 79 82  1  0  0  0
 79161  1  0  0  0
 79162  1  0  0  0
 80 92  1  0  0  0
 80163  1  0  0  0
 80164  1  0  0  0
 81 92  1  0  0  0
 81165  1  0  0  0
 81166  1  0  0  0
 82 88  1  0  0  0
 82167  1  0  0  0
 83 93  1  0  0  0
 83168  1  0  0  0
 83169  1  0  0  0
 83170  1  0  0  0
 84 91  1  0  0  0
 84171  1  0  0  0
 84172  1  0  0  0
 85 87  1  0  0  0
 85173  1  0  0  0
 85174  1  0  0  0
 85 92  1  0  0  0
 86 93  1  0  0  0
 86175  1  0  0  0
 86176  1  0  0  0
 86 88  1  0  0  0
 87177  1  0  0  0
 87178  1  0  0  0
 88 90  1  0  0  0
 88179  1  0  0  0
 91180  1  0  0  0
 92181  1  0  0  0
 93182  1  0  0  0
 93183  1  0  0  0
M  CHG  2  92   1  93   1
M  ISO  4   1 100  68 101  87 101  91 100
M  END
> <chiral flag>
0

> <version>
0

> <s_m_source_file>
/data/baiqing/PycharmProjects/Reinvent-master-3.2/result/LINK_invent/BTK/process_docking_weight1_custom_sum_contain_oxygen_bond_distance_aromatic_linkinvent_7_9_3/rearranged_h_0195.sdf

> <i_m_source_file_index>
59

> <r_mmod_Potential_Energy-OPLS-2005>
-433.702056884766

> <r_mmod_Stretch_Energy-OPLS-2005>
38.056755065918

> <r_mmod_Bend_Energy-OPLS-2005>
187.296981811523

> <r_mmod_Torsional_Energy-OPLS-2005>
304.304077148438

> <r_mmod_Improper_Torsional_Energy-OPLS-2005>
6.79893207550049

> <r_mmod_Van_der_Waal_Energy-OPLS-2005>
158.780136108398

> <r_mmod_Electrostatic_Energy-OPLS-2005>
-199.567276000977

> <r_mmod_Solvation_Energy-OPLS-2005>
-937.739440917969

> <b_mmod_Minimization_Converged-OPLS-2005>
0

> <r_mmod_RMS_Derivative-OPLS-2005>
2.852534532547

$$$$
60
                    3D
 Structure written by MMmdl.
186197  0  0  1  0            999 V2000
  -30.6650  -14.5865   20.4956 C   0  0  0  0  0  0
  -30.4280  -12.3608   19.4397 C   0  0  0  0  0  0
  -29.5009  -12.5023   18.2130 C   0  0  0  0  0  0
  -28.0228  -12.3507   18.6262 C   0  0  0  0  0  0
  -27.6521  -13.2159   19.8614 C   0  0  2  0  0  0
  -28.6997  -13.0745   20.9890 C   0  0  0  0  0  0
  -25.2566  -13.8170   20.5690 C   0  0  0  0  0  0
  -24.1829  -13.0445   20.9184 C   0  0  0  0  0  0
  -24.6391  -11.6911   20.8731 C   0  0  0  0  0  0
  -23.9055  -10.4296   21.0394 C   0  0  0  0  0  0
  -24.3610   -9.4214   21.9178 C   0  0  0  0  0  0
  -23.6296   -8.2243   22.0749 C   0  0  0  0  0  0
  -22.4280   -8.0275   21.3546 C   0  0  0  0  0  0
  -21.9909   -9.0241   20.4640 C   0  0  0  0  0  0
  -22.7229  -10.2121   20.3049 C   0  0  0  0  0  0
  -21.6854   -6.0730   22.5274 C   0  0  0  0  0  0
  -21.4003   -6.5633   23.8206 C   0  0  0  0  0  0
  -21.3663   -5.6790   24.9169 C   0  0  0  0  0  0
  -21.6050   -4.3054   24.7222 C   0  0  0  0  0  0
  -21.8816   -3.8140   23.4342 C   0  0  0  0  0  0
  -21.9189   -4.6955   22.3399 C   0  0  0  0  0  0
  -22.7856  -13.5248   21.1833 C   0  0  0  0  0  0
  -22.1663   -4.2138   21.0980 F   0  0  0  0  0  0
  -21.5642   -3.4543   25.7739 F   0  0  0  0  0  0
  -30.0165  -13.3864   20.4156 N   0  0  0  0  0  0
  -26.2986  -12.9348   20.3316 N   0  0  0  0  0  0
  -25.9315  -11.6504   20.5737 N   0  0  0  0  0  0
  -22.0475  -12.8251   22.0380 N   0  0  0  0  0  0
  -25.4316  -15.1888   20.4129 N   0  0  0  0  0  0
  -31.8380  -14.7163   20.1342 O   0  0  0  0  0  0
  -21.6644   -6.8876   21.4241 O   0  0  0  0  0  0
  -22.3554  -14.5546   20.6666 O   0  0  0  0  0  0
  -24.6202  -31.8620   23.2057 C   0  0  0  0  0  0
  -25.9067  -32.4804   23.8383 C   0  0  1  0  0  0
  -27.2342  -27.3787   20.1117 C   0  0  0  0  0  0
  -25.5905  -33.8604   24.2311 N   0  0  0  0  0  0
  -23.4143  -30.4838   21.5454 C   0  0  2  0  0  0
  -24.8660  -28.9449   20.1118 C   0  0  0  0  0  0
  -22.7451  -29.4624   22.4947 C   0  0  0  0  0  0
  -18.0278  -28.1380   22.8488 C   0  0  0  0  0  0
  -24.1485  -36.7304   23.2637 C   0  0  0  0  0  0
  -25.9497  -30.8122   21.3681 C   0  0  0  0  0  0
  -26.0301  -29.4427   20.7131 C   0  0  0  0  0  0
  -27.2223  -28.6684   20.7087 C   0  0  0  0  0  0
  -26.0565  -26.9140   19.4920 C   0  0  0  0  0  0
  -24.8771  -27.6820   19.4946 C   0  0  0  0  0  0
  -23.6286  -29.8155   20.1610 C   0  0  0  0  0  0
  -25.4104  -36.3102   24.0337 C   0  0  1  0  0  0
  -20.5874  -28.3672   23.1299 C   0  0  2  0  0  0
  -20.6760  -26.9400   22.5413 C   0  0  0  0  0  0
  -19.5746  -26.6378   21.5206 C   0  0  0  0  0  0
  -18.1922  -26.7927   22.1610 C   0  0  0  0  0  0
  -19.1527  -28.8843   23.2888 C   0  0  0  0  0  0
  -18.9452  -30.1443   23.8901 C   0  0  0  0  0  0
  -17.6456  -30.6587   24.0552 C   0  0  0  0  0  0
  -25.9036  -34.9471   23.5118 C   0  0  0  0  0  0
  -16.5345  -29.9083   23.6325 C   0  0  0  0  0  0
  -16.7266  -28.6494   23.0356 C   0  0  0  0  0  0
  -26.4471  -31.6602   25.0734 C   0  0  0  0  0  0
  -25.3726  -31.3732   26.1483 C   0  0  0  0  0  0
  -27.0293  -30.3030   24.6149 C   0  0  0  0  0  0
  -27.6050  -32.4317   25.7498 C   0  0  0  0  0  0
  -27.5587  -37.1798   24.8455 C   0  0  0  0  0  0
  -21.4167  -29.3033   22.3705 N   0  0  0  0  0  0
  -26.4284  -37.3796   23.9422 N   0  0  0  0  0  0
  -24.6798  -31.0687   22.0980 N   0  0  0  0  0  0
  -23.4202  -28.8155   23.3004 O   0  0  0  0  0  0
  -28.3256  -26.5222   20.1524 O   0  0  0  0  0  0
  -26.5595  -34.8925   22.4680 O   0  0  0  0  0  0
  -23.5371  -32.1398   23.7410 O   0  0  0  0  0  0
  -28.5576  -23.1252   22.0336 C   0  0  0  0  0  0
  -29.7386  -21.4203   20.7400 C   0  0  0  0  0  0
  -29.0734  -21.8086   21.9248 C   0  0  0  0  0  0
  -29.7838  -22.4003   19.6944 C   0  0  0  0  0  0
  -28.7111  -24.0557   20.9842 C   0  0  0  0  0  0
  -29.8064  -23.4817   12.8632 C   0  0  0  0  0  0
  -29.4817  -22.0483   12.5210 C   0  0  0  0  0  0
  -31.8726  -22.8152   18.2516 C   0  0  0  0  0  0
  -29.5950  -16.4288   21.8212 C   0  0  0  0  0  0
  -29.6079  -16.5419   19.3848 C   0  0  0  0  0  0
  -32.1460  -22.7015   16.7504 C   0  0  0  0  0  0
  -30.2059  -17.8696   21.8700 C   0  0  0  0  0  0
  -30.2324  -17.9691   19.4436 C   0  0  0  0  0  0
  -29.7736  -22.6074   17.1004 C   0  0  0  0  0  0
  -30.5082  -22.1506   18.3715 C   0  0  2  0  0  0
  -29.5613  -22.4784   13.9678 C   0  0  0  0  0  0
  -28.3484  -21.2394   24.1448 C   0  0  0  0  0  0
  -30.5744  -20.0903   20.7464 C   0  0  0  0  0  0
  -28.1987  -25.5136   21.1994 C   0  0  0  0  0  0
  -30.7014  -21.9994   14.8501 C   0  0  0  0  0  0
  -29.3040  -23.6745   19.8284 N   0  0  0  0  0  0
  -29.8639  -15.6959   20.5711 N   0  0  0  0  0  0
  -29.8990  -18.7310   20.6827 N   0  3  0  0  0  0
  -30.8294  -22.8191   16.0767 N   0  3  2  0  0  0
  -29.0031  -20.8745   22.9365 O   0  0  0  0  0  0
  -31.4718  -12.4657   19.1382 H   0  0  0  0  0  0
  -30.3409  -11.3640   19.8755 H   0  0  0  0  0  0
  -29.7571  -11.7566   17.4583 H   0  0  0  0  0  0
  -29.6521  -13.4750   17.7429 H   0  0  0  0  0  0
  -27.8475  -11.2978   18.8475 H   0  0  0  0  0  0
  -27.3695  -12.5932   17.7867 H   0  0  0  0  0  0
  -27.6681  -14.2509   19.5243 H   0  0  0  0  0  0
  -28.6984  -12.0609   21.3920 H   0  0  0  0  0  0
  -28.4613  -13.7348   21.8238 H   0  0  0  0  0  0
  -25.2746   -9.5704   22.4754 H   0  0  0  0  0  0
  -24.0007   -7.4643   22.7471 H   0  0  0  0  0  0
  -21.0837   -8.8747   19.8961 H   0  0  0  0  0  0
  -22.3675  -10.9652   19.6156 H   0  0  0  0  0  0
  -21.1983   -7.6141   23.9707 H   0  0  0  0  0  0
  -21.1503   -6.0520   25.9078 H   0  0  0  0  0  0
  -22.0598   -2.7603   23.2835 H   0  0  0  0  0  0
  -22.4078  -11.9915   22.4780 H   0  0  0  0  0  0
  -21.1085  -13.1279   22.2542 H   0  0  0  0  0  0
  -24.6684  -15.8484   20.5202 H   0  0  0  0  0  0
  -26.2917  -15.6214   20.1022 H   0  0  0  0  0  0
  -26.7145  -32.5498   23.1147 H   0  0  0  0  0  0
  -25.0074  -33.9764   25.0468 H   0  0  0  0  0  0
  -22.7054  -31.3019   21.4021 H   0  0  0  0  0  0
  -23.3765  -35.9616   23.3271 H   0  0  0  0  0  0
  -24.3597  -36.8944   22.2059 H   0  0  0  0  0  0
  -23.7209  -37.6489   23.6666 H   0  0  0  0  0  0
  -26.0712  -31.5772   20.5997 H   0  0  0  0  0  0
  -26.8337  -30.8635   21.9930 H   0  0  0  0  0  0
  -28.1181  -29.0434   21.1851 H   0  0  0  0  0  0
  -26.0473  -25.9369   19.0283 H   0  0  0  0  0  0
  -23.9826  -27.2931   19.0279 H   0  0  0  0  0  0
  -23.7412  -30.5898   19.4013 H   0  0  0  0  0  0
  -22.7531  -29.2357   19.8627 H   0  0  0  0  0  0
  -25.1277  -36.1957   25.0830 H   0  0  0  0  0  0
  -20.9962  -28.3230   24.1422 H   0  0  0  0  0  0
  -20.5644  -26.2275   23.3601 H   0  0  0  0  0  0
  -21.6630  -26.7422   22.1216 H   0  0  0  0  0  0
  -19.6899  -25.6288   21.1238 H   0  0  0  0  0  0
  -19.6698  -27.3178   20.6729 H   0  0  0  0  0  0
  -17.4196  -26.6679   21.4007 H   0  0  0  0  0  0
  -18.0318  -26.0065   22.9000 H   0  0  0  0  0  0
  -19.7931  -30.7247   24.2279 H   0  0  0  0  0  0
  -17.5018  -31.6273   24.5137 H   0  0  0  0  0  0
  -15.5348  -30.2983   23.7660 H   0  0  0  0  0  0
  -15.8662  -28.0814   22.7080 H   0  0  0  0  0  0
  -24.5893  -30.7083   25.7828 H   0  0  0  0  0  0
  -24.8921  -32.2893   26.4929 H   0  0  0  0  0  0
  -25.8070  -30.8908   27.0248 H   0  0  0  0  0  0
  -26.2841  -29.6818   24.1163 H   0  0  0  0  0  0
  -27.3993  -29.7254   25.4631 H   0  0  0  0  0  0
  -27.8715  -30.4337   23.9349 H   0  0  0  0  0  0
  -27.2682  -33.3620   26.2086 H   0  0  0  0  0  0
  -28.3856  -32.6871   25.0320 H   0  0  0  0  0  0
  -28.0720  -31.8431   26.5406 H   0  0  0  0  0  0
  -28.2572  -38.0129   24.7557 H   0  0  0  0  0  0
  -28.1114  -36.2666   24.6199 H   0  0  0  0  0  0
  -27.2325  -37.1342   25.8860 H   0  0  0  0  0  0
  -20.9327  -29.8786   21.6950 H   0  0  0  0  0  0
  -26.0170  -38.2866   24.1458 H   0  0  0  0  0  0
  -28.0703  -23.4672   22.9342 H   0  0  0  0  0  0
  -29.0367  -24.2321   12.6912 H   0  0  0  0  0  0
  -30.8280  -23.8188   12.6934 H   0  0  0  0  0  0
  -30.2852  -21.4253   12.1303 H   0  0  0  0  0  0
  -28.4945  -21.8413   12.1125 H   0  0  0  0  0  0
  -31.8104  -23.8650   18.5443 H   0  0  0  0  0  0
  -32.6368  -22.3385   18.8666 H   0  0  0  0  0  0
  -28.5132  -16.4912   21.9473 H   0  0  0  0  0  0
  -29.9599  -15.8582   22.6766 H   0  0  0  0  0  0
  -29.9589  -16.0407   18.4803 H   0  0  0  0  0  0
  -28.5279  -16.6308   19.2662 H   0  0  0  0  0  0
  -32.5883  -21.7250   16.5426 H   0  0  0  0  0  0
  -32.8474  -23.4581   16.3979 H   0  0  0  0  0  0
  -31.2895  -17.7833   21.9693 H   0  0  0  0  0  0
  -29.8614  -18.3689   22.7762 H   0  0  0  0  0  0
  -29.9182  -18.5437   18.5706 H   0  0  0  0  0  0
  -31.3169  -17.8714   19.3678 H   0  0  0  0  0  0
  -29.2748  -23.5662   17.2444 H   0  0  0  0  0  0
  -29.0091  -21.8894   16.8016 H   0  0  0  0  0  0
  -30.6401  -21.0780   18.2396 H   0  0  0  0  0  0
  -28.6000  -22.5436   14.4754 H   0  0  0  0  0  0
  -28.3397  -20.3876   24.8245 H   0  0  0  0  0  0
  -27.3118  -21.5291   23.9673 H   0  0  0  0  0  0
  -28.8681  -22.0562   24.6471 H   0  0  0  0  0  0
  -31.1431  -20.1339   21.6766 H   0  0  0  0  0  0
  -31.3734  -20.1400   20.0087 H   0  0  0  0  0  0
  -28.7262  -25.9062   22.0691 H   0  0  0  0  0  0
  -27.1601  -25.4213   21.5228 H   0  0  0  0  0  0
  -31.6302  -22.0523   14.2795 H   0  0  0  0  0  0
  -30.5507  -20.9494   15.1077 H   0  0  0  0  0  0
  -28.9030  -18.8915   20.6834 H   0  0  0  0  0  0
  -30.7483  -23.7820   15.7837 H   0  0  0  0  0  0
  1 25  1  0  0  0
  1 30  2  0  0  0
  1 92  1  0  0  0
  2  3  1  0  0  0
  2 25  1  0  0  0
  2 96  1  0  0  0
  2 97  1  0  0  0
  3  4  1  0  0  0
  3 98  1  0  0  0
  3 99  1  0  0  0
  4  5  1  0  0  0
  4100  1  0  0  0
  4101  1  0  0  0
  5  6  1  0  0  0
  5 26  1  0  0  0
  5102  1  0  0  0
  6 25  1  0  0  0
  6103  1  0  0  0
  6104  1  0  0  0
  7  8  2  0  0  0
  7 26  1  0  0  0
  7 29  1  0  0  0
  8  9  1  0  0  0
  8 22  1  0  0  0
  9 10  1  0  0  0
  9 27  2  0  0  0
 10 11  2  0  0  0
 10 15  1  0  0  0
 11 12  1  0  0  0
 11105  1  0  0  0
 12 13  2  0  0  0
 12106  1  0  0  0
 13 14  1  0  0  0
 13 31  1  0  0  0
 14 15  2  0  0  0
 14107  1  0  0  0
 15108  1  0  0  0
 16 17  2  0  0  0
 16 21  1  0  0  0
 16 31  1  0  0  0
 17 18  1  0  0  0
 17109  1  0  0  0
 18 19  2  0  0  0
 18110  1  0  0  0
 19 20  1  0  0  0
 19 24  1  0  0  0
 20 21  2  0  0  0
 20111  1  0  0  0
 21 23  1  0  0  0
 22 28  1  0  0  0
 22 32  2  0  0  0
 26 27  1  0  0  0
 28112  1  0  0  0
 28113  1  0  0  0
 29114  1  0  0  0
 29115  1  0  0  0
 33 34  1  0  0  0
 33 66  1  0  0  0
 33 70  2  0  0  0
 34 36  1  0  0  0
 34 59  1  0  0  0
 34116  1  0  0  0
 35 44  2  0  0  0
 35 45  1  0  0  0
 35 68  1  0  0  0
 36 56  1  0  0  0
 36117  1  0  0  0
 37 39  1  0  0  0
 37 47  1  0  0  0
 37 66  1  0  0  0
 37118  1  0  0  0
 38 43  2  0  0  0
 38 46  1  0  0  0
 38 47  1  0  0  0
 39 64  1  0  0  0
 39 67  2  0  0  0
 40 52  1  0  0  0
 40 53  2  0  0  0
 40 58  1  0  0  0
 41119  1  0  0  0
 41120  1  0  0  0
 41121  1  0  0  0
 41 48  1  0  0  0
 42 43  1  0  0  0
 42 66  1  0  0  0
 42122  1  0  0  0
 42123  1  0  0  0
 43 44  1  0  0  0
 44124  1  0  0  0
 45 46  2  0  0  0
 45125  1  0  0  0
 46126  1  0  0  0
 47127  1  0  0  0
 47128  1  0  0  0
 48 56  1  0  0  0
 48 65  1  0  0  0
 48129  1  0  0  0
 49 50  1  0  0  0
 49 53  1  0  0  0
 49 64  1  0  0  0
 49130  1  0  0  0
 50 51  1  0  0  0
 50131  1  0  0  0
 50132  1  0  0  0
 51 52  1  0  0  0
 51133  1  0  0  0
 51134  1  0  0  0
 52135  1  0  0  0
 52136  1  0  0  0
 53 54  1  0  0  0
 54 55  2  0  0  0
 54137  1  0  0  0
 55 57  1  0  0  0
 55138  1  0  0  0
 56 69  2  0  0  0
 57 58  2  0  0  0
 57139  1  0  0  0
 58140  1  0  0  0
 59 60  1  0  0  0
 59 61  1  0  0  0
 59 62  1  0  0  0
 60141  1  0  0  0
 60142  1  0  0  0
 60143  1  0  0  0
 61144  1  0  0  0
 61145  1  0  0  0
 61146  1  0  0  0
 62147  1  0  0  0
 62148  1  0  0  0
 62149  1  0  0  0
 63 65  1  0  0  0
 63150  1  0  0  0
 63151  1  0  0  0
 63152  1  0  0  0
 64153  1  0  0  0
 65154  1  0  0  0
 68 89  1  0  0  0
 71 73  2  0  0  0
 71 75  1  0  0  0
 71155  1  0  0  0
 72 73  1  0  0  0
 72 74  2  0  0  0
 72 88  1  0  0  0
 73 95  1  0  0  0
 74 91  1  0  0  0
 74 85  1  0  0  0
 75 89  1  0  0  0
 75 91  2  0  0  0
 76 77  1  0  0  0
 76 86  1  0  0  0
 76156  1  0  0  0
 76157  1  0  0  0
 77 86  1  0  0  0
 77158  1  0  0  0
 77159  1  0  0  0
 78 81  1  0  0  0
 78 85  1  0  0  0
 78160  1  0  0  0
 78161  1  0  0  0
 79 82  1  0  0  0
 79 92  1  0  0  0
 79162  1  0  0  0
 79163  1  0  0  0
 80 83  1  0  0  0
 80 92  1  0  0  0
 80164  1  0  0  0
 80165  1  0  0  0
 81 94  1  0  0  0
 81166  1  0  0  0
 81167  1  0  0  0
 82 93  1  0  0  0
 82168  1  0  0  0
 82169  1  0  0  0
 83 93  1  0  0  0
 83170  1  0  0  0
 83171  1  0  0  0
 84 85  1  0  0  0
 84 94  1  0  0  0
 84172  1  0  0  0
 84173  1  0  0  0
 85174  1  0  0  0
 86 90  1  0  0  0
 86175  1  0  0  0
 87 95  1  0  0  0
 87176  1  0  0  0
 87177  1  0  0  0
 87178  1  0  0  0
 88179  1  0  0  0
 88180  1  0  0  0
 88 93  1  0  0  0
 89181  1  0  0  0
 89182  1  0  0  0
 90183  1  0  0  0
 90184  1  0  0  0
 90 94  1  0  0  0
 93185  1  0  0  0
 94186  1  0  0  0
M  CHG  2  93   1  94   1
M  ISO  4   1 100  68 101  89 101  92 100
M  END
> <chiral flag>
0

> <version>
0

> <s_m_source_file>
/data/baiqing/PycharmProjects/Reinvent-master-3.2/result/LINK_invent/BTK/process_docking_weight1_custom_sum_contain_oxygen_bond_distance_aromatic_linkinvent_7_9_3/rearranged_h_0195.sdf

> <i_m_source_file_index>
60

> <r_mmod_Potential_Energy-OPLS-2005>
-15.0820455551147

> <r_mmod_Stretch_Energy-OPLS-2005>
64.6561737060547

> <r_mmod_Bend_Energy-OPLS-2005>
168.80354309082

> <r_mmod_Torsional_Energy-OPLS-2005>
521.281372070312

> <r_mmod_Improper_Torsional_Energy-OPLS-2005>
15.1645946502686

> <r_mmod_Van_der_Waal_Energy-OPLS-2005>
144.495620727539

> <r_mmod_Electrostatic_Energy-OPLS-2005>
-107.46085357666

> <r_mmod_Solvation_Energy-OPLS-2005>
-856.352111816406

> <b_mmod_Minimization_Converged-OPLS-2005>
0

> <r_mmod_RMS_Derivative-OPLS-2005>
1.91320109367371

$$$$
61
                    3D
 Structure written by MMmdl.
170179  0  0  1  0            999 V2000
  -30.7864  -14.3208   20.7081 C   0  0  0  0  0  0
  -30.4126  -12.2762   19.3830 C   0  0  0  0  0  0
  -29.4783  -12.5266   18.1864 C   0  0  0  0  0  0
  -28.0047  -12.3804   18.6067 C   0  0  0  0  0  0
  -27.6672  -13.1997   19.8791 C   0  0  2  0  0  0
  -28.7032  -12.9308   20.9921 C   0  0  0  0  0  0
  -25.2613  -13.8155   20.5668 C   0  0  0  0  0  0
  -24.1850  -13.0441   20.9160 C   0  0  0  0  0  0
  -24.6392  -11.6905   20.8719 C   0  0  0  0  0  0
  -23.9050  -10.4295   21.0402 C   0  0  0  0  0  0
  -24.3606   -9.4212   21.9181 C   0  0  0  0  0  0
  -23.6288   -8.2247   22.0750 C   0  0  0  0  0  0
  -22.4270   -8.0281   21.3545 C   0  0  0  0  0  0
  -21.9902   -9.0254   20.4645 C   0  0  0  0  0  0
  -22.7223  -10.2136   20.3054 C   0  0  0  0  0  0
  -21.6852   -6.0734   22.5276 C   0  0  0  0  0  0
  -21.4014   -6.5638   23.8210 C   0  0  0  0  0  0
  -21.3658   -5.6793   24.9174 C   0  0  0  0  0  0
  -21.6043   -4.3055   24.7225 C   0  0  0  0  0  0
  -21.8821   -3.8147   23.4346 C   0  0  0  0  0  0
  -21.9194   -4.6962   22.3402 C   0  0  0  0  0  0
  -22.7876  -13.5251   21.1831 C   0  0  0  0  0  0
  -22.1662   -4.2148   21.0980 F   0  0  0  0  0  0
  -21.5629   -3.4537   25.7739 F   0  0  0  0  0  0
  -30.0519  -13.2085   20.4598 N   0  0  0  0  0  0
  -26.3050  -12.9317   20.3376 N   0  0  0  0  0  0
  -25.9315  -11.6476   20.5744 N   0  0  0  0  0  0
  -22.0515  -12.8244   22.0390 N   0  0  0  0  0  0
  -25.4368  -15.1869   20.4080 N   0  0  0  0  0  0
  -31.7733  -14.6480   20.0426 O   0  0  0  0  0  0
  -21.6638   -6.8878   21.4240 O   0  0  0  0  0  0
  -22.3562  -14.5561   20.6684 O   0  0  0  0  0  0
  -24.6072  -31.8730   23.2133 C   0  0  0  0  0  0
  -25.8992  -32.4851   23.8417 C   0  0  1  0  0  0
  -27.2595  -27.4989   20.0864 C   0  0  0  0  0  0
  -25.5877  -33.8649   24.2353 N   0  0  0  0  0  0
  -23.3925  -30.4927   21.5512 C   0  0  2  0  0  0
  -24.8429  -28.9591   20.1218 C   0  0  0  0  0  0
  -22.7370  -29.4674   22.5025 C   0  0  0  0  0  0
  -18.0264  -28.1366   22.8497 C   0  0  0  0  0  0
  -24.1483  -36.7323   23.2633 C   0  0  0  0  0  0
  -25.9111  -30.8580   21.3549 C   0  0  0  0  0  0
  -25.9945  -29.4929   20.7115 C   0  0  0  0  0  0
  -27.2013  -28.7708   20.6986 C   0  0  0  0  0  0
  -26.0869  -26.9551   19.5227 C   0  0  0  0  0  0
  -24.8787  -27.6824   19.5306 C   0  0  0  0  0  0
  -23.5995  -29.8173   20.1675 C   0  0  0  0  0  0
  -25.4096  -36.3128   24.0344 C   0  0  1  0  0  0
  -20.5847  -28.3639   23.1344 C   0  0  2  0  0  0
  -20.6756  -26.9384   22.5422 C   0  0  0  0  0  0
  -19.5736  -26.6382   21.5212 C   0  0  0  0  0  0
  -18.1914  -26.7921   22.1618 C   0  0  0  0  0  0
  -19.1511  -28.8817   23.2924 C   0  0  0  0  0  0
  -18.9445  -30.1433   23.8914 C   0  0  0  0  0  0
  -17.6452  -30.6577   24.0563 C   0  0  0  0  0  0
  -25.9021  -34.9495   23.5147 C   0  0  0  0  0  0
  -16.5342  -29.9078   23.6322 C   0  0  0  0  0  0
  -16.7257  -28.6498   23.0336 C   0  0  0  0  0  0
  -26.4449  -31.6614   25.0719 C   0  0  0  0  0  0
  -25.3737  -31.3714   26.1491 C   0  0  0  0  0  0
  -27.0261  -30.3063   24.6045 C   0  0  0  0  0  0
  -27.6056  -32.4311   25.7456 C   0  0  0  0  0  0
  -27.5586  -37.1800   24.8455 C   0  0  0  0  0  0
  -21.4108  -29.3020   22.3758 N   0  0  0  0  0  0
  -26.4282  -37.3810   23.9425 N   0  0  0  0  0  0
  -24.6547  -31.0882   22.0999 N   0  0  0  0  0  0
  -23.4169  -28.8237   23.3063 O   0  0  0  0  0  0
  -28.4184  -26.7633   20.0054 O   0  0  0  0  0  0
  -26.5578  -34.8940   22.4705 O   0  0  0  0  0  0
  -23.5284  -32.1461   23.7563 O   0  0  0  0  0  0
  -29.2581  -17.6656   20.9948 C   0  0  0  0  0  0
  -28.9849  -18.7310   20.1256 C   0  0  0  0  0  0
  -30.0266  -19.4614   19.5729 C   0  0  0  0  0  0
  -30.6156  -17.3918   21.2690 C   0  0  0  0  0  0
  -31.3582  -19.0849   19.8443 C   0  0  0  0  0  0
  -27.6417  -19.2409   19.6828 C   0  0  0  0  0  0
  -27.9949  -20.3019   18.6101 C   0  0  0  0  0  0
  -29.5139  -20.6099   18.7307 C   0  0  1  0  0  0
  -32.5507  -19.7973   19.2346 C   0  0  0  0  0  0
  -30.9958  -16.2646   22.2107 C   0  0  0  0  0  0
  -30.1694  -24.2987   19.4637 C   0  0  0  0  0  0
  -30.8114  -26.5859   19.5158 C   0  0  0  0  0  0
  -29.7066  -23.1006   18.6208 C   0  0  0  0  0  0
  -29.6247  -27.5111   19.8346 C   0  0  0  0  0  0
  -31.6386  -18.0720   20.6956 N   0  0  0  0  0  0
  -30.4089  -15.0038   21.7890 N   0  0  0  0  0  0
  -30.4048  -25.4830   18.6469 N   0  0  0  0  0  0
  -29.7545  -21.8803   19.4444 N   0  3  0  0  0  0
  -31.4557  -12.3758   19.0761 H   0  0  0  0  0  0
  -30.3074  -11.2497   19.7383 H   0  0  0  0  0  0
  -29.7061  -11.8300   17.3785 H   0  0  0  0  0  0
  -29.6500  -13.5272   17.7866 H   0  0  0  0  0  0
  -27.8126  -11.3218   18.7854 H   0  0  0  0  0  0
  -27.3483  -12.6730   17.7862 H   0  0  0  0  0  0
  -27.7307  -14.2546   19.6115 H   0  0  0  0  0  0
  -28.6552  -11.8873   21.3069 H   0  0  0  0  0  0
  -28.4479  -13.5088   21.8798 H   0  0  0  0  0  0
  -25.2754   -9.5689   22.4751 H   0  0  0  0  0  0
  -23.9998   -7.4642   22.7471 H   0  0  0  0  0  0
  -21.0836   -8.8772   19.8955 H   0  0  0  0  0  0
  -22.3682  -10.9673   19.6162 H   0  0  0  0  0  0
  -21.2005   -7.6145   23.9714 H   0  0  0  0  0  0
  -21.1478   -6.0522   25.9078 H   0  0  0  0  0  0
  -22.0601   -2.7608   23.2848 H   0  0  0  0  0  0
  -22.4121  -11.9896   22.4772 H   0  0  0  0  0  0
  -21.1138  -13.1277   22.2600 H   0  0  0  0  0  0
  -24.6764  -15.8481   20.5191 H   0  0  0  0  0  0
  -26.2997  -15.6202   20.1037 H   0  0  0  0  0  0
  -26.7072  -32.5598   23.1203 H   0  0  0  0  0  0
  -25.0042  -33.9829   25.0505 H   0  0  0  0  0  0
  -22.6766  -31.3049   21.4109 H   0  0  0  0  0  0
  -23.3750  -35.9651   23.3286 H   0  0  0  0  0  0
  -24.3583  -36.8944   22.2047 H   0  0  0  0  0  0
  -23.7231  -37.6523   23.6652 H   0  0  0  0  0  0
  -26.0062  -31.6214   20.5813 H   0  0  0  0  0  0
  -26.8043  -30.9235   21.9639 H   0  0  0  0  0  0
  -28.0731  -29.2076   21.1621 H   0  0  0  0  0  0
  -26.1180  -25.9795   19.0590 H   0  0  0  0  0  0
  -23.9902  -27.2586   19.0820 H   0  0  0  0  0  0
  -23.7010  -30.5875   19.4016 H   0  0  0  0  0  0
  -22.7278  -29.2274   19.8785 H   0  0  0  0  0  0
  -25.1267  -36.1992   25.0835 H   0  0  0  0  0  0
  -20.9933  -28.3205   24.1469 H   0  0  0  0  0  0
  -20.5663  -26.2247   23.3600 H   0  0  0  0  0  0
  -21.6631  -26.7442   22.1214 H   0  0  0  0  0  0
  -19.6892  -25.6298   21.1227 H   0  0  0  0  0  0
  -19.6680  -27.3208   20.6758 H   0  0  0  0  0  0
  -17.4187  -26.6681   21.4013 H   0  0  0  0  0  0
  -18.0304  -26.0057   22.9003 H   0  0  0  0  0  0
  -19.7921  -30.7247   24.2294 H   0  0  0  0  0  0
  -17.5004  -31.6262   24.5156 H   0  0  0  0  0  0
  -15.5341  -30.2983   23.7640 H   0  0  0  0  0  0
  -15.8661  -28.0836   22.7022 H   0  0  0  0  0  0
  -24.5873  -30.7102   25.7832 H   0  0  0  0  0  0
  -24.8970  -32.2877   26.4985 H   0  0  0  0  0  0
  -25.8105  -30.8837   27.0217 H   0  0  0  0  0  0
  -26.2776  -29.6828   24.1142 H   0  0  0  0  0  0
  -27.4096  -29.7296   25.4474 H   0  0  0  0  0  0
  -27.8586  -30.4390   23.9130 H   0  0  0  0  0  0
  -27.2711  -33.3622   26.2041 H   0  0  0  0  0  0
  -28.3849  -32.6848   25.0256 H   0  0  0  0  0  0
  -28.0735  -31.8421   26.5353 H   0  0  0  0  0  0
  -28.2581  -38.0123   24.7556 H   0  0  0  0  0  0
  -28.1113  -36.2663   24.6210 H   0  0  0  0  0  0
  -27.2325  -37.1363   25.8862 H   0  0  0  0  0  0
  -20.9260  -29.8730   21.6977 H   0  0  0  0  0  0
  -26.0177  -38.2885   24.1463 H   0  0  0  0  0  0
  -28.4630  -17.0895   21.4487 H   0  0  0  0  0  0
  -27.1258  -19.6893   20.5325 H   0  0  0  0  0  0
  -27.0200  -18.4397   19.2822 H   0  0  0  0  0  0
  -27.3514  -21.1814   18.6502 H   0  0  0  0  0  0
  -27.8279  -19.8493   17.6319 H   0  0  0  0  0  0
  -30.0017  -20.6085   17.7535 H   0  0  0  0  0  0
  -32.3446  -20.1046   18.2097 H   0  0  0  0  0  0
  -33.4252  -19.1460   19.2105 H   0  0  0  0  0  0
  -32.8071  -20.6818   19.8171 H   0  0  0  0  0  0
  -30.6371  -16.5061   23.2117 H   0  0  0  0  0  0
  -32.0812  -16.1689   22.2826 H   0  0  0  0  0  0
  -31.1022  -24.0448   19.9710 H   0  0  0  0  0  0
  -29.4333  -24.5057   20.2431 H   0  0  0  0  0  0
  -31.2669  -26.2225   20.4392 H   0  0  0  0  0  0
  -31.5825  -27.1736   19.0153 H   0  0  0  0  0  0
  -30.3668  -22.9749   17.7612 H   0  0  0  0  0  0
  -28.6982  -23.2594   18.2359 H   0  0  0  0  0  0
  -29.4952  -28.2230   19.0171 H   0  0  0  0  0  0
  -29.8690  -28.0840   20.7295 H   0  0  0  0  0  0
  -29.6159  -14.6620   22.3078 H   0  0  0  0  0  0
  -29.5273  -25.7622   18.2115 H   0  0  0  0  0  0
  -30.6773  -21.8448   19.8411 H   0  0  0  0  0  0
  -29.1054  -21.9658   20.2095 H   0  0  0  0  0  0
  1 25  1  0  0  0
  1 30  2  0  0  0
  1 86  1  0  0  0
  2  3  1  0  0  0
  2 25  1  0  0  0
  2 89  1  0  0  0
  2 90  1  0  0  0
  3  4  1  0  0  0
  3 91  1  0  0  0
  3 92  1  0  0  0
  4  5  1  0  0  0
  4 93  1  0  0  0
  4 94  1  0  0  0
  5  6  1  0  0  0
  5 26  1  0  0  0
  5 95  1  0  0  0
  6 25  1  0  0  0
  6 96  1  0  0  0
  6 97  1  0  0  0
  7  8  2  0  0  0
  7 26  1  0  0  0
  7 29  1  0  0  0
  8  9  1  0  0  0
  8 22  1  0  0  0
  9 10  1  0  0  0
  9 27  2  0  0  0
 10 11  2  0  0  0
 10 15  1  0  0  0
 11 12  1  0  0  0
 11 98  1  0  0  0
 12 13  2  0  0  0
 12 99  1  0  0  0
 13 14  1  0  0  0
 13 31  1  0  0  0
 14 15  2  0  0  0
 14100  1  0  0  0
 15101  1  0  0  0
 16 17  2  0  0  0
 16 21  1  0  0  0
 16 31  1  0  0  0
 17 18  1  0  0  0
 17102  1  0  0  0
 18 19  2  0  0  0
 18103  1  0  0  0
 19 20  1  0  0  0
 19 24  1  0  0  0
 20 21  2  0  0  0
 20104  1  0  0  0
 21 23  1  0  0  0
 22 28  1  0  0  0
 22 32  2  0  0  0
 26 27  1  0  0  0
 28105  1  0  0  0
 28106  1  0  0  0
 29107  1  0  0  0
 29108  1  0  0  0
 33 34  1  0  0  0
 33 66  1  0  0  0
 33 70  2  0  0  0
 34 36  1  0  0  0
 34 59  1  0  0  0
 34109  1  0  0  0
 35 44  2  0  0  0
 35 45  1  0  0  0
 35 68  1  0  0  0
 36 56  1  0  0  0
 36110  1  0  0  0
 37 39  1  0  0  0
 37 47  1  0  0  0
 37 66  1  0  0  0
 37111  1  0  0  0
 38 43  2  0  0  0
 38 46  1  0  0  0
 38 47  1  0  0  0
 39 64  1  0  0  0
 39 67  2  0  0  0
 40 52  1  0  0  0
 40 53  2  0  0  0
 40 58  1  0  0  0
 41112  1  0  0  0
 41113  1  0  0  0
 41114  1  0  0  0
 41 48  1  0  0  0
 42 43  1  0  0  0
 42 66  1  0  0  0
 42115  1  0  0  0
 42116  1  0  0  0
 43 44  1  0  0  0
 44117  1  0  0  0
 45 46  2  0  0  0
 45118  1  0  0  0
 46119  1  0  0  0
 47120  1  0  0  0
 47121  1  0  0  0
 48 56  1  0  0  0
 48 65  1  0  0  0
 48122  1  0  0  0
 49 50  1  0  0  0
 49 53  1  0  0  0
 49 64  1  0  0  0
 49123  1  0  0  0
 50 51  1  0  0  0
 50124  1  0  0  0
 50125  1  0  0  0
 51 52  1  0  0  0
 51126  1  0  0  0
 51127  1  0  0  0
 52128  1  0  0  0
 52129  1  0  0  0
 53 54  1  0  0  0
 54 55  2  0  0  0
 54130  1  0  0  0
 55 57  1  0  0  0
 55131  1  0  0  0
 56 69  2  0  0  0
 57 58  2  0  0  0
 57132  1  0  0  0
 58133  1  0  0  0
 59 60  1  0  0  0
 59 61  1  0  0  0
 59 62  1  0  0  0
 60134  1  0  0  0
 60135  1  0  0  0
 60136  1  0  0  0
 61137  1  0  0  0
 61138  1  0  0  0
 61139  1  0  0  0
 62140  1  0  0  0
 62141  1  0  0  0
 62142  1  0  0  0
 63 65  1  0  0  0
 63143  1  0  0  0
 63144  1  0  0  0
 63145  1  0  0  0
 64146  1  0  0  0
 65147  1  0  0  0
 68 84  1  0  0  0
 71 72  2  0  0  0
 71 74  1  0  0  0
 71148  1  0  0  0
 72 73  1  0  0  0
 72 76  1  0  0  0
 73 75  2  0  0  0
 73 78  1  0  0  0
 74 80  1  0  0  0
 74 85  2  0  0  0
 75 79  1  0  0  0
 75 85  1  0  0  0
 76 77  1  0  0  0
 76149  1  0  0  0
 76150  1  0  0  0
 77 78  1  0  0  0
 77151  1  0  0  0
 77152  1  0  0  0
 78 88  1  0  0  0
 78153  1  0  0  0
 79154  1  0  0  0
 79155  1  0  0  0
 79156  1  0  0  0
 80 86  1  0  0  0
 80157  1  0  0  0
 80158  1  0  0  0
 81 83  1  0  0  0
 81 87  1  0  0  0
 81159  1  0  0  0
 81160  1  0  0  0
 82 84  1  0  0  0
 82 87  1  0  0  0
 82161  1  0  0  0
 82162  1  0  0  0
 83 88  1  0  0  0
 83163  1  0  0  0
 83164  1  0  0  0
 84165  1  0  0  0
 84166  1  0  0  0
 86167  1  0  0  0
 87168  1  0  0  0
 88169  1  0  0  0
 88170  1  0  0  0
M  CHG  1  88   1
M  ISO  4   1 100  68 101  84 101  86 100
M  END
> <chiral flag>
0

> <version>
0

> <s_m_source_file>
/data/baiqing/PycharmProjects/Reinvent-master-3.2/result/LINK_invent/BTK/process_docking_weight1_custom_sum_contain_oxygen_bond_distance_aromatic_linkinvent_7_9_3/rearranged_h_0195.sdf

> <i_m_source_file_index>
61

> <r_mmod_Potential_Energy-OPLS-2005>
-437.023132324219

> <r_mmod_Stretch_Energy-OPLS-2005>
32.5846328735352

> <r_mmod_Bend_Energy-OPLS-2005>
131.289916992188

> <r_mmod_Torsional_Energy-OPLS-2005>
232.948181152344

> <r_mmod_Improper_Torsional_Energy-OPLS-2005>
2.13068580627441

> <r_mmod_Van_der_Waal_Energy-OPLS-2005>
154.515548706055

> <r_mmod_Electrostatic_Energy-OPLS-2005>
-520.838256835938

> <r_mmod_Solvation_Energy-OPLS-2005>
-475.666717529297

> <b_mmod_Minimization_Converged-OPLS-2005>
0

> <r_mmod_RMS_Derivative-OPLS-2005>
1.06702995300293

$$$$
62
                    3D
 Structure written by MMmdl.
157166  0  0  1  0            999 V2000
  -30.5846  -14.7993   20.4329 C   0  0  0  0  0  0
  -30.4392  -12.4810   19.4906 C   0  0  0  0  0  0
  -29.5184  -12.4994   18.2491 C   0  0  0  0  0  0
  -28.0475  -12.3106   18.6660 C   0  0  0  0  0  0
  -27.6426  -13.2300   19.8489 C   0  0  2  0  0  0
  -28.6843  -13.1947   20.9901 C   0  0  0  0  0  0
  -25.2526  -13.8188   20.5703 C   0  0  0  0  0  0
  -24.1814  -13.0436   20.9216 C   0  0  0  0  0  0
  -24.6399  -11.6915   20.8755 C   0  0  0  0  0  0
  -23.9073  -10.4293   21.0417 C   0  0  0  0  0  0
  -24.3618   -9.4209   21.9198 C   0  0  0  0  0  0
  -23.6292   -8.2245   22.0763 C   0  0  0  0  0  0
  -22.4280   -8.0283   21.3547 C   0  0  0  0  0  0
  -21.9916   -9.0259   20.4651 C   0  0  0  0  0  0
  -22.7243  -10.2138   20.3064 C   0  0  0  0  0  0
  -21.6855   -6.0742   22.5281 C   0  0  0  0  0  0
  -21.4012   -6.5646   23.8216 C   0  0  0  0  0  0
  -21.3656   -5.6798   24.9176 C   0  0  0  0  0  0
  -21.6044   -4.3058   24.7226 C   0  0  0  0  0  0
  -21.8814   -3.8150   23.4346 C   0  0  0  0  0  0
  -21.9192   -4.6972   22.3403 C   0  0  0  0  0  0
  -22.7834  -13.5228   21.1874 C   0  0  0  0  0  0
  -22.1662   -4.2156   21.0982 F   0  0  0  0  0  0
  -21.5627   -3.4540   25.7737 F   0  0  0  0  0  0
  -29.9834  -13.5554   20.4090 N   0  0  0  0  0  0
  -26.2947  -12.9390   20.3272 N   0  0  0  0  0  0
  -25.9330  -11.6536   20.5759 N   0  0  0  0  0  0
  -22.0478  -12.8225   22.0430 N   0  0  0  0  0  0
  -25.4204  -15.1918   20.4123 N   0  0  0  0  0  0
  -31.7629  -14.9014   20.0804 O   0  0  0  0  0  0
  -21.6644   -6.8882   21.4240 O   0  0  0  0  0  0
  -22.3530  -14.5544   20.6733 O   0  0  0  0  0  0
  -24.6373  -31.8502   23.1949 C   0  0  0  0  0  0
  -25.9189  -32.4725   23.8301 C   0  0  1  0  0  0
  -27.2213  -27.2197   20.1242 C   0  0  0  0  0  0
  -25.5974  -33.8534   24.2223 N   0  0  0  0  0  0
  -23.4356  -30.4732   21.5399 C   0  0  2  0  0  0
  -24.8817  -28.9139   20.1114 C   0  0  0  0  0  0
  -22.7540  -29.4575   22.4887 C   0  0  0  0  0  0
  -18.0291  -28.1417   22.8475 C   0  0  0  0  0  0
  -24.1492  -36.7249   23.2643 C   0  0  0  0  0  0
  -25.9871  -30.7461   21.3873 C   0  0  0  0  0  0
  -26.0544  -29.3680   20.7245 C   0  0  0  0  0  0
  -27.2224  -28.5326   20.7231 C   0  0  0  0  0  0
  -26.0150  -26.8387   19.4935 C   0  0  0  0  0  0
  -24.8681  -27.6573   19.4907 C   0  0  0  0  0  0
  -23.6565  -29.8075   20.1566 C   0  0  0  0  0  0
  -25.4120  -36.3046   24.0327 C   0  0  1  0  0  0
  -20.5900  -28.3724   23.1245 C   0  0  2  0  0  0
  -20.6793  -26.9439   22.5394 C   0  0  0  0  0  0
  -19.5757  -26.6374   21.5229 C   0  0  0  0  0  0
  -18.1925  -26.7951   22.1622 C   0  0  0  0  0  0
  -19.1549  -28.8890   23.2847 C   0  0  0  0  0  0
  -18.9486  -30.1489   23.8872 C   0  0  0  0  0  0
  -17.6485  -30.6614   24.0570 C   0  0  0  0  0  0
  -25.9073  -34.9425   23.5069 C   0  0  0  0  0  0
  -16.5371  -29.9110   23.6364 C   0  0  0  0  0  0
  -16.7274  -28.6534   23.0368 C   0  0  0  0  0  0
  -26.4532  -31.6595   25.0736 C   0  0  0  0  0  0
  -25.3715  -31.3794   26.1428 C   0  0  0  0  0  0
  -27.0428  -30.3003   24.6308 C   0  0  0  0  0  0
  -27.6044  -32.4388   25.7510 C   0  0  0  0  0  0
  -27.5572  -37.1773   24.8470 C   0  0  0  0  0  0
  -21.4242  -29.3061   22.3641 N   0  0  0  0  0  0
  -26.4279  -37.3761   23.9419 N   0  0  0  0  0  0
  -24.7051  -31.0429   22.0953 N   0  0  0  0  0  0
  -23.4222  -28.8104   23.2993 O   0  0  0  0  0  0
  -28.3155  -26.3115   20.2243 O   0  0  0  0  0  0
  -26.5634  -34.8918   22.4638 O   0  0  0  0  0  0
  -23.5508  -32.1342   23.7223 O   0  0  0  0  0  0
  -28.1977  -21.6996   21.4262 C   0  0  0  0  0  0
  -29.0284  -21.2614   20.4218 C   0  0  0  0  0  0
  -28.5899  -23.5333   20.1281 C   0  0  0  0  0  0
  -31.2389  -18.1410   20.5471 C   0  0  0  0  0  0
  -31.0000  -19.6426   20.1738 C   0  0  0  0  0  0
  -28.9227  -18.5613   20.5024 C   0  0  0  0  0  0
  -29.9646  -17.3908   20.1312 C   0  0  2  0  0  0
  -30.0227  -22.4702   18.3893 C   0  0  0  0  0  0
  -28.4219  -24.9930   19.4757 C   0  0  0  0  0  0
  -29.2501  -22.4180   19.6355 N   0  0  0  0  0  0
  -27.9678  -23.0577   21.2225 N   0  3  0  0  0  0
  -29.5557  -19.9002   20.2148 N   0  0  0  0  0  0
  -29.7932  -15.9335   20.6271 N   0  0  0  0  0  0
  -31.4798  -12.6090   19.1874 H   0  0  0  0  0  0
  -30.3931  -11.5120   19.9900 H   0  0  0  0  0  0
  -29.8125  -11.7139   17.5512 H   0  0  0  0  0  0
  -29.6321  -13.4431   17.7139 H   0  0  0  0  0  0
  -27.9251  -11.2661   18.9558 H   0  0  0  0  0  0
  -27.3847  -12.4659   17.8138 H   0  0  0  0  0  0
  -27.6280  -14.2432   19.4464 H   0  0  0  0  0  0
  -28.7311  -12.2067   21.4500 H   0  0  0  0  0  0
  -28.4087  -13.8894   21.7851 H   0  0  0  0  0  0
  -25.2758   -9.5698   22.4779 H   0  0  0  0  0  0
  -24.0006   -7.4641   22.7488 H   0  0  0  0  0  0
  -21.0848   -8.8775   19.8958 H   0  0  0  0  0  0
  -22.3700  -10.9681   19.6178 H   0  0  0  0  0  0
  -21.1998   -7.6151   23.9720 H   0  0  0  0  0  0
  -21.1482   -6.0528   25.9081 H   0  0  0  0  0  0
  -22.0594   -2.7611   23.2846 H   0  0  0  0  0  0
  -22.4079  -11.9869   22.4794 H   0  0  0  0  0  0
  -21.1106  -13.1269   22.2659 H   0  0  0  0  0  0
  -24.6441  -15.8367   20.5149 H   0  0  0  0  0  0
  -26.2570  -15.6343   20.0546 H   0  0  0  0  0  0
  -26.7255  -32.5347   23.1023 H   0  0  0  0  0  0
  -25.0195  -33.9673   25.0423 H   0  0  0  0  0  0
  -22.7341  -31.2968   21.3916 H   0  0  0  0  0  0
  -23.3779  -35.9556   23.3290 H   0  0  0  0  0  0
  -24.3571  -36.8888   22.2057 H   0  0  0  0  0  0
  -23.7227  -37.6437   23.6682 H   0  0  0  0  0  0
  -26.1505  -31.5083   20.6245 H   0  0  0  0  0  0
  -26.8560  -30.7793   22.0330 H   0  0  0  0  0  0
  -28.1161  -28.8770   21.2247 H   0  0  0  0  0  0
  -25.8923  -25.8731   19.0325 H   0  0  0  0  0  0
  -23.9642  -27.2931   19.0224 H   0  0  0  0  0  0
  -23.7940  -30.5868   19.4062 H   0  0  0  0  0  0
  -22.7736  -29.2479   19.8419 H   0  0  0  0  0  0
  -25.1309  -36.1864   25.0820 H   0  0  0  0  0  0
  -20.9966  -28.3307   24.1374 H   0  0  0  0  0  0
  -20.5734  -26.2343   23.3610 H   0  0  0  0  0  0
  -21.6652  -26.7477   22.1153 H   0  0  0  0  0  0
  -19.6925  -25.6273   21.1289 H   0  0  0  0  0  0
  -19.6703  -27.3159   20.6745 H   0  0  0  0  0  0
  -17.4202  -26.6717   21.4014 H   0  0  0  0  0  0
  -18.0295  -26.0098   22.9016 H   0  0  0  0  0  0
  -19.7971  -30.7314   24.2209 H   0  0  0  0  0  0
  -17.5056  -31.6297   24.5164 H   0  0  0  0  0  0
  -15.5378  -30.3022   23.7723 H   0  0  0  0  0  0
  -15.8660  -28.0862   22.7104 H   0  0  0  0  0  0
  -24.5857  -30.7200   25.7731 H   0  0  0  0  0  0
  -24.8957  -32.3010   26.4811 H   0  0  0  0  0  0
  -25.7965  -30.8964   27.0237 H   0  0  0  0  0  0
  -26.3065  -29.6697   24.1316 H   0  0  0  0  0  0
  -27.4085  -29.7325   25.4877 H   0  0  0  0  0  0
  -27.8941  -30.4281   23.9614 H   0  0  0  0  0  0
  -27.2604  -33.3693   26.2045 H   0  0  0  0  0  0
  -28.3859  -32.6964   25.0350 H   0  0  0  0  0  0
  -28.0720  -31.8578   26.5468 H   0  0  0  0  0  0
  -28.2575  -38.0086   24.7540 H   0  0  0  0  0  0
  -28.1091  -36.2619   24.6271 H   0  0  0  0  0  0
  -27.2293  -37.1368   25.8876 H   0  0  0  0  0  0
  -20.9444  -29.8812   21.6857 H   0  0  0  0  0  0
  -26.0151  -38.2829   24.1448 H   0  0  0  0  0  0
  -27.7590  -21.1672   22.2576 H   0  0  0  0  0  0
  -31.3773  -18.0520   21.6254 H   0  0  0  0  0  0
  -32.1352  -17.7393   20.0733 H   0  0  0  0  0  0
  -31.3639  -19.8229   19.1613 H   0  0  0  0  0  0
  -31.5589  -20.3055   20.8372 H   0  0  0  0  0  0
  -28.6564  -18.5134   21.5593 H   0  0  0  0  0  0
  -27.9977  -18.4521   19.9341 H   0  0  0  0  0  0
  -29.9827  -17.3163   19.0421 H   0  0  0  0  0  0
  -30.1631  -21.4620   18.0008 H   0  0  0  0  0  0
  -30.9951  -22.9227   18.5826 H   0  0  0  0  0  0
  -29.4783  -23.0525   17.6454 H   0  0  0  0  0  0
  -27.6342  -24.8667   18.7390 H   0  0  0  0  0  0
  -29.3170  -25.1175   18.8682 H   0  0  0  0  0  0
  -27.3634  -23.6217   21.8066 H   0  0  0  0  0  0
  -28.8605  -15.7130   20.9424 H   0  0  0  0  0  0
  1 25  1  0  0  0
  1 30  2  0  0  0
  1 83  1  0  0  0
  2  3  1  0  0  0
  2 25  1  0  0  0
  2 84  1  0  0  0
  2 85  1  0  0  0
  3  4  1  0  0  0
  3 86  1  0  0  0
  3 87  1  0  0  0
  4  5  1  0  0  0
  4 88  1  0  0  0
  4 89  1  0  0  0
  5  6  1  0  0  0
  5 26  1  0  0  0
  5 90  1  0  0  0
  6 25  1  0  0  0
  6 91  1  0  0  0
  6 92  1  0  0  0
  7  8  2  0  0  0
  7 26  1  0  0  0
  7 29  1  0  0  0
  8  9  1  0  0  0
  8 22  1  0  0  0
  9 10  1  0  0  0
  9 27  2  0  0  0
 10 11  2  0  0  0
 10 15  1  0  0  0
 11 12  1  0  0  0
 11 93  1  0  0  0
 12 13  2  0  0  0
 12 94  1  0  0  0
 13 14  1  0  0  0
 13 31  1  0  0  0
 14 15  2  0  0  0
 14 95  1  0  0  0
 15 96  1  0  0  0
 16 17  2  0  0  0
 16 21  1  0  0  0
 16 31  1  0  0  0
 17 18  1  0  0  0
 17 97  1  0  0  0
 18 19  2  0  0  0
 18 98  1  0  0  0
 19 20  1  0  0  0
 19 24  1  0  0  0
 20 21  2  0  0  0
 20 99  1  0  0  0
 21 23  1  0  0  0
 22 28  1  0  0  0
 22 32  2  0  0  0
 26 27  1  0  0  0
 28100  1  0  0  0
 28101  1  0  0  0
 29102  1  0  0  0
 29103  1  0  0  0
 33 34  1  0  0  0
 33 66  1  0  0  0
 33 70  2  0  0  0
 34 36  1  0  0  0
 34 59  1  0  0  0
 34104  1  0  0  0
 35 44  2  0  0  0
 35 45  1  0  0  0
 35 68  1  0  0  0
 36 56  1  0  0  0
 36105  1  0  0  0
 37 39  1  0  0  0
 37 47  1  0  0  0
 37 66  1  0  0  0
 37106  1  0  0  0
 38 43  2  0  0  0
 38 46  1  0  0  0
 38 47  1  0  0  0
 39 64  1  0  0  0
 39 67  2  0  0  0
 40 52  1  0  0  0
 40 53  2  0  0  0
 40 58  1  0  0  0
 41107  1  0  0  0
 41108  1  0  0  0
 41109  1  0  0  0
 41 48  1  0  0  0
 42 43  1  0  0  0
 42 66  1  0  0  0
 42110  1  0  0  0
 42111  1  0  0  0
 43 44  1  0  0  0
 44112  1  0  0  0
 45 46  2  0  0  0
 45113  1  0  0  0
 46114  1  0  0  0
 47115  1  0  0  0
 47116  1  0  0  0
 48 56  1  0  0  0
 48 65  1  0  0  0
 48117  1  0  0  0
 49 50  1  0  0  0
 49 53  1  0  0  0
 49 64  1  0  0  0
 49118  1  0  0  0
 50 51  1  0  0  0
 50119  1  0  0  0
 50120  1  0  0  0
 51 52  1  0  0  0
 51121  1  0  0  0
 51122  1  0  0  0
 52123  1  0  0  0
 52124  1  0  0  0
 53 54  1  0  0  0
 54 55  2  0  0  0
 54125  1  0  0  0
 55 57  1  0  0  0
 55126  1  0  0  0
 56 69  2  0  0  0
 57 58  2  0  0  0
 57127  1  0  0  0
 58128  1  0  0  0
 59 60  1  0  0  0
 59 61  1  0  0  0
 59 62  1  0  0  0
 60129  1  0  0  0
 60130  1  0  0  0
 60131  1  0  0  0
 61132  1  0  0  0
 61133  1  0  0  0
 61134  1  0  0  0
 62135  1  0  0  0
 62136  1  0  0  0
 62137  1  0  0  0
 63 65  1  0  0  0
 63138  1  0  0  0
 63139  1  0  0  0
 63140  1  0  0  0
 64141  1  0  0  0
 65142  1  0  0  0
 68 79  1  0  0  0
 71 72  2  0  0  0
 71 81  1  0  0  0
 71143  1  0  0  0
 72 80  1  0  0  0
 72 82  1  0  0  0
 73 79  1  0  0  0
 73 80  1  0  0  0
 73 81  2  0  0  0
 74 75  1  0  0  0
 74 77  1  0  0  0
 74144  1  0  0  0
 74145  1  0  0  0
 75 82  1  0  0  0
 75146  1  0  0  0
 75147  1  0  0  0
 76 77  1  0  0  0
 76 82  1  0  0  0
 76148  1  0  0  0
 76149  1  0  0  0
 77 83  1  0  0  0
 77150  1  0  0  0
 78 80  1  0  0  0
 78151  1  0  0  0
 78152  1  0  0  0
 78153  1  0  0  0
 79154  1  0  0  0
 79155  1  0  0  0
 81156  1  0  0  0
 83157  1  0  0  0
M  CHG  1  81   1
M  ISO  4   1 100  68 101  79 101  83 100
M  END
> <chiral flag>
0

> <version>
0

> <s_m_source_file>
/data/baiqing/PycharmProjects/Reinvent-master-3.2/result/LINK_invent/BTK/process_docking_weight1_custom_sum_contain_oxygen_bond_distance_aromatic_linkinvent_7_9_3/rearranged_h_0195.sdf

> <i_m_source_file_index>
62

> <r_mmod_Potential_Energy-OPLS-2005>
173.361328125

> <r_mmod_Stretch_Energy-OPLS-2005>
143.276123046875

> <r_mmod_Bend_Energy-OPLS-2005>
251.062927246094

> <r_mmod_Torsional_Energy-OPLS-2005>
278.673217773438

> <r_mmod_Improper_Torsional_Energy-OPLS-2005>
8.36437225341797

> <r_mmod_Van_der_Waal_Energy-OPLS-2005>
111.43936920166

> <r_mmod_Electrostatic_Energy-OPLS-2005>
-288.329376220703

> <r_mmod_Solvation_Energy-OPLS-2005>
-443.865844726562

> <b_mmod_Minimization_Converged-OPLS-2005>
0

> <r_mmod_RMS_Derivative-OPLS-2005>
2.08426332473755

$$$$
63
                    3D
 Structure written by MMmdl.
162171  0  0  1  0            999 V2000
  -30.6220  -14.7445   20.4643 C   0  0  0  0  0  0
  -30.4261  -12.4520   19.4757 C   0  0  0  0  0  0
  -29.5101  -12.5134   18.2342 C   0  0  0  0  0  0
  -28.0370  -12.3304   18.6498 C   0  0  0  0  0  0
  -27.6444  -13.2295   19.8552 C   0  0  2  0  0  0
  -28.6898  -13.1475   20.9892 C   0  0  0  0  0  0
  -25.2528  -13.8193   20.5719 C   0  0  0  0  0  0
  -24.1814  -13.0440   20.9219 C   0  0  0  0  0  0
  -24.6406  -11.6917   20.8764 C   0  0  0  0  0  0
  -23.9072  -10.4294   21.0396 C   0  0  0  0  0  0
  -24.3624   -9.4213   21.9170 C   0  0  0  0  0  0
  -23.6303   -8.2239   22.0743 C   0  0  0  0  0  0
  -22.4287   -8.0271   21.3539 C   0  0  0  0  0  0
  -21.9917   -9.0254   20.4654 C   0  0  0  0  0  0
  -22.7244  -10.2137   20.3057 C   0  0  0  0  0  0
  -21.6863   -6.0735   22.5272 C   0  0  0  0  0  0
  -21.4025   -6.5634   23.8210 C   0  0  0  0  0  0
  -21.3661   -5.6774   24.9169 C   0  0  0  0  0  0
  -21.6046   -4.3037   24.7216 C   0  0  0  0  0  0
  -21.8823   -3.8142   23.4329 C   0  0  0  0  0  0
  -21.9198   -4.6968   22.3396 C   0  0  0  0  0  0
  -22.7832  -13.5230   21.1856 C   0  0  0  0  0  0
  -22.1657   -4.2154   21.0976 F   0  0  0  0  0  0
  -21.5628   -3.4513   25.7721 F   0  0  0  0  0  0
  -29.9837  -13.5198   20.4059 N   0  0  0  0  0  0
  -26.2959  -12.9402   20.3325 N   0  0  0  0  0  0
  -25.9334  -11.6543   20.5771 N   0  0  0  0  0  0
  -22.0461  -12.8239   22.0411 N   0  0  0  0  0  0
  -25.4217  -15.1911   20.4141 N   0  0  0  0  0  0
  -31.7946  -14.8212   20.0841 O   0  0  0  0  0  0
  -21.6646   -6.8878   21.4232 O   0  0  0  0  0  0
  -22.3520  -14.5514   20.6660 O   0  0  0  0  0  0
  -24.6324  -31.8516   23.1956 C   0  0  0  0  0  0
  -25.9134  -32.4737   23.8306 C   0  0  1  0  0  0
  -27.2255  -27.2411   20.1420 C   0  0  0  0  0  0
  -25.5914  -33.8534   24.2228 N   0  0  0  0  0  0
  -23.4320  -30.4726   21.5384 C   0  0  2  0  0  0
  -24.8797  -28.9031   20.1204 C   0  0  0  0  0  0
  -22.7507  -29.4588   22.4904 C   0  0  0  0  0  0
  -18.0295  -28.1390   22.8484 C   0  0  0  0  0  0
  -24.1489  -36.7282   23.2646 C   0  0  0  0  0  0
  -25.9779  -30.7582   21.3778 C   0  0  0  0  0  0
  -26.0519  -29.3760   20.7254 C   0  0  0  0  0  0
  -27.2288  -28.5578   20.7199 C   0  0  0  0  0  0
  -26.0286  -26.8274   19.5258 C   0  0  0  0  0  0
  -24.8719  -27.6361   19.5127 C   0  0  0  0  0  0
  -23.6543  -29.7980   20.1587 C   0  0  0  0  0  0
  -25.4119  -36.3058   24.0328 C   0  0  1  0  0  0
  -20.5899  -28.3697   23.1275 C   0  0  2  0  0  0
  -20.6778  -26.9411   22.5425 C   0  0  0  0  0  0
  -19.5766  -26.6380   21.5223 C   0  0  0  0  0  0
  -18.1942  -26.7935   22.1614 C   0  0  0  0  0  0
  -19.1548  -28.8862   23.2877 C   0  0  0  0  0  0
  -18.9467  -30.1468   23.8887 C   0  0  0  0  0  0
  -17.6462  -30.6586   24.0573 C   0  0  0  0  0  0
  -25.9053  -34.9428   23.5086 C   0  0  0  0  0  0
  -16.5356  -29.9088   23.6332 C   0  0  0  0  0  0
  -16.7278  -28.6512   23.0343 C   0  0  0  0  0  0
  -26.4494  -31.6583   25.0711 C   0  0  0  0  0  0
  -25.3719  -31.3757   26.1448 C   0  0  0  0  0  0
  -27.0359  -30.2996   24.6231 C   0  0  0  0  0  0
  -27.6027  -32.4350   25.7481 C   0  0  0  0  0  0
  -27.5585  -37.1790   24.8458 C   0  0  0  0  0  0
  -21.4211  -29.3039   22.3642 N   0  0  0  0  0  0
  -26.4288  -37.3767   23.9424 N   0  0  0  0  0  0
  -24.7000  -31.0469   22.0931 N   0  0  0  0  0  0
  -23.4197  -28.8139   23.3017 O   0  0  0  0  0  0
  -28.3331  -26.3616   20.1246 O   0  0  0  0  0  0
  -26.5651  -34.8908   22.4667 O   0  0  0  0  0  0
  -23.5466  -32.1332   23.7248 O   0  0  0  0  0  0
  -31.5678  -21.5134   19.7159 C   0  0  0  0  0  0
  -31.1209  -20.2126   19.9921 C   0  0  0  0  0  0
  -30.6699  -22.6029   19.7065 C   0  0  0  0  0  0
  -29.7633  -19.9657   20.2490 C   0  0  0  0  0  0
  -29.2949  -22.3729   19.9815 C   0  0  0  0  0  0
  -29.4251  -17.9286   21.9606 C   0  0  0  0  0  0
  -29.3036  -16.3719   21.8786 C   0  0  0  0  0  0
  -30.0698  -17.2126   19.8304 C   0  0  0  0  0  0
  -29.3169  -18.4431   20.5213 C   0  0  2  0  0  0
  -31.2353  -23.9719   19.3105 C   0  0  0  0  0  0
  -28.2456  -23.5751   19.7734 C   0  0  0  0  0  0
  -28.2204  -24.9502   20.6575 C   0  0  0  0  0  0
  -28.8789  -21.0564   20.2546 N   0  0  0  0  0  0
  -29.8624  -15.9159   20.5947 N   0  0  0  0  0  0
  -31.8103  -24.7077   20.4482 N   0  3  0  0  0  0
  -31.4713  -12.5568   19.1791 H   0  0  0  0  0  0
  -30.3539  -11.4755   19.9588 H   0  0  0  0  0  0
  -29.7992  -11.7472   17.5136 H   0  0  0  0  0  0
  -29.6331  -13.4739   17.7304 H   0  0  0  0  0  0
  -27.9013  -11.2822   18.9194 H   0  0  0  0  0  0
  -27.3769  -12.5133   17.8012 H   0  0  0  0  0  0
  -27.6447  -14.2552   19.4816 H   0  0  0  0  0  0
  -28.7328  -12.1399   21.4063 H   0  0  0  0  0  0
  -28.4217  -13.7992   21.8194 H   0  0  0  0  0  0
  -25.2767   -9.5672   22.4739 H   0  0  0  0  0  0
  -24.0016   -7.4634   22.7453 H   0  0  0  0  0  0
  -21.0845   -8.8771   19.8974 H   0  0  0  0  0  0
  -22.3689  -10.9673   19.6158 H   0  0  0  0  0  0
  -21.2013   -7.6138   23.9714 H   0  0  0  0  0  0
  -21.1481   -6.0505   25.9075 H   0  0  0  0  0  0
  -22.0608   -2.7610   23.2821 H   0  0  0  0  0  0
  -22.4091  -11.9940   22.4868 H   0  0  0  0  0  0
  -21.1068  -13.1266   22.2592 H   0  0  0  0  0  0
  -24.6485  -15.8367   20.5278 H   0  0  0  0  0  0
  -26.2727  -15.6366   20.0945 H   0  0  0  0  0  0
  -26.7200  -32.5385   23.1043 H   0  0  0  0  0  0
  -25.0020  -33.9655   25.0345 H   0  0  0  0  0  0
  -22.7295  -31.2946   21.3868 H   0  0  0  0  0  0
  -23.3749  -35.9615   23.3289 H   0  0  0  0  0  0
  -24.3581  -36.8929   22.2063 H   0  0  0  0  0  0
  -23.7238  -37.6472   23.6688 H   0  0  0  0  0  0
  -26.1195  -31.5167   20.6056 H   0  0  0  0  0  0
  -26.8522  -30.8092   22.0151 H   0  0  0  0  0  0
  -28.1268  -28.9167   21.2019 H   0  0  0  0  0  0
  -25.9833  -25.8547   19.0568 H   0  0  0  0  0  0
  -23.9732  -27.2671   19.0392 H   0  0  0  0  0  0
  -23.7885  -30.5693   19.4001 H   0  0  0  0  0  0
  -22.7707  -29.2373   19.8489 H   0  0  0  0  0  0
  -25.1302  -36.1888   25.0823 H   0  0  0  0  0  0
  -21.0005  -28.3288   24.1391 H   0  0  0  0  0  0
  -20.5682  -26.2305   23.3634 H   0  0  0  0  0  0
  -21.6649  -26.7430   22.1226 H   0  0  0  0  0  0
  -19.6929  -25.6295   21.1252 H   0  0  0  0  0  0
  -19.6717  -27.3190   20.6759 H   0  0  0  0  0  0
  -17.4225  -26.6703   21.3999 H   0  0  0  0  0  0
  -18.0319  -26.0068   22.8993 H   0  0  0  0  0  0
  -19.7944  -30.7297   24.2236 H   0  0  0  0  0  0
  -17.5015  -31.6262   24.5185 H   0  0  0  0  0  0
  -15.5357  -30.2985   23.7666 H   0  0  0  0  0  0
  -15.8678  -28.0842   22.7033 H   0  0  0  0  0  0
  -24.5823  -30.7196   25.7773 H   0  0  0  0  0  0
  -24.9003  -32.2948   26.4927 H   0  0  0  0  0  0
  -25.8019  -30.8862   27.0193 H   0  0  0  0  0  0
  -26.2962  -29.6730   24.1236 H   0  0  0  0  0  0
  -27.4007  -29.7277   25.4771 H   0  0  0  0  0  0
  -27.8846  -30.4270   23.9510 H   0  0  0  0  0  0
  -27.2580  -33.3597   26.2128 H   0  0  0  0  0  0
  -28.3780  -32.7024   25.0287 H   0  0  0  0  0  0
  -28.0780  -31.8467   26.5342 H   0  0  0  0  0  0
  -28.2593  -38.0091   24.7514 H   0  0  0  0  0  0
  -28.1078  -36.2623   24.6254 H   0  0  0  0  0  0
  -27.2315  -37.1416   25.8861 H   0  0  0  0  0  0
  -20.9395  -29.8726   21.6813 H   0  0  0  0  0  0
  -26.0154  -38.2834   24.1430 H   0  0  0  0  0  0
  -32.6123  -21.6657   19.4838 H   0  0  0  0  0  0
  -31.8446  -19.4093   19.9820 H   0  0  0  0  0  0
  -30.4118  -18.1815   22.3519 H   0  0  0  0  0  0
  -28.6920  -18.3781   22.6292 H   0  0  0  0  0  0
  -28.2499  -16.0940   21.9123 H   0  0  0  0  0  0
  -29.8007  -15.8880   22.7218 H   0  0  0  0  0  0
  -31.1430  -17.3901   19.8027 H   0  0  0  0  0  0
  -29.7449  -17.1018   18.7968 H   0  0  0  0  0  0
  -28.2654  -18.3743   20.2300 H   0  0  0  0  0  0
  -30.4967  -24.5944   18.8071 H   0  0  0  0  0  0
  -32.0293  -23.8142   18.5760 H   0  0  0  0  0  0
  -27.2590  -23.1217   19.8688 H   0  0  0  0  0  0
  -28.2892  -23.8509   18.7190 H   0  0  0  0  0  0
  -29.0242  -24.8574   21.3866 H   0  0  0  0  0  0
  -27.3246  -24.9111   21.2803 H   0  0  0  0  0  0
  -31.1041  -25.0468   21.0760 H   0  0  0  0  0  0
  -32.3129  -25.5043   20.0992 H   0  0  0  0  0  0
  -32.4598  -24.1410   20.9611 H   0  0  0  0  0  0
  1 25  1  0  0  0
  1 30  2  0  0  0
  1 84  1  0  0  0
  2  3  1  0  0  0
  2 25  1  0  0  0
  2 86  1  0  0  0
  2 87  1  0  0  0
  3  4  1  0  0  0
  3 88  1  0  0  0
  3 89  1  0  0  0
  4  5  1  0  0  0
  4 90  1  0  0  0
  4 91  1  0  0  0
  5  6  1  0  0  0
  5 26  1  0  0  0
  5 92  1  0  0  0
  6 25  1  0  0  0
  6 93  1  0  0  0
  6 94  1  0  0  0
  7  8  2  0  0  0
  7 26  1  0  0  0
  7 29  1  0  0  0
  8  9  1  0  0  0
  8 22  1  0  0  0
  9 10  1  0  0  0
  9 27  2  0  0  0
 10 11  2  0  0  0
 10 15  1  0  0  0
 11 12  1  0  0  0
 11 95  1  0  0  0
 12 13  2  0  0  0
 12 96  1  0  0  0
 13 14  1  0  0  0
 13 31  1  0  0  0
 14 15  2  0  0  0
 14 97  1  0  0  0
 15 98  1  0  0  0
 16 17  2  0  0  0
 16 21  1  0  0  0
 16 31  1  0  0  0
 17 18  1  0  0  0
 17 99  1  0  0  0
 18 19  2  0  0  0
 18100  1  0  0  0
 19 20  1  0  0  0
 19 24  1  0  0  0
 20 21  2  0  0  0
 20101  1  0  0  0
 21 23  1  0  0  0
 22 28  1  0  0  0
 22 32  2  0  0  0
 26 27  1  0  0  0
 28102  1  0  0  0
 28103  1  0  0  0
 29104  1  0  0  0
 29105  1  0  0  0
 33 34  1  0  0  0
 33 66  1  0  0  0
 33 70  2  0  0  0
 34 36  1  0  0  0
 34 59  1  0  0  0
 34106  1  0  0  0
 35 44  2  0  0  0
 35 45  1  0  0  0
 35 68  1  0  0  0
 36 56  1  0  0  0
 36107  1  0  0  0
 37 39  1  0  0  0
 37 47  1  0  0  0
 37 66  1  0  0  0
 37108  1  0  0  0
 38 43  2  0  0  0
 38 46  1  0  0  0
 38 47  1  0  0  0
 39 64  1  0  0  0
 39 67  2  0  0  0
 40 52  1  0  0  0
 40 53  2  0  0  0
 40 58  1  0  0  0
 41109  1  0  0  0
 41110  1  0  0  0
 41111  1  0  0  0
 41 48  1  0  0  0
 42 43  1  0  0  0
 42 66  1  0  0  0
 42112  1  0  0  0
 42113  1  0  0  0
 43 44  1  0  0  0
 44114  1  0  0  0
 45 46  2  0  0  0
 45115  1  0  0  0
 46116  1  0  0  0
 47117  1  0  0  0
 47118  1  0  0  0
 48 56  1  0  0  0
 48 65  1  0  0  0
 48119  1  0  0  0
 49 50  1  0  0  0
 49 53  1  0  0  0
 49 64  1  0  0  0
 49120  1  0  0  0
 50 51  1  0  0  0
 50121  1  0  0  0
 50122  1  0  0  0
 51 52  1  0  0  0
 51123  1  0  0  0
 51124  1  0  0  0
 52125  1  0  0  0
 52126  1  0  0  0
 53 54  1  0  0  0
 54 55  2  0  0  0
 54127  1  0  0  0
 55 57  1  0  0  0
 55128  1  0  0  0
 56 69  2  0  0  0
 57 58  2  0  0  0
 57129  1  0  0  0
 58130  1  0  0  0
 59 60  1  0  0  0
 59 61  1  0  0  0
 59 62  1  0  0  0
 60131  1  0  0  0
 60132  1  0  0  0
 60133  1  0  0  0
 61134  1  0  0  0
 61135  1  0  0  0
 61136  1  0  0  0
 62137  1  0  0  0
 62138  1  0  0  0
 62139  1  0  0  0
 63 65  1  0  0  0
 63140  1  0  0  0
 63141  1  0  0  0
 63142  1  0  0  0
 64143  1  0  0  0
 65144  1  0  0  0
 68 82  1  0  0  0
 71 72  2  0  0  0
 71 73  1  0  0  0
 71145  1  0  0  0
 72 74  1  0  0  0
 72146  1  0  0  0
 73 75  2  0  0  0
 73 80  1  0  0  0
 74 83  2  0  0  0
 74 79  1  0  0  0
 75 81  1  0  0  0
 75 83  1  0  0  0
 76 77  1  0  0  0
 76 79  1  0  0  0
 76147  1  0  0  0
 76148  1  0  0  0
 77 84  1  0  0  0
 77149  1  0  0  0
 77150  1  0  0  0
 78 79  1  0  0  0
 78 84  1  0  0  0
 78151  1  0  0  0
 78152  1  0  0  0
 79153  1  0  0  0
 80 85  1  0  0  0
 80154  1  0  0  0
 80155  1  0  0  0
 81 82  1  0  0  0
 81156  1  0  0  0
 81157  1  0  0  0
 82158  1  0  0  0
 82159  1  0  0  0
 85160  1  0  0  0
 85161  1  0  0  0
 85162  1  0  0  0
M  CHG  1  85   1
M  ISO  4   1 100  68 101  82 101  84 100
M  END
> <chiral flag>
0

> <version>
0

> <s_m_source_file>
/data/baiqing/PycharmProjects/Reinvent-master-3.2/result/LINK_invent/BTK/process_docking_weight1_custom_sum_contain_oxygen_bond_distance_aromatic_linkinvent_7_9_3/rearranged_h_0195.sdf

> <i_m_source_file_index>
63

> <r_mmod_Potential_Energy-OPLS-2005>
60.677001953125

> <r_mmod_Stretch_Energy-OPLS-2005>
141.727478027344

> <r_mmod_Bend_Energy-OPLS-2005>
217.586929321289

> <r_mmod_Torsional_Energy-OPLS-2005>
330.007629394531

> <r_mmod_Improper_Torsional_Energy-OPLS-2005>
13.1829824447632

> <r_mmod_Van_der_Waal_Energy-OPLS-2005>
127.110733032227

> <r_mmod_Electrostatic_Energy-OPLS-2005>
-362.927825927734

> <r_mmod_Solvation_Energy-OPLS-2005>
-491.045318603516

> <b_mmod_Minimization_Converged-OPLS-2005>
0

> <r_mmod_RMS_Derivative-OPLS-2005>
3.2428023815155

$$$$
64
                    3D
 Structure written by MMmdl.
171181  0  0  1  0            999 V2000
  -30.8567  -14.2718   20.7329 C   0  0  0  0  0  0
  -30.4139  -12.2690   19.3753 C   0  0  0  0  0  0
  -29.4786  -12.5467   18.1865 C   0  0  0  0  0  0
  -28.0072  -12.4090   18.6197 C   0  0  0  0  0  0
  -27.6841  -13.2141   19.9040 C   0  0  2  0  0  0
  -28.7327  -12.9439   21.0131 C   0  0  0  0  0  0
  -25.2668  -13.8186   20.5747 C   0  0  0  0  0  0
  -24.1928  -13.0452   20.9196 C   0  0  0  0  0  0
  -24.6512  -11.6912   20.8803 C   0  0  0  0  0  0
  -23.9180  -10.4281   21.0446 C   0  0  0  0  0  0
  -24.3672   -9.4176   21.9237 C   0  0  0  0  0  0
  -23.6287   -8.2247   22.0789 C   0  0  0  0  0  0
  -22.4284   -8.0306   21.3561 C   0  0  0  0  0  0
  -21.9953   -9.0301   20.4656 C   0  0  0  0  0  0
  -22.7354  -10.2147   20.3075 C   0  0  0  0  0  0
  -21.6880   -6.0735   22.5278 C   0  0  0  0  0  0
  -21.4047   -6.5621   23.8210 C   0  0  0  0  0  0
  -21.3650   -5.6760   24.9150 C   0  0  0  0  0  0
  -21.6025   -4.3027   24.7204 C   0  0  0  0  0  0
  -21.8819   -3.8114   23.4337 C   0  0  0  0  0  0
  -21.9213   -4.6946   22.3395 C   0  0  0  0  0  0
  -22.7925  -13.5245   21.1789 C   0  0  0  0  0  0
  -22.1686   -4.2124   21.0992 F   0  0  0  0  0  0
  -21.5608   -3.4539   25.7736 F   0  0  0  0  0  0
  -30.0828  -13.1853   20.4743 N   0  0  0  0  0  0
  -26.3186  -12.9391   20.3563 N   0  0  0  0  0  0
  -25.9462  -11.6526   20.5884 N   0  0  0  0  0  0
  -22.0511  -12.8275   22.0313 N   0  0  0  0  0  0
  -25.4249  -15.1921   20.4134 N   0  0  0  0  0  0
  -31.7351  -14.6772   19.9645 O   0  0  0  0  0  0
  -21.6627   -6.8907   21.4262 O   0  0  0  0  0  0
  -22.3630  -14.5554   20.6616 O   0  0  0  0  0  0
  -24.6120  -31.8733   23.2114 C   0  0  0  0  0  0
  -25.9007  -32.4864   23.8423 C   0  0  1  0  0  0
  -27.2410  -27.4761   20.0722 C   0  0  0  0  0  0
  -25.5855  -33.8661   24.2358 N   0  0  0  0  0  0
  -23.3957  -30.4980   21.5513 C   0  0  2  0  0  0
  -24.8401  -28.9649   20.1180 C   0  0  0  0  0  0
  -22.7388  -29.4678   22.4982 C   0  0  0  0  0  0
  -18.0268  -28.1370   22.8482 C   0  0  0  0  0  0
  -24.1443  -36.7323   23.2642 C   0  0  0  0  0  0
  -25.9177  -30.8541   21.3508 C   0  0  0  0  0  0
  -25.9969  -29.4857   20.7098 C   0  0  0  0  0  0
  -27.1962  -28.7437   20.6910 C   0  0  0  0  0  0
  -26.0619  -26.9634   19.4804 C   0  0  0  0  0  0
  -24.8643  -27.7002   19.5072 C   0  0  0  0  0  0
  -23.6047  -29.8343   20.1637 C   0  0  0  0  0  0
  -25.4080  -36.3148   24.0340 C   0  0  1  0  0  0
  -20.5856  -28.3623   23.1326 C   0  0  2  0  0  0
  -20.6744  -26.9361   22.5414 C   0  0  0  0  0  0
  -19.5726  -26.6360   21.5214 C   0  0  0  0  0  0
  -18.1901  -26.7926   22.1609 C   0  0  0  0  0  0
  -19.1515  -28.8810   23.2925 C   0  0  0  0  0  0
  -18.9464  -30.1422   23.8948 C   0  0  0  0  0  0
  -17.6467  -30.6583   24.0577 C   0  0  0  0  0  0
  -25.9014  -34.9503   23.5153 C   0  0  0  0  0  0
  -16.5354  -29.9103   23.6298 C   0  0  0  0  0  0
  -16.7262  -28.6513   23.0323 C   0  0  0  0  0  0
  -26.4426  -31.6605   25.0721 C   0  0  0  0  0  0
  -25.3698  -31.3672   26.1467 C   0  0  0  0  0  0
  -27.0274  -30.3089   24.5990 C   0  0  0  0  0  0
  -27.5986  -32.4306   25.7543 C   0  0  0  0  0  0
  -27.5563  -37.1840   24.8494 C   0  0  0  0  0  0
  -21.4123  -29.3049   22.3765 N   0  0  0  0  0  0
  -26.4279  -37.3828   23.9423 N   0  0  0  0  0  0
  -24.6609  -31.0871   22.0995 N   0  0  0  0  0  0
  -23.4189  -28.8208   23.2985 O   0  0  0  0  0  0
  -28.4525  -26.8228   20.0618 O   0  0  0  0  0  0
  -26.5592  -34.8932   22.4719 O   0  0  0  0  0  0
  -23.5317  -32.1436   23.7528 O   0  0  0  0  0  0
  -29.1232  -21.1789   20.9519 C   0  0  0  0  0  0
  -32.9749  -19.5979   23.4727 C   0  0  0  0  0  0
  -29.1805  -22.4425   20.0992 C   0  0  0  0  0  0
  -32.0242  -20.7993   23.4430 C   0  0  0  0  0  0
  -30.3475  -22.9805   21.9794 C   0  0  0  0  0  0
  -30.2376  -16.0556   22.2590 C   0  0  0  0  0  0
  -32.0568  -15.1566   22.6814 C   0  0  0  0  0  0
  -30.9597  -19.1844   22.2200 C   0  0  0  0  0  0
  -30.0438  -21.4729   22.1620 C   0  0  2  0  0  0
  -32.1580  -18.4368   22.8586 C   0  0  2  0  0  0
  -31.1820  -16.1257   23.4522 C   0  0  0  0  0  0
  -29.6641  -24.8080   20.4929 C   0  0  0  0  0  0
  -28.5049  -25.4468   19.7067 C   0  0  0  0  0  0
  -30.8100  -14.7229   22.0018 N   0  0  0  0  0  0
  -31.2392  -20.6182   22.2349 N   0  0  0  0  0  0
  -29.3388  -23.5018   21.0700 N   0  0  0  0  0  0
  -31.7563  -17.4343   23.8882 N   0  3  0  0  0  0
  -31.4576  -12.3561   19.0625 H   0  0  0  0  0  0
  -30.2962  -11.2366   19.7106 H   0  0  0  0  0  0
  -29.6959  -11.8608   17.3662 H   0  0  0  0  0  0
  -29.6637  -13.5502   17.7979 H   0  0  0  0  0  0
  -27.8082  -11.3520   18.7950 H   0  0  0  0  0  0
  -27.3411  -12.7152   17.8107 H   0  0  0  0  0  0
  -27.7411  -14.2723   19.6489 H   0  0  0  0  0  0
  -28.6735  -11.9056   21.3460 H   0  0  0  0  0  0
  -28.5249  -13.5474   21.8966 H   0  0  0  0  0  0
  -25.2832   -9.5601   22.4830 H   0  0  0  0  0  0
  -23.9961   -7.4622   22.7511 H   0  0  0  0  0  0
  -21.0890   -8.8842   19.8959 H   0  0  0  0  0  0
  -22.3868  -10.9686   19.6139 H   0  0  0  0  0  0
  -21.2083   -7.6129   23.9715 H   0  0  0  0  0  0
  -21.1469   -6.0486   25.9054 H   0  0  0  0  0  0
  -22.0627   -2.7580   23.2827 H   0  0  0  0  0  0
  -22.4089  -11.9976   22.4814 H   0  0  0  0  0  0
  -21.1109  -13.1293   22.2386 H   0  0  0  0  0  0
  -24.6424  -15.8290   20.5223 H   0  0  0  0  0  0
  -26.2691  -15.6561   20.1055 H   0  0  0  0  0  0
  -26.7120  -32.5572   23.1245 H   0  0  0  0  0  0
  -25.0024  -33.9850   25.0509 H   0  0  0  0  0  0
  -22.6841  -31.3143   21.4128 H   0  0  0  0  0  0
  -23.3741  -35.9622   23.3294 H   0  0  0  0  0  0
  -24.3535  -36.8962   22.2061 H   0  0  0  0  0  0
  -23.7136  -37.6486   23.6673 H   0  0  0  0  0  0
  -26.0025  -31.6093   20.5681 H   0  0  0  0  0  0
  -26.8155  -30.9292   21.9504 H   0  0  0  0  0  0
  -28.0938  -29.1465   21.1388 H   0  0  0  0  0  0
  -26.0423  -26.0120   18.9721 H   0  0  0  0  0  0
  -23.9756  -27.2958   19.0430 H   0  0  0  0  0  0
  -23.7286  -30.6141   19.4112 H   0  0  0  0  0  0
  -22.7241  -29.2696   19.8524 H   0  0  0  0  0  0
  -25.1270  -36.2015   25.0839 H   0  0  0  0  0  0
  -20.9972  -28.3157   24.1439 H   0  0  0  0  0  0
  -20.5583  -26.2257   23.3615 H   0  0  0  0  0  0
  -21.6624  -26.7372   22.1232 H   0  0  0  0  0  0
  -19.6873  -25.6259   21.1259 H   0  0  0  0  0  0
  -19.6688  -27.3166   20.6733 H   0  0  0  0  0  0
  -17.4182  -26.6693   21.4004 H   0  0  0  0  0  0
  -18.0285  -26.0051   22.8981 H   0  0  0  0  0  0
  -19.7947  -30.7209   24.2353 H   0  0  0  0  0  0
  -17.5034  -31.6265   24.5148 H   0  0  0  0  0  0
  -15.5362  -30.3038   23.7583 H   0  0  0  0  0  0
  -15.8666  -28.0869   22.6994 H   0  0  0  0  0  0
  -24.5881  -30.7016   25.7796 H   0  0  0  0  0  0
  -24.8876  -32.2818   26.4947 H   0  0  0  0  0  0
  -25.8040  -30.8825   27.0226 H   0  0  0  0  0  0
  -26.2820  -29.6880   24.1020 H   0  0  0  0  0  0
  -27.4120  -29.7262   25.4370 H   0  0  0  0  0  0
  -27.8588  -30.4511   23.9085 H   0  0  0  0  0  0
  -27.2613  -33.3638   26.2076 H   0  0  0  0  0  0
  -28.3869  -32.6799   25.0427 H   0  0  0  0  0  0
  -28.0551  -31.8431   26.5525 H   0  0  0  0  0  0
  -28.2611  -38.0109   24.7509 H   0  0  0  0  0  0
  -28.1031  -36.2638   24.6374 H   0  0  0  0  0  0
  -27.2291  -37.1560   25.8905 H   0  0  0  0  0  0
  -20.9223  -29.8891   21.7136 H   0  0  0  0  0  0
  -26.0168  -38.2907   24.1415 H   0  0  0  0  0  0
  -29.3821  -20.2963   20.3702 H   0  0  0  0  0  0
  -28.1030  -21.0332   21.3130 H   0  0  0  0  0  0
  -33.3766  -19.3962   24.4653 H   0  0  0  0  0  0
  -33.8252  -19.8147   22.8256 H   0  0  0  0  0  0
  -28.2928  -22.5683   19.4765 H   0  0  0  0  0  0
  -30.0474  -22.3966   19.4368 H   0  0  0  0  0  0
  -32.5571  -21.7507   23.4517 H   0  0  0  0  0  0
  -31.3746  -20.7811   24.3217 H   0  0  0  0  0  0
  -31.3356  -23.1124   21.5354 H   0  0  0  0  0  0
  -30.3431  -23.5239   22.9254 H   0  0  0  0  0  0
  -30.4169  -16.7558   21.4439 H   0  0  0  0  0  0
  -29.1870  -16.0535   22.5513 H   0  0  0  0  0  0
  -32.5155  -14.3868   23.3073 H   0  0  0  0  0  0
  -32.8024  -15.6297   22.0385 H   0  0  0  0  0  0
  -30.0394  -18.9733   22.7694 H   0  0  0  0  0  0
  -30.8129  -18.8480   21.1929 H   0  0  0  0  0  0
  -29.4505  -21.3500   23.0700 H   0  0  0  0  0  0
  -32.7666  -17.9546   22.0921 H   0  0  0  0  0  0
  -30.7511  -15.6215   24.3216 H   0  0  0  0  0  0
  -29.9310  -25.4856   21.3070 H   0  0  0  0  0  0
  -30.5505  -24.7446   19.8579 H   0  0  0  0  0  0
  -27.5823  -24.9245   19.9583 H   0  0  0  0  0  0
  -28.6608  -25.3498   18.6314 H   0  0  0  0  0  0
  -31.1039  -17.8724   24.5189 H   0  0  0  0  0  0
  -32.5757  -17.2230   24.4386 H   0  0  0  0  0  0
  1 25  1  0  0  0
  1 30  2  0  0  0
  1 84  1  0  0  0
  2  3  1  0  0  0
  2 25  1  0  0  0
  2 88  1  0  0  0
  2 89  1  0  0  0
  3  4  1  0  0  0
  3 90  1  0  0  0
  3 91  1  0  0  0
  4  5  1  0  0  0
  4 92  1  0  0  0
  4 93  1  0  0  0
  5  6  1  0  0  0
  5 26  1  0  0  0
  5 94  1  0  0  0
  6 25  1  0  0  0
  6 95  1  0  0  0
  6 96  1  0  0  0
  7  8  2  0  0  0
  7 26  1  0  0  0
  7 29  1  0  0  0
  8  9  1  0  0  0
  8 22  1  0  0  0
  9 10  1  0  0  0
  9 27  2  0  0  0
 10 11  2  0  0  0
 10 15  1  0  0  0
 11 12  1  0  0  0
 11 97  1  0  0  0
 12 13  2  0  0  0
 12 98  1  0  0  0
 13 14  1  0  0  0
 13 31  1  0  0  0
 14 15  2  0  0  0
 14 99  1  0  0  0
 15100  1  0  0  0
 16 17  2  0  0  0
 16 21  1  0  0  0
 16 31  1  0  0  0
 17 18  1  0  0  0
 17101  1  0  0  0
 18 19  2  0  0  0
 18102  1  0  0  0
 19 20  1  0  0  0
 19 24  1  0  0  0
 20 21  2  0  0  0
 20103  1  0  0  0
 21 23  1  0  0  0
 22 28  1  0  0  0
 22 32  2  0  0  0
 26 27  1  0  0  0
 28104  1  0  0  0
 28105  1  0  0  0
 29106  1  0  0  0
 29107  1  0  0  0
 33 34  1  0  0  0
 33 66  1  0  0  0
 33 70  2  0  0  0
 34 36  1  0  0  0
 34 59  1  0  0  0
 34108  1  0  0  0
 35 44  2  0  0  0
 35 45  1  0  0  0
 35 68  1  0  0  0
 36 56  1  0  0  0
 36109  1  0  0  0
 37 39  1  0  0  0
 37 47  1  0  0  0
 37 66  1  0  0  0
 37110  1  0  0  0
 38 43  2  0  0  0
 38 46  1  0  0  0
 38 47  1  0  0  0
 39 64  1  0  0  0
 39 67  2  0  0  0
 40 52  1  0  0  0
 40 53  2  0  0  0
 40 58  1  0  0  0
 41111  1  0  0  0
 41112  1  0  0  0
 41113  1  0  0  0
 41 48  1  0  0  0
 42 43  1  0  0  0
 42 66  1  0  0  0
 42114  1  0  0  0
 42115  1  0  0  0
 43 44  1  0  0  0
 44116  1  0  0  0
 45 46  2  0  0  0
 45117  1  0  0  0
 46118  1  0  0  0
 47119  1  0  0  0
 47120  1  0  0  0
 48 56  1  0  0  0
 48 65  1  0  0  0
 48121  1  0  0  0
 49 50  1  0  0  0
 49 53  1  0  0  0
 49 64  1  0  0  0
 49122  1  0  0  0
 50 51  1  0  0  0
 50123  1  0  0  0
 50124  1  0  0  0
 51 52  1  0  0  0
 51125  1  0  0  0
 51126  1  0  0  0
 52127  1  0  0  0
 52128  1  0  0  0
 53 54  1  0  0  0
 54 55  2  0  0  0
 54129  1  0  0  0
 55 57  1  0  0  0
 55130  1  0  0  0
 56 69  2  0  0  0
 57 58  2  0  0  0
 57131  1  0  0  0
 58132  1  0  0  0
 59 60  1  0  0  0
 59 61  1  0  0  0
 59 62  1  0  0  0
 60133  1  0  0  0
 60134  1  0  0  0
 60135  1  0  0  0
 61136  1  0  0  0
 61137  1  0  0  0
 61138  1  0  0  0
 62139  1  0  0  0
 62140  1  0  0  0
 62141  1  0  0  0
 63 65  1  0  0  0
 63142  1  0  0  0
 63143  1  0  0  0
 63144  1  0  0  0
 64145  1  0  0  0
 65146  1  0  0  0
 68 83  1  0  0  0
 71 73  1  0  0  0
 71 79  1  0  0  0
 71147  1  0  0  0
 71148  1  0  0  0
 72 74  1  0  0  0
 72 80  1  0  0  0
 72149  1  0  0  0
 72150  1  0  0  0
 73 86  1  0  0  0
 73151  1  0  0  0
 73152  1  0  0  0
 74153  1  0  0  0
 74154  1  0  0  0
 74 85  1  0  0  0
 75 79  1  0  0  0
 75 86  1  0  0  0
 75155  1  0  0  0
 75156  1  0  0  0
 76 81  1  0  0  0
 76 84  1  0  0  0
 76157  1  0  0  0
 76158  1  0  0  0
 77 81  1  0  0  0
 77 84  1  0  0  0
 77159  1  0  0  0
 77160  1  0  0  0
 78 80  1  0  0  0
 78 85  1  0  0  0
 78161  1  0  0  0
 78162  1  0  0  0
 79 85  1  0  0  0
 79163  1  0  0  0
 80 87  1  0  0  0
 80164  1  0  0  0
 81 87  1  0  0  0
 81165  1  0  0  0
 82 83  1  0  0  0
 82 86  1  0  0  0
 82166  1  0  0  0
 82167  1  0  0  0
 83168  1  0  0  0
 83169  1  0  0  0
 87170  1  0  0  0
 87171  1  0  0  0
M  CHG  1  87   1
M  ISO  4   1 100  68 101  83 101  84 100
M  END
> <chiral flag>
0

> <version>
0

> <s_m_source_file>
/data/baiqing/PycharmProjects/Reinvent-master-3.2/result/LINK_invent/BTK/process_docking_weight1_custom_sum_contain_oxygen_bond_distance_aromatic_linkinvent_7_9_3/rearranged_h_0195.sdf

> <i_m_source_file_index>
64

> <r_mmod_Potential_Energy-OPLS-2005>
177.356658935547

> <r_mmod_Stretch_Energy-OPLS-2005>
37.7463455200195

> <r_mmod_Bend_Energy-OPLS-2005>
189.475601196289

> <r_mmod_Torsional_Energy-OPLS-2005>
501.250610351562

> <r_mmod_Improper_Torsional_Energy-OPLS-2005>
13.781946182251

> <r_mmod_Van_der_Waal_Energy-OPLS-2005>
141.930221557617

> <r_mmod_Electrostatic_Energy-OPLS-2005>
-218.476150512695

> <r_mmod_Solvation_Energy-OPLS-2005>
-499.356567382812

> <b_mmod_Minimization_Converged-OPLS-2005>
0

> <r_mmod_RMS_Derivative-OPLS-2005>
4.64594268798828

$$$$
65
                    3D
 Structure written by MMmdl.
183195  0  0  1  0            999 V2000
  -30.6392  -14.4096   20.7311 C   0  0  0  0  0  0
  -30.4379  -12.3325   19.3825 C   0  0  0  0  0  0
  -29.4894  -12.5428   18.1807 C   0  0  0  0  0  0
  -28.0098  -12.3536   18.5856 C   0  0  0  0  0  0
  -27.6593  -13.1498   19.8641 C   0  0  2  0  0  0
  -28.6956  -12.8049   20.9658 C   0  0  0  0  0  0
  -25.2559  -13.8003   20.5510 C   0  0  0  0  0  0
  -24.1808  -13.0366   20.9193 C   0  0  0  0  0  0
  -24.6339  -11.6831   20.8797 C   0  0  0  0  0  0
  -23.8990  -10.4254   21.0468 C   0  0  0  0  0  0
  -24.3565   -9.4169   21.9221 C   0  0  0  0  0  0
  -23.6256   -8.2202   22.0766 C   0  0  0  0  0  0
  -22.4223   -8.0281   21.3561 C   0  0  0  0  0  0
  -21.9855   -9.0248   20.4653 C   0  0  0  0  0  0
  -22.7181  -10.2121   20.3087 C   0  0  0  0  0  0
  -21.6824   -6.0728   22.5306 C   0  0  0  0  0  0
  -21.4003   -6.5641   23.8242 C   0  0  0  0  0  0
  -21.3662   -5.6788   24.9204 C   0  0  0  0  0  0
  -21.6045   -4.3053   24.7235 C   0  0  0  0  0  0
  -21.8826   -3.8137   23.4360 C   0  0  0  0  0  0
  -21.9180   -4.6955   22.3414 C   0  0  0  0  0  0
  -22.7858  -13.5233   21.1824 C   0  0  0  0  0  0
  -22.1634   -4.2171   21.0982 F   0  0  0  0  0  0
  -21.5638   -3.4532   25.7739 F   0  0  0  0  0  0
  -30.0114  -13.2273   20.4740 N   0  0  0  0  0  0
  -26.2958  -12.9062   20.3212 N   0  0  0  0  0  0
  -25.9225  -11.6307   20.5742 N   0  0  0  0  0  0
  -22.0417  -12.8314   22.0398 N   0  0  0  0  0  0
  -25.4167  -15.1682   20.3670 N   0  0  0  0  0  0
  -31.7163  -14.6959   20.1860 O   0  0  0  0  0  0
  -21.6572   -6.8881   21.4276 O   0  0  0  0  0  0
  -22.3611  -14.5535   20.6626 O   0  0  0  0  0  0
  -24.6059  -31.8715   23.2118 C   0  0  0  0  0  0
  -25.8984  -32.4847   23.8409 C   0  0  1  0  0  0
  -27.2778  -27.4913   20.0904 C   0  0  0  0  0  0
  -25.5850  -33.8643   24.2331 N   0  0  0  0  0  0
  -23.3954  -30.4880   21.5486 C   0  0  2  0  0  0
  -24.8528  -28.9529   20.1211 C   0  0  0  0  0  0
  -22.7367  -29.4648   22.5001 C   0  0  0  0  0  0
  -18.0259  -28.1367   22.8490 C   0  0  0  0  0  0
  -24.1489  -36.7340   23.2631 C   0  0  0  0  0  0
  -25.9133  -30.8578   21.3533 C   0  0  0  0  0  0
  -26.0019  -29.4882   20.7147 C   0  0  0  0  0  0
  -27.2097  -28.7647   20.7063 C   0  0  0  0  0  0
  -26.1038  -26.9521   19.5208 C   0  0  0  0  0  0
  -24.8937  -27.6786   19.5263 C   0  0  0  0  0  0
  -23.6078  -29.8101   20.1648 C   0  0  0  0  0  0
  -25.4100  -36.3129   24.0335 C   0  0  1  0  0  0
  -20.5840  -28.3626   23.1334 C   0  0  2  0  0  0
  -20.6746  -26.9361   22.5433 C   0  0  0  0  0  0
  -19.5741  -26.6380   21.5205 C   0  0  0  0  0  0
  -18.1910  -26.7922   22.1601 C   0  0  0  0  0  0
  -19.1511  -28.8823   23.2906 C   0  0  0  0  0  0
  -18.9438  -30.1431   23.8917 C   0  0  0  0  0  0
  -17.6451  -30.6581   24.0543 C   0  0  0  0  0  0
  -25.9012  -34.9485   23.5142 C   0  0  0  0  0  0
  -16.5341  -29.9092   23.6301 C   0  0  0  0  0  0
  -16.7254  -28.6503   23.0331 C   0  0  0  0  0  0
  -26.4449  -31.6599   25.0707 C   0  0  0  0  0  0
  -25.3762  -31.3688   26.1480 C   0  0  0  0  0  0
  -27.0246  -30.3061   24.5999 C   0  0  0  0  0  0
  -27.6024  -32.4309   25.7469 C   0  0  0  0  0  0
  -27.5579  -37.1807   24.8450 C   0  0  0  0  0  0
  -21.4102  -29.3014   22.3761 N   0  0  0  0  0  0
  -26.4281  -37.3817   23.9413 N   0  0  0  0  0  0
  -24.6558  -31.0866   22.0982 N   0  0  0  0  0  0
  -23.4150  -28.8181   23.3017 O   0  0  0  0  0  0
  -28.4416  -26.7507   20.0030 O   0  0  0  0  0  0
  -26.5587  -34.8922   22.4699 O   0  0  0  0  0  0
  -23.5271  -32.1436   23.7545 O   0  0  0  0  0  0
  -32.0215  -23.0401   21.8006 C   0  0  0  0  0  0
  -32.4951  -22.3673   20.6643 C   0  0  0  0  0  0
  -32.9863  -23.1692   19.6215 C   0  0  0  0  0  0
  -32.2640  -25.0245   20.7355 C   0  0  0  0  0  0
  -33.5164  -23.2181   17.0025 C   0  0  0  0  0  0
  -32.5933  -22.0737   17.3328 C   0  0  0  0  0  0
  -31.3353  -27.8098   18.6968 C   0  0  0  0  0  0
  -29.8750  -28.2692   18.7035 C   0  0  0  0  0  0
  -30.9254  -16.1806   22.4477 C   0  0  0  0  0  0
  -28.7310  -15.7652   21.7312 C   0  0  0  0  0  0
  -30.5096  -19.4579   19.4313 C   0  0  0  0  0  0
  -29.9655  -20.5840   21.1719 C   0  0  0  0  0  0
  -30.9223  -17.5710   21.7472 C   0  0  0  0  0  0
  -28.6729  -17.0096   20.8468 C   0  0  0  0  0  0
  -33.5719  -22.5749   18.3719 C   0  0  0  0  0  0
  -30.8984  -26.6316   19.5819 C   0  0  2  0  0  0
  -29.4549  -19.2920   20.5361 C   0  0  0  0  0  0
  -29.6775  -27.4747   20.0084 C   0  0  1  0  0  0
  -32.2853  -20.8755   20.4817 C   0  0  0  0  0  0
  -31.8978  -24.3805   21.8256 N   0  0  0  0  0  0
  -32.8593  -24.5094   19.6689 N   0  0  0  0  0  0
  -30.1023  -15.2134   21.7047 N   0  0  0  0  0  0
  -30.8976  -20.7164   20.0518 N   0  0  0  0  0  0
  -31.8397  -26.3217   20.6551 N   0  0  0  0  0  0
  -29.5525  -18.0684   21.3874 N   0  3  0  0  0  0
  -31.4698  -12.5143   19.0795 H   0  0  0  0  0  0
  -30.4086  -11.2918   19.7089 H   0  0  0  0  0  0
  -29.7484  -11.8623   17.3693 H   0  0  0  0  0  0
  -29.6339  -13.5492   17.7824 H   0  0  0  0  0  0
  -27.8334  -11.2891   18.7487 H   0  0  0  0  0  0
  -27.3585  -12.6481   17.7635 H   0  0  0  0  0  0
  -27.7355  -14.1980   19.5771 H   0  0  0  0  0  0
  -28.6996  -11.7226   21.1069 H   0  0  0  0  0  0
  -28.4486  -13.1746   21.9602 H   0  0  0  0  0  0
  -25.2715   -9.5646   22.4784 H   0  0  0  0  0  0
  -24.0030   -7.4565   22.7435 H   0  0  0  0  0  0
  -21.0826   -8.8762   19.8898 H   0  0  0  0  0  0
  -22.3682  -10.9691   19.6204 H   0  0  0  0  0  0
  -21.1968   -7.6145   23.9788 H   0  0  0  0  0  0
  -21.1470   -6.0481   25.9121 H   0  0  0  0  0  0
  -22.0573   -2.7606   23.2859 H   0  0  0  0  0  0
  -22.4006  -12.0052   22.4944 H   0  0  0  0  0  0
  -21.1026  -13.1414   22.2474 H   0  0  0  0  0  0
  -24.5758  -15.7361   20.3472 H   0  0  0  0  0  0
  -26.1136  -15.5103   19.7198 H   0  0  0  0  0  0
  -26.7041  -32.5602   23.1174 H   0  0  0  0  0  0
  -24.9987  -33.9816   25.0472 H   0  0  0  0  0  0
  -22.6812  -31.3010   21.4043 H   0  0  0  0  0  0
  -23.3735  -35.9689   23.3331 H   0  0  0  0  0  0
  -24.3592  -36.8940   22.2036 H   0  0  0  0  0  0
  -23.7257  -37.6558   23.6641 H   0  0  0  0  0  0
  -26.0023  -31.6190   20.5778 H   0  0  0  0  0  0
  -26.8082  -30.9350   21.9593 H   0  0  0  0  0  0
  -28.0786  -29.2040   21.1718 H   0  0  0  0  0  0
  -26.1380  -25.9777   19.0515 H   0  0  0  0  0  0
  -24.0069  -27.2605   19.0697 H   0  0  0  0  0  0
  -23.7089  -30.5819   19.4005 H   0  0  0  0  0  0
  -22.7386  -29.2216   19.8673 H   0  0  0  0  0  0
  -25.1280  -36.2010   25.0834 H   0  0  0  0  0  0
  -20.9918  -28.3198   24.1460 H   0  0  0  0  0  0
  -20.5632  -26.2233   23.3608 H   0  0  0  0  0  0
  -21.6618  -26.7407   22.1240 H   0  0  0  0  0  0
  -19.6899  -25.6302   21.1219 H   0  0  0  0  0  0
  -19.6689  -27.3202   20.6731 H   0  0  0  0  0  0
  -17.4172  -26.6656   21.4010 H   0  0  0  0  0  0
  -18.0300  -26.0062   22.8991 H   0  0  0  0  0  0
  -19.7926  -30.7212   24.2319 H   0  0  0  0  0  0
  -17.5016  -31.6256   24.5137 H   0  0  0  0  0  0
  -15.5348  -30.2985   23.7642 H   0  0  0  0  0  0
  -15.8646  -28.0828   22.7038 H   0  0  0  0  0  0
  -24.5907  -30.7057   25.7849 H   0  0  0  0  0  0
  -24.8963  -32.2830   26.4969 H   0  0  0  0  0  0
  -25.8141  -30.8838   27.0213 H   0  0  0  0  0  0
  -26.2748  -29.6846   24.1084 H   0  0  0  0  0  0
  -27.4097  -29.7251   25.4388 H   0  0  0  0  0  0
  -27.8549  -30.4411   23.9068 H   0  0  0  0  0  0
  -27.2636  -33.3589   26.2087 H   0  0  0  0  0  0
  -28.3805  -32.6903   25.0287 H   0  0  0  0  0  0
  -28.0721  -31.8417   26.5360 H   0  0  0  0  0  0
  -28.2570  -38.0127   24.7526 H   0  0  0  0  0  0
  -28.1102  -36.2661   24.6245 H   0  0  0  0  0  0
  -27.2309  -37.1418   25.8853 H   0  0  0  0  0  0
  -20.9276  -29.8760   21.7006 H   0  0  0  0  0  0
  -26.0187  -38.2894   24.1460 H   0  0  0  0  0  0
  -31.6169  -22.5019   22.6458 H   0  0  0  0  0  0
  -33.0999  -24.2217   16.9309 H   0  0  0  0  0  0
  -34.3324  -22.9978   16.3153 H   0  0  0  0  0  0
  -32.7886  -21.0960   16.8978 H   0  0  0  0  0  0
  -31.5419  -22.3122   17.4936 H   0  0  0  0  0  0
  -32.0008  -28.5159   19.1961 H   0  0  0  0  0  0
  -31.7143  -27.5219   17.7138 H   0  0  0  0  0  0
  -29.3099  -27.8605   17.8650 H   0  0  0  0  0  0
  -29.7338  -29.3456   18.8047 H   0  0  0  0  0  0
  -30.5491  -16.2748   23.4692 H   0  0  0  0  0  0
  -31.9467  -15.8138   22.5525 H   0  0  0  0  0  0
  -27.9312  -15.1132   21.4287 H   0  0  0  0  0  0
  -28.4449  -16.0108   22.7571 H   0  0  0  0  0  0
  -30.0744  -19.6607   18.4510 H   0  0  0  0  0  0
  -31.3473  -18.7710   19.3720 H   0  0  0  0  0  0
  -30.4750  -20.4798   22.1321 H   0  0  0  0  0  0
  -29.2558  -21.4134   21.1529 H   0  0  0  0  0  0
  -31.5363  -17.4569   20.8617 H   0  0  0  0  0  0
  -31.4167  -18.3095   22.3792 H   0  0  0  0  0  0
  -27.6443  -17.3682   20.7872 H   0  0  0  0  0  0
  -28.9769  -16.7624   19.8301 H   0  0  0  0  0  0
  -34.4428  -21.9592   18.5980 H   0  0  0  0  0  0
  -30.5984  -25.7629   18.9918 H   0  0  0  0  0  0
  -28.4448  -19.4593   20.1574 H   0  0  0  0  0  0
  -29.8703  -28.0630   20.9075 H   0  0  0  0  0  0
  -32.5220  -20.3194   21.3926 H   0  0  0  0  0  0
  -32.9583  -20.4817   19.7184 H   0  0  0  0  0  0
  -31.4959  -26.6386   21.5511 H   0  0  0  0  0  0
  -29.1160  -18.3262   22.2613 H   0  0  0  0  0  0
  1 25  1  0  0  0
  1 30  2  0  0  0
  1 92  1  0  0  0
  2  3  1  0  0  0
  2 25  1  0  0  0
  2 96  1  0  0  0
  2 97  1  0  0  0
  3  4  1  0  0  0
  3 98  1  0  0  0
  3 99  1  0  0  0
  4  5  1  0  0  0
  4100  1  0  0  0
  4101  1  0  0  0
  5  6  1  0  0  0
  5 26  1  0  0  0
  5102  1  0  0  0
  6 25  1  0  0  0
  6103  1  0  0  0
  6104  1  0  0  0
  7  8  2  0  0  0
  7 26  1  0  0  0
  7 29  1  0  0  0
  8  9  1  0  0  0
  8 22  1  0  0  0
  9 10  1  0  0  0
  9 27  2  0  0  0
 10 11  2  0  0  0
 10 15  1  0  0  0
 11 12  1  0  0  0
 11105  1  0  0  0
 12 13  2  0  0  0
 12106  1  0  0  0
 13 14  1  0  0  0
 13 31  1  0  0  0
 14 15  2  0  0  0
 14107  1  0  0  0
 15108  1  0  0  0
 16 17  2  0  0  0
 16 21  1  0  0  0
 16 31  1  0  0  0
 17 18  1  0  0  0
 17109  1  0  0  0
 18 19  2  0  0  0
 18110  1  0  0  0
 19 20  1  0  0  0
 19 24  1  0  0  0
 20 21  2  0  0  0
 20111  1  0  0  0
 21 23  1  0  0  0
 22 28  1  0  0  0
 22 32  2  0  0  0
 26 27  1  0  0  0
 28112  1  0  0  0
 28113  1  0  0  0
 29114  1  0  0  0
 29115  1  0  0  0
 33 34  1  0  0  0
 33 66  1  0  0  0
 33 70  2  0  0  0
 34 36  1  0  0  0
 34 59  1  0  0  0
 34116  1  0  0  0
 35 44  2  0  0  0
 35 45  1  0  0  0
 35 68  1  0  0  0
 36 56  1  0  0  0
 36117  1  0  0  0
 37 39  1  0  0  0
 37 47  1  0  0  0
 37 66  1  0  0  0
 37118  1  0  0  0
 38 43  2  0  0  0
 38 46  1  0  0  0
 38 47  1  0  0  0
 39 64  1  0  0  0
 39 67  2  0  0  0
 40 52  1  0  0  0
 40 53  2  0  0  0
 40 58  1  0  0  0
 41119  1  0  0  0
 41120  1  0  0  0
 41121  1  0  0  0
 41 48  1  0  0  0
 42 43  1  0  0  0
 42 66  1  0  0  0
 42122  1  0  0  0
 42123  1  0  0  0
 43 44  1  0  0  0
 44124  1  0  0  0
 45 46  2  0  0  0
 45125  1  0  0  0
 46126  1  0  0  0
 47127  1  0  0  0
 47128  1  0  0  0
 48 56  1  0  0  0
 48 65  1  0  0  0
 48129  1  0  0  0
 49 50  1  0  0  0
 49 53  1  0  0  0
 49 64  1  0  0  0
 49130  1  0  0  0
 50 51  1  0  0  0
 50131  1  0  0  0
 50132  1  0  0  0
 51 52  1  0  0  0
 51133  1  0  0  0
 51134  1  0  0  0
 52135  1  0  0  0
 52136  1  0  0  0
 53 54  1  0  0  0
 54 55  2  0  0  0
 54137  1  0  0  0
 55 57  1  0  0  0
 55138  1  0  0  0
 56 69  2  0  0  0
 57 58  2  0  0  0
 57139  1  0  0  0
 58140  1  0  0  0
 59 60  1  0  0  0
 59 61  1  0  0  0
 59 62  1  0  0  0
 60141  1  0  0  0
 60142  1  0  0  0
 60143  1  0  0  0
 61144  1  0  0  0
 61145  1  0  0  0
 61146  1  0  0  0
 62147  1  0  0  0
 62148  1  0  0  0
 62149  1  0  0  0
 63 65  1  0  0  0
 63150  1  0  0  0
 63151  1  0  0  0
 63152  1  0  0  0
 64153  1  0  0  0
 65154  1  0  0  0
 68 88  1  0  0  0
 71 72  2  0  0  0
 71 90  1  0  0  0
 71155  1  0  0  0
 72 73  1  0  0  0
 72 89  1  0  0  0
 73 91  2  0  0  0
 73 85  1  0  0  0
 74 90  2  0  0  0
 74 91  1  0  0  0
 74 94  1  0  0  0
 75 76  1  0  0  0
 75 85  1  0  0  0
 75156  1  0  0  0
 75157  1  0  0  0
 76 85  1  0  0  0
 76158  1  0  0  0
 76159  1  0  0  0
 77 78  1  0  0  0
 77 86  1  0  0  0
 77160  1  0  0  0
 77161  1  0  0  0
 78 88  1  0  0  0
 78162  1  0  0  0
 78163  1  0  0  0
 79 83  1  0  0  0
 79 92  1  0  0  0
 79164  1  0  0  0
 79165  1  0  0  0
 80 84  1  0  0  0
 80 92  1  0  0  0
 80166  1  0  0  0
 80167  1  0  0  0
 81 93  1  0  0  0
 81168  1  0  0  0
 81169  1  0  0  0
 81 87  1  0  0  0
 82 87  1  0  0  0
 82 93  1  0  0  0
 82170  1  0  0  0
 82171  1  0  0  0
 83172  1  0  0  0
 83173  1  0  0  0
 83 95  1  0  0  0
 84 95  1  0  0  0
 84174  1  0  0  0
 84175  1  0  0  0
 85176  1  0  0  0
 86 88  1  0  0  0
 86 94  1  0  0  0
 86177  1  0  0  0
 87 95  1  0  0  0
 87178  1  0  0  0
 88179  1  0  0  0
 89 93  1  0  0  0
 89180  1  0  0  0
 89181  1  0  0  0
 94182  1  0  0  0
 95183  1  0  0  0
M  CHG  1  95   1
M  ISO  4   1 100  68 101  88 101  92 100
M  END
> <chiral flag>
0

> <version>
0

> <s_m_source_file>
/data/baiqing/PycharmProjects/Reinvent-master-3.2/result/LINK_invent/BTK/process_docking_weight1_custom_sum_contain_oxygen_bond_distance_aromatic_linkinvent_7_9_3/rearranged_h_0195.sdf

> <i_m_source_file_index>
65

> <r_mmod_Potential_Energy-OPLS-2005>
-348.653381347656

> <r_mmod_Stretch_Energy-OPLS-2005>
41.1665840148926

> <r_mmod_Bend_Energy-OPLS-2005>
172.06575012207

> <r_mmod_Torsional_Energy-OPLS-2005>
473.340728759766

> <r_mmod_Improper_Torsional_Energy-OPLS-2005>
15.6227493286133

> <r_mmod_Van_der_Waal_Energy-OPLS-2005>
189.747467041016

> <r_mmod_Electrostatic_Energy-OPLS-2005>
-776.588684082031

> <r_mmod_Solvation_Energy-OPLS-2005>
-478.454620361328

> <b_mmod_Minimization_Converged-OPLS-2005>
0

> <r_mmod_RMS_Derivative-OPLS-2005>
5.34254693984985

$$$$
66
                    3D
 Structure written by MMmdl.
196207  0  0  1  0            999 V2000
  -30.7405  -14.5006   20.5559 C   0  0  0  0  0  0
  -30.4070  -12.3330   19.4049 C   0  0  0  0  0  0
  -29.4920  -12.5191   18.1783 C   0  0  0  0  0  0
  -28.0169  -12.3336   18.5924 C   0  0  0  0  0  0
  -27.6431  -13.1841   19.8373 C   0  0  2  0  0  0
  -28.6970  -13.0418   20.9628 C   0  0  0  0  0  0
  -25.2533  -13.8069   20.5585 C   0  0  0  0  0  0
  -24.1760  -13.0366   20.9118 C   0  0  0  0  0  0
  -24.6302  -11.6848   20.8674 C   0  0  0  0  0  0
  -23.8991  -10.4232   21.0378 C   0  0  0  0  0  0
  -24.3594   -9.4186   21.9186 C   0  0  0  0  0  0
  -23.6249   -8.2236   22.0792 C   0  0  0  0  0  0
  -22.4238   -8.0268   21.3569 C   0  0  0  0  0  0
  -21.9849   -9.0218   20.4677 C   0  0  0  0  0  0
  -22.7170  -10.2083   20.3033 C   0  0  0  0  0  0
  -21.6835   -6.0720   22.5294 C   0  0  0  0  0  0
  -21.3995   -6.5620   23.8224 C   0  0  0  0  0  0
  -21.3652   -5.6769   24.9185 C   0  0  0  0  0  0
  -21.6036   -4.3031   24.7238 C   0  0  0  0  0  0
  -21.8802   -3.8136   23.4351 C   0  0  0  0  0  0
  -21.9148   -4.6945   22.3407 C   0  0  0  0  0  0
  -22.7787  -13.5232   21.1756 C   0  0  0  0  0  0
  -22.1644   -4.2152   21.0986 F   0  0  0  0  0  0
  -21.5641   -3.4520   25.7742 F   0  0  0  0  0  0
  -30.0257  -13.3433   20.4066 N   0  0  0  0  0  0
  -26.2897  -12.9184   20.3152 N   0  0  0  0  0  0
  -25.9209  -11.6369   20.5640 N   0  0  0  0  0  0
  -22.0375  -12.8301   22.0353 N   0  0  0  0  0  0
  -25.4211  -15.1793   20.4034 N   0  0  0  0  0  0
  -31.8939  -14.6205   20.1366 O   0  0  0  0  0  0
  -21.6597   -6.8885   21.4270 O   0  0  0  0  0  0
  -22.3556  -14.5594   20.6671 O   0  0  0  0  0  0
  -24.6161  -31.8700   23.2218 C   0  0  0  0  0  0
  -25.9053  -32.4860   23.8491 C   0  0  1  0  0  0
  -27.2081  -27.4271   20.0533 C   0  0  0  0  0  0
  -25.5854  -33.8660   24.2384 N   0  0  0  0  0  0
  -23.4036  -30.5187   21.5484 C   0  0  2  0  0  0
  -24.8484  -28.9873   20.1190 C   0  0  0  0  0  0
  -22.7383  -29.4749   22.4787 C   0  0  0  0  0  0
  -18.0302  -28.1285   22.8373 C   0  0  0  0  0  0
  -24.1433  -36.7414   23.2633 C   0  0  0  0  0  0
  -25.9448  -30.8390   21.3721 C   0  0  0  0  0  0
  -26.0250  -29.4740   20.7081 C   0  0  0  0  0  0
  -27.2153  -28.7065   20.6669 C   0  0  0  0  0  0
  -26.0122  -26.9870   19.4633 C   0  0  0  0  0  0
  -24.8344  -27.7331   19.5035 C   0  0  0  0  0  0
  -23.6306  -29.8770   20.1570 C   0  0  0  0  0  0
  -25.4015  -36.3173   24.0367 C   0  0  1  0  0  0
  -20.5865  -28.3660   23.1157 C   0  0  2  0  0  0
  -20.6821  -26.9356   22.5232 C   0  0  0  0  0  0
  -19.5807  -26.6313   21.5038 C   0  0  0  0  0  0
  -18.1951  -26.7868   22.1325 C   0  0  0  0  0  0
  -19.1516  -28.8775   23.2742 C   0  0  0  0  0  0
  -18.9327  -30.1396   23.8706 C   0  0  0  0  0  0
  -17.6306  -30.6388   24.0520 C   0  0  0  0  0  0
  -25.8953  -34.9546   23.5181 C   0  0  0  0  0  0
  -16.5249  -29.8827   23.6326 C   0  0  0  0  0  0
  -16.7247  -28.6301   23.0234 C   0  0  0  0  0  0
  -26.4461  -31.6627   25.0805 C   0  0  0  0  0  0
  -25.3849  -31.3727   26.1649 C   0  0  0  0  0  0
  -27.0199  -30.3026   24.6198 C   0  0  0  0  0  0
  -27.5990  -32.4379   25.7594 C   0  0  0  0  0  0
  -27.5562  -37.1860   24.8460 C   0  0  0  0  0  0
  -21.4080  -29.3085   22.3580 N   0  0  0  0  0  0
  -26.4229  -37.3850   23.9464 N   0  0  0  0  0  0
  -24.6719  -31.0842   22.1075 N   0  0  0  0  0  0
  -23.4193  -28.8183   23.2724 O   0  0  0  0  0  0
  -28.3323  -26.6308   19.9946 O   0  0  0  0  0  0
  -26.5575  -34.8989   22.4812 O   0  0  0  0  0  0
  -23.5389  -32.1407   23.7722 O   0  0  0  0  0  0
  -30.7972  -23.6495   16.5849 C   0  0  0  0  0  0
  -29.7651  -22.8284   17.0858 C   0  0  0  0  0  0
  -32.3868  -22.1820   17.4142 C   0  0  0  0  0  0
  -31.3465  -21.3123   17.8898 C   0  0  0  0  0  0
  -35.0706  -24.9940   19.5832 C   0  0  0  0  0  0
  -33.6866  -25.1913   19.0060 C   0  0  0  0  0  0
  -27.6618  -24.0871   15.9210 C   0  0  0  0  0  0
  -29.0146  -16.2462   20.4412 C   0  0  0  0  0  0
  -30.8531  -16.4565   22.0722 C   0  0  0  0  0  0
  -26.9446  -24.8436   17.0297 C   0  0  0  0  0  0
  -29.1718  -17.7681   20.2215 C   0  0  0  0  0  0
  -31.1855  -17.9006   21.5613 C   0  0  0  0  0  0
  -28.2993  -23.2733   17.0547 C   0  0  2  0  0  0
  -34.2439  -23.7906   19.1818 C   0  0  0  0  0  0
  -32.6140  -18.8196   16.4271 C   0  0  0  0  0  0
  -26.3203  -23.5141   19.6590 C   0  0  0  0  0  0
  -33.8886  -21.9228   17.5767 C   0  0  0  0  0  0
  -31.4673  -18.8005   17.4518 C   0  0  0  0  0  0
  -30.7021  -19.6626   19.8026 C   0  0  0  0  0  0
  -28.1698  -25.2456   20.4035 C   0  0  0  0  0  0
  -31.5735  -19.9107   18.5204 C   0  0  2  0  0  0
  -27.7261  -24.1268   19.3872 C   0  0  2  0  0  0
  -32.1005  -23.3336   16.7499 N   0  0  0  0  0  0
  -30.0411  -21.6500   17.6971 N   0  0  0  0  0  0
  -30.1292  -15.5719   21.1299 N   0  0  0  0  0  0
  -30.5831  -18.2243   20.2419 N   0  3  0  0  0  0
  -28.0263  -24.4263   17.9409 N   0  3  2  0  0  0
  -34.6516  -23.1432   17.9086 N   0  3  0  0  0  0
  -31.4602  -12.3880   19.1189 H   0  0  0  0  0  0
  -30.2647  -11.3372   19.8224 H   0  0  0  0  0  0
  -29.7624  -11.8159   17.3901 H   0  0  0  0  0  0
  -29.6338  -13.5151   17.7524 H   0  0  0  0  0  0
  -27.8561  -11.2761   18.8101 H   0  0  0  0  0  0
  -27.3644  -12.5713   17.7496 H   0  0  0  0  0  0
  -27.6372  -14.2036   19.4819 H   0  0  0  0  0  0
  -28.6805  -12.0285   21.3573 H   0  0  0  0  0  0
  -28.4522  -13.6845   21.8058 H   0  0  0  0  0  0
  -25.2756   -9.5688   22.4749 H   0  0  0  0  0  0
  -23.9960   -7.4635   22.7518 H   0  0  0  0  0  0
  -21.0778   -8.8718   19.9003 H   0  0  0  0  0  0
  -22.3646  -10.9611   19.6137 H   0  0  0  0  0  0
  -21.2049   -7.6127   23.9754 H   0  0  0  0  0  0
  -21.1482   -6.0491   25.9098 H   0  0  0  0  0  0
  -22.0594   -2.7600   23.2812 H   0  0  0  0  0  0
  -22.3875  -11.9960   22.4820 H   0  0  0  0  0  0
  -21.1044  -13.1493   22.2498 H   0  0  0  0  0  0
  -24.6463  -15.8263   20.4946 H   0  0  0  0  0  0
  -26.2634  -15.6162   20.0564 H   0  0  0  0  0  0
  -26.7084  -32.5625   23.1219 H   0  0  0  0  0  0
  -24.9976  -33.9865   25.0495 H   0  0  0  0  0  0
  -22.6950  -31.3412   21.4141 H   0  0  0  0  0  0
  -23.3670  -35.9783   23.3241 H   0  0  0  0  0  0
  -24.3469  -36.9101   22.2045 H   0  0  0  0  0  0
  -23.7236  -37.6637   23.6669 H   0  0  0  0  0  0
  -26.0657  -31.6011   20.6024 H   0  0  0  0  0  0
  -26.8291  -30.8995   21.9916 H   0  0  0  0  0  0
  -28.1336  -29.0808   21.1024 H   0  0  0  0  0  0
  -25.9538  -26.0691   18.9268 H   0  0  0  0  0  0
  -23.9337  -27.3515   19.0389 H   0  0  0  0  0  0
  -22.7445  -29.3407   19.8127 H   0  0  0  0  0  0
  -23.7849  -30.6656   19.4160 H   0  0  0  0  0  0
  -25.1144  -36.2078   25.0850 H   0  0  0  0  0  0
  -21.0037  -28.3352   24.1280 H   0  0  0  0  0  0
  -20.5716  -26.2262   23.3436 H   0  0  0  0  0  0
  -21.6682  -26.7320   22.1025 H   0  0  0  0  0  0
  -19.6856  -25.6174   21.1137 H   0  0  0  0  0  0
  -19.6878  -27.3044   20.6505 H   0  0  0  0  0  0
  -17.4370  -26.6963   21.3547 H   0  0  0  0  0  0
  -18.0077  -25.9790   22.8400 H   0  0  0  0  0  0
  -19.7769  -30.7374   24.1913 H   0  0  0  0  0  0
  -17.4731  -31.6026   24.5189 H   0  0  0  0  0  0
  -15.5195  -30.2593   23.7619 H   0  0  0  0  0  0
  -15.8691  -28.0633   22.6835 H   0  0  0  0  0  0
  -24.6054  -30.6963   25.8114 H   0  0  0  0  0  0
  -24.9027  -32.2874   26.5167 H   0  0  0  0  0  0
  -25.8460  -30.8981   27.0336 H   0  0  0  0  0  0
  -26.2687  -29.6800   24.1318 H   0  0  0  0  0  0
  -27.3884  -29.7302   25.4701 H   0  0  0  0  0  0
  -27.8589  -30.4112   23.9334 H   0  0  0  0  0  0
  -27.2488  -33.3629   26.2193 H   0  0  0  0  0  0
  -28.3839  -32.7027   25.0508 H   0  0  0  0  0  0
  -28.0540  -31.8503   26.5572 H   0  0  0  0  0  0
  -28.2544  -38.0174   24.7489 H   0  0  0  0  0  0
  -28.1079  -36.2749   24.6174 H   0  0  0  0  0  0
  -27.2347  -37.1417   25.8876 H   0  0  0  0  0  0
  -20.9162  -29.8849   21.6888 H   0  0  0  0  0  0
  -26.0131  -38.2947   24.1480 H   0  0  0  0  0  0
  -30.5884  -24.5904   16.1076 H   0  0  0  0  0  0
  -35.1733  -25.2120   20.6479 H   0  0  0  0  0  0
  -35.9423  -25.2378   18.9771 H   0  0  0  0  0  0
  -33.6203  -25.6192   18.0050 H   0  0  0  0  0  0
  -32.8972  -25.4894   19.6912 H   0  0  0  0  0  0
  -28.3484  -24.7190   15.3554 H   0  0  0  0  0  0
  -26.9874  -23.5382   15.2570 H   0  0  0  0  0  0
  -28.8974  -15.8320   19.4414 H   0  0  0  0  0  0
  -28.0916  -16.0515   20.9823 H   0  0  0  0  0  0
  -30.2206  -16.5344   22.9584 H   0  0  0  0  0  0
  -31.7714  -15.9766   22.4222 H   0  0  0  0  0  0
  -25.9519  -24.4202   17.2043 H   0  0  0  0  0  0
  -26.9010  -25.9195   16.8831 H   0  0  0  0  0  0
  -28.6260  -18.3039   21.0005 H   0  0  0  0  0  0
  -28.6826  -18.0563   19.2861 H   0  0  0  0  0  0
  -32.2648  -18.0572   21.5217 H   0  0  0  0  0  0
  -30.8109  -18.6190   22.2955 H   0  0  0  0  0  0
  -27.6541  -22.4188   17.2732 H   0  0  0  0  0  0
  -33.8999  -23.1277   19.9758 H   0  0  0  0  0  0
  -32.5491  -17.9688   15.7458 H   0  0  0  0  0  0
  -33.5794  -18.7550   16.9332 H   0  0  0  0  0  0
  -32.6271  -19.7200   15.8126 H   0  0  0  0  0  0
  -26.2015  -23.2249   20.7075 H   0  0  0  0  0  0
  -26.1521  -22.6134   19.0661 H   0  0  0  0  0  0
  -25.4920  -24.1768   19.4392 H   0  0  0  0  0  0
  -34.2602  -21.5165   16.6317 H   0  0  0  0  0  0
  -34.0947  -21.1884   18.3453 H   0  0  0  0  0  0
  -31.5100  -17.8193   17.9241 H   0  0  0  0  0  0
  -30.4974  -18.8582   16.9517 H   0  0  0  0  0  0
  -29.6939  -20.0441   19.6374 H   0  0  0  0  0  0
  -31.0800  -20.2839   20.6184 H   0  0  0  0  0  0
  -29.1477  -24.9580   20.7919 H   0  0  0  0  0  0
  -27.5413  -25.1970   21.2931 H   0  0  0  0  0  0
  -32.5934  -19.8661   18.8961 H   0  0  0  0  0  0
  -28.4003  -23.3028   19.6343 H   0  0  0  0  0  0
  -31.0862  -17.6714   19.5606 H   0  0  0  0  0  0
  -28.7928  -25.0807   17.8616 H   0  0  0  0  0  0
  -35.6231  -22.8818   17.9649 H   0  0  0  0  0  0
  -34.5485  -23.7891   17.1441 H   0  0  0  0  0  0
  1 25  1  0  0  0
  1 30  2  0  0  0
  1 95  1  0  0  0
  2  3  1  0  0  0
  2 25  1  0  0  0
  2 99  1  0  0  0
  2100  1  0  0  0
  3  4  1  0  0  0
  3101  1  0  0  0
  3102  1  0  0  0
  4  5  1  0  0  0
  4103  1  0  0  0
  4104  1  0  0  0
  5  6  1  0  0  0
  5 26  1  0  0  0
  5105  1  0  0  0
  6 25  1  0  0  0
  6106  1  0  0  0
  6107  1  0  0  0
  7  8  2  0  0  0
  7 26  1  0  0  0
  7 29  1  0  0  0
  8  9  1  0  0  0
  8 22  1  0  0  0
  9 10  1  0  0  0
  9 27  2  0  0  0
 10 11  2  0  0  0
 10 15  1  0  0  0
 11 12  1  0  0  0
 11108  1  0  0  0
 12 13  2  0  0  0
 12109  1  0  0  0
 13 14  1  0  0  0
 13 31  1  0  0  0
 14 15  2  0  0  0
 14110  1  0  0  0
 15111  1  0  0  0
 16 17  2  0  0  0
 16 21  1  0  0  0
 16 31  1  0  0  0
 17 18  1  0  0  0
 17112  1  0  0  0
 18 19  2  0  0  0
 18113  1  0  0  0
 19 20  1  0  0  0
 19 24  1  0  0  0
 20 21  2  0  0  0
 20114  1  0  0  0
 21 23  1  0  0  0
 22 28  1  0  0  0
 22 32  2  0  0  0
 26 27  1  0  0  0
 28115  1  0  0  0
 28116  1  0  0  0
 29117  1  0  0  0
 29118  1  0  0  0
 33 34  1  0  0  0
 33 66  1  0  0  0
 33 70  2  0  0  0
 34 36  1  0  0  0
 34 59  1  0  0  0
 34119  1  0  0  0
 35 44  2  0  0  0
 35 45  1  0  0  0
 35 68  1  0  0  0
 36 56  1  0  0  0
 36120  1  0  0  0
 37 39  1  0  0  0
 37 47  1  0  0  0
 37 66  1  0  0  0
 37121  1  0  0  0
 38 43  2  0  0  0
 38 46  1  0  0  0
 38 47  1  0  0  0
 39 64  1  0  0  0
 39 67  2  0  0  0
 40 52  1  0  0  0
 40 53  2  0  0  0
 40 58  1  0  0  0
 41122  1  0  0  0
 41123  1  0  0  0
 41124  1  0  0  0
 41 48  1  0  0  0
 42 43  1  0  0  0
 42 66  1  0  0  0
 42125  1  0  0  0
 42126  1  0  0  0
 43 44  1  0  0  0
 44127  1  0  0  0
 45 46  2  0  0  0
 45128  1  0  0  0
 46129  1  0  0  0
 47130  1  0  0  0
 47131  1  0  0  0
 48 56  1  0  0  0
 48 65  1  0  0  0
 48132  1  0  0  0
 49 50  1  0  0  0
 49 53  1  0  0  0
 49 64  1  0  0  0
 49133  1  0  0  0
 50 51  1  0  0  0
 50134  1  0  0  0
 50135  1  0  0  0
 51 52  1  0  0  0
 51136  1  0  0  0
 51137  1  0  0  0
 52138  1  0  0  0
 52139  1  0  0  0
 53 54  1  0  0  0
 54 55  2  0  0  0
 54140  1  0  0  0
 55 57  1  0  0  0
 55141  1  0  0  0
 56 69  2  0  0  0
 57 58  2  0  0  0
 57142  1  0  0  0
 58143  1  0  0  0
 59 60  1  0  0  0
 59 61  1  0  0  0
 59 62  1  0  0  0
 60144  1  0  0  0
 60145  1  0  0  0
 60146  1  0  0  0
 61147  1  0  0  0
 61148  1  0  0  0
 61149  1  0  0  0
 62150  1  0  0  0
 62151  1  0  0  0
 62152  1  0  0  0
 63 65  1  0  0  0
 63153  1  0  0  0
 63154  1  0  0  0
 63155  1  0  0  0
 64156  1  0  0  0
 65157  1  0  0  0
 68 90  1  0  0  0
 71 72  2  0  0  0
 71 93  1  0  0  0
 71158  1  0  0  0
 72 94  1  0  0  0
 72 83  1  0  0  0
 73 74  1  0  0  0
 73 87  1  0  0  0
 73 93  2  0  0  0
 74 91  1  0  0  0
 74 94  2  0  0  0
 75 76  1  0  0  0
 75 84  1  0  0  0
 75159  1  0  0  0
 75160  1  0  0  0
 76 84  1  0  0  0
 76161  1  0  0  0
 76162  1  0  0  0
 77 80  1  0  0  0
 77 83  1  0  0  0
 77163  1  0  0  0
 77164  1  0  0  0
 78 81  1  0  0  0
 78 95  1  0  0  0
 78165  1  0  0  0
 78166  1  0  0  0
 79 82  1  0  0  0
 79 95  1  0  0  0
 79167  1  0  0  0
 79168  1  0  0  0
 80169  1  0  0  0
 80170  1  0  0  0
 80 97  1  0  0  0
 81 96  1  0  0  0
 81171  1  0  0  0
 81172  1  0  0  0
 82 96  1  0  0  0
 82173  1  0  0  0
 82174  1  0  0  0
 83 97  1  0  0  0
 83175  1  0  0  0
 84 98  1  0  0  0
 84176  1  0  0  0
 85 88  1  0  0  0
 85177  1  0  0  0
 85178  1  0  0  0
 85179  1  0  0  0
 86180  1  0  0  0
 86181  1  0  0  0
 86182  1  0  0  0
 86 92  1  0  0  0
 87 98  1  0  0  0
 87183  1  0  0  0
 87184  1  0  0  0
 88185  1  0  0  0
 88186  1  0  0  0
 88 91  1  0  0  0
 89 91  1  0  0  0
 89187  1  0  0  0
 89188  1  0  0  0
 89 96  1  0  0  0
 90 92  1  0  0  0
 90189  1  0  0  0
 90190  1  0  0  0
 91191  1  0  0  0
 92 97  1  0  0  0
 92192  1  0  0  0
 96193  1  0  0  0
 97194  1  0  0  0
 98195  1  0  0  0
 98196  1  0  0  0
M  CHG  3  96   1  97   1  98   1
M  ISO  4   1 100  68 101  90 101  95 100
M  END
> <chiral flag>
0

> <version>
0

> <s_m_source_file>
/data/baiqing/PycharmProjects/Reinvent-master-3.2/result/LINK_invent/BTK/process_docking_weight1_custom_sum_contain_oxygen_bond_distance_aromatic_linkinvent_7_9_3/rearranged_h_0195.sdf

> <i_m_source_file_index>
66

> <r_mmod_Potential_Energy-OPLS-2005>
-42.7318077087402

> <r_mmod_Stretch_Energy-OPLS-2005>
63.5335006713867

> <r_mmod_Bend_Energy-OPLS-2005>
179.372680664062

> <r_mmod_Torsional_Energy-OPLS-2005>
502.193817138672

> <r_mmod_Improper_Torsional_Energy-OPLS-2005>
4.54939603805542

> <r_mmod_Van_der_Waal_Energy-OPLS-2005>
166.961868286133

> <r_mmod_Electrostatic_Energy-OPLS-2005>
495.164489746094

> <r_mmod_Solvation_Energy-OPLS-2005>
-1477.48889160156

> <b_mmod_Minimization_Converged-OPLS-2005>
0

> <r_mmod_RMS_Derivative-OPLS-2005>
9.76133251190186

$$$$
67
                    3D
 Structure written by MMmdl.
166175  0  0  1  0            999 V2000
  -30.7293  -14.5715   20.5661 C   0  0  0  0  0  0
  -30.4292  -12.3779   19.4440 C   0  0  0  0  0  0
  -29.5000  -12.4938   18.2181 C   0  0  0  0  0  0
  -28.0289  -12.2933   18.6342 C   0  0  0  0  0  0
  -27.6412  -13.1706   19.8468 C   0  0  2  0  0  0
  -28.6949  -13.0710   20.9802 C   0  0  0  0  0  0
  -25.2570  -13.8043   20.5633 C   0  0  0  0  0  0
  -24.1777  -13.0393   20.9167 C   0  0  0  0  0  0
  -24.6294  -11.6840   20.8734 C   0  0  0  0  0  0
  -23.8949  -10.4272   21.0452 C   0  0  0  0  0  0
  -24.3550   -9.4189   21.9206 C   0  0  0  0  0  0
  -23.6259   -8.2209   22.0755 C   0  0  0  0  0  0
  -22.4236   -8.0249   21.3548 C   0  0  0  0  0  0
  -21.9849   -9.0212   20.4660 C   0  0  0  0  0  0
  -22.7153  -10.2097   20.3071 C   0  0  0  0  0  0
  -21.6832   -6.0714   22.5276 C   0  0  0  0  0  0
  -21.4009   -6.5611   23.8213 C   0  0  0  0  0  0
  -21.3655   -5.6761   24.9161 C   0  0  0  0  0  0
  -21.6016   -4.3019   24.7215 C   0  0  0  0  0  0
  -21.8826   -3.8132   23.4333 C   0  0  0  0  0  0
  -21.9202   -4.6955   22.3397 C   0  0  0  0  0  0
  -22.7837  -13.5245   21.1840 C   0  0  0  0  0  0
  -22.1677   -4.2152   21.0978 F   0  0  0  0  0  0
  -21.5645   -3.4494   25.7723 F   0  0  0  0  0  0
  -30.0126  -13.4086   20.4199 N   0  0  0  0  0  0
  -26.2897  -12.9110   20.3245 N   0  0  0  0  0  0
  -25.9187  -11.6319   20.5715 N   0  0  0  0  0  0
  -22.0438  -12.8274   22.0383 N   0  0  0  0  0  0
  -25.4381  -15.1750   20.3999 N   0  0  0  0  0  0
  -31.8942  -14.6419   20.1672 O   0  0  0  0  0  0
  -21.6616   -6.8842   21.4235 O   0  0  0  0  0  0
  -22.3538  -14.5563   20.6674 O   0  0  0  0  0  0
  -24.6123  -31.8668   23.2075 C   0  0  0  0  0  0
  -25.9000  -32.4826   23.8378 C   0  0  1  0  0  0
  -27.2533  -27.4288   20.1495 C   0  0  0  0  0  0
  -25.5846  -33.8624   24.2310 N   0  0  0  0  0  0
  -23.4047  -30.4842   21.5449 C   0  0  2  0  0  0
  -24.8609  -28.9474   20.1161 C   0  0  0  0  0  0
  -22.7415  -29.4627   22.4978 C   0  0  0  0  0  0
  -18.0265  -28.1370   22.8477 C   0  0  0  0  0  0
  -24.1473  -36.7325   23.2644 C   0  0  0  0  0  0
  -25.9267  -30.8417   21.3540 C   0  0  0  0  0  0
  -26.0125  -29.4697   20.7184 C   0  0  0  0  0  0
  -27.2104  -28.7209   20.7326 C   0  0  0  0  0  0
  -26.0942  -26.9390   19.5102 C   0  0  0  0  0  0
  -24.8973  -27.6837   19.5028 C   0  0  0  0  0  0
  -23.6174  -29.8072   20.1620 C   0  0  0  0  0  0
  -25.4092  -36.3119   24.0344 C   0  0  1  0  0  0
  -20.5858  -28.3649   23.1313 C   0  0  2  0  0  0
  -20.6729  -26.9374   22.5424 C   0  0  0  0  0  0
  -19.5732  -26.6376   21.5191 C   0  0  0  0  0  0
  -18.1906  -26.7911   22.1605 C   0  0  0  0  0  0
  -19.1521  -28.8823   23.2894 C   0  0  0  0  0  0
  -18.9452  -30.1424   23.8913 C   0  0  0  0  0  0
  -17.6461  -30.6574   24.0564 C   0  0  0  0  0  0
  -25.9016  -34.9477   23.5133 C   0  0  0  0  0  0
  -16.5350  -29.9086   23.6325 C   0  0  0  0  0  0
  -16.7259  -28.6507   23.0340 C   0  0  0  0  0  0
  -26.4447  -31.6613   25.0694 C   0  0  0  0  0  0
  -25.3735  -31.3732   26.1473 C   0  0  0  0  0  0
  -27.0265  -30.3064   24.6017 C   0  0  0  0  0  0
  -27.6021  -32.4343   25.7453 C   0  0  0  0  0  0
  -27.5580  -37.1810   24.8466 C   0  0  0  0  0  0
  -21.4135  -29.3024   22.3728 N   0  0  0  0  0  0
  -26.4287  -37.3800   23.9415 N   0  0  0  0  0  0
  -24.6655  -31.0784   22.0963 N   0  0  0  0  0  0
  -23.4189  -28.8166   23.3019 O   0  0  0  0  0  0
  -28.3622  -26.6013   20.1663 O   0  0  0  0  0  0
  -26.5597  -34.8940   22.4710 O   0  0  0  0  0  0
  -23.5301  -32.1384   23.7473 O   0  0  0  0  0  0
  -28.7895  -17.7093   20.7234 C   0  0  0  0  0  0
  -28.7993  -16.1820   20.7393 C   0  0  0  0  0  0
  -30.9297  -16.9250   21.4200 C   0  0  0  0  0  0
  -30.9930  -20.3239   22.3897 C   0  0  0  0  0  0
  -29.5452  -20.5492   20.9852 C   0  0  0  0  0  0
  -30.5337  -21.5609   21.5817 C   0  0  1  0  0  0
  -29.9510  -18.1182   21.6117 C   0  0  1  0  0  0
  -30.5715  -27.0932   20.9868 C   0  0  0  0  0  0
  -30.0384  -22.8457   22.2981 C   0  0  0  0  0  0
  -29.1797  -25.1943   22.1050 C   0  0  0  0  0  0
  -29.1785  -26.5675   21.3531 C   0  0  2  0  0  0
  -30.1422  -15.7033   21.0941 N   0  0  0  0  0  0
  -30.5089  -19.4780   21.2891 N   0  3  2  0  0  0
  -29.8285  -24.0362   21.4123 N   0  3  0  0  0  0
  -31.4699  -12.4844   19.1340 H   0  0  0  0  0  0
  -30.3581  -11.3848   19.8912 H   0  0  0  0  0  0
  -29.7806  -11.7601   17.4593 H   0  0  0  0  0  0
  -29.6196  -13.4748   17.7565 H   0  0  0  0  0  0
  -27.8894  -11.2423   18.8866 H   0  0  0  0  0  0
  -27.3692  -12.4958   17.7901 H   0  0  0  0  0  0
  -27.6144  -14.1641   19.4269 H   0  0  0  0  0  0
  -28.7160  -12.0580   21.3841 H   0  0  0  0  0  0
  -28.4407  -13.7046   21.8271 H   0  0  0  0  0  0
  -25.2725   -9.5661   22.4732 H   0  0  0  0  0  0
  -23.9990   -7.4582   22.7425 H   0  0  0  0  0  0
  -21.0794   -8.8711   19.8948 H   0  0  0  0  0  0
  -22.3648  -10.9617   19.6147 H   0  0  0  0  0  0
  -21.1994   -7.6120   23.9700 H   0  0  0  0  0  0
  -21.1476   -6.0495   25.9059 H   0  0  0  0  0  0
  -22.0630   -2.7606   23.2816 H   0  0  0  0  0  0
  -22.4058  -11.9925   22.4763 H   0  0  0  0  0  0
  -21.1072  -13.1350   22.2606 H   0  0  0  0  0  0
  -24.6787  -15.8397   20.4976 H   0  0  0  0  0  0
  -26.2898  -15.5972   20.0556 H   0  0  0  0  0  0
  -26.7083  -32.5565   23.1170 H   0  0  0  0  0  0
  -24.9944  -33.9787   25.0416 H   0  0  0  0  0  0
  -22.6925  -31.2990   21.3971 H   0  0  0  0  0  0
  -23.3726  -35.9674   23.3327 H   0  0  0  0  0  0
  -24.3548  -36.8920   22.2055 H   0  0  0  0  0  0
  -23.7253  -37.6550   23.6637 H   0  0  0  0  0  0
  -26.0184  -31.5967   20.5721 H   0  0  0  0  0  0
  -26.8232  -30.9181   21.9574 H   0  0  0  0  0  0
  -28.0903  -29.1412   21.1970 H   0  0  0  0  0  0
  -26.1168  -25.9622   19.0450 H   0  0  0  0  0  0
  -24.0166  -27.2761   19.0258 H   0  0  0  0  0  0
  -23.7213  -30.5728   19.3925 H   0  0  0  0  0  0
  -22.7498  -29.2117   19.8711 H   0  0  0  0  0  0
  -25.1274  -36.1981   25.0839 H   0  0  0  0  0  0
  -20.9944  -28.3199   24.1436 H   0  0  0  0  0  0
  -20.5551  -26.2258   23.3615 H   0  0  0  0  0  0
  -21.6617  -26.7355   22.1279 H   0  0  0  0  0  0
  -19.6875  -25.6285   21.1220 H   0  0  0  0  0  0
  -19.6669  -27.3185   20.6716 H   0  0  0  0  0  0
  -17.4164  -26.6642   21.4021 H   0  0  0  0  0  0
  -18.0327  -26.0059   22.9010 H   0  0  0  0  0  0
  -19.7937  -30.7224   24.2293 H   0  0  0  0  0  0
  -17.5029  -31.6248   24.5175 H   0  0  0  0  0  0
  -15.5360  -30.3004   23.7630 H   0  0  0  0  0  0
  -15.8652  -28.0839   22.7040 H   0  0  0  0  0  0
  -24.5863  -30.7128   25.7829 H   0  0  0  0  0  0
  -24.8985  -32.2902   26.4966 H   0  0  0  0  0  0
  -25.8114  -30.8867   27.0198 H   0  0  0  0  0  0
  -26.2763  -29.6852   24.1104 H   0  0  0  0  0  0
  -27.4097  -29.7281   25.4436 H   0  0  0  0  0  0
  -27.8576  -30.4414   23.9094 H   0  0  0  0  0  0
  -27.2604  -33.3605   26.2094 H   0  0  0  0  0  0
  -28.3785  -32.6983   25.0261 H   0  0  0  0  0  0
  -28.0738  -31.8439   26.5323 H   0  0  0  0  0  0
  -28.2618  -38.0089   24.7500 H   0  0  0  0  0  0
  -28.1051  -36.2621   24.6287 H   0  0  0  0  0  0
  -27.2292  -37.1478   25.8870 H   0  0  0  0  0  0
  -20.9280  -29.8791   21.7000 H   0  0  0  0  0  0
  -26.0177  -38.2884   24.1413 H   0  0  0  0  0  0
  -27.8327  -18.1191   21.0584 H   0  0  0  0  0  0
  -28.9521  -18.0539   19.7018 H   0  0  0  0  0  0
  -28.5459  -15.8809   19.7293 H   0  0  0  0  0  0
  -28.0603  -15.8143   21.4505 H   0  0  0  0  0  0
  -31.5297  -16.7648   22.3169 H   0  0  0  0  0  0
  -31.6188  -17.1394   20.6019 H   0  0  0  0  0  0
  -30.4331  -20.1809   23.3170 H   0  0  0  0  0  0
  -32.0681  -20.2563   22.5564 H   0  0  0  0  0  0
  -29.3416  -20.6838   19.9232 H   0  0  0  0  0  0
  -28.6208  -20.4639   21.5612 H   0  0  0  0  0  0
  -31.3167  -21.7985   20.8551 H   0  0  0  0  0  0
  -29.5891  -18.1128   22.6434 H   0  0  0  0  0  0
  -31.2244  -27.1274   21.8584 H   0  0  0  0  0  0
  -30.4980  -28.1073   20.5899 H   0  0  0  0  0  0
  -31.0473  -26.4806   20.2235 H   0  0  0  0  0  0
  -30.7600  -23.1238   23.0695 H   0  0  0  0  0  0
  -29.1102  -22.6373   22.8318 H   0  0  0  0  0  0
  -28.1572  -24.9240   22.3769 H   0  0  0  0  0  0
  -29.6992  -25.3523   23.0524 H   0  0  0  0  0  0
  -28.7780  -27.2550   22.0994 H   0  0  0  0  0  0
  -31.1898  -19.4288   20.5457 H   0  0  0  0  0  0
  -29.2526  -23.7790   20.6253 H   0  0  0  0  0  0
  -30.7254  -24.3235   21.0497 H   0  0  0  0  0  0
  1 25  1  0  0  0
  1 30  2  0  0  0
  1 82  1  0  0  0
  2  3  1  0  0  0
  2 25  1  0  0  0
  2 85  1  0  0  0
  2 86  1  0  0  0
  3  4  1  0  0  0
  3 87  1  0  0  0
  3 88  1  0  0  0
  4  5  1  0  0  0
  4 89  1  0  0  0
  4 90  1  0  0  0
  5  6  1  0  0  0
  5 26  1  0  0  0
  5 91  1  0  0  0
  6 25  1  0  0  0
  6 92  1  0  0  0
  6 93  1  0  0  0
  7  8  2  0  0  0
  7 26  1  0  0  0
  7 29  1  0  0  0
  8  9  1  0  0  0
  8 22  1  0  0  0
  9 10  1  0  0  0
  9 27  2  0  0  0
 10 11  2  0  0  0
 10 15  1  0  0  0
 11 12  1  0  0  0
 11 94  1  0  0  0
 12 13  2  0  0  0
 12 95  1  0  0  0
 13 14  1  0  0  0
 13 31  1  0  0  0
 14 15  2  0  0  0
 14 96  1  0  0  0
 15 97  1  0  0  0
 16 17  2  0  0  0
 16 21  1  0  0  0
 16 31  1  0  0  0
 17 18  1  0  0  0
 17 98  1  0  0  0
 18 19  2  0  0  0
 18 99  1  0  0  0
 19 20  1  0  0  0
 19 24  1  0  0  0
 20 21  2  0  0  0
 20100  1  0  0  0
 21 23  1  0  0  0
 22 28  1  0  0  0
 22 32  2  0  0  0
 26 27  1  0  0  0
 28101  1  0  0  0
 28102  1  0  0  0
 29103  1  0  0  0
 29104  1  0  0  0
 33 34  1  0  0  0
 33 66  1  0  0  0
 33 70  2  0  0  0
 34 36  1  0  0  0
 34 59  1  0  0  0
 34105  1  0  0  0
 35 44  2  0  0  0
 35 45  1  0  0  0
 35 68  1  0  0  0
 36 56  1  0  0  0
 36106  1  0  0  0
 37 39  1  0  0  0
 37 47  1  0  0  0
 37 66  1  0  0  0
 37107  1  0  0  0
 38 43  2  0  0  0
 38 46  1  0  0  0
 38 47  1  0  0  0
 39 64  1  0  0  0
 39 67  2  0  0  0
 40 52  1  0  0  0
 40 53  2  0  0  0
 40 58  1  0  0  0
 41108  1  0  0  0
 41109  1  0  0  0
 41110  1  0  0  0
 41 48  1  0  0  0
 42 43  1  0  0  0
 42 66  1  0  0  0
 42111  1  0  0  0
 42112  1  0  0  0
 43 44  1  0  0  0
 44113  1  0  0  0
 45 46  2  0  0  0
 45114  1  0  0  0
 46115  1  0  0  0
 47116  1  0  0  0
 47117  1  0  0  0
 48 56  1  0  0  0
 48 65  1  0  0  0
 48118  1  0  0  0
 49 50  1  0  0  0
 49 53  1  0  0  0
 49 64  1  0  0  0
 49119  1  0  0  0
 50 51  1  0  0  0
 50120  1  0  0  0
 50121  1  0  0  0
 51 52  1  0  0  0
 51122  1  0  0  0
 51123  1  0  0  0
 52124  1  0  0  0
 52125  1  0  0  0
 53 54  1  0  0  0
 54 55  2  0  0  0
 54126  1  0  0  0
 55 57  1  0  0  0
 55127  1  0  0  0
 56 69  2  0  0  0
 57 58  2  0  0  0
 57128  1  0  0  0
 58129  1  0  0  0
 59 60  1  0  0  0
 59 61  1  0  0  0
 59 62  1  0  0  0
 60130  1  0  0  0
 60131  1  0  0  0
 60132  1  0  0  0
 61133  1  0  0  0
 61134  1  0  0  0
 61135  1  0  0  0
 62136  1  0  0  0
 62137  1  0  0  0
 62138  1  0  0  0
 63 65  1  0  0  0
 63139  1  0  0  0
 63140  1  0  0  0
 63141  1  0  0  0
 64142  1  0  0  0
 65143  1  0  0  0
 68 81  1  0  0  0
 71 72  1  0  0  0
 71144  1  0  0  0
 71145  1  0  0  0
 71 77  1  0  0  0
 72 82  1  0  0  0
 72146  1  0  0  0
 72147  1  0  0  0
 73 77  1  0  0  0
 73 82  1  0  0  0
 73148  1  0  0  0
 73149  1  0  0  0
 74 76  1  0  0  0
 74150  1  0  0  0
 74151  1  0  0  0
 74 83  1  0  0  0
 75 76  1  0  0  0
 75 83  1  0  0  0
 75152  1  0  0  0
 75153  1  0  0  0
 76 79  1  0  0  0
 76154  1  0  0  0
 77 83  1  0  0  0
 77155  1  0  0  0
 78156  1  0  0  0
 78157  1  0  0  0
 78158  1  0  0  0
 78 81  1  0  0  0
 79 84  1  0  0  0
 79159  1  0  0  0
 79160  1  0  0  0
 80 81  1  0  0  0
 80 84  1  0  0  0
 80161  1  0  0  0
 80162  1  0  0  0
 81163  1  0  0  0
 83164  1  0  0  0
 84165  1  0  0  0
 84166  1  0  0  0
M  CHG  2  83   1  84   1
M  ISO  4   1 100  68 101  81 101  82 100
M  END
> <chiral flag>
0

> <version>
0

> <s_m_source_file>
/data/baiqing/PycharmProjects/Reinvent-master-3.2/result/LINK_invent/BTK/process_docking_weight1_custom_sum_contain_oxygen_bond_distance_aromatic_linkinvent_7_9_3/rearranged_h_0195.sdf

> <i_m_source_file_index>
67

> <r_mmod_Potential_Energy-OPLS-2005>
-62.9580841064453

> <r_mmod_Stretch_Energy-OPLS-2005>
49.9370613098145

> <r_mmod_Bend_Energy-OPLS-2005>
164.023910522461

> <r_mmod_Torsional_Energy-OPLS-2005>
371.038421630859

> <r_mmod_Improper_Torsional_Energy-OPLS-2005>
4.70193719863892

> <r_mmod_Van_der_Waal_Energy-OPLS-2005>
136.14811706543

> <r_mmod_Electrostatic_Energy-OPLS-2005>
128.569778442383

> <r_mmod_Solvation_Energy-OPLS-2005>
-946.260437011719

> <b_mmod_Minimization_Converged-OPLS-2005>
0

> <r_mmod_RMS_Derivative-OPLS-2005>
4.13558626174927

$$$$
68
                    3D
 Structure written by MMmdl.
173183  0  0  1  0            999 V2000
  -30.7869  -14.3718   20.7187 C   0  0  0  0  0  0
  -30.4167  -12.2960   19.4205 C   0  0  0  0  0  0
  -29.4950  -12.5539   18.2146 C   0  0  0  0  0  0
  -28.0187  -12.3895   18.6209 C   0  0  0  0  0  0
  -27.6703  -13.2110   19.8897 C   0  0  2  0  0  0
  -28.7062  -12.9774   21.0141 C   0  0  0  0  0  0
  -25.2627  -13.8197   20.5696 C   0  0  0  0  0  0
  -24.1874  -13.0463   20.9167 C   0  0  0  0  0  0
  -24.6404  -11.6922   20.8715 C   0  0  0  0  0  0
  -23.9036  -10.4313   21.0388 C   0  0  0  0  0  0
  -24.3573   -9.4237   21.9177 C   0  0  0  0  0  0
  -23.6262   -8.2263   22.0740 C   0  0  0  0  0  0
  -22.4273   -8.0286   21.3513 C   0  0  0  0  0  0
  -21.9892   -9.0266   20.4620 C   0  0  0  0  0  0
  -22.7202  -10.2151   20.3028 C   0  0  0  0  0  0
  -21.6856   -6.0725   22.5269 C   0  0  0  0  0  0
  -21.4014   -6.5616   23.8211 C   0  0  0  0  0  0
  -21.3676   -5.6767   24.9165 C   0  0  0  0  0  0
  -21.6038   -4.3025   24.7215 C   0  0  0  0  0  0
  -21.8817   -3.8128   23.4343 C   0  0  0  0  0  0
  -21.9192   -4.6952   22.3396 C   0  0  0  0  0  0
  -22.7908  -13.5265   21.1833 C   0  0  0  0  0  0
  -22.1671   -4.2129   21.0970 F   0  0  0  0  0  0
  -21.5623   -3.4515   25.7738 F   0  0  0  0  0  0
  -30.0546  -13.2458   20.4853 N   0  0  0  0  0  0
  -26.3070  -12.9360   20.3439 N   0  0  0  0  0  0
  -25.9344  -11.6498   20.5798 N   0  0  0  0  0  0
  -22.0524  -12.8264   22.0370 N   0  0  0  0  0  0
  -25.4346  -15.1903   20.4098 N   0  0  0  0  0  0
  -31.7877  -14.6696   20.0559 O   0  0  0  0  0  0
  -21.6627   -6.8885   21.4235 O   0  0  0  0  0  0
  -22.3633  -14.5605   20.6740 O   0  0  0  0  0  0
  -24.6063  -31.8720   23.2152 C   0  0  0  0  0  0
  -25.8972  -32.4848   23.8448 C   0  0  1  0  0  0
  -27.2590  -27.5020   20.0734 C   0  0  0  0  0  0
  -25.5871  -33.8638   24.2386 N   0  0  0  0  0  0
  -23.3932  -30.4925   21.5535 C   0  0  2  0  0  0
  -24.8443  -28.9611   20.1210 C   0  0  0  0  0  0
  -22.7356  -29.4658   22.5030 C   0  0  0  0  0  0
  -18.0255  -28.1375   22.8519 C   0  0  0  0  0  0
  -24.1481  -36.7330   23.2630 C   0  0  0  0  0  0
  -25.9123  -30.8574   21.3575 C   0  0  0  0  0  0
  -25.9968  -29.4917   20.7131 C   0  0  0  0  0  0
  -27.2027  -28.7685   20.6992 C   0  0  0  0  0  0
  -26.0858  -26.9614   19.5100 C   0  0  0  0  0  0
  -24.8792  -27.6887   19.5219 C   0  0  0  0  0  0
  -23.6022  -29.8198   20.1696 C   0  0  0  0  0  0
  -25.4089  -36.3128   24.0351 C   0  0  1  0  0  0
  -20.5830  -28.3644   23.1350 C   0  0  2  0  0  0
  -20.6729  -26.9391   22.5413 C   0  0  0  0  0  0
  -19.5714  -26.6378   21.5201 C   0  0  0  0  0  0
  -18.1887  -26.7929   22.1611 C   0  0  0  0  0  0
  -19.1496  -28.8830   23.2923 C   0  0  0  0  0  0
  -18.9430  -30.1443   23.8924 C   0  0  0  0  0  0
  -17.6427  -30.6585   24.0563 C   0  0  0  0  0  0
  -25.9034  -34.9494   23.5177 C   0  0  0  0  0  0
  -16.5324  -29.9076   23.6344 C   0  0  0  0  0  0
  -16.7245  -28.6493   23.0375 C   0  0  0  0  0  0
  -26.4447  -31.6581   25.0730 C   0  0  0  0  0  0
  -25.3758  -31.3629   26.1502 C   0  0  0  0  0  0
  -27.0254  -30.3050   24.6016 C   0  0  0  0  0  0
  -27.6047  -32.4264   25.7491 C   0  0  0  0  0  0
  -27.5620  -37.1756   24.8423 C   0  0  0  0  0  0
  -21.4083  -29.3029   22.3780 N   0  0  0  0  0  0
  -26.4262  -37.3839   23.9471 N   0  0  0  0  0  0
  -24.6553  -31.0869   22.1021 N   0  0  0  0  0  0
  -23.4146  -28.8189   23.3032 O   0  0  0  0  0  0
  -28.4188  -26.7766   19.9741 O   0  0  0  0  0  0
  -26.5606  -34.8927   22.4740 O   0  0  0  0  0  0
  -23.5265  -32.1419   23.7588 O   0  0  0  0  0  0
  -32.1572  -21.6620   20.5302 C   0  0  0  0  0  0
  -31.4968  -22.4814   21.4606 C   0  0  0  0  0  0
  -30.7057  -21.8091   22.4162 C   0  0  0  0  0  0
  -31.1856  -19.8087   21.4157 C   0  0  0  0  0  0
  -31.7852  -16.7989   22.8362 C   0  0  0  0  0  0
  -31.4127  -15.3180   22.8761 C   0  0  0  0  0  0
  -29.7140  -16.3569   21.6238 C   0  0  0  0  0  0
  -30.3833  -24.8754   21.1011 C   0  0  0  0  0  0
  -32.2056  -24.7457   20.1694 C   0  0  0  0  0  0
  -31.6060  -24.0048   21.3715 C   0  0  2  0  0  0
  -30.5610  -17.4937   22.2405 C   0  0  2  0  0  0
  -28.4444  -22.7485   23.0939 C   0  0  0  0  0  0
  -29.9139  -22.5420   23.4919 C   0  0  0  0  0  0
  -30.7253  -26.5561   19.2943 C   0  0  0  0  0  0
  -29.6009  -27.5269   19.6822 C   0  0  0  0  0  0
  -31.9822  -20.3285   20.5056 N   0  0  0  0  0  0
  -30.5593  -20.4644   22.3826 N   0  0  0  0  0  0
  -30.4349  -15.0903   21.8094 N   0  0  0  0  0  0
  -30.9409  -18.4718   21.2298 N   0  0  0  0  0  0
  -31.2821  -25.8433   20.4690 N   0  3  1  0  0  0
  -31.4637  -12.3811   19.1236 H   0  0  0  0  0  0
  -30.2898  -11.2731   19.7804 H   0  0  0  0  0  0
  -29.7433  -11.8801   17.3919 H   0  0  0  0  0  0
  -29.6623  -13.5664   17.8439 H   0  0  0  0  0  0
  -27.8337  -11.3315   18.7989 H   0  0  0  0  0  0
  -27.3711  -12.6801   17.7931 H   0  0  0  0  0  0
  -27.7277  -14.2637   19.6116 H   0  0  0  0  0  0
  -28.6608  -11.9479   21.3698 H   0  0  0  0  0  0
  -28.4563  -13.5970   21.8792 H   0  0  0  0  0  0
  -25.2706   -9.5720   22.4768 H   0  0  0  0  0  0
  -23.9963   -7.4646   22.7468 H   0  0  0  0  0  0
  -21.0816   -8.8782   19.8938 H   0  0  0  0  0  0
  -22.3652  -10.9686   19.6137 H   0  0  0  0  0  0
  -21.2007   -7.6120   23.9720 H   0  0  0  0  0  0
  -21.1505   -6.0485   25.9067 H   0  0  0  0  0  0
  -22.0577   -2.7588   23.2852 H   0  0  0  0  0  0
  -22.4120  -11.9873   22.4684 H   0  0  0  0  0  0
  -21.1168  -13.1372   22.2601 H   0  0  0  0  0  0
  -24.6676  -15.8460   20.5135 H   0  0  0  0  0  0
  -26.2864  -15.6265   20.0818 H   0  0  0  0  0  0
  -26.7056  -32.5622   23.1242 H   0  0  0  0  0  0
  -24.9981  -33.9827   25.0504 H   0  0  0  0  0  0
  -22.6788  -31.3066   21.4127 H   0  0  0  0  0  0
  -23.3788  -35.9611   23.3148 H   0  0  0  0  0  0
  -24.3626  -36.9095   22.2083 H   0  0  0  0  0  0
  -23.7145  -37.6453   23.6730 H   0  0  0  0  0  0
  -26.0064  -31.6220   20.5851 H   0  0  0  0  0  0
  -26.8053  -30.9229   21.9670 H   0  0  0  0  0  0
  -28.0765  -29.1995   21.1684 H   0  0  0  0  0  0
  -26.1167  -25.9884   19.0383 H   0  0  0  0  0  0
  -23.9926  -27.2676   19.0667 H   0  0  0  0  0  0
  -23.7030  -30.5928   19.4062 H   0  0  0  0  0  0
  -22.7294  -29.2309   19.8791 H   0  0  0  0  0  0
  -25.1226  -36.2006   25.0835 H   0  0  0  0  0  0
  -20.9919  -28.3204   24.1468 H   0  0  0  0  0  0
  -20.5614  -26.2248   23.3591 H   0  0  0  0  0  0
  -21.6621  -26.7393   22.1251 H   0  0  0  0  0  0
  -19.6863  -25.6290   21.1222 H   0  0  0  0  0  0
  -19.6670  -27.3196   20.6732 H   0  0  0  0  0  0
  -17.4161  -26.6736   21.4000 H   0  0  0  0  0  0
  -18.0238  -26.0062   22.8991 H   0  0  0  0  0  0
  -19.7897  -30.7281   24.2300 H   0  0  0  0  0  0
  -17.4964  -31.6292   24.5132 H   0  0  0  0  0  0
  -15.5320  -30.2985   23.7630 H   0  0  0  0  0  0
  -15.8652  -28.0806   22.7074 H   0  0  0  0  0  0
  -24.5958  -30.6941   25.7839 H   0  0  0  0  0  0
  -24.8916  -32.2748   26.5006 H   0  0  0  0  0  0
  -25.8180  -30.8777   27.0218 H   0  0  0  0  0  0
  -26.2757  -29.6837   24.1103 H   0  0  0  0  0  0
  -27.4076  -29.7260   25.4430 H   0  0  0  0  0  0
  -27.8574  -30.4385   23.9100 H   0  0  0  0  0  0
  -27.2709  -33.3562   26.2114 H   0  0  0  0  0  0
  -28.3872  -32.6808   25.0326 H   0  0  0  0  0  0
  -28.0694  -31.8325   26.5376 H   0  0  0  0  0  0
  -28.2449  -38.0239   24.7770 H   0  0  0  0  0  0
  -28.1311  -36.2793   24.5866 H   0  0  0  0  0  0
  -27.2402  -37.0967   25.8827 H   0  0  0  0  0  0
  -20.9209  -29.8814   21.7085 H   0  0  0  0  0  0
  -26.0146  -38.2880   24.1639 H   0  0  0  0  0  0
  -32.7926  -22.0725   19.7584 H   0  0  0  0  0  0
  -32.6642  -16.9285   22.2025 H   0  0  0  0  0  0
  -32.0455  -17.1856   23.8229 H   0  0  0  0  0  0
  -30.9390  -15.0799   23.8291 H   0  0  0  0  0  0
  -32.2990  -14.6848   22.7883 H   0  0  0  0  0  0
  -29.4615  -16.5458   20.5777 H   0  0  0  0  0  0
  -28.7681  -16.2758   22.1616 H   0  0  0  0  0  0
  -29.8742  -25.2658   21.9831 H   0  0  0  0  0  0
  -29.6858  -24.4203   20.3946 H   0  0  0  0  0  0
  -31.9903  -24.2675   19.2126 H   0  0  0  0  0  0
  -33.2592  -25.0086   20.2595 H   0  0  0  0  0  0
  -32.1081  -24.3474   22.2803 H   0  0  0  0  0  0
  -29.9933  -17.9779   23.0373 H   0  0  0  0  0  0
  -27.8945  -23.2607   23.8841 H   0  0  0  0  0  0
  -27.9549  -21.7932   22.9081 H   0  0  0  0  0  0
  -28.3522  -23.3455   22.1875 H   0  0  0  0  0  0
  -30.3733  -23.5035   23.7212 H   0  0  0  0  0  0
  -29.9600  -21.9700   24.4180 H   0  0  0  0  0  0
  -31.5348  -27.1136   18.8218 H   0  0  0  0  0  0
  -30.3602  -25.8499   18.5466 H   0  0  0  0  0  0
  -29.4030  -28.1984   18.8427 H   0  0  0  0  0  0
  -29.9122  -28.1446   20.5235 H   0  0  0  0  0  0
  -31.4100  -18.0969   20.4155 H   0  0  0  0  0  0
  -31.6811  -26.4665   21.1562 H   0  0  0  0  0  0
  1 25  1  0  0  0
  1 30  2  0  0  0
  1 88  1  0  0  0
  2  3  1  0  0  0
  2 25  1  0  0  0
  2 91  1  0  0  0
  2 92  1  0  0  0
  3  4  1  0  0  0
  3 93  1  0  0  0
  3 94  1  0  0  0
  4  5  1  0  0  0
  4 95  1  0  0  0
  4 96  1  0  0  0
  5  6  1  0  0  0
  5 26  1  0  0  0
  5 97  1  0  0  0
  6 25  1  0  0  0
  6 98  1  0  0  0
  6 99  1  0  0  0
  7  8  2  0  0  0
  7 26  1  0  0  0
  7 29  1  0  0  0
  8  9  1  0  0  0
  8 22  1  0  0  0
  9 10  1  0  0  0
  9 27  2  0  0  0
 10 11  2  0  0  0
 10 15  1  0  0  0
 11 12  1  0  0  0
 11100  1  0  0  0
 12 13  2  0  0  0
 12101  1  0  0  0
 13 14  1  0  0  0
 13 31  1  0  0  0
 14 15  2  0  0  0
 14102  1  0  0  0
 15103  1  0  0  0
 16 17  2  0  0  0
 16 21  1  0  0  0
 16 31  1  0  0  0
 17 18  1  0  0  0
 17104  1  0  0  0
 18 19  2  0  0  0
 18105  1  0  0  0
 19 20  1  0  0  0
 19 24  1  0  0  0
 20 21  2  0  0  0
 20106  1  0  0  0
 21 23  1  0  0  0
 22 28  1  0  0  0
 22 32  2  0  0  0
 26 27  1  0  0  0
 28107  1  0  0  0
 28108  1  0  0  0
 29109  1  0  0  0
 29110  1  0  0  0
 33 34  1  0  0  0
 33 66  1  0  0  0
 33 70  2  0  0  0
 34 36  1  0  0  0
 34 59  1  0  0  0
 34111  1  0  0  0
 35 44  2  0  0  0
 35 45  1  0  0  0
 35 68  1  0  0  0
 36 56  1  0  0  0
 36112  1  0  0  0
 37 39  1  0  0  0
 37 47  1  0  0  0
 37 66  1  0  0  0
 37113  1  0  0  0
 38 43  2  0  0  0
 38 46  1  0  0  0
 38 47  1  0  0  0
 39 64  1  0  0  0
 39 67  2  0  0  0
 40 52  1  0  0  0
 40 53  2  0  0  0
 40 58  1  0  0  0
 41114  1  0  0  0
 41115  1  0  0  0
 41116  1  0  0  0
 41 48  1  0  0  0
 42 43  1  0  0  0
 42 66  1  0  0  0
 42117  1  0  0  0
 42118  1  0  0  0
 43 44  1  0  0  0
 44119  1  0  0  0
 45 46  2  0  0  0
 45120  1  0  0  0
 46121  1  0  0  0
 47122  1  0  0  0
 47123  1  0  0  0
 48 56  1  0  0  0
 48 65  1  0  0  0
 48124  1  0  0  0
 49 50  1  0  0  0
 49 53  1  0  0  0
 49 64  1  0  0  0
 49125  1  0  0  0
 50 51  1  0  0  0
 50126  1  0  0  0
 50127  1  0  0  0
 51 52  1  0  0  0
 51128  1  0  0  0
 51129  1  0  0  0
 52130  1  0  0  0
 52131  1  0  0  0
 53 54  1  0  0  0
 54 55  2  0  0  0
 54132  1  0  0  0
 55 57  1  0  0  0
 55133  1  0  0  0
 56 69  2  0  0  0
 57 58  2  0  0  0
 57134  1  0  0  0
 58135  1  0  0  0
 59 60  1  0  0  0
 59 61  1  0  0  0
 59 62  1  0  0  0
 60136  1  0  0  0
 60137  1  0  0  0
 60138  1  0  0  0
 61139  1  0  0  0
 61140  1  0  0  0
 61141  1  0  0  0
 62142  1  0  0  0
 62143  1  0  0  0
 62144  1  0  0  0
 63 65  1  0  0  0
 63145  1  0  0  0
 63146  1  0  0  0
 63147  1  0  0  0
 64148  1  0  0  0
 65149  1  0  0  0
 68 85  1  0  0  0
 71 72  2  0  0  0
 71 86  1  0  0  0
 71150  1  0  0  0
 72 73  1  0  0  0
 72 80  1  0  0  0
 73 83  1  0  0  0
 73 87  2  0  0  0
 74 86  2  0  0  0
 74 87  1  0  0  0
 74 89  1  0  0  0
 75 76  1  0  0  0
 75 81  1  0  0  0
 75151  1  0  0  0
 75152  1  0  0  0
 76 88  1  0  0  0
 76153  1  0  0  0
 76154  1  0  0  0
 77 81  1  0  0  0
 77 88  1  0  0  0
 77155  1  0  0  0
 77156  1  0  0  0
 78 80  1  0  0  0
 78 90  1  0  0  0
 78157  1  0  0  0
 78158  1  0  0  0
 79 80  1  0  0  0
 79 90  1  0  0  0
 79159  1  0  0  0
 79160  1  0  0  0
 80161  1  0  0  0
 81 89  1  0  0  0
 81162  1  0  0  0
 82 83  1  0  0  0
 82163  1  0  0  0
 82164  1  0  0  0
 82165  1  0  0  0
 83166  1  0  0  0
 83167  1  0  0  0
 84 85  1  0  0  0
 84168  1  0  0  0
 84169  1  0  0  0
 84 90  1  0  0  0
 85170  1  0  0  0
 85171  1  0  0  0
 89172  1  0  0  0
 90173  1  0  0  0
M  CHG  1  90   1
M  ISO  4   1 100  68 101  85 101  88 100
M  END
> <chiral flag>
0

> <version>
0

> <s_m_source_file>
/data/baiqing/PycharmProjects/Reinvent-master-3.2/result/LINK_invent/BTK/process_docking_weight1_custom_sum_contain_oxygen_bond_distance_aromatic_linkinvent_7_9_3/rearranged_h_0195.sdf

> <i_m_source_file_index>
68

> <r_mmod_Potential_Energy-OPLS-2005>
-491.822204589844

> <r_mmod_Stretch_Energy-OPLS-2005>
34.3141555786133

> <r_mmod_Bend_Energy-OPLS-2005>
138.058395385742

> <r_mmod_Torsional_Energy-OPLS-2005>
377.221466064453

> <r_mmod_Improper_Torsional_Energy-OPLS-2005>
9.02266120910645

> <r_mmod_Van_der_Waal_Energy-OPLS-2005>
157.927642822266

> <r_mmod_Electrostatic_Energy-OPLS-2005>
-751.8427734375

> <r_mmod_Solvation_Energy-OPLS-2005>
-463.255737304688

> <b_mmod_Minimization_Converged-OPLS-2005>
0

> <r_mmod_RMS_Derivative-OPLS-2005>
4.22163009643555

$$$$
69
                    3D
 Structure written by MMmdl.
161171  0  0  1  0            999 V2000
  -31.3179  -14.8141   21.2811 C   0  0  0  0  0  0
  -30.5996  -15.3408   18.8891 C   0  0  0  0  0  0
  -29.1204  -15.2469   17.5703 C   0  0  0  0  0  0
  -27.2785  -14.9597   18.2324 C   0  0  0  0  0  0
  -27.0216  -14.8001   20.1902 C   0  0  2  0  0  0
  -28.5738  -15.0556   21.3714 C   0  0  0  0  0  0
  -24.8119  -14.1058   20.6898 C   0  0  0  0  0  0
  -23.9806  -13.0966   20.9473 C   0  0  0  0  0  0
  -24.6877  -11.8666   20.8306 C   0  0  0  0  0  0
  -24.0384  -10.5027   20.9722 C   0  0  0  0  0  0
  -24.4494   -9.4940   21.8844 C   0  0  0  0  0  0
  -23.6961   -8.2984   22.0686 C   0  0  0  0  0  0
  -22.4904   -8.0791   21.3574 C   0  0  0  0  0  0
  -22.0788   -9.0683   20.4500 C   0  0  0  0  0  0
  -22.8345  -10.2466   20.2620 C   0  0  0  0  0  0
  -21.7214   -6.1044   22.5252 C   0  0  0  0  0  0
  -21.4239   -6.5831   23.8194 C   0  0  0  0  0  0
  -21.3720   -5.6896   24.9110 C   0  0  0  0  0  0
  -21.6035   -4.3155   24.7118 C   0  0  0  0  0  0
  -21.8823   -3.8320   23.4229 C   0  0  0  0  0  0
  -21.9331   -4.7208   22.3333 C   0  0  0  0  0  0
  -22.5503  -13.3919   21.2083 C   0  0  0  0  0  0
  -22.1765   -4.2345   21.0918 F   0  0  0  0  0  0
  -21.5579   -3.4608   25.7623 F   0  0  0  0  0  0
  -30.2386  -15.2690   20.6607 N   0  0  0  0  0  0
  -26.0416  -13.6390   20.4970 N   0  0  0  0  0  0
  -25.9906  -12.2014   20.5172 N   0  0  0  0  0  0
  -21.9336  -12.6489   22.1063 N   0  0  0  0  0  0
  -24.5463  -15.4631   20.6206 N   0  0  0  0  0  0
  -32.3245  -14.5754   20.6258 O   0  0  0  0  0  0
  -21.7192   -6.9344   21.4296 O   0  0  0  0  0  0
  -22.0176  -14.3773   20.6944 O   0  0  0  0  0  0
  -24.8362  -31.5727   23.0125 C   0  0  0  0  0  0
  -26.0076  -32.3395   23.7328 C   0  0  1  0  0  0
  -27.1082  -25.0787   20.1383 C   0  0  0  0  0  0
  -25.5923  -33.7295   24.0979 N   0  0  0  0  0  0
  -23.7035  -30.1121   21.4130 C   0  0  2  0  0  0
  -25.0991  -28.1028   20.1160 C   0  0  0  0  0  0
  -22.8318  -29.3137   22.4289 C   0  0  0  0  0  0
  -18.0408  -28.1476   22.8384 C   0  0  0  0  0  0
  -24.1504  -36.6728   23.2702 C   0  0  0  0  0  0
  -26.2962  -29.7450   21.5036 C   0  0  0  0  0  0
  -26.3044  -28.1453   20.8235 C   0  0  0  0  0  0
  -27.2227  -26.7330   20.7636 C   0  0  0  0  0  0
  -25.9082  -25.6501   19.4136 C   0  0  0  0  0  0
  -25.0283  -26.8778   19.3905 C   0  0  0  0  0  0
  -23.9950  -29.2609   20.1097 C   0  0  0  0  0  0
  -25.4169  -36.2244   24.0193 C   0  0  1  0  0  0
  -20.6075  -28.3816   23.0937 C   0  0  2  0  0  0
  -20.6745  -26.9352   22.5472 C   0  0  0  0  0  0
  -19.5784  -26.6283   21.5230 C   0  0  0  0  0  0
  -18.1962  -26.7976   22.1563 C   0  0  0  0  0  0
  -19.1711  -28.9012   23.2587 C   0  0  0  0  0  0
  -18.9598  -30.1552   23.8706 C   0  0  0  0  0  0
  -17.6566  -30.6617   24.0511 C   0  0  0  0  0  0
  -25.9233  -34.8673   23.4604 C   0  0  0  0  0  0
  -16.5439  -29.9078   23.6366 C   0  0  0  0  0  0
  -16.7374  -28.6498   23.0403 C   0  0  0  0  0  0
  -26.4838  -31.6201   25.0577 C   0  0  0  0  0  0
  -25.3565  -31.3898   26.0967 C   0  0  0  0  0  0
  -27.0988  -30.2469   24.7372 C   0  0  0  0  0  0
  -27.5983  -32.4504   25.7404 C   0  0  0  0  0  0
  -27.5513  -37.1465   24.8457 C   0  0  0  0  0  0
  -21.4843  -29.2713   22.3056 N   0  0  0  0  0  0
  -26.4175  -37.3168   23.9430 N   0  0  0  0  0  0
  -25.0015  -30.5513   22.0285 N   0  0  0  0  0  0
  -23.4071  -28.7052   23.3337 O   0  0  0  0  0  0
  -27.8356  -23.1748   20.0207 O   0  0  0  0  0  0
  -26.6158  -34.8604   22.4425 O   0  0  0  0  0  0
  -23.7118  -31.9538   23.4092 O   0  0  0  0  0  0
  -29.4239  -11.7377   22.4020 C   0  0  0  0  0  0
  -31.2900  -11.5498   21.0307 C   0  0  0  0  0  0
  -30.8299  -11.6648   22.3610 C   0  0  0  0  0  0
  -29.4430  -12.7009   20.3285 C   0  0  0  0  0  0
  -32.8265  -12.7424   23.1674 C   0  0  0  0  0  0
  -31.1752  -12.9249   24.4000 C   0  0  0  0  0  0
  -27.5403  -18.4591   19.3373 C   0  0  0  0  0  0
  -29.0479  -18.6146   20.0533 C   0  0  0  0  0  0
  -32.0027  -13.9649   23.6154 C   0  0  0  0  0  0
  -27.9853  -20.5492   19.9083 C   0  0  1  0  0  0
  -28.9166  -13.9205   19.3997 C   0  0  0  0  0  0
  -28.7482  -12.2849   21.3857 N   0  0  0  0  0  0
  -30.6143  -12.1309   20.0263 N   0  0  0  0  0  0
  -31.6794  -11.8735   23.4926 N   0  0  0  0  0  0
  -31.1748  -14.6794   22.6079 N   0  0  0  0  0  0
  -28.5670  -16.7382   19.5107 N   0  3  1  0  0  0
  -31.1628  -16.2598   18.6949 H   0  0  0  0  0  0
  -31.3078  -14.5730   18.5687 H   0  0  0  0  0  0
  -29.3507  -14.5094   16.7928 H   0  0  0  0  0  0
  -29.1491  -16.1648   16.9847 H   0  0  0  0  0  0
  -26.8276  -14.1018   17.7269 H   0  0  0  0  0  0
  -26.6540  -15.7877   17.8866 H   0  0  0  0  0  0
  -26.6742  -15.7856   20.4657 H   0  0  0  0  0  0
  -28.3914  -16.0092   21.8700 H   0  0  0  0  0  0
  -28.5251  -14.4473   22.2731 H   0  0  0  0  0  0
  -25.3501   -9.6478   22.4640 H   0  0  0  0  0  0
  -24.0612   -7.5509   22.7572 H   0  0  0  0  0  0
  -21.1787   -8.9220   19.8719 H   0  0  0  0  0  0
  -22.4724  -10.9863   19.5634 H   0  0  0  0  0  0
  -21.2299   -7.6346   23.9729 H   0  0  0  0  0  0
  -21.1480   -6.0622   25.8998 H   0  0  0  0  0  0
  -22.0514   -2.7767   23.2659 H   0  0  0  0  0  0
  -22.4043  -11.8691   22.5379 H   0  0  0  0  0  0
  -20.9745  -12.8435   22.3577 H   0  0  0  0  0  0
  -23.6042  -15.7805   20.8261 H   0  0  0  0  0  0
  -25.2185  -16.2158   20.6569 H   0  0  0  0  0  0
  -26.8446  -32.3769   23.0317 H   0  0  0  0  0  0
  -24.9646  -33.8022   24.8861 H   0  0  0  0  0  0
  -23.1301  -30.9889   21.1014 H   0  0  0  0  0  0
  -23.3774  -35.9048   23.3103 H   0  0  0  0  0  0
  -24.3593  -36.8743   22.2189 H   0  0  0  0  0  0
  -23.7302  -37.5772   23.7098 H   0  0  0  0  0  0
  -26.7178  -30.3732   20.7208 H   0  0  0  0  0  0
  -27.0766  -29.7473   22.2497 H   0  0  0  0  0  0
  -28.1202  -26.8330   21.3537 H   0  0  0  0  0  0
  -25.4996  -24.9045   18.7523 H   0  0  0  0  0  0
  -24.1729  -26.7932   18.7345 H   0  0  0  0  0  0
  -24.2947  -29.9466   19.3172 H   0  0  0  0  0  0
  -23.0622  -28.8191   19.7504 H   0  0  0  0  0  0
  -25.1461  -36.0767   25.0673 H   0  0  0  0  0  0
  -21.0135  -28.3559   24.1071 H   0  0  0  0  0  0
  -20.5405  -26.2484   23.3845 H   0  0  0  0  0  0
  -21.6614  -26.7019   22.1437 H   0  0  0  0  0  0
  -19.6910  -25.6143   21.1379 H   0  0  0  0  0  0
  -19.6819  -27.2995   20.6702 H   0  0  0  0  0  0
  -17.4252  -26.6755   21.3929 H   0  0  0  0  0  0
  -18.0279  -26.0147   22.8982 H   0  0  0  0  0  0
  -19.8074  -30.7404   24.2027 H   0  0  0  0  0  0
  -17.5115  -31.6291   24.5141 H   0  0  0  0  0  0
  -15.5440  -30.2939   23.7791 H   0  0  0  0  0  0
  -15.8767  -28.0740   22.7278 H   0  0  0  0  0  0
  -24.5828  -30.7169   25.7251 H   0  0  0  0  0  0
  -24.8681  -32.3221   26.3775 H   0  0  0  0  0  0
  -25.7434  -30.9462   27.0149 H   0  0  0  0  0  0
  -26.3720  -29.5489   24.3188 H   0  0  0  0  0  0
  -27.4743  -29.7676   25.6427 H   0  0  0  0  0  0
  -27.9576  -30.3372   24.0725 H   0  0  0  0  0  0
  -27.2302  -33.4054   26.1142 H   0  0  0  0  0  0
  -28.4123  -32.6655   25.0480 H   0  0  0  0  0  0
  -28.0278  -31.9279   26.5949 H   0  0  0  0  0  0
  -28.2312  -37.9927   24.7484 H   0  0  0  0  0  0
  -28.1208  -36.2428   24.6261 H   0  0  0  0  0  0
  -27.2268  -37.1031   25.8858 H   0  0  0  0  0  0
  -21.0515  -29.8080   21.5675 H   0  0  0  0  0  0
  -25.9847  -38.2149   24.1415 H   0  0  0  0  0  0
  -28.8675  -11.7009   23.3276 H   0  0  0  0  0  0
  -32.3225  -11.3215   20.7997 H   0  0  0  0  0  0
  -33.6386  -12.5336   23.8666 H   0  0  0  0  0  0
  -33.2167  -12.7646   22.1514 H   0  0  0  0  0  0
  -30.1020  -13.1087   24.4200 H   0  0  0  0  0  0
  -31.5363  -12.7792   25.4228 H   0  0  0  0  0  0
  -27.2337  -18.4773   18.2882 H   0  0  0  0  0  0
  -26.6021  -18.2268   19.8429 H   0  0  0  0  0  0
  -30.0115  -18.7822   19.5705 H   0  0  0  0  0  0
  -29.3204  -18.5081   21.1041 H   0  0  0  0  0  0
  -32.5664  -14.6377   24.2652 H   0  0  0  0  0  0
  -27.4144  -20.5463   20.8378 H   0  0  0  0  0  0
  -28.1473  -13.1776   19.1244 H   0  0  0  0  0  0
  -29.4836  -13.4126   18.6011 H   0  0  0  0  0  0
  -30.3273  -15.0886   22.9684 H   0  0  0  0  0  0
  -28.9188  -16.7257   18.5632 H   0  0  0  0  0  0
  1 25  1  0  0  0
  1 30  2  0  0  0
  1 85  1  0  0  0
  2  3  1  0  0  0
  2 25  1  0  0  0
  2 87  1  0  0  0
  2 88  1  0  0  0
  3  4  1  0  0  0
  3 89  1  0  0  0
  3 90  1  0  0  0
  4  5  1  0  0  0
  4 91  1  0  0  0
  4 92  1  0  0  0
  5  6  1  0  0  0
  5 26  1  0  0  0
  5 93  1  0  0  0
  6 25  1  0  0  0
  6 94  1  0  0  0
  6 95  1  0  0  0
  7  8  2  0  0  0
  7 26  1  0  0  0
  7 29  1  0  0  0
  8  9  1  0  0  0
  8 22  1  0  0  0
  9 10  1  0  0  0
  9 27  2  0  0  0
 10 11  2  0  0  0
 10 15  1  0  0  0
 11 12  1  0  0  0
 11 96  1  0  0  0
 12 13  2  0  0  0
 12 97  1  0  0  0
 13 14  1  0  0  0
 13 31  1  0  0  0
 14 15  2  0  0  0
 14 98  1  0  0  0
 15 99  1  0  0  0
 16 17  2  0  0  0
 16 21  1  0  0  0
 16 31  1  0  0  0
 17 18  1  0  0  0
 17100  1  0  0  0
 18 19  2  0  0  0
 18101  1  0  0  0
 19 20  1  0  0  0
 19 24  1  0  0  0
 20 21  2  0  0  0
 20102  1  0  0  0
 21 23  1  0  0  0
 22 28  1  0  0  0
 22 32  2  0  0  0
 26 27  1  0  0  0
 28103  1  0  0  0
 28104  1  0  0  0
 29105  1  0  0  0
 29106  1  0  0  0
 33 34  1  0  0  0
 33 66  1  0  0  0
 33 70  2  0  0  0
 34 36  1  0  0  0
 34 59  1  0  0  0
 34107  1  0  0  0
 35 44  2  0  0  0
 35 45  1  0  0  0
 35 68  1  0  0  0
 36 56  1  0  0  0
 36108  1  0  0  0
 37 39  1  0  0  0
 37 47  1  0  0  0
 37 66  1  0  0  0
 37109  1  0  0  0
 38 43  2  0  0  0
 38 46  1  0  0  0
 38 47  1  0  0  0
 39 64  1  0  0  0
 39 67  2  0  0  0
 40 52  1  0  0  0
 40 53  2  0  0  0
 40 58  1  0  0  0
 41110  1  0  0  0
 41111  1  0  0  0
 41112  1  0  0  0
 41 48  1  0  0  0
 42 43  1  0  0  0
 42 66  1  0  0  0
 42113  1  0  0  0
 42114  1  0  0  0
 43 44  1  0  0  0
 44115  1  0  0  0
 45 46  2  0  0  0
 45116  1  0  0  0
 46117  1  0  0  0
 47118  1  0  0  0
 47119  1  0  0  0
 48 56  1  0  0  0
 48 65  1  0  0  0
 48120  1  0  0  0
 49 50  1  0  0  0
 49 53  1  0  0  0
 49 64  1  0  0  0
 49121  1  0  0  0
 50 51  1  0  0  0
 50122  1  0  0  0
 50123  1  0  0  0
 51 52  1  0  0  0
 51124  1  0  0  0
 51125  1  0  0  0
 52126  1  0  0  0
 52127  1  0  0  0
 53 54  1  0  0  0
 54 55  2  0  0  0
 54128  1  0  0  0
 55 57  1  0  0  0
 55129  1  0  0  0
 56 69  2  0  0  0
 57 58  2  0  0  0
 57130  1  0  0  0
 58131  1  0  0  0
 59 60  1  0  0  0
 59 61  1  0  0  0
 59 62  1  0  0  0
 60132  1  0  0  0
 60133  1  0  0  0
 60134  1  0  0  0
 61135  1  0  0  0
 61136  1  0  0  0
 61137  1  0  0  0
 62138  1  0  0  0
 62139  1  0  0  0
 62140  1  0  0  0
 63 65  1  0  0  0
 63141  1  0  0  0
 63142  1  0  0  0
 63143  1  0  0  0
 64144  1  0  0  0
 65145  1  0  0  0
 68 80  1  0  0  0
 71 73  2  0  0  0
 71 82  1  0  0  0
 71146  1  0  0  0
 72 73  1  0  0  0
 72 83  2  0  0  0
 72147  1  0  0  0
 73 84  1  0  0  0
 74 81  1  0  0  0
 74 82  2  0  0  0
 74 83  1  0  0  0
 75 79  1  0  0  0
 75 84  1  0  0  0
 75148  1  0  0  0
 75149  1  0  0  0
 76 79  1  0  0  0
 76 84  1  0  0  0
 76150  1  0  0  0
 76151  1  0  0  0
 77 80  1  0  0  0
 77 86  1  0  0  0
 77152  1  0  0  0
 77153  1  0  0  0
 78 80  1  0  0  0
 78 86  1  0  0  0
 78154  1  0  0  0
 78155  1  0  0  0
 79 85  1  0  0  0
 79156  1  0  0  0
 80157  1  0  0  0
 81158  1  0  0  0
 81159  1  0  0  0
 81 86  1  0  0  0
 85160  1  0  0  0
 86161  1  0  0  0
M  CHG  1  86   1
M  ISO  4   1 100  68 101  80 101  85 100
M  END
> <chiral flag>
0

> <version>
0

> <s_m_source_file>
/data/baiqing/PycharmProjects/Reinvent-master-3.2/result/LINK_invent/BTK/process_docking_weight1_custom_sum_contain_oxygen_bond_distance_aromatic_linkinvent_7_9_3/rearranged_h_0195.sdf

> <i_m_source_file_index>
69

> <r_mmod_Potential_Energy-OPLS-2005>
20583.08984375

> <r_mmod_Stretch_Energy-OPLS-2005>
9641.2392578125

> <r_mmod_Bend_Energy-OPLS-2005>
2598.7119140625

> <r_mmod_Torsional_Energy-OPLS-2005>
436.918212890625

> <r_mmod_Improper_Torsional_Energy-OPLS-2005>
17.6492023468018

> <r_mmod_Van_der_Waal_Energy-OPLS-2005>
1847.99182128906

> <r_mmod_Electrostatic_Energy-OPLS-2005>
-688.669372558594

> <r_mmod_Solvation_Energy-OPLS-2005>
-507.346008300781

> <b_mmod_Minimization_Converged-OPLS-2005>
0

> <r_mmod_RMS_Derivative-OPLS-2005>
10.0231943130493

$$$$
70
                    3D
 Structure written by MMmdl.
160169  0  0  1  0            999 V2000
  -30.4570  -15.0855   20.4523 C   0  0  0  0  0  0
  -30.4617  -12.7127   19.4600 C   0  0  0  0  0  0
  -29.5146  -12.5759   18.2397 C   0  0  0  0  0  0
  -28.0501  -12.3393   18.6669 C   0  0  0  0  0  0
  -27.6338  -13.2393   19.8594 C   0  0  2  0  0  0
  -28.7063  -13.1763   20.9664 C   0  0  0  0  0  0
  -25.2468  -13.8170   20.5749 C   0  0  0  0  0  0
  -24.1777  -13.0411   20.9258 C   0  0  0  0  0  0
  -24.6387  -11.6896   20.8789 C   0  0  0  0  0  0
  -23.9066  -10.4276   21.0424 C   0  0  0  0  0  0
  -24.3616   -9.4187   21.9196 C   0  0  0  0  0  0
  -23.6286   -8.2225   22.0756 C   0  0  0  0  0  0
  -22.4269   -8.0273   21.3543 C   0  0  0  0  0  0
  -21.9909   -9.0250   20.4648 C   0  0  0  0  0  0
  -22.7241  -10.2128   20.3063 C   0  0  0  0  0  0
  -21.6846   -6.0730   22.5279 C   0  0  0  0  0  0
  -21.4011   -6.5635   23.8214 C   0  0  0  0  0  0
  -21.3661   -5.6788   24.9175 C   0  0  0  0  0  0
  -21.6044   -4.3051   24.7227 C   0  0  0  0  0  0
  -21.8817   -3.8143   23.4347 C   0  0  0  0  0  0
  -21.9188   -4.6960   22.3402 C   0  0  0  0  0  0
  -22.7795  -13.5201   21.1880 C   0  0  0  0  0  0
  -22.1657   -4.2145   21.0980 F   0  0  0  0  0  0
  -21.5628   -3.4536   25.7741 F   0  0  0  0  0  0
  -29.9145  -13.7781   20.3672 N   0  0  0  0  0  0
  -26.2917  -12.9389   20.3392 N   0  0  0  0  0  0
  -25.9328  -11.6526   20.5814 N   0  0  0  0  0  0
  -22.0422  -12.8210   22.0434 N   0  0  0  0  0  0
  -25.4098  -15.1896   20.4098 N   0  0  0  0  0  0
  -31.6634  -15.1408   20.1710 O   0  0  0  0  0  0
  -21.6627   -6.8875   21.4241 O   0  0  0  0  0  0
  -22.3500  -14.5509   20.6707 O   0  0  0  0  0  0
  -24.6502  -31.8368   23.1815 C   0  0  0  0  0  0
  -25.9242  -32.4656   23.8233 C   0  0  1  0  0  0
  -27.2231  -27.0614   20.1542 C   0  0  0  0  0  0
  -25.5962  -33.8466   24.2147 N   0  0  0  0  0  0
  -23.4581  -30.4534   21.5287 C   0  0  2  0  0  0
  -24.9087  -28.8652   20.1118 C   0  0  0  0  0  0
  -22.7604  -29.4509   22.4830 C   0  0  0  0  0  0
  -18.0313  -28.1397   22.8473 C   0  0  0  0  0  0
  -24.1495  -36.7236   23.2644 C   0  0  0  0  0  0
  -26.0195  -30.6851   21.3927 C   0  0  0  0  0  0
  -26.0891  -29.2889   20.7343 C   0  0  0  0  0  0
  -27.2424  -28.4048   20.7357 C   0  0  0  0  0  0
  -26.0112  -26.7575   19.4931 C   0  0  0  0  0  0
  -24.8873  -27.6154   19.4755 C   0  0  0  0  0  0
  -23.6895  -29.7775   20.1509 C   0  0  0  0  0  0
  -25.4131  -36.3009   24.0309 C   0  0  1  0  0  0
  -20.5930  -28.3732   23.1217 C   0  0  2  0  0  0
  -20.6796  -26.9429   22.5401 C   0  0  0  0  0  0
  -19.5769  -26.6379   21.5211 C   0  0  0  0  0  0
  -18.1951  -26.7935   22.1621 C   0  0  0  0  0  0
  -19.1571  -28.8884   23.2836 C   0  0  0  0  0  0
  -18.9484  -30.1477   23.8866 C   0  0  0  0  0  0
  -17.6479  -30.6593   24.0556 C   0  0  0  0  0  0
  -25.9085  -34.9387   23.5041 C   0  0  0  0  0  0
  -16.5371  -29.9082   23.6338 C   0  0  0  0  0  0
  -16.7296  -28.6500   23.0360 C   0  0  0  0  0  0
  -26.4538  -31.6554   25.0708 C   0  0  0  0  0  0
  -25.3700  -31.3762   26.1388 C   0  0  0  0  0  0
  -27.0420  -30.2940   24.6349 C   0  0  0  0  0  0
  -27.6052  -32.4340   25.7500 C   0  0  0  0  0  0
  -27.5576  -37.1776   24.8466 C   0  0  0  0  0  0
  -21.4287  -29.3046   22.3580 N   0  0  0  0  0  0
  -26.4288  -37.3730   23.9406 N   0  0  0  0  0  0
  -24.7297  -31.0153   22.0887 N   0  0  0  0  0  0
  -23.4212  -28.8065   23.3015 O   0  0  0  0  0  0
  -28.2803  -26.0531   20.2200 O   0  0  0  0  0  0
  -26.5681  -34.8896   22.4626 O   0  0  0  0  0  0
  -23.5604  -32.1279   23.6990 O   0  0  0  0  0  0
  -29.3499  -23.5174   19.4801 C   0  0  0  0  0  0
  -28.0592  -23.2743   21.0002 C   0  0  0  0  0  0
  -30.1083  -18.0506   22.2664 C   0  0  0  0  0  0
  -28.5323  -16.3905   21.5143 C   0  0  0  0  0  0
  -28.6512  -22.1487   19.9905 C   0  0  2  0  0  0
  -29.1368  -16.9808   22.7939 C   0  0  2  0  0  0
  -28.1419  -24.4889   19.9331 C   0  0  1  0  0  0
  -30.0648  -17.9040   20.7265 C   0  0  2  0  0  0
  -29.1679  -19.2843   20.1407 C   0  0  0  0  0  0
  -29.6779  -16.3267   20.6035 N   0  0  0  0  0  0
  -28.1325  -17.4644   23.7611 N   0  3  0  0  0  0
  -29.4989  -20.8407   20.4511 N   0  3  0  0  0  0
  -31.4632  -12.9571   19.1033 H   0  0  0  0  0  0
  -30.5756  -11.7591   19.9781 H   0  0  0  0  0  0
  -29.8507  -11.7704   17.5853 H   0  0  0  0  0  0
  -29.5672  -13.4897   17.6462 H   0  0  0  0  0  0
  -27.9541  -11.2908   18.9516 H   0  0  0  0  0  0
  -27.3773  -12.4883   17.8214 H   0  0  0  0  0  0
  -27.6073  -14.2589   19.4741 H   0  0  0  0  0  0
  -28.8718  -12.1319   21.2364 H   0  0  0  0  0  0
  -28.4226  -13.6010   21.9224 H   0  0  0  0  0  0
  -25.2757   -9.5655   22.4779 H   0  0  0  0  0  0
  -23.9985   -7.4614   22.7477 H   0  0  0  0  0  0
  -21.0836   -8.8777   19.8957 H   0  0  0  0  0  0
  -22.3701  -10.9673   19.6178 H   0  0  0  0  0  0
  -21.2004   -7.6143   23.9717 H   0  0  0  0  0  0
  -21.1486   -6.0518   25.9079 H   0  0  0  0  0  0
  -22.0595   -2.7604   23.2847 H   0  0  0  0  0  0
  -22.4015  -11.9872   22.4842 H   0  0  0  0  0  0
  -21.1038  -13.1247   22.2620 H   0  0  0  0  0  0
  -24.6178  -15.8206   20.4670 H   0  0  0  0  0  0
  -26.2206  -15.6118   19.9781 H   0  0  0  0  0  0
  -26.7308  -32.5236   23.0954 H   0  0  0  0  0  0
  -25.0080  -33.9569   25.0276 H   0  0  0  0  0  0
  -22.7644  -31.2815   21.3684 H   0  0  0  0  0  0
  -23.3766  -35.9558   23.3287 H   0  0  0  0  0  0
  -24.3576  -36.8893   22.2062 H   0  0  0  0  0  0
  -23.7243  -37.6420   23.6701 H   0  0  0  0  0  0
  -26.1864  -31.4357   20.6191 H   0  0  0  0  0  0
  -26.8851  -30.7358   22.0415 H   0  0  0  0  0  0
  -28.1403  -28.7278   21.2437 H   0  0  0  0  0  0
  -25.8869  -25.8100   18.9952 H   0  0  0  0  0  0
  -23.9877  -27.2859   18.9738 H   0  0  0  0  0  0
  -23.8342  -30.5499   19.3945 H   0  0  0  0  0  0
  -22.8020  -29.2253   19.8368 H   0  0  0  0  0  0
  -25.1324  -36.1825   25.0802 H   0  0  0  0  0  0
  -21.0021  -28.3330   24.1339 H   0  0  0  0  0  0
  -20.5688  -26.2347   23.3627 H   0  0  0  0  0  0
  -21.6661  -26.7428   22.1201 H   0  0  0  0  0  0
  -19.6932  -25.6282   21.1262 H   0  0  0  0  0  0
  -19.6706  -27.3171   20.6726 H   0  0  0  0  0  0
  -17.4221  -26.6680   21.4024 H   0  0  0  0  0  0
  -18.0349  -26.0083   22.9023 H   0  0  0  0  0  0
  -19.7960  -30.7302   24.2223 H   0  0  0  0  0  0
  -17.5032  -31.6270   24.5162 H   0  0  0  0  0  0
  -15.5369  -30.2973   23.7679 H   0  0  0  0  0  0
  -15.8697  -28.0805   22.7097 H   0  0  0  0  0  0
  -24.5884  -30.7111   25.7697 H   0  0  0  0  0  0
  -24.8885  -32.2950   26.4744 H   0  0  0  0  0  0
  -25.7961  -30.8971   27.0212 H   0  0  0  0  0  0
  -26.3057  -29.6639   24.1349 H   0  0  0  0  0  0
  -27.3997  -29.7272   25.4955 H   0  0  0  0  0  0
  -27.8980  -30.4159   23.9709 H   0  0  0  0  0  0
  -27.2633  -33.3665   26.2002 H   0  0  0  0  0  0
  -28.3900  -32.6863   25.0357 H   0  0  0  0  0  0
  -28.0682  -31.8519   26.5479 H   0  0  0  0  0  0
  -28.2581  -38.0084   24.7513 H   0  0  0  0  0  0
  -28.1084  -36.2611   24.6297 H   0  0  0  0  0  0
  -27.2290  -37.1425   25.8868 H   0  0  0  0  0  0
  -20.9514  -29.8746   21.6737 H   0  0  0  0  0  0
  -26.0148  -38.2794   24.1407 H   0  0  0  0  0  0
  -29.5385  -23.5341   18.4065 H   0  0  0  0  0  0
  -30.2784  -23.7426   20.0105 H   0  0  0  0  0  0
  -28.6976  -23.4460   21.8701 H   0  0  0  0  0  0
  -27.0432  -23.0647   21.3362 H   0  0  0  0  0  0
  -31.1138  -17.8452   22.6379 H   0  0  0  0  0  0
  -29.8518  -19.0540   22.6059 H   0  0  0  0  0  0
  -27.7756  -17.0509   21.0916 H   0  0  0  0  0  0
  -27.9801  -15.4895   21.7058 H   0  0  0  0  0  0
  -27.8858  -21.8404   19.2766 H   0  0  0  0  0  0
  -29.7169  -16.2034   23.2964 H   0  0  0  0  0  0
  -27.3521  -24.3488   19.1977 H   0  0  0  0  0  0
  -31.0787  -18.0036   20.3359 H   0  0  0  0  0  0
  -28.1303  -19.1643   20.4492 H   0  0  0  0  0  0
  -29.1369  -19.2030   19.0541 H   0  0  0  0  0  0
  -27.5376  -18.1751   23.3744 H   0  0  0  0  0  0
  -28.5846  -17.8397   24.5769 H   0  0  0  0  0  0
  -27.5498  -16.7056   24.0698 H   0  0  0  0  0  0
  -29.6133  -20.9161   21.4475 H   0  0  0  0  0  0
  -30.4236  -20.9736   20.0739 H   0  0  0  0  0  0
  1 25  1  0  0  0
  1 30  2  0  0  0
  1 80  1  0  0  0
  2  3  1  0  0  0
  2 25  1  0  0  0
  2 83  1  0  0  0
  2 84  1  0  0  0
  3  4  1  0  0  0
  3 85  1  0  0  0
  3 86  1  0  0  0
  4  5  1  0  0  0
  4 87  1  0  0  0
  4 88  1  0  0  0
  5  6  1  0  0  0
  5 26  1  0  0  0
  5 89  1  0  0  0
  6 25  1  0  0  0
  6 90  1  0  0  0
  6 91  1  0  0  0
  7  8  2  0  0  0
  7 26  1  0  0  0
  7 29  1  0  0  0
  8  9  1  0  0  0
  8 22  1  0  0  0
  9 10  1  0  0  0
  9 27  2  0  0  0
 10 11  2  0  0  0
 10 15  1  0  0  0
 11 12  1  0  0  0
 11 92  1  0  0  0
 12 13  2  0  0  0
 12 93  1  0  0  0
 13 14  1  0  0  0
 13 31  1  0  0  0
 14 15  2  0  0  0
 14 94  1  0  0  0
 15 95  1  0  0  0
 16 17  2  0  0  0
 16 21  1  0  0  0
 16 31  1  0  0  0
 17 18  1  0  0  0
 17 96  1  0  0  0
 18 19  2  0  0  0
 18 97  1  0  0  0
 19 20  1  0  0  0
 19 24  1  0  0  0
 20 21  2  0  0  0
 20 98  1  0  0  0
 21 23  1  0  0  0
 22 28  1  0  0  0
 22 32  2  0  0  0
 26 27  1  0  0  0
 28 99  1  0  0  0
 28100  1  0  0  0
 29101  1  0  0  0
 29102  1  0  0  0
 33 34  1  0  0  0
 33 66  1  0  0  0
 33 70  2  0  0  0
 34 36  1  0  0  0
 34 59  1  0  0  0
 34103  1  0  0  0
 35 44  2  0  0  0
 35 45  1  0  0  0
 35 68  1  0  0  0
 36 56  1  0  0  0
 36104  1  0  0  0
 37 39  1  0  0  0
 37 47  1  0  0  0
 37 66  1  0  0  0
 37105  1  0  0  0
 38 43  2  0  0  0
 38 46  1  0  0  0
 38 47  1  0  0  0
 39 64  1  0  0  0
 39 67  2  0  0  0
 40 52  1  0  0  0
 40 53  2  0  0  0
 40 58  1  0  0  0
 41106  1  0  0  0
 41107  1  0  0  0
 41108  1  0  0  0
 41 48  1  0  0  0
 42 43  1  0  0  0
 42 66  1  0  0  0
 42109  1  0  0  0
 42110  1  0  0  0
 43 44  1  0  0  0
 44111  1  0  0  0
 45 46  2  0  0  0
 45112  1  0  0  0
 46113  1  0  0  0
 47114  1  0  0  0
 47115  1  0  0  0
 48 56  1  0  0  0
 48 65  1  0  0  0
 48116  1  0  0  0
 49 50  1  0  0  0
 49 53  1  0  0  0
 49 64  1  0  0  0
 49117  1  0  0  0
 50 51  1  0  0  0
 50118  1  0  0  0
 50119  1  0  0  0
 51 52  1  0  0  0
 51120  1  0  0  0
 51121  1  0  0  0
 52122  1  0  0  0
 52123  1  0  0  0
 53 54  1  0  0  0
 54 55  2  0  0  0
 54124  1  0  0  0
 55 57  1  0  0  0
 55125  1  0  0  0
 56 69  2  0  0  0
 57 58  2  0  0  0
 57126  1  0  0  0
 58127  1  0  0  0
 59 60  1  0  0  0
 59 61  1  0  0  0
 59 62  1  0  0  0
 60128  1  0  0  0
 60129  1  0  0  0
 60130  1  0  0  0
 61131  1  0  0  0
 61132  1  0  0  0
 61133  1  0  0  0
 62134  1  0  0  0
 62135  1  0  0  0
 62136  1  0  0  0
 63 65  1  0  0  0
 63137  1  0  0  0
 63138  1  0  0  0
 63139  1  0  0  0
 64140  1  0  0  0
 65141  1  0  0  0
 68 77  1  0  0  0
 71 75  1  0  0  0
 71 77  1  0  0  0
 71142  1  0  0  0
 71143  1  0  0  0
 72 75  1  0  0  0
 72 77  1  0  0  0
 72144  1  0  0  0
 72145  1  0  0  0
 73 76  1  0  0  0
 73 78  1  0  0  0
 73146  1  0  0  0
 73147  1  0  0  0
 74 76  1  0  0  0
 74 80  1  0  0  0
 74148  1  0  0  0
 74149  1  0  0  0
 75 82  1  0  0  0
 75150  1  0  0  0
 76 81  1  0  0  0
 76151  1  0  0  0
 77152  1  0  0  0
 78 79  1  0  0  0
 78 80  1  0  0  0
 78153  1  0  0  0
 79 82  1  0  0  0
 79154  1  0  0  0
 79155  1  0  0  0
 81156  1  0  0  0
 81157  1  0  0  0
 81158  1  0  0  0
 82159  1  0  0  0
 82160  1  0  0  0
M  CHG  2  81   1  82   1
M  ISO  4   1 100  68 101  77 101  80 100
M  END
> <chiral flag>
0

> <version>
0

> <s_m_source_file>
/data/baiqing/PycharmProjects/Reinvent-master-3.2/result/LINK_invent/BTK/process_docking_weight1_custom_sum_contain_oxygen_bond_distance_aromatic_linkinvent_7_9_3/rearranged_h_0195.sdf

> <i_m_source_file_index>
70

> <r_mmod_Potential_Energy-OPLS-2005>
620.217895507812

> <r_mmod_Stretch_Energy-OPLS-2005>
377.010864257812

> <r_mmod_Bend_Energy-OPLS-2005>
440.141906738281

> <r_mmod_Torsional_Energy-OPLS-2005>
356.916534423828

> <r_mmod_Improper_Torsional_Energy-OPLS-2005>
9.53012180328369

> <r_mmod_Van_der_Waal_Energy-OPLS-2005>
125.092796325684

> <r_mmod_Electrostatic_Energy-OPLS-2005>
110.468650817871

> <r_mmod_Solvation_Energy-OPLS-2005>
-1068.38110351562

> <b_mmod_Minimization_Converged-OPLS-2005>
0

> <r_mmod_RMS_Derivative-OPLS-2005>
0.56519216299057

$$$$
71
                    3D
 Structure written by MMmdl.
171181  0  0  1  0            999 V2000
  -30.7263  -14.4149   20.5857 C   0  0  0  0  0  0
  -30.4196  -12.2770   19.4135 C   0  0  0  0  0  0
  -29.4947  -12.5015   18.2010 C   0  0  0  0  0  0
  -28.0147  -12.3769   18.6121 C   0  0  0  0  0  0
  -27.6648  -13.2052   19.8761 C   0  0  2  0  0  0
  -28.7044  -12.9695   20.9955 C   0  0  0  0  0  0
  -25.2585  -13.8149   20.5644 C   0  0  0  0  0  0
  -24.1835  -13.0427   20.9150 C   0  0  0  0  0  0
  -24.6400  -11.6897   20.8750 C   0  0  0  0  0  0
  -23.9066  -10.4292   21.0429 C   0  0  0  0  0  0
  -24.3607   -9.4198   21.9191 C   0  0  0  0  0  0
  -23.6275   -8.2242   22.0771 C   0  0  0  0  0  0
  -22.4248   -8.0289   21.3564 C   0  0  0  0  0  0
  -21.9899   -9.0268   20.4670 C   0  0  0  0  0  0
  -22.7241  -10.2140   20.3069 C   0  0  0  0  0  0
  -21.6845   -6.0744   22.5278 C   0  0  0  0  0  0
  -21.4024   -6.5645   23.8214 C   0  0  0  0  0  0
  -21.3654   -5.6793   24.9172 C   0  0  0  0  0  0
  -21.6023   -4.3048   24.7221 C   0  0  0  0  0  0
  -21.8815   -3.8153   23.4341 C   0  0  0  0  0  0
  -21.9182   -4.6972   22.3398 C   0  0  0  0  0  0
  -22.7857  -13.5232   21.1795 C   0  0  0  0  0  0
  -22.1650   -4.2158   21.0984 F   0  0  0  0  0  0
  -21.5615   -3.4528   25.7736 F   0  0  0  0  0  0
  -30.0403  -13.2542   20.4433 N   0  0  0  0  0  0
  -26.3037  -12.9322   20.3356 N   0  0  0  0  0  0
  -25.9333  -11.6478   20.5776 N   0  0  0  0  0  0
  -22.0482  -12.8286   22.0389 N   0  0  0  0  0  0
  -25.4287  -15.1869   20.4078 N   0  0  0  0  0  0
  -31.8519  -14.6019   20.1158 O   0  0  0  0  0  0
  -21.6615   -6.8885   21.4248 O   0  0  0  0  0  0
  -22.3553  -14.5537   20.6620 O   0  0  0  0  0  0
  -24.6100  -31.8682   23.2107 C   0  0  0  0  0  0
  -25.9019  -32.4820   23.8373 C   0  0  1  0  0  0
  -27.2382  -27.4660   20.0951 C   0  0  0  0  0  0
  -25.5893  -33.8615   24.2311 N   0  0  0  0  0  0
  -23.3949  -30.4925   21.5487 C   0  0  2  0  0  0
  -24.8414  -28.9561   20.1165 C   0  0  0  0  0  0
  -22.7356  -29.4676   22.4980 C   0  0  0  0  0  0
  -18.0261  -28.1373   22.8487 C   0  0  0  0  0  0
  -24.1491  -36.7323   23.2637 C   0  0  0  0  0  0
  -25.9174  -30.8457   21.3571 C   0  0  0  0  0  0
  -25.9959  -29.4800   20.7089 C   0  0  0  0  0  0
  -27.1953  -28.7410   20.6951 C   0  0  0  0  0  0
  -26.0690  -26.9440   19.4990 C   0  0  0  0  0  0
  -24.8702  -27.6847   19.5130 C   0  0  0  0  0  0
  -23.6018  -29.8200   20.1635 C   0  0  0  0  0  0
  -25.4111  -36.3102   24.0327 C   0  0  1  0  0  0
  -20.5844  -28.3656   23.1325 C   0  0  2  0  0  0
  -20.6752  -26.9399   22.5416 C   0  0  0  0  0  0
  -19.5741  -26.6389   21.5198 C   0  0  0  0  0  0
  -18.1920  -26.7923   22.1613 C   0  0  0  0  0  0
  -19.1511  -28.8823   23.2912 C   0  0  0  0  0  0
  -18.9449  -30.1436   23.8918 C   0  0  0  0  0  0
  -17.6457  -30.6585   24.0574 C   0  0  0  0  0  0
  -25.9033  -34.9473   23.5114 C   0  0  0  0  0  0
  -16.5345  -29.9094   23.6332 C   0  0  0  0  0  0
  -16.7255  -28.6513   23.0338 C   0  0  0  0  0  0
  -26.4474  -31.6593   25.0685 C   0  0  0  0  0  0
  -25.3759  -31.3710   26.1449 C   0  0  0  0  0  0
  -27.0316  -30.3039   24.6053 C   0  0  0  0  0  0
  -27.6045  -32.4306   25.7457 C   0  0  0  0  0  0
  -27.5578  -37.1817   24.8459 C   0  0  0  0  0  0
  -21.4086  -29.3039   22.3726 N   0  0  0  0  0  0
  -26.4296  -37.3784   23.9398 N   0  0  0  0  0  0
  -24.6582  -31.0817   22.0992 N   0  0  0  0  0  0
  -23.4148  -28.8227   23.3009 O   0  0  0  0  0  0
  -28.4436  -26.8080   20.0980 O   0  0  0  0  0  0
  -26.5593  -34.8926   22.4672 O   0  0  0  0  0  0
  -23.5307  -32.1417   23.7545 O   0  0  0  0  0  0
  -33.4186  -21.9675   19.9794 C   0  0  0  0  0  0
  -33.7036  -24.1585   20.9335 C   0  0  0  0  0  0
  -32.0153  -22.1184   20.0983 C   0  0  0  0  0  0
  -34.2823  -22.9878   20.4156 C   0  0  0  0  0  0
  -31.5396  -23.3567   20.5966 C   0  0  0  0  0  0
  -29.4529  -16.4930   20.3490 C   0  0  0  0  0  0
  -30.6711  -16.4654   22.0061 C   0  0  0  0  0  0
  -31.4363  -19.7875   18.8564 C   0  0  0  0  0  0
  -31.0697  -20.9927   19.6957 C   0  0  1  0  0  0
  -30.5931  -17.4035   20.8003 C   0  0  0  0  0  0
  -36.6376  -23.6006   21.2944 C   0  0  0  0  0  0
  -35.7916  -22.8014   20.2916 C   0  0  0  0  0  0
  -30.3591  -18.9130   20.9592 C   0  0  0  0  0  0
  -29.6757  -24.9887   20.9238 C   0  0  0  0  0  0
  -28.4742  -25.3858   20.0499 C   0  0  0  0  0  0
  -32.3720  -24.3318   21.0184 N   0  0  0  0  0  0
  -30.0432  -15.4238   21.1720 N   0  0  0  0  0  0
  -30.1651  -23.6345   20.6614 N   0  0  0  0  0  0
  -31.4267  -19.7154   20.3102 N   0  3  1  0  0  0
  -31.4659  -12.3683   19.1161 H   0  0  0  0  0  0
  -30.3122  -11.2641   19.8019 H   0  0  0  0  0  0
  -29.7246  -11.7819   17.4145 H   0  0  0  0  0  0
  -29.6788  -13.4885   17.7754 H   0  0  0  0  0  0
  -27.8092  -11.3221   18.7902 H   0  0  0  0  0  0
  -27.3677  -12.6730   17.7858 H   0  0  0  0  0  0
  -27.7101  -14.2558   19.5909 H   0  0  0  0  0  0
  -28.6636  -11.9360   21.3403 H   0  0  0  0  0  0
  -28.4749  -13.5796   21.8710 H   0  0  0  0  0  0
  -25.2763   -9.5627   22.4751 H   0  0  0  0  0  0
  -23.9960   -7.4627   22.7496 H   0  0  0  0  0  0
  -21.0812   -8.8805   19.8987 H   0  0  0  0  0  0
  -22.3718  -10.9677   19.6165 H   0  0  0  0  0  0
  -21.2057   -7.6157   23.9725 H   0  0  0  0  0  0
  -21.1462   -6.0523   25.9067 H   0  0  0  0  0  0
  -22.0604   -2.7613   23.2841 H   0  0  0  0  0  0
  -22.4047  -11.9948   22.4819 H   0  0  0  0  0  0
  -21.1100  -13.1367   22.2550 H   0  0  0  0  0  0
  -24.6649  -15.8448   20.5275 H   0  0  0  0  0  0
  -26.2859  -15.6291   20.1042 H   0  0  0  0  0  0
  -26.7088  -32.5546   23.1138 H   0  0  0  0  0  0
  -25.0051  -33.9770   25.0460 H   0  0  0  0  0  0
  -22.6837  -31.3094   21.4078 H   0  0  0  0  0  0
  -23.3729  -35.9681   23.3321 H   0  0  0  0  0  0
  -24.3582  -36.8918   22.2048 H   0  0  0  0  0  0
  -23.7286  -37.6552   23.6642 H   0  0  0  0  0  0
  -26.0190  -31.6146   20.5897 H   0  0  0  0  0  0
  -26.8084  -30.9013   21.9708 H   0  0  0  0  0  0
  -28.0889  -29.1444   21.1505 H   0  0  0  0  0  0
  -26.0773  -25.9810   19.0094 H   0  0  0  0  0  0
  -23.9813  -27.2752   19.0534 H   0  0  0  0  0  0
  -23.7096  -30.5925   19.4008 H   0  0  0  0  0  0
  -22.7260  -29.2377   19.8697 H   0  0  0  0  0  0
  -25.1299  -36.1956   25.0821 H   0  0  0  0  0  0
  -20.9941  -28.3225   24.1443 H   0  0  0  0  0  0
  -20.5630  -26.2266   23.3594 H   0  0  0  0  0  0
  -21.6632  -26.7436   22.1233 H   0  0  0  0  0  0
  -19.6911  -25.6303   21.1219 H   0  0  0  0  0  0
  -19.6697  -27.3203   20.6734 H   0  0  0  0  0  0
  -17.4188  -26.6659   21.4023 H   0  0  0  0  0  0
  -18.0348  -26.0053   22.9001 H   0  0  0  0  0  0
  -19.7931  -30.7240   24.2293 H   0  0  0  0  0  0
  -17.5023  -31.6266   24.5172 H   0  0  0  0  0  0
  -15.5354  -30.3010   23.7643 H   0  0  0  0  0  0
  -15.8655  -28.0855   22.7027 H   0  0  0  0  0  0
  -24.5906  -30.7079   25.7807 H   0  0  0  0  0  0
  -24.8989  -32.2878   26.4915 H   0  0  0  0  0  0
  -25.8124  -30.8866   27.0192 H   0  0  0  0  0  0
  -26.2858  -29.6773   24.1146 H   0  0  0  0  0  0
  -27.4144  -29.7301   25.4510 H   0  0  0  0  0  0
  -27.8660  -30.4367   23.9159 H   0  0  0  0  0  0
  -27.2649  -33.3577   26.2088 H   0  0  0  0  0  0
  -28.3840  -32.6908   25.0283 H   0  0  0  0  0  0
  -28.0725  -31.8391   26.5338 H   0  0  0  0  0  0
  -28.2608  -38.0102   24.7480 H   0  0  0  0  0  0
  -28.1060  -36.2633   24.6308 H   0  0  0  0  0  0
  -27.2288  -37.1495   25.8860 H   0  0  0  0  0  0
  -20.9212  -29.8778   21.6990 H   0  0  0  0  0  0
  -26.0180  -38.2861   24.1386 H   0  0  0  0  0  0
  -33.8520  -21.0675   19.5708 H   0  0  0  0  0  0
  -34.3058  -24.9856   21.2787 H   0  0  0  0  0  0
  -29.4493  -16.3171   19.2700 H   0  0  0  0  0  0
  -28.4648  -16.8092   20.6924 H   0  0  0  0  0  0
  -30.0507  -16.7795   22.8492 H   0  0  0  0  0  0
  -31.6908  -16.2512   22.3346 H   0  0  0  0  0  0
  -32.4467  -19.6444   18.4852 H   0  0  0  0  0  0
  -30.6520  -19.1669   18.4253 H   0  0  0  0  0  0
  -30.0162  -21.2183   19.8350 H   0  0  0  0  0  0
  -31.4629  -17.2142   20.1653 H   0  0  0  0  0  0
  -37.6954  -23.3663   21.1678 H   0  0  0  0  0  0
  -36.3732  -23.3601   22.3245 H   0  0  0  0  0  0
  -36.5330  -24.6771   21.1564 H   0  0  0  0  0  0
  -36.0870  -23.0612   19.2744 H   0  0  0  0  0  0
  -36.0222  -21.7416   20.4167 H   0  0  0  0  0  0
  -30.3485  -19.1883   22.0137 H   0  0  0  0  0  0
  -29.3764  -19.1862   20.5722 H   0  0  0  0  0  0
  -29.4078  -25.0725   21.9783 H   0  0  0  0  0  0
  -30.4568  -25.7278   20.7478 H   0  0  0  0  0  0
  -27.5655  -24.9165   20.4293 H   0  0  0  0  0  0
  -28.6153  -25.0743   19.0137 H   0  0  0  0  0  0
  -29.5017  -22.9745   20.2742 H   0  0  0  0  0  0
  -32.3513  -19.6603   20.7080 H   0  0  0  0  0  0
  1 25  1  0  0  0
  1 30  2  0  0  0
  1 87  1  0  0  0
  2  3  1  0  0  0
  2 25  1  0  0  0
  2 90  1  0  0  0
  2 91  1  0  0  0
  3  4  1  0  0  0
  3 92  1  0  0  0
  3 93  1  0  0  0
  4  5  1  0  0  0
  4 94  1  0  0  0
  4 95  1  0  0  0
  5  6  1  0  0  0
  5 26  1  0  0  0
  5 96  1  0  0  0
  6 25  1  0  0  0
  6 97  1  0  0  0
  6 98  1  0  0  0
  7  8  2  0  0  0
  7 26  1  0  0  0
  7 29  1  0  0  0
  8  9  1  0  0  0
  8 22  1  0  0  0
  9 10  1  0  0  0
  9 27  2  0  0  0
 10 11  2  0  0  0
 10 15  1  0  0  0
 11 12  1  0  0  0
 11 99  1  0  0  0
 12 13  2  0  0  0
 12100  1  0  0  0
 13 14  1  0  0  0
 13 31  1  0  0  0
 14 15  2  0  0  0
 14101  1  0  0  0
 15102  1  0  0  0
 16 17  2  0  0  0
 16 21  1  0  0  0
 16 31  1  0  0  0
 17 18  1  0  0  0
 17103  1  0  0  0
 18 19  2  0  0  0
 18104  1  0  0  0
 19 20  1  0  0  0
 19 24  1  0  0  0
 20 21  2  0  0  0
 20105  1  0  0  0
 21 23  1  0  0  0
 22 28  1  0  0  0
 22 32  2  0  0  0
 26 27  1  0  0  0
 28106  1  0  0  0
 28107  1  0  0  0
 29108  1  0  0  0
 29109  1  0  0  0
 33 34  1  0  0  0
 33 66  1  0  0  0
 33 70  2  0  0  0
 34 36  1  0  0  0
 34 59  1  0  0  0
 34110  1  0  0  0
 35 44  2  0  0  0
 35 45  1  0  0  0
 35 68  1  0  0  0
 36 56  1  0  0  0
 36111  1  0  0  0
 37 39  1  0  0  0
 37 47  1  0  0  0
 37 66  1  0  0  0
 37112  1  0  0  0
 38 43  2  0  0  0
 38 46  1  0  0  0
 38 47  1  0  0  0
 39 64  1  0  0  0
 39 67  2  0  0  0
 40 52  1  0  0  0
 40 53  2  0  0  0
 40 58  1  0  0  0
 41113  1  0  0  0
 41114  1  0  0  0
 41115  1  0  0  0
 41 48  1  0  0  0
 42 43  1  0  0  0
 42 66  1  0  0  0
 42116  1  0  0  0
 42117  1  0  0  0
 43 44  1  0  0  0
 44118  1  0  0  0
 45 46  2  0  0  0
 45119  1  0  0  0
 46120  1  0  0  0
 47121  1  0  0  0
 47122  1  0  0  0
 48 56  1  0  0  0
 48 65  1  0  0  0
 48123  1  0  0  0
 49 50  1  0  0  0
 49 53  1  0  0  0
 49 64  1  0  0  0
 49124  1  0  0  0
 50 51  1  0  0  0
 50125  1  0  0  0
 50126  1  0  0  0
 51 52  1  0  0  0
 51127  1  0  0  0
 51128  1  0  0  0
 52129  1  0  0  0
 52130  1  0  0  0
 53 54  1  0  0  0
 54 55  2  0  0  0
 54131  1  0  0  0
 55 57  1  0  0  0
 55132  1  0  0  0
 56 69  2  0  0  0
 57 58  2  0  0  0
 57133  1  0  0  0
 58134  1  0  0  0
 59 60  1  0  0  0
 59 61  1  0  0  0
 59 62  1  0  0  0
 60135  1  0  0  0
 60136  1  0  0  0
 60137  1  0  0  0
 61138  1  0  0  0
 61139  1  0  0  0
 61140  1  0  0  0
 62141  1  0  0  0
 62142  1  0  0  0
 62143  1  0  0  0
 63 65  1  0  0  0
 63144  1  0  0  0
 63145  1  0  0  0
 63146  1  0  0  0
 64147  1  0  0  0
 65148  1  0  0  0
 68 85  1  0  0  0
 71 73  2  0  0  0
 71 74  1  0  0  0
 71149  1  0  0  0
 72 74  2  0  0  0
 72 86  1  0  0  0
 72150  1  0  0  0
 73 75  1  0  0  0
 73 79  1  0  0  0
 74 82  1  0  0  0
 75 86  2  0  0  0
 75 88  1  0  0  0
 76 80  1  0  0  0
 76 87  1  0  0  0
 76151  1  0  0  0
 76152  1  0  0  0
 77 80  1  0  0  0
 77 87  1  0  0  0
 77153  1  0  0  0
 77154  1  0  0  0
 78 79  1  0  0  0
 78 89  1  0  0  0
 78155  1  0  0  0
 78156  1  0  0  0
 79 89  1  0  0  0
 79157  1  0  0  0
 80 83  1  0  0  0
 80158  1  0  0  0
 81 82  1  0  0  0
 81159  1  0  0  0
 81160  1  0  0  0
 81161  1  0  0  0
 82162  1  0  0  0
 82163  1  0  0  0
 83164  1  0  0  0
 83165  1  0  0  0
 83 89  1  0  0  0
 84 85  1  0  0  0
 84 88  1  0  0  0
 84166  1  0  0  0
 84167  1  0  0  0
 85168  1  0  0  0
 85169  1  0  0  0
 88170  1  0  0  0
 89171  1  0  0  0
M  CHG  1  89   1
M  ISO  4   1 100  68 101  85 101  87 100
M  END
> <chiral flag>
0

> <version>
0

> <s_m_source_file>
/data/baiqing/PycharmProjects/Reinvent-master-3.2/result/LINK_invent/BTK/process_docking_weight1_custom_sum_contain_oxygen_bond_distance_aromatic_linkinvent_7_9_3/rearranged_h_0195.sdf

> <i_m_source_file_index>
71

> <r_mmod_Potential_Energy-OPLS-2005>
-266.688354492188

> <r_mmod_Stretch_Energy-OPLS-2005>
35.5002250671387

> <r_mmod_Bend_Energy-OPLS-2005>
132.615447998047

> <r_mmod_Torsional_Energy-OPLS-2005>
306.159240722656

> <r_mmod_Improper_Torsional_Energy-OPLS-2005>
10.9641170501709

> <r_mmod_Van_der_Waal_Energy-OPLS-2005>
174.273193359375

> <r_mmod_Electrostatic_Energy-OPLS-2005>
-437.521270751953

> <r_mmod_Solvation_Energy-OPLS-2005>
-498.932556152344

> <b_mmod_Minimization_Converged-OPLS-2005>
0

> <r_mmod_RMS_Derivative-OPLS-2005>
2.90554666519165

$$$$
72
                    3D
 Structure written by MMmdl.
165174  0  0  1  0            999 V2000
  -30.6455  -14.6259   20.4648 C   0  0  0  0  0  0
  -30.4260  -12.3783   19.4542 C   0  0  0  0  0  0
  -29.5062  -12.4901   18.2201 C   0  0  0  0  0  0
  -28.0276  -12.3397   18.6329 C   0  0  0  0  0  0
  -27.6472  -13.2226   19.8537 C   0  0  2  0  0  0
  -28.6910  -13.1155   20.9861 C   0  0  0  0  0  0
  -25.2542  -13.8183   20.5680 C   0  0  0  0  0  0
  -24.1813  -13.0449   20.9191 C   0  0  0  0  0  0
  -24.6393  -11.6919   20.8736 C   0  0  0  0  0  0
  -23.9070  -10.4299   21.0411 C   0  0  0  0  0  0
  -24.3620   -9.4213   21.9187 C   0  0  0  0  0  0
  -23.6299   -8.2246   22.0752 C   0  0  0  0  0  0
  -22.4277   -8.0283   21.3545 C   0  0  0  0  0  0
  -21.9910   -9.0257   20.4649 C   0  0  0  0  0  0
  -22.7242  -10.2137   20.3064 C   0  0  0  0  0  0
  -21.6852   -6.0734   22.5275 C   0  0  0  0  0  0
  -21.4018   -6.5634   23.8210 C   0  0  0  0  0  0
  -21.3658   -5.6784   24.9166 C   0  0  0  0  0  0
  -21.6045   -4.3053   24.7219 C   0  0  0  0  0  0
  -21.8817   -3.8146   23.4339 C   0  0  0  0  0  0
  -21.9196   -4.6962   22.3393 C   0  0  0  0  0  0
  -22.7829  -13.5241   21.1851 C   0  0  0  0  0  0
  -22.1665   -4.2151   21.0971 F   0  0  0  0  0  0
  -21.5637   -3.4534   25.7734 F   0  0  0  0  0  0
  -29.9995  -13.4245   20.4017 N   0  0  0  0  0  0
  -26.2960  -12.9378   20.3279 N   0  0  0  0  0  0
  -25.9320  -11.6531   20.5739 N   0  0  0  0  0  0
  -22.0458  -12.8235   22.0407 N   0  0  0  0  0  0
  -25.4257  -15.1896   20.4088 N   0  0  0  0  0  0
  -31.8502  -14.7044   20.2093 O   0  0  0  0  0  0
  -21.6643   -6.8877   21.4239 O   0  0  0  0  0  0
  -22.3519  -14.5543   20.6698 O   0  0  0  0  0  0
  -24.6236  -31.8614   23.2057 C   0  0  0  0  0  0
  -25.9108  -32.4783   23.8365 C   0  0  1  0  0  0
  -27.2288  -27.3536   20.0971 C   0  0  0  0  0  0
  -25.5936  -33.8580   24.2288 N   0  0  0  0  0  0
  -23.4141  -30.4864   21.5472 C   0  0  2  0  0  0
  -24.8603  -28.9464   20.1083 C   0  0  0  0  0  0
  -22.7451  -29.4626   22.4949 C   0  0  0  0  0  0
  -18.0281  -28.1368   22.8485 C   0  0  0  0  0  0
  -24.1493  -36.7291   23.2639 C   0  0  0  0  0  0
  -25.9531  -30.8000   21.3744 C   0  0  0  0  0  0
  -26.0262  -29.4308   20.7142 C   0  0  0  0  0  0
  -27.2096  -28.6410   20.7086 C   0  0  0  0  0  0
  -26.0320  -26.9007   19.4956 C   0  0  0  0  0  0
  -24.8622  -27.6835   19.4964 C   0  0  0  0  0  0
  -23.6268  -29.8231   20.1613 C   0  0  0  0  0  0
  -25.4119  -36.3076   24.0325 C   0  0  1  0  0  0
  -20.5879  -28.3671   23.1290 C   0  0  2  0  0  0
  -20.6773  -26.9397   22.5413 C   0  0  0  0  0  0
  -19.5751  -26.6376   21.5209 C   0  0  0  0  0  0
  -18.1926  -26.7915   22.1615 C   0  0  0  0  0  0
  -19.1533  -28.8834   23.2883 C   0  0  0  0  0  0
  -18.9456  -30.1439   23.8893 C   0  0  0  0  0  0
  -17.6459  -30.6574   24.0554 C   0  0  0  0  0  0
  -25.9048  -34.9450   23.5100 C   0  0  0  0  0  0
  -16.5348  -29.9068   23.6332 C   0  0  0  0  0  0
  -16.7269  -28.6486   23.0353 C   0  0  0  0  0  0
  -26.4515  -31.6586   25.0725 C   0  0  0  0  0  0
  -25.3764  -31.3730   26.1466 C   0  0  0  0  0  0
  -27.0372  -30.3012   24.6180 C   0  0  0  0  0  0
  -27.6069  -32.4327   25.7494 C   0  0  0  0  0  0
  -27.5577  -37.1796   24.8459 C   0  0  0  0  0  0
  -21.4172  -29.3033   22.3690 N   0  0  0  0  0  0
  -26.4290  -37.3775   23.9401 N   0  0  0  0  0  0
  -24.6816  -31.0657   22.0993 N   0  0  0  0  0  0
  -23.4192  -28.8165   23.3010 O   0  0  0  0  0  0
  -28.3585  -26.5310   20.1562 O   0  0  0  0  0  0
  -26.5603  -34.8912   22.4659 O   0  0  0  0  0  0
  -23.5409  -32.1405   23.7409 O   0  0  0  0  0  0
  -29.1161  -23.1788   20.4233 C   0  0  0  0  0  0
  -30.2040  -16.8493   19.3338 C   0  0  0  0  0  0
  -29.1450  -16.6752   21.1282 C   0  0  0  0  0  0
  -28.1907  -21.8059   18.7062 C   0  0  0  0  0  0
  -29.8519  -17.8742   20.4304 C   0  0  0  0  0  0
  -29.2595  -21.7301   19.8158 C   0  0  2  0  0  0
  -28.9711  -24.0575   19.1383 C   0  0  2  0  0  0
  -30.2575  -20.5582   21.6725 C   0  0  0  0  0  0
  -28.4324  -23.3593   16.7959 C   0  0  0  0  0  0
  -29.1662  -19.2188   19.9271 C   0  0  0  0  0  0
  -28.6523  -25.6297   19.0487 C   0  0  0  0  0  0
  -29.8594  -15.7310   20.2323 N   0  0  0  0  0  0
  -29.1714  -20.5136   20.6966 N   0  0  0  0  0  0
  -28.1217  -23.2211   18.2405 N   0  3  1  0  0  0
  -31.4717  -12.4842   19.1579 H   0  0  0  0  0  0
  -30.3419  -11.3939   19.9161 H   0  0  0  0  0  0
  -29.7715  -11.7289   17.4842 H   0  0  0  0  0  0
  -29.6575  -13.4539   17.7311 H   0  0  0  0  0  0
  -27.8605  -11.2886   18.8712 H   0  0  0  0  0  0
  -27.3757  -12.5673   17.7888 H   0  0  0  0  0  0
  -27.6542  -14.2522   19.4953 H   0  0  0  0  0  0
  -28.6951  -12.1177   21.4277 H   0  0  0  0  0  0
  -28.4523  -13.8116   21.7923 H   0  0  0  0  0  0
  -25.2769   -9.5697   22.4753 H   0  0  0  0  0  0
  -24.0012   -7.4638   22.7467 H   0  0  0  0  0  0
  -21.0843   -8.8788   19.8950 H   0  0  0  0  0  0
  -22.3713  -10.9676   19.6173 H   0  0  0  0  0  0
  -21.2011   -7.6143   23.9714 H   0  0  0  0  0  0
  -21.1485   -6.0514   25.9072 H   0  0  0  0  0  0
  -22.0601   -2.7614   23.2832 H   0  0  0  0  0  0
  -22.4081  -11.9916   22.4820 H   0  0  0  0  0  0
  -21.1074  -13.1277   22.2597 H   0  0  0  0  0  0
  -24.6612  -15.8462   20.5189 H   0  0  0  0  0  0
  -26.2807  -15.6229   20.0847 H   0  0  0  0  0  0
  -26.7169  -32.5457   23.1104 H   0  0  0  0  0  0
  -25.0117  -33.9731   25.0455 H   0  0  0  0  0  0
  -22.7053  -31.3057   21.4078 H   0  0  0  0  0  0
  -23.3749  -35.9627   23.3306 H   0  0  0  0  0  0
  -24.3585  -36.8912   22.2051 H   0  0  0  0  0  0
  -23.7251  -37.6498   23.6661 H   0  0  0  0  0  0
  -26.0864  -31.5676   20.6108 H   0  0  0  0  0  0
  -26.8328  -30.8420   22.0054 H   0  0  0  0  0  0
  -28.1041  -29.0088   21.1913 H   0  0  0  0  0  0
  -25.9654  -25.9173   19.0550 H   0  0  0  0  0  0
  -23.9616  -27.2988   19.0366 H   0  0  0  0  0  0
  -23.7411  -30.6007   19.4056 H   0  0  0  0  0  0
  -22.7475  -29.2505   19.8617 H   0  0  0  0  0  0
  -25.1299  -36.1927   25.0816 H   0  0  0  0  0  0
  -20.9966  -28.3241   24.1410 H   0  0  0  0  0  0
  -20.5676  -26.2271   23.3607 H   0  0  0  0  0  0
  -21.6645  -26.7431   22.1205 H   0  0  0  0  0  0
  -19.6919  -25.6288   21.1230 H   0  0  0  0  0  0
  -19.6696  -27.3193   20.6743 H   0  0  0  0  0  0
  -17.4206  -26.6667   21.4007 H   0  0  0  0  0  0
  -18.0319  -26.0048   22.8999 H   0  0  0  0  0  0
  -19.7935  -30.7255   24.2258 H   0  0  0  0  0  0
  -17.5015  -31.6259   24.5150 H   0  0  0  0  0  0
  -15.5346  -30.2966   23.7666 H   0  0  0  0  0  0
  -15.8667  -28.0803   22.7073 H   0  0  0  0  0  0
  -24.5888  -30.7141   25.7796 H   0  0  0  0  0  0
  -24.9030  -32.2915   26.4944 H   0  0  0  0  0  0
  -25.8099  -30.8850   27.0204 H   0  0  0  0  0  0
  -26.2953  -29.6732   24.1235 H   0  0  0  0  0  0
  -27.4111  -29.7294   25.4685 H   0  0  0  0  0  0
  -27.8800  -30.4304   23.9385 H   0  0  0  0  0  0
  -27.2665  -33.3610   26.2094 H   0  0  0  0  0  0
  -28.3872  -32.6918   25.0325 H   0  0  0  0  0  0
  -28.0752  -31.8447   26.5399 H   0  0  0  0  0  0
  -28.2590  -38.0097   24.7510 H   0  0  0  0  0  0
  -28.1076  -36.2626   24.6281 H   0  0  0  0  0  0
  -27.2291  -37.1443   25.8861 H   0  0  0  0  0  0
  -20.9333  -29.8756   21.6915 H   0  0  0  0  0  0
  -26.0169  -38.2848   24.1406 H   0  0  0  0  0  0
  -29.9775  -23.4764   21.0218 H   0  0  0  0  0  0
  -28.2252  -23.2569   21.0477 H   0  0  0  0  0  0
  -31.2481  -16.9036   19.0200 H   0  0  0  0  0  0
  -29.5476  -16.9094   18.4644 H   0  0  0  0  0  0
  -28.0627  -16.6717   20.9871 H   0  0  0  0  0  0
  -29.3942  -16.5782   22.1855 H   0  0  0  0  0  0
  -27.2134  -21.5374   19.1075 H   0  0  0  0  0  0
  -28.4028  -21.1117   17.8913 H   0  0  0  0  0  0
  -30.7826  -18.0780   20.9613 H   0  0  0  0  0  0
  -30.2320  -21.6905   19.3197 H   0  0  0  0  0  0
  -29.9721  -23.9947   18.7045 H   0  0  0  0  0  0
  -30.2313  -21.4816   22.2517 H   0  0  0  0  0  0
  -31.2343  -20.4853   21.1916 H   0  0  0  0  0  0
  -30.1686  -19.7423   22.3911 H   0  0  0  0  0  0
  -27.7678  -22.7353   16.1979 H   0  0  0  0  0  0
  -29.4581  -23.0570   16.5783 H   0  0  0  0  0  0
  -28.3055  -24.3841   16.4506 H   0  0  0  0  0  0
  -28.1283  -19.0128   19.6597 H   0  0  0  0  0  0
  -29.6459  -19.4374   18.9721 H   0  0  0  0  0  0
  -27.9651  -25.8038   18.2227 H   0  0  0  0  0  0
  -29.5666  -26.0741   18.6534 H   0  0  0  0  0  0
  -27.1585  -23.4985   18.3663 H   0  0  0  0  0  0
  1 25  1  0  0  0
  1 30  2  0  0  0
  1 82  1  0  0  0
  2  3  1  0  0  0
  2 25  1  0  0  0
  2 85  1  0  0  0
  2 86  1  0  0  0
  3  4  1  0  0  0
  3 87  1  0  0  0
  3 88  1  0  0  0
  4  5  1  0  0  0
  4 89  1  0  0  0
  4 90  1  0  0  0
  5  6  1  0  0  0
  5 26  1  0  0  0
  5 91  1  0  0  0
  6 25  1  0  0  0
  6 92  1  0  0  0
  6 93  1  0  0  0
  7  8  2  0  0  0
  7 26  1  0  0  0
  7 29  1  0  0  0
  8  9  1  0  0  0
  8 22  1  0  0  0
  9 10  1  0  0  0
  9 27  2  0  0  0
 10 11  2  0  0  0
 10 15  1  0  0  0
 11 12  1  0  0  0
 11 94  1  0  0  0
 12 13  2  0  0  0
 12 95  1  0  0  0
 13 14  1  0  0  0
 13 31  1  0  0  0
 14 15  2  0  0  0
 14 96  1  0  0  0
 15 97  1  0  0  0
 16 17  2  0  0  0
 16 21  1  0  0  0
 16 31  1  0  0  0
 17 18  1  0  0  0
 17 98  1  0  0  0
 18 19  2  0  0  0
 18 99  1  0  0  0
 19 20  1  0  0  0
 19 24  1  0  0  0
 20 21  2  0  0  0
 20100  1  0  0  0
 21 23  1  0  0  0
 22 28  1  0  0  0
 22 32  2  0  0  0
 26 27  1  0  0  0
 28101  1  0  0  0
 28102  1  0  0  0
 29103  1  0  0  0
 29104  1  0  0  0
 33 34  1  0  0  0
 33 66  1  0  0  0
 33 70  2  0  0  0
 34 36  1  0  0  0
 34 59  1  0  0  0
 34105  1  0  0  0
 35 44  2  0  0  0
 35 45  1  0  0  0
 35 68  1  0  0  0
 36 56  1  0  0  0
 36106  1  0  0  0
 37 39  1  0  0  0
 37 47  1  0  0  0
 37 66  1  0  0  0
 37107  1  0  0  0
 38 43  2  0  0  0
 38 46  1  0  0  0
 38 47  1  0  0  0
 39 64  1  0  0  0
 39 67  2  0  0  0
 40 52  1  0  0  0
 40 53  2  0  0  0
 40 58  1  0  0  0
 41108  1  0  0  0
 41109  1  0  0  0
 41110  1  0  0  0
 41 48  1  0  0  0
 42 43  1  0  0  0
 42 66  1  0  0  0
 42111  1  0  0  0
 42112  1  0  0  0
 43 44  1  0  0  0
 44113  1  0  0  0
 45 46  2  0  0  0
 45114  1  0  0  0
 46115  1  0  0  0
 47116  1  0  0  0
 47117  1  0  0  0
 48 56  1  0  0  0
 48 65  1  0  0  0
 48118  1  0  0  0
 49 50  1  0  0  0
 49 53  1  0  0  0
 49 64  1  0  0  0
 49119  1  0  0  0
 50 51  1  0  0  0
 50120  1  0  0  0
 50121  1  0  0  0
 51 52  1  0  0  0
 51122  1  0  0  0
 51123  1  0  0  0
 52124  1  0  0  0
 52125  1  0  0  0
 53 54  1  0  0  0
 54 55  2  0  0  0
 54126  1  0  0  0
 55 57  1  0  0  0
 55127  1  0  0  0
 56 69  2  0  0  0
 57 58  2  0  0  0
 57128  1  0  0  0
 58129  1  0  0  0
 59 60  1  0  0  0
 59 61  1  0  0  0
 59 62  1  0  0  0
 60130  1  0  0  0
 60131  1  0  0  0
 60132  1  0  0  0
 61133  1  0  0  0
 61134  1  0  0  0
 61135  1  0  0  0
 62136  1  0  0  0
 62137  1  0  0  0
 62138  1  0  0  0
 63 65  1  0  0  0
 63139  1  0  0  0
 63140  1  0  0  0
 63141  1  0  0  0
 64142  1  0  0  0
 65143  1  0  0  0
 68 81  1  0  0  0
 71 76  1  0  0  0
 71 77  1  0  0  0
 71144  1  0  0  0
 71145  1  0  0  0
 72 75  1  0  0  0
 72 82  1  0  0  0
 72146  1  0  0  0
 72147  1  0  0  0
 73 75  1  0  0  0
 73 82  1  0  0  0
 73148  1  0  0  0
 73149  1  0  0  0
 74 76  1  0  0  0
 74 84  1  0  0  0
 74150  1  0  0  0
 74151  1  0  0  0
 75 80  1  0  0  0
 75152  1  0  0  0
 76 83  1  0  0  0
 76153  1  0  0  0
 77 81  1  0  0  0
 77 84  1  0  0  0
 77154  1  0  0  0
 78 83  1  0  0  0
 78155  1  0  0  0
 78156  1  0  0  0
 78157  1  0  0  0
 79158  1  0  0  0
 79159  1  0  0  0
 79160  1  0  0  0
 79 84  1  0  0  0
 80 83  1  0  0  0
 80161  1  0  0  0
 80162  1  0  0  0
 81163  1  0  0  0
 81164  1  0  0  0
 84165  1  0  0  0
M  CHG  1  84   1
M  ISO  4   1 100  68 101  81 101  82 100
M  END
> <chiral flag>
0

> <version>
0

> <s_m_source_file>
/data/baiqing/PycharmProjects/Reinvent-master-3.2/result/LINK_invent/BTK/process_docking_weight1_custom_sum_contain_oxygen_bond_distance_aromatic_linkinvent_7_9_3/rearranged_h_0195.sdf

> <i_m_source_file_index>
72

> <r_mmod_Potential_Energy-OPLS-2005>
286.921600341797

> <r_mmod_Stretch_Energy-OPLS-2005>
73.535514831543

> <r_mmod_Bend_Energy-OPLS-2005>
235.878677368164

> <r_mmod_Torsional_Energy-OPLS-2005>
367.283355712891

> <r_mmod_Improper_Torsional_Energy-OPLS-2005>
24.6233081817627

> <r_mmod_Van_der_Waal_Energy-OPLS-2005>
129.495208740234

> <r_mmod_Electrostatic_Energy-OPLS-2005>
-151.055435180664

> <r_mmod_Solvation_Energy-OPLS-2005>
-438.066192626953

> <b_mmod_Minimization_Converged-OPLS-2005>
0

> <r_mmod_RMS_Derivative-OPLS-2005>
1.67790067195892

$$$$
73
                    3D
 Structure written by MMmdl.
167176  0  0  1  0            999 V2000
  -30.8281  -14.5184   20.4112 C   0  0  0  0  0  0
  -30.3881  -12.3039   19.4538 C   0  0  0  0  0  0
  -29.4773  -12.4135   18.2189 C   0  0  0  0  0  0
  -28.0075  -12.2552   18.6489 C   0  0  0  0  0  0
  -27.6221  -13.1769   19.8351 C   0  0  2  0  0  0
  -28.7004  -13.2011   20.9563 C   0  0  0  0  0  0
  -25.2522  -13.8048   20.5778 C   0  0  0  0  0  0
  -24.1785  -13.0345   20.9281 C   0  0  0  0  0  0
  -24.6331  -11.6804   20.8871 C   0  0  0  0  0  0
  -23.9004  -10.4210   21.0499 C   0  0  0  0  0  0
  -24.3563   -9.4126   21.9251 C   0  0  0  0  0  0
  -23.6238   -8.2170   22.0766 C   0  0  0  0  0  0
  -22.4231   -8.0236   21.3530 C   0  0  0  0  0  0
  -21.9877   -9.0221   20.4631 C   0  0  0  0  0  0
  -22.7206  -10.2106   20.3094 C   0  0  0  0  0  0
  -21.6800   -6.0722   22.5271 C   0  0  0  0  0  0
  -21.3976   -6.5628   23.8207 C   0  0  0  0  0  0
  -21.3616   -5.6778   24.9161 C   0  0  0  0  0  0
  -21.6046   -4.3050   24.7239 C   0  0  0  0  0  0
  -21.8832   -3.8152   23.4362 C   0  0  0  0  0  0
  -21.9201   -4.6961   22.3413 C   0  0  0  0  0  0
  -22.7811  -13.5166   21.1874 C   0  0  0  0  0  0
  -22.1663   -4.2161   21.0982 F   0  0  0  0  0  0
  -21.5636   -3.4531   25.7750 F   0  0  0  0  0  0
  -30.0188  -13.4194   20.3400 N   0  0  0  0  0  0
  -26.2876  -12.9100   20.3409 N   0  0  0  0  0  0
  -25.9241  -11.6321   20.5957 N   0  0  0  0  0  0
  -22.0436  -12.8177   22.0439 N   0  0  0  0  0  0
  -25.4233  -15.1770   20.4144 N   0  0  0  0  0  0
  -32.0438  -14.4087   20.2668 O   0  0  0  0  0  0
  -21.6576   -6.8858   21.4216 O   0  0  0  0  0  0
  -22.3508  -14.5469   20.6690 O   0  0  0  0  0  0
  -24.6101  -31.8675   23.2128 C   0  0  0  0  0  0
  -25.9010  -32.4826   23.8420 C   0  0  1  0  0  0
  -27.2393  -27.4772   20.0896 C   0  0  0  0  0  0
  -25.5894  -33.8621   24.2331 N   0  0  0  0  0  0
  -23.3980  -30.4905   21.5535 C   0  0  2  0  0  0
  -24.8464  -28.9644   20.1115 C   0  0  0  0  0  0
  -22.7390  -29.4628   22.4999 C   0  0  0  0  0  0
  -18.0262  -28.1338   22.8468 C   0  0  0  0  0  0
  -24.1485  -36.7348   23.2638 C   0  0  0  0  0  0
  -25.9214  -30.8506   21.3556 C   0  0  0  0  0  0
  -26.0027  -29.4877   20.7024 C   0  0  0  0  0  0
  -27.2060  -28.7531   20.6856 C   0  0  0  0  0  0
  -26.0742  -26.9566   19.4897 C   0  0  0  0  0  0
  -24.8747  -27.6961   19.5013 C   0  0  0  0  0  0
  -23.6038  -29.8267   20.1644 C   0  0  0  0  0  0
  -25.4105  -36.3112   24.0330 C   0  0  1  0  0  0
  -20.5849  -28.3635   23.1327 C   0  0  2  0  0  0
  -20.6760  -26.9379   22.5411 C   0  0  0  0  0  0
  -19.5741  -26.6356   21.5197 C   0  0  0  0  0  0
  -18.1907  -26.7887   22.1598 C   0  0  0  0  0  0
  -19.1510  -28.8799   23.2896 C   0  0  0  0  0  0
  -18.9441  -30.1405   23.8910 C   0  0  0  0  0  0
  -17.6446  -30.6564   24.0538 C   0  0  0  0  0  0
  -25.9027  -34.9472   23.5121 C   0  0  0  0  0  0
  -16.5341  -29.9081   23.6294 C   0  0  0  0  0  0
  -16.7258  -28.6490   23.0319 C   0  0  0  0  0  0
  -26.4472  -31.6618   25.0738 C   0  0  0  0  0  0
  -25.3744  -31.3697   26.1485 C   0  0  0  0  0  0
  -27.0335  -30.3084   24.6062 C   0  0  0  0  0  0
  -27.5989  -32.4377   25.7535 C   0  0  0  0  0  0
  -27.5577  -37.1814   24.8446 C   0  0  0  0  0  0
  -21.4113  -29.3027   22.3759 N   0  0  0  0  0  0
  -26.4283  -37.3803   23.9403 N   0  0  0  0  0  0
  -24.6623  -31.0817   22.1007 N   0  0  0  0  0  0
  -23.4169  -28.8133   23.3003 O   0  0  0  0  0  0
  -28.3836  -26.7261   20.1164 O   0  0  0  0  0  0
  -26.5569  -34.8916   22.4668 O   0  0  0  0  0  0
  -23.5308  -32.1404   23.7554 O   0  0  0  0  0  0
  -31.4662  -19.3217   17.2406 C   0  0  0  0  0  0
  -32.0684  -20.7117   17.2454 C   0  0  0  0  0  0
  -29.1309  -17.5586   19.1580 C   0  0  0  0  0  0
  -29.0115  -16.1544   19.7583 C   0  0  0  0  0  0
  -31.4571  -19.9443   19.4800 C   0  0  0  0  0  0
  -31.1984  -16.9476   20.0914 C   0  0  0  0  0  0
  -31.8426  -21.2130   18.6858 C   0  0  2  0  0  0
  -30.6135  -17.6069   18.8388 C   0  0  2  0  0  0
  -30.7678  -22.3206   18.7423 C   0  0  0  0  0  0
  -30.7079  -23.0628   20.0908 C   0  0  0  0  0  0
  -29.6864  -25.0200   21.2474 C   0  0  0  0  0  0
  -28.4231  -25.8849   21.2696 C   0  0  0  0  0  0
  -31.1343  -18.9336   18.4815 N   0  0  0  0  0  0
  -30.3086  -15.7841   20.3373 N   0  0  0  0  0  0
  -29.6843  -24.1269   20.0696 N   0  3  0  0  0  0
  -31.3358  -18.6618   16.2070 O   0  0  0  0  0  0
  -31.4369  -12.3116   19.1570 H   0  0  0  0  0  0
  -30.2313  -11.3491   19.9608 H   0  0  0  0  0  0
  -29.7327  -11.6387   17.4939 H   0  0  0  0  0  0
  -29.6309  -13.3697   17.7182 H   0  0  0  0  0  0
  -27.8649  -11.2116   18.9334 H   0  0  0  0  0  0
  -27.3453  -12.4214   17.7998 H   0  0  0  0  0  0
  -27.5170  -14.1435   19.3767 H   0  0  0  0  0  0
  -28.7069  -12.2629   21.5102 H   0  0  0  0  0  0
  -28.4894  -13.9895   21.6826 H   0  0  0  0  0  0
  -25.2719   -9.5592   22.4830 H   0  0  0  0  0  0
  -23.9947   -7.4538   22.7449 H   0  0  0  0  0  0
  -21.0849   -8.8755   19.8893 H   0  0  0  0  0  0
  -22.3714  -10.9662   19.6212 H   0  0  0  0  0  0
  -21.1920   -7.6128   23.9730 H   0  0  0  0  0  0
  -21.1404   -6.0492   25.9065 H   0  0  0  0  0  0
  -22.0662   -2.7622   23.2867 H   0  0  0  0  0  0
  -22.4051  -11.9856   22.4853 H   0  0  0  0  0  0
  -21.1062  -13.1193   22.2656 H   0  0  0  0  0  0
  -24.6552  -15.8290   20.5376 H   0  0  0  0  0  0
  -26.2785  -15.6213   20.1073 H   0  0  0  0  0  0
  -26.7083  -32.5555   23.1192 H   0  0  0  0  0  0
  -25.0054  -33.9816   25.0482 H   0  0  0  0  0  0
  -22.6836  -31.3044   21.4173 H   0  0  0  0  0  0
  -23.3725  -35.9693   23.3272 H   0  0  0  0  0  0
  -24.3592  -36.9016   22.2057 H   0  0  0  0  0  0
  -23.7256  -37.6551   23.6694 H   0  0  0  0  0  0
  -26.0155  -31.6178   20.5863 H   0  0  0  0  0  0
  -26.8134  -30.9117   21.9661 H   0  0  0  0  0  0
  -28.1046  -29.1526   21.1362 H   0  0  0  0  0  0
  -26.0893  -25.9808   19.0272 H   0  0  0  0  0  0
  -23.9854  -27.2872   19.0417 H   0  0  0  0  0  0
  -23.7083  -30.6059   19.4092 H   0  0  0  0  0  0
  -22.7292  -29.2473   19.8670 H   0  0  0  0  0  0
  -25.1271  -36.1982   25.0824 H   0  0  0  0  0  0
  -20.9917  -28.3173   24.1457 H   0  0  0  0  0  0
  -20.5673  -26.2212   23.3575 H   0  0  0  0  0  0
  -21.6631  -26.7431   22.1198 H   0  0  0  0  0  0
  -19.6923  -25.6268   21.1232 H   0  0  0  0  0  0
  -19.6708  -27.3141   20.6701 H   0  0  0  0  0  0
  -17.4183  -26.6607   21.3995 H   0  0  0  0  0  0
  -18.0334  -26.0019   22.8985 H   0  0  0  0  0  0
  -19.7922  -30.7191   24.2304 H   0  0  0  0  0  0
  -17.5026  -31.6256   24.5116 H   0  0  0  0  0  0
  -15.5356  -30.2995   23.7632 H   0  0  0  0  0  0
  -15.8638  -28.0857   22.7004 H   0  0  0  0  0  0
  -24.5875  -30.7101   25.7830 H   0  0  0  0  0  0
  -24.8989  -32.2856   26.4997 H   0  0  0  0  0  0
  -25.8098  -30.8814   27.0209 H   0  0  0  0  0  0
  -26.2884  -29.6825   24.1127 H   0  0  0  0  0  0
  -27.4188  -29.7326   25.4497 H   0  0  0  0  0  0
  -27.8676  -30.4473   23.9159 H   0  0  0  0  0  0
  -27.2536  -33.3658   26.2105 H   0  0  0  0  0  0
  -28.3823  -32.6982   25.0405 H   0  0  0  0  0  0
  -28.0627  -31.8515   26.5490 H   0  0  0  0  0  0
  -28.2522  -38.0168   24.7554 H   0  0  0  0  0  0
  -28.1144  -36.2699   24.6208 H   0  0  0  0  0  0
  -27.2296  -37.1391   25.8842 H   0  0  0  0  0  0
  -20.9224  -29.8851   21.7091 H   0  0  0  0  0  0
  -26.0165  -38.2875   24.1409 H   0  0  0  0  0  0
  -31.5968  -21.3393   16.4893 H   0  0  0  0  0  0
  -33.1305  -20.6460   17.0089 H   0  0  0  0  0  0
  -28.8654  -18.3153   19.8985 H   0  0  0  0  0  0
  -28.4882  -17.6971   18.2863 H   0  0  0  0  0  0
  -28.8531  -15.5125   18.8964 H   0  0  0  0  0  0
  -28.1922  -16.0714   20.4738 H   0  0  0  0  0  0
  -30.6151  -20.0996   20.1540 H   0  0  0  0  0  0
  -32.3062  -19.6049   20.0760 H   0  0  0  0  0  0
  -31.1421  -17.6091   20.9570 H   0  0  0  0  0  0
  -32.2545  -16.7310   19.9296 H   0  0  0  0  0  0
  -32.7821  -21.6156   19.0714 H   0  0  0  0  0  0
  -30.8051  -16.9315   17.9987 H   0  0  0  0  0  0
  -29.7924  -21.9014   18.4885 H   0  0  0  0  0  0
  -30.9857  -23.0602   17.9700 H   0  0  0  0  0  0
  -31.6808  -23.4987   20.3154 H   0  0  0  0  0  0
  -30.4814  -22.3692   20.9007 H   0  0  0  0  0  0
  -29.7142  -24.4241   22.1619 H   0  0  0  0  0  0
  -30.5826  -25.6443   21.2444 H   0  0  0  0  0  0
  -28.4074  -26.4897   22.1795 H   0  0  0  0  0  0
  -27.5412  -25.2404   21.3040 H   0  0  0  0  0  0
  -28.7764  -23.6958   19.9892 H   0  0  0  0  0  0
  -29.8143  -24.7017   19.2507 H   0  0  0  0  0  0
  1 25  1  0  0  0
  1 30  2  0  0  0
  1 84  1  0  0  0
  2  3  1  0  0  0
  2 25  1  0  0  0
  2 87  1  0  0  0
  2 88  1  0  0  0
  3  4  1  0  0  0
  3 89  1  0  0  0
  3 90  1  0  0  0
  4  5  1  0  0  0
  4 91  1  0  0  0
  4 92  1  0  0  0
  5  6  1  0  0  0
  5 26  1  0  0  0
  5 93  1  0  0  0
  6 25  1  0  0  0
  6 94  1  0  0  0
  6 95  1  0  0  0
  7  8  2  0  0  0
  7 26  1  0  0  0
  7 29  1  0  0  0
  8  9  1  0  0  0
  8 22  1  0  0  0
  9 10  1  0  0  0
  9 27  2  0  0  0
 10 11  2  0  0  0
 10 15  1  0  0  0
 11 12  1  0  0  0
 11 96  1  0  0  0
 12 13  2  0  0  0
 12 97  1  0  0  0
 13 14  1  0  0  0
 13 31  1  0  0  0
 14 15  2  0  0  0
 14 98  1  0  0  0
 15 99  1  0  0  0
 16 17  2  0  0  0
 16 21  1  0  0  0
 16 31  1  0  0  0
 17 18  1  0  0  0
 17100  1  0  0  0
 18 19  2  0  0  0
 18101  1  0  0  0
 19 20  1  0  0  0
 19 24  1  0  0  0
 20 21  2  0  0  0
 20102  1  0  0  0
 21 23  1  0  0  0
 22 28  1  0  0  0
 22 32  2  0  0  0
 26 27  1  0  0  0
 28103  1  0  0  0
 28104  1  0  0  0
 29105  1  0  0  0
 29106  1  0  0  0
 33 34  1  0  0  0
 33 66  1  0  0  0
 33 70  2  0  0  0
 34 36  1  0  0  0
 34 59  1  0  0  0
 34107  1  0  0  0
 35 44  2  0  0  0
 35 45  1  0  0  0
 35 68  1  0  0  0
 36 56  1  0  0  0
 36108  1  0  0  0
 37 39  1  0  0  0
 37 47  1  0  0  0
 37 66  1  0  0  0
 37109  1  0  0  0
 38 43  2  0  0  0
 38 46  1  0  0  0
 38 47  1  0  0  0
 39 64  1  0  0  0
 39 67  2  0  0  0
 40 52  1  0  0  0
 40 53  2  0  0  0
 40 58  1  0  0  0
 41110  1  0  0  0
 41111  1  0  0  0
 41112  1  0  0  0
 41 48  1  0  0  0
 42 43  1  0  0  0
 42 66  1  0  0  0
 42113  1  0  0  0
 42114  1  0  0  0
 43 44  1  0  0  0
 44115  1  0  0  0
 45 46  2  0  0  0
 45116  1  0  0  0
 46117  1  0  0  0
 47118  1  0  0  0
 47119  1  0  0  0
 48 56  1  0  0  0
 48 65  1  0  0  0
 48120  1  0  0  0
 49 50  1  0  0  0
 49 53  1  0  0  0
 49 64  1  0  0  0
 49121  1  0  0  0
 50 51  1  0  0  0
 50122  1  0  0  0
 50123  1  0  0  0
 51 52  1  0  0  0
 51124  1  0  0  0
 51125  1  0  0  0
 52126  1  0  0  0
 52127  1  0  0  0
 53 54  1  0  0  0
 54 55  2  0  0  0
 54128  1  0  0  0
 55 57  1  0  0  0
 55129  1  0  0  0
 56 69  2  0  0  0
 57 58  2  0  0  0
 57130  1  0  0  0
 58131  1  0  0  0
 59 60  1  0  0  0
 59 61  1  0  0  0
 59 62  1  0  0  0
 60132  1  0  0  0
 60133  1  0  0  0
 60134  1  0  0  0
 61135  1  0  0  0
 61136  1  0  0  0
 61137  1  0  0  0
 62138  1  0  0  0
 62139  1  0  0  0
 62140  1  0  0  0
 63 65  1  0  0  0
 63141  1  0  0  0
 63142  1  0  0  0
 63143  1  0  0  0
 64144  1  0  0  0
 65145  1  0  0  0
 68 82  1  0  0  0
 71 72  1  0  0  0
 71 83  1  0  0  0
 71 86  2  0  0  0
 72 77  1  0  0  0
 72146  1  0  0  0
 72147  1  0  0  0
 73 74  1  0  0  0
 73 78  1  0  0  0
 73148  1  0  0  0
 73149  1  0  0  0
 74 84  1  0  0  0
 74150  1  0  0  0
 74151  1  0  0  0
 75 77  1  0  0  0
 75 83  1  0  0  0
 75152  1  0  0  0
 75153  1  0  0  0
 76 78  1  0  0  0
 76 84  1  0  0  0
 76154  1  0  0  0
 76155  1  0  0  0
 77 79  1  0  0  0
 77156  1  0  0  0
 78 83  1  0  0  0
 78157  1  0  0  0
 79 80  1  0  0  0
 79158  1  0  0  0
 79159  1  0  0  0
 80 85  1  0  0  0
 80160  1  0  0  0
 80161  1  0  0  0
 81 82  1  0  0  0
 81 85  1  0  0  0
 81162  1  0  0  0
 81163  1  0  0  0
 82164  1  0  0  0
 82165  1  0  0  0
 85166  1  0  0  0
 85167  1  0  0  0
M  CHG  1  85   1
M  ISO  4   1 100  68 101  82 101  84 100
M  END
> <chiral flag>
0

> <version>
0

> <s_m_source_file>
/data/baiqing/PycharmProjects/Reinvent-master-3.2/result/LINK_invent/BTK/process_docking_weight1_custom_sum_contain_oxygen_bond_distance_aromatic_linkinvent_7_9_3/rearranged_h_0195.sdf

> <i_m_source_file_index>
73

> <r_mmod_Potential_Energy-OPLS-2005>
173.970962524414

> <r_mmod_Stretch_Energy-OPLS-2005>
36.579517364502

> <r_mmod_Bend_Energy-OPLS-2005>
171.749145507812

> <r_mmod_Torsional_Energy-OPLS-2005>
409.462371826172

> <r_mmod_Improper_Torsional_Energy-OPLS-2005>
9.82748985290527

> <r_mmod_Van_der_Waal_Energy-OPLS-2005>
137.652099609375

> <r_mmod_Electrostatic_Energy-OPLS-2005>
-170.257080078125

> <r_mmod_Solvation_Energy-OPLS-2005>
-473.388702392578

> <b_mmod_Minimization_Converged-OPLS-2005>
0

> <r_mmod_RMS_Derivative-OPLS-2005>
4.13741207122803

$$$$
74
                    3D
 Structure written by MMmdl.
173183  0  0  1  0            999 V2000
  -30.7326  -14.4104   20.5582 C   0  0  0  0  0  0
  -30.4146  -12.2694   19.4087 C   0  0  0  0  0  0
  -29.4864  -12.4939   18.1981 C   0  0  0  0  0  0
  -28.0091  -12.3561   18.6153 C   0  0  0  0  0  0
  -27.6598  -13.1942   19.8741 C   0  0  2  0  0  0
  -28.7059  -12.9825   20.9934 C   0  0  0  0  0  0
  -25.2603  -13.8125   20.5685 C   0  0  0  0  0  0
  -24.1840  -13.0422   20.9173 C   0  0  0  0  0  0
  -24.6379  -11.6884   20.8743 C   0  0  0  0  0  0
  -23.9041  -10.4281   21.0412 C   0  0  0  0  0  0
  -24.3600   -9.4201   21.9190 C   0  0  0  0  0  0
  -23.6285   -8.2230   22.0755 C   0  0  0  0  0  0
  -22.4270   -8.0268   21.3541 C   0  0  0  0  0  0
  -21.9901   -9.0237   20.4641 C   0  0  0  0  0  0
  -22.7222  -10.2123   20.3054 C   0  0  0  0  0  0
  -21.6848   -6.0732   22.5280 C   0  0  0  0  0  0
  -21.4005   -6.5638   23.8210 C   0  0  0  0  0  0
  -21.3658   -5.6792   24.9175 C   0  0  0  0  0  0
  -21.6044   -4.3056   24.7226 C   0  0  0  0  0  0
  -21.8823   -3.8145   23.4349 C   0  0  0  0  0  0
  -21.9193   -4.6959   22.3403 C   0  0  0  0  0  0
  -22.7871  -13.5234   21.1843 C   0  0  0  0  0  0
  -22.1666   -4.2147   21.0978 F   0  0  0  0  0  0
  -21.5633   -3.4543   25.7739 F   0  0  0  0  0  0
  -30.0394  -13.2523   20.4316 N   0  0  0  0  0  0
  -26.3021  -12.9264   20.3388 N   0  0  0  0  0  0
  -25.9301  -11.6439   20.5790 N   0  0  0  0  0  0
  -22.0506  -12.8220   22.0388 N   0  0  0  0  0  0
  -25.4360  -15.1839   20.4094 N   0  0  0  0  0  0
  -31.8933  -14.5559   20.1678 O   0  0  0  0  0  0
  -21.6631   -6.8871   21.4238 O   0  0  0  0  0  0
  -22.3570  -14.5559   20.6718 O   0  0  0  0  0  0
  -24.6088  -31.8716   23.2133 C   0  0  0  0  0  0
  -25.9000  -32.4844   23.8415 C   0  0  1  0  0  0
  -27.2431  -27.4903   20.0856 C   0  0  0  0  0  0
  -25.5877  -33.8642   24.2351 N   0  0  0  0  0  0
  -23.3949  -30.4929   21.5522 C   0  0  2  0  0  0
  -24.8442  -28.9594   20.1204 C   0  0  0  0  0  0
  -22.7373  -29.4674   22.5018 C   0  0  0  0  0  0
  -18.0264  -28.1376   22.8499 C   0  0  0  0  0  0
  -24.1479  -36.7323   23.2639 C   0  0  0  0  0  0
  -25.9163  -30.8512   21.3591 C   0  0  0  0  0  0
  -25.9976  -29.4848   20.7176 C   0  0  0  0  0  0
  -27.1995  -28.7508   20.7109 C   0  0  0  0  0  0
  -26.0765  -26.9556   19.5012 C   0  0  0  0  0  0
  -24.8741  -27.6888   19.5159 C   0  0  0  0  0  0
  -23.6022  -29.8197   20.1679 C   0  0  0  0  0  0
  -25.4102  -36.3129   24.0342 C   0  0  1  0  0  0
  -20.5846  -28.3655   23.1338 C   0  0  2  0  0  0
  -20.6753  -26.9398   22.5424 C   0  0  0  0  0  0
  -19.5734  -26.6389   21.5216 C   0  0  0  0  0  0
  -18.1910  -26.7927   22.1624 C   0  0  0  0  0  0
  -19.1510  -28.8833   23.2916 C   0  0  0  0  0  0
  -18.9442  -30.1442   23.8924 C   0  0  0  0  0  0
  -17.6445  -30.6587   24.0572 C   0  0  0  0  0  0
  -25.9024  -34.9489   23.5145 C   0  0  0  0  0  0
  -16.5338  -29.9090   23.6328 C   0  0  0  0  0  0
  -16.7255  -28.6506   23.0352 C   0  0  0  0  0  0
  -26.4451  -31.6602   25.0718 C   0  0  0  0  0  0
  -25.3734  -31.3664   26.1468 C   0  0  0  0  0  0
  -27.0291  -30.3067   24.6044 C   0  0  0  0  0  0
  -27.6028  -32.4315   25.7491 C   0  0  0  0  0  0
  -27.5577  -37.1820   24.8468 C   0  0  0  0  0  0
  -21.4108  -29.3030   22.3751 N   0  0  0  0  0  0
  -26.4294  -37.3804   23.9406 N   0  0  0  0  0  0
  -24.6580  -31.0851   22.1014 N   0  0  0  0  0  0
  -23.4163  -28.8223   23.3051 O   0  0  0  0  0  0
  -28.4185  -26.7944   20.0342 O   0  0  0  0  0  0
  -26.5585  -34.8930   22.4705 O   0  0  0  0  0  0
  -23.5293  -32.1445   23.7557 O   0  0  0  0  0  0
  -30.3046  -21.6473   18.2440 C   0  0  0  0  0  0
  -29.3058  -22.5538   17.7824 C   0  0  0  0  0  0
  -28.2329  -21.8333   17.3605 C   0  0  0  0  0  0
  -29.7971  -20.3801   18.1015 C   0  0  0  0  0  0
  -26.8809  -21.9864   16.7751 C   0  0  0  0  0  0
  -26.3504  -20.5333   16.6803 C   0  0  0  0  0  0
  -27.4933  -19.5995   17.1550 C   0  0  0  0  0  0
  -30.5369  -16.7329   21.5058 C   0  0  0  0  0  0
  -29.3786  -16.3242   19.8691 C   0  0  0  0  0  0
  -30.5505  -17.2730   20.0794 C   0  0  0  0  0  0
  -30.3986  -19.0489   18.4075 C   0  0  0  0  0  0
  -29.9436  -24.5313   18.9644 C   0  0  0  0  0  0
  -29.0806  -26.9249   18.7808 C   0  0  0  0  0  0
  -30.3162  -26.0068   18.7587 C   0  0  2  0  0  0
  -28.5269  -20.5221   17.5568 N   0  0  0  0  0  0
  -29.9930  -15.4825   20.9184 N   0  0  0  0  0  0
  -29.3876  -23.9434   17.7455 N   0  0  0  0  0  0
  -31.0536  -26.1253   17.4863 N   0  3  0  0  0  0
  -30.2878  -18.7056   19.8374 N   0  3  0  0  0  0
  -31.4598  -12.3547   19.1045 H   0  0  0  0  0  0
  -30.2989  -11.2586   19.8022 H   0  0  0  0  0  0
  -29.7193  -11.7800   17.4070 H   0  0  0  0  0  0
  -29.6601  -13.4846   17.7752 H   0  0  0  0  0  0
  -27.8183  -11.3000   18.8098 H   0  0  0  0  0  0
  -27.3566  -12.6336   17.7866 H   0  0  0  0  0  0
  -27.6953  -14.2377   19.5700 H   0  0  0  0  0  0
  -28.6690  -11.9577   21.3654 H   0  0  0  0  0  0
  -28.4873  -13.6192   21.8525 H   0  0  0  0  0  0
  -25.2744   -9.5683   22.4762 H   0  0  0  0  0  0
  -24.0000   -7.4622   22.7471 H   0  0  0  0  0  0
  -21.0837   -8.8745   19.8941 H   0  0  0  0  0  0
  -22.3681  -10.9657   19.6158 H   0  0  0  0  0  0
  -21.1988   -7.6145   23.9714 H   0  0  0  0  0  0
  -21.1481   -6.0522   25.9078 H   0  0  0  0  0  0
  -22.0605   -2.7607   23.2848 H   0  0  0  0  0  0
  -22.4115  -11.9857   22.4737 H   0  0  0  0  0  0
  -21.1123  -13.1239   22.2600 H   0  0  0  0  0  0
  -24.6767  -15.8468   20.5205 H   0  0  0  0  0  0
  -26.3024  -15.6173   20.1195 H   0  0  0  0  0  0
  -26.7079  -32.5587   23.1199 H   0  0  0  0  0  0
  -25.0034  -33.9812   25.0501 H   0  0  0  0  0  0
  -22.6817  -31.3077   21.4119 H   0  0  0  0  0  0
  -23.3741  -35.9656   23.3316 H   0  0  0  0  0  0
  -24.3569  -36.8923   22.2051 H   0  0  0  0  0  0
  -23.7226  -37.6531   23.6639 H   0  0  0  0  0  0
  -26.0135  -31.6134   20.5845 H   0  0  0  0  0  0
  -26.8099  -30.9157   21.9679 H   0  0  0  0  0  0
  -28.0937  -29.1556   21.1644 H   0  0  0  0  0  0
  -26.1017  -25.9828   19.0300 H   0  0  0  0  0  0
  -23.9856  -27.2753   19.0588 H   0  0  0  0  0  0
  -23.7036  -30.5912   19.4036 H   0  0  0  0  0  0
  -22.7293  -29.2319   19.8775 H   0  0  0  0  0  0
  -25.1278  -36.2011   25.0835 H   0  0  0  0  0  0
  -20.9936  -28.3220   24.1458 H   0  0  0  0  0  0
  -20.5667  -26.2261   23.3603 H   0  0  0  0  0  0
  -21.6626  -26.7454   22.1212 H   0  0  0  0  0  0
  -19.6895  -25.6307   21.1229 H   0  0  0  0  0  0
  -19.6677  -27.3215   20.6759 H   0  0  0  0  0  0
  -17.4185  -26.6696   21.4016 H   0  0  0  0  0  0
  -18.0298  -26.0057   22.9006 H   0  0  0  0  0  0
  -19.7917  -30.7253   24.2300 H   0  0  0  0  0  0
  -17.5001  -31.6266   24.5176 H   0  0  0  0  0  0
  -15.5338  -30.3005   23.7633 H   0  0  0  0  0  0
  -15.8655  -28.0835   22.7052 H   0  0  0  0  0  0
  -24.5927  -30.6992   25.7794 H   0  0  0  0  0  0
  -24.8897  -32.2797   26.4943 H   0  0  0  0  0  0
  -25.8107  -30.8819   27.0208 H   0  0  0  0  0  0
  -26.2822  -29.6829   24.1117 H   0  0  0  0  0  0
  -27.4116  -29.7293   25.4471 H   0  0  0  0  0  0
  -27.8623  -30.4421   23.9144 H   0  0  0  0  0  0
  -27.2643  -33.3600   26.2105 H   0  0  0  0  0  0
  -28.3827  -32.6900   25.0316 H   0  0  0  0  0  0
  -28.0704  -31.8413   26.5384 H   0  0  0  0  0  0
  -28.2608  -38.0106   24.7512 H   0  0  0  0  0  0
  -28.1060  -36.2638   24.6308 H   0  0  0  0  0  0
  -27.2286  -37.1492   25.8869 H   0  0  0  0  0  0
  -20.9259  -29.8757   21.6984 H   0  0  0  0  0  0
  -26.0193  -38.2888   24.1400 H   0  0  0  0  0  0
  -31.2864  -21.8834   18.6310 H   0  0  0  0  0  0
  -26.9390  -22.4546   15.7920 H   0  0  0  0  0  0
  -26.2468  -22.6055   17.4106 H   0  0  0  0  0  0
  -26.0406  -20.2922   15.6631 H   0  0  0  0  0  0
  -25.4768  -20.4092   17.3206 H   0  0  0  0  0  0
  -27.8625  -18.9642   16.3491 H   0  0  0  0  0  0
  -27.1951  -18.9763   17.9988 H   0  0  0  0  0  0
  -29.8443  -17.2371   22.1838 H   0  0  0  0  0  0
  -31.5299  -16.6487   21.9522 H   0  0  0  0  0  0
  -29.3522  -15.8910   18.8667 H   0  0  0  0  0  0
  -28.4017  -16.7263   20.1463 H   0  0  0  0  0  0
  -31.4547  -16.9701   19.5444 H   0  0  0  0  0  0
  -31.4499  -19.0413   18.1173 H   0  0  0  0  0  0
  -29.9143  -18.2811   17.8032 H   0  0  0  0  0  0
  -29.2371  -24.4183   19.7895 H   0  0  0  0  0  0
  -30.8443  -23.9946   19.2654 H   0  0  0  0  0  0
  -28.4051  -26.6683   17.9625 H   0  0  0  0  0  0
  -29.3803  -27.9645   18.6387 H   0  0  0  0  0  0
  -30.9758  -26.3241   19.5679 H   0  0  0  0  0  0
  -28.5018  -24.3480   17.4525 H   0  0  0  0  0  0
  -30.5490  -25.5804   16.8042 H   0  0  0  0  0  0
  -31.9685  -25.7202   17.5723 H   0  0  0  0  0  0
  -31.1437  -27.0768   17.1768 H   0  0  0  0  0  0
  -30.9540  -19.2676   20.3420 H   0  0  0  0  0  0
  -29.3698  -18.9573   20.1624 H   0  0  0  0  0  0
  1 25  1  0  0  0
  1 30  2  0  0  0
  1 86  1  0  0  0
  2  3  1  0  0  0
  2 25  1  0  0  0
  2 90  1  0  0  0
  2 91  1  0  0  0
  3  4  1  0  0  0
  3 92  1  0  0  0
  3 93  1  0  0  0
  4  5  1  0  0  0
  4 94  1  0  0  0
  4 95  1  0  0  0
  5  6  1  0  0  0
  5 26  1  0  0  0
  5 96  1  0  0  0
  6 25  1  0  0  0
  6 97  1  0  0  0
  6 98  1  0  0  0
  7  8  2  0  0  0
  7 26  1  0  0  0
  7 29  1  0  0  0
  8  9  1  0  0  0
  8 22  1  0  0  0
  9 10  1  0  0  0
  9 27  2  0  0  0
 10 11  2  0  0  0
 10 15  1  0  0  0
 11 12  1  0  0  0
 11 99  1  0  0  0
 12 13  2  0  0  0
 12100  1  0  0  0
 13 14  1  0  0  0
 13 31  1  0  0  0
 14 15  2  0  0  0
 14101  1  0  0  0
 15102  1  0  0  0
 16 17  2  0  0  0
 16 21  1  0  0  0
 16 31  1  0  0  0
 17 18  1  0  0  0
 17103  1  0  0  0
 18 19  2  0  0  0
 18104  1  0  0  0
 19 20  1  0  0  0
 19 24  1  0  0  0
 20 21  2  0  0  0
 20105  1  0  0  0
 21 23  1  0  0  0
 22 28  1  0  0  0
 22 32  2  0  0  0
 26 27  1  0  0  0
 28106  1  0  0  0
 28107  1  0  0  0
 29108  1  0  0  0
 29109  1  0  0  0
 33 34  1  0  0  0
 33 66  1  0  0  0
 33 70  2  0  0  0
 34 36  1  0  0  0
 34 59  1  0  0  0
 34110  1  0  0  0
 35 44  2  0  0  0
 35 45  1  0  0  0
 35 68  1  0  0  0
 36 56  1  0  0  0
 36111  1  0  0  0
 37 39  1  0  0  0
 37 47  1  0  0  0
 37 66  1  0  0  0
 37112  1  0  0  0
 38 43  2  0  0  0
 38 46  1  0  0  0
 38 47  1  0  0  0
 39 64  1  0  0  0
 39 67  2  0  0  0
 40 52  1  0  0  0
 40 53  2  0  0  0
 40 58  1  0  0  0
 41113  1  0  0  0
 41114  1  0  0  0
 41115  1  0  0  0
 41 48  1  0  0  0
 42 43  1  0  0  0
 42 66  1  0  0  0
 42116  1  0  0  0
 42117  1  0  0  0
 43 44  1  0  0  0
 44118  1  0  0  0
 45 46  2  0  0  0
 45119  1  0  0  0
 46120  1  0  0  0
 47121  1  0  0  0
 47122  1  0  0  0
 48 56  1  0  0  0
 48 65  1  0  0  0
 48123  1  0  0  0
 49 50  1  0  0  0
 49 53  1  0  0  0
 49 64  1  0  0  0
 49124  1  0  0  0
 50 51  1  0  0  0
 50125  1  0  0  0
 50126  1  0  0  0
 51 52  1  0  0  0
 51127  1  0  0  0
 51128  1  0  0  0
 52129  1  0  0  0
 52130  1  0  0  0
 53 54  1  0  0  0
 54 55  2  0  0  0
 54131  1  0  0  0
 55 57  1  0  0  0
 55132  1  0  0  0
 56 69  2  0  0  0
 57 58  2  0  0  0
 57133  1  0  0  0
 58134  1  0  0  0
 59 60  1  0  0  0
 59 61  1  0  0  0
 59 62  1  0  0  0
 60135  1  0  0  0
 60136  1  0  0  0
 60137  1  0  0  0
 61138  1  0  0  0
 61139  1  0  0  0
 61140  1  0  0  0
 62141  1  0  0  0
 62142  1  0  0  0
 62143  1  0  0  0
 63 65  1  0  0  0
 63144  1  0  0  0
 63145  1  0  0  0
 63146  1  0  0  0
 64147  1  0  0  0
 65148  1  0  0  0
 68 83  1  0  0  0
 71 72  1  0  0  0
 71 74  2  0  0  0
 71149  1  0  0  0
 72 73  2  0  0  0
 72 87  1  0  0  0
 73 75  1  0  0  0
 73 85  1  0  0  0
 74 81  1  0  0  0
 74 85  1  0  0  0
 75 76  1  0  0  0
 75150  1  0  0  0
 75151  1  0  0  0
 76 77  1  0  0  0
 76152  1  0  0  0
 76153  1  0  0  0
 77 85  1  0  0  0
 77154  1  0  0  0
 77155  1  0  0  0
 78 80  1  0  0  0
 78 86  1  0  0  0
 78156  1  0  0  0
 78157  1  0  0  0
 79 80  1  0  0  0
 79 86  1  0  0  0
 79158  1  0  0  0
 79159  1  0  0  0
 80 89  1  0  0  0
 80160  1  0  0  0
 81 89  1  0  0  0
 81161  1  0  0  0
 81162  1  0  0  0
 82 84  1  0  0  0
 82 87  1  0  0  0
 82163  1  0  0  0
 82164  1  0  0  0
 83 84  1  0  0  0
 83165  1  0  0  0
 83166  1  0  0  0
 84 88  1  0  0  0
 84167  1  0  0  0
 87168  1  0  0  0
 88169  1  0  0  0
 88170  1  0  0  0
 88171  1  0  0  0
 89172  1  0  0  0
 89173  1  0  0  0
M  CHG  2  88   1  89   1
M  ISO  4   1 100  68 101  83 101  86 100
M  END
> <chiral flag>
0

> <version>
0

> <s_m_source_file>
/data/baiqing/PycharmProjects/Reinvent-master-3.2/result/LINK_invent/BTK/process_docking_weight1_custom_sum_contain_oxygen_bond_distance_aromatic_linkinvent_7_9_3/rearranged_h_0195.sdf

> <i_m_source_file_index>
74

> <r_mmod_Potential_Energy-OPLS-2005>
-350.855407714844

> <r_mmod_Stretch_Energy-OPLS-2005>
34.3833885192871

> <r_mmod_Bend_Energy-OPLS-2005>
160.920928955078

> <r_mmod_Torsional_Energy-OPLS-2005>
376.200531005859

> <r_mmod_Improper_Torsional_Energy-OPLS-2005>
17.5746746063232

> <r_mmod_Van_der_Waal_Energy-OPLS-2005>
135.212661743164

> <r_mmod_Electrostatic_Energy-OPLS-2005>
-186.66145324707

> <r_mmod_Solvation_Energy-OPLS-2005>
-900.25048828125

> <b_mmod_Minimization_Converged-OPLS-2005>
0

> <r_mmod_RMS_Derivative-OPLS-2005>
0.750560462474823

$$$$
75
                    3D
 Structure written by MMmdl.
172182  0  0  1  0            999 V2000
  -30.6832  -14.3966   20.5549 C   0  0  0  0  0  0
  -30.4308  -12.2571   19.3795 C   0  0  0  0  0  0
  -29.4935  -12.5023   18.1792 C   0  0  0  0  0  0
  -28.0150  -12.3509   18.6014 C   0  0  0  0  0  0
  -27.6624  -13.1541   19.8816 C   0  0  2  0  0  0
  -28.7172  -12.8952   20.9879 C   0  0  0  0  0  0
  -25.2593  -13.8043   20.5656 C   0  0  0  0  0  0
  -24.1819  -13.0391   20.9200 C   0  0  0  0  0  0
  -24.6307  -11.6842   20.8857 C   0  0  0  0  0  0
  -23.8984  -10.4242   21.0501 C   0  0  0  0  0  0
  -24.3577   -9.4125   21.9225 C   0  0  0  0  0  0
  -23.6287   -8.2139   22.0751 C   0  0  0  0  0  0
  -22.4284   -8.0182   21.3519 C   0  0  0  0  0  0
  -21.9922   -9.0155   20.4634 C   0  0  0  0  0  0
  -22.7204  -10.2057   20.3085 C   0  0  0  0  0  0
  -21.6772   -6.0711   22.5305 C   0  0  0  0  0  0
  -21.3949   -6.5623   23.8234 C   0  0  0  0  0  0
  -21.3650   -5.6794   24.9200 C   0  0  0  0  0  0
  -21.6053   -4.3061   24.7261 C   0  0  0  0  0  0
  -21.8787   -3.8135   23.4381 C   0  0  0  0  0  0
  -21.9159   -4.6946   22.3430 C   0  0  0  0  0  0
  -22.7878  -13.5273   21.1798 C   0  0  0  0  0  0
  -22.1598   -4.2136   21.0998 F   0  0  0  0  0  0
  -21.5666   -3.4533   25.7772 F   0  0  0  0  0  0
  -30.0512  -13.2022   20.4420 N   0  0  0  0  0  0
  -26.3003  -12.9081   20.3400 N   0  0  0  0  0  0
  -25.9225  -11.6301   20.5874 N   0  0  0  0  0  0
  -22.0502  -12.8329   22.0381 N   0  0  0  0  0  0
  -25.4277  -15.1763   20.4033 N   0  0  0  0  0  0
  -31.7697  -14.6568   20.0242 O   0  0  0  0  0  0
  -21.6536   -6.8860   21.4269 O   0  0  0  0  0  0
  -22.3595  -14.5564   20.6589 O   0  0  0  0  0  0
  -24.6076  -31.8714   23.2104 C   0  0  0  0  0  0
  -25.9064  -32.4818   23.8359 C   0  0  1  0  0  0
  -27.2445  -27.4906   20.0737 C   0  0  0  0  0  0
  -25.5882  -33.8615   24.2289 N   0  0  0  0  0  0
  -23.3969  -30.4889   21.5429 C   0  0  2  0  0  0
  -24.8493  -28.9614   20.0974 C   0  0  0  0  0  0
  -22.7365  -29.4677   22.4950 C   0  0  0  0  0  0
  -18.0164  -28.1291   22.8324 C   0  0  0  0  0  0
  -24.1488  -36.7370   23.2637 C   0  0  0  0  0  0
  -25.9150  -30.8459   21.3517 C   0  0  0  0  0  0
  -25.9967  -29.4776   20.7120 C   0  0  0  0  0  0
  -27.1987  -28.7462   20.7097 C   0  0  0  0  0  0
  -26.0994  -26.9922   19.4202 C   0  0  0  0  0  0
  -24.8947  -27.7177   19.4378 C   0  0  0  0  0  0
  -23.6007  -29.8145   20.1555 C   0  0  0  0  0  0
  -25.4097  -36.3150   24.0343 C   0  0  1  0  0  0
  -20.5761  -28.3664   23.1196 C   0  0  2  0  0  0
  -20.6758  -26.9450   22.5246 C   0  0  0  0  0  0
  -19.5673  -26.5979   21.5255 C   0  0  0  0  0  0
  -18.1730  -26.7918   22.1313 C   0  0  0  0  0  0
  -19.1408  -28.8733   23.2814 C   0  0  0  0  0  0
  -18.9367  -30.1258   23.8984 C   0  0  0  0  0  0
  -17.6392  -30.6393   24.0662 C   0  0  0  0  0  0
  -25.8999  -34.9495   23.5124 C   0  0  0  0  0  0
  -16.5282  -29.9002   23.6241 C   0  0  0  0  0  0
  -16.7155  -28.6456   23.0194 C   0  0  0  0  0  0
  -26.4467  -31.6610   25.0695 C   0  0  0  0  0  0
  -25.3700  -31.3740   26.1428 C   0  0  0  0  0  0
  -27.0279  -30.3071   24.6010 C   0  0  0  0  0  0
  -27.6049  -32.4316   25.7452 C   0  0  0  0  0  0
  -27.5578  -37.1862   24.8461 C   0  0  0  0  0  0
  -21.4043  -29.3158   22.3741 N   0  0  0  0  0  0
  -26.4311  -37.3808   23.9384 N   0  0  0  0  0  0
  -24.6588  -31.0831   22.0964 N   0  0  0  0  0  0
  -23.4215  -28.8070   23.2838 O   0  0  0  0  0  0
  -28.3884  -26.7382   20.0844 O   0  0  0  0  0  0
  -26.5612  -34.9031   22.4698 O   0  0  0  0  0  0
  -23.5334  -32.1398   23.7595 O   0  0  0  0  0  0
  -27.1229  -20.0404   20.9859 C   0  0  0  0  0  0
  -25.3057  -19.6533   19.0892 C   0  0  0  0  0  0
  -27.3664  -19.1854   19.9141 C   0  0  0  0  0  0
  -25.9346  -20.7902   20.9893 C   0  0  0  0  0  0
  -29.1462  -17.7951   20.8770 C   0  0  0  0  0  0
  -26.8239  -22.4452   22.5425 C   0  0  0  0  0  0
  -25.0315  -23.0290   21.5086 C   0  0  0  0  0  0
  -29.0789  -18.0678   18.4846 C   0  0  0  0  0  0
  -29.2737  -16.4203   20.2309 C   0  0  2  0  0  0
  -26.2270  -23.7898   22.1119 C   0  0  0  0  0  0
  -29.7699  -16.7317   18.7974 C   0  0  2  0  0  0
  -28.4425  -24.8100   21.5364 C   0  0  0  0  0  0
  -28.7807  -26.2953   21.3904 C   0  0  0  0  0  0
  -26.4471  -18.9799   18.9683 N   0  0  0  0  0  0
  -25.0270  -20.5584   20.0248 N   0  0  0  0  0  0
  -28.6441  -18.6095   19.7781 N   0  0  0  0  0  0
  -25.6523  -21.7885   21.9695 N   0  0  0  0  0  0
  -29.9209  -15.3780   21.0447 N   0  0  0  0  0  0
  -31.2308  -16.8678   18.6612 N   0  3  0  0  0  0
  -27.0557  -24.5041   21.1100 N   0  3  0  0  0  0
  -31.4754  -12.3692   19.0767 H   0  0  0  0  0  0
  -30.3443  -11.2279   19.7335 H   0  0  0  0  0  0
  -29.7290  -11.8170   17.3640 H   0  0  0  0  0  0
  -29.6612  -13.4994   17.7733 H   0  0  0  0  0  0
  -27.8352  -11.2901   18.7731 H   0  0  0  0  0  0
  -27.3510  -12.6335   17.7812 H   0  0  0  0  0  0
  -27.6951  -14.1924   19.5856 H   0  0  0  0  0  0
  -28.6994  -11.8446   21.2871 H   0  0  0  0  0  0
  -28.4949  -13.4468   21.9027 H   0  0  0  0  0  0
  -25.2725   -9.5515   22.4783 H   0  0  0  0  0  0
  -23.9922   -7.4543   22.7547 H   0  0  0  0  0  0
  -21.0813   -8.8681   19.9049 H   0  0  0  0  0  0
  -22.3672  -10.9563   19.6162 H   0  0  0  0  0  0
  -21.1857   -7.6111   23.9701 H   0  0  0  0  0  0
  -21.1552   -6.0548   25.9110 H   0  0  0  0  0  0
  -22.0603   -2.7603   23.2879 H   0  0  0  0  0  0
  -22.4156  -12.0001   22.4765 H   0  0  0  0  0  0
  -21.1055  -13.1281   22.2466 H   0  0  0  0  0  0
  -24.6565  -15.8228   20.5252 H   0  0  0  0  0  0
  -26.2490  -15.6174   20.0106 H   0  0  0  0  0  0
  -26.7142  -32.5576   23.1151 H   0  0  0  0  0  0
  -25.0081  -33.9672   25.0477 H   0  0  0  0  0  0
  -22.6911  -31.3065   21.3971 H   0  0  0  0  0  0
  -23.3712  -35.9721   23.3295 H   0  0  0  0  0  0
  -24.3599  -36.8987   22.2051 H   0  0  0  0  0  0
  -23.7306  -37.6618   23.6622 H   0  0  0  0  0  0
  -26.0124  -31.5868   20.5577 H   0  0  0  0  0  0
  -26.8161  -30.9190   21.9505 H   0  0  0  0  0  0
  -28.0959  -29.1396   21.1724 H   0  0  0  0  0  0
  -26.1451  -26.0585   18.8782 H   0  0  0  0  0  0
  -24.0329  -27.3295   18.9155 H   0  0  0  0  0  0
  -23.6887  -30.5810   19.3844 H   0  0  0  0  0  0
  -22.7272  -29.2210   19.8804 H   0  0  0  0  0  0
  -25.1260  -36.1995   25.0829 H   0  0  0  0  0  0
  -20.9905  -28.3256   24.1311 H   0  0  0  0  0  0
  -20.6166  -26.2280   23.3449 H   0  0  0  0  0  0
  -21.6519  -26.7795   22.0647 H   0  0  0  0  0  0
  -19.6674  -25.5617   21.2022 H   0  0  0  0  0  0
  -19.6713  -27.2102   20.6313 H   0  0  0  0  0  0
  -17.9468  -25.9978   22.8420 H   0  0  0  0  0  0
  -17.4282  -26.7124   21.3330 H   0  0  0  0  0  0
  -19.7748  -30.7132   24.2430 H   0  0  0  0  0  0
  -17.4861  -31.6043   24.5287 H   0  0  0  0  0  0
  -15.5296  -30.2967   23.7403 H   0  0  0  0  0  0
  -15.8529  -28.0922   22.6815 H   0  0  0  0  0  0
  -24.5801  -30.7173   25.7769 H   0  0  0  0  0  0
  -24.8953  -32.2907   26.4929 H   0  0  0  0  0  0
  -25.8016  -30.8857   27.0160 H   0  0  0  0  0  0
  -26.2793  -29.6850   24.1093 H   0  0  0  0  0  0
  -27.4117  -29.7317   25.4436 H   0  0  0  0  0  0
  -27.8582  -30.4440   23.9080 H   0  0  0  0  0  0
  -27.2649  -33.3549   26.2143 H   0  0  0  0  0  0
  -28.3804  -32.6998   25.0264 H   0  0  0  0  0  0
  -28.0752  -31.8366   26.5285 H   0  0  0  0  0  0
  -28.2626  -38.0144   24.7453 H   0  0  0  0  0  0
  -28.1068  -36.2672   24.6302 H   0  0  0  0  0  0
  -27.2292  -37.1526   25.8882 H   0  0  0  0  0  0
  -20.9218  -29.9093   21.7106 H   0  0  0  0  0  0
  -26.0206  -38.2888   24.1370 H   0  0  0  0  0  0
  -27.8748  -20.1541   21.7527 H   0  0  0  0  0  0
  -24.5663  -19.4962   18.3184 H   0  0  0  0  0  0
  -28.4784  -17.7746   21.7442 H   0  0  0  0  0  0
  -30.1137  -18.1710   21.2071 H   0  0  0  0  0  0
  -26.8999  -22.3147   23.6209 H   0  0  0  0  0  0
  -27.7654  -22.2306   22.0358 H   0  0  0  0  0  0
  -24.9180  -23.1219   20.4245 H   0  0  0  0  0  0
  -24.0945  -23.2380   22.0288 H   0  0  0  0  0  0
  -28.2477  -17.8999   17.7922 H   0  0  0  0  0  0
  -29.7506  -18.7866   18.0099 H   0  0  0  0  0  0
  -28.2377  -16.1042   20.1377 H   0  0  0  0  0  0
  -25.9433  -24.4176   22.9560 H   0  0  0  0  0  0
  -29.4422  -15.9465   18.1128 H   0  0  0  0  0  0
  -28.6072  -24.5041   22.5678 H   0  0  0  0  0  0
  -29.1418  -24.2220   20.9383 H   0  0  0  0  0  0
  -28.2951  -26.8612   22.1894 H   0  0  0  0  0  0
  -29.8553  -26.4363   21.5111 H   0  0  0  0  0  0
  -29.2730  -15.0037   21.7227 H   0  0  0  0  0  0
  -31.5800  -17.6601   19.1713 H   0  0  0  0  0  0
  -31.4839  -16.9745   17.6924 H   0  0  0  0  0  0
  -31.6688  -16.0286   19.0329 H   0  0  0  0  0  0
  -26.6012  -25.3775   20.8696 H   0  0  0  0  0  0
  -27.1076  -23.9669   20.2573 H   0  0  0  0  0  0
  1 25  1  0  0  0
  1 30  2  0  0  0
  1 88  1  0  0  0
  2  3  1  0  0  0
  2 25  1  0  0  0
  2 91  1  0  0  0
  2 92  1  0  0  0
  3  4  1  0  0  0
  3 93  1  0  0  0
  3 94  1  0  0  0
  4  5  1  0  0  0
  4 95  1  0  0  0
  4 96  1  0  0  0
  5  6  1  0  0  0
  5 26  1  0  0  0
  5 97  1  0  0  0
  6 25  1  0  0  0
  6 98  1  0  0  0
  6 99  1  0  0  0
  7  8  2  0  0  0
  7 26  1  0  0  0
  7 29  1  0  0  0
  8  9  1  0  0  0
  8 22  1  0  0  0
  9 10  1  0  0  0
  9 27  2  0  0  0
 10 11  2  0  0  0
 10 15  1  0  0  0
 11 12  1  0  0  0
 11100  1  0  0  0
 12 13  2  0  0  0
 12101  1  0  0  0
 13 14  1  0  0  0
 13 31  1  0  0  0
 14 15  2  0  0  0
 14102  1  0  0  0
 15103  1  0  0  0
 16 17  2  0  0  0
 16 21  1  0  0  0
 16 31  1  0  0  0
 17 18  1  0  0  0
 17104  1  0  0  0
 18 19  2  0  0  0
 18105  1  0  0  0
 19 20  1  0  0  0
 19 24  1  0  0  0
 20 21  2  0  0  0
 20106  1  0  0  0
 21 23  1  0  0  0
 22 28  1  0  0  0
 22 32  2  0  0  0
 26 27  1  0  0  0
 28107  1  0  0  0
 28108  1  0  0  0
 29109  1  0  0  0
 29110  1  0  0  0
 33 34  1  0  0  0
 33 66  1  0  0  0
 33 70  2  0  0  0
 34 36  1  0  0  0
 34 59  1  0  0  0
 34111  1  0  0  0
 35 44  2  0  0  0
 35 45  1  0  0  0
 35 68  1  0  0  0
 36 56  1  0  0  0
 36112  1  0  0  0
 37 39  1  0  0  0
 37 47  1  0  0  0
 37 66  1  0  0  0
 37113  1  0  0  0
 38 43  2  0  0  0
 38 46  1  0  0  0
 38 47  1  0  0  0
 39 64  1  0  0  0
 39 67  2  0  0  0
 40 52  1  0  0  0
 40 53  2  0  0  0
 40 58  1  0  0  0
 41114  1  0  0  0
 41115  1  0  0  0
 41116  1  0  0  0
 41 48  1  0  0  0
 42 43  1  0  0  0
 42 66  1  0  0  0
 42117  1  0  0  0
 42118  1  0  0  0
 43 44  1  0  0  0
 44119  1  0  0  0
 45 46  2  0  0  0
 45120  1  0  0  0
 46121  1  0  0  0
 47122  1  0  0  0
 47123  1  0  0  0
 48 56  1  0  0  0
 48 65  1  0  0  0
 48124  1  0  0  0
 49 50  1  0  0  0
 49 53  1  0  0  0
 49 64  1  0  0  0
 49125  1  0  0  0
 50 51  1  0  0  0
 50126  1  0  0  0
 50127  1  0  0  0
 51 52  1  0  0  0
 51128  1  0  0  0
 51129  1  0  0  0
 52130  1  0  0  0
 52131  1  0  0  0
 53 54  1  0  0  0
 54 55  2  0  0  0
 54132  1  0  0  0
 55 57  1  0  0  0
 55133  1  0  0  0
 56 69  2  0  0  0
 57 58  2  0  0  0
 57134  1  0  0  0
 58135  1  0  0  0
 59 60  1  0  0  0
 59 61  1  0  0  0
 59 62  1  0  0  0
 60136  1  0  0  0
 60137  1  0  0  0
 60138  1  0  0  0
 61139  1  0  0  0
 61140  1  0  0  0
 61141  1  0  0  0
 62142  1  0  0  0
 62143  1  0  0  0
 62144  1  0  0  0
 63 65  1  0  0  0
 63145  1  0  0  0
 63146  1  0  0  0
 63147  1  0  0  0
 64148  1  0  0  0
 65149  1  0  0  0
 68 83  1  0  0  0
 71 73  2  0  0  0
 71 74  1  0  0  0
 71150  1  0  0  0
 72 84  2  0  0  0
 72 85  1  0  0  0
 72151  1  0  0  0
 73 84  1  0  0  0
 73 86  1  0  0  0
 74 85  2  0  0  0
 74 87  1  0  0  0
 75 79  1  0  0  0
 75 86  1  0  0  0
 75152  1  0  0  0
 75153  1  0  0  0
 76 80  1  0  0  0
 76 87  1  0  0  0
 76154  1  0  0  0
 76155  1  0  0  0
 77 80  1  0  0  0
 77 87  1  0  0  0
 77156  1  0  0  0
 77157  1  0  0  0
 78 81  1  0  0  0
 78 86  1  0  0  0
 78158  1  0  0  0
 78159  1  0  0  0
 79 81  1  0  0  0
 79 88  1  0  0  0
 79160  1  0  0  0
 80 90  1  0  0  0
 80161  1  0  0  0
 81 89  1  0  0  0
 81162  1  0  0  0
 82 83  1  0  0  0
 82 90  1  0  0  0
 82163  1  0  0  0
 82164  1  0  0  0
 83165  1  0  0  0
 83166  1  0  0  0
 88167  1  0  0  0
 89168  1  0  0  0
 89169  1  0  0  0
 89170  1  0  0  0
 90171  1  0  0  0
 90172  1  0  0  0
M  CHG  2  89   1  90   1
M  ISO  4   1 100  68 101  83 101  88 100
M  END
> <chiral flag>
0

> <version>
0

> <s_m_source_file>
/data/baiqing/PycharmProjects/Reinvent-master-3.2/result/LINK_invent/BTK/process_docking_weight1_custom_sum_contain_oxygen_bond_distance_aromatic_linkinvent_7_9_3/rearranged_h_0195.sdf

> <i_m_source_file_index>
75

> <r_mmod_Potential_Energy-OPLS-2005>
-1003.23382568359

> <r_mmod_Stretch_Energy-OPLS-2005>
35.1940956115723

> <r_mmod_Bend_Energy-OPLS-2005>
174.49723815918

> <r_mmod_Torsional_Energy-OPLS-2005>
429.393615722656

> <r_mmod_Improper_Torsional_Energy-OPLS-2005>
22.347204208374

> <r_mmod_Van_der_Waal_Energy-OPLS-2005>
188.676818847656

> <r_mmod_Electrostatic_Energy-OPLS-2005>
-984.741394042969

> <r_mmod_Solvation_Energy-OPLS-2005>
-880.185607910156

> <b_mmod_Minimization_Converged-OPLS-2005>
0

> <r_mmod_RMS_Derivative-OPLS-2005>
10.2713994979858

$$$$
76
                    3D
 Structure written by MMmdl.
172181  0  0  1  0            999 V2000
  -30.7552  -14.4851   20.5271 C   0  0  0  0  0  0
  -30.4195  -12.2982   19.4206 C   0  0  0  0  0  0
  -29.4840  -12.4311   18.2022 C   0  0  0  0  0  0
  -28.0112  -12.2556   18.6262 C   0  0  0  0  0  0
  -27.6250  -13.1388   19.8357 C   0  0  2  0  0  0
  -28.6952  -13.0510   20.9622 C   0  0  0  0  0  0
  -25.2549  -13.7936   20.5639 C   0  0  0  0  0  0
  -24.1753  -13.0320   20.9185 C   0  0  0  0  0  0
  -24.6258  -11.6757   20.8756 C   0  0  0  0  0  0
  -23.8940  -10.4205   21.0440 C   0  0  0  0  0  0
  -24.3532   -9.4147   21.9205 C   0  0  0  0  0  0
  -23.6248   -8.2180   22.0783 C   0  0  0  0  0  0
  -22.4227   -8.0222   21.3566 C   0  0  0  0  0  0
  -21.9814   -9.0182   20.4673 C   0  0  0  0  0  0
  -22.7131  -10.2061   20.3073 C   0  0  0  0  0  0
  -21.6818   -6.0685   22.5280 C   0  0  0  0  0  0
  -21.3996   -6.5609   23.8211 C   0  0  0  0  0  0
  -21.3642   -5.6776   24.9176 C   0  0  0  0  0  0
  -21.6014   -4.3032   24.7219 C   0  0  0  0  0  0
  -21.8825   -3.8120   23.4347 C   0  0  0  0  0  0
  -21.9193   -4.6922   22.3403 C   0  0  0  0  0  0
  -22.7797  -13.5212   21.1837 C   0  0  0  0  0  0
  -22.1671   -4.2121   21.0974 F   0  0  0  0  0  0
  -21.5632   -3.4515   25.7740 F   0  0  0  0  0  0
  -30.0302  -13.3299   20.3909 N   0  0  0  0  0  0
  -26.2858  -12.8911   20.3283 N   0  0  0  0  0  0
  -25.9143  -11.6172   20.5790 N   0  0  0  0  0  0
  -22.0391  -12.8277   22.0383 N   0  0  0  0  0  0
  -25.4265  -15.1672   20.4026 N   0  0  0  0  0  0
  -31.9377  -14.5731   20.1875 O   0  0  0  0  0  0
  -21.6619   -6.8810   21.4231 O   0  0  0  0  0  0
  -22.3530  -14.5523   20.6683 O   0  0  0  0  0  0
  -24.6138  -31.8719   23.2109 C   0  0  0  0  0  0
  -25.9063  -32.4835   23.8403 C   0  0  1  0  0  0
  -27.2336  -27.4762   20.0969 C   0  0  0  0  0  0
  -25.5952  -33.8625   24.2428 N   0  0  0  0  0  0
  -23.4002  -30.4933   21.5511 C   0  0  2  0  0  0
  -24.8430  -28.9599   20.1243 C   0  0  0  0  0  0
  -22.7412  -29.4678   22.4989 C   0  0  0  0  0  0
  -18.0276  -28.1382   22.8505 C   0  0  0  0  0  0
  -24.1486  -36.7305   23.2614 C   0  0  0  0  0  0
  -25.9228  -30.8500   21.3599 C   0  0  0  0  0  0
  -25.9966  -29.4816   20.7214 C   0  0  0  0  0  0
  -27.1969  -28.7437   20.7078 C   0  0  0  0  0  0
  -26.0698  -26.9620   19.4896 C   0  0  0  0  0  0
  -24.8690  -27.6971   19.5078 C   0  0  0  0  0  0
  -23.6100  -29.8253   20.1662 C   0  0  0  0  0  0
  -25.4106  -36.3127   24.0369 C   0  0  1  0  0  0
  -20.5878  -28.3672   23.1317 C   0  0  2  0  0  0
  -20.6787  -26.9416   22.5406 C   0  0  0  0  0  0
  -19.5755  -26.6408   21.5217 C   0  0  0  0  0  0
  -18.1919  -26.7940   22.1621 C   0  0  0  0  0  0
  -19.1525  -28.8834   23.2918 C   0  0  0  0  0  0
  -18.9440  -30.1449   23.8924 C   0  0  0  0  0  0
  -17.6441  -30.6568   24.0587 C   0  0  0  0  0  0
  -25.9029  -34.9493   23.5177 C   0  0  0  0  0  0
  -16.5338  -29.9095   23.6310 C   0  0  0  0  0  0
  -16.7273  -28.6521   23.0317 C   0  0  0  0  0  0
  -26.4514  -31.6555   25.0674 C   0  0  0  0  0  0
  -25.3829  -31.3611   26.1456 C   0  0  0  0  0  0
  -27.0302  -30.3004   24.5982 C   0  0  0  0  0  0
  -27.6126  -32.4204   25.7441 C   0  0  0  0  0  0
  -27.5603  -37.1801   24.8474 C   0  0  0  0  0  0
  -21.4134  -29.3045   22.3734 N   0  0  0  0  0  0
  -26.4306  -37.3801   23.9430 N   0  0  0  0  0  0
  -24.6624  -31.0873   22.0992 N   0  0  0  0  0  0
  -23.4199  -28.8223   23.3020 O   0  0  0  0  0  0
  -28.4108  -26.7763   20.0452 O   0  0  0  0  0  0
  -26.5532  -34.8916   22.4716 O   0  0  0  0  0  0
  -23.5333  -32.1418   23.7556 O   0  0  0  0  0  0
  -30.2725  -19.9414   18.6488 C   0  0  0  0  0  0
  -28.7058  -21.4291   17.8227 C   0  0  0  0  0  0
  -27.8788  -21.1738   18.9544 C   0  0  0  0  0  0
  -29.4039  -19.6146   19.7196 C   0  0  0  0  0  0
  -30.7372  -18.0636   21.0921 C   0  0  0  0  0  0
  -29.1459  -17.3901   19.4187 C   0  0  0  0  0  0
  -30.6700  -16.6550   21.7521 C   0  0  0  0  0  0
  -28.9725  -16.0339   20.0470 C   0  0  0  0  0  0
  -29.4117  -23.1121   16.0187 C   0  0  0  0  0  0
  -28.2777  -22.2632   16.6168 C   0  0  0  0  0  0
  -26.5598  -21.8934   19.2295 C   0  0  0  0  0  0
  -26.7569  -23.1226   20.1302 C   0  0  0  0  0  0
  -28.8696  -24.4723   20.3634 C   0  0  0  0  0  0
  -28.5761  -25.7988   21.0705 C   0  0  0  0  0  0
  -29.9112  -20.8229   17.6909 N   0  0  0  0  0  0
  -28.2328  -20.2675   19.8962 N   0  0  0  0  0  0
  -29.4936  -18.3934   20.4048 N   0  0  0  0  0  0
  -30.0738  -15.5930   20.9090 N   0  0  0  0  0  0
  -27.7226  -24.0666   19.5232 N   0  3  0  0  0  0
  -31.4597  -12.3779   19.1059 H   0  0  0  0  0  0
  -30.3229  -11.3081   19.8714 H   0  0  0  0  0  0
  -29.7449  -11.6823   17.4537 H   0  0  0  0  0  0
  -29.6248  -13.3992   17.7210 H   0  0  0  0  0  0
  -27.8548  -11.2050   18.8775 H   0  0  0  0  0  0
  -27.3547  -12.4646   17.7832 H   0  0  0  0  0  0
  -27.5379  -14.1170   19.4098 H   0  0  0  0  0  0
  -28.6917  -12.0518   21.3994 H   0  0  0  0  0  0
  -28.4520  -13.7338   21.7800 H   0  0  0  0  0  0
  -25.2659   -9.5621   22.4788 H   0  0  0  0  0  0
  -23.9944   -7.4554   22.7493 H   0  0  0  0  0  0
  -21.0748   -8.8666   19.9014 H   0  0  0  0  0  0
  -22.3579  -10.9590   19.6179 H   0  0  0  0  0  0
  -21.2002   -7.6115   23.9699 H   0  0  0  0  0  0
  -21.1454   -6.0509   25.9082 H   0  0  0  0  0  0
  -22.0638   -2.7584   23.2855 H   0  0  0  0  0  0
  -22.3978  -11.9963   22.4833 H   0  0  0  0  0  0
  -21.1032  -13.1385   22.2589 H   0  0  0  0  0  0
  -24.6624  -15.8222   20.5296 H   0  0  0  0  0  0
  -26.2775  -15.6077   20.0833 H   0  0  0  0  0  0
  -26.7157  -32.5563   23.1186 H   0  0  0  0  0  0
  -25.0248  -33.9782   25.0673 H   0  0  0  0  0  0
  -22.6827  -31.3016   21.4118 H   0  0  0  0  0  0
  -23.3739  -35.9632   23.3267 H   0  0  0  0  0  0
  -24.3546  -36.8879   22.2012 H   0  0  0  0  0  0
  -23.7255  -37.6535   23.6585 H   0  0  0  0  0  0
  -26.0188  -31.6017   20.5767 H   0  0  0  0  0  0
  -26.8179  -30.9072   21.9658 H   0  0  0  0  0  0
  -28.0941  -29.1498   21.1514 H   0  0  0  0  0  0
  -26.0704  -26.0174   18.9694 H   0  0  0  0  0  0
  -23.9841  -27.2950   19.0375 H   0  0  0  0  0  0
  -23.7301  -30.5955   19.4048 H   0  0  0  0  0  0
  -22.7354  -29.2423   19.8718 H   0  0  0  0  0  0
  -25.1270  -36.1972   25.0863 H   0  0  0  0  0  0
  -20.9972  -28.3239   24.1430 H   0  0  0  0  0  0
  -20.5676  -26.2272   23.3580 H   0  0  0  0  0  0
  -21.6656  -26.7438   22.1202 H   0  0  0  0  0  0
  -19.6896  -25.6321   21.1212 H   0  0  0  0  0  0
  -19.6690  -27.3212   20.6766 H   0  0  0  0  0  0
  -17.4203  -26.6668   21.4016 H   0  0  0  0  0  0
  -18.0325  -26.0069   22.9012 H   0  0  0  0  0  0
  -19.7913  -30.7279   24.2267 H   0  0  0  0  0  0
  -17.4992  -31.6233   24.5198 H   0  0  0  0  0  0
  -15.5332  -30.3004   23.7609 H   0  0  0  0  0  0
  -15.8685  -28.0863   22.6987 H   0  0  0  0  0  0
  -24.6067  -30.6863   25.7826 H   0  0  0  0  0  0
  -24.8931  -32.2719   26.4912 H   0  0  0  0  0  0
  -25.8244  -30.8822   27.0212 H   0  0  0  0  0  0
  -26.2783  -29.6761   24.1138 H   0  0  0  0  0  0
  -27.4196  -29.7224   25.4372 H   0  0  0  0  0  0
  -27.8581  -30.4297   23.9003 H   0  0  0  0  0  0
  -27.2832  -33.3517   26.2077 H   0  0  0  0  0  0
  -28.3958  -32.6733   25.0271 H   0  0  0  0  0  0
  -28.0813  -31.8275   26.5316 H   0  0  0  0  0  0
  -28.2643  -38.0076   24.7527 H   0  0  0  0  0  0
  -28.1075  -36.2610   24.6302 H   0  0  0  0  0  0
  -27.2290  -37.1492   25.8862 H   0  0  0  0  0  0
  -20.9264  -29.8785   21.6966 H   0  0  0  0  0  0
  -26.0188  -38.2875   24.1393 H   0  0  0  0  0  0
  -31.1814  -19.3898   18.4617 H   0  0  0  0  0  0
  -31.5704  -18.0979   20.3895 H   0  0  0  0  0  0
  -30.9332  -18.8198   21.8557 H   0  0  0  0  0  0
  -28.2319  -17.6602   18.8816 H   0  0  0  0  0  0
  -29.9322  -17.3149   18.6665 H   0  0  0  0  0  0
  -30.0611  -16.7174   22.6569 H   0  0  0  0  0  0
  -31.6663  -16.3657   22.0939 H   0  0  0  0  0  0
  -28.9440  -15.4251   19.1455 H   0  0  0  0  0  0
  -28.0324  -15.9744   20.5931 H   0  0  0  0  0  0
  -29.0782  -23.6279   15.1167 H   0  0  0  0  0  0
  -30.2586  -22.4891   15.7262 H   0  0  0  0  0  0
  -29.7773  -23.8598   16.7206 H   0  0  0  0  0  0
  -27.4563  -22.9323   16.8689 H   0  0  0  0  0  0
  -27.8880  -21.5814   15.8583 H   0  0  0  0  0  0
  -25.8793  -21.2025   19.7294 H   0  0  0  0  0  0
  -26.0442  -22.1514   18.3061 H   0  0  0  0  0  0
  -27.0963  -22.7933   21.1148 H   0  0  0  0  0  0
  -25.8056  -23.6328   20.2882 H   0  0  0  0  0  0
  -29.1612  -23.6885   21.0691 H   0  0  0  0  0  0
  -29.7323  -24.6159   19.7101 H   0  0  0  0  0  0
  -29.4200  -26.0844   21.6988 H   0  0  0  0  0  0
  -27.7071  -25.7145   21.7287 H   0  0  0  0  0  0
  -27.2354  -24.8970   19.2201 H   0  0  0  0  0  0
  -28.0925  -23.6271   18.6993 H   0  0  0  0  0  0
  1 25  1  0  0  0
  1 30  2  0  0  0
  1 88  1  0  0  0
  2  3  1  0  0  0
  2 25  1  0  0  0
  2 90  1  0  0  0
  2 91  1  0  0  0
  3  4  1  0  0  0
  3 92  1  0  0  0
  3 93  1  0  0  0
  4  5  1  0  0  0
  4 94  1  0  0  0
  4 95  1  0  0  0
  5  6  1  0  0  0
  5 26  1  0  0  0
  5 96  1  0  0  0
  6 25  1  0  0  0
  6 97  1  0  0  0
  6 98  1  0  0  0
  7  8  2  0  0  0
  7 26  1  0  0  0
  7 29  1  0  0  0
  8  9  1  0  0  0
  8 22  1  0  0  0
  9 10  1  0  0  0
  9 27  2  0  0  0
 10 11  2  0  0  0
 10 15  1  0  0  0
 11 12  1  0  0  0
 11 99  1  0  0  0
 12 13  2  0  0  0
 12100  1  0  0  0
 13 14  1  0  0  0
 13 31  1  0  0  0
 14 15  2  0  0  0
 14101  1  0  0  0
 15102  1  0  0  0
 16 17  2  0  0  0
 16 21  1  0  0  0
 16 31  1  0  0  0
 17 18  1  0  0  0
 17103  1  0  0  0
 18 19  2  0  0  0
 18104  1  0  0  0
 19 20  1  0  0  0
 19 24  1  0  0  0
 20 21  2  0  0  0
 20105  1  0  0  0
 21 23  1  0  0  0
 22 28  1  0  0  0
 22 32  2  0  0  0
 26 27  1  0  0  0
 28106  1  0  0  0
 28107  1  0  0  0
 29108  1  0  0  0
 29109  1  0  0  0
 33 34  1  0  0  0
 33 66  1  0  0  0
 33 70  2  0  0  0
 34 36  1  0  0  0
 34 59  1  0  0  0
 34110  1  0  0  0
 35 44  2  0  0  0
 35 45  1  0  0  0
 35 68  1  0  0  0
 36 56  1  0  0  0
 36111  1  0  0  0
 37 39  1  0  0  0
 37 47  1  0  0  0
 37 66  1  0  0  0
 37112  1  0  0  0
 38 43  2  0  0  0
 38 46  1  0  0  0
 38 47  1  0  0  0
 39 64  1  0  0  0
 39 67  2  0  0  0
 40 52  1  0  0  0
 40 53  2  0  0  0
 40 58  1  0  0  0
 41113  1  0  0  0
 41114  1  0  0  0
 41115  1  0  0  0
 41 48  1  0  0  0
 42 43  1  0  0  0
 42 66  1  0  0  0
 42116  1  0  0  0
 42117  1  0  0  0
 43 44  1  0  0  0
 44118  1  0  0  0
 45 46  2  0  0  0
 45119  1  0  0  0
 46120  1  0  0  0
 47121  1  0  0  0
 47122  1  0  0  0
 48 56  1  0  0  0
 48 65  1  0  0  0
 48123  1  0  0  0
 49 50  1  0  0  0
 49 53  1  0  0  0
 49 64  1  0  0  0
 49124  1  0  0  0
 50 51  1  0  0  0
 50125  1  0  0  0
 50126  1  0  0  0
 51 52  1  0  0  0
 51127  1  0  0  0
 51128  1  0  0  0
 52129  1  0  0  0
 52130  1  0  0  0
 53 54  1  0  0  0
 54 55  2  0  0  0
 54131  1  0  0  0
 55 57  1  0  0  0
 55132  1  0  0  0
 56 69  2  0  0  0
 57 58  2  0  0  0
 57133  1  0  0  0
 58134  1  0  0  0
 59 60  1  0  0  0
 59 61  1  0  0  0
 59 62  1  0  0  0
 60135  1  0  0  0
 60136  1  0  0  0
 60137  1  0  0  0
 61138  1  0  0  0
 61139  1  0  0  0
 61140  1  0  0  0
 62141  1  0  0  0
 62142  1  0  0  0
 62143  1  0  0  0
 63 65  1  0  0  0
 63144  1  0  0  0
 63145  1  0  0  0
 63146  1  0  0  0
 64147  1  0  0  0
 65148  1  0  0  0
 68 84  1  0  0  0
 71 74  2  0  0  0
 71 85  1  0  0  0
 71149  1  0  0  0
 72 73  1  0  0  0
 72 80  1  0  0  0
 72 85  2  0  0  0
 73 81  1  0  0  0
 73 86  2  0  0  0
 74 86  1  0  0  0
 74 87  1  0  0  0
 75 77  1  0  0  0
 75 87  1  0  0  0
 75150  1  0  0  0
 75151  1  0  0  0
 76 78  1  0  0  0
 76 87  1  0  0  0
 76152  1  0  0  0
 76153  1  0  0  0
 77 88  1  0  0  0
 77154  1  0  0  0
 77155  1  0  0  0
 78 88  1  0  0  0
 78156  1  0  0  0
 78157  1  0  0  0
 79 80  1  0  0  0
 79158  1  0  0  0
 79159  1  0  0  0
 79160  1  0  0  0
 80161  1  0  0  0
 80162  1  0  0  0
 81 82  1  0  0  0
 81163  1  0  0  0
 81164  1  0  0  0
 82 89  1  0  0  0
 82165  1  0  0  0
 82166  1  0  0  0
 83 84  1  0  0  0
 83 89  1  0  0  0
 83167  1  0  0  0
 83168  1  0  0  0
 84169  1  0  0  0
 84170  1  0  0  0
 89171  1  0  0  0
 89172  1  0  0  0
M  CHG  1  89   1
M  ISO  4   1 100  68 101  84 101  88 100
M  END
> <chiral flag>
0

> <version>
0

> <s_m_source_file>
/data/baiqing/PycharmProjects/Reinvent-master-3.2/result/LINK_invent/BTK/process_docking_weight1_custom_sum_contain_oxygen_bond_distance_aromatic_linkinvent_7_9_3/rearranged_h_0195.sdf

> <i_m_source_file_index>
76

> <r_mmod_Potential_Energy-OPLS-2005>
152.1201171875

> <r_mmod_Stretch_Energy-OPLS-2005>
39.7113189697266

> <r_mmod_Bend_Energy-OPLS-2005>
121.092178344727

> <r_mmod_Torsional_Energy-OPLS-2005>
427.153472900391

> <r_mmod_Improper_Torsional_Energy-OPLS-2005>
13.8990917205811

> <r_mmod_Van_der_Waal_Energy-OPLS-2005>
181.297912597656

> <r_mmod_Electrostatic_Energy-OPLS-2005>
-202.216552734375

> <r_mmod_Solvation_Energy-OPLS-2005>
-451.649627685547

> <b_mmod_Minimization_Converged-OPLS-2005>
0

> <r_mmod_RMS_Derivative-OPLS-2005>
6.1320481300354

$$$$
78
                    3D
 Structure written by MMmdl.
163173  0  0  1  0            999 V2000
  -30.6286  -14.6788   20.5211 C   0  0  0  0  0  0
  -30.4316  -12.4259   19.4679 C   0  0  0  0  0  0
  -29.5040  -12.4931   18.2336 C   0  0  0  0  0  0
  -28.0281  -12.3263   18.6446 C   0  0  0  0  0  0
  -27.6386  -13.2212   19.8522 C   0  0  2  0  0  0
  -28.6795  -13.1332   20.9889 C   0  0  0  0  0  0
  -25.2485  -13.8146   20.5671 C   0  0  0  0  0  0
  -24.1772  -13.0413   20.9150 C   0  0  0  0  0  0
  -24.6348  -11.6886   20.8716 C   0  0  0  0  0  0
  -23.9019  -10.4278   21.0391 C   0  0  0  0  0  0
  -24.3591   -9.4209   21.9180 C   0  0  0  0  0  0
  -23.6286   -8.2228   22.0748 C   0  0  0  0  0  0
  -22.4280   -8.0250   21.3545 C   0  0  0  0  0  0
  -21.9897   -9.0214   20.4642 C   0  0  0  0  0  0
  -22.7191  -10.2106   20.3064 C   0  0  0  0  0  0
  -21.6827   -6.0720   22.5294 C   0  0  0  0  0  0
  -21.4009   -6.5637   23.8229 C   0  0  0  0  0  0
  -21.3672   -5.6797   24.9196 C   0  0  0  0  0  0
  -21.6057   -4.3061   24.7234 C   0  0  0  0  0  0
  -21.8830   -3.8133   23.4354 C   0  0  0  0  0  0
  -21.9195   -4.6955   22.3412 C   0  0  0  0  0  0
  -22.7791  -13.5195   21.1853 C   0  0  0  0  0  0
  -22.1653   -4.2150   21.0970 F   0  0  0  0  0  0
  -21.5645   -3.4534   25.7735 F   0  0  0  0  0  0
  -29.9844  -13.4737   20.4134 N   0  0  0  0  0  0
  -26.2915  -12.9347   20.3287 N   0  0  0  0  0  0
  -25.9280  -11.6501   20.5745 N   0  0  0  0  0  0
  -22.0411  -12.8239   22.0406 N   0  0  0  0  0  0
  -25.4247  -15.1891   20.4140 N   0  0  0  0  0  0
  -31.8252  -14.7699   20.2313 O   0  0  0  0  0  0
  -21.6624   -6.8858   21.4253 O   0  0  0  0  0  0
  -22.3503  -14.5507   20.6688 O   0  0  0  0  0  0
  -24.6271  -31.8592   23.1999 C   0  0  0  0  0  0
  -25.9087  -32.4796   23.8353 C   0  0  1  0  0  0
  -27.2345  -27.3157   20.1168 C   0  0  0  0  0  0
  -25.5887  -33.8608   24.2241 N   0  0  0  0  0  0
  -23.4231  -30.4778   21.5458 C   0  0  2  0  0  0
  -24.8706  -28.9294   20.1114 C   0  0  0  0  0  0
  -22.7464  -29.4622   22.4968 C   0  0  0  0  0  0
  -18.0269  -28.1403   22.8495 C   0  0  0  0  0  0
  -24.1457  -36.7327   23.2614 C   0  0  0  0  0  0
  -25.9619  -30.7903   21.3678 C   0  0  0  0  0  0
  -26.0414  -29.4176   20.7075 C   0  0  0  0  0  0
  -27.2285  -28.6251   20.6920 C   0  0  0  0  0  0
  -26.0429  -26.8818   19.4933 C   0  0  0  0  0  0
  -24.8737  -27.6677   19.4952 C   0  0  0  0  0  0
  -23.6339  -29.8036   20.1642 C   0  0  0  0  0  0
  -25.4065  -36.3105   24.0318 C   0  0  1  0  0  0
  -20.5872  -28.3692   23.1298 C   0  0  2  0  0  0
  -20.6740  -26.9409   22.5422 C   0  0  0  0  0  0
  -19.5720  -26.6370   21.5221 C   0  0  0  0  0  0
  -18.1903  -26.7940   22.1637 C   0  0  0  0  0  0
  -19.1524  -28.8862   23.2886 C   0  0  0  0  0  0
  -18.9449  -30.1462   23.8906 C   0  0  0  0  0  0
  -17.6456  -30.6609   24.0572 C   0  0  0  0  0  0
  -25.9037  -34.9489   23.5085 C   0  0  0  0  0  0
  -16.5347  -29.9119   23.6337 C   0  0  0  0  0  0
  -16.7255  -28.6535   23.0357 C   0  0  0  0  0  0
  -26.4434  -31.6675   25.0784 C   0  0  0  0  0  0
  -25.3637  -31.3889   26.1504 C   0  0  0  0  0  0
  -27.0280  -30.3095   24.6292 C   0  0  0  0  0  0
  -27.5950  -32.4455   25.7581 C   0  0  0  0  0  0
  -27.5641  -37.1693   24.8341 C   0  0  0  0  0  0
  -21.4172  -29.3058   22.3709 N   0  0  0  0  0  0
  -26.4190  -37.3860   23.9539 N   0  0  0  0  0  0
  -24.6909  -31.0567   22.0966 N   0  0  0  0  0  0
  -23.4168  -28.8152   23.3050 O   0  0  0  0  0  0
  -28.3461  -26.4566   20.1681 O   0  0  0  0  0  0
  -26.5646  -34.8977   22.4676 O   0  0  0  0  0  0
  -23.5423  -32.1402   23.7300 O   0  0  0  0  0  0
  -30.5923  -21.6047   19.4823 C   0  0  0  0  0  0
  -29.5580  -20.8684   18.6194 C   0  0  0  0  0  0
  -29.6897  -16.5330   19.2896 C   0  0  0  0  0  0
  -29.9407  -16.7970   21.7350 C   0  0  0  0  0  0
  -29.0917  -24.1957   21.3146 C   0  0  0  0  0  0
  -28.4543  -23.8912   19.4083 C   0  0  0  0  0  0
  -28.9533  -17.9016   19.3024 C   0  0  0  0  0  0
  -29.4237  -18.3111   21.5895 C   0  0  0  0  0  0
  -29.4766  -21.7192   20.5324 C   0  0  2  0  0  0
  -28.9414  -20.3217   19.9274 C   0  0  2  0  0  0
  -28.0851  -25.0141   20.4359 C   0  0  0  0  0  0
  -29.8556  -15.8347   20.5824 N   0  0  0  0  0  0
  -28.6182  -22.9986   20.5870 N   0  0  0  0  0  0
  -29.5309  -18.9196   20.2263 N   0  3  0  0  0  0
  -31.4714  -12.5563   19.1627 H   0  0  0  0  0  0
  -30.3712  -11.4447   19.9442 H   0  0  0  0  0  0
  -29.7779  -11.7231   17.5110 H   0  0  0  0  0  0
  -29.6399  -13.4465   17.7207 H   0  0  0  0  0  0
  -27.8758  -11.2762   18.8989 H   0  0  0  0  0  0
  -27.3772  -12.5305   17.7896 H   0  0  0  0  0  0
  -27.6394  -14.2446   19.4791 H   0  0  0  0  0  0
  -28.6980  -12.1298   21.4187 H   0  0  0  0  0  0
  -28.4186  -13.8166   21.8001 H   0  0  0  0  0  0
  -25.2728   -9.5694   22.4752 H   0  0  0  0  0  0
  -24.0016   -7.4623   22.7461 H   0  0  0  0  0  0
  -21.0853   -8.8696   19.8943 H   0  0  0  0  0  0
  -22.3627  -10.9633   19.6184 H   0  0  0  0  0  0
  -21.1984   -7.6153   23.9731 H   0  0  0  0  0  0
  -21.1494   -6.0516   25.9101 H   0  0  0  0  0  0
  -22.0605   -2.7600   23.2837 H   0  0  0  0  0  0
  -22.3976  -11.9924   22.4887 H   0  0  0  0  0  0
  -21.1032  -13.1294   22.2545 H   0  0  0  0  0  0
  -24.6643  -15.8471   20.5253 H   0  0  0  0  0  0
  -26.2928  -15.6284   20.1362 H   0  0  0  0  0  0
  -26.7174  -32.5448   23.1123 H   0  0  0  0  0  0
  -24.9965  -33.9749   25.0342 H   0  0  0  0  0  0
  -22.7215  -31.3005   21.3989 H   0  0  0  0  0  0
  -23.3834  -35.9523   23.2948 H   0  0  0  0  0  0
  -24.3638  -36.9312   22.2108 H   0  0  0  0  0  0
  -23.7001  -37.6332   23.6860 H   0  0  0  0  0  0
  -26.0780  -31.5526   20.5971 H   0  0  0  0  0  0
  -26.8473  -30.8476   21.9895 H   0  0  0  0  0  0
  -28.1299  -29.0000   21.1582 H   0  0  0  0  0  0
  -26.0023  -25.9149   19.0125 H   0  0  0  0  0  0
  -23.9744  -27.2859   19.0304 H   0  0  0  0  0  0
  -23.7374  -30.5759   19.4014 H   0  0  0  0  0  0
  -22.7565  -29.2209   19.8740 H   0  0  0  0  0  0
  -25.1186  -36.1908   25.0786 H   0  0  0  0  0  0
  -20.9934  -28.3236   24.1428 H   0  0  0  0  0  0
  -20.5613  -26.2291   23.3613 H   0  0  0  0  0  0
  -21.6608  -26.7403   22.1238 H   0  0  0  0  0  0
  -19.6864  -25.6256   21.1307 H   0  0  0  0  0  0
  -19.6683  -27.3134   20.6718 H   0  0  0  0  0  0
  -17.4153  -26.6668   21.4061 H   0  0  0  0  0  0
  -18.0316  -26.0100   22.9053 H   0  0  0  0  0  0
  -19.7920  -30.7271   24.2281 H   0  0  0  0  0  0
  -17.5019  -31.6297   24.5162 H   0  0  0  0  0  0
  -15.5357  -30.3037   23.7651 H   0  0  0  0  0  0
  -15.8642  -28.0870   22.7069 H   0  0  0  0  0  0
  -24.5642  -30.7464   25.7803 H   0  0  0  0  0  0
  -24.9045  -32.3125   26.5056 H   0  0  0  0  0  0
  -25.7892  -30.8899   27.0216 H   0  0  0  0  0  0
  -26.2893  -29.6898   24.1202 H   0  0  0  0  0  0
  -27.3806  -29.7338   25.4857 H   0  0  0  0  0  0
  -27.8825  -30.4377   23.9643 H   0  0  0  0  0  0
  -27.2467  -33.3692   26.2221 H   0  0  0  0  0  0
  -28.3731  -32.7154   25.0431 H   0  0  0  0  0  0
  -28.0654  -31.8584   26.5472 H   0  0  0  0  0  0
  -28.2223  -38.0393   24.8084 H   0  0  0  0  0  0
  -28.1564  -36.3053   24.5282 H   0  0  0  0  0  0
  -27.2523  -37.0231   25.8699 H   0  0  0  0  0  0
  -20.9331  -29.8839   21.6982 H   0  0  0  0  0  0
  -26.0058  -38.2825   24.1972 H   0  0  0  0  0  0
  -30.9810  -22.5351   19.0657 H   0  0  0  0  0  0
  -31.4135  -20.9597   19.8043 H   0  0  0  0  0  0
  -29.9937  -20.1575   17.9194 H   0  0  0  0  0  0
  -28.8753  -21.5389   18.0959 H   0  0  0  0  0  0
  -30.6693  -16.6723   18.8262 H   0  0  0  0  0  0
  -29.1278  -15.8706   18.6276 H   0  0  0  0  0  0
  -29.3938  -16.3503   22.5674 H   0  0  0  0  0  0
  -30.9791  -16.8200   22.0660 H   0  0  0  0  0  0
  -28.8536  -24.1362   22.3764 H   0  0  0  0  0  0
  -30.1470  -24.3883   21.1100 H   0  0  0  0  0  0
  -29.4041  -24.0624   18.8942 H   0  0  0  0  0  0
  -27.6664  -23.5444   18.7392 H   0  0  0  0  0  0
  -27.9074  -17.7447   19.5730 H   0  0  0  0  0  0
  -28.9271  -18.2783   18.2810 H   0  0  0  0  0  0
  -29.9455  -18.9423   22.3108 H   0  0  0  0  0  0
  -28.3749  -18.3394   21.8864 H   0  0  0  0  0  0
  -29.8596  -21.5605   21.5425 H   0  0  0  0  0  0
  -27.8497  -20.2891   19.9044 H   0  0  0  0  0  0
  -27.0757  -24.8687   20.8305 H   0  0  0  0  0  0
  -30.5184  -18.9850   20.0286 H   0  0  0  0  0  0
  1 25  1  0  0  0
  1 30  2  0  0  0
  1 82  1  0  0  0
  2  3  1  0  0  0
  2 25  1  0  0  0
  2 85  1  0  0  0
  2 86  1  0  0  0
  3  4  1  0  0  0
  3 87  1  0  0  0
  3 88  1  0  0  0
  4  5  1  0  0  0
  4 89  1  0  0  0
  4 90  1  0  0  0
  5  6  1  0  0  0
  5 26  1  0  0  0
  5 91  1  0  0  0
  6 25  1  0  0  0
  6 92  1  0  0  0
  6 93  1  0  0  0
  7  8  2  0  0  0
  7 26  1  0  0  0
  7 29  1  0  0  0
  8  9  1  0  0  0
  8 22  1  0  0  0
  9 10  1  0  0  0
  9 27  2  0  0  0
 10 11  2  0  0  0
 10 15  1  0  0  0
 11 12  1  0  0  0
 11 94  1  0  0  0
 12 13  2  0  0  0
 12 95  1  0  0  0
 13 14  1  0  0  0
 13 31  1  0  0  0
 14 15  2  0  0  0
 14 96  1  0  0  0
 15 97  1  0  0  0
 16 17  2  0  0  0
 16 21  1  0  0  0
 16 31  1  0  0  0
 17 18  1  0  0  0
 17 98  1  0  0  0
 18 19  2  0  0  0
 18 99  1  0  0  0
 19 20  1  0  0  0
 19 24  1  0  0  0
 20 21  2  0  0  0
 20100  1  0  0  0
 21 23  1  0  0  0
 22 28  1  0  0  0
 22 32  2  0  0  0
 26 27  1  0  0  0
 28101  1  0  0  0
 28102  1  0  0  0
 29103  1  0  0  0
 29104  1  0  0  0
 33 34  1  0  0  0
 33 66  1  0  0  0
 33 70  2  0  0  0
 34 36  1  0  0  0
 34 59  1  0  0  0
 34105  1  0  0  0
 35 44  2  0  0  0
 35 45  1  0  0  0
 35 68  1  0  0  0
 36 56  1  0  0  0
 36106  1  0  0  0
 37 39  1  0  0  0
 37 47  1  0  0  0
 37 66  1  0  0  0
 37107  1  0  0  0
 38 43  2  0  0  0
 38 46  1  0  0  0
 38 47  1  0  0  0
 39 64  1  0  0  0
 39 67  2  0  0  0
 40 52  1  0  0  0
 40 53  2  0  0  0
 40 58  1  0  0  0
 41108  1  0  0  0
 41109  1  0  0  0
 41110  1  0  0  0
 41 48  1  0  0  0
 42 43  1  0  0  0
 42 66  1  0  0  0
 42111  1  0  0  0
 42112  1  0  0  0
 43 44  1  0  0  0
 44113  1  0  0  0
 45 46  2  0  0  0
 45114  1  0  0  0
 46115  1  0  0  0
 47116  1  0  0  0
 47117  1  0  0  0
 48 56  1  0  0  0
 48 65  1  0  0  0
 48118  1  0  0  0
 49 50  1  0  0  0
 49 53  1  0  0  0
 49 64  1  0  0  0
 49119  1  0  0  0
 50 51  1  0  0  0
 50120  1  0  0  0
 50121  1  0  0  0
 51 52  1  0  0  0
 51122  1  0  0  0
 51123  1  0  0  0
 52124  1  0  0  0
 52125  1  0  0  0
 53 54  1  0  0  0
 54 55  2  0  0  0
 54126  1  0  0  0
 55 57  1  0  0  0
 55127  1  0  0  0
 56 69  2  0  0  0
 57 58  2  0  0  0
 57128  1  0  0  0
 58129  1  0  0  0
 59 60  1  0  0  0
 59 61  1  0  0  0
 59 62  1  0  0  0
 60130  1  0  0  0
 60131  1  0  0  0
 60132  1  0  0  0
 61133  1  0  0  0
 61134  1  0  0  0
 61135  1  0  0  0
 62136  1  0  0  0
 62137  1  0  0  0
 62138  1  0  0  0
 63 65  1  0  0  0
 63139  1  0  0  0
 63140  1  0  0  0
 63141  1  0  0  0
 64142  1  0  0  0
 65143  1  0  0  0
 68 81  1  0  0  0
 71 72  1  0  0  0
 71 79  1  0  0  0
 71144  1  0  0  0
 71145  1  0  0  0
 72146  1  0  0  0
 72147  1  0  0  0
 72 80  1  0  0  0
 73 77  1  0  0  0
 73 82  1  0  0  0
 73148  1  0  0  0
 73149  1  0  0  0
 74 78  1  0  0  0
 74 82  1  0  0  0
 74150  1  0  0  0
 74151  1  0  0  0
 75 81  1  0  0  0
 75152  1  0  0  0
 75153  1  0  0  0
 75 83  1  0  0  0
 76 81  1  0  0  0
 76 83  1  0  0  0
 76154  1  0  0  0
 76155  1  0  0  0
 77156  1  0  0  0
 77157  1  0  0  0
 77 84  1  0  0  0
 78 84  1  0  0  0
 78158  1  0  0  0
 78159  1  0  0  0
 79 80  1  0  0  0
 79 83  1  0  0  0
 79160  1  0  0  0
 80 84  1  0  0  0
 80161  1  0  0  0
 81162  1  0  0  0
 84163  1  0  0  0
M  CHG  1  84   1
M  ISO  4   1 100  68 101  81 101  82 100
M  END
> <chiral flag>
0

> <version>
0

> <s_m_source_file>
/data/baiqing/PycharmProjects/Reinvent-master-3.2/result/LINK_invent/BTK/process_docking_weight1_custom_sum_contain_oxygen_bond_distance_aromatic_linkinvent_7_9_3/rearranged_h_0195.sdf

> <i_m_source_file_index>
77

> <r_mmod_Potential_Energy-OPLS-2005>
374.943023681641

> <r_mmod_Stretch_Energy-OPLS-2005>
101.757392883301

> <r_mmod_Bend_Energy-OPLS-2005>
248.760223388672

> <r_mmod_Torsional_Energy-OPLS-2005>
456.258911132812

> <r_mmod_Improper_Torsional_Energy-OPLS-2005>
13.0952215194702

> <r_mmod_Van_der_Waal_Energy-OPLS-2005>
134.087768554688

> <r_mmod_Electrostatic_Energy-OPLS-2005>
-199.08576965332

> <r_mmod_Solvation_Energy-OPLS-2005>
-441.087371826172

> <b_mmod_Minimization_Converged-OPLS-2005>
0

> <r_mmod_RMS_Derivative-OPLS-2005>
5.0049934387207

$$$$
79
                    3D
 Structure written by MMmdl.
167177  0  0  1  0            999 V2000
  -30.7032  -14.4675   20.4808 C   0  0  0  0  0  0
  -30.4153  -12.2748   19.4211 C   0  0  0  0  0  0
  -29.4846  -12.4424   18.2024 C   0  0  0  0  0  0
  -28.0062  -12.3191   18.6231 C   0  0  0  0  0  0
  -27.6496  -13.1793   19.8642 C   0  0  2  0  0  0
  -28.7031  -13.0252   20.9856 C   0  0  0  0  0  0
  -25.2584  -13.8089   20.5702 C   0  0  0  0  0  0
  -24.1809  -13.0406   20.9187 C   0  0  0  0  0  0
  -24.6338  -11.6866   20.8770 C   0  0  0  0  0  0
  -23.9010  -10.4274   21.0435 C   0  0  0  0  0  0
  -24.3581   -9.4194   21.9208 C   0  0  0  0  0  0
  -23.6270   -8.2227   22.0767 C   0  0  0  0  0  0
  -22.4256   -8.0263   21.3548 C   0  0  0  0  0  0
  -21.9883   -9.0229   20.4648 C   0  0  0  0  0  0
  -22.7196  -10.2116   20.3071 C   0  0  0  0  0  0
  -21.6837   -6.0728   22.5278 C   0  0  0  0  0  0
  -21.3998   -6.5639   23.8207 C   0  0  0  0  0  0
  -21.3659   -5.6799   24.9173 C   0  0  0  0  0  0
  -21.6047   -4.3060   24.7229 C   0  0  0  0  0  0
  -21.8818   -3.8146   23.4350 C   0  0  0  0  0  0
  -21.9187   -4.6958   22.3403 C   0  0  0  0  0  0
  -22.7844  -13.5232   21.1842 C   0  0  0  0  0  0
  -22.1657   -4.2146   21.0979 F   0  0  0  0  0  0
  -21.5641   -3.4549   25.7745 F   0  0  0  0  0  0
  -30.0277  -13.2918   20.4050 N   0  0  0  0  0  0
  -26.2965  -12.9186   20.3385 N   0  0  0  0  0  0
  -25.9252  -11.6387   20.5828 N   0  0  0  0  0  0
  -22.0473  -12.8225   22.0394 N   0  0  0  0  0  0
  -25.4376  -15.1805   20.4116 N   0  0  0  0  0  0
  -31.8994  -14.5861   20.2029 O   0  0  0  0  0  0
  -21.6623   -6.8860   21.4235 O   0  0  0  0  0  0
  -22.3552  -14.5551   20.6706 O   0  0  0  0  0  0
  -24.6115  -31.8701   23.2133 C   0  0  0  0  0  0
  -25.9030  -32.4830   23.8418 C   0  0  1  0  0  0
  -27.2378  -27.4613   20.0813 C   0  0  0  0  0  0
  -25.5903  -33.8631   24.2350 N   0  0  0  0  0  0
  -23.3969  -30.4945   21.5532 C   0  0  2  0  0  0
  -24.8404  -28.9611   20.1179 C   0  0  0  0  0  0
  -22.7385  -29.4675   22.5012 C   0  0  0  0  0  0
  -18.0265  -28.1367   22.8508 C   0  0  0  0  0  0
  -24.1485  -36.7317   23.2640 C   0  0  0  0  0  0
  -25.9232  -30.8401   21.3649 C   0  0  0  0  0  0
  -25.9973  -29.4758   20.7133 C   0  0  0  0  0  0
  -27.1930  -28.7292   20.6995 C   0  0  0  0  0  0
  -26.0565  -26.9481   19.4932 C   0  0  0  0  0  0
  -24.8626  -27.6935   19.5113 C   0  0  0  0  0  0
  -23.6025  -29.8262   20.1675 C   0  0  0  0  0  0
  -25.4109  -36.3122   24.0341 C   0  0  1  0  0  0
  -20.5850  -28.3652   23.1334 C   0  0  2  0  0  0
  -20.6754  -26.9393   22.5424 C   0  0  0  0  0  0
  -19.5733  -26.6379   21.5219 C   0  0  0  0  0  0
  -18.1905  -26.7925   22.1624 C   0  0  0  0  0  0
  -19.1512  -28.8830   23.2917 C   0  0  0  0  0  0
  -18.9443  -30.1436   23.8923 C   0  0  0  0  0  0
  -17.6445  -30.6586   24.0560 C   0  0  0  0  0  0
  -25.9037  -34.9481   23.5140 C   0  0  0  0  0  0
  -16.5338  -29.9082   23.6329 C   0  0  0  0  0  0
  -16.7256  -28.6496   23.0367 C   0  0  0  0  0  0
  -26.4466  -31.6601   25.0737 C   0  0  0  0  0  0
  -25.3746  -31.3675   26.1491 C   0  0  0  0  0  0
  -27.0306  -30.3056   24.6099 C   0  0  0  0  0  0
  -27.6046  -32.4312   25.7501 C   0  0  0  0  0  0
  -27.5584  -37.1815   24.8467 C   0  0  0  0  0  0
  -21.4120  -29.3029   22.3749 N   0  0  0  0  0  0
  -26.4298  -37.3800   23.9408 N   0  0  0  0  0  0
  -24.6618  -31.0824   22.1021 N   0  0  0  0  0  0
  -23.4172  -28.8215   23.3041 O   0  0  0  0  0  0
  -28.4462  -26.7988   20.0860 O   0  0  0  0  0  0
  -26.5589  -34.8919   22.4696 O   0  0  0  0  0  0
  -23.5318  -32.1449   23.7545 O   0  0  0  0  0  0
  -29.9524  -17.5786   19.1716 C   0  0  0  0  0  0
  -30.0991  -25.3064   19.2207 C   0  0  0  0  0  0
  -29.5227  -16.1202   19.2044 C   0  0  0  0  0  0
  -30.2793  -16.7276   21.3661 C   0  0  0  0  0  0
  -30.3946  -24.1908   20.2207 C   0  0  0  0  0  0
  -29.8223  -20.0070   22.1188 C   0  0  0  0  0  0
  -30.0614  -20.3850   20.1107 C   0  0  0  0  0  0
  -28.0455  -24.3795   20.1612 C   0  0  0  0  0  0
  -30.0489  -21.3037   21.3288 C   0  0  1  0  0  0
  -29.7639  -17.9746   20.6252 C   0  0  1  0  0  0
  -28.5970  -25.5798   19.3621 C   0  0  1  0  0  0
  -29.0313  -22.4510   21.4089 C   0  0  0  0  0  0
  -29.9201  -15.5712   20.5187 N   0  0  0  0  0  0
  -30.4034  -19.2667   20.9933 N   0  3  2  0  0  0
  -29.1506  -23.4006   20.2717 N   0  3  2  0  0  0
  -31.4593  -12.3626   19.1152 H   0  0  0  0  0  0
  -30.3083  -11.2776   19.8516 H   0  0  0  0  0  0
  -29.7163  -11.6879   17.4490 H   0  0  0  0  0  0
  -29.6552  -13.4053   17.7226 H   0  0  0  0  0  0
  -27.8153  -11.2671   18.8386 H   0  0  0  0  0  0
  -27.3538  -12.5765   17.7875 H   0  0  0  0  0  0
  -27.6570  -14.2058   19.5248 H   0  0  0  0  0  0
  -28.6775  -12.0168   21.4015 H   0  0  0  0  0  0
  -28.4874  -13.7042   21.8127 H   0  0  0  0  0  0
  -25.2727   -9.5677   22.4777 H   0  0  0  0  0  0
  -23.9986   -7.4617   22.7487 H   0  0  0  0  0  0
  -21.0822   -8.8729   19.8946 H   0  0  0  0  0  0
  -22.3654  -10.9653   19.6178 H   0  0  0  0  0  0
  -21.1979   -7.6144   23.9701 H   0  0  0  0  0  0
  -21.1486   -6.0538   25.9075 H   0  0  0  0  0  0
  -22.0599   -2.7610   23.2857 H   0  0  0  0  0  0
  -22.4068  -11.9862   22.4744 H   0  0  0  0  0  0
  -21.1097  -13.1261   22.2611 H   0  0  0  0  0  0
  -24.6802  -15.8451   20.5258 H   0  0  0  0  0  0
  -26.3040  -15.6118   20.1173 H   0  0  0  0  0  0
  -26.7101  -32.5546   23.1188 H   0  0  0  0  0  0
  -25.0083  -33.9803   25.0515 H   0  0  0  0  0  0
  -22.6853  -31.3112   21.4162 H   0  0  0  0  0  0
  -23.3747  -35.9650   23.3313 H   0  0  0  0  0  0
  -24.3581  -36.8923   22.2056 H   0  0  0  0  0  0
  -23.7233  -37.6521   23.6649 H   0  0  0  0  0  0
  -26.0379  -31.6074   20.5978 H   0  0  0  0  0  0
  -26.8110  -30.8904   21.9837 H   0  0  0  0  0  0
  -28.0892  -29.1273   21.1556 H   0  0  0  0  0  0
  -26.0280  -25.9798   19.0169 H   0  0  0  0  0  0
  -23.9696  -27.2898   19.0545 H   0  0  0  0  0  0
  -23.7095  -30.6009   19.4073 H   0  0  0  0  0  0
  -22.7265  -29.2458   19.8728 H   0  0  0  0  0  0
  -25.1284  -36.1999   25.0835 H   0  0  0  0  0  0
  -20.9948  -28.3210   24.1456 H   0  0  0  0  0  0
  -20.5665  -26.2255   23.3602 H   0  0  0  0  0  0
  -21.6625  -26.7443   22.1212 H   0  0  0  0  0  0
  -19.6889  -25.6294   21.1242 H   0  0  0  0  0  0
  -19.6676  -27.3199   20.6756 H   0  0  0  0  0  0
  -17.4184  -26.6701   21.4010 H   0  0  0  0  0  0
  -18.0286  -26.0054   22.8999 H   0  0  0  0  0  0
  -19.7915  -30.7250   24.2306 H   0  0  0  0  0  0
  -17.4998  -31.6273   24.5145 H   0  0  0  0  0  0
  -15.5342  -30.2993   23.7638 H   0  0  0  0  0  0
  -15.8653  -28.0815   22.7090 H   0  0  0  0  0  0
  -24.5927  -30.7017   25.7818 H   0  0  0  0  0  0
  -24.8927  -32.2814   26.4976 H   0  0  0  0  0  0
  -25.8118  -30.8819   27.0229 H   0  0  0  0  0  0
  -26.2846  -29.6810   24.1174 H   0  0  0  0  0  0
  -27.4111  -29.7298   25.4546 H   0  0  0  0  0  0
  -27.8662  -30.4391   23.9225 H   0  0  0  0  0  0
  -27.2682  -33.3608   26.2106 H   0  0  0  0  0  0
  -28.3851  -32.6880   25.0327 H   0  0  0  0  0  0
  -28.0724  -31.8418   26.5399 H   0  0  0  0  0  0
  -28.2603  -38.0113   24.7528 H   0  0  0  0  0  0
  -28.1082  -36.2644   24.6288 H   0  0  0  0  0  0
  -27.2297  -37.1462   25.8868 H   0  0  0  0  0  0
  -20.9269  -29.8758   21.6987 H   0  0  0  0  0  0
  -26.0193  -38.2883   24.1403 H   0  0  0  0  0  0
  -29.3540  -18.1673   18.4750 H   0  0  0  0  0  0
  -30.9995  -17.6581   18.8745 H   0  0  0  0  0  0
  -30.3102  -24.9557   18.2099 H   0  0  0  0  0  0
  -30.7117  -26.1920   19.3902 H   0  0  0  0  0  0
  -29.9383  -15.5817   18.3506 H   0  0  0  0  0  0
  -28.4394  -16.0915   19.1057 H   0  0  0  0  0  0
  -29.8257  -16.6373   22.3538 H   0  0  0  0  0  0
  -31.3608  -16.7829   21.5074 H   0  0  0  0  0  0
  -30.6011  -24.6190   21.2027 H   0  0  0  0  0  0
  -31.2577  -23.5924   19.9271 H   0  0  0  0  0  0
  -28.7665  -19.7869   22.2883 H   0  0  0  0  0  0
  -30.3976  -19.9271   23.0421 H   0  0  0  0  0  0
  -30.8305  -20.6098   19.3704 H   0  0  0  0  0  0
  -29.0774  -20.2825   19.6473 H   0  0  0  0  0  0
  -27.1760  -23.9309   19.6797 H   0  0  0  0  0  0
  -27.7380  -24.7053   21.1564 H   0  0  0  0  0  0
  -31.0629  -21.6640   21.5187 H   0  0  0  0  0  0
  -28.6893  -18.0594   20.8001 H   0  0  0  0  0  0
  -28.1573  -25.6531   18.3660 H   0  0  0  0  0  0
  -29.1377  -22.9905   22.3515 H   0  0  0  0  0  0
  -28.0183  -22.0453   21.4090 H   0  0  0  0  0  0
  -31.4064  -19.1912   21.0846 H   0  0  0  0  0  0
  -29.1241  -22.8596   19.4195 H   0  0  0  0  0  0
  1 25  1  0  0  0
  1 30  2  0  0  0
  1 83  1  0  0  0
  2  3  1  0  0  0
  2 25  1  0  0  0
  2 86  1  0  0  0
  2 87  1  0  0  0
  3  4  1  0  0  0
  3 88  1  0  0  0
  3 89  1  0  0  0
  4  5  1  0  0  0
  4 90  1  0  0  0
  4 91  1  0  0  0
  5  6  1  0  0  0
  5 26  1  0  0  0
  5 92  1  0  0  0
  6 25  1  0  0  0
  6 93  1  0  0  0
  6 94  1  0  0  0
  7  8  2  0  0  0
  7 26  1  0  0  0
  7 29  1  0  0  0
  8  9  1  0  0  0
  8 22  1  0  0  0
  9 10  1  0  0  0
  9 27  2  0  0  0
 10 11  2  0  0  0
 10 15  1  0  0  0
 11 12  1  0  0  0
 11 95  1  0  0  0
 12 13  2  0  0  0
 12 96  1  0  0  0
 13 14  1  0  0  0
 13 31  1  0  0  0
 14 15  2  0  0  0
 14 97  1  0  0  0
 15 98  1  0  0  0
 16 17  2  0  0  0
 16 21  1  0  0  0
 16 31  1  0  0  0
 17 18  1  0  0  0
 17 99  1  0  0  0
 18 19  2  0  0  0
 18100  1  0  0  0
 19 20  1  0  0  0
 19 24  1  0  0  0
 20 21  2  0  0  0
 20101  1  0  0  0
 21 23  1  0  0  0
 22 28  1  0  0  0
 22 32  2  0  0  0
 26 27  1  0  0  0
 28102  1  0  0  0
 28103  1  0  0  0
 29104  1  0  0  0
 29105  1  0  0  0
 33 34  1  0  0  0
 33 66  1  0  0  0
 33 70  2  0  0  0
 34 36  1  0  0  0
 34 59  1  0  0  0
 34106  1  0  0  0
 35 44  2  0  0  0
 35 45  1  0  0  0
 35 68  1  0  0  0
 36 56  1  0  0  0
 36107  1  0  0  0
 37 39  1  0  0  0
 37 47  1  0  0  0
 37 66  1  0  0  0
 37108  1  0  0  0
 38 43  2  0  0  0
 38 46  1  0  0  0
 38 47  1  0  0  0
 39 64  1  0  0  0
 39 67  2  0  0  0
 40 52  1  0  0  0
 40 53  2  0  0  0
 40 58  1  0  0  0
 41109  1  0  0  0
 41110  1  0  0  0
 41111  1  0  0  0
 41 48  1  0  0  0
 42 43  1  0  0  0
 42 66  1  0  0  0
 42112  1  0  0  0
 42113  1  0  0  0
 43 44  1  0  0  0
 44114  1  0  0  0
 45 46  2  0  0  0
 45115  1  0  0  0
 46116  1  0  0  0
 47117  1  0  0  0
 47118  1  0  0  0
 48 56  1  0  0  0
 48 65  1  0  0  0
 48119  1  0  0  0
 49 50  1  0  0  0
 49 53  1  0  0  0
 49 64  1  0  0  0
 49120  1  0  0  0
 50 51  1  0  0  0
 50121  1  0  0  0
 50122  1  0  0  0
 51 52  1  0  0  0
 51123  1  0  0  0
 51124  1  0  0  0
 52125  1  0  0  0
 52126  1  0  0  0
 53 54  1  0  0  0
 54 55  2  0  0  0
 54127  1  0  0  0
 55 57  1  0  0  0
 55128  1  0  0  0
 56 69  2  0  0  0
 57 58  2  0  0  0
 57129  1  0  0  0
 58130  1  0  0  0
 59 60  1  0  0  0
 59 61  1  0  0  0
 59 62  1  0  0  0
 60131  1  0  0  0
 60132  1  0  0  0
 60133  1  0  0  0
 61134  1  0  0  0
 61135  1  0  0  0
 61136  1  0  0  0
 62137  1  0  0  0
 62138  1  0  0  0
 62139  1  0  0  0
 63 65  1  0  0  0
 63140  1  0  0  0
 63141  1  0  0  0
 63142  1  0  0  0
 64143  1  0  0  0
 65144  1  0  0  0
 68 81  1  0  0  0
 71 73  1  0  0  0
 71145  1  0  0  0
 71146  1  0  0  0
 71 80  1  0  0  0
 72 75  1  0  0  0
 72 81  1  0  0  0
 72147  1  0  0  0
 72148  1  0  0  0
 73 83  1  0  0  0
 73149  1  0  0  0
 73150  1  0  0  0
 74 80  1  0  0  0
 74 83  1  0  0  0
 74151  1  0  0  0
 74152  1  0  0  0
 75 85  1  0  0  0
 75153  1  0  0  0
 75154  1  0  0  0
 76 79  1  0  0  0
 76155  1  0  0  0
 76156  1  0  0  0
 76 84  1  0  0  0
 77 79  1  0  0  0
 77 84  1  0  0  0
 77157  1  0  0  0
 77158  1  0  0  0
 78 81  1  0  0  0
 78 85  1  0  0  0
 78159  1  0  0  0
 78160  1  0  0  0
 79 82  1  0  0  0
 79161  1  0  0  0
 80 84  1  0  0  0
 80162  1  0  0  0
 81163  1  0  0  0
 82164  1  0  0  0
 82165  1  0  0  0
 82 85  1  0  0  0
 84166  1  0  0  0
 85167  1  0  0  0
M  CHG  2  84   1  85   1
M  ISO  4   1 100  68 101  81 101  83 100
M  END
> <chiral flag>
0

> <version>
0

> <s_m_source_file>
/data/baiqing/PycharmProjects/Reinvent-master-3.2/result/LINK_invent/BTK/process_docking_weight1_custom_sum_contain_oxygen_bond_distance_aromatic_linkinvent_7_9_3/rearranged_h_0195.sdf

> <i_m_source_file_index>
78

> <r_mmod_Potential_Energy-OPLS-2005>
31.4427547454834

> <r_mmod_Stretch_Energy-OPLS-2005>
34.4061279296875

> <r_mmod_Bend_Energy-OPLS-2005>
165.255462646484

> <r_mmod_Torsional_Energy-OPLS-2005>
431.0205078125

> <r_mmod_Improper_Torsional_Energy-OPLS-2005>
13.9176387786865

> <r_mmod_Van_der_Waal_Energy-OPLS-2005>
130.681442260742

> <r_mmod_Electrostatic_Energy-OPLS-2005>
176.062728881836

> <r_mmod_Solvation_Energy-OPLS-2005>
-939.946411132812

> <b_mmod_Minimization_Converged-OPLS-2005>
0

> <r_mmod_RMS_Derivative-OPLS-2005>
0.97633421421051

$$$$
80
                    3D
 Structure written by MMmdl.
170180  0  0  1  0            999 V2000
  -30.7020  -14.4971   20.4691 C   0  0  0  0  0  0
  -30.4229  -12.2842   19.4423 C   0  0  0  0  0  0
  -29.5015  -12.4309   18.2129 C   0  0  0  0  0  0
  -28.0167  -12.3122   18.6207 C   0  0  0  0  0  0
  -27.6444  -13.1757   19.8564 C   0  0  2  0  0  0
  -28.7000  -13.0528   20.9833 C   0  0  0  0  0  0
  -25.2578  -13.8069   20.5696 C   0  0  0  0  0  0
  -24.1803  -13.0405   20.9187 C   0  0  0  0  0  0
  -24.6323  -11.6859   20.8763 C   0  0  0  0  0  0
  -23.9009  -10.4273   21.0438 C   0  0  0  0  0  0
  -24.3598   -9.4194   21.9198 C   0  0  0  0  0  0
  -23.6276   -8.2231   22.0767 C   0  0  0  0  0  0
  -22.4254   -8.0275   21.3550 C   0  0  0  0  0  0
  -21.9879   -9.0248   20.4655 C   0  0  0  0  0  0
  -22.7207  -10.2122   20.3061 C   0  0  0  0  0  0
  -21.6838   -6.0726   22.5282 C   0  0  0  0  0  0
  -21.4005   -6.5636   23.8216 C   0  0  0  0  0  0
  -21.3646   -5.6788   24.9171 C   0  0  0  0  0  0
  -21.6036   -4.3052   24.7222 C   0  0  0  0  0  0
  -21.8831   -3.8139   23.4347 C   0  0  0  0  0  0
  -21.9196   -4.6954   22.3399 C   0  0  0  0  0  0
  -22.7847  -13.5242   21.1849 C   0  0  0  0  0  0
  -22.1667   -4.2147   21.0974 F   0  0  0  0  0  0
  -21.5639   -3.4543   25.7740 F   0  0  0  0  0  0
  -30.0290  -13.3170   20.4093 N   0  0  0  0  0  0
  -26.2944  -12.9137   20.3335 N   0  0  0  0  0  0
  -25.9226  -11.6344   20.5792 N   0  0  0  0  0  0
  -22.0488  -12.8238   22.0420 N   0  0  0  0  0  0
  -25.4353  -15.1796   20.4146 N   0  0  0  0  0  0
  -31.8984  -14.6100   20.1929 O   0  0  0  0  0  0
  -21.6621   -6.8872   21.4245 O   0  0  0  0  0  0
  -22.3530  -14.5535   20.6678 O   0  0  0  0  0  0
  -24.6098  -31.8738   23.2138 C   0  0  0  0  0  0
  -25.9028  -32.4841   23.8419 C   0  0  1  0  0  0
  -27.2368  -27.4745   20.0811 C   0  0  0  0  0  0
  -25.5904  -33.8637   24.2350 N   0  0  0  0  0  0
  -23.3942  -30.4987   21.5564 C   0  0  2  0  0  0
  -24.8383  -28.9657   20.1264 C   0  0  0  0  0  0
  -22.7393  -29.4698   22.5046 C   0  0  0  0  0  0
  -18.0265  -28.1408   22.8496 C   0  0  0  0  0  0
  -24.1483  -36.7298   23.2634 C   0  0  0  0  0  0
  -25.9208  -30.8489   21.3621 C   0  0  0  0  0  0
  -25.9989  -29.4851   20.7131 C   0  0  0  0  0  0
  -27.1997  -28.7433   20.6952 C   0  0  0  0  0  0
  -26.0446  -26.9467   19.5242 C   0  0  0  0  0  0
  -24.8518  -27.6920   19.5378 C   0  0  0  0  0  0
  -23.6008  -29.8316   20.1722 C   0  0  0  0  0  0
  -25.4109  -36.3113   24.0337 C   0  0  1  0  0  0
  -20.5848  -28.3661   23.1361 C   0  0  2  0  0  0
  -20.6771  -26.9406   22.5443 C   0  0  0  0  0  0
  -19.5742  -26.6414   21.5233 C   0  0  0  0  0  0
  -18.1909  -26.7971   22.1625 C   0  0  0  0  0  0
  -19.1510  -28.8854   23.2925 C   0  0  0  0  0  0
  -18.9451  -30.1456   23.8932 C   0  0  0  0  0  0
  -17.6453  -30.6609   24.0580 C   0  0  0  0  0  0
  -25.9032  -34.9482   23.5141 C   0  0  0  0  0  0
  -16.5349  -29.9111   23.6335 C   0  0  0  0  0  0
  -16.7249  -28.6541   23.0338 C   0  0  0  0  0  0
  -26.4475  -31.6606   25.0724 C   0  0  0  0  0  0
  -25.3756  -31.3731   26.1482 C   0  0  0  0  0  0
  -27.0291  -30.3055   24.6078 C   0  0  0  0  0  0
  -27.6055  -32.4321   25.7480 C   0  0  0  0  0  0
  -27.5586  -37.1805   24.8469 C   0  0  0  0  0  0
  -21.4128  -29.3032   22.3777 N   0  0  0  0  0  0
  -26.4300  -37.3798   23.9412 N   0  0  0  0  0  0
  -24.6590  -31.0889   22.1013 N   0  0  0  0  0  0
  -23.4186  -28.8264   23.3085 O   0  0  0  0  0  0
  -28.4199  -26.7671   20.0472 O   0  0  0  0  0  0
  -26.5597  -34.8929   22.4694 O   0  0  0  0  0  0
  -23.5303  -32.1478   23.7556 O   0  0  0  0  0  0
  -28.8915  -24.9857   16.4925 C   0  0  0  0  0  0
  -29.0687  -26.3680   16.6309 C   0  0  0  0  0  0
  -28.6136  -24.2577   17.6571 C   0  0  0  0  0  0
  -28.6986  -26.1718   18.8716 C   0  0  0  0  0  0
  -30.1302  -26.8395   14.2642 C   0  0  0  0  0  0
  -30.7027  -27.8470   15.2330 C   0  0  0  0  0  0
  -29.2029  -16.0363   19.3473 C   0  0  0  0  0  0
  -30.3498  -17.0104   20.7160 C   0  0  0  0  0  0
  -29.3247  -27.2777   15.4672 C   0  0  0  0  0  0
  -30.2191  -17.1462   19.1945 C   0  0  0  0  0  0
  -30.0288  -17.9599   16.9798 C   0  0  0  0  0  0
  -28.3267  -22.7737   17.6165 C   0  0  0  0  0  0
  -30.2334  -19.6266   18.7495 C   0  0  0  0  0  0
  -29.4758  -20.6478   17.8605 C   0  0  0  0  0  0
  -28.9743  -26.9572   17.8361 N   0  0  0  0  0  0
  -28.5553  -24.8521   18.8610 N   0  0  0  0  0  0
  -29.9168  -15.5982   20.5509 N   0  0  0  0  0  0
  -29.7605  -18.2871   18.3860 N   0  0  0  0  0  0
  -29.3062  -22.0058   18.4071 N   0  3  0  0  0  0
  -31.4713  -12.3678   19.1489 H   0  0  0  0  0  0
  -30.3155  -11.2947   19.8910 H   0  0  0  0  0  0
  -29.7435  -11.6612   17.4788 H   0  0  0  0  0  0
  -29.6882  -13.3778   17.7075 H   0  0  0  0  0  0
  -27.8206  -11.2615   18.8385 H   0  0  0  0  0  0
  -27.3763  -12.5669   17.7746 H   0  0  0  0  0  0
  -27.6193  -14.1919   19.4976 H   0  0  0  0  0  0
  -28.6803  -12.0550   21.4229 H   0  0  0  0  0  0
  -28.4720  -13.7480   21.7952 H   0  0  0  0  0  0
  -25.2767   -9.5667   22.4733 H   0  0  0  0  0  0
  -24.0005   -7.4610   22.7460 H   0  0  0  0  0  0
  -21.0825   -8.8755   19.8946 H   0  0  0  0  0  0
  -22.3698  -10.9652   19.6140 H   0  0  0  0  0  0
  -21.1985   -7.6144   23.9721 H   0  0  0  0  0  0
  -21.1450   -6.0511   25.9076 H   0  0  0  0  0  0
  -22.0621   -2.7604   23.2844 H   0  0  0  0  0  0
  -22.4102  -11.9879   22.4776 H   0  0  0  0  0  0
  -21.1110  -13.1245   22.2679 H   0  0  0  0  0  0
  -24.6794  -15.8445   20.5350 H   0  0  0  0  0  0
  -26.3099  -15.6150   20.1533 H   0  0  0  0  0  0
  -26.7096  -32.5601   23.1184 H   0  0  0  0  0  0
  -25.0052  -33.9793   25.0498 H   0  0  0  0  0  0
  -22.6795  -31.3116   21.4205 H   0  0  0  0  0  0
  -23.3754  -35.9622   23.3315 H   0  0  0  0  0  0
  -24.3578  -36.8893   22.2047 H   0  0  0  0  0  0
  -23.7228  -37.6508   23.6631 H   0  0  0  0  0  0
  -26.0342  -31.6127   20.5919 H   0  0  0  0  0  0
  -26.8082  -30.9012   21.9811 H   0  0  0  0  0  0
  -28.0988  -29.1469   21.1383 H   0  0  0  0  0  0
  -26.0317  -25.9647   19.0724 H   0  0  0  0  0  0
  -23.9537  -27.2766   19.0995 H   0  0  0  0  0  0
  -23.7092  -30.6039   19.4105 H   0  0  0  0  0  0
  -22.7264  -29.2506   19.8744 H   0  0  0  0  0  0
  -25.1283  -36.1983   25.0834 H   0  0  0  0  0  0
  -20.9906  -28.3231   24.1493 H   0  0  0  0  0  0
  -20.5702  -26.2256   23.3611 H   0  0  0  0  0  0
  -21.6643  -26.7490   22.1215 H   0  0  0  0  0  0
  -19.6890  -25.6331   21.1226 H   0  0  0  0  0  0
  -19.6701  -27.3253   20.6783 H   0  0  0  0  0  0
  -17.4191  -26.6701   21.4020 H   0  0  0  0  0  0
  -18.0302  -26.0131   22.9033 H   0  0  0  0  0  0
  -19.7930  -30.7255   24.2336 H   0  0  0  0  0  0
  -17.5021  -31.6295   24.5166 H   0  0  0  0  0  0
  -15.5347  -30.3022   23.7680 H   0  0  0  0  0  0
  -15.8649  -28.0876   22.7032 H   0  0  0  0  0  0
  -24.5900  -30.7094   25.7844 H   0  0  0  0  0  0
  -24.8972  -32.2903   26.4942 H   0  0  0  0  0  0
  -25.8108  -30.8897   27.0238 H   0  0  0  0  0  0
  -26.2819  -29.6842   24.1121 H   0  0  0  0  0  0
  -27.4069  -29.7267   25.4520 H   0  0  0  0  0  0
  -27.8655  -30.4384   23.9205 H   0  0  0  0  0  0
  -27.2666  -33.3602   26.2108 H   0  0  0  0  0  0
  -28.3837  -32.6932   25.0288 H   0  0  0  0  0  0
  -28.0766  -31.8427   26.5365 H   0  0  0  0  0  0
  -28.2622  -38.0085   24.7517 H   0  0  0  0  0  0
  -28.1047  -36.2623   24.6274 H   0  0  0  0  0  0
  -27.2301  -37.1456   25.8870 H   0  0  0  0  0  0
  -20.9287  -29.8722   21.6973 H   0  0  0  0  0  0
  -26.0187  -38.2874   24.1421 H   0  0  0  0  0  0
  -28.9307  -24.5098   15.5195 H   0  0  0  0  0  0
  -30.5826  -25.8497   14.2658 H   0  0  0  0  0  0
  -29.8171  -27.2117   13.2906 H   0  0  0  0  0  0
  -30.7726  -28.8777   14.8954 H   0  0  0  0  0  0
  -31.5027  -27.5058   15.8872 H   0  0  0  0  0  0
  -29.2129  -15.3612   18.4936 H   0  0  0  0  0  0
  -28.1924  -16.3999   19.5466 H   0  0  0  0  0  0
  -29.6472  -17.6222   21.2864 H   0  0  0  0  0  0
  -31.3688  -17.1437   21.0790 H   0  0  0  0  0  0
  -28.4684  -27.9263   15.2816 H   0  0  0  0  0  0
  -31.1505  -16.7787   18.7499 H   0  0  0  0  0  0
  -29.7379  -16.9344   16.7455 H   0  0  0  0  0  0
  -31.0898  -18.0614   16.7439 H   0  0  0  0  0  0
  -29.4656  -18.5885   16.2890 H   0  0  0  0  0  0
  -28.3368  -22.4550   16.5734 H   0  0  0  0  0  0
  -27.3175  -22.5812   17.9850 H   0  0  0  0  0  0
  -30.0024  -19.8013   19.8012 H   0  0  0  0  0  0
  -31.3134  -19.7234   18.6339 H   0  0  0  0  0  0
  -28.4668  -20.2698   17.6778 H   0  0  0  0  0  0
  -29.9661  -20.7315   16.8889 H   0  0  0  0  0  0
  -28.9812  -21.9887   19.3592 H   0  0  0  0  0  0
  -30.1749  -22.5102   18.3849 H   0  0  0  0  0  0
  1 25  1  0  0  0
  1 30  2  0  0  0
  1 87  1  0  0  0
  2  3  1  0  0  0
  2 25  1  0  0  0
  2 90  1  0  0  0
  2 91  1  0  0  0
  3  4  1  0  0  0
  3 92  1  0  0  0
  3 93  1  0  0  0
  4  5  1  0  0  0
  4 94  1  0  0  0
  4 95  1  0  0  0
  5  6  1  0  0  0
  5 26  1  0  0  0
  5 96  1  0  0  0
  6 25  1  0  0  0
  6 97  1  0  0  0
  6 98  1  0  0  0
  7  8  2  0  0  0
  7 26  1  0  0  0
  7 29  1  0  0  0
  8  9  1  0  0  0
  8 22  1  0  0  0
  9 10  1  0  0  0
  9 27  2  0  0  0
 10 11  2  0  0  0
 10 15  1  0  0  0
 11 12  1  0  0  0
 11 99  1  0  0  0
 12 13  2  0  0  0
 12100  1  0  0  0
 13 14  1  0  0  0
 13 31  1  0  0  0
 14 15  2  0  0  0
 14101  1  0  0  0
 15102  1  0  0  0
 16 17  2  0  0  0
 16 21  1  0  0  0
 16 31  1  0  0  0
 17 18  1  0  0  0
 17103  1  0  0  0
 18 19  2  0  0  0
 18104  1  0  0  0
 19 20  1  0  0  0
 19 24  1  0  0  0
 20 21  2  0  0  0
 20105  1  0  0  0
 21 23  1  0  0  0
 22 28  1  0  0  0
 22 32  2  0  0  0
 26 27  1  0  0  0
 28106  1  0  0  0
 28107  1  0  0  0
 29108  1  0  0  0
 29109  1  0  0  0
 33 34  1  0  0  0
 33 66  1  0  0  0
 33 70  2  0  0  0
 34 36  1  0  0  0
 34 59  1  0  0  0
 34110  1  0  0  0
 35 44  2  0  0  0
 35 45  1  0  0  0
 35 68  1  0  0  0
 36 56  1  0  0  0
 36111  1  0  0  0
 37 39  1  0  0  0
 37 47  1  0  0  0
 37 66  1  0  0  0
 37112  1  0  0  0
 38 43  2  0  0  0
 38 46  1  0  0  0
 38 47  1  0  0  0
 39 64  1  0  0  0
 39 67  2  0  0  0
 40 52  1  0  0  0
 40 53  2  0  0  0
 40 58  1  0  0  0
 41113  1  0  0  0
 41114  1  0  0  0
 41115  1  0  0  0
 41 48  1  0  0  0
 42 43  1  0  0  0
 42 66  1  0  0  0
 42116  1  0  0  0
 42117  1  0  0  0
 43 44  1  0  0  0
 44118  1  0  0  0
 45 46  2  0  0  0
 45119  1  0  0  0
 46120  1  0  0  0
 47121  1  0  0  0
 47122  1  0  0  0
 48 56  1  0  0  0
 48 65  1  0  0  0
 48123  1  0  0  0
 49 50  1  0  0  0
 49 53  1  0  0  0
 49 64  1  0  0  0
 49124  1  0  0  0
 50 51  1  0  0  0
 50125  1  0  0  0
 50126  1  0  0  0
 51 52  1  0  0  0
 51127  1  0  0  0
 51128  1  0  0  0
 52129  1  0  0  0
 52130  1  0  0  0
 53 54  1  0  0  0
 54 55  2  0  0  0
 54131  1  0  0  0
 55 57  1  0  0  0
 55132  1  0  0  0
 56 69  2  0  0  0
 57 58  2  0  0  0
 57133  1  0  0  0
 58134  1  0  0  0
 59 60  1  0  0  0
 59 61  1  0  0  0
 59 62  1  0  0  0
 60135  1  0  0  0
 60136  1  0  0  0
 60137  1  0  0  0
 61138  1  0  0  0
 61139  1  0  0  0
 61140  1  0  0  0
 62141  1  0  0  0
 62142  1  0  0  0
 62143  1  0  0  0
 63 65  1  0  0  0
 63144  1  0  0  0
 63145  1  0  0  0
 63146  1  0  0  0
 64147  1  0  0  0
 65148  1  0  0  0
 68 74  1  0  0  0
 71 72  2  0  0  0
 71 73  1  0  0  0
 71149  1  0  0  0
 72 85  1  0  0  0
 72 79  1  0  0  0
 73 82  1  0  0  0
 73 86  2  0  0  0
 74 85  2  0  0  0
 74 86  1  0  0  0
 75 76  1  0  0  0
 75 79  1  0  0  0
 75150  1  0  0  0
 75151  1  0  0  0
 76 79  1  0  0  0
 76152  1  0  0  0
 76153  1  0  0  0
 77 80  1  0  0  0
 77 87  1  0  0  0
 77154  1  0  0  0
 77155  1  0  0  0
 78 80  1  0  0  0
 78 87  1  0  0  0
 78156  1  0  0  0
 78157  1  0  0  0
 79158  1  0  0  0
 80 88  1  0  0  0
 80159  1  0  0  0
 81 88  1  0  0  0
 81160  1  0  0  0
 81161  1  0  0  0
 81162  1  0  0  0
 82 89  1  0  0  0
 82163  1  0  0  0
 82164  1  0  0  0
 83 84  1  0  0  0
 83 88  1  0  0  0
 83165  1  0  0  0
 83166  1  0  0  0
 84 89  1  0  0  0
 84167  1  0  0  0
 84168  1  0  0  0
 89169  1  0  0  0
 89170  1  0  0  0
M  CHG  1  89   1
M  ISO  4   1 100  68 101  74 101  87 100
M  END
> <chiral flag>
0

> <version>
0

> <s_m_source_file>
/data/baiqing/PycharmProjects/Reinvent-master-3.2/result/LINK_invent/BTK/process_docking_weight1_custom_sum_contain_oxygen_bond_distance_aromatic_linkinvent_7_9_3/rearranged_h_0195.sdf

> <i_m_source_file_index>
79

> <r_mmod_Potential_Energy-OPLS-2005>
-576.17626953125

> <r_mmod_Stretch_Energy-OPLS-2005>
34.8377723693848

> <r_mmod_Bend_Energy-OPLS-2005>
125.880828857422

> <r_mmod_Torsional_Energy-OPLS-2005>
324.952301025391

> <r_mmod_Improper_Torsional_Energy-OPLS-2005>
14.8073120117188

> <r_mmod_Van_der_Waal_Energy-OPLS-2005>
182.60530090332

> <r_mmod_Electrostatic_Energy-OPLS-2005>
-789.910583496094

> <r_mmod_Solvation_Energy-OPLS-2005>
-490.926727294922

> <b_mmod_Minimization_Converged-OPLS-2005>
0

> <r_mmod_RMS_Derivative-OPLS-2005>
3.30602550506592

$$$$
81
                    3D
 Structure written by MMmdl.
166175  0  0  1  0            999 V2000
  -30.7462  -14.4330   20.5337 C   0  0  0  0  0  0
  -30.4035  -12.2764   19.4103 C   0  0  0  0  0  0
  -29.4821  -12.4812   18.1935 C   0  0  0  0  0  0
  -28.0032  -12.3669   18.6099 C   0  0  0  0  0  0
  -27.6593  -13.2054   19.8694 C   0  0  2  0  0  0
  -28.7082  -13.0156   20.9893 C   0  0  0  0  0  0
  -25.2625  -13.8139   20.5693 C   0  0  0  0  0  0
  -24.1878  -13.0413   20.9161 C   0  0  0  0  0  0
  -24.6423  -11.6892   20.8730 C   0  0  0  0  0  0
  -23.9073  -10.4293   21.0417 C   0  0  0  0  0  0
  -24.3610   -9.4205   21.9194 C   0  0  0  0  0  0
  -23.6295   -8.2234   22.0773 C   0  0  0  0  0  0
  -22.4278   -8.0273   21.3558 C   0  0  0  0  0  0
  -21.9917   -9.0241   20.4653 C   0  0  0  0  0  0
  -22.7244  -10.2130   20.3068 C   0  0  0  0  0  0
  -21.6866   -6.0728   22.5264 C   0  0  0  0  0  0
  -21.4007   -6.5636   23.8191 C   0  0  0  0  0  0
  -21.3671   -5.6784   24.9155 C   0  0  0  0  0  0
  -21.6049   -4.3046   24.7204 C   0  0  0  0  0  0
  -21.8833   -3.8149   23.4327 C   0  0  0  0  0  0
  -21.9215   -4.6964   22.3386 C   0  0  0  0  0  0
  -22.7914  -13.5220   21.1828 C   0  0  0  0  0  0
  -22.1690   -4.2167   21.0965 F   0  0  0  0  0  0
  -21.5640   -3.4521   25.7721 F   0  0  0  0  0  0
  -30.0348  -13.2826   20.4175 N   0  0  0  0  0  0
  -26.3044  -12.9304   20.3399 N   0  0  0  0  0  0
  -25.9339  -11.6452   20.5765 N   0  0  0  0  0  0
  -22.0570  -12.8193   22.0371 N   0  0  0  0  0  0
  -25.4342  -15.1843   20.4105 N   0  0  0  0  0  0
  -31.8974  -14.5425   20.1091 O   0  0  0  0  0  0
  -21.6643   -6.8866   21.4238 O   0  0  0  0  0  0
  -22.3613  -14.5554   20.6714 O   0  0  0  0  0  0
  -24.6166  -31.8675   23.2086 C   0  0  0  0  0  0
  -25.9066  -32.4807   23.8397 C   0  0  1  0  0  0
  -27.2363  -27.4414   20.1014 C   0  0  0  0  0  0
  -25.5918  -33.8604   24.2332 N   0  0  0  0  0  0
  -23.4048  -30.4940   21.5452 C   0  0  2  0  0  0
  -24.8533  -28.9636   20.1147 C   0  0  0  0  0  0
  -22.7412  -29.4688   22.4935 C   0  0  0  0  0  0
  -18.0283  -28.1378   22.8506 C   0  0  0  0  0  0
  -24.1488  -36.7313   23.2640 C   0  0  0  0  0  0
  -25.9343  -30.8425   21.3588 C   0  0  0  0  0  0
  -26.0136  -29.4780   20.7057 C   0  0  0  0  0  0
  -27.2109  -28.7255   20.6924 C   0  0  0  0  0  0
  -26.0550  -26.9485   19.4974 C   0  0  0  0  0  0
  -24.8676  -27.6987   19.5073 C   0  0  0  0  0  0
  -23.6134  -29.8243   20.1611 C   0  0  0  0  0  0
  -25.4108  -36.3099   24.0334 C   0  0  1  0  0  0
  -20.5876  -28.3687   23.1295 C   0  0  2  0  0  0
  -20.6766  -26.9413   22.5405 C   0  0  0  0  0  0
  -19.5743  -26.6394   21.5204 C   0  0  0  0  0  0
  -18.1925  -26.7931   22.1629 C   0  0  0  0  0  0
  -19.1531  -28.8838   23.2914 C   0  0  0  0  0  0
  -18.9449  -30.1438   23.8935 C   0  0  0  0  0  0
  -17.6451  -30.6583   24.0569 C   0  0  0  0  0  0
  -25.9029  -34.9464   23.5128 C   0  0  0  0  0  0
  -16.5350  -29.9091   23.6307 C   0  0  0  0  0  0
  -16.7279  -28.6506   23.0344 C   0  0  0  0  0  0
  -26.4491  -31.6584   25.0725 C   0  0  0  0  0  0
  -25.3746  -31.3703   26.1460 C   0  0  0  0  0  0
  -27.0340  -30.3020   24.6133 C   0  0  0  0  0  0
  -27.6057  -32.4289   25.7518 C   0  0  0  0  0  0
  -27.5581  -37.1808   24.8464 C   0  0  0  0  0  0
  -21.4131  -29.3077   22.3702 N   0  0  0  0  0  0
  -26.4298  -37.3773   23.9403 N   0  0  0  0  0  0
  -24.6701  -31.0809   22.0966 N   0  0  0  0  0  0
  -23.4179  -28.8197   23.2956 O   0  0  0  0  0  0
  -28.3939  -26.6894   20.1400 O   0  0  0  0  0  0
  -26.5580  -34.8913   22.4679 O   0  0  0  0  0  0
  -23.5353  -32.1401   23.7484 O   0  0  0  0  0  0
  -29.6909  -19.7536   20.0713 C   0  0  0  0  0  0
  -31.0810  -21.4466   19.0301 C   0  0  0  0  0  0
  -29.8750  -21.1021   19.6694 C   0  0  0  0  0  0
  -30.7182  -18.8230   19.8055 C   0  0  0  0  0  0
  -32.0555  -20.4535   18.8196 C   0  0  0  0  0  0
  -30.8419  -16.7146   21.5051 C   0  0  0  0  0  0
  -29.3626  -16.4598   20.1270 C   0  0  0  0  0  0
  -30.6161  -17.3308   20.1251 C   0  0  0  0  0  0
  -27.4038  -21.6857   20.1065 C   0  0  0  0  0  0
  -33.4551  -21.8796   17.5076 C   0  0  0  0  0  0
  -29.4908  -24.5229   20.6799 C   0  0  0  0  0  0
  -28.1905  -25.2816   20.3480 C   0  0  0  0  0  0
  -28.8364  -22.2038   19.8844 C   0  0  1  0  0  0
  -31.8792  -19.1845   19.2194 N   0  0  0  0  0  0
  -30.0973  -15.5234   21.0195 N   0  0  0  0  0  0
  -29.2748  -23.0787   20.9961 N   0  3  0  0  0  0
  -33.2592  -20.6475   18.1877 O   0  0  0  0  0  0
  -31.4489  -12.3413   19.1018 H   0  0  0  0  0  0
  -30.2781  -11.2724   19.8191 H   0  0  0  0  0  0
  -29.7040  -11.7426   17.4217 H   0  0  0  0  0  0
  -29.6684  -13.4575   17.7459 H   0  0  0  0  0  0
  -27.7978  -11.3131   18.7926 H   0  0  0  0  0  0
  -27.3579  -12.6640   17.7829 H   0  0  0  0  0  0
  -27.6913  -14.2466   19.5610 H   0  0  0  0  0  0
  -28.6809  -11.9979   21.3792 H   0  0  0  0  0  0
  -28.4928  -13.6689   21.8354 H   0  0  0  0  0  0
  -25.2771   -9.5669   22.4742 H   0  0  0  0  0  0
  -24.0036   -7.4621   22.7477 H   0  0  0  0  0  0
  -21.0867   -8.8726   19.8924 H   0  0  0  0  0  0
  -22.3716  -10.9648   19.6155 H   0  0  0  0  0  0
  -21.1973   -7.6137   23.9679 H   0  0  0  0  0  0
  -21.1495   -6.0523   25.9051 H   0  0  0  0  0  0
  -22.0615   -2.7620   23.2799 H   0  0  0  0  0  0
  -22.4223  -11.9832   22.4686 H   0  0  0  0  0  0
  -21.1178  -13.1183   22.2588 H   0  0  0  0  0  0
  -24.6617  -15.8340   20.5038 H   0  0  0  0  0  0
  -26.2958  -15.6329   20.1273 H   0  0  0  0  0  0
  -26.7160  -32.5542   23.1186 H   0  0  0  0  0  0
  -25.0097  -33.9757   25.0496 H   0  0  0  0  0  0
  -22.6964  -31.3126   21.4007 H   0  0  0  0  0  0
  -23.3729  -35.9667   23.3294 H   0  0  0  0  0  0
  -24.3588  -36.8932   22.2055 H   0  0  0  0  0  0
  -23.7255  -37.6526   23.6649 H   0  0  0  0  0  0
  -26.0438  -31.6115   20.5917 H   0  0  0  0  0  0
  -26.8229  -30.8947   21.9764 H   0  0  0  0  0  0
  -28.1082  -29.1188   21.1511 H   0  0  0  0  0  0
  -26.0230  -25.9868   19.0107 H   0  0  0  0  0  0
  -23.9752  -27.2962   19.0492 H   0  0  0  0  0  0
  -23.7190  -30.5935   19.3949 H   0  0  0  0  0  0
  -22.7413  -29.2351   19.8697 H   0  0  0  0  0  0
  -25.1277  -36.1962   25.0826 H   0  0  0  0  0  0
  -21.0011  -28.3259   24.1397 H   0  0  0  0  0  0
  -20.5651  -26.2299   23.3600 H   0  0  0  0  0  0
  -21.6636  -26.7429   22.1213 H   0  0  0  0  0  0
  -19.6897  -25.6304   21.1234 H   0  0  0  0  0  0
  -19.6676  -27.3206   20.6730 H   0  0  0  0  0  0
  -17.4187  -26.6688   21.4029 H   0  0  0  0  0  0
  -18.0334  -26.0064   22.9022 H   0  0  0  0  0  0
  -19.7909  -30.7248   24.2336 H   0  0  0  0  0  0
  -17.4991  -31.6257   24.5183 H   0  0  0  0  0  0
  -15.5347  -30.3006   23.7579 H   0  0  0  0  0  0
  -15.8690  -28.0836   22.7022 H   0  0  0  0  0  0
  -24.5912  -30.7066   25.7783 H   0  0  0  0  0  0
  -24.8956  -32.2878   26.4890 H   0  0  0  0  0  0
  -25.8085  -30.8871   27.0221 H   0  0  0  0  0  0
  -26.2916  -29.6754   24.1180 H   0  0  0  0  0  0
  -27.4088  -29.7280   25.4620 H   0  0  0  0  0  0
  -27.8746  -30.4314   23.9307 H   0  0  0  0  0  0
  -27.2666  -33.3559   26.2148 H   0  0  0  0  0  0
  -28.3871  -32.6893   25.0365 H   0  0  0  0  0  0
  -28.0725  -31.8373   26.5401 H   0  0  0  0  0  0
  -28.2589  -38.0113   24.7505 H   0  0  0  0  0  0
  -28.1086  -36.2640   24.6288 H   0  0  0  0  0  0
  -27.2297  -37.1456   25.8868 H   0  0  0  0  0  0
  -20.9254  -29.8866   21.7008 H   0  0  0  0  0  0
  -26.0181  -38.2855   24.1382 H   0  0  0  0  0  0
  -28.7817  -19.4202   20.5510 H   0  0  0  0  0  0
  -31.2390  -22.4659   18.7048 H   0  0  0  0  0  0
  -30.3353  -17.2515   22.3102 H   0  0  0  0  0  0
  -31.8974  -16.5765   21.7469 H   0  0  0  0  0  0
  -29.1062  -16.0803   19.1375 H   0  0  0  0  0  0
  -28.4974  -16.9303   20.6015 H   0  0  0  0  0  0
  -31.3123  -16.8787   19.4116 H   0  0  0  0  0  0
  -27.1065  -21.0318   19.2862 H   0  0  0  0  0  0
  -26.6856  -22.5050   20.1405 H   0  0  0  0  0  0
  -27.3053  -21.1227   21.0363 H   0  0  0  0  0  0
  -32.6581  -22.0649   16.7858 H   0  0  0  0  0  0
  -34.3914  -21.8406   16.9528 H   0  0  0  0  0  0
  -33.5215  -22.7164   18.2038 H   0  0  0  0  0  0
  -29.9594  -24.9839   21.5500 H   0  0  0  0  0  0
  -30.2018  -24.6230   19.8613 H   0  0  0  0  0  0
  -27.4862  -25.1381   21.1704 H   0  0  0  0  0  0
  -27.7532  -24.8394   19.4533 H   0  0  0  0  0  0
  -28.8269  -22.7799   18.9569 H   0  0  0  0  0  0
  -28.6392  -22.9702   21.7685 H   0  0  0  0  0  0
  -30.1567  -22.6957   21.3002 H   0  0  0  0  0  0
  1 25  1  0  0  0
  1 30  2  0  0  0
  1 85  1  0  0  0
  2  3  1  0  0  0
  2 25  1  0  0  0
  2 88  1  0  0  0
  2 89  1  0  0  0
  3  4  1  0  0  0
  3 90  1  0  0  0
  3 91  1  0  0  0
  4  5  1  0  0  0
  4 92  1  0  0  0
  4 93  1  0  0  0
  5  6  1  0  0  0
  5 26  1  0  0  0
  5 94  1  0  0  0
  6 25  1  0  0  0
  6 95  1  0  0  0
  6 96  1  0  0  0
  7  8  2  0  0  0
  7 26  1  0  0  0
  7 29  1  0  0  0
  8  9  1  0  0  0
  8 22  1  0  0  0
  9 10  1  0  0  0
  9 27  2  0  0  0
 10 11  2  0  0  0
 10 15  1  0  0  0
 11 12  1  0  0  0
 11 97  1  0  0  0
 12 13  2  0  0  0
 12 98  1  0  0  0
 13 14  1  0  0  0
 13 31  1  0  0  0
 14 15  2  0  0  0
 14 99  1  0  0  0
 15100  1  0  0  0
 16 17  2  0  0  0
 16 21  1  0  0  0
 16 31  1  0  0  0
 17 18  1  0  0  0
 17101  1  0  0  0
 18 19  2  0  0  0
 18102  1  0  0  0
 19 20  1  0  0  0
 19 24  1  0  0  0
 20 21  2  0  0  0
 20103  1  0  0  0
 21 23  1  0  0  0
 22 28  1  0  0  0
 22 32  2  0  0  0
 26 27  1  0  0  0
 28104  1  0  0  0
 28105  1  0  0  0
 29106  1  0  0  0
 29107  1  0  0  0
 33 34  1  0  0  0
 33 66  1  0  0  0
 33 70  2  0  0  0
 34 36  1  0  0  0
 34 59  1  0  0  0
 34108  1  0  0  0
 35 44  2  0  0  0
 35 45  1  0  0  0
 35 68  1  0  0  0
 36 56  1  0  0  0
 36109  1  0  0  0
 37 39  1  0  0  0
 37 47  1  0  0  0
 37 66  1  0  0  0
 37110  1  0  0  0
 38 43  2  0  0  0
 38 46  1  0  0  0
 38 47  1  0  0  0
 39 64  1  0  0  0
 39 67  2  0  0  0
 40 52  1  0  0  0
 40 53  2  0  0  0
 40 58  1  0  0  0
 41111  1  0  0  0
 41112  1  0  0  0
 41113  1  0  0  0
 41 48  1  0  0  0
 42 43  1  0  0  0
 42 66  1  0  0  0
 42114  1  0  0  0
 42115  1  0  0  0
 43 44  1  0  0  0
 44116  1  0  0  0
 45 46  2  0  0  0
 45117  1  0  0  0
 46118  1  0  0  0
 47119  1  0  0  0
 47120  1  0  0  0
 48 56  1  0  0  0
 48 65  1  0  0  0
 48121  1  0  0  0
 49 50  1  0  0  0
 49 53  1  0  0  0
 49 64  1  0  0  0
 49122  1  0  0  0
 50 51  1  0  0  0
 50123  1  0  0  0
 50124  1  0  0  0
 51 52  1  0  0  0
 51125  1  0  0  0
 51126  1  0  0  0
 52127  1  0  0  0
 52128  1  0  0  0
 53 54  1  0  0  0
 54 55  2  0  0  0
 54129  1  0  0  0
 55 57  1  0  0  0
 55130  1  0  0  0
 56 69  2  0  0  0
 57 58  2  0  0  0
 57131  1  0  0  0
 58132  1  0  0  0
 59 60  1  0  0  0
 59 61  1  0  0  0
 59 62  1  0  0  0
 60133  1  0  0  0
 60134  1  0  0  0
 60135  1  0  0  0
 61136  1  0  0  0
 61137  1  0  0  0
 61138  1  0  0  0
 62139  1  0  0  0
 62140  1  0  0  0
 62141  1  0  0  0
 63 65  1  0  0  0
 63142  1  0  0  0
 63143  1  0  0  0
 63144  1  0  0  0
 64145  1  0  0  0
 65146  1  0  0  0
 68 82  1  0  0  0
 71 73  2  0  0  0
 71 74  1  0  0  0
 71147  1  0  0  0
 72 73  1  0  0  0
 72 75  2  0  0  0
 72148  1  0  0  0
 73 83  1  0  0  0
 74 84  2  0  0  0
 74 78  1  0  0  0
 75 84  1  0  0  0
 75 87  1  0  0  0
 76 78  1  0  0  0
 76 85  1  0  0  0
 76149  1  0  0  0
 76150  1  0  0  0
 77 78  1  0  0  0
 77 85  1  0  0  0
 77151  1  0  0  0
 77152  1  0  0  0
 78153  1  0  0  0
 79154  1  0  0  0
 79155  1  0  0  0
 79156  1  0  0  0
 79 83  1  0  0  0
 80 87  1  0  0  0
 80157  1  0  0  0
 80158  1  0  0  0
 80159  1  0  0  0
 81 82  1  0  0  0
 81 86  1  0  0  0
 81160  1  0  0  0
 81161  1  0  0  0
 82162  1  0  0  0
 82163  1  0  0  0
 83 86  1  0  0  0
 83164  1  0  0  0
 86165  1  0  0  0
 86166  1  0  0  0
M  CHG  1  86   1
M  ISO  4   1 100  68 101  82 101  85 100
M  END
> <chiral flag>
0

> <version>
0

> <s_m_source_file>
/data/baiqing/PycharmProjects/Reinvent-master-3.2/result/LINK_invent/BTK/process_docking_weight1_custom_sum_contain_oxygen_bond_distance_aromatic_linkinvent_7_9_3/rearranged_h_0195.sdf

> <i_m_source_file_index>
80

> <r_mmod_Potential_Energy-OPLS-2005>
-342.547424316406

> <r_mmod_Stretch_Energy-OPLS-2005>
39.2962226867676

> <r_mmod_Bend_Energy-OPLS-2005>
123.362045288086

> <r_mmod_Torsional_Energy-OPLS-2005>
260.345184326172

> <r_mmod_Improper_Torsional_Energy-OPLS-2005>
10.5007495880127

> <r_mmod_Van_der_Waal_Energy-OPLS-2005>
173.318557739258

> <r_mmod_Electrostatic_Energy-OPLS-2005>
-472.777557373047

> <r_mmod_Solvation_Energy-OPLS-2005>
-492.175415039062

> <b_mmod_Minimization_Converged-OPLS-2005>
0

> <r_mmod_RMS_Derivative-OPLS-2005>
3.25460362434387

$$$$
82
                    3D
 Structure written by MMmdl.
177187  0  0  1  0            999 V2000
  -30.6256  -15.0643   20.2735 C   0  0  0  0  0  0
  -30.4250  -12.6675   19.4426 C   0  0  0  0  0  0
  -29.4975  -12.4402   18.2301 C   0  0  0  0  0  0
  -28.0380  -12.2644   18.6768 C   0  0  0  0  0  0
  -27.6091  -13.2604   19.7852 C   0  0  2  0  0  0
  -28.6795  -13.4567   20.8785 C   0  0  0  0  0  0
  -25.2461  -13.8257   20.5723 C   0  0  0  0  0  0
  -24.1783  -13.0475   20.9250 C   0  0  0  0  0  0
  -24.6397  -11.6947   20.8747 C   0  0  0  0  0  0
  -23.9094  -10.4312   21.0400 C   0  0  0  0  0  0
  -24.3665   -9.4229   21.9177 C   0  0  0  0  0  0
  -23.6331   -8.2262   22.0752 C   0  0  0  0  0  0
  -22.4303   -8.0295   21.3553 C   0  0  0  0  0  0
  -21.9941   -9.0258   20.4634 C   0  0  0  0  0  0
  -22.7267  -10.2138   20.3034 C   0  0  0  0  0  0
  -21.6890   -6.0711   22.5253 C   0  0  0  0  0  0
  -21.4017   -6.5606   23.8181 C   0  0  0  0  0  0
  -21.3675   -5.6770   24.9147 C   0  0  0  0  0  0
  -21.6074   -4.3032   24.7203 C   0  0  0  0  0  0
  -21.8826   -3.8113   23.4317 C   0  0  0  0  0  0
  -21.9212   -4.6936   22.3373 C   0  0  0  0  0  0
  -22.7796  -13.5210   21.1894 C   0  0  0  0  0  0
  -22.1705   -4.2117   21.0957 F   0  0  0  0  0  0
  -21.5658   -3.4519   25.7722 F   0  0  0  0  0  0
  -29.9097  -13.8613   20.1739 N   0  0  0  0  0  0
  -26.2874  -12.9506   20.3178 N   0  0  0  0  0  0
  -25.9331  -11.6624   20.5700 N   0  0  0  0  0  0
  -22.0468  -12.8184   22.0447 N   0  0  0  0  0  0
  -25.4179  -15.1987   20.4134 N   0  0  0  0  0  0
  -31.8373  -14.8997   20.4044 O   0  0  0  0  0  0
  -21.6696   -6.8866   21.4217 O   0  0  0  0  0  0
  -22.3456  -14.5503   20.6712 O   0  0  0  0  0  0
  -24.6497  -31.8376   23.1826 C   0  0  0  0  0  0
  -25.9239  -32.4663   23.8247 C   0  0  1  0  0  0
  -27.2181  -27.0855   20.1449 C   0  0  0  0  0  0
  -25.5952  -33.8474   24.2157 N   0  0  0  0  0  0
  -23.4558  -30.4560   21.5282 C   0  0  2  0  0  0
  -24.9014  -28.8601   20.1238 C   0  0  0  0  0  0
  -22.7583  -29.4539   22.4834 C   0  0  0  0  0  0
  -18.0319  -28.1400   22.8483 C   0  0  0  0  0  0
  -24.1476  -36.7262   23.2642 C   0  0  0  0  0  0
  -26.0168  -30.6943   21.3839 C   0  0  0  0  0  0
  -26.0867  -29.2987   20.7278 C   0  0  0  0  0  0
  -27.2506  -28.4310   20.7099 C   0  0  0  0  0  0
  -26.0000  -26.7461   19.5266 C   0  0  0  0  0  0
  -24.8697  -27.5960   19.5130 C   0  0  0  0  0  0
  -23.6823  -29.7714   20.1552 C   0  0  0  0  0  0
  -25.4113  -36.3026   24.0304 C   0  0  1  0  0  0
  -20.5921  -28.3748   23.1213 C   0  0  2  0  0  0
  -20.6797  -26.9443   22.5396 C   0  0  0  0  0  0
  -19.5768  -26.6376   21.5214 C   0  0  0  0  0  0
  -18.1954  -26.7939   22.1618 C   0  0  0  0  0  0
  -19.1567  -28.8892   23.2842 C   0  0  0  0  0  0
  -18.9477  -30.1481   23.8884 C   0  0  0  0  0  0
  -17.6470  -30.6598   24.0561 C   0  0  0  0  0  0
  -25.9063  -34.9393   23.5046 C   0  0  0  0  0  0
  -16.5368  -29.9085   23.6338 C   0  0  0  0  0  0
  -16.7296  -28.6495   23.0382 C   0  0  0  0  0  0
  -26.4522  -31.6583   25.0743 C   0  0  0  0  0  0
  -25.3679  -31.3809   26.1426 C   0  0  0  0  0  0
  -27.0402  -30.2963   24.6412 C   0  0  0  0  0  0
  -27.6024  -32.4388   25.7548 C   0  0  0  0  0  0
  -27.5569  -37.1784   24.8457 C   0  0  0  0  0  0
  -21.4270  -29.3083   22.3587 N   0  0  0  0  0  0
  -26.4279  -37.3739   23.9397 N   0  0  0  0  0  0
  -24.7291  -31.0176   22.0872 N   0  0  0  0  0  0
  -23.4202  -28.8091   23.3012 O   0  0  0  0  0  0
  -28.2806  -26.0985   20.0908 O   0  0  0  0  0  0
  -26.5664  -34.8904   22.4633 O   0  0  0  0  0  0
  -23.5608  -32.1270   23.7011 O   0  0  0  0  0  0
  -27.7597  -22.4868   17.4607 C   0  0  0  0  0  0
  -28.4658  -20.5956   20.0805 C   0  0  0  0  0  0
  -28.3753  -23.1544   19.7782 C   0  0  0  0  0  0
  -26.5524  -20.5174   18.6339 C   0  0  0  0  0  0
  -28.7219  -20.0209   17.1553 C   0  0  0  0  0  0
  -32.4719  -18.3158   19.7408 C   0  0  0  0  0  0
  -27.5016  -20.9664   17.4823 C   0  0  2  0  0  0
  -29.2259  -19.2187   19.5222 C   0  0  2  0  0  0
  -31.4030  -18.1864   20.8630 C   0  0  2  0  0  0
  -29.9915  -17.8349   20.3122 C   0  0  2  0  0  0
  -31.0286  -16.6370   18.4705 C   0  0  1  0  0  0
  -31.4320  -19.3838   21.8270 C   0  0  0  0  0  0
  -31.0129  -15.5548   17.3627 C   0  0  0  0  0  0
  -33.6006  -16.4737   18.4998 C   0  0  0  0  0  0
  -28.1610  -24.6137   20.6192 C   0  0  0  0  0  0
  -28.0000  -23.3453   18.3877 N   0  0  0  0  0  0
  -28.8959  -21.9766   20.2600 N   0  0  0  0  0  0
  -30.1988  -16.3373   19.6873 N   0  0  0  0  0  0
  -27.1894  -20.4676   19.9680 N   0  3  0  0  0  0
  -29.7506  -19.7364   18.2192 N   0  3  0  0  0  0
  -32.3756  -17.3108   18.6357 N   0  3  2  0  0  0
  -31.4508  -12.7987   19.0930 H   0  0  0  0  0  0
  -30.4427  -11.7874   20.0873 H   0  0  0  0  0  0
  -29.8151  -11.5641   17.6640 H   0  0  0  0  0  0
  -29.5587  -13.2684   17.5325 H   0  0  0  0  0  0
  -27.9402  -11.2416   19.0420 H   0  0  0  0  0  0
  -27.3692  -12.3452   17.8175 H   0  0  0  0  0  0
  -27.5188  -14.2174   19.2731 H   0  0  0  0  0  0
  -28.8192  -12.5565   21.4781 H   0  0  0  0  0  0
  -28.3654  -14.2490   21.5577 H   0  0  0  0  0  0
  -25.2820   -9.5713   22.4734 H   0  0  0  0  0  0
  -24.0070   -7.4630   22.7428 H   0  0  0  0  0  0
  -21.0910   -8.8733   19.8901 H   0  0  0  0  0  0
  -22.3728  -10.9670   19.6124 H   0  0  0  0  0  0
  -21.1991   -7.6107   23.9660 H   0  0  0  0  0  0
  -21.1532   -6.0504   25.9058 H   0  0  0  0  0  0
  -22.0598   -2.7566   23.2822 H   0  0  0  0  0  0
  -22.4144  -11.9918   22.4926 H   0  0  0  0  0  0
  -21.1024  -13.1094   22.2523 H   0  0  0  0  0  0
  -24.6501  -15.8526   20.5102 H   0  0  0  0  0  0
  -26.2765  -15.6328   20.1027 H   0  0  0  0  0  0
  -26.7323  -32.5227   23.0986 H   0  0  0  0  0  0
  -25.0056  -33.9571   25.0281 H   0  0  0  0  0  0
  -22.7647  -31.2857   21.3628 H   0  0  0  0  0  0
  -23.3739  -35.9589   23.3272 H   0  0  0  0  0  0
  -24.3560  -36.8942   22.2066 H   0  0  0  0  0  0
  -23.7227  -37.6442   23.6713 H   0  0  0  0  0  0
  -26.1770  -31.4419   20.6070 H   0  0  0  0  0  0
  -26.8851  -30.7479   22.0300 H   0  0  0  0  0  0
  -28.1638  -28.7719   21.1753 H   0  0  0  0  0  0
  -25.9088  -25.7769   19.0574 H   0  0  0  0  0  0
  -23.9610  -27.2500   19.0409 H   0  0  0  0  0  0
  -23.8267  -30.5349   19.3902 H   0  0  0  0  0  0
  -22.7954  -29.2144   19.8478 H   0  0  0  0  0  0
  -25.1299  -36.1842   25.0794 H   0  0  0  0  0  0
  -21.0040  -28.3354   24.1319 H   0  0  0  0  0  0
  -20.5691  -26.2378   23.3629 H   0  0  0  0  0  0
  -21.6661  -26.7442   22.1189 H   0  0  0  0  0  0
  -19.6928  -25.6273   21.1288 H   0  0  0  0  0  0
  -19.6700  -27.3152   20.6716 H   0  0  0  0  0  0
  -17.4221  -26.6708   21.4018 H   0  0  0  0  0  0
  -18.0344  -26.0074   22.9008 H   0  0  0  0  0  0
  -19.7945  -30.7310   24.2255 H   0  0  0  0  0  0
  -17.5016  -31.6277   24.5163 H   0  0  0  0  0  0
  -15.5366  -30.2986   23.7662 H   0  0  0  0  0  0
  -15.8697  -28.0795   22.7136 H   0  0  0  0  0  0
  -24.5835  -30.7189   25.7740 H   0  0  0  0  0  0
  -24.8897  -32.3011   26.4800 H   0  0  0  0  0  0
  -25.7928  -30.9003   27.0250 H   0  0  0  0  0  0
  -26.3051  -29.6674   24.1386 H   0  0  0  0  0  0
  -27.3918  -29.7301   25.5049 H   0  0  0  0  0  0
  -27.8995  -30.4164   23.9814 H   0  0  0  0  0  0
  -27.2580  -33.3705   26.2054 H   0  0  0  0  0  0
  -28.3882  -32.6941   25.0427 H   0  0  0  0  0  0
  -28.0651  -31.8581   26.5541 H   0  0  0  0  0  0
  -28.2567  -38.0102   24.7511 H   0  0  0  0  0  0
  -28.1090  -36.2627   24.6266 H   0  0  0  0  0  0
  -27.2296  -37.1419   25.8866 H   0  0  0  0  0  0
  -20.9502  -29.8795   21.6745 H   0  0  0  0  0  0
  -26.0139  -38.2799   24.1410 H   0  0  0  0  0  0
  -27.6474  -22.8685   16.4418 H   0  0  0  0  0  0
  -26.1497  -19.5222   18.4360 H   0  0  0  0  0  0
  -25.6984  -21.1910   18.7162 H   0  0  0  0  0  0
  -29.2460  -20.4283   16.2870 H   0  0  0  0  0  0
  -28.3336  -19.0601   16.8088 H   0  0  0  0  0  0
  -33.4656  -18.2795   20.1926 H   0  0  0  0  0  0
  -32.4169  -19.3063   19.2903 H   0  0  0  0  0  0
  -26.8672  -20.8280   16.6065 H   0  0  0  0  0  0
  -28.3943  -18.6102   19.1645 H   0  0  0  0  0  0
  -31.7125  -17.3461   21.4853 H   0  0  0  0  0  0
  -29.3543  -17.6459   21.1776 H   0  0  0  0  0  0
  -30.4466  -17.3890   17.9581 H   0  0  0  0  0  0
  -31.1723  -20.3251   21.3434 H   0  0  0  0  0  0
  -32.4317  -19.5087   22.2476 H   0  0  0  0  0  0
  -30.7528  -19.2360   22.6684 H   0  0  0  0  0  0
  -31.4851  -15.9189   16.4495 H   0  0  0  0  0  0
  -29.9856  -15.3118   17.0936 H   0  0  0  0  0  0
  -31.5362  -14.6421   17.6423 H   0  0  0  0  0  0
  -34.4705  -17.1170   18.3596 H   0  0  0  0  0  0
  -33.5768  -15.8249   17.6245 H   0  0  0  0  0  0
  -33.8035  -15.8635   19.3756 H   0  0  0  0  0  0
  -28.8436  -24.5635   21.4677 H   0  0  0  0  0  0
  -27.1728  -24.5424   21.0715 H   0  0  0  0  0  0
  -26.7659  -19.7625   20.5660 H   0  0  0  0  0  0
  -30.2674  -20.5871   18.3938 H   0  0  0  0  0  0
  -30.3809  -19.0894   17.7871 H   0  0  0  0  0  0
  -32.4903  -17.8663   17.7980 H   0  0  0  0  0  0
  1 25  1  0  0  0
  1 30  2  0  0  0
  1 88  1  0  0  0
  2  3  1  0  0  0
  2 25  1  0  0  0
  2 92  1  0  0  0
  2 93  1  0  0  0
  3  4  1  0  0  0
  3 94  1  0  0  0
  3 95  1  0  0  0
  4  5  1  0  0  0
  4 96  1  0  0  0
  4 97  1  0  0  0
  5  6  1  0  0  0
  5 26  1  0  0  0
  5 98  1  0  0  0
  6 25  1  0  0  0
  6 99  1  0  0  0
  6100  1  0  0  0
  7  8  2  0  0  0
  7 26  1  0  0  0
  7 29  1  0  0  0
  8  9  1  0  0  0
  8 22  1  0  0  0
  9 10  1  0  0  0
  9 27  2  0  0  0
 10 11  2  0  0  0
 10 15  1  0  0  0
 11 12  1  0  0  0
 11101  1  0  0  0
 12 13  2  0  0  0
 12102  1  0  0  0
 13 14  1  0  0  0
 13 31  1  0  0  0
 14 15  2  0  0  0
 14103  1  0  0  0
 15104  1  0  0  0
 16 17  2  0  0  0
 16 21  1  0  0  0
 16 31  1  0  0  0
 17 18  1  0  0  0
 17105  1  0  0  0
 18 19  2  0  0  0
 18106  1  0  0  0
 19 20  1  0  0  0
 19 24  1  0  0  0
 20 21  2  0  0  0
 20107  1  0  0  0
 21 23  1  0  0  0
 22 28  1  0  0  0
 22 32  2  0  0  0
 26 27  1  0  0  0
 28108  1  0  0  0
 28109  1  0  0  0
 29110  1  0  0  0
 29111  1  0  0  0
 33 34  1  0  0  0
 33 66  1  0  0  0
 33 70  2  0  0  0
 34 36  1  0  0  0
 34 59  1  0  0  0
 34112  1  0  0  0
 35 44  2  0  0  0
 35 45  1  0  0  0
 35 68  1  0  0  0
 36 56  1  0  0  0
 36113  1  0  0  0
 37 39  1  0  0  0
 37 47  1  0  0  0
 37 66  1  0  0  0
 37114  1  0  0  0
 38 43  2  0  0  0
 38 46  1  0  0  0
 38 47  1  0  0  0
 39 64  1  0  0  0
 39 67  2  0  0  0
 40 52  1  0  0  0
 40 53  2  0  0  0
 40 58  1  0  0  0
 41115  1  0  0  0
 41116  1  0  0  0
 41117  1  0  0  0
 41 48  1  0  0  0
 42 43  1  0  0  0
 42 66  1  0  0  0
 42118  1  0  0  0
 42119  1  0  0  0
 43 44  1  0  0  0
 44120  1  0  0  0
 45 46  2  0  0  0
 45121  1  0  0  0
 46122  1  0  0  0
 47123  1  0  0  0
 47124  1  0  0  0
 48 56  1  0  0  0
 48 65  1  0  0  0
 48125  1  0  0  0
 49 50  1  0  0  0
 49 53  1  0  0  0
 49 64  1  0  0  0
 49126  1  0  0  0
 50 51  1  0  0  0
 50127  1  0  0  0
 50128  1  0  0  0
 51 52  1  0  0  0
 51129  1  0  0  0
 51130  1  0  0  0
 52131  1  0  0  0
 52132  1  0  0  0
 53 54  1  0  0  0
 54 55  2  0  0  0
 54133  1  0  0  0
 55 57  1  0  0  0
 55134  1  0  0  0
 56 69  2  0  0  0
 57 58  2  0  0  0
 57135  1  0  0  0
 58136  1  0  0  0
 59 60  1  0  0  0
 59 61  1  0  0  0
 59 62  1  0  0  0
 60137  1  0  0  0
 60138  1  0  0  0
 60139  1  0  0  0
 61140  1  0  0  0
 61141  1  0  0  0
 61142  1  0  0  0
 62143  1  0  0  0
 62144  1  0  0  0
 62145  1  0  0  0
 63 65  1  0  0  0
 63146  1  0  0  0
 63147  1  0  0  0
 63148  1  0  0  0
 64149  1  0  0  0
 65150  1  0  0  0
 68 85  1  0  0  0
 71 77  1  0  0  0
 71 86  2  0  0  0
 71151  1  0  0  0
 72 78  1  0  0  0
 72 87  1  0  0  0
 72 89  2  0  0  0
 73 85  1  0  0  0
 73 86  1  0  0  0
 73 87  2  0  0  0
 74 77  1  0  0  0
 74 89  1  0  0  0
 74152  1  0  0  0
 74153  1  0  0  0
 75 90  1  0  0  0
 75154  1  0  0  0
 75155  1  0  0  0
 75 77  1  0  0  0
 76 79  1  0  0  0
 76 91  1  0  0  0
 76156  1  0  0  0
 76157  1  0  0  0
 77158  1  0  0  0
 78 80  1  0  0  0
 78 90  1  0  0  0
 78159  1  0  0  0
 79 80  1  0  0  0
 79 82  1  0  0  0
 79160  1  0  0  0
 80 88  1  0  0  0
 80161  1  0  0  0
 81 83  1  0  0  0
 81 88  1  0  0  0
 81 91  1  0  0  0
 81162  1  0  0  0
 82163  1  0  0  0
 82164  1  0  0  0
 82165  1  0  0  0
 83166  1  0  0  0
 83167  1  0  0  0
 83168  1  0  0  0
 84169  1  0  0  0
 84170  1  0  0  0
 84171  1  0  0  0
 84 91  1  0  0  0
 85172  1  0  0  0
 85173  1  0  0  0
 89174  1  0  0  0
 90175  1  0  0  0
 90176  1  0  0  0
 91177  1  0  0  0
M  CHG  3  89   1  90   1  91   1
M  ISO  4   1 100  68 101  85 101  88 100
M  END
> <chiral flag>
0

> <version>
0

> <s_m_source_file>
/data/baiqing/PycharmProjects/Reinvent-master-3.2/result/LINK_invent/BTK/process_docking_weight1_custom_sum_contain_oxygen_bond_distance_aromatic_linkinvent_7_9_3/rearranged_h_0195.sdf

> <i_m_source_file_index>
81

> <r_mmod_Potential_Energy-OPLS-2005>
920.230407714844

> <r_mmod_Stretch_Energy-OPLS-2005>
413.935455322266

> <r_mmod_Bend_Energy-OPLS-2005>
518.011779785156

> <r_mmod_Torsional_Energy-OPLS-2005>
596.803100585938

> <r_mmod_Improper_Torsional_Energy-OPLS-2005>
42.9712371826172

> <r_mmod_Van_der_Waal_Energy-OPLS-2005>
154.971527099609

> <r_mmod_Electrostatic_Energy-OPLS-2005>
721.644958496094

> <r_mmod_Solvation_Energy-OPLS-2005>
-1815.39733886719

> <b_mmod_Minimization_Converged-OPLS-2005>
0

> <r_mmod_RMS_Derivative-OPLS-2005>
3.78990912437439

$$$$
83
                    3D
 Structure written by MMmdl.
165174  0  0  1  0            999 V2000
  -30.6602  -14.6413   20.4476 C   0  0  0  0  0  0
  -30.4150  -12.3912   19.4360 C   0  0  0  0  0  0
  -29.4906  -12.4838   18.2038 C   0  0  0  0  0  0
  -28.0103  -12.3049   18.6126 C   0  0  0  0  0  0
  -27.6300  -13.1619   19.8412 C   0  0  2  0  0  0
  -28.6906  -13.0884   20.9673 C   0  0  0  0  0  0
  -25.2518  -13.7944   20.5620 C   0  0  0  0  0  0
  -24.1761  -13.0302   20.9163 C   0  0  0  0  0  0
  -24.6289  -11.6766   20.8756 C   0  0  0  0  0  0
  -23.8959  -10.4193   21.0411 C   0  0  0  0  0  0
  -24.3555   -9.4121   21.9202 C   0  0  0  0  0  0
  -23.6245   -8.2156   22.0781 C   0  0  0  0  0  0
  -22.4223   -8.0200   21.3529 C   0  0  0  0  0  0
  -21.9839   -9.0175   20.4647 C   0  0  0  0  0  0
  -22.7155  -10.2070   20.3056 C   0  0  0  0  0  0
  -21.6843   -6.0669   22.5272 C   0  0  0  0  0  0
  -21.3966   -6.5585   23.8180 C   0  0  0  0  0  0
  -21.3610   -5.6745   24.9171 C   0  0  0  0  0  0
  -21.6035   -4.3021   24.7263 C   0  0  0  0  0  0
  -21.8857   -3.8098   23.4380 C   0  0  0  0  0  0
  -21.9224   -4.6879   22.3419 C   0  0  0  0  0  0
  -22.7844  -13.5196   21.1842 C   0  0  0  0  0  0
  -22.1717   -4.2060   21.1001 F   0  0  0  0  0  0
  -21.5637   -3.4507   25.7786 F   0  0  0  0  0  0
  -29.9810  -13.4501   20.3715 N   0  0  0  0  0  0
  -26.2859  -12.9015   20.3268 N   0  0  0  0  0  0
  -25.9200  -11.6235   20.5799 N   0  0  0  0  0  0
  -22.0543  -12.8167   22.0403 N   0  0  0  0  0  0
  -25.4138  -15.1672   20.3982 N   0  0  0  0  0  0
  -31.8707  -14.6557   20.1991 O   0  0  0  0  0  0
  -21.6624   -6.8798   21.4216 O   0  0  0  0  0  0
  -22.3586  -14.5565   20.6759 O   0  0  0  0  0  0
  -24.6203  -31.8660   23.2101 C   0  0  0  0  0  0
  -25.9111  -32.4787   23.8391 C   0  0  1  0  0  0
  -27.2314  -27.4155   20.0610 C   0  0  0  0  0  0
  -25.5950  -33.8595   24.2293 N   0  0  0  0  0  0
  -23.4042  -30.4926   21.5507 C   0  0  2  0  0  0
  -24.8452  -28.9519   20.1098 C   0  0  0  0  0  0
  -22.7412  -29.4678   22.4993 C   0  0  0  0  0  0
  -18.0244  -28.1386   22.8463 C   0  0  0  0  0  0
  -24.1460  -36.7244   23.2646 C   0  0  0  0  0  0
  -25.9370  -30.8185   21.3692 C   0  0  0  0  0  0
  -26.0106  -29.4540   20.7061 C   0  0  0  0  0  0
  -27.2019  -28.6887   20.6896 C   0  0  0  0  0  0
  -26.0423  -26.9318   19.4759 C   0  0  0  0  0  0
  -24.8536  -27.6860   19.5051 C   0  0  0  0  0  0
  -23.6107  -29.8248   20.1643 C   0  0  0  0  0  0
  -25.4086  -36.3073   24.0339 C   0  0  1  0  0  0
  -20.5842  -28.3671   23.1296 C   0  0  2  0  0  0
  -20.6747  -26.9415   22.5407 C   0  0  0  0  0  0
  -19.5752  -26.6376   21.5199 C   0  0  0  0  0  0
  -18.1911  -26.7932   22.1575 C   0  0  0  0  0  0
  -19.1495  -28.8835   23.2875 C   0  0  0  0  0  0
  -18.9452  -30.1441   23.8888 C   0  0  0  0  0  0
  -17.6466  -30.6595   24.0553 C   0  0  0  0  0  0
  -25.9033  -34.9457   23.5088 C   0  0  0  0  0  0
  -16.5338  -29.9104   23.6340 C   0  0  0  0  0  0
  -16.7236  -28.6524   23.0346 C   0  0  0  0  0  0
  -26.4510  -31.6608   25.0760 C   0  0  0  0  0  0
  -25.3766  -31.3755   26.1515 C   0  0  0  0  0  0
  -27.0400  -30.3070   24.6179 C   0  0  0  0  0  0
  -27.6020  -32.4409   25.7568 C   0  0  0  0  0  0
  -27.5534  -37.1810   24.8452 C   0  0  0  0  0  0
  -21.4139  -29.3055   22.3739 N   0  0  0  0  0  0
  -26.4219  -37.3809   23.9443 N   0  0  0  0  0  0
  -24.6712  -31.0747   22.0997 N   0  0  0  0  0  0
  -23.4189  -28.8191   23.3000 O   0  0  0  0  0  0
  -28.3981  -26.6670   20.0640 O   0  0  0  0  0  0
  -26.5575  -34.8914   22.4629 O   0  0  0  0  0  0
  -23.5395  -32.1432   23.7503 O   0  0  0  0  0  0
  -28.3724  -17.7490   20.5807 C   0  0  0  0  0  0
  -29.8239  -21.0200   20.6839 C   0  0  0  0  0  0
  -28.5888  -16.2272   20.3981 C   0  0  0  0  0  0
  -30.7393  -17.1485   20.4496 C   0  0  0  0  0  0
  -28.9093  -21.2629   18.5248 C   0  0  0  0  0  0
  -29.7770  -18.3499   20.6694 C   0  0  1  0  0  0
  -29.6462  -22.1100   19.5980 C   0  0  1  0  0  0
  -30.1132  -19.7035   19.9162 C   0  0  1  0  0  0
  -29.8885  -24.0896   21.0356 C   0  0  0  0  0  0
  -28.2904  -24.2063   19.1519 C   0  0  0  0  0  0
  -28.6517  -25.7315   18.9888 C   0  0  0  0  0  0
  -30.0069  -15.8643   20.5733 N   0  0  0  0  0  0
  -28.9937  -23.3405   20.1384 N   0  0  0  0  0  0
  -29.5055  -19.9004   18.5748 N   0  3  0  0  0  0
  -31.4585  -12.4883   19.1271 H   0  0  0  0  0  0
  -30.3330  -11.4056   19.8981 H   0  0  0  0  0  0
  -29.7705  -11.7247   17.4713 H   0  0  0  0  0  0
  -29.6223  -13.4494   17.7083 H   0  0  0  0  0  0
  -27.8488  -11.2505   18.8310 H   0  0  0  0  0  0
  -27.3566  -12.5497   17.7721 H   0  0  0  0  0  0
  -27.5895  -14.1482   19.4191 H   0  0  0  0  0  0
  -28.7347  -12.0752   21.3677 H   0  0  0  0  0  0
  -28.4498  -13.7226   21.8194 H   0  0  0  0  0  0
  -25.2701   -9.5629   22.4771 H   0  0  0  0  0  0
  -23.9970   -7.4538   22.7468 H   0  0  0  0  0  0
  -21.0792   -8.8662   19.8943 H   0  0  0  0  0  0
  -22.3576  -10.9617   19.6192 H   0  0  0  0  0  0
  -21.1898   -7.6095   23.9653 H   0  0  0  0  0  0
  -21.1398   -6.0495   25.9056 H   0  0  0  0  0  0
  -22.0684   -2.7555   23.2927 H   0  0  0  0  0  0
  -22.4186  -11.9717   22.4524 H   0  0  0  0  0  0
  -21.1194  -13.1195   22.2766 H   0  0  0  0  0  0
  -24.6465  -15.8159   20.5213 H   0  0  0  0  0  0
  -26.2753  -15.6059   20.1024 H   0  0  0  0  0  0
  -26.7152  -32.5510   23.1136 H   0  0  0  0  0  0
  -25.0298  -33.9758   25.0555 H   0  0  0  0  0  0
  -22.6959  -31.3108   21.4121 H   0  0  0  0  0  0
  -23.3770  -35.9535   23.3291 H   0  0  0  0  0  0
  -24.3555  -36.8874   22.2061 H   0  0  0  0  0  0
  -23.7115  -37.6392   23.6677 H   0  0  0  0  0  0
  -26.0614  -31.5919   20.6091 H   0  0  0  0  0  0
  -26.8206  -30.8613   21.9943 H   0  0  0  0  0  0
  -28.0989  -29.0696   21.1595 H   0  0  0  0  0  0
  -26.0082  -25.9587   19.0110 H   0  0  0  0  0  0
  -23.9562  -27.2778   19.0615 H   0  0  0  0  0  0
  -23.7274  -30.6017   19.4095 H   0  0  0  0  0  0
  -22.7307  -29.2543   19.8637 H   0  0  0  0  0  0
  -25.1270  -36.1899   25.0831 H   0  0  0  0  0  0
  -20.9904  -28.3220   24.1432 H   0  0  0  0  0  0
  -20.5614  -26.2312   23.3600 H   0  0  0  0  0  0
  -21.6641  -26.7469   22.1245 H   0  0  0  0  0  0
  -19.6946  -25.6295   21.1229 H   0  0  0  0  0  0
  -19.6704  -27.3171   20.6728 H   0  0  0  0  0  0
  -17.4226  -26.6686   21.3939 H   0  0  0  0  0  0
  -18.0284  -26.0037   22.8912 H   0  0  0  0  0  0
  -19.7945  -30.7219   24.2272 H   0  0  0  0  0  0
  -17.5044  -31.6268   24.5170 H   0  0  0  0  0  0
  -15.5346  -30.3003   23.7712 H   0  0  0  0  0  0
  -15.8624  -28.0838   22.7081 H   0  0  0  0  0  0
  -24.5888  -30.7135   25.7888 H   0  0  0  0  0  0
  -24.9023  -32.2940   26.5023 H   0  0  0  0  0  0
  -25.8126  -30.8895   27.0250 H   0  0  0  0  0  0
  -26.3017  -29.6811   24.1168 H   0  0  0  0  0  0
  -27.4081  -29.7352   25.4687 H   0  0  0  0  0  0
  -27.8859  -30.4419   23.9453 H   0  0  0  0  0  0
  -27.2548  -33.3701   26.2135 H   0  0  0  0  0  0
  -28.3879  -32.7008   25.0462 H   0  0  0  0  0  0
  -28.0635  -31.8556   26.5526 H   0  0  0  0  0  0
  -28.2563  -38.0114   24.7563 H   0  0  0  0  0  0
  -28.1009  -36.2653   24.6189 H   0  0  0  0  0  0
  -27.2269  -37.1318   25.8856 H   0  0  0  0  0  0
  -20.9299  -29.8825   21.6996 H   0  0  0  0  0  0
  -26.0073  -38.2864   24.1504 H   0  0  0  0  0  0
  -27.8205  -17.9423   21.5076 H   0  0  0  0  0  0
  -27.7491  -18.1686   19.7870 H   0  0  0  0  0  0
  -28.9063  -20.9183   21.2670 H   0  0  0  0  0  0
  -30.6329  -21.2649   21.3723 H   0  0  0  0  0  0
  -28.3369  -16.0143   19.3591 H   0  0  0  0  0  0
  -27.9346  -15.6809   21.0723 H   0  0  0  0  0  0
  -31.5480  -17.1966   21.1795 H   0  0  0  0  0  0
  -31.1927  -17.1868   19.4572 H   0  0  0  0  0  0
  -28.9826  -21.6821   17.5178 H   0  0  0  0  0  0
  -27.8500  -21.1737   18.7682 H   0  0  0  0  0  0
  -29.8969  -18.5915   21.7262 H   0  0  0  0  0  0
  -30.6196  -22.3917   19.1894 H   0  0  0  0  0  0
  -31.1922  -19.7027   19.7475 H   0  0  0  0  0  0
  -30.2720  -23.4755   21.8524 H   0  0  0  0  0  0
  -29.3768  -24.9244   21.5201 H   0  0  0  0  0  0
  -30.7518  -24.4939   20.5012 H   0  0  0  0  0  0
  -28.4669  -23.7943   18.1600 H   0  0  0  0  0  0
  -27.2185  -24.0743   19.2985 H   0  0  0  0  0  0
  -28.1525  -26.0948   18.0868 H   0  0  0  0  0  0
  -29.7109  -25.8043   18.7450 H   0  0  0  0  0  0
  -30.2460  -19.8636   17.8911 H   0  0  0  0  0  0
  -28.8345  -19.1923   18.3193 H   0  0  0  0  0  0
  1 25  1  0  0  0
  1 30  2  0  0  0
  1 82  1  0  0  0
  2  3  1  0  0  0
  2 25  1  0  0  0
  2 85  1  0  0  0
  2 86  1  0  0  0
  3  4  1  0  0  0
  3 87  1  0  0  0
  3 88  1  0  0  0
  4  5  1  0  0  0
  4 89  1  0  0  0
  4 90  1  0  0  0
  5  6  1  0  0  0
  5 26  1  0  0  0
  5 91  1  0  0  0
  6 25  1  0  0  0
  6 92  1  0  0  0
  6 93  1  0  0  0
  7  8  2  0  0  0
  7 26  1  0  0  0
  7 29  1  0  0  0
  8  9  1  0  0  0
  8 22  1  0  0  0
  9 10  1  0  0  0
  9 27  2  0  0  0
 10 11  2  0  0  0
 10 15  1  0  0  0
 11 12  1  0  0  0
 11 94  1  0  0  0
 12 13  2  0  0  0
 12 95  1  0  0  0
 13 14  1  0  0  0
 13 31  1  0  0  0
 14 15  2  0  0  0
 14 96  1  0  0  0
 15 97  1  0  0  0
 16 17  2  0  0  0
 16 21  1  0  0  0
 16 31  1  0  0  0
 17 18  1  0  0  0
 17 98  1  0  0  0
 18 19  2  0  0  0
 18 99  1  0  0  0
 19 20  1  0  0  0
 19 24  1  0  0  0
 20 21  2  0  0  0
 20100  1  0  0  0
 21 23  1  0  0  0
 22 28  1  0  0  0
 22 32  2  0  0  0
 26 27  1  0  0  0
 28101  1  0  0  0
 28102  1  0  0  0
 29103  1  0  0  0
 29104  1  0  0  0
 33 34  1  0  0  0
 33 66  1  0  0  0
 33 70  2  0  0  0
 34 36  1  0  0  0
 34 59  1  0  0  0
 34105  1  0  0  0
 35 44  2  0  0  0
 35 45  1  0  0  0
 35 68  1  0  0  0
 36 56  1  0  0  0
 36106  1  0  0  0
 37 39  1  0  0  0
 37 47  1  0  0  0
 37 66  1  0  0  0
 37107  1  0  0  0
 38 43  2  0  0  0
 38 46  1  0  0  0
 38 47  1  0  0  0
 39 64  1  0  0  0
 39 67  2  0  0  0
 40 52  1  0  0  0
 40 53  2  0  0  0
 40 58  1  0  0  0
 41108  1  0  0  0
 41109  1  0  0  0
 41110  1  0  0  0
 41 48  1  0  0  0
 42 43  1  0  0  0
 42 66  1  0  0  0
 42111  1  0  0  0
 42112  1  0  0  0
 43 44  1  0  0  0
 44113  1  0  0  0
 45 46  2  0  0  0
 45114  1  0  0  0
 46115  1  0  0  0
 47116  1  0  0  0
 47117  1  0  0  0
 48 56  1  0  0  0
 48 65  1  0  0  0
 48118  1  0  0  0
 49 50  1  0  0  0
 49 53  1  0  0  0
 49 64  1  0  0  0
 49119  1  0  0  0
 50 51  1  0  0  0
 50120  1  0  0  0
 50121  1  0  0  0
 51 52  1  0  0  0
 51122  1  0  0  0
 51123  1  0  0  0
 52124  1  0  0  0
 52125  1  0  0  0
 53 54  1  0  0  0
 54 55  2  0  0  0
 54126  1  0  0  0
 55 57  1  0  0  0
 55127  1  0  0  0
 56 69  2  0  0  0
 57 58  2  0  0  0
 57128  1  0  0  0
 58129  1  0  0  0
 59 60  1  0  0  0
 59 61  1  0  0  0
 59 62  1  0  0  0
 60130  1  0  0  0
 60131  1  0  0  0
 60132  1  0  0  0
 61133  1  0  0  0
 61134  1  0  0  0
 61135  1  0  0  0
 62136  1  0  0  0
 62137  1  0  0  0
 62138  1  0  0  0
 63 65  1  0  0  0
 63139  1  0  0  0
 63140  1  0  0  0
 63141  1  0  0  0
 64142  1  0  0  0
 65143  1  0  0  0
 68 81  1  0  0  0
 71 73  1  0  0  0
 71144  1  0  0  0
 71145  1  0  0  0
 71 76  1  0  0  0
 72 77  1  0  0  0
 72146  1  0  0  0
 72147  1  0  0  0
 72 78  1  0  0  0
 73 82  1  0  0  0
 73148  1  0  0  0
 73149  1  0  0  0
 74 76  1  0  0  0
 74 82  1  0  0  0
 74150  1  0  0  0
 74151  1  0  0  0
 75 77  1  0  0  0
 75 84  1  0  0  0
 75152  1  0  0  0
 75153  1  0  0  0
 76 78  1  0  0  0
 76154  1  0  0  0
 77 83  1  0  0  0
 77155  1  0  0  0
 78 84  1  0  0  0
 78156  1  0  0  0
 79 83  1  0  0  0
 79157  1  0  0  0
 79158  1  0  0  0
 79159  1  0  0  0
 80 81  1  0  0  0
 80 83  1  0  0  0
 80160  1  0  0  0
 80161  1  0  0  0
 81162  1  0  0  0
 81163  1  0  0  0
 84164  1  0  0  0
 84165  1  0  0  0
M  CHG  1  84   1
M  ISO  4   1 100  68 101  81 101  82 100
M  END
> <chiral flag>
0

> <version>
0

> <s_m_source_file>
/data/baiqing/PycharmProjects/Reinvent-master-3.2/result/LINK_invent/BTK/process_docking_weight1_custom_sum_contain_oxygen_bond_distance_aromatic_linkinvent_7_9_3/rearranged_h_0195.sdf

> <i_m_source_file_index>
82

> <r_mmod_Potential_Energy-OPLS-2005>
282.887908935547

> <r_mmod_Stretch_Energy-OPLS-2005>
60.5951728820801

> <r_mmod_Bend_Energy-OPLS-2005>
226.477478027344

> <r_mmod_Torsional_Energy-OPLS-2005>
432.502777099609

> <r_mmod_Improper_Torsional_Energy-OPLS-2005>
5.80561256408691

> <r_mmod_Van_der_Waal_Energy-OPLS-2005>
138.976470947266

> <r_mmod_Electrostatic_Energy-OPLS-2005>
-151.04753112793

> <r_mmod_Solvation_Energy-OPLS-2005>
-470.474395751953

> <b_mmod_Minimization_Converged-OPLS-2005>
0

> <r_mmod_RMS_Derivative-OPLS-2005>
7.76358032226562

$$$$
84
                    3D
 Structure written by MMmdl.
161171  0  0  1  0            999 V2000
  -30.5812  -14.8018   20.4472 C   0  0  0  0  0  0
  -30.4357  -12.4922   19.4741 C   0  0  0  0  0  0
  -29.5103  -12.5120   18.2367 C   0  0  0  0  0  0
  -28.0383  -12.3257   18.6534 C   0  0  0  0  0  0
  -27.6369  -13.2338   19.8461 C   0  0  2  0  0  0
  -28.6828  -13.1895   20.9802 C   0  0  0  0  0  0
  -25.2489  -13.8193   20.5700 C   0  0  0  0  0  0
  -24.1789  -13.0435   20.9227 C   0  0  0  0  0  0
  -24.6386  -11.6914   20.8752 C   0  0  0  0  0  0
  -23.9066  -10.4289   21.0406 C   0  0  0  0  0  0
  -24.3616   -9.4205   21.9185 C   0  0  0  0  0  0
  -23.6293   -8.2238   22.0749 C   0  0  0  0  0  0
  -22.4276   -8.0273   21.3538 C   0  0  0  0  0  0
  -21.9912   -9.0246   20.4639 C   0  0  0  0  0  0
  -22.7239  -10.2128   20.3054 C   0  0  0  0  0  0
  -21.6853   -6.0733   22.5276 C   0  0  0  0  0  0
  -21.4014   -6.5636   23.8210 C   0  0  0  0  0  0
  -21.3662   -5.6789   24.9171 C   0  0  0  0  0  0
  -21.6044   -4.3051   24.7223 C   0  0  0  0  0  0
  -21.8819   -3.8144   23.4343 C   0  0  0  0  0  0
  -21.9195   -4.6960   22.3401 C   0  0  0  0  0  0
  -22.7813  -13.5214   21.1881 C   0  0  0  0  0  0
  -22.1662   -4.2150   21.0975 F   0  0  0  0  0  0
  -21.5633   -3.4534   25.7735 F   0  0  0  0  0  0
  -29.9742  -13.5626   20.3904 N   0  0  0  0  0  0
  -26.2910  -12.9399   20.3268 N   0  0  0  0  0  0
  -25.9317  -11.6543   20.5755 N   0  0  0  0  0  0
  -22.0463  -12.8196   22.0431 N   0  0  0  0  0  0
  -25.4169  -15.1918   20.4104 N   0  0  0  0  0  0
  -31.7786  -14.8996   20.1645 O   0  0  0  0  0  0
  -21.6637   -6.8871   21.4236 O   0  0  0  0  0  0
  -22.3494  -14.5517   20.6725 O   0  0  0  0  0  0
  -24.6364  -31.8516   23.1950 C   0  0  0  0  0  0
  -25.9172  -32.4732   23.8312 C   0  0  1  0  0  0
  -27.2153  -27.2238   20.1420 C   0  0  0  0  0  0
  -25.5952  -33.8537   24.2235 N   0  0  0  0  0  0
  -23.4341  -30.4739   21.5393 C   0  0  2  0  0  0
  -24.8798  -28.9099   20.1157 C   0  0  0  0  0  0
  -22.7519  -29.4601   22.4902 C   0  0  0  0  0  0
  -18.0294  -28.1402   22.8483 C   0  0  0  0  0  0
  -24.1490  -36.7267   23.2643 C   0  0  0  0  0  0
  -25.9831  -30.7551   21.3766 C   0  0  0  0  0  0
  -26.0559  -29.3729   20.7204 C   0  0  0  0  0  0
  -27.2306  -28.5468   20.7124 C   0  0  0  0  0  0
  -26.0129  -26.8315   19.5176 C   0  0  0  0  0  0
  -24.8649  -27.6482   19.5023 C   0  0  0  0  0  0
  -23.6540  -29.8038   20.1580 C   0  0  0  0  0  0
  -25.4121  -36.3054   24.0324 C   0  0  1  0  0  0
  -20.5902  -28.3719   23.1256 C   0  0  2  0  0  0
  -20.6787  -26.9434   22.5405 C   0  0  0  0  0  0
  -19.5758  -26.6393   21.5214 C   0  0  0  0  0  0
  -18.1937  -26.7943   22.1623 C   0  0  0  0  0  0
  -19.1549  -28.8877   23.2863 C   0  0  0  0  0  0
  -18.9468  -30.1474   23.8889 C   0  0  0  0  0  0
  -17.6466  -30.6599   24.0566 C   0  0  0  0  0  0
  -25.9066  -34.9428   23.5082 C   0  0  0  0  0  0
  -16.5358  -29.9094   23.6339 C   0  0  0  0  0  0
  -16.7280  -28.6512   23.0362 C   0  0  0  0  0  0
  -26.4522  -31.6574   25.0720 C   0  0  0  0  0  0
  -25.3729  -31.3720   26.1425 C   0  0  0  0  0  0
  -27.0386  -30.2993   24.6231 C   0  0  0  0  0  0
  -27.6064  -32.4328   25.7495 C   0  0  0  0  0  0
  -27.5577  -37.1792   24.8469 C   0  0  0  0  0  0
  -21.4222  -29.3058   22.3636 N   0  0  0  0  0  0
  -26.4288  -37.3762   23.9412 N   0  0  0  0  0  0
  -24.7042  -31.0453   22.0934 N   0  0  0  0  0  0
  -23.4197  -28.8144   23.3022 O   0  0  0  0  0  0
  -28.2995  -26.3071   20.1445 O   0  0  0  0  0  0
  -26.5635  -34.8912   22.4650 O   0  0  0  0  0  0
  -23.5503  -32.1347   23.7229 O   0  0  0  0  0  0
  -28.9770  -22.3097   17.8195 C   0  0  0  0  0  0
  -28.7069  -23.5476   18.4306 C   0  0  0  0  0  0
  -28.5932  -23.5545   19.8391 C   0  0  0  0  0  0
  -29.0688  -21.1798   19.8077 C   0  0  0  0  0  0
  -29.2375  -24.9901   16.2808 C   0  0  0  0  0  0
  -29.5287  -25.8615   17.4760 C   0  0  0  0  0  0
  -29.8334  -18.1119   22.0231 C   0  0  0  0  0  0
  -29.7236  -19.6541   21.7906 C   0  0  0  0  0  0
  -29.3757  -18.5223   19.7434 C   0  0  0  0  0  0
  -28.4873  -24.7691   17.5789 C   0  0  0  0  0  0
  -30.1351  -17.4474   20.6626 C   0  0  2  0  0  0
  -28.0817  -24.8756   20.6183 C   0  0  0  0  0  0
  -29.1420  -21.1563   18.4924 N   0  0  0  0  0  0
  -28.8019  -22.3322   20.5042 N   0  0  0  0  0  0
  -29.2938  -19.8773   20.4151 N   0  0  0  0  0  0
  -29.7880  -15.9397   20.6176 N   0  0  0  0  0  0
  -31.4736  -12.6324   19.1684 H   0  0  0  0  0  0
  -30.3990  -11.5216   19.9711 H   0  0  0  0  0  0
  -29.8020  -11.7313   17.5326 H   0  0  0  0  0  0
  -29.6237  -13.4596   17.7077 H   0  0  0  0  0  0
  -27.9070  -11.2783   18.9271 H   0  0  0  0  0  0
  -27.3771  -12.5019   17.8040 H   0  0  0  0  0  0
  -27.6222  -14.2506   19.4539 H   0  0  0  0  0  0
  -28.7344  -12.1950   21.4257 H   0  0  0  0  0  0
  -28.4106  -13.8724   21.7865 H   0  0  0  0  0  0
  -25.2761   -9.5680   22.4762 H   0  0  0  0  0  0
  -24.0005   -7.4625   22.7462 H   0  0  0  0  0  0
  -21.0851   -8.8755   19.8940 H   0  0  0  0  0  0
  -22.3696  -10.9662   19.6156 H   0  0  0  0  0  0
  -21.2004   -7.6145   23.9716 H   0  0  0  0  0  0
  -21.1486   -6.0516   25.9074 H   0  0  0  0  0  0
  -22.0601   -2.7608   23.2842 H   0  0  0  0  0  0
  -22.4095  -11.9859   22.4815 H   0  0  0  0  0  0
  -21.1069  -13.1191   22.2631 H   0  0  0  0  0  0
  -24.6456  -15.8415   20.5183 H   0  0  0  0  0  0
  -26.2537  -15.6302   20.0486 H   0  0  0  0  0  0
  -26.7240  -32.5369   23.1049 H   0  0  0  0  0  0
  -25.0111  -33.9668   25.0388 H   0  0  0  0  0  0
  -22.7333  -31.2979   21.3896 H   0  0  0  0  0  0
  -23.3762  -35.9591   23.3299 H   0  0  0  0  0  0
  -24.3574  -36.8901   22.2058 H   0  0  0  0  0  0
  -23.7238  -37.6462   23.6675 H   0  0  0  0  0  0
  -26.1240  -31.5128   20.6045 H   0  0  0  0  0  0
  -26.8596  -30.8062   22.0106 H   0  0  0  0  0  0
  -28.1350  -28.9015   21.1867 H   0  0  0  0  0  0
  -25.9407  -25.8608   19.0510 H   0  0  0  0  0  0
  -23.9634  -27.2856   19.0282 H   0  0  0  0  0  0
  -23.7852  -30.5778   19.4010 H   0  0  0  0  0  0
  -22.7699  -29.2416   19.8517 H   0  0  0  0  0  0
  -25.1308  -36.1892   25.0818 H   0  0  0  0  0  0
  -20.9992  -28.3311   24.1377 H   0  0  0  0  0  0
  -20.5698  -26.2335   23.3619 H   0  0  0  0  0  0
  -21.6653  -26.7467   22.1188 H   0  0  0  0  0  0
  -19.6926  -25.6300   21.1252 H   0  0  0  0  0  0
  -19.6694  -27.3196   20.6738 H   0  0  0  0  0  0
  -17.4208  -26.6696   21.4025 H   0  0  0  0  0  0
  -18.0334  -26.0086   22.9020 H   0  0  0  0  0  0
  -19.7943  -30.7295   24.2256 H   0  0  0  0  0  0
  -17.5018  -31.6276   24.5172 H   0  0  0  0  0  0
  -15.5360  -30.2993   23.7669 H   0  0  0  0  0  0
  -15.8679  -28.0824   22.7093 H   0  0  0  0  0  0
  -24.5920  -30.7059   25.7737 H   0  0  0  0  0  0
  -24.8903  -32.2881   26.4839 H   0  0  0  0  0  0
  -25.8034  -30.8899   27.0210 H   0  0  0  0  0  0
  -26.2985  -29.6716   24.1253 H   0  0  0  0  0  0
  -27.4058  -29.7283   25.4770 H   0  0  0  0  0  0
  -27.8859  -30.4271   23.9492 H   0  0  0  0  0  0
  -27.2678  -33.3650   26.2028 H   0  0  0  0  0  0
  -28.3893  -32.6854   25.0332 H   0  0  0  0  0  0
  -28.0708  -31.8482   26.5443 H   0  0  0  0  0  0
  -28.2590  -38.0093   24.7519 H   0  0  0  0  0  0
  -28.1077  -36.2624   24.6295 H   0  0  0  0  0  0
  -27.2287  -37.1437   25.8869 H   0  0  0  0  0  0
  -20.9421  -29.8753   21.6805 H   0  0  0  0  0  0
  -26.0159  -38.2831   24.1418 H   0  0  0  0  0  0
  -29.0444  -22.2301   16.7447 H   0  0  0  0  0  0
  -30.0182  -24.2909   15.9880 H   0  0  0  0  0  0
  -28.7037  -25.4603   15.4564 H   0  0  0  0  0  0
  -29.1797  -26.8921   17.4300 H   0  0  0  0  0  0
  -30.4812  -25.7147   17.9822 H   0  0  0  0  0  0
  -28.8755  -17.7474   22.3976 H   0  0  0  0  0  0
  -30.5823  -17.8678   22.7778 H   0  0  0  0  0  0
  -30.6977  -20.1271   21.9236 H   0  0  0  0  0  0
  -29.0361  -20.1203   22.4978 H   0  0  0  0  0  0
  -28.3549  -18.1902   19.5483 H   0  0  0  0  0  0
  -29.8656  -18.6049   18.7719 H   0  0  0  0  0  0
  -27.4387  -25.0581   17.5810 H   0  0  0  0  0  0
  -31.2043  -17.5509   20.4685 H   0  0  0  0  0  0
  -28.5401  -24.8315   21.6061 H   0  0  0  0  0  0
  -27.0205  -24.7174   20.8105 H   0  0  0  0  0  0
  -28.8121  -15.7305   20.7634 H   0  0  0  0  0  0
  1 25  1  0  0  0
  1 30  2  0  0  0
  1 86  1  0  0  0
  2  3  1  0  0  0
  2 25  1  0  0  0
  2 87  1  0  0  0
  2 88  1  0  0  0
  3  4  1  0  0  0
  3 89  1  0  0  0
  3 90  1  0  0  0
  4  5  1  0  0  0
  4 91  1  0  0  0
  4 92  1  0  0  0
  5  6  1  0  0  0
  5 26  1  0  0  0
  5 93  1  0  0  0
  6 25  1  0  0  0
  6 94  1  0  0  0
  6 95  1  0  0  0
  7  8  2  0  0  0
  7 26  1  0  0  0
  7 29  1  0  0  0
  8  9  1  0  0  0
  8 22  1  0  0  0
  9 10  1  0  0  0
  9 27  2  0  0  0
 10 11  2  0  0  0
 10 15  1  0  0  0
 11 12  1  0  0  0
 11 96  1  0  0  0
 12 13  2  0  0  0
 12 97  1  0  0  0
 13 14  1  0  0  0
 13 31  1  0  0  0
 14 15  2  0  0  0
 14 98  1  0  0  0
 15 99  1  0  0  0
 16 17  2  0  0  0
 16 21  1  0  0  0
 16 31  1  0  0  0
 17 18  1  0  0  0
 17100  1  0  0  0
 18 19  2  0  0  0
 18101  1  0  0  0
 19 20  1  0  0  0
 19 24  1  0  0  0
 20 21  2  0  0  0
 20102  1  0  0  0
 21 23  1  0  0  0
 22 28  1  0  0  0
 22 32  2  0  0  0
 26 27  1  0  0  0
 28103  1  0  0  0
 28104  1  0  0  0
 29105  1  0  0  0
 29106  1  0  0  0
 33 34  1  0  0  0
 33 66  1  0  0  0
 33 70  2  0  0  0
 34 36  1  0  0  0
 34 59  1  0  0  0
 34107  1  0  0  0
 35 44  2  0  0  0
 35 45  1  0  0  0
 35 68  1  0  0  0
 36 56  1  0  0  0
 36108  1  0  0  0
 37 39  1  0  0  0
 37 47  1  0  0  0
 37 66  1  0  0  0
 37109  1  0  0  0
 38 43  2  0  0  0
 38 46  1  0  0  0
 38 47  1  0  0  0
 39 64  1  0  0  0
 39 67  2  0  0  0
 40 52  1  0  0  0
 40 53  2  0  0  0
 40 58  1  0  0  0
 41110  1  0  0  0
 41111  1  0  0  0
 41112  1  0  0  0
 41 48  1  0  0  0
 42 43  1  0  0  0
 42 66  1  0  0  0
 42113  1  0  0  0
 42114  1  0  0  0
 43 44  1  0  0  0
 44115  1  0  0  0
 45 46  2  0  0  0
 45116  1  0  0  0
 46117  1  0  0  0
 47118  1  0  0  0
 47119  1  0  0  0
 48 56  1  0  0  0
 48 65  1  0  0  0
 48120  1  0  0  0
 49 50  1  0  0  0
 49 53  1  0  0  0
 49 64  1  0  0  0
 49121  1  0  0  0
 50 51  1  0  0  0
 50122  1  0  0  0
 50123  1  0  0  0
 51 52  1  0  0  0
 51124  1  0  0  0
 51125  1  0  0  0
 52126  1  0  0  0
 52127  1  0  0  0
 53 54  1  0  0  0
 54 55  2  0  0  0
 54128  1  0  0  0
 55 57  1  0  0  0
 55129  1  0  0  0
 56 69  2  0  0  0
 57 58  2  0  0  0
 57130  1  0  0  0
 58131  1  0  0  0
 59 60  1  0  0  0
 59 61  1  0  0  0
 59 62  1  0  0  0
 60132  1  0  0  0
 60133  1  0  0  0
 60134  1  0  0  0
 61135  1  0  0  0
 61136  1  0  0  0
 61137  1  0  0  0
 62138  1  0  0  0
 62139  1  0  0  0
 62140  1  0  0  0
 63 65  1  0  0  0
 63141  1  0  0  0
 63142  1  0  0  0
 63143  1  0  0  0
 64144  1  0  0  0
 65145  1  0  0  0
 68 82  1  0  0  0
 71 72  2  0  0  0
 71 83  1  0  0  0
 71146  1  0  0  0
 72 73  1  0  0  0
 72 80  1  0  0  0
 73 82  1  0  0  0
 73 84  2  0  0  0
 74 83  2  0  0  0
 74 84  1  0  0  0
 74 85  1  0  0  0
 75 76  1  0  0  0
 75 80  1  0  0  0
 75147  1  0  0  0
 75148  1  0  0  0
 76 80  1  0  0  0
 76149  1  0  0  0
 76150  1  0  0  0
 77 78  1  0  0  0
 77 81  1  0  0  0
 77151  1  0  0  0
 77152  1  0  0  0
 78 85  1  0  0  0
 78153  1  0  0  0
 78154  1  0  0  0
 79 81  1  0  0  0
 79 85  1  0  0  0
 79155  1  0  0  0
 79156  1  0  0  0
 80157  1  0  0  0
 81 86  1  0  0  0
 81158  1  0  0  0
 82159  1  0  0  0
 82160  1  0  0  0
 86161  1  0  0  0
M  ISO  4   1 100  68 101  82 101  86 100
M  END
> <chiral flag>
0

> <version>
0

> <s_m_source_file>
/data/baiqing/PycharmProjects/Reinvent-master-3.2/result/LINK_invent/BTK/process_docking_weight1_custom_sum_contain_oxygen_bond_distance_aromatic_linkinvent_7_9_3/rearranged_h_0195.sdf

> <i_m_source_file_index>
83

> <r_mmod_Potential_Energy-OPLS-2005>
-211.758605957031

> <r_mmod_Stretch_Energy-OPLS-2005>
141.914001464844

> <r_mmod_Bend_Energy-OPLS-2005>
212.167251586914

> <r_mmod_Torsional_Energy-OPLS-2005>
299.407562255859

> <r_mmod_Improper_Torsional_Energy-OPLS-2005>
5.38350391387939

> <r_mmod_Van_der_Waal_Energy-OPLS-2005>
133.829360961914

> <r_mmod_Electrostatic_Energy-OPLS-2005>
-868.678771972656

> <r_mmod_Solvation_Energy-OPLS-2005>
-246.03532409668

> <b_mmod_Minimization_Converged-OPLS-2005>
0

> <r_mmod_RMS_Derivative-OPLS-2005>
0.852323949337006

$$$$
85
                    3D
 Structure written by MMmdl.
162171  0  0  1  0            999 V2000
  -30.7004  -14.5404   20.5796 C   0  0  0  0  0  0
  -30.4174  -12.3544   19.4409 C   0  0  0  0  0  0
  -29.4963  -12.5194   18.2152 C   0  0  0  0  0  0
  -28.0213  -12.3612   18.6290 C   0  0  0  0  0  0
  -27.6552  -13.2180   19.8706 C   0  0  2  0  0  0
  -28.6956  -13.0499   21.0003 C   0  0  0  0  0  0
  -25.2563  -13.8179   20.5696 C   0  0  0  0  0  0
  -24.1838  -13.0440   20.9201 C   0  0  0  0  0  0
  -24.6408  -11.6910   20.8751 C   0  0  0  0  0  0
  -23.9076  -10.4289   21.0416 C   0  0  0  0  0  0
  -24.3624   -9.4200   21.9189 C   0  0  0  0  0  0
  -23.6295   -8.2235   22.0752 C   0  0  0  0  0  0
  -22.4276   -8.0282   21.3545 C   0  0  0  0  0  0
  -21.9919   -9.0257   20.4644 C   0  0  0  0  0  0
  -22.7252  -10.2136   20.3061 C   0  0  0  0  0  0
  -21.6851   -6.0739   22.5282 C   0  0  0  0  0  0
  -21.4018   -6.5645   23.8219 C   0  0  0  0  0  0
  -21.3660   -5.6793   24.9181 C   0  0  0  0  0  0
  -21.6049   -4.3055   24.7235 C   0  0  0  0  0  0
  -21.8817   -3.8147   23.4355 C   0  0  0  0  0  0
  -21.9194   -4.6965   22.3408 C   0  0  0  0  0  0
  -22.7860  -13.5229   21.1857 C   0  0  0  0  0  0
  -22.1659   -4.2150   21.0987 F   0  0  0  0  0  0
  -21.5626   -3.4543   25.7748 F   0  0  0  0  0  0
  -30.0193  -13.3626   20.4429 N   0  0  0  0  0  0
  -26.2998  -12.9369   20.3347 N   0  0  0  0  0  0
  -25.9334  -11.6519   20.5767 N   0  0  0  0  0  0
  -22.0500  -12.8214   22.0408 N   0  0  0  0  0  0
  -25.4273  -15.1897   20.4084 N   0  0  0  0  0  0
  -31.8205  -14.7004   20.0834 O   0  0  0  0  0  0
  -21.6642   -6.8881   21.4242 O   0  0  0  0  0  0
  -22.3547  -14.5539   20.6710 O   0  0  0  0  0  0
  -24.6211  -31.8628   23.2069 C   0  0  0  0  0  0
  -25.9078  -32.4790   23.8384 C   0  0  1  0  0  0
  -27.2243  -27.3642   20.1025 C   0  0  0  0  0  0
  -25.5908  -33.8597   24.2307 N   0  0  0  0  0  0
  -23.4114  -30.4874   21.5489 C   0  0  2  0  0  0
  -24.8559  -28.9487   20.1100 C   0  0  0  0  0  0
  -22.7439  -29.4640   22.4963 C   0  0  0  0  0  0
  -18.0280  -28.1377   22.8495 C   0  0  0  0  0  0
  -24.1486  -36.7304   23.2634 C   0  0  0  0  0  0
  -25.9477  -30.8047   21.3733 C   0  0  0  0  0  0
  -26.0202  -29.4360   20.7150 C   0  0  0  0  0  0
  -27.2047  -28.6520   20.7062 C   0  0  0  0  0  0
  -26.0409  -26.9202   19.4668 C   0  0  0  0  0  0
  -24.8656  -27.6944   19.4793 C   0  0  0  0  0  0
  -23.6215  -29.8226   20.1627 C   0  0  0  0  0  0
  -25.4106  -36.3093   24.0335 C   0  0  1  0  0  0
  -20.5874  -28.3681   23.1297 C   0  0  2  0  0  0
  -20.6768  -26.9407   22.5416 C   0  0  0  0  0  0
  -19.5745  -26.6381   21.5213 C   0  0  0  0  0  0
  -18.1922  -26.7927   22.1620 C   0  0  0  0  0  0
  -19.1531  -28.8846   23.2892 C   0  0  0  0  0  0
  -18.9453  -30.1454   23.8903 C   0  0  0  0  0  0
  -17.6452  -30.6584   24.0566 C   0  0  0  0  0  0
  -25.9042  -34.9459   23.5122 C   0  0  0  0  0  0
  -16.5347  -29.9080   23.6328 C   0  0  0  0  0  0
  -16.7270  -28.6496   23.0354 C   0  0  0  0  0  0
  -26.4487  -31.6585   25.0736 C   0  0  0  0  0  0
  -25.3740  -31.3702   26.1474 C   0  0  0  0  0  0
  -27.0321  -30.3013   24.6162 C   0  0  0  0  0  0
  -27.6060  -32.4312   25.7494 C   0  0  0  0  0  0
  -27.5595  -37.1790   24.8452 C   0  0  0  0  0  0
  -21.4158  -29.3037   22.3700 N   0  0  0  0  0  0
  -26.4284  -37.3786   23.9424 N   0  0  0  0  0  0
  -24.6785  -31.0676   22.1001 N   0  0  0  0  0  0
  -23.4180  -28.8171   23.3027 O   0  0  0  0  0  0
  -28.3724  -26.5754   20.1560 O   0  0  0  0  0  0
  -26.5609  -34.8917   22.4688 O   0  0  0  0  0  0
  -23.5392  -32.1412   23.7426 O   0  0  0  0  0  0
  -30.4654  -17.7145   22.3732 C   0  0  0  0  0  0
  -30.9457  -20.9441   20.8400 C   0  0  0  0  0  0
  -30.8399  -16.2195   22.3587 C   0  0  0  0  0  0
  -30.9019  -22.4823   20.8997 C   0  0  0  0  0  0
  -29.3061  -16.6321   20.6095 C   0  0  0  0  0  0
  -28.7307  -21.7999   20.5520 C   0  0  0  0  0  0
  -29.9447  -18.0104   20.9690 C   0  0  1  0  0  0
  -29.5797  -20.5046   20.3075 C   0  0  2  0  0  0
  -29.3219  -24.2987   20.7128 C   0  0  0  0  0  0
  -28.2869  -25.1383   19.8893 C   0  0  0  0  0  0
  -30.0987  -15.5577   21.2692 N   0  0  0  0  0  0
  -29.6552  -22.9162   20.2581 N   0  0  0  0  0  0
  -29.0445  -19.2214   20.8947 N   0  3  0  0  0  0
  -31.4632  -12.4481   19.1446 H   0  0  0  0  0  0
  -30.3179  -11.3517   19.8594 H   0  0  0  0  0  0
  -29.7500  -11.7860   17.4483 H   0  0  0  0  0  0
  -29.6515  -13.5010   17.7640 H   0  0  0  0  0  0
  -27.8515  -11.3054   18.8446 H   0  0  0  0  0  0
  -27.3656  -12.6095   17.7933 H   0  0  0  0  0  0
  -27.6821  -14.2596   19.5500 H   0  0  0  0  0  0
  -28.6851  -12.0275   21.3814 H   0  0  0  0  0  0
  -28.4453  -13.6869   21.8497 H   0  0  0  0  0  0
  -25.2769   -9.5674   22.4763 H   0  0  0  0  0  0
  -24.0008   -7.4628   22.7472 H   0  0  0  0  0  0
  -21.0846   -8.8787   19.8943 H   0  0  0  0  0  0
  -22.3718  -10.9684   19.6171 H   0  0  0  0  0  0
  -21.2009   -7.6151   23.9724 H   0  0  0  0  0  0
  -21.1481   -6.0526   25.9085 H   0  0  0  0  0  0
  -22.0590   -2.7609   23.2865 H   0  0  0  0  0  0
  -22.4115  -11.9880   22.4802 H   0  0  0  0  0  0
  -21.1113  -13.1236   22.2600 H   0  0  0  0  0  0
  -24.6553  -15.8414   20.4997 H   0  0  0  0  0  0
  -26.2734  -15.6211   20.0603 H   0  0  0  0  0  0
  -26.7138  -32.5468   23.1131 H   0  0  0  0  0  0
  -25.0059  -33.9749   25.0453 H   0  0  0  0  0  0
  -22.7039  -31.3073   21.4094 H   0  0  0  0  0  0
  -23.3764  -35.9618   23.3246 H   0  0  0  0  0  0
  -24.3592  -36.8979   22.2061 H   0  0  0  0  0  0
  -23.7212  -37.6481   23.6688 H   0  0  0  0  0  0
  -26.0751  -31.5697   20.6068 H   0  0  0  0  0  0
  -26.8306  -30.8511   21.9996 H   0  0  0  0  0  0
  -28.0994  -29.0211   21.1874 H   0  0  0  0  0  0
  -25.9995  -25.9721   18.9517 H   0  0  0  0  0  0
  -23.9742  -27.3196   18.9949 H   0  0  0  0  0  0
  -23.7323  -30.5990   19.4051 H   0  0  0  0  0  0
  -22.7426  -29.2471   19.8660 H   0  0  0  0  0  0
  -25.1278  -36.1954   25.0828 H   0  0  0  0  0  0
  -20.9974  -28.3254   24.1415 H   0  0  0  0  0  0
  -20.5673  -26.2291   23.3609 H   0  0  0  0  0  0
  -21.6637  -26.7436   22.1212 H   0  0  0  0  0  0
  -19.6906  -25.6293   21.1237 H   0  0  0  0  0  0
  -19.6685  -27.3198   20.6747 H   0  0  0  0  0  0
  -17.4200  -26.6702   21.4010 H   0  0  0  0  0  0
  -18.0303  -26.0055   22.9001 H   0  0  0  0  0  0
  -19.7926  -30.7276   24.2270 H   0  0  0  0  0  0
  -17.5000  -31.6263   24.5168 H   0  0  0  0  0  0
  -15.5349  -30.2985   23.7637 H   0  0  0  0  0  0
  -15.8671  -28.0812   22.7068 H   0  0  0  0  0  0
  -24.5913  -30.7053   25.7807 H   0  0  0  0  0  0
  -24.8936  -32.2858   26.4933 H   0  0  0  0  0  0
  -25.8083  -30.8860   27.0228 H   0  0  0  0  0  0
  -26.2882  -29.6764   24.1205 H   0  0  0  0  0  0
  -27.4044  -29.7267   25.4655 H   0  0  0  0  0  0
  -27.8743  -30.4304   23.9360 H   0  0  0  0  0  0
  -27.2680  -33.3605   26.2092 H   0  0  0  0  0  0
  -28.3855  -32.6880   25.0309 H   0  0  0  0  0  0
  -28.0741  -31.8422   26.5389 H   0  0  0  0  0  0
  -28.2559  -38.0141   24.7574 H   0  0  0  0  0  0
  -28.1145  -36.2677   24.6174 H   0  0  0  0  0  0
  -27.2324  -37.1323   25.8853 H   0  0  0  0  0  0
  -20.9332  -29.8772   21.6924 H   0  0  0  0  0  0
  -26.0170  -38.2853   24.1468 H   0  0  0  0  0  0
  -31.3112  -18.3455   22.6500 H   0  0  0  0  0  0
  -29.6801  -17.8791   23.1130 H   0  0  0  0  0  0
  -31.1420  -20.5580   21.8399 H   0  0  0  0  0  0
  -31.7490  -20.5922   20.1919 H   0  0  0  0  0  0
  -30.5973  -15.7486   23.3126 H   0  0  0  0  0  0
  -31.9184  -16.1160   22.2251 H   0  0  0  0  0  0
  -31.7727  -22.9339   20.4213 H   0  0  0  0  0  0
  -30.9129  -22.7919   21.9476 H   0  0  0  0  0  0
  -29.2521  -16.4907   19.5284 H   0  0  0  0  0  0
  -28.2873  -16.5691   20.9938 H   0  0  0  0  0  0
  -28.4145  -21.8533   21.5958 H   0  0  0  0  0  0
  -27.8358  -21.8383   19.9289 H   0  0  0  0  0  0
  -30.7935  -18.1576   20.2983 H   0  0  0  0  0  0
  -29.6684  -20.3582   19.2293 H   0  0  0  0  0  0
  -29.0286  -24.2862   21.7641 H   0  0  0  0  0  0
  -30.2519  -24.8690   20.6781 H   0  0  0  0  0  0
  -27.3022  -24.7349   20.1242 H   0  0  0  0  0  0
  -28.4525  -24.9858   18.8219 H   0  0  0  0  0  0
  -28.6934  -19.4092   21.8201 H   0  0  0  0  0  0
  -28.2452  -18.9738   20.3338 H   0  0  0  0  0  0
  1 25  1  0  0  0
  1 30  2  0  0  0
  1 81  1  0  0  0
  2  3  1  0  0  0
  2 25  1  0  0  0
  2 84  1  0  0  0
  2 85  1  0  0  0
  3  4  1  0  0  0
  3 86  1  0  0  0
  3 87  1  0  0  0
  4  5  1  0  0  0
  4 88  1  0  0  0
  4 89  1  0  0  0
  5  6  1  0  0  0
  5 26  1  0  0  0
  5 90  1  0  0  0
  6 25  1  0  0  0
  6 91  1  0  0  0
  6 92  1  0  0  0
  7  8  2  0  0  0
  7 26  1  0  0  0
  7 29  1  0  0  0
  8  9  1  0  0  0
  8 22  1  0  0  0
  9 10  1  0  0  0
  9 27  2  0  0  0
 10 11  2  0  0  0
 10 15  1  0  0  0
 11 12  1  0  0  0
 11 93  1  0  0  0
 12 13  2  0  0  0
 12 94  1  0  0  0
 13 14  1  0  0  0
 13 31  1  0  0  0
 14 15  2  0  0  0
 14 95  1  0  0  0
 15 96  1  0  0  0
 16 17  2  0  0  0
 16 21  1  0  0  0
 16 31  1  0  0  0
 17 18  1  0  0  0
 17 97  1  0  0  0
 18 19  2  0  0  0
 18 98  1  0  0  0
 19 20  1  0  0  0
 19 24  1  0  0  0
 20 21  2  0  0  0
 20 99  1  0  0  0
 21 23  1  0  0  0
 22 28  1  0  0  0
 22 32  2  0  0  0
 26 27  1  0  0  0
 28100  1  0  0  0
 28101  1  0  0  0
 29102  1  0  0  0
 29103  1  0  0  0
 33 34  1  0  0  0
 33 66  1  0  0  0
 33 70  2  0  0  0
 34 36  1  0  0  0
 34 59  1  0  0  0
 34104  1  0  0  0
 35 44  2  0  0  0
 35 45  1  0  0  0
 35 68  1  0  0  0
 36 56  1  0  0  0
 36105  1  0  0  0
 37 39  1  0  0  0
 37 47  1  0  0  0
 37 66  1  0  0  0
 37106  1  0  0  0
 38 43  2  0  0  0
 38 46  1  0  0  0
 38 47  1  0  0  0
 39 64  1  0  0  0
 39 67  2  0  0  0
 40 52  1  0  0  0
 40 53  2  0  0  0
 40 58  1  0  0  0
 41107  1  0  0  0
 41108  1  0  0  0
 41109  1  0  0  0
 41 48  1  0  0  0
 42 43  1  0  0  0
 42 66  1  0  0  0
 42110  1  0  0  0
 42111  1  0  0  0
 43 44  1  0  0  0
 44112  1  0  0  0
 45 46  2  0  0  0
 45113  1  0  0  0
 46114  1  0  0  0
 47115  1  0  0  0
 47116  1  0  0  0
 48 56  1  0  0  0
 48 65  1  0  0  0
 48117  1  0  0  0
 49 50  1  0  0  0
 49 53  1  0  0  0
 49 64  1  0  0  0
 49118  1  0  0  0
 50 51  1  0  0  0
 50119  1  0  0  0
 50120  1  0  0  0
 51 52  1  0  0  0
 51121  1  0  0  0
 51122  1  0  0  0
 52123  1  0  0  0
 52124  1  0  0  0
 53 54  1  0  0  0
 54 55  2  0  0  0
 54125  1  0  0  0
 55 57  1  0  0  0
 55126  1  0  0  0
 56 69  2  0  0  0
 57 58  2  0  0  0
 57127  1  0  0  0
 58128  1  0  0  0
 59 60  1  0  0  0
 59 61  1  0  0  0
 59 62  1  0  0  0
 60129  1  0  0  0
 60130  1  0  0  0
 60131  1  0  0  0
 61132  1  0  0  0
 61133  1  0  0  0
 61134  1  0  0  0
 62135  1  0  0  0
 62136  1  0  0  0
 62137  1  0  0  0
 63 65  1  0  0  0
 63138  1  0  0  0
 63139  1  0  0  0
 63140  1  0  0  0
 64141  1  0  0  0
 65142  1  0  0  0
 68 80  1  0  0  0
 71 73  1  0  0  0
 71 77  1  0  0  0
 71143  1  0  0  0
 71144  1  0  0  0
 72 74  1  0  0  0
 72 78  1  0  0  0
 72145  1  0  0  0
 72146  1  0  0  0
 73 81  1  0  0  0
 73147  1  0  0  0
 73148  1  0  0  0
 74 82  1  0  0  0
 74149  1  0  0  0
 74150  1  0  0  0
 75 77  1  0  0  0
 75 81  1  0  0  0
 75151  1  0  0  0
 75152  1  0  0  0
 76 78  1  0  0  0
 76 82  1  0  0  0
 76153  1  0  0  0
 76154  1  0  0  0
 77 83  1  0  0  0
 77155  1  0  0  0
 78 83  1  0  0  0
 78156  1  0  0  0
 79 80  1  0  0  0
 79 82  1  0  0  0
 79157  1  0  0  0
 79158  1  0  0  0
 80159  1  0  0  0
 80160  1  0  0  0
 83161  1  0  0  0
 83162  1  0  0  0
M  CHG  1  83   1
M  ISO  4   1 100  68 101  80 101  81 100
M  END
> <chiral flag>
0

> <version>
0

> <s_m_source_file>
/data/baiqing/PycharmProjects/Reinvent-master-3.2/result/LINK_invent/BTK/process_docking_weight1_custom_sum_contain_oxygen_bond_distance_aromatic_linkinvent_7_9_3/rearranged_h_0195.sdf

> <i_m_source_file_index>
84

> <r_mmod_Potential_Energy-OPLS-2005>
141.446563720703

> <r_mmod_Stretch_Energy-OPLS-2005>
57.694938659668

> <r_mmod_Bend_Energy-OPLS-2005>
171.392730712891

> <r_mmod_Torsional_Energy-OPLS-2005>
404.470825195312

> <r_mmod_Improper_Torsional_Energy-OPLS-2005>
5.73524236679077

> <r_mmod_Van_der_Waal_Energy-OPLS-2005>
123.758247375488

> <r_mmod_Electrostatic_Energy-OPLS-2005>
-175.055068969727

> <r_mmod_Solvation_Energy-OPLS-2005>
-472.457672119141

> <b_mmod_Minimization_Converged-OPLS-2005>
0

> <r_mmod_RMS_Derivative-OPLS-2005>
1.37841165065765

$$$$
86
                    3D
 Structure written by MMmdl.
171181  0  0  1  0            999 V2000
  -30.7885  -14.3937   20.6171 C   0  0  0  0  0  0
  -30.4004  -12.2781   19.4157 C   0  0  0  0  0  0
  -29.4862  -12.5231   18.2016 C   0  0  0  0  0  0
  -28.0113  -12.3707   18.6145 C   0  0  0  0  0  0
  -27.6605  -13.2101   19.8710 C   0  0  2  0  0  0
  -28.7004  -13.0108   20.9986 C   0  0  0  0  0  0
  -25.2576  -13.8163   20.5666 C   0  0  0  0  0  0
  -24.1830  -13.0456   20.9172 C   0  0  0  0  0  0
  -24.6393  -11.6913   20.8750 C   0  0  0  0  0  0
  -23.9064  -10.4298   21.0416 C   0  0  0  0  0  0
  -24.3620   -9.4219   21.9188 C   0  0  0  0  0  0
  -23.6290   -8.2251   22.0773 C   0  0  0  0  0  0
  -22.4270   -8.0287   21.3568 C   0  0  0  0  0  0
  -21.9904   -9.0267   20.4662 C   0  0  0  0  0  0
  -22.7242  -10.2135   20.3063 C   0  0  0  0  0  0
  -21.6855   -6.0734   22.5287 C   0  0  0  0  0  0
  -21.4016   -6.5647   23.8221 C   0  0  0  0  0  0
  -21.3654   -5.6804   24.9176 C   0  0  0  0  0  0
  -21.6037   -4.3062   24.7221 C   0  0  0  0  0  0
  -21.8820   -3.8155   23.4346 C   0  0  0  0  0  0
  -21.9195   -4.6969   22.3404 C   0  0  0  0  0  0
  -22.7841  -13.5251   21.1835 C   0  0  0  0  0  0
  -22.1651   -4.2148   21.0976 F   0  0  0  0  0  0
  -21.5627   -3.4565   25.7735 F   0  0  0  0  0  0
  -30.0467  -13.2639   20.4500 N   0  0  0  0  0  0
  -26.3012  -12.9338   20.3345 N   0  0  0  0  0  0
  -25.9312  -11.6499   20.5765 N   0  0  0  0  0  0
  -22.0474  -12.8251   22.0381 N   0  0  0  0  0  0
  -25.4287  -15.1879   20.4065 N   0  0  0  0  0  0
  -31.8551  -14.5862   20.0234 O   0  0  0  0  0  0
  -21.6635   -6.8881   21.4252 O   0  0  0  0  0  0
  -22.3524  -14.5551   20.6650 O   0  0  0  0  0  0
  -24.6134  -31.8712   23.2124 C   0  0  0  0  0  0
  -25.9043  -32.4830   23.8406 C   0  0  1  0  0  0
  -27.2305  -27.4599   20.0865 C   0  0  0  0  0  0
  -25.5902  -33.8613   24.2355 N   0  0  0  0  0  0
  -23.3959  -30.4976   21.5556 C   0  0  2  0  0  0
  -24.8393  -28.9674   20.1120 C   0  0  0  0  0  0
  -22.7397  -29.4691   22.5046 C   0  0  0  0  0  0
  -18.0271  -28.1359   22.8522 C   0  0  0  0  0  0
  -24.1477  -36.7324   23.2637 C   0  0  0  0  0  0
  -25.9224  -30.8462   21.3573 C   0  0  0  0  0  0
  -25.9984  -29.4833   20.7029 C   0  0  0  0  0  0
  -27.1939  -28.7375   20.6845 C   0  0  0  0  0  0
  -26.0524  -26.9564   19.4835 C   0  0  0  0  0  0
  -24.8617  -27.7043   19.4986 C   0  0  0  0  0  0
  -23.5990  -29.8279   20.1696 C   0  0  0  0  0  0
  -25.4097  -36.3126   24.0354 C   0  0  1  0  0  0
  -20.5867  -28.3654   23.1358 C   0  0  2  0  0  0
  -20.6753  -26.9391   22.5439 C   0  0  0  0  0  0
  -19.5721  -26.6386   21.5231 C   0  0  0  0  0  0
  -18.1906  -26.7915   22.1645 C   0  0  0  0  0  0
  -19.1518  -28.8824   23.2938 C   0  0  0  0  0  0
  -18.9441  -30.1436   23.8933 C   0  0  0  0  0  0
  -17.6436  -30.6579   24.0565 C   0  0  0  0  0  0
  -25.9031  -34.9478   23.5157 C   0  0  0  0  0  0
  -16.5337  -29.9082   23.6309 C   0  0  0  0  0  0
  -16.7262  -28.6490   23.0355 C   0  0  0  0  0  0
  -26.4469  -31.6580   25.0700 C   0  0  0  0  0  0
  -25.3760  -31.3667   26.1467 C   0  0  0  0  0  0
  -27.0271  -30.3028   24.6027 C   0  0  0  0  0  0
  -27.6046  -32.4278   25.7461 C   0  0  0  0  0  0
  -27.5588  -37.1813   24.8472 C   0  0  0  0  0  0
  -21.4132  -29.3028   22.3778 N   0  0  0  0  0  0
  -26.4298  -37.3806   23.9414 N   0  0  0  0  0  0
  -24.6619  -31.0852   22.1000 N   0  0  0  0  0  0
  -23.4183  -28.8232   23.3080 O   0  0  0  0  0  0
  -28.4198  -26.7671   20.1155 O   0  0  0  0  0  0
  -26.5579  -34.8925   22.4718 O   0  0  0  0  0  0
  -23.5346  -32.1459   23.7575 O   0  0  0  0  0  0
  -32.5301  -19.8349   21.6720 C   0  0  0  0  0  0
  -30.8026  -18.8666   22.2845 C   0  0  0  0  0  0
  -34.7307  -19.2619   20.4551 C   0  0  0  0  0  0
  -35.0895  -19.2841   21.9231 C   0  0  0  0  0  0
  -28.9415  -17.3353   21.9597 C   0  0  0  0  0  0
  -30.6864  -16.7517   23.5200 C   0  0  0  0  0  0
  -29.5728  -16.4261   20.8875 C   0  0  0  0  0  0
  -31.3045  -15.7757   22.4959 C   0  0  0  0  0  0
  -33.9645  -20.1560   21.4015 C   0  0  0  0  0  0
  -31.4803  -21.3951   19.9593 C   0  0  0  0  0  0
  -31.2007  -22.8103   20.5137 C   0  0  0  0  0  0
  -29.6737  -24.7649   20.4685 C   0  0  0  0  0  0
  -28.4000  -25.3658   19.8516 C   0  0  0  0  0  0
  -32.1341  -18.9367   22.5637 N   0  0  0  0  0  0
  -30.3655  -19.7560   21.3925 N   0  0  0  0  0  0
  -31.5056  -20.3732   20.9961 N   0  0  0  0  0  0
  -29.9843  -17.8438   22.8455 N   0  0  0  0  0  0
  -30.3316  -15.3142   21.4883 N   0  0  0  0  0  0
  -29.8861  -23.3467   20.0911 N   0  3  0  0  0  0
  -31.4514  -12.3245   19.1285 H   0  0  0  0  0  0
  -30.2553  -11.2692   19.8042 H   0  0  0  0  0  0
  -29.7258  -11.8228   17.4002 H   0  0  0  0  0  0
  -29.6590  -13.5248   17.8015 H   0  0  0  0  0  0
  -27.8304  -11.3135   18.8128 H   0  0  0  0  0  0
  -27.3523  -12.6418   17.7884 H   0  0  0  0  0  0
  -27.6982  -14.2523   19.5592 H   0  0  0  0  0  0
  -28.6511  -11.9924   21.3855 H   0  0  0  0  0  0
  -28.4601  -13.6587   21.8424 H   0  0  0  0  0  0
  -25.2779   -9.5679   22.4751 H   0  0  0  0  0  0
  -24.0005   -7.4632   22.7485 H   0  0  0  0  0  0
  -21.0851   -8.8800   19.8951 H   0  0  0  0  0  0
  -22.3739  -10.9676   19.6161 H   0  0  0  0  0  0
  -21.1997   -7.6157   23.9723 H   0  0  0  0  0  0
  -21.1470   -6.0529   25.9080 H   0  0  0  0  0  0
  -22.0591   -2.7622   23.2840 H   0  0  0  0  0  0
  -22.4113  -11.9902   22.4736 H   0  0  0  0  0  0
  -21.1091  -13.1246   22.2612 H   0  0  0  0  0  0
  -24.6567  -15.8397   20.5057 H   0  0  0  0  0  0
  -26.2735  -15.6253   20.0640 H   0  0  0  0  0  0
  -26.7102  -32.5552   23.1169 H   0  0  0  0  0  0
  -25.0031  -33.9731   25.0482 H   0  0  0  0  0  0
  -22.6841  -31.3161   21.4214 H   0  0  0  0  0  0
  -23.3742  -35.9660   23.3320 H   0  0  0  0  0  0
  -24.3600  -36.8904   22.2051 H   0  0  0  0  0  0
  -23.7205  -37.6529   23.6632 H   0  0  0  0  0  0
  -26.0301  -31.6144   20.5906 H   0  0  0  0  0  0
  -26.8119  -30.8993   21.9720 H   0  0  0  0  0  0
  -28.0921  -29.1370   21.1354 H   0  0  0  0  0  0
  -26.0329  -25.9953   18.9917 H   0  0  0  0  0  0
  -23.9720  -27.3040   19.0306 H   0  0  0  0  0  0
  -23.6961  -30.6022   19.4090 H   0  0  0  0  0  0
  -22.7213  -29.2474   19.8803 H   0  0  0  0  0  0
  -25.1260  -36.2021   25.0850 H   0  0  0  0  0  0
  -20.9968  -28.3208   24.1472 H   0  0  0  0  0  0
  -20.5656  -26.2252   23.3629 H   0  0  0  0  0  0
  -21.6622  -26.7430   22.1217 H   0  0  0  0  0  0
  -19.6870  -25.6309   21.1221 H   0  0  0  0  0  0
  -19.6632  -27.3242   20.6802 H   0  0  0  0  0  0
  -17.4177  -26.6726   21.4041 H   0  0  0  0  0  0
  -18.0285  -26.0020   22.8996 H   0  0  0  0  0  0
  -19.7907  -30.7254   24.2326 H   0  0  0  0  0  0
  -17.4975  -31.6257   24.5167 H   0  0  0  0  0  0
  -15.5327  -30.2977   23.7602 H   0  0  0  0  0  0
  -15.8674  -28.0802   22.7054 H   0  0  0  0  0  0
  -24.5934  -30.6998   25.7826 H   0  0  0  0  0  0
  -24.8944  -32.2799   26.4959 H   0  0  0  0  0  0
  -25.8133  -30.8826   27.0207 H   0  0  0  0  0  0
  -26.2785  -29.6803   24.1102 H   0  0  0  0  0  0
  -27.4082  -29.7239   25.4450 H   0  0  0  0  0  0
  -27.8608  -30.4350   23.9128 H   0  0  0  0  0  0
  -27.2679  -33.3571   26.2079 H   0  0  0  0  0  0
  -28.3835  -32.6853   25.0266 H   0  0  0  0  0  0
  -28.0738  -31.8374   26.5345 H   0  0  0  0  0  0
  -28.2618  -38.0096   24.7511 H   0  0  0  0  0  0
  -28.1073  -36.2634   24.6311 H   0  0  0  0  0  0
  -27.2314  -37.1474   25.8877 H   0  0  0  0  0  0
  -20.9330  -29.8718   21.6946 H   0  0  0  0  0  0
  -26.0211  -38.2902   24.1392 H   0  0  0  0  0  0
  -34.2079  -18.3859   20.0712 H   0  0  0  0  0  0
  -35.4232  -19.7298   19.7602 H   0  0  0  0  0  0
  -36.0187  -19.7747   22.2044 H   0  0  0  0  0  0
  -34.8185  -18.4241   22.5364 H   0  0  0  0  0  0
  -28.2274  -16.7609   22.5507 H   0  0  0  0  0  0
  -28.3732  -18.1480   21.5028 H   0  0  0  0  0  0
  -31.4508  -17.1375   24.1956 H   0  0  0  0  0  0
  -29.9820  -16.2193   24.1597 H   0  0  0  0  0  0
  -28.7907  -16.0505   20.2285 H   0  0  0  0  0  0
  -30.2368  -17.0126   20.2484 H   0  0  0  0  0  0
  -31.7161  -14.9148   23.0260 H   0  0  0  0  0  0
  -32.1523  -16.2576   21.9985 H   0  0  0  0  0  0
  -34.1300  -21.2304   21.3521 H   0  0  0  0  0  0
  -32.4501  -21.3959   19.4582 H   0  0  0  0  0  0
  -30.7600  -21.1089   19.1924 H   0  0  0  0  0  0
  -31.9727  -23.4802   20.1361 H   0  0  0  0  0  0
  -31.2806  -22.8332   21.6034 H   0  0  0  0  0  0
  -30.5316  -25.3552   20.1434 H   0  0  0  0  0  0
  -29.6252  -24.8513   21.5544 H   0  0  0  0  0  0
  -27.5226  -24.8835   20.2877 H   0  0  0  0  0  0
  -28.3737  -25.2132   18.7718 H   0  0  0  0  0  0
  -29.1521  -22.7666   20.4738 H   0  0  0  0  0  0
  -29.8303  -23.2800   19.0872 H   0  0  0  0  0  0
  1 25  1  0  0  0
  1 30  2  0  0  0
  1 88  1  0  0  0
  2  3  1  0  0  0
  2 25  1  0  0  0
  2 90  1  0  0  0
  2 91  1  0  0  0
  3  4  1  0  0  0
  3 92  1  0  0  0
  3 93  1  0  0  0
  4  5  1  0  0  0
  4 94  1  0  0  0
  4 95  1  0  0  0
  5  6  1  0  0  0
  5 26  1  0  0  0
  5 96  1  0  0  0
  6 25  1  0  0  0
  6 97  1  0  0  0
  6 98  1  0  0  0
  7  8  2  0  0  0
  7 26  1  0  0  0
  7 29  1  0  0  0
  8  9  1  0  0  0
  8 22  1  0  0  0
  9 10  1  0  0  0
  9 27  2  0  0  0
 10 11  2  0  0  0
 10 15  1  0  0  0
 11 12  1  0  0  0
 11 99  1  0  0  0
 12 13  2  0  0  0
 12100  1  0  0  0
 13 14  1  0  0  0
 13 31  1  0  0  0
 14 15  2  0  0  0
 14101  1  0  0  0
 15102  1  0  0  0
 16 17  2  0  0  0
 16 21  1  0  0  0
 16 31  1  0  0  0
 17 18  1  0  0  0
 17103  1  0  0  0
 18 19  2  0  0  0
 18104  1  0  0  0
 19 20  1  0  0  0
 19 24  1  0  0  0
 20 21  2  0  0  0
 20105  1  0  0  0
 21 23  1  0  0  0
 22 28  1  0  0  0
 22 32  2  0  0  0
 26 27  1  0  0  0
 28106  1  0  0  0
 28107  1  0  0  0
 29108  1  0  0  0
 29109  1  0  0  0
 33 34  1  0  0  0
 33 66  1  0  0  0
 33 70  2  0  0  0
 34 36  1  0  0  0
 34 59  1  0  0  0
 34110  1  0  0  0
 35 44  2  0  0  0
 35 45  1  0  0  0
 35 68  1  0  0  0
 36 56  1  0  0  0
 36111  1  0  0  0
 37 39  1  0  0  0
 37 47  1  0  0  0
 37 66  1  0  0  0
 37112  1  0  0  0
 38 43  2  0  0  0
 38 46  1  0  0  0
 38 47  1  0  0  0
 39 64  1  0  0  0
 39 67  2  0  0  0
 40 52  1  0  0  0
 40 53  2  0  0  0
 40 58  1  0  0  0
 41113  1  0  0  0
 41114  1  0  0  0
 41115  1  0  0  0
 41 48  1  0  0  0
 42 43  1  0  0  0
 42 66  1  0  0  0
 42116  1  0  0  0
 42117  1  0  0  0
 43 44  1  0  0  0
 44118  1  0  0  0
 45 46  2  0  0  0
 45119  1  0  0  0
 46120  1  0  0  0
 47121  1  0  0  0
 47122  1  0  0  0
 48 56  1  0  0  0
 48 65  1  0  0  0
 48123  1  0  0  0
 49 50  1  0  0  0
 49 53  1  0  0  0
 49 64  1  0  0  0
 49124  1  0  0  0
 50 51  1  0  0  0
 50125  1  0  0  0
 50126  1  0  0  0
 51 52  1  0  0  0
 51127  1  0  0  0
 51128  1  0  0  0
 52129  1  0  0  0
 52130  1  0  0  0
 53 54  1  0  0  0
 54 55  2  0  0  0
 54131  1  0  0  0
 55 57  1  0  0  0
 55132  1  0  0  0
 56 69  2  0  0  0
 57 58  2  0  0  0
 57133  1  0  0  0
 58134  1  0  0  0
 59 60  1  0  0  0
 59 61  1  0  0  0
 59 62  1  0  0  0
 60135  1  0  0  0
 60136  1  0  0  0
 60137  1  0  0  0
 61138  1  0  0  0
 61139  1  0  0  0
 61140  1  0  0  0
 62141  1  0  0  0
 62142  1  0  0  0
 62143  1  0  0  0
 63 65  1  0  0  0
 63144  1  0  0  0
 63145  1  0  0  0
 63146  1  0  0  0
 64147  1  0  0  0
 65148  1  0  0  0
 68 83  1  0  0  0
 71 84  2  0  0  0
 71 86  1  0  0  0
 71 79  1  0  0  0
 72 84  1  0  0  0
 72 85  2  0  0  0
 72 87  1  0  0  0
 73 74  1  0  0  0
 73 79  1  0  0  0
 73149  1  0  0  0
 73150  1  0  0  0
 74 79  1  0  0  0
 74151  1  0  0  0
 74152  1  0  0  0
 75 77  1  0  0  0
 75 87  1  0  0  0
 75153  1  0  0  0
 75154  1  0  0  0
 76 78  1  0  0  0
 76 87  1  0  0  0
 76155  1  0  0  0
 76156  1  0  0  0
 77 88  1  0  0  0
 77157  1  0  0  0
 77158  1  0  0  0
 78 88  1  0  0  0
 78159  1  0  0  0
 78160  1  0  0  0
 79161  1  0  0  0
 80 81  1  0  0  0
 80 86  1  0  0  0
 80162  1  0  0  0
 80163  1  0  0  0
 81 89  1  0  0  0
 81164  1  0  0  0
 81165  1  0  0  0
 82 83  1  0  0  0
 82 89  1  0  0  0
 82166  1  0  0  0
 82167  1  0  0  0
 83168  1  0  0  0
 83169  1  0  0  0
 85 86  1  0  0  0
 89170  1  0  0  0
 89171  1  0  0  0
M  CHG  1  89   1
M  ISO  4   1 100  68 101  83 101  88 100
M  END
> <chiral flag>
0

> <version>
0

> <s_m_source_file>
/data/baiqing/PycharmProjects/Reinvent-master-3.2/result/LINK_invent/BTK/process_docking_weight1_custom_sum_contain_oxygen_bond_distance_aromatic_linkinvent_7_9_3/rearranged_h_0195.sdf

> <i_m_source_file_index>
85

> <r_mmod_Potential_Energy-OPLS-2005>
-127.908271789551

> <r_mmod_Stretch_Energy-OPLS-2005>
35.1451454162598

> <r_mmod_Bend_Energy-OPLS-2005>
113.106437683105

> <r_mmod_Torsional_Energy-OPLS-2005>
371.700775146484

> <r_mmod_Improper_Torsional_Energy-OPLS-2005>
11.1577863693237

> <r_mmod_Van_der_Waal_Energy-OPLS-2005>
147.514099121094

> <r_mmod_Electrostatic_Energy-OPLS-2005>
-328.027648925781

> <r_mmod_Solvation_Energy-OPLS-2005>
-488.837493896484

> <b_mmod_Minimization_Converged-OPLS-2005>
0

> <r_mmod_RMS_Derivative-OPLS-2005>
3.92001390457153

$$$$
87
                    3D
 Structure written by MMmdl.
162171  0  0  1  0            999 V2000
  -30.7004  -14.5404   20.5796 C   0  0  0  0  0  0
  -30.4174  -12.3544   19.4409 C   0  0  0  0  0  0
  -29.4963  -12.5194   18.2152 C   0  0  0  0  0  0
  -28.0213  -12.3612   18.6290 C   0  0  0  0  0  0
  -27.6552  -13.2180   19.8706 C   0  0  2  0  0  0
  -28.6956  -13.0499   21.0003 C   0  0  0  0  0  0
  -25.2563  -13.8179   20.5696 C   0  0  0  0  0  0
  -24.1838  -13.0440   20.9201 C   0  0  0  0  0  0
  -24.6408  -11.6910   20.8751 C   0  0  0  0  0  0
  -23.9076  -10.4289   21.0416 C   0  0  0  0  0  0
  -24.3624   -9.4200   21.9189 C   0  0  0  0  0  0
  -23.6295   -8.2235   22.0752 C   0  0  0  0  0  0
  -22.4276   -8.0282   21.3545 C   0  0  0  0  0  0
  -21.9919   -9.0257   20.4644 C   0  0  0  0  0  0
  -22.7252  -10.2136   20.3061 C   0  0  0  0  0  0
  -21.6851   -6.0739   22.5282 C   0  0  0  0  0  0
  -21.4018   -6.5645   23.8219 C   0  0  0  0  0  0
  -21.3660   -5.6793   24.9181 C   0  0  0  0  0  0
  -21.6049   -4.3055   24.7235 C   0  0  0  0  0  0
  -21.8817   -3.8147   23.4355 C   0  0  0  0  0  0
  -21.9194   -4.6965   22.3408 C   0  0  0  0  0  0
  -22.7860  -13.5229   21.1857 C   0  0  0  0  0  0
  -22.1659   -4.2150   21.0987 F   0  0  0  0  0  0
  -21.5626   -3.4543   25.7748 F   0  0  0  0  0  0
  -30.0193  -13.3626   20.4429 N   0  0  0  0  0  0
  -26.2998  -12.9369   20.3347 N   0  0  0  0  0  0
  -25.9334  -11.6519   20.5767 N   0  0  0  0  0  0
  -22.0500  -12.8214   22.0408 N   0  0  0  0  0  0
  -25.4273  -15.1897   20.4084 N   0  0  0  0  0  0
  -31.8205  -14.7004   20.0834 O   0  0  0  0  0  0
  -21.6642   -6.8881   21.4242 O   0  0  0  0  0  0
  -22.3547  -14.5539   20.6710 O   0  0  0  0  0  0
  -24.6211  -31.8628   23.2069 C   0  0  0  0  0  0
  -25.9078  -32.4790   23.8384 C   0  0  1  0  0  0
  -27.2243  -27.3642   20.1025 C   0  0  0  0  0  0
  -25.5908  -33.8597   24.2307 N   0  0  0  0  0  0
  -23.4114  -30.4874   21.5489 C   0  0  2  0  0  0
  -24.8559  -28.9487   20.1100 C   0  0  0  0  0  0
  -22.7439  -29.4640   22.4963 C   0  0  0  0  0  0
  -18.0280  -28.1377   22.8495 C   0  0  0  0  0  0
  -24.1486  -36.7304   23.2634 C   0  0  0  0  0  0
  -25.9477  -30.8047   21.3733 C   0  0  0  0  0  0
  -26.0202  -29.4360   20.7150 C   0  0  0  0  0  0
  -27.2047  -28.6520   20.7062 C   0  0  0  0  0  0
  -26.0409  -26.9202   19.4668 C   0  0  0  0  0  0
  -24.8656  -27.6944   19.4793 C   0  0  0  0  0  0
  -23.6215  -29.8226   20.1627 C   0  0  0  0  0  0
  -25.4106  -36.3093   24.0335 C   0  0  1  0  0  0
  -20.5874  -28.3681   23.1297 C   0  0  2  0  0  0
  -20.6768  -26.9407   22.5416 C   0  0  0  0  0  0
  -19.5745  -26.6381   21.5213 C   0  0  0  0  0  0
  -18.1922  -26.7927   22.1620 C   0  0  0  0  0  0
  -19.1531  -28.8846   23.2892 C   0  0  0  0  0  0
  -18.9453  -30.1454   23.8903 C   0  0  0  0  0  0
  -17.6452  -30.6584   24.0566 C   0  0  0  0  0  0
  -25.9042  -34.9459   23.5122 C   0  0  0  0  0  0
  -16.5347  -29.9080   23.6328 C   0  0  0  0  0  0
  -16.7270  -28.6496   23.0354 C   0  0  0  0  0  0
  -26.4487  -31.6585   25.0736 C   0  0  0  0  0  0
  -25.3740  -31.3702   26.1474 C   0  0  0  0  0  0
  -27.0321  -30.3013   24.6162 C   0  0  0  0  0  0
  -27.6060  -32.4312   25.7494 C   0  0  0  0  0  0
  -27.5595  -37.1790   24.8452 C   0  0  0  0  0  0
  -21.4158  -29.3037   22.3700 N   0  0  0  0  0  0
  -26.4284  -37.3786   23.9424 N   0  0  0  0  0  0
  -24.6785  -31.0676   22.1001 N   0  0  0  0  0  0
  -23.4180  -28.8171   23.3027 O   0  0  0  0  0  0
  -28.3724  -26.5754   20.1560 O   0  0  0  0  0  0
  -26.5609  -34.8917   22.4688 O   0  0  0  0  0  0
  -23.5392  -32.1412   23.7426 O   0  0  0  0  0  0
  -30.4654  -17.7145   22.3732 C   0  0  0  0  0  0
  -30.9457  -20.9441   20.8400 C   0  0  0  0  0  0
  -30.8399  -16.2195   22.3587 C   0  0  0  0  0  0
  -30.9019  -22.4823   20.8997 C   0  0  0  0  0  0
  -29.3061  -16.6321   20.6095 C   0  0  0  0  0  0
  -28.7307  -21.7999   20.5520 C   0  0  0  0  0  0
  -29.9447  -18.0104   20.9690 C   0  0  1  0  0  0
  -29.5797  -20.5046   20.3075 C   0  0  2  0  0  0
  -29.3219  -24.2987   20.7128 C   0  0  0  0  0  0
  -28.2869  -25.1383   19.8893 C   0  0  0  0  0  0
  -30.0987  -15.5577   21.2692 N   0  0  0  0  0  0
  -29.6552  -22.9162   20.2581 N   0  0  0  0  0  0
  -29.0445  -19.2214   20.8947 N   0  3  0  0  0  0
  -31.4632  -12.4481   19.1446 H   0  0  0  0  0  0
  -30.3179  -11.3517   19.8594 H   0  0  0  0  0  0
  -29.7500  -11.7860   17.4483 H   0  0  0  0  0  0
  -29.6515  -13.5010   17.7640 H   0  0  0  0  0  0
  -27.8515  -11.3054   18.8446 H   0  0  0  0  0  0
  -27.3656  -12.6095   17.7933 H   0  0  0  0  0  0
  -27.6821  -14.2596   19.5500 H   0  0  0  0  0  0
  -28.6851  -12.0275   21.3814 H   0  0  0  0  0  0
  -28.4453  -13.6869   21.8497 H   0  0  0  0  0  0
  -25.2769   -9.5674   22.4763 H   0  0  0  0  0  0
  -24.0008   -7.4628   22.7472 H   0  0  0  0  0  0
  -21.0846   -8.8787   19.8943 H   0  0  0  0  0  0
  -22.3718  -10.9684   19.6171 H   0  0  0  0  0  0
  -21.2009   -7.6151   23.9724 H   0  0  0  0  0  0
  -21.1481   -6.0526   25.9085 H   0  0  0  0  0  0
  -22.0590   -2.7609   23.2865 H   0  0  0  0  0  0
  -22.4115  -11.9880   22.4802 H   0  0  0  0  0  0
  -21.1113  -13.1236   22.2600 H   0  0  0  0  0  0
  -24.6553  -15.8414   20.4997 H   0  0  0  0  0  0
  -26.2734  -15.6211   20.0603 H   0  0  0  0  0  0
  -26.7138  -32.5468   23.1131 H   0  0  0  0  0  0
  -25.0059  -33.9749   25.0453 H   0  0  0  0  0  0
  -22.7039  -31.3073   21.4094 H   0  0  0  0  0  0
  -23.3764  -35.9618   23.3246 H   0  0  0  0  0  0
  -24.3592  -36.8979   22.2061 H   0  0  0  0  0  0
  -23.7212  -37.6481   23.6688 H   0  0  0  0  0  0
  -26.0751  -31.5697   20.6068 H   0  0  0  0  0  0
  -26.8306  -30.8511   21.9996 H   0  0  0  0  0  0
  -28.0994  -29.0211   21.1874 H   0  0  0  0  0  0
  -25.9995  -25.9721   18.9517 H   0  0  0  0  0  0
  -23.9742  -27.3196   18.9949 H   0  0  0  0  0  0
  -23.7323  -30.5990   19.4051 H   0  0  0  0  0  0
  -22.7426  -29.2471   19.8660 H   0  0  0  0  0  0
  -25.1278  -36.1954   25.0828 H   0  0  0  0  0  0
  -20.9974  -28.3254   24.1415 H   0  0  0  0  0  0
  -20.5673  -26.2291   23.3609 H   0  0  0  0  0  0
  -21.6637  -26.7436   22.1212 H   0  0  0  0  0  0
  -19.6906  -25.6293   21.1237 H   0  0  0  0  0  0
  -19.6685  -27.3198   20.6747 H   0  0  0  0  0  0
  -17.4200  -26.6702   21.4010 H   0  0  0  0  0  0
  -18.0303  -26.0055   22.9001 H   0  0  0  0  0  0
  -19.7926  -30.7276   24.2270 H   0  0  0  0  0  0
  -17.5000  -31.6263   24.5168 H   0  0  0  0  0  0
  -15.5349  -30.2985   23.7637 H   0  0  0  0  0  0
  -15.8671  -28.0812   22.7068 H   0  0  0  0  0  0
  -24.5913  -30.7053   25.7807 H   0  0  0  0  0  0
  -24.8936  -32.2858   26.4933 H   0  0  0  0  0  0
  -25.8083  -30.8860   27.0228 H   0  0  0  0  0  0
  -26.2882  -29.6764   24.1205 H   0  0  0  0  0  0
  -27.4044  -29.7267   25.4655 H   0  0  0  0  0  0
  -27.8743  -30.4304   23.9360 H   0  0  0  0  0  0
  -27.2680  -33.3605   26.2092 H   0  0  0  0  0  0
  -28.3855  -32.6880   25.0309 H   0  0  0  0  0  0
  -28.0741  -31.8422   26.5389 H   0  0  0  0  0  0
  -28.2559  -38.0141   24.7574 H   0  0  0  0  0  0
  -28.1145  -36.2677   24.6174 H   0  0  0  0  0  0
  -27.2324  -37.1323   25.8853 H   0  0  0  0  0  0
  -20.9332  -29.8772   21.6924 H   0  0  0  0  0  0
  -26.0170  -38.2853   24.1468 H   0  0  0  0  0  0
  -31.3112  -18.3455   22.6500 H   0  0  0  0  0  0
  -29.6801  -17.8791   23.1130 H   0  0  0  0  0  0
  -31.1420  -20.5580   21.8399 H   0  0  0  0  0  0
  -31.7490  -20.5922   20.1919 H   0  0  0  0  0  0
  -30.5973  -15.7486   23.3126 H   0  0  0  0  0  0
  -31.9184  -16.1160   22.2251 H   0  0  0  0  0  0
  -31.7727  -22.9339   20.4213 H   0  0  0  0  0  0
  -30.9129  -22.7919   21.9476 H   0  0  0  0  0  0
  -29.2521  -16.4907   19.5284 H   0  0  0  0  0  0
  -28.2873  -16.5691   20.9938 H   0  0  0  0  0  0
  -28.4145  -21.8533   21.5958 H   0  0  0  0  0  0
  -27.8358  -21.8383   19.9289 H   0  0  0  0  0  0
  -30.7935  -18.1576   20.2983 H   0  0  0  0  0  0
  -29.6684  -20.3582   19.2293 H   0  0  0  0  0  0
  -29.0286  -24.2862   21.7641 H   0  0  0  0  0  0
  -30.2519  -24.8690   20.6781 H   0  0  0  0  0  0
  -27.3022  -24.7349   20.1242 H   0  0  0  0  0  0
  -28.4525  -24.9858   18.8219 H   0  0  0  0  0  0
  -28.6934  -19.4092   21.8201 H   0  0  0  0  0  0
  -28.2452  -18.9738   20.3338 H   0  0  0  0  0  0
  1 25  1  0  0  0
  1 30  2  0  0  0
  1 81  1  0  0  0
  2  3  1  0  0  0
  2 25  1  0  0  0
  2 84  1  0  0  0
  2 85  1  0  0  0
  3  4  1  0  0  0
  3 86  1  0  0  0
  3 87  1  0  0  0
  4  5  1  0  0  0
  4 88  1  0  0  0
  4 89  1  0  0  0
  5  6  1  0  0  0
  5 26  1  0  0  0
  5 90  1  0  0  0
  6 25  1  0  0  0
  6 91  1  0  0  0
  6 92  1  0  0  0
  7  8  2  0  0  0
  7 26  1  0  0  0
  7 29  1  0  0  0
  8  9  1  0  0  0
  8 22  1  0  0  0
  9 10  1  0  0  0
  9 27  2  0  0  0
 10 11  2  0  0  0
 10 15  1  0  0  0
 11 12  1  0  0  0
 11 93  1  0  0  0
 12 13  2  0  0  0
 12 94  1  0  0  0
 13 14  1  0  0  0
 13 31  1  0  0  0
 14 15  2  0  0  0
 14 95  1  0  0  0
 15 96  1  0  0  0
 16 17  2  0  0  0
 16 21  1  0  0  0
 16 31  1  0  0  0
 17 18  1  0  0  0
 17 97  1  0  0  0
 18 19  2  0  0  0
 18 98  1  0  0  0
 19 20  1  0  0  0
 19 24  1  0  0  0
 20 21  2  0  0  0
 20 99  1  0  0  0
 21 23  1  0  0  0
 22 28  1  0  0  0
 22 32  2  0  0  0
 26 27  1  0  0  0
 28100  1  0  0  0
 28101  1  0  0  0
 29102  1  0  0  0
 29103  1  0  0  0
 33 34  1  0  0  0
 33 66  1  0  0  0
 33 70  2  0  0  0
 34 36  1  0  0  0
 34 59  1  0  0  0
 34104  1  0  0  0
 35 44  2  0  0  0
 35 45  1  0  0  0
 35 68  1  0  0  0
 36 56  1  0  0  0
 36105  1  0  0  0
 37 39  1  0  0  0
 37 47  1  0  0  0
 37 66  1  0  0  0
 37106  1  0  0  0
 38 43  2  0  0  0
 38 46  1  0  0  0
 38 47  1  0  0  0
 39 64  1  0  0  0
 39 67  2  0  0  0
 40 52  1  0  0  0
 40 53  2  0  0  0
 40 58  1  0  0  0
 41107  1  0  0  0
 41108  1  0  0  0
 41109  1  0  0  0
 41 48  1  0  0  0
 42 43  1  0  0  0
 42 66  1  0  0  0
 42110  1  0  0  0
 42111  1  0  0  0
 43 44  1  0  0  0
 44112  1  0  0  0
 45 46  2  0  0  0
 45113  1  0  0  0
 46114  1  0  0  0
 47115  1  0  0  0
 47116  1  0  0  0
 48 56  1  0  0  0
 48 65  1  0  0  0
 48117  1  0  0  0
 49 50  1  0  0  0
 49 53  1  0  0  0
 49 64  1  0  0  0
 49118  1  0  0  0
 50 51  1  0  0  0
 50119  1  0  0  0
 50120  1  0  0  0
 51 52  1  0  0  0
 51121  1  0  0  0
 51122  1  0  0  0
 52123  1  0  0  0
 52124  1  0  0  0
 53 54  1  0  0  0
 54 55  2  0  0  0
 54125  1  0  0  0
 55 57  1  0  0  0
 55126  1  0  0  0
 56 69  2  0  0  0
 57 58  2  0  0  0
 57127  1  0  0  0
 58128  1  0  0  0
 59 60  1  0  0  0
 59 61  1  0  0  0
 59 62  1  0  0  0
 60129  1  0  0  0
 60130  1  0  0  0
 60131  1  0  0  0
 61132  1  0  0  0
 61133  1  0  0  0
 61134  1  0  0  0
 62135  1  0  0  0
 62136  1  0  0  0
 62137  1  0  0  0
 63 65  1  0  0  0
 63138  1  0  0  0
 63139  1  0  0  0
 63140  1  0  0  0
 64141  1  0  0  0
 65142  1  0  0  0
 68 80  1  0  0  0
 71 73  1  0  0  0
 71 77  1  0  0  0
 71143  1  0  0  0
 71144  1  0  0  0
 72 74  1  0  0  0
 72 78  1  0  0  0
 72145  1  0  0  0
 72146  1  0  0  0
 73 81  1  0  0  0
 73147  1  0  0  0
 73148  1  0  0  0
 74 82  1  0  0  0
 74149  1  0  0  0
 74150  1  0  0  0
 75 77  1  0  0  0
 75 81  1  0  0  0
 75151  1  0  0  0
 75152  1  0  0  0
 76 78  1  0  0  0
 76 82  1  0  0  0
 76153  1  0  0  0
 76154  1  0  0  0
 77 83  1  0  0  0
 77155  1  0  0  0
 78 83  1  0  0  0
 78156  1  0  0  0
 79 80  1  0  0  0
 79 82  1  0  0  0
 79157  1  0  0  0
 79158  1  0  0  0
 80159  1  0  0  0
 80160  1  0  0  0
 83161  1  0  0  0
 83162  1  0  0  0
M  CHG  1  83   1
M  ISO  4   1 100  68 101  80 101  81 100
M  END
> <chiral flag>
0

> <version>
0

> <s_m_source_file>
/data/baiqing/PycharmProjects/Reinvent-master-3.2/result/LINK_invent/BTK/process_docking_weight1_custom_sum_contain_oxygen_bond_distance_aromatic_linkinvent_7_9_3/rearranged_h_0195.sdf

> <i_m_source_file_index>
86

> <r_mmod_Potential_Energy-OPLS-2005>
141.446563720703

> <r_mmod_Stretch_Energy-OPLS-2005>
57.694938659668

> <r_mmod_Bend_Energy-OPLS-2005>
171.392730712891

> <r_mmod_Torsional_Energy-OPLS-2005>
404.470825195312

> <r_mmod_Improper_Torsional_Energy-OPLS-2005>
5.73524236679077

> <r_mmod_Van_der_Waal_Energy-OPLS-2005>
123.758247375488

> <r_mmod_Electrostatic_Energy-OPLS-2005>
-175.055068969727

> <r_mmod_Solvation_Energy-OPLS-2005>
-472.457672119141

> <b_mmod_Minimization_Converged-OPLS-2005>
0

> <r_mmod_RMS_Derivative-OPLS-2005>
1.37841165065765

$$$$
88
                    3D
 Structure written by MMmdl.
158167  0  0  1  0            999 V2000
  -30.5414  -14.9880   20.3997 C   0  0  0  0  0  0
  -30.4361  -12.6152   19.4948 C   0  0  0  0  0  0
  -29.5167  -12.5172   18.2562 C   0  0  0  0  0  0
  -28.0586  -12.2860   18.6899 C   0  0  0  0  0  0
  -27.6252  -13.2462   19.8271 C   0  0  2  0  0  0
  -28.6658  -13.3153   20.9635 C   0  0  0  0  0  0
  -25.2484  -13.8208   20.5699 C   0  0  0  0  0  0
  -24.1776  -13.0445   20.9205 C   0  0  0  0  0  0
  -24.6374  -11.6927   20.8732 C   0  0  0  0  0  0
  -23.9064  -10.4299   21.0396 C   0  0  0  0  0  0
  -24.3608   -9.4206   21.9185 C   0  0  0  0  0  0
  -23.6284   -8.2249   22.0748 C   0  0  0  0  0  0
  -22.4273   -8.0280   21.3532 C   0  0  0  0  0  0
  -21.9922   -9.0236   20.4627 C   0  0  0  0  0  0
  -22.7246  -10.2121   20.3034 C   0  0  0  0  0  0
  -21.6848   -6.0736   22.5269 C   0  0  0  0  0  0
  -21.4016   -6.5630   23.8200 C   0  0  0  0  0  0
  -21.3651   -5.6774   24.9160 C   0  0  0  0  0  0
  -21.6043   -4.3045   24.7222 C   0  0  0  0  0  0
  -21.8818   -3.8137   23.4338 C   0  0  0  0  0  0
  -21.9202   -4.6959   22.3392 C   0  0  0  0  0  0
  -22.7799  -13.5224   21.1860 C   0  0  0  0  0  0
  -22.1661   -4.2152   21.0970 F   0  0  0  0  0  0
  -21.5634   -3.4532   25.7734 F   0  0  0  0  0  0
  -29.9360  -13.7291   20.3575 N   0  0  0  0  0  0
  -26.2874  -12.9423   20.3214 N   0  0  0  0  0  0
  -25.9305  -11.6558   20.5736 N   0  0  0  0  0  0
  -22.0432  -12.8175   22.0375 N   0  0  0  0  0  0
  -25.4243  -15.1936   20.4140 N   0  0  0  0  0  0
  -31.7485  -15.0182   20.1300 O   0  0  0  0  0  0
  -21.6639   -6.8867   21.4226 O   0  0  0  0  0  0
  -22.3495  -14.5548   20.6731 O   0  0  0  0  0  0
  -24.6488  -31.8424   23.1863 C   0  0  0  0  0  0
  -25.9244  -32.4702   23.8264 C   0  0  1  0  0  0
  -27.2060  -27.0819   20.1575 C   0  0  0  0  0  0
  -25.5997  -33.8507   24.2193 N   0  0  0  0  0  0
  -23.4536  -30.4606   21.5350 C   0  0  2  0  0  0
  -24.9051  -28.8864   20.1105 C   0  0  0  0  0  0
  -22.7599  -29.4530   22.4877 C   0  0  0  0  0  0
  -18.0292  -28.1427   22.8491 C   0  0  0  0  0  0
  -24.1462  -36.7194   23.2623 C   0  0  0  0  0  0
  -26.0153  -30.6991   21.3937 C   0  0  0  0  0  0
  -26.0849  -29.3049   20.7364 C   0  0  0  0  0  0
  -27.2357  -28.4177   20.7467 C   0  0  0  0  0  0
  -26.0002  -26.7923   19.4783 C   0  0  0  0  0  0
  -24.8779  -27.6439   19.4662 C   0  0  0  0  0  0
  -23.6825  -29.7900   20.1551 C   0  0  0  0  0  0
  -25.4093  -36.3012   24.0322 C   0  0  1  0  0  0
  -20.5913  -28.3741   23.1257 C   0  0  2  0  0  0
  -20.6790  -26.9456   22.5388 C   0  0  0  0  0  0
  -19.5741  -26.6401   21.5223 C   0  0  0  0  0  0
  -18.1902  -26.7973   22.1603 C   0  0  0  0  0  0
  -19.1552  -28.8901   23.2848 C   0  0  0  0  0  0
  -18.9477  -30.1500   23.8882 C   0  0  0  0  0  0
  -17.6488  -30.6630   24.0563 C   0  0  0  0  0  0
  -25.9089  -34.9418   23.5051 C   0  0  0  0  0  0
  -16.5366  -29.9113   23.6383 C   0  0  0  0  0  0
  -16.7266  -28.6533   23.0407 C   0  0  0  0  0  0
  -26.4575  -31.6585   25.0713 C   0  0  0  0  0  0
  -25.3740  -31.3712   26.1381 C   0  0  0  0  0  0
  -27.0519  -30.3031   24.6269 C   0  0  0  0  0  0
  -27.6080  -32.4396   25.7506 C   0  0  0  0  0  0
  -27.5580  -37.1705   24.8430 C   0  0  0  0  0  0
  -21.4277  -29.3083   22.3666 N   0  0  0  0  0  0
  -26.4216  -37.3776   23.9499 N   0  0  0  0  0  0
  -24.7266  -31.0237   22.0925 N   0  0  0  0  0  0
  -23.4224  -28.8045   23.3014 O   0  0  0  0  0  0
  -28.2080  -26.0265   20.2558 O   0  0  0  0  0  0
  -26.5637  -34.8928   22.4609 O   0  0  0  0  0  0
  -23.5601  -32.1333   23.7061 O   0  0  0  0  0  0
  -29.0478  -20.0801   20.5258 C   0  0  0  0  0  0
  -28.3520  -20.9086   21.4971 C   0  0  0  0  0  0
  -29.2659  -22.2162   19.3445 C   0  0  0  0  0  0
  -28.5277  -23.0419   20.2869 C   0  0  0  0  0  0
  -29.2629  -17.2063   19.5958 C   0  0  0  0  0  0
  -30.4124  -17.4891   21.2098 C   0  0  0  0  0  0
  -29.2527  -18.4065   20.6439 C   0  0  0  0  0  0
  -29.7767  -22.8238   18.0535 C   0  0  0  0  0  0
  -27.8397  -20.2733   22.7932 C   0  0  0  0  0  0
  -27.8017  -24.5292   19.9790 C   0  0  0  0  0  0
  -29.5286  -20.8349   19.4709 N   0  0  0  0  0  0
  -28.0986  -22.2885   21.3648 N   0  0  0  0  0  0
  -29.8182  -16.2115   20.6190 N   0  0  0  0  0  0
  -27.4181  -21.2653   23.7936 N   0  3  0  0  0  0
  -31.4635  -12.7779   19.1682 H   0  0  0  0  0  0
  -30.4446  -11.6742   20.0485 H   0  0  0  0  0  0
  -29.8472  -11.7085   17.6008 H   0  0  0  0  0  0
  -29.5844  -13.4355   17.6698 H   0  0  0  0  0  0
  -27.9882  -11.2550   19.0415 H   0  0  0  0  0  0
  -27.3843  -12.3597   17.8361 H   0  0  0  0  0  0
  -27.5797  -14.2362   19.3702 H   0  0  0  0  0  0
  -28.7634  -12.3536   21.4716 H   0  0  0  0  0  0
  -28.3546  -14.0400   21.7161 H   0  0  0  0  0  0
  -25.2749   -9.5706   22.4765 H   0  0  0  0  0  0
  -23.9989   -7.4659   22.7492 H   0  0  0  0  0  0
  -21.0861   -8.8752   19.8928 H   0  0  0  0  0  0
  -22.3708  -10.9648   19.6136 H   0  0  0  0  0  0
  -21.1987   -7.6140   23.9705 H   0  0  0  0  0  0
  -21.1468   -6.0508   25.9062 H   0  0  0  0  0  0
  -22.0603   -2.7603   23.2839 H   0  0  0  0  0  0
  -22.4053  -11.9805   22.4702 H   0  0  0  0  0  0
  -21.1031  -13.1164   22.2539 H   0  0  0  0  0  0
  -24.6646  -15.8563   20.5199 H   0  0  0  0  0  0
  -26.2904  -15.6208   20.1117 H   0  0  0  0  0  0
  -26.7304  -32.5310   23.0985 H   0  0  0  0  0  0
  -25.0299  -33.9632   25.0446 H   0  0  0  0  0  0
  -22.7553  -31.2858   21.3757 H   0  0  0  0  0  0
  -23.3845  -35.9390   23.3090 H   0  0  0  0  0  0
  -24.3597  -36.9027   22.2081 H   0  0  0  0  0  0
  -23.7066  -37.6258   23.6789 H   0  0  0  0  0  0
  -26.1713  -31.4490   20.6159 H   0  0  0  0  0  0
  -26.8885  -30.7572   22.0317 H   0  0  0  0  0  0
  -28.1262  -28.7246   21.2782 H   0  0  0  0  0  0
  -25.8628  -25.8515   18.9713 H   0  0  0  0  0  0
  -23.9767  -27.3177   18.9677 H   0  0  0  0  0  0
  -23.8157  -30.5630   19.3974 H   0  0  0  0  0  0
  -22.7984  -29.2293   19.8480 H   0  0  0  0  0  0
  -25.1252  -36.1785   25.0810 H   0  0  0  0  0  0
  -20.9972  -28.3309   24.1389 H   0  0  0  0  0  0
  -20.5768  -26.2339   23.3585 H   0  0  0  0  0  0
  -21.6641  -26.7514   22.1117 H   0  0  0  0  0  0
  -19.6907  -25.6311   21.1237 H   0  0  0  0  0  0
  -19.6680  -27.3232   20.6768 H   0  0  0  0  0  0
  -17.4198  -26.6823   21.3949 H   0  0  0  0  0  0
  -18.0211  -26.0086   22.8957 H   0  0  0  0  0  0
  -19.7955  -30.7313   24.2240 H   0  0  0  0  0  0
  -17.5042  -31.6322   24.5137 H   0  0  0  0  0  0
  -15.5376  -30.3016   23.7747 H   0  0  0  0  0  0
  -15.8654  -28.0840   22.7187 H   0  0  0  0  0  0
  -24.6010  -30.6965   25.7683 H   0  0  0  0  0  0
  -24.8816  -32.2843   26.4742 H   0  0  0  0  0  0
  -25.8028  -30.8955   27.0209 H   0  0  0  0  0  0
  -26.3198  -29.6705   24.1242 H   0  0  0  0  0  0
  -27.4203  -29.7359   25.4824 H   0  0  0  0  0  0
  -27.9027  -30.4377   23.9587 H   0  0  0  0  0  0
  -27.2723  -33.3826   26.1841 H   0  0  0  0  0  0
  -28.4018  -32.6750   25.0398 H   0  0  0  0  0  0
  -28.0586  -31.8663   26.5620 H   0  0  0  0  0  0
  -28.2371  -38.0212   24.7855 H   0  0  0  0  0  0
  -28.1303  -36.2806   24.5786 H   0  0  0  0  0  0
  -27.2357  -37.0764   25.8811 H   0  0  0  0  0  0
  -20.9519  -29.8849   21.6869 H   0  0  0  0  0  0
  -26.0041  -38.2764   24.1756 H   0  0  0  0  0  0
  -29.9416  -17.3825   18.7566 H   0  0  0  0  0  0
  -28.2711  -16.9594   19.2159 H   0  0  0  0  0  0
  -30.4680  -17.4962   22.2976 H   0  0  0  0  0  0
  -31.3910  -17.7472   20.7941 H   0  0  0  0  0  0
  -28.3819  -18.1626   21.2562 H   0  0  0  0  0  0
  -30.5859  -23.5259   18.2588 H   0  0  0  0  0  0
  -28.9785  -23.3517   17.5343 H   0  0  0  0  0  0
  -30.1554  -22.0578   17.3751 H   0  0  0  0  0  0
  -28.6386  -19.6680   23.2231 H   0  0  0  0  0  0
  -27.0045  -19.6054   22.5747 H   0  0  0  0  0  0
  -26.8373  -24.4155   20.4753 H   0  0  0  0  0  0
  -27.5690  -24.4942   18.9147 H   0  0  0  0  0  0
  -28.1871  -21.8708   24.0138 H   0  0  0  0  0  0
  -27.0985  -20.8081   24.6279 H   0  0  0  0  0  0
  -26.6787  -21.8233   23.4079 H   0  0  0  0  0  0
  1 25  1  0  0  0
  1 30  2  0  0  0
  1 83  1  0  0  0
  2  3  1  0  0  0
  2 25  1  0  0  0
  2 85  1  0  0  0
  2 86  1  0  0  0
  3  4  1  0  0  0
  3 87  1  0  0  0
  3 88  1  0  0  0
  4  5  1  0  0  0
  4 89  1  0  0  0
  4 90  1  0  0  0
  5  6  1  0  0  0
  5 26  1  0  0  0
  5 91  1  0  0  0
  6 25  1  0  0  0
  6 92  1  0  0  0
  6 93  1  0  0  0
  7  8  2  0  0  0
  7 26  1  0  0  0
  7 29  1  0  0  0
  8  9  1  0  0  0
  8 22  1  0  0  0
  9 10  1  0  0  0
  9 27  2  0  0  0
 10 11  2  0  0  0
 10 15  1  0  0  0
 11 12  1  0  0  0
 11 94  1  0  0  0
 12 13  2  0  0  0
 12 95  1  0  0  0
 13 14  1  0  0  0
 13 31  1  0  0  0
 14 15  2  0  0  0
 14 96  1  0  0  0
 15 97  1  0  0  0
 16 17  2  0  0  0
 16 21  1  0  0  0
 16 31  1  0  0  0
 17 18  1  0  0  0
 17 98  1  0  0  0
 18 19  2  0  0  0
 18 99  1  0  0  0
 19 20  1  0  0  0
 19 24  1  0  0  0
 20 21  2  0  0  0
 20100  1  0  0  0
 21 23  1  0  0  0
 22 28  1  0  0  0
 22 32  2  0  0  0
 26 27  1  0  0  0
 28101  1  0  0  0
 28102  1  0  0  0
 29103  1  0  0  0
 29104  1  0  0  0
 33 34  1  0  0  0
 33 66  1  0  0  0
 33 70  2  0  0  0
 34 36  1  0  0  0
 34 59  1  0  0  0
 34105  1  0  0  0
 35 44  2  0  0  0
 35 45  1  0  0  0
 35 68  1  0  0  0
 36 56  1  0  0  0
 36106  1  0  0  0
 37 39  1  0  0  0
 37 47  1  0  0  0
 37 66  1  0  0  0
 37107  1  0  0  0
 38 43  2  0  0  0
 38 46  1  0  0  0
 38 47  1  0  0  0
 39 64  1  0  0  0
 39 67  2  0  0  0
 40 52  1  0  0  0
 40 53  2  0  0  0
 40 58  1  0  0  0
 41108  1  0  0  0
 41109  1  0  0  0
 41110  1  0  0  0
 41 48  1  0  0  0
 42 43  1  0  0  0
 42 66  1  0  0  0
 42111  1  0  0  0
 42112  1  0  0  0
 43 44  1  0  0  0
 44113  1  0  0  0
 45 46  2  0  0  0
 45114  1  0  0  0
 46115  1  0  0  0
 47116  1  0  0  0
 47117  1  0  0  0
 48 56  1  0  0  0
 48 65  1  0  0  0
 48118  1  0  0  0
 49 50  1  0  0  0
 49 53  1  0  0  0
 49 64  1  0  0  0
 49119  1  0  0  0
 50 51  1  0  0  0
 50120  1  0  0  0
 50121  1  0  0  0
 51 52  1  0  0  0
 51122  1  0  0  0
 51123  1  0  0  0
 52124  1  0  0  0
 52125  1  0  0  0
 53 54  1  0  0  0
 54 55  2  0  0  0
 54126  1  0  0  0
 55 57  1  0  0  0
 55127  1  0  0  0
 56 69  2  0  0  0
 57 58  2  0  0  0
 57128  1  0  0  0
 58129  1  0  0  0
 59 60  1  0  0  0
 59 61  1  0  0  0
 59 62  1  0  0  0
 60130  1  0  0  0
 60131  1  0  0  0
 60132  1  0  0  0
 61133  1  0  0  0
 61134  1  0  0  0
 61135  1  0  0  0
 62136  1  0  0  0
 62137  1  0  0  0
 62138  1  0  0  0
 63 65  1  0  0  0
 63139  1  0  0  0
 63140  1  0  0  0
 63141  1  0  0  0
 64142  1  0  0  0
 65143  1  0  0  0
 68 80  1  0  0  0
 71 72  2  0  0  0
 71 81  1  0  0  0
 71 77  1  0  0  0
 72 79  1  0  0  0
 72 82  1  0  0  0
 73 74  1  0  0  0
 73 78  1  0  0  0
 73 81  2  0  0  0
 74 80  1  0  0  0
 74 82  2  0  0  0
 75 77  1  0  0  0
 75 83  1  0  0  0
 75144  1  0  0  0
 75145  1  0  0  0
 76 77  1  0  0  0
 76 83  1  0  0  0
 76146  1  0  0  0
 76147  1  0  0  0
 77148  1  0  0  0
 78149  1  0  0  0
 78150  1  0  0  0
 78151  1  0  0  0
 79 84  1  0  0  0
 79152  1  0  0  0
 79153  1  0  0  0
 80154  1  0  0  0
 80155  1  0  0  0
 84156  1  0  0  0
 84157  1  0  0  0
 84158  1  0  0  0
M  CHG  1  84   1
M  ISO  4   1 100  68 101  80 101  83 100
M  END
> <chiral flag>
0

> <version>
0

> <s_m_source_file>
/data/baiqing/PycharmProjects/Reinvent-master-3.2/result/LINK_invent/BTK/process_docking_weight1_custom_sum_contain_oxygen_bond_distance_aromatic_linkinvent_7_9_3/rearranged_h_0195.sdf

> <i_m_source_file_index>
87

> <r_mmod_Potential_Energy-OPLS-2005>
432.275390625

> <r_mmod_Stretch_Energy-OPLS-2005>
280.850921630859

> <r_mmod_Bend_Energy-OPLS-2005>
312.172515869141

> <r_mmod_Torsional_Energy-OPLS-2005>
266.526428222656

> <r_mmod_Improper_Torsional_Energy-OPLS-2005>
13.1178436279297

> <r_mmod_Van_der_Waal_Energy-OPLS-2005>
143.424026489258

> <r_mmod_Electrostatic_Energy-OPLS-2005>
-310.278259277344

> <r_mmod_Solvation_Energy-OPLS-2005>
-513.365173339844

> <b_mmod_Minimization_Converged-OPLS-2005>
0

> <r_mmod_RMS_Derivative-OPLS-2005>
3.64237761497498

$$$$
89
                    3D
 Structure written by MMmdl.
171181  0  0  1  0            999 V2000
  -30.7332  -14.4643   20.6427 C   0  0  0  0  0  0
  -30.4231  -12.3393   19.4057 C   0  0  0  0  0  0
  -29.4921  -12.5026   18.1892 C   0  0  0  0  0  0
  -28.0177  -12.3063   18.5977 C   0  0  0  0  0  0
  -27.6425  -13.1627   19.8261 C   0  0  2  0  0  0
  -28.6849  -12.9952   20.9646 C   0  0  0  0  0  0
  -25.2576  -13.8006   20.5559 C   0  0  0  0  0  0
  -24.1825  -13.0349   20.9161 C   0  0  0  0  0  0
  -24.6314  -11.6791   20.8712 C   0  0  0  0  0  0
  -23.8951  -10.4221   21.0439 C   0  0  0  0  0  0
  -24.3515   -9.4140   21.9195 C   0  0  0  0  0  0
  -23.6202   -8.2170   22.0740 C   0  0  0  0  0  0
  -22.4192   -8.0219   21.3530 C   0  0  0  0  0  0
  -21.9810   -9.0201   20.4655 C   0  0  0  0  0  0
  -22.7133  -10.2079   20.3089 C   0  0  0  0  0  0
  -21.6819   -6.0691   22.5257 C   0  0  0  0  0  0
  -21.4006   -6.5603   23.8188 C   0  0  0  0  0  0
  -21.3669   -5.6761   24.9161 C   0  0  0  0  0  0
  -21.6033   -4.3016   24.7218 C   0  0  0  0  0  0
  -21.8810   -3.8112   23.4332 C   0  0  0  0  0  0
  -21.9166   -4.6926   22.3394 C   0  0  0  0  0  0
  -22.7871  -13.5244   21.1807 C   0  0  0  0  0  0
  -22.1650   -4.2110   21.0971 F   0  0  0  0  0  0
  -21.5618   -3.4513   25.7735 F   0  0  0  0  0  0
  -30.0196  -13.3157   20.4308 N   0  0  0  0  0  0
  -26.2905  -12.9059   20.3058 N   0  0  0  0  0  0
  -25.9201  -11.6280   20.5609 N   0  0  0  0  0  0
  -22.0457  -12.8374   22.0407 N   0  0  0  0  0  0
  -25.4308  -15.1715   20.3959 N   0  0  0  0  0  0
  -31.8423  -14.6454   20.1303 O   0  0  0  0  0  0
  -21.6568   -6.8826   21.4205 O   0  0  0  0  0  0
  -22.3591  -14.5538   20.6588 O   0  0  0  0  0  0
  -24.6089  -31.8710   23.2123 C   0  0  0  0  0  0
  -25.9024  -32.4827   23.8387 C   0  0  1  0  0  0
  -27.2438  -27.4862   20.1008 C   0  0  0  0  0  0
  -25.5920  -33.8635   24.2318 N   0  0  0  0  0  0
  -23.3940  -30.4944   21.5469 C   0  0  2  0  0  0
  -24.8462  -28.9644   20.1127 C   0  0  0  0  0  0
  -22.7397  -29.4665   22.4969 C   0  0  0  0  0  0
  -18.0275  -28.1347   22.8431 C   0  0  0  0  0  0
  -24.1483  -36.7307   23.2637 C   0  0  0  0  0  0
  -25.9167  -30.8582   21.3589 C   0  0  0  0  0  0
  -26.0001  -29.4955   20.7062 C   0  0  0  0  0  0
  -27.2051  -28.7677   20.6886 C   0  0  0  0  0  0
  -26.0834  -26.9561   19.5098 C   0  0  0  0  0  0
  -24.8819  -27.6925   19.5129 C   0  0  0  0  0  0
  -23.6027  -29.8221   20.1623 C   0  0  0  0  0  0
  -25.4102  -36.3097   24.0318 C   0  0  1  0  0  0
  -20.5879  -28.3638   23.1296 C   0  0  2  0  0  0
  -20.6775  -26.9389   22.5344 C   0  0  0  0  0  0
  -19.5730  -26.6314   21.5165 C   0  0  0  0  0  0
  -18.1929  -26.7859   22.1640 C   0  0  0  0  0  0
  -19.1524  -28.8796   23.2843 C   0  0  0  0  0  0
  -18.9461  -30.1416   23.8824 C   0  0  0  0  0  0
  -17.6472  -30.6539   24.0534 C   0  0  0  0  0  0
  -25.9024  -34.9468   23.5090 C   0  0  0  0  0  0
  -16.5360  -29.9067   23.6293 C   0  0  0  0  0  0
  -16.7250  -28.6496   23.0284 C   0  0  0  0  0  0
  -26.4489  -31.6592   25.0678 C   0  0  0  0  0  0
  -25.3790  -31.3715   26.1448 C   0  0  0  0  0  0
  -27.0311  -30.3021   24.6044 C   0  0  0  0  0  0
  -27.6031  -32.4340   25.7454 C   0  0  0  0  0  0
  -27.5569  -37.1809   24.8453 C   0  0  0  0  0  0
  -21.4121  -29.3023   22.3706 N   0  0  0  0  0  0
  -26.4273  -37.3782   23.9410 N   0  0  0  0  0  0
  -24.6554  -31.0877   22.0974 N   0  0  0  0  0  0
  -23.4206  -28.8217   23.2979 O   0  0  0  0  0  0
  -28.3997  -26.7476   20.0859 O   0  0  0  0  0  0
  -26.5591  -34.8921   22.4639 O   0  0  0  0  0  0
  -23.5293  -32.1423   23.7549 O   0  0  0  0  0  0
  -28.6392  -26.5309   22.5243 C   0  0  0  0  0  0
  -29.3243  -24.5022   23.3718 C   0  0  0  0  0  0
  -29.3854  -23.9793   22.0530 C   0  0  0  0  0  0
  -28.6862  -26.0050   21.2063 C   0  0  0  0  0  0
  -28.6818  -22.7602   25.2198 C   0  0  0  0  0  0
  -29.1293  -23.9957   25.9559 C   0  0  0  0  0  0
  -31.3904  -17.5435   22.0181 C   0  0  0  0  0  0
  -29.3332  -17.4984   20.5754 C   0  0  0  0  0  0
  -31.0524  -16.1044   22.4796 C   0  0  0  0  0  0
  -28.9959  -16.1423   21.1939 C   0  0  0  0  0  0
  -29.6956  -23.6950   24.5873 C   0  0  0  0  0  0
  -30.1339  -18.3276   21.5819 C   0  0  0  0  0  0
  -29.8339  -22.5488   21.8062 C   0  0  0  0  0  0
  -30.4495  -19.7448   21.0734 C   0  0  0  0  0  0
  -29.1821  -20.4888   20.5581 C   0  0  0  0  0  0
  -28.9644  -25.7854   23.6058 N   0  0  0  0  0  0
  -29.0706  -24.7287   20.9662 N   0  0  0  0  0  0
  -30.2146  -15.3758   21.5073 N   0  0  0  0  0  0
  -29.2454  -21.9679   20.5862 N   0  3  0  0  0  0
  -31.4610  -12.4575   19.0908 H   0  0  0  0  0  0
  -30.3582  -11.3317   19.8162 H   0  0  0  0  0  0
  -29.7698  -11.7898   17.4113 H   0  0  0  0  0  0
  -29.6293  -13.4914   17.7487 H   0  0  0  0  0  0
  -27.8697  -11.2516   18.8251 H   0  0  0  0  0  0
  -27.3645  -12.5340   17.7527 H   0  0  0  0  0  0
  -27.6411  -14.1648   19.4137 H   0  0  0  0  0  0
  -28.6793  -11.9676   21.3315 H   0  0  0  0  0  0
  -28.4164  -13.6033   21.8275 H   0  0  0  0  0  0
  -25.2662   -9.5600   22.4775 H   0  0  0  0  0  0
  -23.9885   -7.4560   22.7474 H   0  0  0  0  0  0
  -21.0722   -8.8754   19.9002 H   0  0  0  0  0  0
  -22.3597  -10.9624   19.6218 H   0  0  0  0  0  0
  -21.2025   -7.6114   23.9698 H   0  0  0  0  0  0
  -21.1503   -6.0488   25.9060 H   0  0  0  0  0  0
  -22.0583   -2.7574   23.2834 H   0  0  0  0  0  0
  -22.3977  -12.0101   22.4972 H   0  0  0  0  0  0
  -21.1074  -13.1508   22.2489 H   0  0  0  0  0  0
  -24.6537  -15.8182   20.4777 H   0  0  0  0  0  0
  -26.2654  -15.5955   20.0113 H   0  0  0  0  0  0
  -26.7114  -32.5598   23.1195 H   0  0  0  0  0  0
  -25.0107  -33.9776   25.0496 H   0  0  0  0  0  0
  -22.6777  -31.3065   21.4099 H   0  0  0  0  0  0
  -23.3717  -35.9676   23.3304 H   0  0  0  0  0  0
  -24.3539  -36.8902   22.2047 H   0  0  0  0  0  0
  -23.7281  -37.6526   23.6643 H   0  0  0  0  0  0
  -26.0205  -31.6261   20.5890 H   0  0  0  0  0  0
  -26.8068  -30.9117   21.9722 H   0  0  0  0  0  0
  -28.0984  -29.1819   21.1346 H   0  0  0  0  0  0
  -26.1175  -25.9760   19.0536 H   0  0  0  0  0  0
  -23.9998  -27.2759   19.0519 H   0  0  0  0  0  0
  -23.7084  -30.5942   19.4000 H   0  0  0  0  0  0
  -22.7329  -29.2350   19.8657 H   0  0  0  0  0  0
  -25.1294  -36.1939   25.0811 H   0  0  0  0  0  0
  -20.9978  -28.3236   24.1423 H   0  0  0  0  0  0
  -20.5652  -26.2217   23.3480 H   0  0  0  0  0  0
  -21.6643  -26.7415   22.1146 H   0  0  0  0  0  0
  -19.6899  -25.6205   21.1234 H   0  0  0  0  0  0
  -19.6654  -27.3077   20.6652 H   0  0  0  0  0  0
  -17.4122  -26.6418   21.4127 H   0  0  0  0  0  0
  -18.0460  -26.0061   22.9156 H   0  0  0  0  0  0
  -19.7954  -30.7207   24.2181 H   0  0  0  0  0  0
  -17.5050  -31.6223   24.5140 H   0  0  0  0  0  0
  -15.5349  -30.2950   23.7636 H   0  0  0  0  0  0
  -15.8659  -28.0815   22.7007 H   0  0  0  0  0  0
  -24.5922  -30.7101   25.7812 H   0  0  0  0  0  0
  -24.9052  -32.2890   26.4957 H   0  0  0  0  0  0
  -25.8164  -30.8859   27.0180 H   0  0  0  0  0  0
  -26.2822  -29.6787   24.1138 H   0  0  0  0  0  0
  -27.4101  -29.7260   25.4507 H   0  0  0  0  0  0
  -27.8668  -30.4298   23.9141 H   0  0  0  0  0  0
  -27.2582  -33.3605   26.2077 H   0  0  0  0  0  0
  -28.3822  -32.6992   25.0281 H   0  0  0  0  0  0
  -28.0733  -31.8468   26.5358 H   0  0  0  0  0  0
  -28.2605  -38.0095   24.7478 H   0  0  0  0  0  0
  -28.1043  -36.2623   24.6293 H   0  0  0  0  0  0
  -27.2270  -37.1458   25.8851 H   0  0  0  0  0  0
  -20.9288  -29.8807   21.6976 H   0  0  0  0  0  0
  -26.0149  -38.2837   24.1469 H   0  0  0  0  0  0
  -28.3659  -27.5555   22.7219 H   0  0  0  0  0  0
  -27.6685  -22.7626   24.8240 H   0  0  0  0  0  0
  -29.0182  -21.8121   25.6410 H   0  0  0  0  0  0
  -29.8023  -23.8583   26.7997 H   0  0  0  0  0  0
  -28.4091  -24.8023   26.0606 H   0  0  0  0  0  0
  -32.1171  -17.5072   21.2061 H   0  0  0  0  0  0
  -31.8789  -18.0741   22.8386 H   0  0  0  0  0  0
  -28.3929  -17.9834   20.3102 H   0  0  0  0  0  0
  -29.8887  -17.3867   19.6420 H   0  0  0  0  0  0
  -30.5047  -16.1558   23.4212 H   0  0  0  0  0  0
  -31.9714  -15.5564   22.6996 H   0  0  0  0  0  0
  -28.3654  -15.6506   20.4766 H   0  0  0  0  0  0
  -28.3872  -16.2672   22.0913 H   0  0  0  0  0  0
  -30.7273  -23.3517   24.5314 H   0  0  0  0  0  0
  -29.5168  -18.4380   22.4758 H   0  0  0  0  0  0
  -29.5356  -21.9391   22.6576 H   0  0  0  0  0  0
  -30.9231  -22.5270   21.7425 H   0  0  0  0  0  0
  -31.2082  -19.7142   20.2902 H   0  0  0  0  0  0
  -30.9046  -20.2517   21.9237 H   0  0  0  0  0  0
  -28.3106  -20.1801   21.1381 H   0  0  0  0  0  0
  -28.9745  -20.1817   19.5315 H   0  0  0  0  0  0
  -29.7327  -22.3343   19.7877 H   0  0  0  0  0  0
  -28.3024  -22.3184   20.5266 H   0  0  0  0  0  0
  1 25  1  0  0  0
  1 30  2  0  0  0
  1 88  1  0  0  0
  2  3  1  0  0  0
  2 25  1  0  0  0
  2 90  1  0  0  0
  2 91  1  0  0  0
  3  4  1  0  0  0
  3 92  1  0  0  0
  3 93  1  0  0  0
  4  5  1  0  0  0
  4 94  1  0  0  0
  4 95  1  0  0  0
  5  6  1  0  0  0
  5 26  1  0  0  0
  5 96  1  0  0  0
  6 25  1  0  0  0
  6 97  1  0  0  0
  6 98  1  0  0  0
  7  8  2  0  0  0
  7 26  1  0  0  0
  7 29  1  0  0  0
  8  9  1  0  0  0
  8 22  1  0  0  0
  9 10  1  0  0  0
  9 27  2  0  0  0
 10 11  2  0  0  0
 10 15  1  0  0  0
 11 12  1  0  0  0
 11 99  1  0  0  0
 12 13  2  0  0  0
 12100  1  0  0  0
 13 14  1  0  0  0
 13 31  1  0  0  0
 14 15  2  0  0  0
 14101  1  0  0  0
 15102  1  0  0  0
 16 17  2  0  0  0
 16 21  1  0  0  0
 16 31  1  0  0  0
 17 18  1  0  0  0
 17103  1  0  0  0
 18 19  2  0  0  0
 18104  1  0  0  0
 19 20  1  0  0  0
 19 24  1  0  0  0
 20 21  2  0  0  0
 20105  1  0  0  0
 21 23  1  0  0  0
 22 28  1  0  0  0
 22 32  2  0  0  0
 26 27  1  0  0  0
 28106  1  0  0  0
 28107  1  0  0  0
 29108  1  0  0  0
 29109  1  0  0  0
 33 34  1  0  0  0
 33 66  1  0  0  0
 33 70  2  0  0  0
 34 36  1  0  0  0
 34 59  1  0  0  0
 34110  1  0  0  0
 35 44  2  0  0  0
 35 45  1  0  0  0
 35 68  1  0  0  0
 36 56  1  0  0  0
 36111  1  0  0  0
 37 39  1  0  0  0
 37 47  1  0  0  0
 37 66  1  0  0  0
 37112  1  0  0  0
 38 43  2  0  0  0
 38 46  1  0  0  0
 38 47  1  0  0  0
 39 64  1  0  0  0
 39 67  2  0  0  0
 40 52  1  0  0  0
 40 53  2  0  0  0
 40 58  1  0  0  0
 41113  1  0  0  0
 41114  1  0  0  0
 41115  1  0  0  0
 41 48  1  0  0  0
 42 43  1  0  0  0
 42 66  1  0  0  0
 42116  1  0  0  0
 42117  1  0  0  0
 43 44  1  0  0  0
 44118  1  0  0  0
 45 46  2  0  0  0
 45119  1  0  0  0
 46120  1  0  0  0
 47121  1  0  0  0
 47122  1  0  0  0
 48 56  1  0  0  0
 48 65  1  0  0  0
 48123  1  0  0  0
 49 50  1  0  0  0
 49 53  1  0  0  0
 49 64  1  0  0  0
 49124  1  0  0  0
 50 51  1  0  0  0
 50125  1  0  0  0
 50126  1  0  0  0
 51 52  1  0  0  0
 51127  1  0  0  0
 51128  1  0  0  0
 52129  1  0  0  0
 52130  1  0  0  0
 53 54  1  0  0  0
 54 55  2  0  0  0
 54131  1  0  0  0
 55 57  1  0  0  0
 55132  1  0  0  0
 56 69  2  0  0  0
 57 58  2  0  0  0
 57133  1  0  0  0
 58134  1  0  0  0
 59 60  1  0  0  0
 59 61  1  0  0  0
 59 62  1  0  0  0
 60135  1  0  0  0
 60136  1  0  0  0
 60137  1  0  0  0
 61138  1  0  0  0
 61139  1  0  0  0
 61140  1  0  0  0
 62141  1  0  0  0
 62142  1  0  0  0
 62143  1  0  0  0
 63 65  1  0  0  0
 63144  1  0  0  0
 63145  1  0  0  0
 63146  1  0  0  0
 64147  1  0  0  0
 65148  1  0  0  0
 68 74  1  0  0  0
 71 74  2  0  0  0
 71 86  1  0  0  0
 71149  1  0  0  0
 72 73  1  0  0  0
 72 86  2  0  0  0
 72 81  1  0  0  0
 73 83  1  0  0  0
 73 87  2  0  0  0
 74 87  1  0  0  0
 75 76  1  0  0  0
 75 81  1  0  0  0
 75150  1  0  0  0
 75151  1  0  0  0
 76 81  1  0  0  0
 76152  1  0  0  0
 76153  1  0  0  0
 77 79  1  0  0  0
 77 82  1  0  0  0
 77154  1  0  0  0
 77155  1  0  0  0
 78 80  1  0  0  0
 78 82  1  0  0  0
 78156  1  0  0  0
 78157  1  0  0  0
 79 88  1  0  0  0
 79158  1  0  0  0
 79159  1  0  0  0
 80 88  1  0  0  0
 80160  1  0  0  0
 80161  1  0  0  0
 81162  1  0  0  0
 82 84  1  0  0  0
 82163  1  0  0  0
 83 89  1  0  0  0
 83164  1  0  0  0
 83165  1  0  0  0
 84 85  1  0  0  0
 84166  1  0  0  0
 84167  1  0  0  0
 85 89  1  0  0  0
 85168  1  0  0  0
 85169  1  0  0  0
 89170  1  0  0  0
 89171  1  0  0  0
M  CHG  1  89   1
M  ISO  4   1 100  68 101  74 101  88 100
M  END
> <chiral flag>
0

> <version>
0

> <s_m_source_file>
/data/baiqing/PycharmProjects/Reinvent-master-3.2/result/LINK_invent/BTK/process_docking_weight1_custom_sum_contain_oxygen_bond_distance_aromatic_linkinvent_7_9_3/rearranged_h_0195.sdf

> <i_m_source_file_index>
88

> <r_mmod_Potential_Energy-OPLS-2005>
61.2103500366211

> <r_mmod_Stretch_Energy-OPLS-2005>
38.4682083129883

> <r_mmod_Bend_Energy-OPLS-2005>
105.740257263184

> <r_mmod_Torsional_Energy-OPLS-2005>
354.016967773438

> <r_mmod_Improper_Torsional_Energy-OPLS-2005>
4.27134275436401

> <r_mmod_Van_der_Waal_Energy-OPLS-2005>
176.375595092773

> <r_mmod_Electrostatic_Energy-OPLS-2005>
-177.171890258789

> <r_mmod_Solvation_Energy-OPLS-2005>
-453.512420654297

> <b_mmod_Minimization_Converged-OPLS-2005>
0

> <r_mmod_RMS_Derivative-OPLS-2005>
6.84331226348877

$$$$
90
                    3D
 Structure written by MMmdl.
164174  0  0  1  0            999 V2000
  -30.7155  -14.4458   20.5495 C   0  0  0  0  0  0
  -30.4273  -12.2945   19.3914 C   0  0  0  0  0  0
  -29.4828  -12.4981   18.1903 C   0  0  0  0  0  0
  -28.0070  -12.3534   18.6165 C   0  0  0  0  0  0
  -27.6575  -13.1782   19.8825 C   0  0  2  0  0  0
  -28.7186  -12.9702   20.9888 C   0  0  0  0  0  0
  -25.2618  -13.8070   20.5765 C   0  0  0  0  0  0
  -24.1835  -13.0388   20.9206 C   0  0  0  0  0  0
  -24.6368  -11.6848   20.8799 C   0  0  0  0  0  0
  -23.9029  -10.4256   21.0450 C   0  0  0  0  0  0
  -24.3600   -9.4166   21.9215 C   0  0  0  0  0  0
  -23.6265   -8.2212   22.0778 C   0  0  0  0  0  0
  -22.4250   -8.0272   21.3557 C   0  0  0  0  0  0
  -21.9900   -9.0254   20.4651 C   0  0  0  0  0  0
  -22.7231  -10.2122   20.3065 C   0  0  0  0  0  0
  -21.6828   -6.0731   22.5294 C   0  0  0  0  0  0
  -21.3994   -6.5643   23.8220 C   0  0  0  0  0  0
  -21.3644   -5.6799   24.9189 C   0  0  0  0  0  0
  -21.6042   -4.3065   24.7235 C   0  0  0  0  0  0
  -21.8823   -3.8146   23.4360 C   0  0  0  0  0  0
  -21.9182   -4.6962   22.3410 C   0  0  0  0  0  0
  -22.7853  -13.5227   21.1807 C   0  0  0  0  0  0
  -22.1673   -4.2143   21.0997 F   0  0  0  0  0  0
  -21.5614   -3.4547   25.7741 F   0  0  0  0  0  0
  -30.0426  -13.2720   20.4161 N   0  0  0  0  0  0
  -26.3022  -12.9163   20.3497 N   0  0  0  0  0  0
  -25.9283  -11.6352   20.5857 N   0  0  0  0  0  0
  -22.0465  -12.8236   22.0357 N   0  0  0  0  0  0
  -25.4331  -15.1786   20.4188 N   0  0  0  0  0  0
  -31.8801  -14.6101   20.1743 O   0  0  0  0  0  0
  -21.6605   -6.8887   21.4256 O   0  0  0  0  0  0
  -22.3572  -14.5533   20.6628 O   0  0  0  0  0  0
  -24.6099  -31.8692   23.2096 C   0  0  0  0  0  0
  -25.9015  -32.4814   23.8392 C   0  0  1  0  0  0
  -27.2688  -27.4769   20.0766 C   0  0  0  0  0  0
  -25.5884  -33.8608   24.2309 N   0  0  0  0  0  0
  -23.3990  -30.4859   21.5477 C   0  0  2  0  0  0
  -24.8538  -28.9507   20.1132 C   0  0  0  0  0  0
  -22.7390  -29.4640   22.4994 C   0  0  0  0  0  0
  -18.0259  -28.1383   22.8497 C   0  0  0  0  0  0
  -24.1485  -36.7314   23.2633 C   0  0  0  0  0  0
  -25.9241  -30.8369   21.3669 C   0  0  0  0  0  0
  -26.0041  -29.4732   20.7157 C   0  0  0  0  0  0
  -27.2046  -28.7344   20.7121 C   0  0  0  0  0  0
  -26.1024  -26.9544   19.4727 C   0  0  0  0  0  0
  -24.8954  -27.6855   19.4969 C   0  0  0  0  0  0
  -23.6084  -29.8088   20.1637 C   0  0  0  0  0  0
  -25.4108  -36.3100   24.0332 C   0  0  1  0  0  0
  -20.5855  -28.3664   23.1327 C   0  0  2  0  0  0
  -20.6745  -26.9394   22.5438 C   0  0  0  0  0  0
  -19.5725  -26.6377   21.5231 C   0  0  0  0  0  0
  -18.1903  -26.7923   22.1640 C   0  0  0  0  0  0
  -19.1516  -28.8838   23.2904 C   0  0  0  0  0  0
  -18.9442  -30.1449   23.8909 C   0  0  0  0  0  0
  -17.6447  -30.6595   24.0568 C   0  0  0  0  0  0
  -25.9041  -34.9462   23.5123 C   0  0  0  0  0  0
  -16.5334  -29.9111   23.6321 C   0  0  0  0  0  0
  -16.7253  -28.6527   23.0346 C   0  0  0  0  0  0
  -26.4438  -31.6597   25.0728 C   0  0  0  0  0  0
  -25.3692  -31.3734   26.1471 C   0  0  0  0  0  0
  -27.0252  -30.3019   24.6126 C   0  0  0  0  0  0
  -27.5993  -32.4306   25.7527 C   0  0  0  0  0  0
  -27.5581  -37.1819   24.8458 C   0  0  0  0  0  0
  -21.4125  -29.3029   22.3735 N   0  0  0  0  0  0
  -26.4294  -37.3790   23.9401 N   0  0  0  0  0  0
  -24.6605  -31.0790   22.0994 N   0  0  0  0  0  0
  -23.4177  -28.8195   23.3029 O   0  0  0  0  0  0
  -28.4726  -26.8093   20.0975 O   0  0  0  0  0  0
  -26.5612  -34.8926   22.4691 O   0  0  0  0  0  0
  -23.5293  -32.1428   23.7508 O   0  0  0  0  0  0
  -31.7980  -21.6117   20.4404 C   0  0  0  0  0  0
  -29.8129  -20.3197   19.1549 C   0  0  0  0  0  0
  -31.0129  -22.2607   19.4553 C   0  0  0  0  0  0
  -30.6175  -19.6471   20.1164 C   0  0  0  0  0  0
  -30.1194  -17.3885   19.2988 C   0  0  0  0  0  0
  -31.0829  -17.6488   21.5565 C   0  0  0  0  0  0
  -29.2724  -16.2229   19.8052 C   0  0  0  0  0  0
  -30.3087  -16.3869   22.0128 C   0  0  0  0  0  0
  -30.3826  -25.9987   18.8352 C   0  0  0  0  0  0
  -28.9217  -24.5564   19.1733 C   0  0  0  0  0  0
  -28.8603  -26.0637   18.9465 C   0  0  1  0  0  0
  -31.2967  -23.6897   18.9994 C   0  0  0  0  0  0
  -30.0096  -21.6130   18.8163 N   0  0  0  0  0  0
  -31.6011  -20.3106   20.7740 N   0  0  0  0  0  0
  -30.4228  -18.2803   20.4112 N   0  0  0  0  0  0
  -29.9502  -15.5007   20.8924 N   0  0  0  0  0  0
  -30.3416  -24.7033   19.5141 N   0  3  1  0  0  0
  -31.4673  -12.4057   19.0762 H   0  0  0  0  0  0
  -30.3411  -11.2810   19.7851 H   0  0  0  0  0  0
  -29.7131  -11.7799   17.4026 H   0  0  0  0  0  0
  -29.6432  -13.4852   17.7550 H   0  0  0  0  0  0
  -27.8200  -11.2958   18.8031 H   0  0  0  0  0  0
  -27.3491  -12.6389   17.7954 H   0  0  0  0  0  0
  -27.6639  -14.2155   19.5816 H   0  0  0  0  0  0
  -28.7043  -11.9380   21.3406 H   0  0  0  0  0  0
  -28.5042  -13.5850   21.8644 H   0  0  0  0  0  0
  -25.2761   -9.5631   22.4778 H   0  0  0  0  0  0
  -23.9958   -7.4609   22.7503 H   0  0  0  0  0  0
  -21.0834   -8.8797   19.8946 H   0  0  0  0  0  0
  -22.3735  -10.9681   19.6170 H   0  0  0  0  0  0
  -21.1997   -7.6154   23.9726 H   0  0  0  0  0  0
  -21.1454   -6.0529   25.9090 H   0  0  0  0  0  0
  -22.0605   -2.7604   23.2855 H   0  0  0  0  0  0
  -22.4049  -11.9891   22.4744 H   0  0  0  0  0  0
  -21.1076  -13.1273   22.2526 H   0  0  0  0  0  0
  -24.6645  -15.8308   20.5243 H   0  0  0  0  0  0
  -26.2929  -15.6234   20.1254 H   0  0  0  0  0  0
  -26.7097  -32.5531   23.1170 H   0  0  0  0  0  0
  -25.0029  -33.9770   25.0444 H   0  0  0  0  0  0
  -22.6868  -31.3007   21.4048 H   0  0  0  0  0  0
  -23.3754  -35.9642   23.3293 H   0  0  0  0  0  0
  -24.3589  -36.8939   22.2055 H   0  0  0  0  0  0
  -23.7250  -37.6519   23.6662 H   0  0  0  0  0  0
  -26.0419  -31.6048   20.6007 H   0  0  0  0  0  0
  -26.8066  -30.8837   21.9924 H   0  0  0  0  0  0
  -28.0921  -29.1363   21.1822 H   0  0  0  0  0  0
  -26.1198  -25.9856   18.9931 H   0  0  0  0  0  0
  -24.0124  -27.2738   19.0290 H   0  0  0  0  0  0
  -23.7048  -30.5784   19.3986 H   0  0  0  0  0  0
  -22.7355  -29.2179   19.8764 H   0  0  0  0  0  0
  -25.1282  -36.1970   25.0827 H   0  0  0  0  0  0
  -20.9920  -28.3235   24.1461 H   0  0  0  0  0  0
  -20.5645  -26.2264   23.3632 H   0  0  0  0  0  0
  -21.6620  -26.7442   22.1236 H   0  0  0  0  0  0
  -19.6898  -25.6289   21.1259 H   0  0  0  0  0  0
  -19.6672  -27.3177   20.6753 H   0  0  0  0  0  0
  -17.4172  -26.6664   21.4047 H   0  0  0  0  0  0
  -18.0308  -26.0071   22.9033 H   0  0  0  0  0  0
  -19.7919  -30.7256   24.2287 H   0  0  0  0  0  0
  -17.5015  -31.6281   24.5158 H   0  0  0  0  0  0
  -15.5340  -30.3029   23.7644 H   0  0  0  0  0  0
  -15.8643  -28.0860   22.7060 H   0  0  0  0  0  0
  -24.5840  -30.7102   25.7827 H   0  0  0  0  0  0
  -24.8916  -32.2905   26.4914 H   0  0  0  0  0  0
  -25.8027  -30.8911   27.0239 H   0  0  0  0  0  0
  -26.2834  -29.6863   24.1023 H   0  0  0  0  0  0
  -27.3820  -29.7172   25.4622 H   0  0  0  0  0  0
  -27.8750  -30.4302   23.9417 H   0  0  0  0  0  0
  -27.2574  -33.3572   26.2141 H   0  0  0  0  0  0
  -28.3808  -32.6917   25.0385 H   0  0  0  0  0  0
  -28.0640  -31.8410   26.5435 H   0  0  0  0  0  0
  -28.2581  -38.0135   24.7525 H   0  0  0  0  0  0
  -28.1096  -36.2672   24.6247 H   0  0  0  0  0  0
  -27.2302  -37.1413   25.8859 H   0  0  0  0  0  0
  -20.9282  -29.8766   21.6971 H   0  0  0  0  0  0
  -26.0182  -38.2866   24.1410 H   0  0  0  0  0  0
  -32.6047  -22.1245   20.9445 H   0  0  0  0  0  0
  -28.9951  -19.8347   18.6434 H   0  0  0  0  0  0
  -29.5868  -17.8701   18.4833 H   0  0  0  0  0  0
  -31.0504  -17.0193   18.8672 H   0  0  0  0  0  0
  -32.1078  -17.3868   21.2842 H   0  0  0  0  0  0
  -31.1500  -18.3453   22.3955 H   0  0  0  0  0  0
  -29.0922  -15.5824   18.9413 H   0  0  0  0  0  0
  -28.2985  -16.5702   20.1516 H   0  0  0  0  0  0
  -29.3818  -16.6897   22.5017 H   0  0  0  0  0  0
  -30.8827  -15.8505   22.7711 H   0  0  0  0  0  0
  -30.9272  -26.7680   19.3826 H   0  0  0  0  0  0
  -30.7220  -25.9372   17.8006 H   0  0  0  0  0  0
  -28.7517  -23.9938   18.2552 H   0  0  0  0  0  0
  -28.3084  -24.1900   19.9965 H   0  0  0  0  0  0
  -28.3867  -26.3696   18.0108 H   0  0  0  0  0  0
  -31.2966  -23.6976   17.9093 H   0  0  0  0  0  0
  -32.3070  -23.9713   19.2965 H   0  0  0  0  0  0
  -30.4404  -24.8304   20.5103 H   0  0  0  0  0  0
  1 25  1  0  0  0
  1 30  2  0  0  0
  1 86  1  0  0  0
  2  3  1  0  0  0
  2 25  1  0  0  0
  2 88  1  0  0  0
  2 89  1  0  0  0
  3  4  1  0  0  0
  3 90  1  0  0  0
  3 91  1  0  0  0
  4  5  1  0  0  0
  4 92  1  0  0  0
  4 93  1  0  0  0
  5  6  1  0  0  0
  5 26  1  0  0  0
  5 94  1  0  0  0
  6 25  1  0  0  0
  6 95  1  0  0  0
  6 96  1  0  0  0
  7  8  2  0  0  0
  7 26  1  0  0  0
  7 29  1  0  0  0
  8  9  1  0  0  0
  8 22  1  0  0  0
  9 10  1  0  0  0
  9 27  2  0  0  0
 10 11  2  0  0  0
 10 15  1  0  0  0
 11 12  1  0  0  0
 11 97  1  0  0  0
 12 13  2  0  0  0
 12 98  1  0  0  0
 13 14  1  0  0  0
 13 31  1  0  0  0
 14 15  2  0  0  0
 14 99  1  0  0  0
 15100  1  0  0  0
 16 17  2  0  0  0
 16 21  1  0  0  0
 16 31  1  0  0  0
 17 18  1  0  0  0
 17101  1  0  0  0
 18 19  2  0  0  0
 18102  1  0  0  0
 19 20  1  0  0  0
 19 24  1  0  0  0
 20 21  2  0  0  0
 20103  1  0  0  0
 21 23  1  0  0  0
 22 28  1  0  0  0
 22 32  2  0  0  0
 26 27  1  0  0  0
 28104  1  0  0  0
 28105  1  0  0  0
 29106  1  0  0  0
 29107  1  0  0  0
 33 34  1  0  0  0
 33 66  1  0  0  0
 33 70  2  0  0  0
 34 36  1  0  0  0
 34 59  1  0  0  0
 34108  1  0  0  0
 35 44  2  0  0  0
 35 45  1  0  0  0
 35 68  1  0  0  0
 36 56  1  0  0  0
 36109  1  0  0  0
 37 39  1  0  0  0
 37 47  1  0  0  0
 37 66  1  0  0  0
 37110  1  0  0  0
 38 43  2  0  0  0
 38 46  1  0  0  0
 38 47  1  0  0  0
 39 64  1  0  0  0
 39 67  2  0  0  0
 40 52  1  0  0  0
 40 53  2  0  0  0
 40 58  1  0  0  0
 41111  1  0  0  0
 41112  1  0  0  0
 41113  1  0  0  0
 41 48  1  0  0  0
 42 43  1  0  0  0
 42 66  1  0  0  0
 42114  1  0  0  0
 42115  1  0  0  0
 43 44  1  0  0  0
 44116  1  0  0  0
 45 46  2  0  0  0
 45117  1  0  0  0
 46118  1  0  0  0
 47119  1  0  0  0
 47120  1  0  0  0
 48 56  1  0  0  0
 48 65  1  0  0  0
 48121  1  0  0  0
 49 50  1  0  0  0
 49 53  1  0  0  0
 49 64  1  0  0  0
 49122  1  0  0  0
 50 51  1  0  0  0
 50123  1  0  0  0
 50124  1  0  0  0
 51 52  1  0  0  0
 51125  1  0  0  0
 51126  1  0  0  0
 52127  1  0  0  0
 52128  1  0  0  0
 53 54  1  0  0  0
 54 55  2  0  0  0
 54129  1  0  0  0
 55 57  1  0  0  0
 55130  1  0  0  0
 56 69  2  0  0  0
 57 58  2  0  0  0
 57131  1  0  0  0
 58132  1  0  0  0
 59 60  1  0  0  0
 59 61  1  0  0  0
 59 62  1  0  0  0
 60133  1  0  0  0
 60134  1  0  0  0
 60135  1  0  0  0
 61136  1  0  0  0
 61137  1  0  0  0
 61138  1  0  0  0
 62139  1  0  0  0
 62140  1  0  0  0
 62141  1  0  0  0
 63 65  1  0  0  0
 63142  1  0  0  0
 63143  1  0  0  0
 63144  1  0  0  0
 64145  1  0  0  0
 65146  1  0  0  0
 68 81  1  0  0  0
 71 73  2  0  0  0
 71 84  1  0  0  0
 71147  1  0  0  0
 72 74  1  0  0  0
 72 83  2  0  0  0
 72148  1  0  0  0
 73 82  1  0  0  0
 73 83  1  0  0  0
 74 84  2  0  0  0
 74 85  1  0  0  0
 75 77  1  0  0  0
 75 85  1  0  0  0
 75149  1  0  0  0
 75150  1  0  0  0
 76 78  1  0  0  0
 76 85  1  0  0  0
 76151  1  0  0  0
 76152  1  0  0  0
 77 86  1  0  0  0
 77153  1  0  0  0
 77154  1  0  0  0
 78 86  1  0  0  0
 78155  1  0  0  0
 78156  1  0  0  0
 79 81  1  0  0  0
 79 87  1  0  0  0
 79157  1  0  0  0
 79158  1  0  0  0
 80 81  1  0  0  0
 80 87  1  0  0  0
 80159  1  0  0  0
 80160  1  0  0  0
 81161  1  0  0  0
 82162  1  0  0  0
 82163  1  0  0  0
 82 87  1  0  0  0
 87164  1  0  0  0
M  CHG  1  87   1
M  ISO  4   1 100  68 101  81 101  86 100
M  END
> <chiral flag>
0

> <version>
0

> <s_m_source_file>
/data/baiqing/PycharmProjects/Reinvent-master-3.2/result/LINK_invent/BTK/process_docking_weight1_custom_sum_contain_oxygen_bond_distance_aromatic_linkinvent_7_9_3/rearranged_h_0195.sdf

> <i_m_source_file_index>
89

> <r_mmod_Potential_Energy-OPLS-2005>
-24.5813655853271

> <r_mmod_Stretch_Energy-OPLS-2005>
37.9103126525879

> <r_mmod_Bend_Energy-OPLS-2005>
124.799613952637

> <r_mmod_Torsional_Energy-OPLS-2005>
374.021026611328

> <r_mmod_Improper_Torsional_Energy-OPLS-2005>
10.0639667510986

> <r_mmod_Van_der_Waal_Energy-OPLS-2005>
174.397537231445

> <r_mmod_Electrostatic_Energy-OPLS-2005>
-278.393615722656

> <r_mmod_Solvation_Energy-OPLS-2005>
-481.685150146484

> <b_mmod_Minimization_Converged-OPLS-2005>
0

> <r_mmod_RMS_Derivative-OPLS-2005>
2.62837767601013

$$$$
91
                    3D
 Structure written by MMmdl.
163172  0  0  1  0            999 V2000
  -30.7054  -14.7472   20.4992 C   0  0  0  0  0  0
  -30.4508  -12.4845   19.4753 C   0  0  0  0  0  0
  -29.5240  -12.4995   18.2444 C   0  0  0  0  0  0
  -28.0521  -12.2998   18.6599 C   0  0  0  0  0  0
  -27.6513  -13.1970   19.8563 C   0  0  2  0  0  0
  -28.7155  -13.1567   20.9898 C   0  0  0  0  0  0
  -25.2601  -13.8058   20.5693 C   0  0  0  0  0  0
  -24.1884  -13.0418   20.9260 C   0  0  0  0  0  0
  -24.6403  -11.6851   20.8805 C   0  0  0  0  0  0
  -23.9075  -10.4251   21.0444 C   0  0  0  0  0  0
  -24.3582   -9.4147   21.9233 C   0  0  0  0  0  0
  -23.6249   -8.2198   22.0781 C   0  0  0  0  0  0
  -22.4245   -8.0260   21.3548 C   0  0  0  0  0  0
  -21.9888   -9.0256   20.4660 C   0  0  0  0  0  0
  -22.7239  -10.2128   20.3097 C   0  0  0  0  0  0
  -21.6864   -6.0714   22.5262 C   0  0  0  0  0  0
  -21.4007   -6.5617   23.8195 C   0  0  0  0  0  0
  -21.3691   -5.6778   24.9165 C   0  0  0  0  0  0
  -21.6047   -4.3043   24.7213 C   0  0  0  0  0  0
  -21.8815   -3.8122   23.4337 C   0  0  0  0  0  0
  -21.9177   -4.6933   22.3385 C   0  0  0  0  0  0
  -22.7868  -13.5218   21.1852 C   0  0  0  0  0  0
  -22.1669   -4.2103   21.0974 F   0  0  0  0  0  0
  -21.5634   -3.4552   25.7745 F   0  0  0  0  0  0
  -29.9982  -13.5594   20.3894 N   0  0  0  0  0  0
  -26.3006  -12.9219   20.3311 N   0  0  0  0  0  0
  -25.9334  -11.6390   20.5803 N   0  0  0  0  0  0
  -22.0479  -12.8246   22.0362 N   0  0  0  0  0  0
  -25.4257  -15.1792   20.4012 N   0  0  0  0  0  0
  -31.9111  -14.7247   20.2244 O   0  0  0  0  0  0
  -21.6656   -6.8839   21.4219 O   0  0  0  0  0  0
  -22.3562  -14.5545   20.6687 O   0  0  0  0  0  0
  -24.6115  -31.8616   23.2096 C   0  0  0  0  0  0
  -25.9013  -32.4769   23.8379 C   0  0  1  0  0  0
  -27.2214  -27.3391   20.1321 C   0  0  0  0  0  0
  -25.5878  -33.8568   24.2315 N   0  0  0  0  0  0
  -23.4028  -30.4718   21.5559 C   0  0  2  0  0  0
  -24.8593  -28.9413   20.1100 C   0  0  0  0  0  0
  -22.7434  -29.4478   22.5112 C   0  0  0  0  0  0
  -18.0201  -28.1390   22.8660 C   0  0  0  0  0  0
  -24.1484  -36.7332   23.2634 C   0  0  0  0  0  0
  -25.9396  -30.7959   21.3777 C   0  0  0  0  0  0
  -26.0198  -29.4209   20.7293 C   0  0  0  0  0  0
  -27.1997  -28.6250   20.7450 C   0  0  0  0  0  0
  -26.0518  -26.9115   19.4701 C   0  0  0  0  0  0
  -24.8808  -27.6938   19.4622 C   0  0  0  0  0  0
  -23.6215  -29.8160   20.1648 C   0  0  0  0  0  0
  -25.4105  -36.3126   24.0334 C   0  0  1  0  0  0
  -20.5815  -28.3542   23.1671 C   0  0  2  0  0  0
  -20.6466  -26.9137   22.6072 C   0  0  0  0  0  0
  -19.5718  -26.6424   21.5478 C   0  0  0  0  0  0
  -18.1778  -26.7986   22.1620 C   0  0  0  0  0  0
  -19.1495  -28.8775   23.3128 C   0  0  0  0  0  0
  -18.9487  -30.1358   23.9144 C   0  0  0  0  0  0
  -17.6529  -30.6574   24.0651 C   0  0  0  0  0  0
  -25.9004  -34.9447   23.5122 C   0  0  0  0  0  0
  -16.5354  -29.9186   23.6401 C   0  0  0  0  0  0
  -16.7200  -28.6531   23.0541 C   0  0  0  0  0  0
  -26.4457  -31.6573   25.0700 C   0  0  0  0  0  0
  -25.3704  -31.3615   26.1425 C   0  0  0  0  0  0
  -27.0335  -30.3046   24.6080 C   0  0  0  0  0  0
  -27.6086  -32.4259   25.7422 C   0  0  0  0  0  0
  -27.5587  -37.1836   24.8467 C   0  0  0  0  0  0
  -21.4153  -29.2752   22.3911 N   0  0  0  0  0  0
  -26.4330  -37.3800   23.9370 N   0  0  0  0  0  0
  -24.6695  -31.0606   22.1050 N   0  0  0  0  0  0
  -23.4286  -28.8121   23.3150 O   0  0  0  0  0  0
  -28.3585  -26.5279   20.1324 O   0  0  0  0  0  0
  -26.5566  -34.8967   22.4680 O   0  0  0  0  0  0
  -23.5290  -32.1397   23.7457 O   0  0  0  0  0  0
  -26.8614  -20.1471   21.3613 C   0  0  0  0  0  0
  -26.5337  -22.3587   20.8293 C   0  0  0  0  0  0
  -27.8932  -22.4973   20.4242 C   0  0  0  0  0  0
  -28.1974  -20.1501   20.8643 C   0  0  0  0  0  0
  -28.1715  -17.6448   21.1503 C   0  0  0  0  0  0
  -30.2690  -18.6366   20.3408 C   0  0  0  0  0  0
  -28.7055  -16.3428   20.4984 C   0  0  0  0  0  0
  -30.9154  -17.2719   20.8599 C   0  0  0  0  0  0
  -24.5959  -23.0237   19.3581 C   0  0  0  0  0  0
  -25.4250  -23.3784   20.5924 C   0  0  0  0  0  0
  -28.3587  -23.8827   19.8272 C   0  0  0  0  0  0
  -28.2809  -25.1875   20.7489 C   0  0  0  0  0  0
  -26.0496  -21.2147   21.3467 N   0  0  0  0  0  0
  -28.7197  -21.3673   20.4322 N   0  0  0  0  0  0
  -28.9033  -18.8809   20.8180 N   0  0  0  0  0  0
  -30.1102  -15.9963   20.7386 N   0  0  0  0  0  0
  -31.4811  -12.6173   19.1409 H   0  0  0  0  0  0
  -30.4355  -11.5159   19.9761 H   0  0  0  0  0  0
  -29.8343  -11.7206   17.5471 H   0  0  0  0  0  0
  -29.6405  -13.4483   17.7151 H   0  0  0  0  0  0
  -27.9168  -11.2496   18.9241 H   0  0  0  0  0  0
  -27.4025  -12.4951   17.8061 H   0  0  0  0  0  0
  -27.6251  -14.1919   19.4201 H   0  0  0  0  0  0
  -28.7905  -12.1527   21.4134 H   0  0  0  0  0  0
  -28.4610  -13.7850   21.8426 H   0  0  0  0  0  0
  -25.2715   -9.5620   22.4845 H   0  0  0  0  0  0
  -23.9973   -7.4570   22.7480 H   0  0  0  0  0  0
  -21.0835   -8.8761   19.8943 H   0  0  0  0  0  0
  -22.3691  -10.9685   19.6218 H   0  0  0  0  0  0
  -21.2022   -7.6137   23.9666 H   0  0  0  0  0  0
  -21.1553   -6.0543   25.9062 H   0  0  0  0  0  0
  -22.0575   -2.7585   23.2861 H   0  0  0  0  0  0
  -22.4072  -11.9948   22.4833 H   0  0  0  0  0  0
  -21.1095  -13.1296   22.2549 H   0  0  0  0  0  0
  -24.6515  -15.8261   20.4996 H   0  0  0  0  0  0
  -26.2444  -15.5955   19.9820 H   0  0  0  0  0  0
  -26.7020  -32.5508   23.1103 H   0  0  0  0  0  0
  -25.0177  -33.9673   25.0554 H   0  0  0  0  0  0
  -22.6764  -31.2781   21.4297 H   0  0  0  0  0  0
  -23.3752  -35.9660   23.3309 H   0  0  0  0  0  0
  -24.3618  -36.8930   22.2058 H   0  0  0  0  0  0
  -23.7244  -37.6539   23.6626 H   0  0  0  0  0  0
  -26.0551  -31.5506   20.5989 H   0  0  0  0  0  0
  -26.8234  -30.8596   21.9980 H   0  0  0  0  0  0
  -28.0763  -28.9759   21.2695 H   0  0  0  0  0  0
  -26.0367  -25.9722   18.9379 H   0  0  0  0  0  0
  -23.9988  -27.3447   18.9395 H   0  0  0  0  0  0
  -23.7409  -30.6059   19.4276 H   0  0  0  0  0  0
  -22.7456  -29.2541   19.8395 H   0  0  0  0  0  0
  -25.1294  -36.2016   25.0835 H   0  0  0  0  0  0
  -20.9872  -28.3210   24.1797 H   0  0  0  0  0  0
  -20.4468  -26.2356   23.4438 H   0  0  0  0  0  0
  -21.6441  -26.6479   22.2524 H   0  0  0  0  0  0
  -19.6782  -25.6461   21.1128 H   0  0  0  0  0  0
  -19.7105  -27.3593   20.7419 H   0  0  0  0  0  0
  -17.4222  -26.7040   21.3805 H   0  0  0  0  0  0
  -17.9864  -25.9944   22.8844 H   0  0  0  0  0  0
  -19.7911  -30.7172   24.2784 H   0  0  0  0  0  0
  -17.5197  -31.6238   24.5194 H   0  0  0  0  0  0
  -15.5408  -30.3255   23.7796 H   0  0  0  0  0  0
  -15.8581  -28.0725   22.7496 H   0  0  0  0  0  0
  -24.5936  -30.6917   25.7718 H   0  0  0  0  0  0
  -24.8821  -32.2704   26.4920 H   0  0  0  0  0  0
  -25.8048  -30.8755   27.0162 H   0  0  0  0  0  0
  -26.2899  -29.6774   24.1160 H   0  0  0  0  0  0
  -27.4153  -29.7332   25.4548 H   0  0  0  0  0  0
  -27.8696  -30.4434   23.9235 H   0  0  0  0  0  0
  -27.2806  -33.3592   26.2014 H   0  0  0  0  0  0
  -28.3872  -32.6729   25.0183 H   0  0  0  0  0  0
  -28.0759  -31.8345   26.5302 H   0  0  0  0  0  0
  -28.2630  -38.0123   24.7522 H   0  0  0  0  0  0
  -28.1077  -36.2651   24.6301 H   0  0  0  0  0  0
  -27.2294  -37.1497   25.8879 H   0  0  0  0  0  0
  -20.9275  -29.8362   21.7121 H   0  0  0  0  0  0
  -26.0223  -38.2876   24.1391 H   0  0  0  0  0  0
  -26.3666  -19.2732   21.7508 H   0  0  0  0  0  0
  -28.1082  -17.5220   22.2345 H   0  0  0  0  0  0
  -27.1478  -17.7027   20.7802 H   0  0  0  0  0  0
  -30.2212  -18.6008   19.2502 H   0  0  0  0  0  0
  -30.8906  -19.5000   20.5917 H   0  0  0  0  0  0
  -28.5441  -16.3801   19.4222 H   0  0  0  0  0  0
  -28.0620  -15.5902   20.9191 H   0  0  0  0  0  0
  -31.1861  -17.3831   21.9084 H   0  0  0  0  0  0
  -31.8688  -17.1739   20.3395 H   0  0  0  0  0  0
  -25.1384  -23.2915   18.4420 H   0  0  0  0  0  0
  -23.6465  -23.5682   19.3818 H   0  0  0  0  0  0
  -24.3767  -21.9481   19.3380 H   0  0  0  0  0  0
  -25.7773  -24.3912   20.4665 H   0  0  0  0  0  0
  -24.7855  -23.4082   21.4747 H   0  0  0  0  0  0
  -27.7305  -24.0429   18.9488 H   0  0  0  0  0  0
  -29.3666  -23.7951   19.4227 H   0  0  0  0  0  0
  -29.1108  -25.1317   21.4516 H   0  0  0  0  0  0
  -27.4226  -25.1697   21.4196 H   0  0  0  0  0  0
  1 25  1  0  0  0
  1 30  2  0  0  0
  1 86  1  0  0  0
  2  3  1  0  0  0
  2 25  1  0  0  0
  2 87  1  0  0  0
  2 88  1  0  0  0
  3  4  1  0  0  0
  3 89  1  0  0  0
  3 90  1  0  0  0
  4  5  1  0  0  0
  4 91  1  0  0  0
  4 92  1  0  0  0
  5  6  1  0  0  0
  5 26  1  0  0  0
  5 93  1  0  0  0
  6 25  1  0  0  0
  6 94  1  0  0  0
  6 95  1  0  0  0
  7  8  2  0  0  0
  7 26  1  0  0  0
  7 29  1  0  0  0
  8  9  1  0  0  0
  8 22  1  0  0  0
  9 10  1  0  0  0
  9 27  2  0  0  0
 10 11  2  0  0  0
 10 15  1  0  0  0
 11 12  1  0  0  0
 11 96  1  0  0  0
 12 13  2  0  0  0
 12 97  1  0  0  0
 13 14  1  0  0  0
 13 31  1  0  0  0
 14 15  2  0  0  0
 14 98  1  0  0  0
 15 99  1  0  0  0
 16 17  2  0  0  0
 16 21  1  0  0  0
 16 31  1  0  0  0
 17 18  1  0  0  0
 17100  1  0  0  0
 18 19  2  0  0  0
 18101  1  0  0  0
 19 20  1  0  0  0
 19 24  1  0  0  0
 20 21  2  0  0  0
 20102  1  0  0  0
 21 23  1  0  0  0
 22 28  1  0  0  0
 22 32  2  0  0  0
 26 27  1  0  0  0
 28103  1  0  0  0
 28104  1  0  0  0
 29105  1  0  0  0
 29106  1  0  0  0
 33 34  1  0  0  0
 33 66  1  0  0  0
 33 70  2  0  0  0
 34 36  1  0  0  0
 34 59  1  0  0  0
 34107  1  0  0  0
 35 44  2  0  0  0
 35 45  1  0  0  0
 35 68  1  0  0  0
 36 56  1  0  0  0
 36108  1  0  0  0
 37 39  1  0  0  0
 37 47  1  0  0  0
 37 66  1  0  0  0
 37109  1  0  0  0
 38 43  2  0  0  0
 38 46  1  0  0  0
 38 47  1  0  0  0
 39 64  1  0  0  0
 39 67  2  0  0  0
 40 52  1  0  0  0
 40 53  2  0  0  0
 40 58  1  0  0  0
 41110  1  0  0  0
 41111  1  0  0  0
 41112  1  0  0  0
 41 48  1  0  0  0
 42 43  1  0  0  0
 42 66  1  0  0  0
 42113  1  0  0  0
 42114  1  0  0  0
 43 44  1  0  0  0
 44115  1  0  0  0
 45 46  2  0  0  0
 45116  1  0  0  0
 46117  1  0  0  0
 47118  1  0  0  0
 47119  1  0  0  0
 48 56  1  0  0  0
 48 65  1  0  0  0
 48120  1  0  0  0
 49 50  1  0  0  0
 49 53  1  0  0  0
 49 64  1  0  0  0
 49121  1  0  0  0
 50 51  1  0  0  0
 50122  1  0  0  0
 50123  1  0  0  0
 51 52  1  0  0  0
 51124  1  0  0  0
 51125  1  0  0  0
 52126  1  0  0  0
 52127  1  0  0  0
 53 54  1  0  0  0
 54 55  2  0  0  0
 54128  1  0  0  0
 55 57  1  0  0  0
 55129  1  0  0  0
 56 69  2  0  0  0
 57 58  2  0  0  0
 57130  1  0  0  0
 58131  1  0  0  0
 59 60  1  0  0  0
 59 61  1  0  0  0
 59 62  1  0  0  0
 60132  1  0  0  0
 60133  1  0  0  0
 60134  1  0  0  0
 61135  1  0  0  0
 61136  1  0  0  0
 61137  1  0  0  0
 62138  1  0  0  0
 62139  1  0  0  0
 62140  1  0  0  0
 63 65  1  0  0  0
 63141  1  0  0  0
 63142  1  0  0  0
 63143  1  0  0  0
 64144  1  0  0  0
 65145  1  0  0  0
 68 82  1  0  0  0
 71 74  2  0  0  0
 71 83  1  0  0  0
 71146  1  0  0  0
 72 73  1  0  0  0
 72 80  1  0  0  0
 72 83  2  0  0  0
 73 81  1  0  0  0
 73 84  2  0  0  0
 74 84  1  0  0  0
 74 85  1  0  0  0
 75 77  1  0  0  0
 75 85  1  0  0  0
 75147  1  0  0  0
 75148  1  0  0  0
 76 78  1  0  0  0
 76 85  1  0  0  0
 76149  1  0  0  0
 76150  1  0  0  0
 77 86  1  0  0  0
 77151  1  0  0  0
 77152  1  0  0  0
 78 86  1  0  0  0
 78153  1  0  0  0
 78154  1  0  0  0
 79 80  1  0  0  0
 79155  1  0  0  0
 79156  1  0  0  0
 79157  1  0  0  0
 80158  1  0  0  0
 80159  1  0  0  0
 81 82  1  0  0  0
 81160  1  0  0  0
 81161  1  0  0  0
 82162  1  0  0  0
 82163  1  0  0  0
M  ISO  4   1 100  68 101  82 101  86 100
M  END
> <chiral flag>
0

> <version>
0

> <s_m_source_file>
/data/baiqing/PycharmProjects/Reinvent-master-3.2/result/LINK_invent/BTK/process_docking_weight1_custom_sum_contain_oxygen_bond_distance_aromatic_linkinvent_7_9_3/rearranged_h_0195.sdf

> <i_m_source_file_index>
90

> <r_mmod_Potential_Energy-OPLS-2005>
393.088806152344

> <r_mmod_Stretch_Energy-OPLS-2005>
105.839767456055

> <r_mmod_Bend_Energy-OPLS-2005>
208.366165161133

> <r_mmod_Torsional_Energy-OPLS-2005>
340.044097900391

> <r_mmod_Improper_Torsional_Energy-OPLS-2005>
5.81482744216919

> <r_mmod_Van_der_Waal_Energy-OPLS-2005>
174.222045898438

> <r_mmod_Electrostatic_Energy-OPLS-2005>
-276.386108398438

> <r_mmod_Solvation_Energy-OPLS-2005>
-234.036651611328

> <b_mmod_Minimization_Converged-OPLS-2005>
0

> <r_mmod_RMS_Derivative-OPLS-2005>
10.1224670410156

$$$$
92
                    3D
 Structure written by MMmdl.
171181  0  0  1  0            999 V2000
  -30.7670  -14.3749   20.6323 C   0  0  0  0  0  0
  -30.4063  -12.2751   19.4016 C   0  0  0  0  0  0
  -29.4822  -12.5259   18.1966 C   0  0  0  0  0  0
  -28.0065  -12.3852   18.6106 C   0  0  0  0  0  0
  -27.6657  -13.2057   19.8812 C   0  0  2  0  0  0
  -28.7051  -12.9616   20.9986 C   0  0  0  0  0  0
  -25.2611  -13.8160   20.5691 C   0  0  0  0  0  0
  -24.1842  -13.0435   20.9170 C   0  0  0  0  0  0
  -24.6394  -11.6909   20.8724 C   0  0  0  0  0  0
  -23.9056  -10.4306   21.0395 C   0  0  0  0  0  0
  -24.3614   -9.4225   21.9167 C   0  0  0  0  0  0
  -23.6305   -8.2252   22.0745 C   0  0  0  0  0  0
  -22.4286   -8.0280   21.3540 C   0  0  0  0  0  0
  -21.9915   -9.0245   20.4637 C   0  0  0  0  0  0
  -22.7233  -10.2134   20.3049 C   0  0  0  0  0  0
  -21.6859   -6.0740   22.5284 C   0  0  0  0  0  0
  -21.4014   -6.5647   23.8217 C   0  0  0  0  0  0
  -21.3663   -5.6793   24.9179 C   0  0  0  0  0  0
  -21.6048   -4.3056   24.7229 C   0  0  0  0  0  0
  -21.8821   -3.8160   23.4347 C   0  0  0  0  0  0
  -21.9195   -4.6970   22.3403 C   0  0  0  0  0  0
  -22.7865  -13.5227   21.1844 C   0  0  0  0  0  0
  -22.1665   -4.2154   21.0984 F   0  0  0  0  0  0
  -21.5630   -3.4534   25.7745 F   0  0  0  0  0  0
  -30.0470  -13.2380   20.4529 N   0  0  0  0  0  0
  -26.3045  -12.9330   20.3404 N   0  0  0  0  0  0
  -25.9332  -11.6486   20.5779 N   0  0  0  0  0  0
  -22.0518  -12.8212   22.0404 N   0  0  0  0  0  0
  -25.4347  -15.1875   20.4126 N   0  0  0  0  0  0
  -31.8323  -14.5926   20.0462 O   0  0  0  0  0  0
  -21.6648   -6.8882   21.4250 O   0  0  0  0  0  0
  -22.3559  -14.5535   20.6698 O   0  0  0  0  0  0
  -24.6116  -31.8745   23.2146 C   0  0  0  0  0  0
  -25.9029  -32.4833   23.8446 C   0  0  1  0  0  0
  -27.2380  -27.4682   20.0695 C   0  0  0  0  0  0
  -25.5884  -33.8634   24.2366 N   0  0  0  0  0  0
  -23.3969  -30.4975   21.5568 C   0  0  2  0  0  0
  -24.8353  -28.9613   20.1259 C   0  0  0  0  0  0
  -22.7391  -29.4727   22.5068 C   0  0  0  0  0  0
  -18.0280  -28.1393   22.8538 C   0  0  0  0  0  0
  -24.1452  -36.7331   23.2638 C   0  0  0  0  0  0
  -25.9231  -30.8419   21.3649 C   0  0  0  0  0  0
  -25.9956  -29.4775   20.7115 C   0  0  0  0  0  0
  -27.1957  -28.7373   20.6836 C   0  0  0  0  0  0
  -26.0462  -26.9414   19.5148 C   0  0  0  0  0  0
  -24.8510  -27.6865   19.5326 C   0  0  0  0  0  0
  -23.5980  -29.8287   20.1734 C   0  0  0  0  0  0
  -25.4072  -36.3125   24.0336 C   0  0  1  0  0  0
  -20.5866  -28.3682   23.1338 C   0  0  2  0  0  0
  -20.6755  -26.9430   22.5414 C   0  0  0  0  0  0
  -19.5723  -26.6415   21.5222 C   0  0  0  0  0  0
  -18.1909  -26.7959   22.1653 C   0  0  0  0  0  0
  -19.1521  -28.8865   23.2940 C   0  0  0  0  0  0
  -18.9441  -30.1470   23.8958 C   0  0  0  0  0  0
  -17.6439  -30.6601   24.0578 C   0  0  0  0  0  0
  -25.9024  -34.9489   23.5153 C   0  0  0  0  0  0
  -16.5337  -29.9105   23.6326 C   0  0  0  0  0  0
  -16.7268  -28.6510   23.0381 C   0  0  0  0  0  0
  -26.4487  -31.6622   25.0779 C   0  0  0  0  0  0
  -25.3758  -31.3678   26.1527 C   0  0  0  0  0  0
  -27.0356  -30.3078   24.6166 C   0  0  0  0  0  0
  -27.6088  -32.4380   25.7463 C   0  0  0  0  0  0
  -27.5574  -37.1780   24.8460 C   0  0  0  0  0  0
  -21.4139  -29.3051   22.3754 N   0  0  0  0  0  0
  -26.4272  -37.3808   23.9432 N   0  0  0  0  0  0
  -24.6616  -31.0865   22.1035 N   0  0  0  0  0  0
  -23.4159  -28.8290   23.3133 O   0  0  0  0  0  0
  -28.4587  -26.8317   20.0378 O   0  0  0  0  0  0
  -26.5604  -34.8941   22.4732 O   0  0  0  0  0  0
  -23.5321  -32.1526   23.7545 O   0  0  0  0  0  0
  -30.3817  -20.0529   19.7189 C   0  0  0  0  0  0
  -32.1335  -21.3309   20.3009 C   0  0  0  0  0  0
  -31.1959  -21.1563   19.3099 C   0  0  0  0  0  0
  -30.8452  -19.6386   20.9354 C   0  0  0  0  0  0
  -32.2881  -22.8198   17.7296 C   0  0  0  0  0  0
  -31.1265  -16.2789   22.1693 C   0  0  0  0  0  0
  -29.3576  -16.3331   21.1134 C   0  0  0  0  0  0
  -32.0805  -24.1230   18.5254 C   0  0  0  0  0  0
  -29.9796  -23.0651   18.1739 C   0  0  0  0  0  0
  -31.0450  -21.9719   18.0337 C   0  0  2  0  0  0
  -30.5627  -17.2647   21.1516 C   0  0  0  0  0  0
  -34.4742  -20.9379   22.2842 C   0  0  0  0  0  0
  -30.0231  -25.4947   18.8278 C   0  0  0  0  0  0
  -28.6121  -25.5461   19.4397 C   0  0  0  0  0  0
  -31.9196  -20.4153   21.3129 N   0  0  0  0  0  0
  -30.2785  -15.2593   21.5274 N   0  0  0  0  0  0
  -30.3223  -18.5918   21.6855 N   0  0  0  0  0  0
  -30.6514  -24.1534   18.9189 N   0  3  2  0  0  0
  -32.8543  -20.2705   22.7642 S   0  0  0  0  0  0
  -31.4527  -12.3481   19.1002 H   0  0  0  0  0  0
  -30.2812  -11.2576   19.7730 H   0  0  0  0  0  0
  -29.7147  -11.8335   17.3874 H   0  0  0  0  0  0
  -29.6588  -13.5271   17.8031 H   0  0  0  0  0  0
  -27.8050  -11.3268   18.7827 H   0  0  0  0  0  0
  -27.3568  -12.6888   17.7887 H   0  0  0  0  0  0
  -27.7181  -14.2575   19.6022 H   0  0  0  0  0  0
  -28.6637  -11.9258   21.3390 H   0  0  0  0  0  0
  -28.4703  -13.5623   21.8774 H   0  0  0  0  0  0
  -25.2763   -9.5696   22.4725 H   0  0  0  0  0  0
  -24.0021   -7.4650   22.7464 H   0  0  0  0  0  0
  -21.0852   -8.8772   19.8945 H   0  0  0  0  0  0
  -22.3697  -10.9672   19.6162 H   0  0  0  0  0  0
  -21.2006   -7.6151   23.9718 H   0  0  0  0  0  0
  -21.1481   -6.0528   25.9081 H   0  0  0  0  0  0
  -22.0597   -2.7618   23.2854 H   0  0  0  0  0  0
  -22.4154  -11.9879   22.4770 H   0  0  0  0  0  0
  -21.1127  -13.1234   22.2593 H   0  0  0  0  0  0
  -24.6723  -15.8478   20.5194 H   0  0  0  0  0  0
  -26.2959  -15.6271   20.1142 H   0  0  0  0  0  0
  -26.7100  -32.5525   23.1211 H   0  0  0  0  0  0
  -24.9970  -33.9826   25.0451 H   0  0  0  0  0  0
  -22.6848  -31.3137   21.4217 H   0  0  0  0  0  0
  -23.3732  -35.9645   23.3286 H   0  0  0  0  0  0
  -24.3575  -36.8988   22.2062 H   0  0  0  0  0  0
  -23.7187  -37.6509   23.6690 H   0  0  0  0  0  0
  -26.0379  -31.6045   20.5944 H   0  0  0  0  0  0
  -26.8106  -30.8938   21.9832 H   0  0  0  0  0  0
  -28.0978  -29.1447   21.1179 H   0  0  0  0  0  0
  -25.9977  -25.9603   19.0668 H   0  0  0  0  0  0
  -23.9514  -27.2722   19.0971 H   0  0  0  0  0  0
  -23.7082  -30.6057   19.4167 H   0  0  0  0  0  0
  -22.7198  -29.2496   19.8815 H   0  0  0  0  0  0
  -25.1241  -36.1977   25.0822 H   0  0  0  0  0  0
  -20.9975  -28.3241   24.1454 H   0  0  0  0  0  0
  -20.5696  -26.2308   23.3599 H   0  0  0  0  0  0
  -21.6616  -26.7505   22.1171 H   0  0  0  0  0  0
  -19.6885  -25.6327   21.1235 H   0  0  0  0  0  0
  -19.6634  -27.3236   20.6741 H   0  0  0  0  0  0
  -17.4180  -26.6765   21.4027 H   0  0  0  0  0  0
  -18.0289  -26.0061   22.8999 H   0  0  0  0  0  0
  -19.7895  -30.7272   24.2351 H   0  0  0  0  0  0
  -17.4983  -31.6279   24.5176 H   0  0  0  0  0  0
  -15.5341  -30.3016   23.7613 H   0  0  0  0  0  0
  -15.8667  -28.0818   22.7107 H   0  0  0  0  0  0
  -24.5927  -30.7053   25.7842 H   0  0  0  0  0  0
  -24.8938  -32.2788   26.5069 H   0  0  0  0  0  0
  -25.8122  -30.8772   27.0234 H   0  0  0  0  0  0
  -26.2909  -29.6729   24.1367 H   0  0  0  0  0  0
  -27.4298  -29.7435   25.4630 H   0  0  0  0  0  0
  -27.8647  -30.4448   23.9235 H   0  0  0  0  0  0
  -27.2768  -33.3702   26.2053 H   0  0  0  0  0  0
  -28.3816  -32.6928   25.0195 H   0  0  0  0  0  0
  -28.0856  -31.8522   26.5328 H   0  0  0  0  0  0
  -28.2557  -38.0105   24.7590 H   0  0  0  0  0  0
  -28.1116  -36.2661   24.6181 H   0  0  0  0  0  0
  -27.2353  -37.1310   25.8878 H   0  0  0  0  0  0
  -20.9321  -29.8732   21.6927 H   0  0  0  0  0  0
  -26.0165  -38.2881   24.1475 H   0  0  0  0  0  0
  -29.5439  -19.6255   19.1871 H   0  0  0  0  0  0
  -32.9501  -22.0331   20.3812 H   0  0  0  0  0  0
  -33.2306  -22.3164   17.9493 H   0  0  0  0  0  0
  -32.3078  -23.0646   16.6664 H   0  0  0  0  0  0
  -30.8436  -16.4786   23.2075 H   0  0  0  0  0  0
  -32.2072  -16.1334   22.0816 H   0  0  0  0  0  0
  -28.9237  -16.2271   20.1173 H   0  0  0  0  0  0
  -28.5833  -16.5487   21.8523 H   0  0  0  0  0  0
  -32.3679  -24.9915   17.9293 H   0  0  0  0  0  0
  -32.6910  -24.1422   19.4281 H   0  0  0  0  0  0
  -29.0780  -22.7076   18.6711 H   0  0  0  0  0  0
  -29.6923  -23.4242   17.1838 H   0  0  0  0  0  0
  -30.8125  -21.2978   17.2072 H   0  0  0  0  0  0
  -31.1242  -17.2598   20.2133 H   0  0  0  0  0  0
  -35.2001  -20.7574   23.0761 H   0  0  0  0  0  0
  -34.4150  -22.0147   22.1198 H   0  0  0  0  0  0
  -34.8324  -20.4606   21.3716 H   0  0  0  0  0  0
  -30.6630  -26.1985   19.3593 H   0  0  0  0  0  0
  -29.9928  -25.8321   17.7905 H   0  0  0  0  0  0
  -28.4803  -24.7962   20.2206 H   0  0  0  0  0  0
  -27.9070  -25.3231   18.6433 H   0  0  0  0  0  0
  -30.6227  -18.6558   22.6539 H   0  0  0  0  0  0
  -30.6308  -23.8760   19.8892 H   0  0  0  0  0  0
  1 25  1  0  0  0
  1 30  2  0  0  0
  1 86  1  0  0  0
  2  3  1  0  0  0
  2 25  1  0  0  0
  2 90  1  0  0  0
  2 91  1  0  0  0
  3  4  1  0  0  0
  3 92  1  0  0  0
  3 93  1  0  0  0
  4  5  1  0  0  0
  4 94  1  0  0  0
  4 95  1  0  0  0
  5  6  1  0  0  0
  5 26  1  0  0  0
  5 96  1  0  0  0
  6 25  1  0  0  0
  6 97  1  0  0  0
  6 98  1  0  0  0
  7  8  2  0  0  0
  7 26  1  0  0  0
  7 29  1  0  0  0
  8  9  1  0  0  0
  8 22  1  0  0  0
  9 10  1  0  0  0
  9 27  2  0  0  0
 10 11  2  0  0  0
 10 15  1  0  0  0
 11 12  1  0  0  0
 11 99  1  0  0  0
 12 13  2  0  0  0
 12100  1  0  0  0
 13 14  1  0  0  0
 13 31  1  0  0  0
 14 15  2  0  0  0
 14101  1  0  0  0
 15102  1  0  0  0
 16 17  2  0  0  0
 16 21  1  0  0  0
 16 31  1  0  0  0
 17 18  1  0  0  0
 17103  1  0  0  0
 18 19  2  0  0  0
 18104  1  0  0  0
 19 20  1  0  0  0
 19 24  1  0  0  0
 20 21  2  0  0  0
 20105  1  0  0  0
 21 23  1  0  0  0
 22 28  1  0  0  0
 22 32  2  0  0  0
 26 27  1  0  0  0
 28106  1  0  0  0
 28107  1  0  0  0
 29108  1  0  0  0
 29109  1  0  0  0
 33 34  1  0  0  0
 33 66  1  0  0  0
 33 70  2  0  0  0
 34 36  1  0  0  0
 34 59  1  0  0  0
 34110  1  0  0  0
 35 44  2  0  0  0
 35 45  1  0  0  0
 35 68  1  0  0  0
 36 56  1  0  0  0
 36111  1  0  0  0
 37 39  1  0  0  0
 37 47  1  0  0  0
 37 66  1  0  0  0
 37112  1  0  0  0
 38 43  2  0  0  0
 38 46  1  0  0  0
 38 47  1  0  0  0
 39 64  1  0  0  0
 39 67  2  0  0  0
 40 52  1  0  0  0
 40 53  2  0  0  0
 40 58  1  0  0  0
 41113  1  0  0  0
 41114  1  0  0  0
 41115  1  0  0  0
 41 48  1  0  0  0
 42 43  1  0  0  0
 42 66  1  0  0  0
 42116  1  0  0  0
 42117  1  0  0  0
 43 44  1  0  0  0
 44118  1  0  0  0
 45 46  2  0  0  0
 45119  1  0  0  0
 46120  1  0  0  0
 47121  1  0  0  0
 47122  1  0  0  0
 48 56  1  0  0  0
 48 65  1  0  0  0
 48123  1  0  0  0
 49 50  1  0  0  0
 49 53  1  0  0  0
 49 64  1  0  0  0
 49124  1  0  0  0
 50 51  1  0  0  0
 50125  1  0  0  0
 50126  1  0  0  0
 51 52  1  0  0  0
 51127  1  0  0  0
 51128  1  0  0  0
 52129  1  0  0  0
 52130  1  0  0  0
 53 54  1  0  0  0
 54 55  2  0  0  0
 54131  1  0  0  0
 55 57  1  0  0  0
 55132  1  0  0  0
 56 69  2  0  0  0
 57 58  2  0  0  0
 57133  1  0  0  0
 58134  1  0  0  0
 59 60  1  0  0  0
 59 61  1  0  0  0
 59 62  1  0  0  0
 60135  1  0  0  0
 60136  1  0  0  0
 60137  1  0  0  0
 61138  1  0  0  0
 61139  1  0  0  0
 61140  1  0  0  0
 62141  1  0  0  0
 62142  1  0  0  0
 62143  1  0  0  0
 63 65  1  0  0  0
 63144  1  0  0  0
 63145  1  0  0  0
 63146  1  0  0  0
 64147  1  0  0  0
 65148  1  0  0  0
 68 84  1  0  0  0
 71 73  1  0  0  0
 71 74  2  0  0  0
 71149  1  0  0  0
 72 73  2  0  0  0
 72 85  1  0  0  0
 72150  1  0  0  0
 73 80  1  0  0  0
 74 85  1  0  0  0
 74 87  1  0  0  0
 75 78  1  0  0  0
 75 80  1  0  0  0
 75151  1  0  0  0
 75152  1  0  0  0
 76 81  1  0  0  0
 76 86  1  0  0  0
 76153  1  0  0  0
 76154  1  0  0  0
 77 81  1  0  0  0
 77 86  1  0  0  0
 77155  1  0  0  0
 77156  1  0  0  0
 78 88  1  0  0  0
 78157  1  0  0  0
 78158  1  0  0  0
 79 80  1  0  0  0
 79 88  1  0  0  0
 79159  1  0  0  0
 79160  1  0  0  0
 80161  1  0  0  0
 81 87  1  0  0  0
 81162  1  0  0  0
 82 89  1  0  0  0
 82163  1  0  0  0
 82164  1  0  0  0
 82165  1  0  0  0
 83 84  1  0  0  0
 83166  1  0  0  0
 83167  1  0  0  0
 83 88  1  0  0  0
 84168  1  0  0  0
 84169  1  0  0  0
 85 89  1  0  0  0
 87170  1  0  0  0
 88171  1  0  0  0
M  CHG  1  88   1
M  ISO  4   1 100  68 101  84 101  86 100
M  END
> <chiral flag>
0

> <version>
0

> <s_m_source_file>
/data/baiqing/PycharmProjects/Reinvent-master-3.2/result/LINK_invent/BTK/process_docking_weight1_custom_sum_contain_oxygen_bond_distance_aromatic_linkinvent_7_9_3/rearranged_h_0195.sdf

> <i_m_source_file_index>
91

> <r_mmod_Potential_Energy-OPLS-2005>
-4.14869451522827

> <r_mmod_Stretch_Energy-OPLS-2005>
33.1972007751465

> <r_mmod_Bend_Energy-OPLS-2005>
147.686187744141

> <r_mmod_Torsional_Energy-OPLS-2005>
344.107330322266

> <r_mmod_Improper_Torsional_Energy-OPLS-2005>
14.5046863555908

> <r_mmod_Van_der_Waal_Energy-OPLS-2005>
138.648406982422

> <r_mmod_Electrostatic_Energy-OPLS-2005>
-259.418609619141

> <r_mmod_Solvation_Energy-OPLS-2005>
-432.185974121094

> <b_mmod_Minimization_Converged-OPLS-2005>
0

> <r_mmod_RMS_Derivative-OPLS-2005>
3.62195992469788

$$$$
93
                    3D
 Structure written by MMmdl.
160170  0  0  1  0            999 V2000
  -30.6126  -14.9465   20.4154 C   0  0  0  0  0  0
  -30.4205  -12.6022   19.4845 C   0  0  0  0  0  0
  -29.5067  -12.5219   18.2448 C   0  0  0  0  0  0
  -28.0441  -12.3134   18.6742 C   0  0  0  0  0  0
  -27.6225  -13.2556   19.8333 C   0  0  2  0  0  0
  -28.6724  -13.3102   20.9645 C   0  0  0  0  0  0
  -25.2424  -13.8234   20.5706 C   0  0  0  0  0  0
  -24.1762  -13.0448   20.9248 C   0  0  0  0  0  0
  -24.6397  -11.6931   20.8773 C   0  0  0  0  0  0
  -23.9092  -10.4287   21.0409 C   0  0  0  0  0  0
  -24.3638   -9.4197   21.9183 C   0  0  0  0  0  0
  -23.6305   -8.2236   22.0747 C   0  0  0  0  0  0
  -22.4289   -8.0277   21.3536 C   0  0  0  0  0  0
  -21.9931   -9.0256   20.4643 C   0  0  0  0  0  0
  -22.7269  -10.2132   20.3054 C   0  0  0  0  0  0
  -21.6867   -6.0734   22.5270 C   0  0  0  0  0  0
  -21.4027   -6.5638   23.8204 C   0  0  0  0  0  0
  -21.3651   -5.6789   24.9167 C   0  0  0  0  0  0
  -21.6044   -4.3049   24.7221 C   0  0  0  0  0  0
  -21.8826   -3.8141   23.4343 C   0  0  0  0  0  0
  -21.9199   -4.6959   22.3399 C   0  0  0  0  0  0
  -22.7778  -13.5194   21.1884 C   0  0  0  0  0  0
  -22.1666   -4.2142   21.0980 F   0  0  0  0  0  0
  -21.5619   -3.4533   25.7732 F   0  0  0  0  0  0
  -29.9307  -13.7304   20.3360 N   0  0  0  0  0  0
  -26.2864  -12.9487   20.3277 N   0  0  0  0  0  0
  -25.9338  -11.6604   20.5792 N   0  0  0  0  0  0
  -22.0443  -12.8169   22.0448 N   0  0  0  0  0  0
  -25.4055  -15.1956   20.4035 N   0  0  0  0  0  0
  -31.8292  -14.8718   20.2077 O   0  0  0  0  0  0
  -21.6652   -6.8877   21.4231 O   0  0  0  0  0  0
  -22.3452  -14.5497   20.6734 O   0  0  0  0  0  0
  -24.6420  -31.8432   23.1909 C   0  0  0  0  0  0
  -25.9201  -32.4683   23.8280 C   0  0  1  0  0  0
  -27.2111  -27.1424   20.1351 C   0  0  0  0  0  0
  -25.5940  -33.8489   24.2188 N   0  0  0  0  0  0
  -23.4451  -30.4667   21.5334 C   0  0  2  0  0  0
  -24.8926  -28.8973   20.1049 C   0  0  0  0  0  0
  -22.7557  -29.4555   22.4850 C   0  0  0  0  0  0
  -18.0290  -28.1397   22.8490 C   0  0  0  0  0  0
  -24.1493  -36.7269   23.2645 C   0  0  0  0  0  0
  -26.0000  -30.7198   21.3888 C   0  0  0  0  0  0
  -26.0686  -29.3331   20.7260 C   0  0  0  0  0  0
  -27.2247  -28.4676   20.7310 C   0  0  0  0  0  0
  -26.0042  -26.8035   19.4838 C   0  0  0  0  0  0
  -24.8715  -27.6457   19.4730 C   0  0  0  0  0  0
  -23.6727  -29.8031   20.1494 C   0  0  0  0  0  0
  -25.4120  -36.3022   24.0314 C   0  0  1  0  0  0
  -20.5902  -28.3743   23.1280 C   0  0  2  0  0  0
  -20.6752  -26.9411   22.5489 C   0  0  0  0  0  0
  -19.5779  -26.6404   21.5234 C   0  0  0  0  0  0
  -18.1931  -26.7951   22.1589 C   0  0  0  0  0  0
  -19.1539  -28.8890   23.2861 C   0  0  0  0  0  0
  -18.9453  -30.1489   23.8877 C   0  0  0  0  0  0
  -17.6449  -30.6603   24.0558 C   0  0  0  0  0  0
  -25.9066  -34.9395   23.5061 C   0  0  0  0  0  0
  -16.5346  -29.9084   23.6334 C   0  0  0  0  0  0
  -16.7275  -28.6500   23.0356 C   0  0  0  0  0  0
  -26.4527  -31.6548   25.0718 C   0  0  0  0  0  0
  -25.3730  -31.3739   26.1431 C   0  0  0  0  0  0
  -27.0406  -30.2946   24.6300 C   0  0  0  0  0  0
  -27.6043  -32.4331   25.7509 C   0  0  0  0  0  0
  -27.5571  -37.1793   24.8461 C   0  0  0  0  0  0
  -21.4239  -29.3067   22.3634 N   0  0  0  0  0  0
  -26.4280  -37.3735   23.9406 N   0  0  0  0  0  0
  -24.7157  -31.0303   22.0934 N   0  0  0  0  0  0
  -23.4209  -28.8096   23.2985 O   0  0  0  0  0  0
  -28.2673  -26.1696   20.2541 O   0  0  0  0  0  0
  -26.5659  -34.8891   22.4640 O   0  0  0  0  0  0
  -23.5537  -32.1311   23.7129 O   0  0  0  0  0  0
  -29.2459  -22.0838   19.8430 C   0  0  0  0  0  0
  -28.4232  -23.2790   20.1564 C   0  0  0  0  0  0
  -28.7250  -20.8964   20.4130 C   0  0  0  0  0  0
  -29.2663  -18.4312   22.5009 C   0  0  0  0  0  0
  -30.6504  -18.8642   22.0193 C   0  0  0  0  0  0
  -28.6354  -16.7934   20.6398 C   0  0  0  0  0  0
  -30.7722  -17.4747   19.8738 C   0  0  0  0  0  0
  -28.4843  -18.3231   21.1832 C   0  0  2  0  0  0
  -30.4661  -18.9336   20.4971 C   0  0  1  0  0  0
  -26.5796  -20.7911   21.8691 C   0  0  0  0  0  0
  -28.3555  -24.8039   19.5236 C   0  0  0  0  0  0
  -27.4533  -22.8121   20.9350 N   0  0  0  0  0  0
  -27.6102  -21.4448   21.0823 N   0  0  0  0  0  0
  -29.0734  -19.4214   20.3398 N   0  0  0  0  0  0
  -30.0188  -16.2584   20.3857 N   0  0  0  0  0  0
  -31.4534  -12.7375   19.1615 H   0  0  0  0  0  0
  -30.4067  -11.6631   20.0386 H   0  0  0  0  0  0
  -29.8248  -11.7118   17.5870 H   0  0  0  0  0  0
  -29.5935  -13.4407   17.6628 H   0  0  0  0  0  0
  -27.9449  -11.2753   18.9931 H   0  0  0  0  0  0
  -27.3754  -12.4354   17.8209 H   0  0  0  0  0  0
  -27.5757  -14.2513   19.3914 H   0  0  0  0  0  0
  -28.7775  -12.3397   21.4503 H   0  0  0  0  0  0
  -28.3813  -14.0092   21.7472 H   0  0  0  0  0  0
  -25.2788   -9.5673   22.4753 H   0  0  0  0  0  0
  -24.0010   -7.4633   22.7473 H   0  0  0  0  0  0
  -21.0858   -8.8788   19.8952 H   0  0  0  0  0  0
  -22.3735  -10.9670   19.6153 H   0  0  0  0  0  0
  -21.2030   -7.6150   23.9709 H   0  0  0  0  0  0
  -21.1466   -6.0515   25.9070 H   0  0  0  0  0  0
  -22.0618   -2.7602   23.2846 H   0  0  0  0  0  0
  -22.4092  -11.9837   22.4818 H   0  0  0  0  0  0
  -21.1050  -13.1147   22.2664 H   0  0  0  0  0  0
  -24.6237  -15.8379   20.4728 H   0  0  0  0  0  0
  -26.2385  -15.6235   20.0223 H   0  0  0  0  0  0
  -26.7264  -32.5298   23.1001 H   0  0  0  0  0  0
  -25.0033  -33.9596   25.0299 H   0  0  0  0  0  0
  -22.7476  -31.2927   21.3815 H   0  0  0  0  0  0
  -23.3732  -35.9620   23.3284 H   0  0  0  0  0  0
  -24.3590  -36.8929   22.2066 H   0  0  0  0  0  0
  -23.7271  -37.6468   23.6706 H   0  0  0  0  0  0
  -26.1589  -31.4778   20.6208 H   0  0  0  0  0  0
  -26.8698  -30.7673   22.0330 H   0  0  0  0  0  0
  -28.1185  -28.7914   21.2462 H   0  0  0  0  0  0
  -25.8730  -25.8398   19.0204 H   0  0  0  0  0  0
  -23.9683  -27.3015   18.9886 H   0  0  0  0  0  0
  -23.8225  -30.5837   19.4011 H   0  0  0  0  0  0
  -22.7866  -29.2545   19.8271 H   0  0  0  0  0  0
  -25.1308  -36.1840   25.0804 H   0  0  0  0  0  0
  -20.9986  -28.3356   24.1405 H   0  0  0  0  0  0
  -20.5527  -26.2362   23.3723 H   0  0  0  0  0  0
  -21.6636  -26.7352   22.1357 H   0  0  0  0  0  0
  -19.6958  -25.6325   21.1243 H   0  0  0  0  0  0
  -19.6759  -27.3259   20.6806 H   0  0  0  0  0  0
  -17.4237  -26.6754   21.3952 H   0  0  0  0  0  0
  -18.0283  -26.0069   22.8946 H   0  0  0  0  0  0
  -19.7927  -30.7322   24.2201 H   0  0  0  0  0  0
  -17.5001  -31.6294   24.5136 H   0  0  0  0  0  0
  -15.5335  -30.2974   23.7629 H   0  0  0  0  0  0
  -15.8686  -28.0790   22.7074 H   0  0  0  0  0  0
  -24.5891  -30.7097   25.7773 H   0  0  0  0  0  0
  -24.8944  -32.2926   26.4833 H   0  0  0  0  0  0
  -25.8033  -30.8934   27.0227 H   0  0  0  0  0  0
  -26.3037  -29.6661   24.1289 H   0  0  0  0  0  0
  -27.4005  -29.7247   25.4876 H   0  0  0  0  0  0
  -27.8943  -30.4180   23.9634 H   0  0  0  0  0  0
  -27.2599  -33.3625   26.2049 H   0  0  0  0  0  0
  -28.3869  -32.6901   25.0363 H   0  0  0  0  0  0
  -28.0692  -31.8495   26.5459 H   0  0  0  0  0  0
  -28.2570  -38.0106   24.7489 H   0  0  0  0  0  0
  -28.1082  -36.2629   24.6295 H   0  0  0  0  0  0
  -27.2300  -37.1453   25.8870 H   0  0  0  0  0  0
  -20.9428  -29.8837   21.6874 H   0  0  0  0  0  0
  -26.0136  -38.2798   24.1402 H   0  0  0  0  0  0
  -30.1033  -22.1003   19.1850 H   0  0  0  0  0  0
  -28.8535  -19.1905   23.1634 H   0  0  0  0  0  0
  -29.2830  -17.4934   23.0575 H   0  0  0  0  0  0
  -30.9011  -19.8462   22.4251 H   0  0  0  0  0  0
  -31.4349  -18.1679   22.3163 H   0  0  0  0  0  0
  -28.1378  -16.1411   21.3538 H   0  0  0  0  0  0
  -28.0748  -16.6949   19.7104 H   0  0  0  0  0  0
  -31.8456  -17.3112   19.9868 H   0  0  0  0  0  0
  -30.6129  -17.5197   18.7964 H   0  0  0  0  0  0
  -27.4229  -18.4775   21.3536 H   0  0  0  0  0  0
  -31.1605  -19.6586   20.0688 H   0  0  0  0  0  0
  -25.8676  -21.5200   22.2594 H   0  0  0  0  0  0
  -27.0213  -20.2826   22.7225 H   0  0  0  0  0  0
  -26.0292  -20.0834   21.2507 H   0  0  0  0  0  0
  -27.6069  -24.7806   18.7367 H   0  0  0  0  0  0
  -29.2687  -24.9151   18.9389 H   0  0  0  0  0  0
  1 25  1  0  0  0
  1 30  2  0  0  0
  1 85  1  0  0  0
  2  3  1  0  0  0
  2 25  1  0  0  0
  2 86  1  0  0  0
  2 87  1  0  0  0
  3  4  1  0  0  0
  3 88  1  0  0  0
  3 89  1  0  0  0
  4  5  1  0  0  0
  4 90  1  0  0  0
  4 91  1  0  0  0
  5  6  1  0  0  0
  5 26  1  0  0  0
  5 92  1  0  0  0
  6 25  1  0  0  0
  6 93  1  0  0  0
  6 94  1  0  0  0
  7  8  2  0  0  0
  7 26  1  0  0  0
  7 29  1  0  0  0
  8  9  1  0  0  0
  8 22  1  0  0  0
  9 10  1  0  0  0
  9 27  2  0  0  0
 10 11  2  0  0  0
 10 15  1  0  0  0
 11 12  1  0  0  0
 11 95  1  0  0  0
 12 13  2  0  0  0
 12 96  1  0  0  0
 13 14  1  0  0  0
 13 31  1  0  0  0
 14 15  2  0  0  0
 14 97  1  0  0  0
 15 98  1  0  0  0
 16 17  2  0  0  0
 16 21  1  0  0  0
 16 31  1  0  0  0
 17 18  1  0  0  0
 17 99  1  0  0  0
 18 19  2  0  0  0
 18100  1  0  0  0
 19 20  1  0  0  0
 19 24  1  0  0  0
 20 21  2  0  0  0
 20101  1  0  0  0
 21 23  1  0  0  0
 22 28  1  0  0  0
 22 32  2  0  0  0
 26 27  1  0  0  0
 28102  1  0  0  0
 28103  1  0  0  0
 29104  1  0  0  0
 29105  1  0  0  0
 33 34  1  0  0  0
 33 66  1  0  0  0
 33 70  2  0  0  0
 34 36  1  0  0  0
 34 59  1  0  0  0
 34106  1  0  0  0
 35 44  2  0  0  0
 35 45  1  0  0  0
 35 68  1  0  0  0
 36 56  1  0  0  0
 36107  1  0  0  0
 37 39  1  0  0  0
 37 47  1  0  0  0
 37 66  1  0  0  0
 37108  1  0  0  0
 38 43  2  0  0  0
 38 46  1  0  0  0
 38 47  1  0  0  0
 39 64  1  0  0  0
 39 67  2  0  0  0
 40 52  1  0  0  0
 40 53  2  0  0  0
 40 58  1  0  0  0
 41109  1  0  0  0
 41110  1  0  0  0
 41111  1  0  0  0
 41 48  1  0  0  0
 42 43  1  0  0  0
 42 66  1  0  0  0
 42112  1  0  0  0
 42113  1  0  0  0
 43 44  1  0  0  0
 44114  1  0  0  0
 45 46  2  0  0  0
 45115  1  0  0  0
 46116  1  0  0  0
 47117  1  0  0  0
 47118  1  0  0  0
 48 56  1  0  0  0
 48 65  1  0  0  0
 48119  1  0  0  0
 49 50  1  0  0  0
 49 53  1  0  0  0
 49 64  1  0  0  0
 49120  1  0  0  0
 50 51  1  0  0  0
 50121  1  0  0  0
 50122  1  0  0  0
 51 52  1  0  0  0
 51123  1  0  0  0
 51124  1  0  0  0
 52125  1  0  0  0
 52126  1  0  0  0
 53 54  1  0  0  0
 54 55  2  0  0  0
 54127  1  0  0  0
 55 57  1  0  0  0
 55128  1  0  0  0
 56 69  2  0  0  0
 57 58  2  0  0  0
 57129  1  0  0  0
 58130  1  0  0  0
 59 60  1  0  0  0
 59 61  1  0  0  0
 59 62  1  0  0  0
 60131  1  0  0  0
 60132  1  0  0  0
 60133  1  0  0  0
 61134  1  0  0  0
 61135  1  0  0  0
 61136  1  0  0  0
 62137  1  0  0  0
 62138  1  0  0  0
 62139  1  0  0  0
 63 65  1  0  0  0
 63140  1  0  0  0
 63141  1  0  0  0
 63142  1  0  0  0
 64143  1  0  0  0
 65144  1  0  0  0
 68 81  1  0  0  0
 71 72  1  0  0  0
 71 73  2  0  0  0
 71145  1  0  0  0
 72 81  1  0  0  0
 72 82  2  0  0  0
 73 83  1  0  0  0
 73 84  1  0  0  0
 74 75  1  0  0  0
 74146  1  0  0  0
 74147  1  0  0  0
 74 78  1  0  0  0
 75148  1  0  0  0
 75149  1  0  0  0
 75 79  1  0  0  0
 76 78  1  0  0  0
 76 85  1  0  0  0
 76150  1  0  0  0
 76151  1  0  0  0
 77 79  1  0  0  0
 77 85  1  0  0  0
 77152  1  0  0  0
 77153  1  0  0  0
 78 84  1  0  0  0
 78154  1  0  0  0
 79 84  1  0  0  0
 79155  1  0  0  0
 80 83  1  0  0  0
 80156  1  0  0  0
 80157  1  0  0  0
 80158  1  0  0  0
 81159  1  0  0  0
 81160  1  0  0  0
 82 83  1  0  0  0
M  ISO  4   1 100  68 101  81 101  85 100
M  END
> <chiral flag>
0

> <version>
0

> <s_m_source_file>
/data/baiqing/PycharmProjects/Reinvent-master-3.2/result/LINK_invent/BTK/process_docking_weight1_custom_sum_contain_oxygen_bond_distance_aromatic_linkinvent_7_9_3/rearranged_h_0195.sdf

> <i_m_source_file_index>
92

> <r_mmod_Potential_Energy-OPLS-2005>
714.029724121094

> <r_mmod_Stretch_Energy-OPLS-2005>
226.575256347656

> <r_mmod_Bend_Energy-OPLS-2005>
347.890747070312

> <r_mmod_Torsional_Energy-OPLS-2005>
408.634521484375

> <r_mmod_Improper_Torsional_Energy-OPLS-2005>
16.5853233337402

> <r_mmod_Van_der_Waal_Energy-OPLS-2005>
127.51522064209

> <r_mmod_Electrostatic_Energy-OPLS-2005>
-372.920684814453

> <r_mmod_Solvation_Energy-OPLS-2005>
-230.93278503418

> <b_mmod_Minimization_Converged-OPLS-2005>
0

> <r_mmod_RMS_Derivative-OPLS-2005>
2.17025780677795

$$$$
94
                    3D
 Structure written by MMmdl.
175185  0  0  1  0            999 V2000
  -30.6919  -14.4118   20.5400 C   0  0  0  0  0  0
  -30.4139  -12.2544   19.4185 C   0  0  0  0  0  0
  -29.4877  -12.4891   18.2057 C   0  0  0  0  0  0
  -28.0052  -12.3690   18.6155 C   0  0  0  0  0  0
  -27.6621  -13.1953   19.8821 C   0  0  2  0  0  0
  -28.7023  -12.9457   21.0013 C   0  0  0  0  0  0
  -25.2581  -13.8139   20.5690 C   0  0  0  0  0  0
  -24.1825  -13.0434   20.9173 C   0  0  0  0  0  0
  -24.6365  -11.6898   20.8757 C   0  0  0  0  0  0
  -23.9040  -10.4288   21.0420 C   0  0  0  0  0  0
  -24.3604   -9.4198   21.9189 C   0  0  0  0  0  0
  -23.6284   -8.2231   22.0764 C   0  0  0  0  0  0
  -22.4269   -8.0271   21.3544 C   0  0  0  0  0  0
  -21.9900   -9.0243   20.4642 C   0  0  0  0  0  0
  -22.7218  -10.2127   20.3056 C   0  0  0  0  0  0
  -21.6849   -6.0732   22.5278 C   0  0  0  0  0  0
  -21.4000   -6.5640   23.8206 C   0  0  0  0  0  0
  -21.3654   -5.6796   24.9174 C   0  0  0  0  0  0
  -21.6054   -4.3068   24.7225 C   0  0  0  0  0  0
  -21.8820   -3.8144   23.4340 C   0  0  0  0  0  0
  -21.9188   -4.6954   22.3398 C   0  0  0  0  0  0
  -22.7841  -13.5228   21.1829 C   0  0  0  0  0  0
  -22.1668   -4.2140   21.0980 F   0  0  0  0  0  0
  -21.5626   -3.4551   25.7743 F   0  0  0  0  0  0
  -30.0418  -13.2257   20.4568 N   0  0  0  0  0  0
  -26.3012  -12.9296   20.3398 N   0  0  0  0  0  0
  -25.9285  -11.6465   20.5796 N   0  0  0  0  0  0
  -22.0501  -12.8217   22.0397 N   0  0  0  0  0  0
  -25.4335  -15.1857   20.4097 N   0  0  0  0  0  0
  -31.8297  -14.5910   20.0996 O   0  0  0  0  0  0
  -21.6632   -6.8872   21.4234 O   0  0  0  0  0  0
  -22.3539  -14.5549   20.6690 O   0  0  0  0  0  0
  -24.6103  -31.8716   23.2156 C   0  0  0  0  0  0
  -25.9014  -32.4839   23.8432 C   0  0  1  0  0  0
  -27.2377  -27.4699   20.0786 C   0  0  0  0  0  0
  -25.5897  -33.8644   24.2353 N   0  0  0  0  0  0
  -23.3955  -30.4951   21.5568 C   0  0  2  0  0  0
  -24.8401  -28.9663   20.1207 C   0  0  0  0  0  0
  -22.7379  -29.4663   22.5034 C   0  0  0  0  0  0
  -18.0264  -28.1382   22.8499 C   0  0  0  0  0  0
  -24.1483  -36.7311   23.2626 C   0  0  0  0  0  0
  -25.9216  -30.8436   21.3667 C   0  0  0  0  0  0
  -25.9977  -29.4793   20.7175 C   0  0  0  0  0  0
  -27.1945  -28.7334   20.7045 C   0  0  0  0  0  0
  -26.0541  -26.9577   19.4930 C   0  0  0  0  0  0
  -24.8603  -27.7004   19.5128 C   0  0  0  0  0  0
  -23.6018  -29.8301   20.1703 C   0  0  0  0  0  0
  -25.4098  -36.3119   24.0340 C   0  0  1  0  0  0
  -20.5847  -28.3649   23.1346 C   0  0  2  0  0  0
  -20.6753  -26.9389   22.5426 C   0  0  0  0  0  0
  -19.5732  -26.6389   21.5216 C   0  0  0  0  0  0
  -18.1911  -26.7931   22.1623 C   0  0  0  0  0  0
  -19.1511  -28.8834   23.2913 C   0  0  0  0  0  0
  -18.9441  -30.1448   23.8902 C   0  0  0  0  0  0
  -17.6443  -30.6583   24.0568 C   0  0  0  0  0  0
  -25.9039  -34.9492   23.5141 C   0  0  0  0  0  0
  -16.5334  -29.9087   23.6331 C   0  0  0  0  0  0
  -16.7252  -28.6515   23.0335 C   0  0  0  0  0  0
  -26.4452  -31.6608   25.0738 C   0  0  0  0  0  0
  -25.3735  -31.3689   26.1493 C   0  0  0  0  0  0
  -27.0281  -30.3063   24.6084 C   0  0  0  0  0  0
  -27.6043  -32.4309   25.7485 C   0  0  0  0  0  0
  -27.5602  -37.1774   24.8436 C   0  0  0  0  0  0
  -21.4115  -29.3022   22.3768 N   0  0  0  0  0  0
  -26.4267  -37.3822   23.9454 N   0  0  0  0  0  0
  -24.6605  -31.0837   22.1049 N   0  0  0  0  0  0
  -23.4170  -28.8204   23.3058 O   0  0  0  0  0  0
  -28.4396  -26.7973   20.0616 O   0  0  0  0  0  0
  -26.5596  -34.8933   22.4701 O   0  0  0  0  0  0
  -23.5305  -32.1466   23.7565 O   0  0  0  0  0  0
  -33.3949  -18.6955   17.8492 C   0  0  0  0  0  0
  -34.0419  -19.7917   17.0070 C   0  0  0  0  0  0
  -30.7375  -23.3822   16.0080 C   0  0  0  0  0  0
  -30.1647  -24.5711   16.7858 C   0  0  0  0  0  0
  -31.3346  -23.3109   18.3338 C   0  0  0  0  0  0
  -30.8639  -17.1238   19.1573 C   0  0  0  0  0  0
  -30.0015  -18.0040   20.7843 C   0  0  0  0  0  0
  -32.1492  -19.5899   18.0204 C   0  0  2  0  0  0
  -29.7320  -16.6750   20.0838 C   0  0  2  0  0  0
  -33.0761  -20.7852   17.6708 C   0  0  2  0  0  0
  -31.2657  -22.4266   17.0831 C   0  0  2  0  0  0
  -31.4170  -19.5510   19.3773 C   0  0  0  0  0  0
  -30.0117  -25.2018   19.1393 C   0  0  0  0  0  0
  -28.5590  -25.6965   19.1731 C   0  0  0  0  0  0
  -30.1277  -24.1107   18.1735 N   0  0  0  0  0  0
  -29.8952  -15.4408   20.8702 N   0  0  0  0  0  0
  -30.3948  -18.4798   19.4441 N   0  3  1  0  0  0
  -32.5447  -21.7851   16.7074 N   0  3  0  0  0  0
  -31.4592  -12.3367   19.1161 H   0  0  0  0  0  0
  -30.2938  -11.2386   19.7979 H   0  0  0  0  0  0
  -29.7128  -11.7719   17.4160 H   0  0  0  0  0  0
  -29.6730  -13.4770   17.7820 H   0  0  0  0  0  0
  -27.7927  -11.3139   18.7934 H   0  0  0  0  0  0
  -27.3609  -12.6677   17.7883 H   0  0  0  0  0  0
  -27.7130  -14.2440   19.5951 H   0  0  0  0  0  0
  -28.6576  -11.9058   21.3285 H   0  0  0  0  0  0
  -28.4842  -13.5420   21.8883 H   0  0  0  0  0  0
  -25.2765   -9.5679   22.4741 H   0  0  0  0  0  0
  -23.9995   -7.4627   22.7493 H   0  0  0  0  0  0
  -21.0832   -8.8761   19.8937 H   0  0  0  0  0  0
  -22.3685  -10.9671   19.6162 H   0  0  0  0  0  0
  -21.1995   -7.6151   23.9700 H   0  0  0  0  0  0
  -21.1476   -6.0537   25.9075 H   0  0  0  0  0  0
  -22.0600   -2.7603   23.2854 H   0  0  0  0  0  0
  -22.4135  -11.9867   22.4751 H   0  0  0  0  0  0
  -21.1119  -13.1221   22.2626 H   0  0  0  0  0  0
  -24.6679  -15.8434   20.5060 H   0  0  0  0  0  0
  -26.2850  -15.6190   20.0796 H   0  0  0  0  0  0
  -26.7082  -32.5561   23.1202 H   0  0  0  0  0  0
  -25.0059  -33.9823   25.0504 H   0  0  0  0  0  0
  -22.6823  -31.3108   21.4213 H   0  0  0  0  0  0
  -23.3785  -35.9597   23.3208 H   0  0  0  0  0  0
  -24.3592  -36.9013   22.2061 H   0  0  0  0  0  0
  -23.7174  -37.6467   23.6692 H   0  0  0  0  0  0
  -26.0285  -31.6087   20.5969 H   0  0  0  0  0  0
  -26.8123  -30.8985   21.9807 H   0  0  0  0  0  0
  -28.0911  -29.1310   21.1602 H   0  0  0  0  0  0
  -26.0261  -25.9903   19.0139 H   0  0  0  0  0  0
  -23.9683  -27.2956   19.0550 H   0  0  0  0  0  0
  -23.7099  -30.6070   19.4128 H   0  0  0  0  0  0
  -22.7261  -29.2498   19.8732 H   0  0  0  0  0  0
  -25.1256  -36.1974   25.0828 H   0  0  0  0  0  0
  -20.9929  -28.3201   24.1471 H   0  0  0  0  0  0
  -20.5676  -26.2242   23.3594 H   0  0  0  0  0  0
  -21.6622  -26.7453   22.1205 H   0  0  0  0  0  0
  -19.6891  -25.6310   21.1225 H   0  0  0  0  0  0
  -19.6685  -27.3215   20.6764 H   0  0  0  0  0  0
  -17.4187  -26.6690   21.4020 H   0  0  0  0  0  0
  -18.0299  -26.0064   22.9014 H   0  0  0  0  0  0
  -19.7913  -30.7271   24.2262 H   0  0  0  0  0  0
  -17.4996  -31.6263   24.5183 H   0  0  0  0  0  0
  -15.5336  -30.2989   23.7663 H   0  0  0  0  0  0
  -15.8651  -28.0850   22.7022 H   0  0  0  0  0  0
  -24.5908  -30.7036   25.7831 H   0  0  0  0  0  0
  -24.8920  -32.2832   26.4969 H   0  0  0  0  0  0
  -25.8101  -30.8841   27.0234 H   0  0  0  0  0  0
  -26.2818  -29.6823   24.1152 H   0  0  0  0  0  0
  -27.4088  -29.7284   25.4520 H   0  0  0  0  0  0
  -27.8631  -30.4395   23.9204 H   0  0  0  0  0  0
  -27.2694  -33.3614   26.2073 H   0  0  0  0  0  0
  -28.3844  -32.6850   25.0299 H   0  0  0  0  0  0
  -28.0716  -31.8418   26.5390 H   0  0  0  0  0  0
  -28.2502  -38.0194   24.7692 H   0  0  0  0  0  0
  -28.1226  -36.2742   24.5999 H   0  0  0  0  0  0
  -27.2350  -37.1100   25.8834 H   0  0  0  0  0  0
  -20.9273  -29.8754   21.7002 H   0  0  0  0  0  0
  -26.0151  -38.2866   24.1598 H   0  0  0  0  0  0
  -33.9304  -18.5188   18.7844 H   0  0  0  0  0  0
  -33.2188  -17.7602   17.3145 H   0  0  0  0  0  0
  -33.8677  -19.6402   15.9395 H   0  0  0  0  0  0
  -35.0986  -19.9638   17.2200 H   0  0  0  0  0  0
  -31.5203  -23.7306   15.3319 H   0  0  0  0  0  0
  -29.9718  -22.8979   15.4008 H   0  0  0  0  0  0
  -29.1799  -24.8650   16.4179 H   0  0  0  0  0  0
  -30.8308  -25.4309   16.6820 H   0  0  0  0  0  0
  -32.2242  -23.9443   18.3280 H   0  0  0  0  0  0
  -31.3240  -22.7380   19.2620 H   0  0  0  0  0  0
  -30.7537  -16.8310   18.1119 H   0  0  0  0  0  0
  -31.8777  -16.9631   19.5313 H   0  0  0  0  0  0
  -30.8188  -17.9706   21.5100 H   0  0  0  0  0  0
  -29.1151  -18.4995   21.1813 H   0  0  0  0  0  0
  -31.4650  -19.4106   17.1869 H   0  0  0  0  0  0
  -28.7686  -16.6853   19.5653 H   0  0  0  0  0  0
  -33.5093  -21.2457   18.5616 H   0  0  0  0  0  0
  -30.5107  -21.6548   17.2407 H   0  0  0  0  0  0
  -30.9078  -20.4935   19.5753 H   0  0  0  0  0  0
  -32.1374  -19.4254   20.1857 H   0  0  0  0  0  0
  -30.2798  -24.8452   20.1353 H   0  0  0  0  0  0
  -30.7000  -26.0147   18.9000 H   0  0  0  0  0  0
  -27.9100  -24.8820   19.4992 H   0  0  0  0  0  0
  -28.2441  -26.0038   18.1747 H   0  0  0  0  0  0
  -29.0634  -15.1544   21.3663 H   0  0  0  0  0  0
  -29.5797  -18.6941   18.8880 H   0  0  0  0  0  0
  -32.4054  -21.3340   15.8174 H   0  0  0  0  0  0
  -33.2416  -22.4981   16.5595 H   0  0  0  0  0  0
  1 25  1  0  0  0
  1 30  2  0  0  0
  1 86  1  0  0  0
  2  3  1  0  0  0
  2 25  1  0  0  0
  2 89  1  0  0  0
  2 90  1  0  0  0
  3  4  1  0  0  0
  3 91  1  0  0  0
  3 92  1  0  0  0
  4  5  1  0  0  0
  4 93  1  0  0  0
  4 94  1  0  0  0
  5  6  1  0  0  0
  5 26  1  0  0  0
  5 95  1  0  0  0
  6 25  1  0  0  0
  6 96  1  0  0  0
  6 97  1  0  0  0
  7  8  2  0  0  0
  7 26  1  0  0  0
  7 29  1  0  0  0
  8  9  1  0  0  0
  8 22  1  0  0  0
  9 10  1  0  0  0
  9 27  2  0  0  0
 10 11  2  0  0  0
 10 15  1  0  0  0
 11 12  1  0  0  0
 11 98  1  0  0  0
 12 13  2  0  0  0
 12 99  1  0  0  0
 13 14  1  0  0  0
 13 31  1  0  0  0
 14 15  2  0  0  0
 14100  1  0  0  0
 15101  1  0  0  0
 16 17  2  0  0  0
 16 21  1  0  0  0
 16 31  1  0  0  0
 17 18  1  0  0  0
 17102  1  0  0  0
 18 19  2  0  0  0
 18103  1  0  0  0
 19 20  1  0  0  0
 19 24  1  0  0  0
 20 21  2  0  0  0
 20104  1  0  0  0
 21 23  1  0  0  0
 22 28  1  0  0  0
 22 32  2  0  0  0
 26 27  1  0  0  0
 28105  1  0  0  0
 28106  1  0  0  0
 29107  1  0  0  0
 29108  1  0  0  0
 33 34  1  0  0  0
 33 66  1  0  0  0
 33 70  2  0  0  0
 34 36  1  0  0  0
 34 59  1  0  0  0
 34109  1  0  0  0
 35 44  2  0  0  0
 35 45  1  0  0  0
 35 68  1  0  0  0
 36 56  1  0  0  0
 36110  1  0  0  0
 37 39  1  0  0  0
 37 47  1  0  0  0
 37 66  1  0  0  0
 37111  1  0  0  0
 38 43  2  0  0  0
 38 46  1  0  0  0
 38 47  1  0  0  0
 39 64  1  0  0  0
 39 67  2  0  0  0
 40 52  1  0  0  0
 40 53  2  0  0  0
 40 58  1  0  0  0
 41112  1  0  0  0
 41113  1  0  0  0
 41114  1  0  0  0
 41 48  1  0  0  0
 42 43  1  0  0  0
 42 66  1  0  0  0
 42115  1  0  0  0
 42116  1  0  0  0
 43 44  1  0  0  0
 44117  1  0  0  0
 45 46  2  0  0  0
 45118  1  0  0  0
 46119  1  0  0  0
 47120  1  0  0  0
 47121  1  0  0  0
 48 56  1  0  0  0
 48 65  1  0  0  0
 48122  1  0  0  0
 49 50  1  0  0  0
 49 53  1  0  0  0
 49 64  1  0  0  0
 49123  1  0  0  0
 50 51  1  0  0  0
 50124  1  0  0  0
 50125  1  0  0  0
 51 52  1  0  0  0
 51126  1  0  0  0
 51127  1  0  0  0
 52128  1  0  0  0
 52129  1  0  0  0
 53 54  1  0  0  0
 54 55  2  0  0  0
 54130  1  0  0  0
 55 57  1  0  0  0
 55131  1  0  0  0
 56 69  2  0  0  0
 57 58  2  0  0  0
 57132  1  0  0  0
 58133  1  0  0  0
 59 60  1  0  0  0
 59 61  1  0  0  0
 59 62  1  0  0  0
 60134  1  0  0  0
 60135  1  0  0  0
 60136  1  0  0  0
 61137  1  0  0  0
 61138  1  0  0  0
 61139  1  0  0  0
 62140  1  0  0  0
 62141  1  0  0  0
 62142  1  0  0  0
 63 65  1  0  0  0
 63143  1  0  0  0
 63144  1  0  0  0
 63145  1  0  0  0
 64146  1  0  0  0
 65147  1  0  0  0
 68 84  1  0  0  0
 71 72  1  0  0  0
 71 78  1  0  0  0
 71148  1  0  0  0
 71149  1  0  0  0
 72 80  1  0  0  0
 72150  1  0  0  0
 72151  1  0  0  0
 73 74  1  0  0  0
 73 81  1  0  0  0
 73152  1  0  0  0
 73153  1  0  0  0
 74 85  1  0  0  0
 74154  1  0  0  0
 74155  1  0  0  0
 75 81  1  0  0  0
 75 85  1  0  0  0
 75156  1  0  0  0
 75157  1  0  0  0
 76 79  1  0  0  0
 76 87  1  0  0  0
 76158  1  0  0  0
 76159  1  0  0  0
 77 79  1  0  0  0
 77 87  1  0  0  0
 77160  1  0  0  0
 77161  1  0  0  0
 78 80  1  0  0  0
 78 82  1  0  0  0
 78162  1  0  0  0
 79 86  1  0  0  0
 79163  1  0  0  0
 80 88  1  0  0  0
 80164  1  0  0  0
 81 88  1  0  0  0
 81165  1  0  0  0
 82166  1  0  0  0
 82167  1  0  0  0
 82 87  1  0  0  0
 83 84  1  0  0  0
 83 85  1  0  0  0
 83168  1  0  0  0
 83169  1  0  0  0
 84170  1  0  0  0
 84171  1  0  0  0
 86172  1  0  0  0
 87173  1  0  0  0
 88174  1  0  0  0
 88175  1  0  0  0
M  CHG  2  87   1  88   1
M  ISO  4   1 100  68 101  84 101  86 100
M  END
> <chiral flag>
0

> <version>
0

> <s_m_source_file>
/data/baiqing/PycharmProjects/Reinvent-master-3.2/result/LINK_invent/BTK/process_docking_weight1_custom_sum_contain_oxygen_bond_distance_aromatic_linkinvent_7_9_3/rearranged_h_0195.sdf

> <i_m_source_file_index>
93

> <r_mmod_Potential_Energy-OPLS-2005>
-150.176391601562

> <r_mmod_Stretch_Energy-OPLS-2005>
33.556884765625

> <r_mmod_Bend_Energy-OPLS-2005>
165.788009643555

> <r_mmod_Torsional_Energy-OPLS-2005>
356.026794433594

> <r_mmod_Improper_Torsional_Energy-OPLS-2005>
9.67314720153809

> <r_mmod_Van_der_Waal_Energy-OPLS-2005>
145.583938598633

> <r_mmod_Electrostatic_Energy-OPLS-2005>
116.865615844727

> <r_mmod_Solvation_Energy-OPLS-2005>
-988.537048339844

> <b_mmod_Minimization_Converged-OPLS-2005>
0

> <r_mmod_RMS_Derivative-OPLS-2005>
1.97620940208435

$$$$
95
                    3D
 Structure written by MMmdl.
182192  0  0  1  0            999 V2000
  -30.7584  -14.4170   20.6397 C   0  0  0  0  0  0
  -30.4180  -12.2977   19.4167 C   0  0  0  0  0  0
  -29.4896  -12.5155   18.2061 C   0  0  0  0  0  0
  -28.0149  -12.3677   18.6232 C   0  0  0  0  0  0
  -27.6671  -13.2079   19.8805 C   0  0  2  0  0  0
  -28.7060  -12.9826   21.0039 C   0  0  0  0  0  0
  -25.2604  -13.8163   20.5688 C   0  0  0  0  0  0
  -24.1847  -13.0438   20.9153 C   0  0  0  0  0  0
  -24.6412  -11.6904   20.8743 C   0  0  0  0  0  0
  -23.9085  -10.4290   21.0421 C   0  0  0  0  0  0
  -24.3629   -9.4192   21.9201 C   0  0  0  0  0  0
  -23.6303   -8.2235   22.0764 C   0  0  0  0  0  0
  -22.4295   -8.0280   21.3539 C   0  0  0  0  0  0
  -21.9924   -9.0248   20.4642 C   0  0  0  0  0  0
  -22.7255  -10.2131   20.3054 C   0  0  0  0  0  0
  -21.6849   -6.0747   22.5279 C   0  0  0  0  0  0
  -21.4011   -6.5647   23.8217 C   0  0  0  0  0  0
  -21.3653   -5.6799   24.9178 C   0  0  0  0  0  0
  -21.6042   -4.3061   24.7228 C   0  0  0  0  0  0
  -21.8816   -3.8153   23.4351 C   0  0  0  0  0  0
  -21.9190   -4.6975   22.3403 C   0  0  0  0  0  0
  -22.7860  -13.5229   21.1816 C   0  0  0  0  0  0
  -22.1658   -4.2162   21.0981 F   0  0  0  0  0  0
  -21.5629   -3.4541   25.7741 F   0  0  0  0  0  0
  -30.0466  -13.2685   20.4603 N   0  0  0  0  0  0
  -26.3061  -12.9341   20.3407 N   0  0  0  0  0  0
  -25.9353  -11.6497   20.5789 N   0  0  0  0  0  0
  -22.0507  -12.8217   22.0376 N   0  0  0  0  0  0
  -25.4346  -15.1870   20.4082 N   0  0  0  0  0  0
  -31.7991  -14.6623   20.0209 O   0  0  0  0  0  0
  -21.6636   -6.8886   21.4244 O   0  0  0  0  0  0
  -22.3537  -14.5548   20.6680 O   0  0  0  0  0  0
  -24.6157  -31.8686   23.2124 C   0  0  0  0  0  0
  -25.9042  -32.4819   23.8414 C   0  0  1  0  0  0
  -27.2273  -27.4292   20.0947 C   0  0  0  0  0  0
  -25.5929  -33.8620   24.2350 N   0  0  0  0  0  0
  -23.4061  -30.4925   21.5521 C   0  0  2  0  0  0
  -24.8563  -28.9723   20.0998 C   0  0  0  0  0  0
  -22.7422  -29.4651   22.4988 C   0  0  0  0  0  0
  -18.0275  -28.1365   22.8473 C   0  0  0  0  0  0
  -24.1497  -36.7317   23.2647 C   0  0  0  0  0  0
  -25.9369  -30.8319   21.3680 C   0  0  0  0  0  0
  -26.0157  -29.4697   20.7089 C   0  0  0  0  0  0
  -27.2088  -28.7032   20.7105 C   0  0  0  0  0  0
  -26.0663  -26.9838   19.4241 C   0  0  0  0  0  0
  -24.8759  -27.7291   19.4507 C   0  0  0  0  0  0
  -23.6143  -29.8307   20.1642 C   0  0  0  0  0  0
  -25.4108  -36.3103   24.0345 C   0  0  1  0  0  0
  -20.5852  -28.3659   23.1303 C   0  0  2  0  0  0
  -20.6766  -26.9400   22.5388 C   0  0  0  0  0  0
  -19.5750  -26.6391   21.5186 C   0  0  0  0  0  0
  -18.1920  -26.7921   22.1573 C   0  0  0  0  0  0
  -19.1514  -28.8817   23.2891 C   0  0  0  0  0  0
  -18.9466  -30.1438   23.8884 C   0  0  0  0  0  0
  -17.6468  -30.6581   24.0552 C   0  0  0  0  0  0
  -25.9027  -34.9469   23.5120 C   0  0  0  0  0  0
  -16.5349  -29.9058   23.6349 C   0  0  0  0  0  0
  -16.7264  -28.6487   23.0356 C   0  0  0  0  0  0
  -26.4463  -31.6580   25.0728 C   0  0  0  0  0  0
  -25.3743  -31.3677   26.1486 C   0  0  0  0  0  0
  -27.0329  -30.3028   24.6108 C   0  0  0  0  0  0
  -27.6039  -32.4304   25.7493 C   0  0  0  0  0  0
  -27.5576  -37.1807   24.8467 C   0  0  0  0  0  0
  -21.4140  -29.3044   22.3733 N   0  0  0  0  0  0
  -26.4284  -37.3793   23.9430 N   0  0  0  0  0  0
  -24.6704  -31.0793   22.1016 N   0  0  0  0  0  0
  -23.4179  -28.8166   23.3012 O   0  0  0  0  0  0
  -28.2919  -26.5530   20.2350 O   0  0  0  0  0  0
  -26.5600  -34.8922   22.4678 O   0  0  0  0  0  0
  -23.5337  -32.1416   23.7538 O   0  0  0  0  0  0
  -30.4651  -21.4908   21.4498 C   0  0  0  0  0  0
  -30.4353  -20.1221   21.1191 C   0  0  0  0  0  0
  -30.1308  -22.4074   20.4441 C   0  0  0  0  0  0
  -30.0447  -20.6973   18.9352 C   0  0  0  0  0  0
  -30.9878  -16.8155   23.2503 C   0  0  0  0  0  0
  -27.7909  -23.2781   22.1397 C   0  0  0  0  0  0
  -28.0653  -25.6656   22.5861 C   0  0  0  0  0  0
  -30.7435  -15.3505   22.8695 C   0  0  0  0  0  0
  -30.0062  -16.7198   21.0767 C   0  0  0  0  0  0
  -30.8851  -17.6291   21.9568 C   0  0  1  0  0  0
  -28.3707  -23.9675   20.8601 C   0  0  1  0  0  0
  -27.4268  -24.3867   23.1562 C   0  0  2  0  0  0
  -27.9088  -25.4327   21.0860 C   0  0  2  0  0  0
  -27.7924  -20.3011   16.0719 C   0  0  0  0  0  0
  -28.1672  -18.4032   17.5916 C   0  0  0  0  0  0
  -30.3406  -19.0629   22.2241 C   0  0  0  0  0  0
  -29.8089  -20.2515   17.5026 C   0  0  0  0  0  0
  -30.2225  -19.7402   19.8461 N   0  0  0  0  0  0
  -29.9168  -22.0003   19.1872 N   0  0  0  0  0  0
  -30.2338  -15.3252   21.4952 N   0  0  0  0  0  0
  -29.8236  -23.7445   20.7356 N   0  0  0  0  0  0
  -27.8128  -24.0795   24.5505 N   0  3  0  0  0  0
  -28.3939  -19.8467   17.3450 N   0  3  0  0  0  0
  -31.4637  -12.3844   19.1142 H   0  0  0  0  0  0
  -30.3092  -11.2828   19.8003 H   0  0  0  0  0  0
  -29.7266  -11.8012   17.4161 H   0  0  0  0  0  0
  -29.6569  -13.5084   17.7856 H   0  0  0  0  0  0
  -27.8314  -11.3107   18.8222 H   0  0  0  0  0  0
  -27.3588  -12.6393   17.7961 H   0  0  0  0  0  0
  -27.7161  -14.2578   19.5903 H   0  0  0  0  0  0
  -28.6688  -11.9494   21.3505 H   0  0  0  0  0  0
  -28.4600  -13.5882   21.8769 H   0  0  0  0  0  0
  -25.2774   -9.5669   22.4783 H   0  0  0  0  0  0
  -24.0006   -7.4620   22.7487 H   0  0  0  0  0  0
  -21.0856   -8.8762   19.8941 H   0  0  0  0  0  0
  -22.3719  -10.9672   19.6163 H   0  0  0  0  0  0
  -21.2006   -7.6156   23.9730 H   0  0  0  0  0  0
  -21.1472   -6.0527   25.9085 H   0  0  0  0  0  0
  -22.0608   -2.7618   23.2843 H   0  0  0  0  0  0
  -22.4118  -11.9865   22.4741 H   0  0  0  0  0  0
  -21.1130  -13.1224   22.2604 H   0  0  0  0  0  0
  -24.6783  -15.8506   20.5341 H   0  0  0  0  0  0
  -26.3028  -15.6229   20.1242 H   0  0  0  0  0  0
  -26.7111  -32.5523   23.1182 H   0  0  0  0  0  0
  -25.0132  -33.9792   25.0530 H   0  0  0  0  0  0
  -22.6959  -31.3104   21.4144 H   0  0  0  0  0  0
  -23.3758  -35.9644   23.3297 H   0  0  0  0  0  0
  -24.3609  -36.8947   22.2067 H   0  0  0  0  0  0
  -23.7254  -37.6523   23.6653 H   0  0  0  0  0  0
  -26.0536  -31.5953   20.5984 H   0  0  0  0  0  0
  -26.8219  -30.8842   21.9870 H   0  0  0  0  0  0
  -28.0867  -29.0613   21.2265 H   0  0  0  0  0  0
  -26.0656  -26.0211   18.9319 H   0  0  0  0  0  0
  -23.9885  -27.3447   18.9704 H   0  0  0  0  0  0
  -23.7182  -30.6075   19.4074 H   0  0  0  0  0  0
  -22.7397  -29.2469   19.8709 H   0  0  0  0  0  0
  -25.1278  -36.1945   25.0837 H   0  0  0  0  0  0
  -20.9926  -28.3196   24.1435 H   0  0  0  0  0  0
  -20.5709  -26.2277   23.3575 H   0  0  0  0  0  0
  -21.6640  -26.7470   22.1165 H   0  0  0  0  0  0
  -19.6942  -25.6321   21.1202 H   0  0  0  0  0  0
  -19.6676  -27.3203   20.6715 H   0  0  0  0  0  0
  -17.4203  -26.6700   21.3956 H   0  0  0  0  0  0
  -18.0285  -26.0042   22.8935 H   0  0  0  0  0  0
  -19.7946  -30.7270   24.2219 H   0  0  0  0  0  0
  -17.5025  -31.6258   24.5169 H   0  0  0  0  0  0
  -15.5355  -30.2956   23.7739 H   0  0  0  0  0  0
  -15.8655  -28.0817   22.7063 H   0  0  0  0  0  0
  -24.5943  -30.6988   25.7826 H   0  0  0  0  0  0
  -24.8908  -32.2828   26.4906 H   0  0  0  0  0  0
  -25.8116  -30.8867   27.0249 H   0  0  0  0  0  0
  -26.2872  -29.6781   24.1173 H   0  0  0  0  0  0
  -27.4133  -29.7255   25.4558 H   0  0  0  0  0  0
  -27.8680  -30.4398   23.9236 H   0  0  0  0  0  0
  -27.2676  -33.3625   26.2041 H   0  0  0  0  0  0
  -28.3857  -32.6852   25.0327 H   0  0  0  0  0  0
  -28.0687  -31.8449   26.5437 H   0  0  0  0  0  0
  -28.2569  -38.0137   24.7545 H   0  0  0  0  0  0
  -28.1087  -36.2664   24.6203 H   0  0  0  0  0  0
  -27.2301  -37.1352   25.8875 H   0  0  0  0  0  0
  -20.9305  -29.8814   21.6977 H   0  0  0  0  0  0
  -26.0159  -38.2861   24.1424 H   0  0  0  0  0  0
  -30.5920  -21.7981   22.4786 H   0  0  0  0  0  0
  -31.9505  -16.9550   23.7455 H   0  0  0  0  0  0
  -30.2188  -17.1286   23.9581 H   0  0  0  0  0  0
  -28.4587  -22.5495   22.5913 H   0  0  0  0  0  0
  -26.8888  -22.7186   21.8811 H   0  0  0  0  0  0
  -29.1207  -25.7481   22.8482 H   0  0  0  0  0  0
  -27.5595  -26.5688   22.9262 H   0  0  0  0  0  0
  -30.0113  -14.8967   23.5389 H   0  0  0  0  0  0
  -31.6650  -14.7728   22.9753 H   0  0  0  0  0  0
  -30.2060  -16.8832   20.0157 H   0  0  0  0  0  0
  -28.9494  -16.9377   21.2359 H   0  0  0  0  0  0
  -31.8800  -17.6935   21.5139 H   0  0  0  0  0  0
  -27.8861  -23.5696   19.9654 H   0  0  0  0  0  0
  -26.3413  -24.5173   23.1447 H   0  0  0  0  0  0
  -26.8344  -25.2961   20.9749 H   0  0  0  0  0  0
  -26.7344  -20.0372   16.0298 H   0  0  0  0  0  0
  -28.2875  -19.8435   15.2143 H   0  0  0  0  0  0
  -27.8596  -21.3850   15.9652 H   0  0  0  0  0  0
  -27.1000  -18.1757   17.5969 H   0  0  0  0  0  0
  -28.5660  -18.0889   18.5543 H   0  0  0  0  0  0
  -28.6361  -17.7952   16.8164 H   0  0  0  0  0  0
  -29.2989  -19.0068   22.5457 H   0  0  0  0  0  0
  -30.8850  -19.4666   23.0792 H   0  0  0  0  0  0
  -30.4850  -19.4405   17.2325 H   0  0  0  0  0  0
  -30.0541  -21.0837   16.8414 H   0  0  0  0  0  0
  -30.3308  -24.0905   21.5391 H   0  0  0  0  0  0
  -28.7950  -23.8956   24.6408 H   0  0  0  0  0  0
  -27.3129  -23.2715   24.8828 H   0  0  0  0  0  0
  -27.5844  -24.8432   25.1622 H   0  0  0  0  0  0
  -27.9329  -20.3512   18.0886 H   0  0  0  0  0  0
  1 25  1  0  0  0
  1 30  2  0  0  0
  1 90  1  0  0  0
  2  3  1  0  0  0
  2 25  1  0  0  0
  2 94  1  0  0  0
  2 95  1  0  0  0
  3  4  1  0  0  0
  3 96  1  0  0  0
  3 97  1  0  0  0
  4  5  1  0  0  0
  4 98  1  0  0  0
  4 99  1  0  0  0
  5  6  1  0  0  0
  5 26  1  0  0  0
  5100  1  0  0  0
  6 25  1  0  0  0
  6101  1  0  0  0
  6102  1  0  0  0
  7  8  2  0  0  0
  7 26  1  0  0  0
  7 29  1  0  0  0
  8  9  1  0  0  0
  8 22  1  0  0  0
  9 10  1  0  0  0
  9 27  2  0  0  0
 10 11  2  0  0  0
 10 15  1  0  0  0
 11 12  1  0  0  0
 11103  1  0  0  0
 12 13  2  0  0  0
 12104  1  0  0  0
 13 14  1  0  0  0
 13 31  1  0  0  0
 14 15  2  0  0  0
 14105  1  0  0  0
 15106  1  0  0  0
 16 17  2  0  0  0
 16 21  1  0  0  0
 16 31  1  0  0  0
 17 18  1  0  0  0
 17107  1  0  0  0
 18 19  2  0  0  0
 18108  1  0  0  0
 19 20  1  0  0  0
 19 24  1  0  0  0
 20 21  2  0  0  0
 20109  1  0  0  0
 21 23  1  0  0  0
 22 28  1  0  0  0
 22 32  2  0  0  0
 26 27  1  0  0  0
 28110  1  0  0  0
 28111  1  0  0  0
 29112  1  0  0  0
 29113  1  0  0  0
 33 34  1  0  0  0
 33 66  1  0  0  0
 33 70  2  0  0  0
 34 36  1  0  0  0
 34 59  1  0  0  0
 34114  1  0  0  0
 35 44  2  0  0  0
 35 45  1  0  0  0
 35 68  1  0  0  0
 36 56  1  0  0  0
 36115  1  0  0  0
 37 39  1  0  0  0
 37 47  1  0  0  0
 37 66  1  0  0  0
 37116  1  0  0  0
 38 43  2  0  0  0
 38 46  1  0  0  0
 38 47  1  0  0  0
 39 64  1  0  0  0
 39 67  2  0  0  0
 40 52  1  0  0  0
 40 53  2  0  0  0
 40 58  1  0  0  0
 41117  1  0  0  0
 41118  1  0  0  0
 41119  1  0  0  0
 41 48  1  0  0  0
 42 43  1  0  0  0
 42 66  1  0  0  0
 42120  1  0  0  0
 42121  1  0  0  0
 43 44  1  0  0  0
 44122  1  0  0  0
 45 46  2  0  0  0
 45123  1  0  0  0
 46124  1  0  0  0
 47125  1  0  0  0
 47126  1  0  0  0
 48 56  1  0  0  0
 48 65  1  0  0  0
 48127  1  0  0  0
 49 50  1  0  0  0
 49 53  1  0  0  0
 49 64  1  0  0  0
 49128  1  0  0  0
 50 51  1  0  0  0
 50129  1  0  0  0
 50130  1  0  0  0
 51 52  1  0  0  0
 51131  1  0  0  0
 51132  1  0  0  0
 52133  1  0  0  0
 52134  1  0  0  0
 53 54  1  0  0  0
 54 55  2  0  0  0
 54135  1  0  0  0
 55 57  1  0  0  0
 55136  1  0  0  0
 56 69  2  0  0  0
 57 58  2  0  0  0
 57137  1  0  0  0
 58138  1  0  0  0
 59 60  1  0  0  0
 59 61  1  0  0  0
 59 62  1  0  0  0
 60139  1  0  0  0
 60140  1  0  0  0
 60141  1  0  0  0
 61142  1  0  0  0
 61143  1  0  0  0
 61144  1  0  0  0
 62145  1  0  0  0
 62146  1  0  0  0
 62147  1  0  0  0
 63 65  1  0  0  0
 63148  1  0  0  0
 63149  1  0  0  0
 63150  1  0  0  0
 64151  1  0  0  0
 65152  1  0  0  0
 68 83  1  0  0  0
 71 72  2  0  0  0
 71 73  1  0  0  0
 71153  1  0  0  0
 72 86  1  0  0  0
 72 88  1  0  0  0
 73 89  2  0  0  0
 73 91  1  0  0  0
 74 87  1  0  0  0
 74 88  2  0  0  0
 74 89  1  0  0  0
 75 78  1  0  0  0
 75 80  1  0  0  0
 75154  1  0  0  0
 75155  1  0  0  0
 76 81  1  0  0  0
 76 82  1  0  0  0
 76156  1  0  0  0
 76157  1  0  0  0
 77 82  1  0  0  0
 77 83  1  0  0  0
 77158  1  0  0  0
 77159  1  0  0  0
 78 90  1  0  0  0
 78160  1  0  0  0
 78161  1  0  0  0
 79 80  1  0  0  0
 79 90  1  0  0  0
 79162  1  0  0  0
 79163  1  0  0  0
 80 86  1  0  0  0
 80164  1  0  0  0
 81 83  1  0  0  0
 81 91  1  0  0  0
 81165  1  0  0  0
 82 92  1  0  0  0
 82166  1  0  0  0
 83167  1  0  0  0
 84168  1  0  0  0
 84169  1  0  0  0
 84170  1  0  0  0
 84 93  1  0  0  0
 85 93  1  0  0  0
 85171  1  0  0  0
 85172  1  0  0  0
 85173  1  0  0  0
 86174  1  0  0  0
 86175  1  0  0  0
 87 93  1  0  0  0
 87176  1  0  0  0
 87177  1  0  0  0
 91178  1  0  0  0
 92179  1  0  0  0
 92180  1  0  0  0
 92181  1  0  0  0
 93182  1  0  0  0
M  CHG  2  92   1  93   1
M  ISO  4   1 100  68 101  83 101  90 100
M  END
> <chiral flag>
0

> <version>
0

> <s_m_source_file>
/data/baiqing/PycharmProjects/Reinvent-master-3.2/result/LINK_invent/BTK/process_docking_weight1_custom_sum_contain_oxygen_bond_distance_aromatic_linkinvent_7_9_3/rearranged_h_0195.sdf

> <i_m_source_file_index>
94

> <r_mmod_Potential_Energy-OPLS-2005>
-600.222900390625

> <r_mmod_Stretch_Energy-OPLS-2005>
43.2424621582031

> <r_mmod_Bend_Energy-OPLS-2005>
181.849395751953

> <r_mmod_Torsional_Energy-OPLS-2005>
457.176239013672

> <r_mmod_Improper_Torsional_Energy-OPLS-2005>
14.9436674118042

> <r_mmod_Van_der_Waal_Energy-OPLS-2005>
162.218841552734

> <r_mmod_Electrostatic_Energy-OPLS-2005>
-557.412780761719

> <r_mmod_Solvation_Energy-OPLS-2005>
-921.66064453125

> <b_mmod_Minimization_Converged-OPLS-2005>
0

> <r_mmod_RMS_Derivative-OPLS-2005>
3.70909714698792

$$$$
96
                    3D
 Structure written by MMmdl.
157166  0  0  1  0            999 V2000
  -30.5992  -14.7501   20.4485 C   0  0  0  0  0  0
  -30.4371  -12.4579   19.4635 C   0  0  0  0  0  0
  -29.5119  -12.5149   18.2285 C   0  0  0  0  0  0
  -28.0369  -12.3350   18.6412 C   0  0  0  0  0  0
  -27.6427  -13.2301   19.8467 C   0  0  2  0  0  0
  -28.6901  -13.1578   20.9788 C   0  0  0  0  0  0
  -25.2524  -13.8194   20.5654 C   0  0  0  0  0  0
  -24.1815  -13.0441   20.9192 C   0  0  0  0  0  0
  -24.6402  -11.6926   20.8733 C   0  0  0  0  0  0
  -23.9078  -10.4305   21.0412 C   0  0  0  0  0  0
  -24.3625   -9.4209   21.9189 C   0  0  0  0  0  0
  -23.6305   -8.2239   22.0749 C   0  0  0  0  0  0
  -22.4293   -8.0279   21.3531 C   0  0  0  0  0  0
  -21.9924   -9.0257   20.4636 C   0  0  0  0  0  0
  -22.7252  -10.2138   20.3059 C   0  0  0  0  0  0
  -21.6850   -6.0740   22.5276 C   0  0  0  0  0  0
  -21.4006   -6.5642   23.8214 C   0  0  0  0  0  0
  -21.3664   -5.6785   24.9169 C   0  0  0  0  0  0
  -21.6051   -4.3051   24.7216 C   0  0  0  0  0  0
  -21.8821   -3.8142   23.4338 C   0  0  0  0  0  0
  -21.9186   -4.6964   22.3401 C   0  0  0  0  0  0
  -22.7834  -13.5219   21.1843 C   0  0  0  0  0  0
  -22.1658   -4.2154   21.0977 F   0  0  0  0  0  0
  -21.5642   -3.4533   25.7731 F   0  0  0  0  0  0
  -29.9873  -13.5175   20.3937 N   0  0  0  0  0  0
  -26.2943  -12.9396   20.3250 N   0  0  0  0  0  0
  -25.9334  -11.6538   20.5735 N   0  0  0  0  0  0
  -22.0461  -12.8236   22.0403 N   0  0  0  0  0  0
  -25.4212  -15.1924   20.4032 N   0  0  0  0  0  0
  -31.7937  -14.8559   20.1561 O   0  0  0  0  0  0
  -21.6636   -6.8883   21.4243 O   0  0  0  0  0  0
  -22.3530  -14.5515   20.6668 O   0  0  0  0  0  0
  -24.6329  -31.8533   23.1974 C   0  0  0  0  0  0
  -25.9149  -32.4737   23.8319 C   0  0  1  0  0  0
  -27.2203  -27.2480   20.1015 C   0  0  0  0  0  0
  -25.5939  -33.8544   24.2247 N   0  0  0  0  0  0
  -23.4290  -30.4769   21.5408 C   0  0  2  0  0  0
  -24.8734  -28.9219   20.1054 C   0  0  0  0  0  0
  -22.7506  -29.4597   22.4902 C   0  0  0  0  0  0
  -18.0286  -28.1391   22.8480 C   0  0  0  0  0  0
  -24.1483  -36.7279   23.2641 C   0  0  0  0  0  0
  -25.9763  -30.7611   21.3763 C   0  0  0  0  0  0
  -26.0471  -29.3823   20.7135 C   0  0  0  0  0  0
  -27.2183  -28.5550   20.7052 C   0  0  0  0  0  0
  -26.0120  -26.8502   19.4841 C   0  0  0  0  0  0
  -24.8615  -27.6639   19.4843 C   0  0  0  0  0  0
  -23.6446  -29.8110   20.1570 C   0  0  0  0  0  0
  -25.4106  -36.3061   24.0332 C   0  0  1  0  0  0
  -20.5893  -28.3702   23.1264 C   0  0  2  0  0  0
  -20.6766  -26.9416   22.5410 C   0  0  0  0  0  0
  -19.5748  -26.6382   21.5206 C   0  0  0  0  0  0
  -18.1929  -26.7935   22.1618 C   0  0  0  0  0  0
  -19.1541  -28.8862   23.2868 C   0  0  0  0  0  0
  -18.9461  -30.1459   23.8882 C   0  0  0  0  0  0
  -17.6465  -30.6590   24.0554 C   0  0  0  0  0  0
  -25.9057  -34.9432   23.5095 C   0  0  0  0  0  0
  -16.5352  -29.9091   23.6331 C   0  0  0  0  0  0
  -16.7270  -28.6509   23.0349 C   0  0  0  0  0  0
  -26.4506  -31.6571   25.0722 C   0  0  0  0  0  0
  -25.3727  -31.3725   26.1442 C   0  0  0  0  0  0
  -27.0344  -30.2981   24.6219 C   0  0  0  0  0  0
  -27.6065  -32.4305   25.7499 C   0  0  0  0  0  0
  -27.5577  -37.1784   24.8453 C   0  0  0  0  0  0
  -21.4211  -29.3052   22.3652 N   0  0  0  0  0  0
  -26.4266  -37.3776   23.9431 N   0  0  0  0  0  0
  -24.6989  -31.0483   22.0948 N   0  0  0  0  0  0
  -23.4207  -28.8135   23.2996 O   0  0  0  0  0  0
  -28.3225  -26.3576   20.1811 O   0  0  0  0  0  0
  -26.5629  -34.8913   22.4665 O   0  0  0  0  0  0
  -23.5476  -32.1361   23.7267 O   0  0  0  0  0  0
  -29.8772  -21.9134   20.8754 C   0  0  0  0  0  0
  -29.2512  -20.7886   20.2448 C   0  0  0  0  0  0
  -28.1754  -21.3003   19.4467 C   0  0  0  0  0  0
  -28.5943  -23.6007   19.8791 C   0  0  0  0  0  0
  -29.2951  -18.3920   21.4031 C   0  0  0  0  0  0
  -29.8604  -18.2947   19.4416 C   0  0  0  0  0  0
  -30.2128  -17.3559   20.6512 C   0  0  0  0  0  0
  -27.7891  -20.0853   17.2445 C   0  0  0  0  0  0
  -27.2706  -20.3603   18.6641 C   0  0  0  0  0  0
  -28.4582  -25.1153   19.3360 C   0  0  0  0  0  0
  -29.5881  -23.2451   20.6984 N   0  0  0  0  0  0
  -27.8861  -22.6346   19.2659 N   0  0  0  0  0  0
  -29.7923  -19.3979   20.4359 N   0  0  0  0  0  0
  -29.8096  -15.8771   20.6263 N   0  0  0  0  0  0
  -31.4778  -12.5861   19.1617 H   0  0  0  0  0  0
  -30.3838  -11.4791   19.9443 H   0  0  0  0  0  0
  -29.7983  -11.7524   17.5024 H   0  0  0  0  0  0
  -29.6341  -13.4759   17.7252 H   0  0  0  0  0  0
  -27.8907  -11.2849   18.8964 H   0  0  0  0  0  0
  -27.3801  -12.5352   17.7944 H   0  0  0  0  0  0
  -27.6370  -14.2531   19.4676 H   0  0  0  0  0  0
  -28.7330  -12.1550   21.4081 H   0  0  0  0  0  0
  -28.4293  -13.8319   21.7956 H   0  0  0  0  0  0
  -25.2774   -9.5686   22.4762 H   0  0  0  0  0  0
  -24.0008   -7.4636   22.7480 H   0  0  0  0  0  0
  -21.0848   -8.8786   19.8959 H   0  0  0  0  0  0
  -22.3716  -10.9675   19.6168 H   0  0  0  0  0  0
  -21.1995   -7.6152   23.9718 H   0  0  0  0  0  0
  -21.1491   -6.0511   25.9074 H   0  0  0  0  0  0
  -22.0598   -2.7606   23.2823 H   0  0  0  0  0  0
  -22.4048  -11.9892   22.4810 H   0  0  0  0  0  0
  -21.1082  -13.1289   22.2601 H   0  0  0  0  0  0
  -24.6460  -15.8392   20.4969 H   0  0  0  0  0  0
  -26.2566  -15.6260   20.0334 H   0  0  0  0  0  0
  -26.7220  -32.5373   23.1062 H   0  0  0  0  0  0
  -25.0041  -33.9670   25.0361 H   0  0  0  0  0  0
  -22.7256  -31.3003   21.3971 H   0  0  0  0  0  0
  -23.3757  -35.9598   23.3268 H   0  0  0  0  0  0
  -24.3582  -36.8932   22.2063 H   0  0  0  0  0  0
  -23.7210  -37.6459   23.6685 H   0  0  0  0  0  0
  -26.1146  -31.5232   20.6082 H   0  0  0  0  0  0
  -26.8542  -30.8096   22.0094 H   0  0  0  0  0  0
  -28.1172  -28.9033   21.1951 H   0  0  0  0  0  0
  -25.9022  -25.8752   19.0365 H   0  0  0  0  0  0
  -23.9562  -27.3021   19.0158 H   0  0  0  0  0  0
  -23.7675  -30.5884   19.4020 H   0  0  0  0  0  0
  -22.7609  -29.2470   19.8514 H   0  0  0  0  0  0
  -25.1283  -36.1895   25.0820 H   0  0  0  0  0  0
  -20.9985  -28.3286   24.1388 H   0  0  0  0  0  0
  -20.5640  -26.2324   23.3623 H   0  0  0  0  0  0
  -21.6636  -26.7424   22.1219 H   0  0  0  0  0  0
  -19.6909  -25.6290   21.1244 H   0  0  0  0  0  0
  -19.6691  -27.3182   20.6730 H   0  0  0  0  0  0
  -17.4202  -26.6675   21.4016 H   0  0  0  0  0  0
  -18.0336  -26.0072   22.9011 H   0  0  0  0  0  0
  -19.7940  -30.7268   24.2255 H   0  0  0  0  0  0
  -17.5021  -31.6265   24.5167 H   0  0  0  0  0  0
  -15.5351  -30.2984   23.7663 H   0  0  0  0  0  0
  -15.8675  -28.0818   22.7071 H   0  0  0  0  0  0
  -24.5920  -30.7051   25.7776 H   0  0  0  0  0  0
  -24.8893  -32.2884   26.4845 H   0  0  0  0  0  0
  -25.8039  -30.8922   27.0235 H   0  0  0  0  0  0
  -26.2922  -29.6732   24.1235 H   0  0  0  0  0  0
  -27.3997  -29.7241   25.4746 H   0  0  0  0  0  0
  -27.8821  -30.4232   23.9482 H   0  0  0  0  0  0
  -27.2682  -33.3616   26.2057 H   0  0  0  0  0  0
  -28.3895  -32.6835   25.0342 H   0  0  0  0  0  0
  -28.0719  -31.8436   26.5426 H   0  0  0  0  0  0
  -28.2558  -38.0120   24.7553 H   0  0  0  0  0  0
  -28.1100  -36.2651   24.6194 H   0  0  0  0  0  0
  -27.2311  -37.1333   25.8856 H   0  0  0  0  0  0
  -20.9404  -29.8780   21.6858 H   0  0  0  0  0  0
  -26.0137  -38.2838   24.1466 H   0  0  0  0  0  0
  -30.7150  -21.7310   21.5304 H   0  0  0  0  0  0
  -29.5819  -18.5810   22.4390 H   0  0  0  0  0  0
  -28.2253  -18.1883   21.3050 H   0  0  0  0  0  0
  -28.9081  -18.0498   18.9678 H   0  0  0  0  0  0
  -30.6658  -18.3939   18.7115 H   0  0  0  0  0  0
  -31.2587  -17.4793   20.9483 H   0  0  0  0  0  0
  -27.1156  -19.4203   16.7050 H   0  0  0  0  0  0
  -28.7711  -19.6160   17.2630 H   0  0  0  0  0  0
  -27.8780  -21.0079   16.6719 H   0  0  0  0  0  0
  -26.2736  -20.7991   18.6010 H   0  0  0  0  0  0
  -27.1374  -19.4321   19.2194 H   0  0  0  0  0  0
  -27.7587  -25.1209   18.5037 H   0  0  0  0  0  0
  -29.4109  -25.2797   18.8313 H   0  0  0  0  0  0
  -28.8305  -15.6910   20.7800 H   0  0  0  0  0  0
  1 25  1  0  0  0
  1 30  2  0  0  0
  1 84  1  0  0  0
  2  3  1  0  0  0
  2 25  1  0  0  0
  2 85  1  0  0  0
  2 86  1  0  0  0
  3  4  1  0  0  0
  3 87  1  0  0  0
  3 88  1  0  0  0
  4  5  1  0  0  0
  4 89  1  0  0  0
  4 90  1  0  0  0
  5  6  1  0  0  0
  5 26  1  0  0  0
  5 91  1  0  0  0
  6 25  1  0  0  0
  6 92  1  0  0  0
  6 93  1  0  0  0
  7  8  2  0  0  0
  7 26  1  0  0  0
  7 29  1  0  0  0
  8  9  1  0  0  0
  8 22  1  0  0  0
  9 10  1  0  0  0
  9 27  2  0  0  0
 10 11  2  0  0  0
 10 15  1  0  0  0
 11 12  1  0  0  0
 11 94  1  0  0  0
 12 13  2  0  0  0
 12 95  1  0  0  0
 13 14  1  0  0  0
 13 31  1  0  0  0
 14 15  2  0  0  0
 14 96  1  0  0  0
 15 97  1  0  0  0
 16 17  2  0  0  0
 16 21  1  0  0  0
 16 31  1  0  0  0
 17 18  1  0  0  0
 17 98  1  0  0  0
 18 19  2  0  0  0
 18 99  1  0  0  0
 19 20  1  0  0  0
 19 24  1  0  0  0
 20 21  2  0  0  0
 20100  1  0  0  0
 21 23  1  0  0  0
 22 28  1  0  0  0
 22 32  2  0  0  0
 26 27  1  0  0  0
 28101  1  0  0  0
 28102  1  0  0  0
 29103  1  0  0  0
 29104  1  0  0  0
 33 34  1  0  0  0
 33 66  1  0  0  0
 33 70  2  0  0  0
 34 36  1  0  0  0
 34 59  1  0  0  0
 34105  1  0  0  0
 35 44  2  0  0  0
 35 45  1  0  0  0
 35 68  1  0  0  0
 36 56  1  0  0  0
 36106  1  0  0  0
 37 39  1  0  0  0
 37 47  1  0  0  0
 37 66  1  0  0  0
 37107  1  0  0  0
 38 43  2  0  0  0
 38 46  1  0  0  0
 38 47  1  0  0  0
 39 64  1  0  0  0
 39 67  2  0  0  0
 40 52  1  0  0  0
 40 53  2  0  0  0
 40 58  1  0  0  0
 41108  1  0  0  0
 41109  1  0  0  0
 41110  1  0  0  0
 41 48  1  0  0  0
 42 43  1  0  0  0
 42 66  1  0  0  0
 42111  1  0  0  0
 42112  1  0  0  0
 43 44  1  0  0  0
 44113  1  0  0  0
 45 46  2  0  0  0
 45114  1  0  0  0
 46115  1  0  0  0
 47116  1  0  0  0
 47117  1  0  0  0
 48 56  1  0  0  0
 48 65  1  0  0  0
 48118  1  0  0  0
 49 50  1  0  0  0
 49 53  1  0  0  0
 49 64  1  0  0  0
 49119  1  0  0  0
 50 51  1  0  0  0
 50120  1  0  0  0
 50121  1  0  0  0
 51 52  1  0  0  0
 51122  1  0  0  0
 51123  1  0  0  0
 52124  1  0  0  0
 52125  1  0  0  0
 53 54  1  0  0  0
 54 55  2  0  0  0
 54126  1  0  0  0
 55 57  1  0  0  0
 55127  1  0  0  0
 56 69  2  0  0  0
 57 58  2  0  0  0
 57128  1  0  0  0
 58129  1  0  0  0
 59 60  1  0  0  0
 59 61  1  0  0  0
 59 62  1  0  0  0
 60130  1  0  0  0
 60131  1  0  0  0
 60132  1  0  0  0
 61133  1  0  0  0
 61134  1  0  0  0
 61135  1  0  0  0
 62136  1  0  0  0
 62137  1  0  0  0
 62138  1  0  0  0
 63 65  1  0  0  0
 63139  1  0  0  0
 63140  1  0  0  0
 63141  1  0  0  0
 64142  1  0  0  0
 65143  1  0  0  0
 68 80  1  0  0  0
 71 72  2  0  0  0
 71 81  1  0  0  0
 71144  1  0  0  0
 72 73  1  0  0  0
 72 83  1  0  0  0
 73 79  1  0  0  0
 73 82  2  0  0  0
 74 80  1  0  0  0
 74 81  2  0  0  0
 74 82  1  0  0  0
 75 77  1  0  0  0
 75 83  1  0  0  0
 75145  1  0  0  0
 75146  1  0  0  0
 76 77  1  0  0  0
 76 83  1  0  0  0
 76147  1  0  0  0
 76148  1  0  0  0
 77 84  1  0  0  0
 77149  1  0  0  0
 78 79  1  0  0  0
 78150  1  0  0  0
 78151  1  0  0  0
 78152  1  0  0  0
 79153  1  0  0  0
 79154  1  0  0  0
 80155  1  0  0  0
 80156  1  0  0  0
 84157  1  0  0  0
M  ISO  4   1 100  68 101  80 101  84 100
M  END
> <chiral flag>
0

> <version>
0

> <s_m_source_file>
/data/baiqing/PycharmProjects/Reinvent-master-3.2/result/LINK_invent/BTK/process_docking_weight1_custom_sum_contain_oxygen_bond_distance_aromatic_linkinvent_7_9_3/rearranged_h_0195.sdf

> <i_m_source_file_index>
95

> <r_mmod_Potential_Energy-OPLS-2005>
-30.4647083282471

> <r_mmod_Stretch_Energy-OPLS-2005>
122.672637939453

> <r_mmod_Bend_Energy-OPLS-2005>
261.628448486328

> <r_mmod_Torsional_Energy-OPLS-2005>
239.789413452148

> <r_mmod_Improper_Torsional_Energy-OPLS-2005>
13.5674028396606

> <r_mmod_Van_der_Waal_Energy-OPLS-2005>
142.568405151367

> <r_mmod_Electrostatic_Energy-OPLS-2005>
-645.375183105469

> <r_mmod_Solvation_Energy-OPLS-2005>
-255.392791748047

> <b_mmod_Minimization_Converged-OPLS-2005>
0

> <r_mmod_RMS_Derivative-OPLS-2005>
2.12427043914795

$$$$
