0
                    3D
 Structure written by MMmdl.
181189  0  0  1  0            999 V2000
  -30.7857  -14.3786   20.6322 C   0  0  0  0  0  0
  -30.3976  -12.2802   19.3942 C   0  0  0  0  0  0
  -29.4623  -12.5023   18.1914 C   0  0  0  0  0  0
  -27.9929  -12.3380   18.6193 C   0  0  0  0  0  0
  -27.6506  -13.1826   19.8706 C   0  0  2  0  0  0
  -28.6992  -12.9802   20.9882 C   0  0  0  0  0  0
  -25.2521  -13.8093   20.5673 C   0  0  0  0  0  0
  -24.1779  -13.0387   20.9210 C   0  0  0  0  0  0
  -24.6330  -11.6863   20.8790 C   0  0  0  0  0  0
  -23.8996  -10.4271   21.0444 C   0  0  0  0  0  0
  -24.3566   -9.4203   21.9210 C   0  0  0  0  0  0
  -23.6277   -8.2223   22.0762 C   0  0  0  0  0  0
  -22.4270   -8.0253   21.3536 C   0  0  0  0  0  0
  -21.9879   -9.0226   20.4642 C   0  0  0  0  0  0
  -22.7190  -10.2121   20.3075 C   0  0  0  0  0  0
  -21.6851   -6.0742   22.5299 C   0  0  0  0  0  0
  -21.4005   -6.5653   23.8235 C   0  0  0  0  0  0
  -21.3645   -5.6793   24.9196 C   0  0  0  0  0  0
  -21.6032   -4.3053   24.7233 C   0  0  0  0  0  0
  -21.8825   -3.8153   23.4359 C   0  0  0  0  0  0
  -21.9194   -4.6971   22.3417 C   0  0  0  0  0  0
  -22.7819  -13.5208   21.1889 C   0  0  0  0  0  0
  -22.1659   -4.2171   21.0992 F   0  0  0  0  0  0
  -21.5627   -3.4515   25.7728 F   0  0  0  0  0  0
  -30.0379  -13.2576   20.4350 N   0  0  0  0  0  0
  -26.2950  -12.9229   20.3396 N   0  0  0  0  0  0
  -25.9238  -11.6408   20.5806 N   0  0  0  0  0  0
  -22.0480  -12.8191   22.0455 N   0  0  0  0  0  0
  -25.4134  -15.1796   20.3983 N   0  0  0  0  0  0
  -31.8590  -14.5612   20.0529 O   0  0  0  0  0  0
  -21.6618   -6.8861   21.4247 O   0  0  0  0  0  0
  -22.3511  -14.5546   20.6795 O   0  0  0  0  0  0
  -24.6071  -31.8730   23.2159 C   0  0  0  0  0  0
  -25.8995  -32.4846   23.8441 C   0  0  1  0  0  0
  -27.2479  -27.4919   20.1007 C   0  0  0  0  0  0
  -25.5878  -33.8646   24.2377 N   0  0  0  0  0  0
  -23.3917  -30.4955   21.5541 C   0  0  2  0  0  0
  -24.8404  -28.9677   20.1150 C   0  0  0  0  0  0
  -22.7360  -29.4682   22.5030 C   0  0  0  0  0  0
  -18.0259  -28.1387   22.8494 C   0  0  0  0  0  0
  -24.1468  -36.7316   23.2638 C   0  0  0  0  0  0
  -25.9090  -30.8611   21.3556 C   0  0  0  0  0  0
  -25.9896  -29.4965   20.7123 C   0  0  0  0  0  0
  -27.1917  -28.7673   20.7126 C   0  0  0  0  0  0
  -26.0866  -26.9744   19.4926 C   0  0  0  0  0  0
  -24.8804  -27.7018   19.5017 C   0  0  0  0  0  0
  -23.5953  -29.8220   20.1686 C   0  0  0  0  0  0
  -25.4090  -36.3133   24.0348 C   0  0  1  0  0  0
  -20.5843  -28.3659   23.1340 C   0  0  2  0  0  0
  -20.6746  -26.9404   22.5424 C   0  0  0  0  0  0
  -19.5731  -26.6399   21.5208 C   0  0  0  0  0  0
  -18.1901  -26.7947   22.1600 C   0  0  0  0  0  0
  -19.1507  -28.8839   23.2914 C   0  0  0  0  0  0
  -18.9436  -30.1447   23.8919 C   0  0  0  0  0  0
  -17.6443  -30.6592   24.0569 C   0  0  0  0  0  0
  -25.9020  -34.9491   23.5162 C   0  0  0  0  0  0
  -16.5334  -29.9092   23.6337 C   0  0  0  0  0  0
  -16.7245  -28.6510   23.0354 C   0  0  0  0  0  0
  -26.4455  -31.6590   25.0729 C   0  0  0  0  0  0
  -25.3740  -31.3643   26.1482 C   0  0  0  0  0  0
  -27.0306  -30.3064   24.6027 C   0  0  0  0  0  0
  -27.6046  -32.4300   25.7474 C   0  0  0  0  0  0
  -27.5579  -37.1808   24.8461 C   0  0  0  0  0  0
  -21.4100  -29.3036   22.3753 N   0  0  0  0  0  0
  -26.4281  -37.3818   23.9421 N   0  0  0  0  0  0
  -24.6545  -31.0888   22.1024 N   0  0  0  0  0  0
  -23.4153  -28.8242   23.3069 O   0  0  0  0  0  0
  -28.3863  -26.7227   20.0521 O   0  0  0  0  0  0
  -26.5570  -34.8926   22.4716 O   0  0  0  0  0  0
  -23.5286  -32.1450   23.7592 O   0  0  0  0  0  0
  -30.6802  -18.9468   22.0391 C   0  0  0  0  0  0
  -30.4130  -19.9238   22.9983 C   0  0  0  0  0  0
  -29.9068  -17.7786   22.0826 C   0  0  0  0  0  0
  -28.8152  -18.5871   23.9446 C   0  0  0  0  0  0
  -30.8402  -17.1915   19.7940 C   0  0  0  0  0  0
  -28.5056  -16.6961   20.3690 C   0  0  0  0  0  0
  -27.2309  -19.5393   25.6901 C   0  0  0  0  0  0
  -28.7852  -17.6326   26.2653 C   0  0  0  0  0  0
  -26.7816  -17.2907   24.7748 C   0  0  0  0  0  0
  -30.4646  -15.0595   22.8811 C   0  0  0  0  0  0
  -31.0333  -21.3001   22.8706 C   0  0  0  0  0  0
  -30.4201  -22.0528   21.6737 C   0  0  0  0  0  0
  -30.9905  -23.4655   21.4468 C   0  0  0  0  0  0
  -29.8991  -24.5453   21.3759 C   0  0  0  0  0  0
  -30.4596  -25.9142   20.9626 C   0  0  0  0  0  0
  -29.4103  -27.0277   20.9906 C   0  0  0  0  0  0
  -29.9290  -16.7144   20.9670 C   0  0  0  0  0  0
  -27.9217  -18.2645   25.1580 C   0  0  0  0  0  0
  -29.4937  -19.7331   23.9594 N   0  0  0  0  0  0
  -28.9973  -17.6156   23.0607 N   0  0  0  0  0  0
  -30.2600  -15.3225   21.4432 N   0  0  0  0  0  0
  -31.4402  -12.3551   19.0762 H   0  0  0  0  0  0
  -30.2788  -11.2678   19.7823 H   0  0  0  0  0  0
  -29.7002  -11.7971   17.3930 H   0  0  0  0  0  0
  -29.6160  -13.4993   17.7769 H   0  0  0  0  0  0
  -27.8185  -11.2813   18.8276 H   0  0  0  0  0  0
  -27.3241  -12.5918   17.7965 H   0  0  0  0  0  0
  -27.6787  -14.2148   19.5464 H   0  0  0  0  0  0
  -28.6693  -11.9526   21.3545 H   0  0  0  0  0  0
  -28.4483  -13.6036   21.8454 H   0  0  0  0  0  0
  -25.2707   -9.5718   22.4784 H   0  0  0  0  0  0
  -24.0015   -7.4621   22.7489 H   0  0  0  0  0  0
  -21.0816   -8.8749   19.8934 H   0  0  0  0  0  0
  -22.3664  -10.9670   19.6190 H   0  0  0  0  0  0
  -21.1989   -7.6167   23.9745 H   0  0  0  0  0  0
  -21.1445   -6.0521   25.9097 H   0  0  0  0  0  0
  -22.0603   -2.7615   23.2854 H   0  0  0  0  0  0
  -22.4015  -11.9753   22.4720 H   0  0  0  0  0  0
  -21.1154  -13.1303   22.2754 H   0  0  0  0  0  0
  -24.6378  -15.8242   20.5109 H   0  0  0  0  0  0
  -26.2637  -15.6318   20.0894 H   0  0  0  0  0  0
  -26.7077  -32.5597   23.1235 H   0  0  0  0  0  0
  -25.0056  -33.9827   25.0538 H   0  0  0  0  0  0
  -22.6785  -31.3108   21.4176 H   0  0  0  0  0  0
  -23.3742  -35.9639   23.3306 H   0  0  0  0  0  0
  -24.3572  -36.8918   22.2054 H   0  0  0  0  0  0
  -23.7194  -37.6512   23.6644 H   0  0  0  0  0  0
  -26.0021  -31.6245   20.5826 H   0  0  0  0  0  0
  -26.8038  -30.9271   21.9624 H   0  0  0  0  0  0
  -28.0612  -29.2092   21.1761 H   0  0  0  0  0  0
  -26.1186  -26.0050   19.0147 H   0  0  0  0  0  0
  -23.9974  -27.2897   19.0321 H   0  0  0  0  0  0
  -23.6884  -30.5944   19.4043 H   0  0  0  0  0  0
  -22.7238  -29.2292   19.8838 H   0  0  0  0  0  0
  -25.1260  -36.2014   25.0843 H   0  0  0  0  0  0
  -20.9922  -28.3221   24.1464 H   0  0  0  0  0  0
  -20.5640  -26.2275   23.3604 H   0  0  0  0  0  0
  -21.6621  -26.7452   22.1228 H   0  0  0  0  0  0
  -19.6890  -25.6313   21.1236 H   0  0  0  0  0  0
  -19.6691  -27.3213   20.6740 H   0  0  0  0  0  0
  -17.4189  -26.6729   21.3977 H   0  0  0  0  0  0
  -18.0264  -26.0066   22.8965 H   0  0  0  0  0  0
  -19.7914  -30.7258   24.2294 H   0  0  0  0  0  0
  -17.5001  -31.6279   24.5161 H   0  0  0  0  0  0
  -15.5342  -30.3005   23.7660 H   0  0  0  0  0  0
  -15.8641  -28.0844   22.7061 H   0  0  0  0  0  0
  -24.5982  -30.6902   25.7829 H   0  0  0  0  0  0
  -24.8834  -32.2760   26.4899 H   0  0  0  0  0  0
  -25.8121  -30.8876   27.0258 H   0  0  0  0  0  0
  -26.2843  -29.6800   24.1122 H   0  0  0  0  0  0
  -27.4184  -29.7299   25.4434 H   0  0  0  0  0  0
  -27.8612  -30.4443   23.9099 H   0  0  0  0  0  0
  -27.2691  -33.3599   26.2073 H   0  0  0  0  0  0
  -28.3835  -32.6851   25.0277 H   0  0  0  0  0  0
  -28.0734  -31.8404   26.5362 H   0  0  0  0  0  0
  -28.2600  -38.0106   24.7538 H   0  0  0  0  0  0
  -28.1074  -36.2648   24.6253 H   0  0  0  0  0  0
  -27.2308  -37.1400   25.8864 H   0  0  0  0  0  0
  -20.9259  -29.8744   21.6965 H   0  0  0  0  0  0
  -26.0175  -38.2897   24.1439 H   0  0  0  0  0  0
  -31.4025  -19.1512   21.2612 H   0  0  0  0  0  0
  -30.5492  -18.1776   19.4320 H   0  0  0  0  0  0
  -30.7711  -16.5450   18.9198 H   0  0  0  0  0  0
  -31.8897  -17.2374   20.0871 H   0  0  0  0  0  0
  -28.1611  -17.7040   20.1370 H   0  0  0  0  0  0
  -27.7907  -16.2697   21.0731 H   0  0  0  0  0  0
  -28.4619  -16.1413   19.4368 H   0  0  0  0  0  0
  -27.9554  -20.2671   26.0563 H   0  0  0  0  0  0
  -26.5572  -19.3119   26.5167 H   0  0  0  0  0  0
  -26.6455  -20.0222   24.9066 H   0  0  0  0  0  0
  -29.5689  -18.3176   26.5890 H   0  0  0  0  0  0
  -29.2754  -16.7268   25.9071 H   0  0  0  0  0  0
  -28.1907  -17.3650   27.1388 H   0  0  0  0  0  0
  -26.1772  -17.6935   23.9611 H   0  0  0  0  0  0
  -26.1161  -17.0982   25.6173 H   0  0  0  0  0  0
  -27.1688  -16.3248   24.4480 H   0  0  0  0  0  0
  -31.1578  -15.7759   23.3206 H   0  0  0  0  0  0
  -30.8744  -14.0660   23.0822 H   0  0  0  0  0  0
  -29.5196  -15.1134   23.4230 H   0  0  0  0  0  0
  -32.1116  -21.1933   22.7508 H   0  0  0  0  0  0
  -30.8795  -21.8654   23.7912 H   0  0  0  0  0  0
  -29.3372  -22.0862   21.8022 H   0  0  0  0  0  0
  -30.5794  -21.4686   20.7654 H   0  0  0  0  0  0
  -31.5584  -23.4688   20.5145 H   0  0  0  0  0  0
  -31.7076  -23.7195   22.2283 H   0  0  0  0  0  0
  -29.4006  -24.6274   22.3424 H   0  0  0  0  0  0
  -29.1296  -24.2499   20.6605 H   0  0  0  0  0  0
  -30.8828  -25.8494   19.9613 H   0  0  0  0  0  0
  -31.2811  -26.1877   21.6242 H   0  0  0  0  0  0
  -29.8836  -27.9759   20.7331 H   0  0  0  0  0  0
  -28.9970  -27.1212   21.9982 H   0  0  0  0  0  0
  1 25  1  0  0  0
  1 30  2  0  0  0
  1 91  1  0  0  0
  2  3  1  0  0  0
  2 25  1  0  0  0
  2 92  1  0  0  0
  2 93  1  0  0  0
  3  4  1  0  0  0
  3 94  1  0  0  0
  3 95  1  0  0  0
  4  5  1  0  0  0
  4 96  1  0  0  0
  4 97  1  0  0  0
  5  6  1  0  0  0
  5 26  1  0  0  0
  5 98  1  0  0  0
  6 25  1  0  0  0
  6 99  1  0  0  0
  6100  1  0  0  0
  7  8  2  0  0  0
  7 26  1  0  0  0
  7 29  1  0  0  0
  8  9  1  0  0  0
  8 22  1  0  0  0
  9 10  1  0  0  0
  9 27  2  0  0  0
 10 11  2  0  0  0
 10 15  1  0  0  0
 11 12  1  0  0  0
 11101  1  0  0  0
 12 13  2  0  0  0
 12102  1  0  0  0
 13 14  1  0  0  0
 13 31  1  0  0  0
 14 15  2  0  0  0
 14103  1  0  0  0
 15104  1  0  0  0
 16 17  2  0  0  0
 16 21  1  0  0  0
 16 31  1  0  0  0
 17 18  1  0  0  0
 17105  1  0  0  0
 18 19  2  0  0  0
 18106  1  0  0  0
 19 20  1  0  0  0
 19 24  1  0  0  0
 20 21  2  0  0  0
 20107  1  0  0  0
 21 23  1  0  0  0
 22 28  1  0  0  0
 22 32  2  0  0  0
 26 27  1  0  0  0
 28108  1  0  0  0
 28109  1  0  0  0
 29110  1  0  0  0
 29111  1  0  0  0
 33 34  1  0  0  0
 33 66  1  0  0  0
 33 70  2  0  0  0
 34 36  1  0  0  0
 34 59  1  0  0  0
 34112  1  0  0  0
 35 44  2  0  0  0
 35 45  1  0  0  0
 35 68  1  0  0  0
 36 56  1  0  0  0
 36113  1  0  0  0
 37 39  1  0  0  0
 37 47  1  0  0  0
 37 66  1  0  0  0
 37114  1  0  0  0
 38 43  2  0  0  0
 38 46  1  0  0  0
 38 47  1  0  0  0
 39 64  1  0  0  0
 39 67  2  0  0  0
 40 52  1  0  0  0
 40 53  2  0  0  0
 40 58  1  0  0  0
 41115  1  0  0  0
 41116  1  0  0  0
 41117  1  0  0  0
 41 48  1  0  0  0
 42 43  1  0  0  0
 42 66  1  0  0  0
 42118  1  0  0  0
 42119  1  0  0  0
 43 44  1  0  0  0
 44120  1  0  0  0
 45 46  2  0  0  0
 45121  1  0  0  0
 46122  1  0  0  0
 47123  1  0  0  0
 47124  1  0  0  0
 48 56  1  0  0  0
 48 65  1  0  0  0
 48125  1  0  0  0
 49 50  1  0  0  0
 49 53  1  0  0  0
 49 64  1  0  0  0
 49126  1  0  0  0
 50 51  1  0  0  0
 50127  1  0  0  0
 50128  1  0  0  0
 51 52  1  0  0  0
 51129  1  0  0  0
 51130  1  0  0  0
 52131  1  0  0  0
 52132  1  0  0  0
 53 54  1  0  0  0
 54 55  2  0  0  0
 54133  1  0  0  0
 55 57  1  0  0  0
 55134  1  0  0  0
 56 69  2  0  0  0
 57 58  2  0  0  0
 57135  1  0  0  0
 58136  1  0  0  0
 59 60  1  0  0  0
 59 61  1  0  0  0
 59 62  1  0  0  0
 60137  1  0  0  0
 60138  1  0  0  0
 60139  1  0  0  0
 61140  1  0  0  0
 61141  1  0  0  0
 61142  1  0  0  0
 62143  1  0  0  0
 62144  1  0  0  0
 62145  1  0  0  0
 63 65  1  0  0  0
 63146  1  0  0  0
 63147  1  0  0  0
 63148  1  0  0  0
 64149  1  0  0  0
 65150  1  0  0  0
 68 86  1  0  0  0
 71 72  2  0  0  0
 71 73  1  0  0  0
 71151  1  0  0  0
 72 81  1  0  0  0
 72 89  1  0  0  0
 73 87  1  0  0  0
 73 90  2  0  0  0
 74 88  1  0  0  0
 74 89  2  0  0  0
 74 90  1  0  0  0
 75152  1  0  0  0
 75153  1  0  0  0
 75154  1  0  0  0
 75 87  1  0  0  0
 76 87  1  0  0  0
 76155  1  0  0  0
 76156  1  0  0  0
 76157  1  0  0  0
 77158  1  0  0  0
 77159  1  0  0  0
 77160  1  0  0  0
 77 88  1  0  0  0
 78 88  1  0  0  0
 78161  1  0  0  0
 78162  1  0  0  0
 78163  1  0  0  0
 79 88  1  0  0  0
 79164  1  0  0  0
 79165  1  0  0  0
 79166  1  0  0  0
 80 91  1  0  0  0
 80167  1  0  0  0
 80168  1  0  0  0
 80169  1  0  0  0
 81 82  1  0  0  0
 81170  1  0  0  0
 81171  1  0  0  0
 82 83  1  0  0  0
 82172  1  0  0  0
 82173  1  0  0  0
 83 84  1  0  0  0
 83174  1  0  0  0
 83175  1  0  0  0
 84 85  1  0  0  0
 84176  1  0  0  0
 84177  1  0  0  0
 85 86  1  0  0  0
 85178  1  0  0  0
 85179  1  0  0  0
 86180  1  0  0  0
 86181  1  0  0  0
 87 91  1  0  0  0
M  ISO  4   1 100  68 101  86 101  91 100
M  END
> <chiral flag>
0

> <version>
0

> <s_m_source_file>
/data/baiqing/PycharmProjects/Reinvent-master-3.2/result/LINK_invent/BTK/process_docking_weight1_custom_sum_contain_oxygen_bond_distance_aromatic_linkinvent_7_9_3/rearranged_h_0068.sdf

> <i_m_source_file_index>
1

> <r_mmod_Potential_Energy-OPLS-2005>
-391.67041015625

> <r_mmod_Stretch_Energy-OPLS-2005>
40.4127731323242

> <r_mmod_Bend_Energy-OPLS-2005>
116.89200592041

> <r_mmod_Torsional_Energy-OPLS-2005>
278.344085693359

> <r_mmod_Improper_Torsional_Energy-OPLS-2005>
5.06436681747437

> <r_mmod_Van_der_Waal_Energy-OPLS-2005>
198.235824584961

> <r_mmod_Electrostatic_Energy-OPLS-2005>
-854.001342773438

> <r_mmod_Solvation_Energy-OPLS-2005>
-185.090667724609

> <b_mmod_Minimization_Converged-OPLS-2005>
0

> <r_mmod_RMS_Derivative-OPLS-2005>
2.97852730751038

$$$$
1
                    3D
 Structure written by MMmdl.
171180  0  0  1  0            999 V2000
  -30.6866  -14.5349   20.5375 C   0  0  0  0  0  0
  -30.4371  -12.3325   19.4438 C   0  0  0  0  0  0
  -29.5067  -12.4867   18.2196 C   0  0  0  0  0  0
  -28.0247  -12.3277   18.6172 C   0  0  0  0  0  0
  -27.6534  -13.1659   19.8645 C   0  0  2  0  0  0
  -28.7071  -12.9660   20.9809 C   0  0  0  0  0  0
  -25.2545  -13.8008   20.5620 C   0  0  0  0  0  0
  -24.1795  -13.0350   20.9204 C   0  0  0  0  0  0
  -24.6319  -11.6814   20.8780 C   0  0  0  0  0  0
  -23.8969  -10.4254   21.0433 C   0  0  0  0  0  0
  -24.3555   -9.4192   21.9201 C   0  0  0  0  0  0
  -23.6265   -8.2221   22.0758 C   0  0  0  0  0  0
  -22.4262   -8.0244   21.3540 C   0  0  0  0  0  0
  -21.9857   -9.0197   20.4654 C   0  0  0  0  0  0
  -22.7145  -10.2095   20.3072 C   0  0  0  0  0  0
  -21.6863   -6.0734   22.5301 C   0  0  0  0  0  0
  -21.4012   -6.5642   23.8232 C   0  0  0  0  0  0
  -21.3635   -5.6785   24.9185 C   0  0  0  0  0  0
  -21.6027   -4.3054   24.7216 C   0  0  0  0  0  0
  -21.8822   -3.8144   23.4344 C   0  0  0  0  0  0
  -21.9207   -4.6969   22.3413 C   0  0  0  0  0  0
  -22.7835  -13.5222   21.1864 C   0  0  0  0  0  0
  -22.1690   -4.2166   21.0991 F   0  0  0  0  0  0
  -21.5599   -3.4536   25.7717 F   0  0  0  0  0  0
  -30.0242  -13.3361   20.4453 N   0  0  0  0  0  0
  -26.2968  -12.9097   20.3338 N   0  0  0  0  0  0
  -25.9231  -11.6306   20.5778 N   0  0  0  0  0  0
  -22.0425  -12.8275   22.0436 N   0  0  0  0  0  0
  -25.4130  -15.1711   20.3891 N   0  0  0  0  0  0
  -31.8676  -14.5982   20.1818 O   0  0  0  0  0  0
  -21.6624   -6.8852   21.4258 O   0  0  0  0  0  0
  -22.3573  -14.5548   20.6704 O   0  0  0  0  0  0
  -24.6094  -31.8675   23.2126 C   0  0  0  0  0  0
  -25.8985  -32.4854   23.8389 C   0  0  1  0  0  0
  -27.2727  -27.4672   20.1270 C   0  0  0  0  0  0
  -25.5830  -33.8652   24.2312 N   0  0  0  0  0  0
  -23.3976  -30.4866   21.5498 C   0  0  2  0  0  0
  -24.8551  -28.9486   20.1274 C   0  0  0  0  0  0
  -22.7388  -29.4649   22.5027 C   0  0  0  0  0  0
  -18.0269  -28.1385   22.8495 C   0  0  0  0  0  0
  -24.1479  -36.7328   23.2642 C   0  0  0  0  0  0
  -25.9169  -30.8504   21.3535 C   0  0  0  0  0  0
  -26.0054  -29.4763   20.7255 C   0  0  0  0  0  0
  -27.2132  -28.7488   20.7200 C   0  0  0  0  0  0
  -26.1072  -26.9545   19.5171 C   0  0  0  0  0  0
  -24.8985  -27.6816   19.5176 C   0  0  0  0  0  0
  -23.6106  -29.8070   20.1685 C   0  0  0  0  0  0
  -25.4096  -36.3137   24.0342 C   0  0  1  0  0  0
  -20.5855  -28.3646   23.1347 C   0  0  2  0  0  0
  -20.6760  -26.9382   22.5437 C   0  0  0  0  0  0
  -19.5739  -26.6382   21.5232 C   0  0  0  0  0  0
  -18.1915  -26.7922   22.1637 C   0  0  0  0  0  0
  -19.1517  -28.8828   23.2916 C   0  0  0  0  0  0
  -18.9448  -30.1445   23.8907 C   0  0  0  0  0  0
  -17.6452  -30.6587   24.0565 C   0  0  0  0  0  0
  -25.9017  -34.9512   23.5133 C   0  0  0  0  0  0
  -16.5345  -29.9091   23.6333 C   0  0  0  0  0  0
  -16.7258  -28.6520   23.0331 C   0  0  0  0  0  0
  -26.4523  -31.6650   25.0670 C   0  0  0  0  0  0
  -25.3871  -31.3689   26.1478 C   0  0  0  0  0  0
  -27.0427  -30.3158   24.5941 C   0  0  0  0  0  0
  -27.6080  -32.4444   25.7379 C   0  0  0  0  0  0
  -27.5578  -37.1815   24.8458 C   0  0  0  0  0  0
  -21.4120  -29.3001   22.3745 N   0  0  0  0  0  0
  -26.4294  -37.3810   23.9409 N   0  0  0  0  0  0
  -24.6596  -31.0816   22.0999 N   0  0  0  0  0  0
  -23.4176  -28.8214   23.3080 O   0  0  0  0  0  0
  -28.4343  -26.7300   19.9873 O   0  0  0  0  0  0
  -26.5602  -34.8961   22.4713 O   0  0  0  0  0  0
  -23.5299  -32.1396   23.7551 O   0  0  0  0  0  0
  -32.2649  -19.0415   21.0646 C   0  0  0  0  0  0
  -31.6642  -17.8990   20.5097 C   0  0  0  0  0  0
  -29.6692  -22.4369   22.6974 C   0  0  0  0  0  0
  -31.5069  -23.7256   23.4833 C   0  0  0  0  0  0
  -31.4902  -18.2937   23.2169 C   0  0  0  0  0  0
  -30.1493  -23.6808   23.1347 C   0  0  0  0  0  0
  -32.1293  -19.2740   22.4404 C   0  0  0  0  0  0
  -30.9438  -17.0044   21.3396 C   0  0  0  0  0  0
  -31.7363  -21.5112   23.0034 C   0  0  0  0  0  0
  -28.7017  -15.9602   21.6519 C   0  0  0  0  0  0
  -29.5170  -16.4100   19.3450 C   0  0  0  0  0  0
  -29.9459  -27.5600   21.7904 C   0  0  0  0  0  0
  -30.3811  -25.5485   20.3762 C   0  0  0  0  0  0
  -29.2360  -24.8957   23.3288 C   0  0  0  0  0  0
  -28.4917  -25.4474   22.0798 C   0  0  0  0  0  0
  -29.9694  -15.9318   20.7555 C   0  0  0  0  0  0
  -29.2828  -26.3545   21.0931 C   0  0  0  0  0  0
  -30.9344  -17.1788   22.6884 N   0  0  0  0  0  0
  -30.4651  -21.3518   22.6353 N   0  0  0  0  0  0
  -32.2952  -22.6371   23.4157 N   0  0  0  0  0  0
  -32.5796  -20.4464   22.9995 O   0  0  0  0  0  0
  -31.4787  -12.4421   19.1375 H   0  0  0  0  0  0
  -30.3627  -11.3256   19.8586 H   0  0  0  0  0  0
  -29.7647  -11.7476   17.4601 H   0  0  0  0  0  0
  -29.6605  -13.4663   17.7635 H   0  0  0  0  0  0
  -27.8478  -11.2705   18.8149 H   0  0  0  0  0  0
  -27.3823  -12.5891   17.7759 H   0  0  0  0  0  0
  -27.6607  -14.1908   19.5265 H   0  0  0  0  0  0
  -28.7218  -11.9153   21.2747 H   0  0  0  0  0  0
  -28.4633  -13.4777   21.9063 H   0  0  0  0  0  0
  -25.2705   -9.5707   22.4758 H   0  0  0  0  0  0
  -24.0003   -7.4625   22.7465 H   0  0  0  0  0  0
  -21.0789   -8.8648   19.8969 H   0  0  0  0  0  0
  -22.3556  -10.9603   19.6180 H   0  0  0  0  0  0
  -21.2005   -7.6151   23.9733 H   0  0  0  0  0  0
  -21.1453   -6.0519   25.9084 H   0  0  0  0  0  0
  -22.0631   -2.7611   23.2828 H   0  0  0  0  0  0
  -22.4002  -11.9957   22.4892 H   0  0  0  0  0  0
  -21.1031  -13.1344   22.2538 H   0  0  0  0  0  0
  -24.6351  -15.8108   20.5087 H   0  0  0  0  0  0
  -26.2541  -15.6269   20.0608 H   0  0  0  0  0  0
  -26.7043  -32.5634   23.1162 H   0  0  0  0  0  0
  -24.9934  -33.9828   25.0426 H   0  0  0  0  0  0
  -22.6839  -31.2998   21.4054 H   0  0  0  0  0  0
  -23.3746  -35.9657   23.3336 H   0  0  0  0  0  0
  -24.3551  -36.8910   22.2042 H   0  0  0  0  0  0
  -23.7239  -37.6549   23.6635 H   0  0  0  0  0  0
  -26.0023  -31.6066   20.5710 H   0  0  0  0  0  0
  -26.8131  -30.9319   21.9548 H   0  0  0  0  0  0
  -28.0951  -29.2132   21.1291 H   0  0  0  0  0  0
  -26.1430  -25.9928   19.0256 H   0  0  0  0  0  0
  -24.0205  -27.2699   19.0405 H   0  0  0  0  0  0
  -23.7084  -30.5736   19.4005 H   0  0  0  0  0  0
  -22.7410  -29.2139   19.8799 H   0  0  0  0  0  0
  -25.1291  -36.2005   25.0833 H   0  0  0  0  0  0
  -20.9934  -28.3203   24.1474 H   0  0  0  0  0  0
  -20.5679  -26.2239   23.3614 H   0  0  0  0  0  0
  -21.6631  -26.7442   22.1215 H   0  0  0  0  0  0
  -19.6895  -25.6300   21.1240 H   0  0  0  0  0  0
  -19.6689  -27.3213   20.6780 H   0  0  0  0  0  0
  -17.4189  -26.6676   21.4035 H   0  0  0  0  0  0
  -18.0303  -26.0069   22.9035 H   0  0  0  0  0  0
  -19.7925  -30.7260   24.2273 H   0  0  0  0  0  0
  -17.5011  -31.6263   24.5171 H   0  0  0  0  0  0
  -15.5344  -30.3000   23.7652 H   0  0  0  0  0  0
  -15.8658  -28.0858   22.7019 H   0  0  0  0  0  0
  -24.6118  -30.6908   25.7904 H   0  0  0  0  0  0
  -24.8977  -32.2815   26.4896 H   0  0  0  0  0  0
  -25.8341  -30.8988   27.0240 H   0  0  0  0  0  0
  -26.2950  -29.6843   24.1131 H   0  0  0  0  0  0
  -27.4475  -29.7433   25.4295 H   0  0  0  0  0  0
  -27.8628  -30.4618   23.8903 H   0  0  0  0  0  0
  -27.2632  -33.3638   26.2119 H   0  0  0  0  0  0
  -28.3745  -32.7227   25.0120 H   0  0  0  0  0  0
  -28.0963  -31.8534   26.5147 H   0  0  0  0  0  0
  -28.2618  -38.0094   24.7503 H   0  0  0  0  0  0
  -28.1060  -36.2632   24.6301 H   0  0  0  0  0  0
  -27.2292  -37.1484   25.8860 H   0  0  0  0  0  0
  -20.9284  -29.8684   21.6933 H   0  0  0  0  0  0
  -26.0199  -38.2897   24.1405 H   0  0  0  0  0  0
  -32.7706  -19.7556   20.4305 H   0  0  0  0  0  0
  -31.7132  -17.7761   19.4391 H   0  0  0  0  0  0
  -28.6316  -22.3012   22.4297 H   0  0  0  0  0  0
  -31.9631  -24.6357   23.8424 H   0  0  0  0  0  0
  -31.3860  -18.4225   24.2843 H   0  0  0  0  0  0
  -27.8485  -15.4704   21.2102 H   0  0  0  0  0  0
  -28.3691  -16.9854   21.8187 H   0  0  0  0  0  0
  -28.8793  -15.5213   22.6337 H   0  0  0  0  0  0
  -29.1518  -17.4375   19.3752 H   0  0  0  0  0  0
  -28.7212  -15.8156   18.9125 H   0  0  0  0  0  0
  -30.3277  -16.3715   18.6167 H   0  0  0  0  0  0
  -30.8041  -27.2479   22.3874 H   0  0  0  0  0  0
  -29.2689  -28.0632   22.4783 H   0  0  0  0  0  0
  -30.3149  -28.2852   21.0644 H   0  0  0  0  0  0
  -30.8550  -26.1407   19.5925 H   0  0  0  0  0  0
  -29.9764  -24.6531   19.9031 H   0  0  0  0  0  0
  -31.1725  -25.2334   21.0555 H   0  0  0  0  0  0
  -29.7857  -25.6944   23.8300 H   0  0  0  0  0  0
  -28.4810  -24.5827   24.0510 H   0  0  0  0  0  0
  -27.6652  -26.0471   22.4630 H   0  0  0  0  0  0
  -28.0143  -24.6309   21.5386 H   0  0  0  0  0  0
  1 25  1  0  0  0
  1 30  2  0  0  0
  1 86  1  0  0  0
  2  3  1  0  0  0
  2 25  1  0  0  0
  2 92  1  0  0  0
  2 93  1  0  0  0
  3  4  1  0  0  0
  3 94  1  0  0  0
  3 95  1  0  0  0
  4  5  1  0  0  0
  4 96  1  0  0  0
  4 97  1  0  0  0
  5  6  1  0  0  0
  5 26  1  0  0  0
  5 98  1  0  0  0
  6 25  1  0  0  0
  6 99  1  0  0  0
  6100  1  0  0  0
  7  8  2  0  0  0
  7 26  1  0  0  0
  7 29  1  0  0  0
  8  9  1  0  0  0
  8 22  1  0  0  0
  9 10  1  0  0  0
  9 27  2  0  0  0
 10 11  2  0  0  0
 10 15  1  0  0  0
 11 12  1  0  0  0
 11101  1  0  0  0
 12 13  2  0  0  0
 12102  1  0  0  0
 13 14  1  0  0  0
 13 31  1  0  0  0
 14 15  2  0  0  0
 14103  1  0  0  0
 15104  1  0  0  0
 16 17  2  0  0  0
 16 21  1  0  0  0
 16 31  1  0  0  0
 17 18  1  0  0  0
 17105  1  0  0  0
 18 19  2  0  0  0
 18106  1  0  0  0
 19 20  1  0  0  0
 19 24  1  0  0  0
 20 21  2  0  0  0
 20107  1  0  0  0
 21 23  1  0  0  0
 22 28  1  0  0  0
 22 32  2  0  0  0
 26 27  1  0  0  0
 28108  1  0  0  0
 28109  1  0  0  0
 29110  1  0  0  0
 29111  1  0  0  0
 33 34  1  0  0  0
 33 66  1  0  0  0
 33 70  2  0  0  0
 34 36  1  0  0  0
 34 59  1  0  0  0
 34112  1  0  0  0
 35 44  2  0  0  0
 35 45  1  0  0  0
 35 68  1  0  0  0
 36 56  1  0  0  0
 36113  1  0  0  0
 37 39  1  0  0  0
 37 47  1  0  0  0
 37 66  1  0  0  0
 37114  1  0  0  0
 38 43  2  0  0  0
 38 46  1  0  0  0
 38 47  1  0  0  0
 39 64  1  0  0  0
 39 67  2  0  0  0
 40 52  1  0  0  0
 40 53  2  0  0  0
 40 58  1  0  0  0
 41115  1  0  0  0
 41116  1  0  0  0
 41117  1  0  0  0
 41 48  1  0  0  0
 42 43  1  0  0  0
 42 66  1  0  0  0
 42118  1  0  0  0
 42119  1  0  0  0
 43 44  1  0  0  0
 44120  1  0  0  0
 45 46  2  0  0  0
 45121  1  0  0  0
 46122  1  0  0  0
 47123  1  0  0  0
 47124  1  0  0  0
 48 56  1  0  0  0
 48 65  1  0  0  0
 48125  1  0  0  0
 49 50  1  0  0  0
 49 53  1  0  0  0
 49 64  1  0  0  0
 49126  1  0  0  0
 50 51  1  0  0  0
 50127  1  0  0  0
 50128  1  0  0  0
 51 52  1  0  0  0
 51129  1  0  0  0
 51130  1  0  0  0
 52131  1  0  0  0
 52132  1  0  0  0
 53 54  1  0  0  0
 54 55  2  0  0  0
 54133  1  0  0  0
 55 57  1  0  0  0
 55134  1  0  0  0
 56 69  2  0  0  0
 57 58  2  0  0  0
 57135  1  0  0  0
 58136  1  0  0  0
 59 60  1  0  0  0
 59 61  1  0  0  0
 59 62  1  0  0  0
 60137  1  0  0  0
 60138  1  0  0  0
 60139  1  0  0  0
 61140  1  0  0  0
 61141  1  0  0  0
 61142  1  0  0  0
 62143  1  0  0  0
 62144  1  0  0  0
 62145  1  0  0  0
 63 65  1  0  0  0
 63146  1  0  0  0
 63147  1  0  0  0
 63148  1  0  0  0
 64149  1  0  0  0
 65150  1  0  0  0
 68 87  1  0  0  0
 71 72  2  0  0  0
 71 77  1  0  0  0
 71151  1  0  0  0
 72 78  1  0  0  0
 72152  1  0  0  0
 73 76  2  0  0  0
 73 89  1  0  0  0
 73153  1  0  0  0
 74 76  1  0  0  0
 74 90  2  0  0  0
 74154  1  0  0  0
 75 77  2  0  0  0
 75 88  1  0  0  0
 75155  1  0  0  0
 76 84  1  0  0  0
 77 91  1  0  0  0
 78 86  1  0  0  0
 78 88  2  0  0  0
 79 89  2  0  0  0
 79 90  1  0  0  0
 79 91  1  0  0  0
 80156  1  0  0  0
 80157  1  0  0  0
 80158  1  0  0  0
 80 86  1  0  0  0
 81 86  1  0  0  0
 81159  1  0  0  0
 81160  1  0  0  0
 81161  1  0  0  0
 82162  1  0  0  0
 82163  1  0  0  0
 82164  1  0  0  0
 82 87  1  0  0  0
 83 87  1  0  0  0
 83165  1  0  0  0
 83166  1  0  0  0
 83167  1  0  0  0
 84 85  1  0  0  0
 84168  1  0  0  0
 84169  1  0  0  0
 85 87  1  0  0  0
 85170  1  0  0  0
 85171  1  0  0  0
M  ISO  4   1 100  68 101  86 100  87 101
M  END
> <chiral flag>
0

> <version>
0

> <s_m_source_file>
/data/baiqing/PycharmProjects/Reinvent-master-3.2/result/LINK_invent/BTK/process_docking_weight1_custom_sum_contain_oxygen_bond_distance_aromatic_linkinvent_7_9_3/rearranged_h_0068.sdf

> <i_m_source_file_index>
2

> <r_mmod_Potential_Energy-OPLS-2005>
-442.781616210938

> <r_mmod_Stretch_Energy-OPLS-2005>
48.9669952392578

> <r_mmod_Bend_Energy-OPLS-2005>
156.595748901367

> <r_mmod_Torsional_Energy-OPLS-2005>
236.668594360352

> <r_mmod_Improper_Torsional_Energy-OPLS-2005>
8.93093776702881

> <r_mmod_Van_der_Waal_Energy-OPLS-2005>
208.815185546875

> <r_mmod_Electrostatic_Energy-OPLS-2005>
-905.64306640625

> <r_mmod_Solvation_Energy-OPLS-2005>
-215.179489135742

> <b_mmod_Minimization_Converged-OPLS-2005>
0

> <r_mmod_RMS_Derivative-OPLS-2005>
3.19326043128967

$$$$
2
                    3D
 Structure written by MMmdl.
173181  0  0  1  0            999 V2000
  -30.6362  -14.5920   20.5963 C   0  0  0  0  0  0
  -30.4308  -12.3889   19.4255 C   0  0  0  0  0  0
  -29.4904  -12.5385   18.2091 C   0  0  0  0  0  0
  -28.0150  -12.3645   18.6217 C   0  0  0  0  0  0
  -27.6533  -13.2051   19.8726 C   0  0  2  0  0  0
  -28.6981  -12.9946   20.9883 C   0  0  0  0  0  0
  -25.2542  -13.8146   20.5650 C   0  0  0  0  0  0
  -24.1818  -13.0426   20.9147 C   0  0  0  0  0  0
  -24.6378  -11.6871   20.8740 C   0  0  0  0  0  0
  -23.9073  -10.4241   21.0386 C   0  0  0  0  0  0
  -24.3629   -9.4172   21.9172 C   0  0  0  0  0  0
  -23.6312   -8.2207   22.0754 C   0  0  0  0  0  0
  -22.4298   -8.0233   21.3540 C   0  0  0  0  0  0
  -21.9921   -9.0197   20.4646 C   0  0  0  0  0  0
  -22.7232  -10.2082   20.3045 C   0  0  0  0  0  0
  -21.6849   -6.0732   22.5289 C   0  0  0  0  0  0
  -21.3998   -6.5651   23.8209 C   0  0  0  0  0  0
  -21.3668   -5.6804   24.9166 C   0  0  0  0  0  0
  -21.6048   -4.3061   24.7210 C   0  0  0  0  0  0
  -21.8821   -3.8168   23.4335 C   0  0  0  0  0  0
  -21.9187   -4.6975   22.3392 C   0  0  0  0  0  0
  -22.7845  -13.5213   21.1808 C   0  0  0  0  0  0
  -22.1664   -4.2167   21.0969 F   0  0  0  0  0  0
  -21.5638   -3.4534   25.7739 F   0  0  0  0  0  0
  -30.0100  -13.3780   20.4387 N   0  0  0  0  0  0
  -26.2984  -12.9308   20.3370 N   0  0  0  0  0  0
  -25.9306  -11.6477   20.5828 N   0  0  0  0  0  0
  -22.0539  -12.8206   22.0397 N   0  0  0  0  0  0
  -25.4165  -15.1854   20.3947 N   0  0  0  0  0  0
  -31.7531  -14.7795   20.1020 O   0  0  0  0  0  0
  -21.6650   -6.8847   21.4250 O   0  0  0  0  0  0
  -22.3488  -14.5532   20.6677 O   0  0  0  0  0  0
  -24.6204  -31.8656   23.2046 C   0  0  0  0  0  0
  -25.9081  -32.4808   23.8352 C   0  0  1  0  0  0
  -27.2094  -27.3630   20.1009 C   0  0  0  0  0  0
  -25.5929  -33.8598   24.2306 N   0  0  0  0  0  0
  -23.4106  -30.4894   21.5492 C   0  0  2  0  0  0
  -24.8519  -28.9482   20.1112 C   0  0  0  0  0  0
  -22.7489  -29.4618   22.4983 C   0  0  0  0  0  0
  -18.0312  -28.1356   22.8514 C   0  0  0  0  0  0
  -24.1482  -36.7300   23.2635 C   0  0  0  0  0  0
  -25.9459  -30.8076   21.3671 C   0  0  0  0  0  0
  -26.0191  -29.4394   20.7090 C   0  0  0  0  0  0
  -27.2075  -28.6576   20.6939 C   0  0  0  0  0  0
  -26.0260  -26.9101   19.4824 C   0  0  0  0  0  0
  -24.8531  -27.6871   19.4930 C   0  0  0  0  0  0
  -23.6204  -29.8272   20.1622 C   0  0  0  0  0  0
  -25.4111  -36.3093   24.0334 C   0  0  1  0  0  0
  -20.5920  -28.3646   23.1330 C   0  0  2  0  0  0
  -20.6798  -26.9373   22.5445 C   0  0  0  0  0  0
  -19.5774  -26.6360   21.5247 C   0  0  0  0  0  0
  -18.1956  -26.7898   22.1662 C   0  0  0  0  0  0
  -19.1571  -28.8810   23.2910 C   0  0  0  0  0  0
  -18.9511  -30.1410   23.8917 C   0  0  0  0  0  0
  -17.6512  -30.6547   24.0576 C   0  0  0  0  0  0
  -25.9058  -34.9460   23.5122 C   0  0  0  0  0  0
  -16.5396  -29.9062   23.6309 C   0  0  0  0  0  0
  -16.7301  -28.6467   23.0376 C   0  0  0  0  0  0
  -26.4476  -31.6595   25.0702 C   0  0  0  0  0  0
  -25.3721  -31.3721   26.1434 C   0  0  0  0  0  0
  -27.0313  -30.3031   24.6116 C   0  0  0  0  0  0
  -27.6058  -32.4299   25.7458 C   0  0  0  0  0  0
  -27.5589  -37.1809   24.8468 C   0  0  0  0  0  0
  -21.4191  -29.3056   22.3777 N   0  0  0  0  0  0
  -26.4295  -37.3793   23.9412 N   0  0  0  0  0  0
  -24.6779  -31.0679   22.0996 N   0  0  0  0  0  0
  -23.4269  -28.8112   23.2977 O   0  0  0  0  0  0
  -28.3292  -26.5409   20.1044 O   0  0  0  0  0  0
  -26.5615  -34.8918   22.4671 O   0  0  0  0  0  0
  -23.5392  -32.1430   23.7410 O   0  0  0  0  0  0
  -29.1719  -19.8792   20.0575 C   0  0  0  0  0  0
  -28.2604  -18.7886   19.9003 C   0  0  0  0  0  0
  -30.7578  -18.3137   20.8428 C   0  0  0  0  0  0
  -29.8183  -17.2290   20.7788 C   0  0  0  0  0  0
  -33.1915  -18.9694   20.3812 C   0  0  0  0  0  0
  -25.5692  -20.3873   20.7860 C   0  0  0  0  0  0
  -32.2154  -18.1616   21.2582 C   0  0  0  0  0  0
  -28.9634  -21.3269   19.4854 C   0  0  0  0  0  0
  -26.9155  -18.8899   19.1862 C   0  0  0  0  0  0
  -25.7016  -19.0124   20.1218 C   0  0  0  0  0  0
  -28.7163  -22.5591   20.4397 C   0  0  0  0  0  0
  -28.6089  -23.9757   19.7317 C   0  0  0  0  0  0
  -30.3180  -15.7404   22.9231 C   0  0  0  0  0  0
  -28.1457  -25.1851   20.6304 C   0  0  0  0  0  0
  -29.9564  -15.7750   21.4072 C   0  0  2  0  0  0
  -30.4075  -19.6064   20.5481 N   0  0  0  0  0  0
  -28.5701  -17.5207   20.3070 N   0  0  0  0  0  0
  -31.7575  -15.7753   23.2670 N   0  3  0  0  0  0
  -31.4690  -12.5155   19.1123 H   0  0  0  0  0  0
  -30.3669  -11.3806   19.8348 H   0  0  0  0  0  0
  -29.7456  -11.8209   17.4290 H   0  0  0  0  0  0
  -29.6269  -13.5288   17.7684 H   0  0  0  0  0  0
  -27.8422  -11.3054   18.8170 H   0  0  0  0  0  0
  -27.3601  -12.6302   17.7910 H   0  0  0  0  0  0
  -27.6904  -14.2488   19.5686 H   0  0  0  0  0  0
  -28.7187  -11.9470   21.2928 H   0  0  0  0  0  0
  -28.4228  -13.5325   21.8931 H   0  0  0  0  0  0
  -25.2747   -9.5699   22.4787 H   0  0  0  0  0  0
  -24.0018   -7.4632   22.7490 H   0  0  0  0  0  0
  -21.0847   -8.8700   19.8980 H   0  0  0  0  0  0
  -22.3648  -10.9641   19.6200 H   0  0  0  0  0  0
  -21.1997   -7.6156   23.9726 H   0  0  0  0  0  0
  -21.1510   -6.0515   25.9073 H   0  0  0  0  0  0
  -22.0607   -2.7640   23.2822 H   0  0  0  0  0  0
  -22.4185  -11.9922   22.4899 H   0  0  0  0  0  0
  -21.1162  -13.1234   22.2551 H   0  0  0  0  0  0
  -24.6199  -15.8137   20.4285 H   0  0  0  0  0  0
  -26.2735  -15.6452   20.1166 H   0  0  0  0  0  0
  -26.7155  -32.5483   23.1111 H   0  0  0  0  0  0
  -25.0076  -33.9728   25.0459 H   0  0  0  0  0  0
  -22.6986  -31.3056   21.4135 H   0  0  0  0  0  0
  -23.3752  -35.9631   23.3299 H   0  0  0  0  0  0
  -24.3573  -36.8909   22.2048 H   0  0  0  0  0  0
  -23.7216  -37.6503   23.6646 H   0  0  0  0  0  0
  -26.0652  -31.5735   20.5977 H   0  0  0  0  0  0
  -26.8308  -30.8586   21.9909 H   0  0  0  0  0  0
  -28.1086  -29.0293   21.1592 H   0  0  0  0  0  0
  -26.0058  -25.9481   18.9888 H   0  0  0  0  0  0
  -23.9557  -27.3056   19.0270 H   0  0  0  0  0  0
  -23.7393  -30.6043   19.4054 H   0  0  0  0  0  0
  -22.7385  -29.2587   19.8585 H   0  0  0  0  0  0
  -25.1283  -36.1966   25.0837 H   0  0  0  0  0  0
  -21.0043  -28.3177   24.1423 H   0  0  0  0  0  0
  -20.5663  -26.2245   23.3641 H   0  0  0  0  0  0
  -21.6675  -26.7397   22.1270 H   0  0  0  0  0  0
  -19.6902  -25.6298   21.1223 H   0  0  0  0  0  0
  -19.6732  -27.3184   20.6795 H   0  0  0  0  0  0
  -17.4268  -26.6697   21.4028 H   0  0  0  0  0  0
  -18.0326  -26.0031   22.9030 H   0  0  0  0  0  0
  -19.8002  -30.7172   24.2322 H   0  0  0  0  0  0
  -17.5097  -31.6226   24.5190 H   0  0  0  0  0  0
  -15.5406  -30.2985   23.7621 H   0  0  0  0  0  0
  -15.8712  -28.0780   22.7098 H   0  0  0  0  0  0
  -24.5903  -30.7068   25.7749 H   0  0  0  0  0  0
  -24.8901  -32.2887   26.4844 H   0  0  0  0  0  0
  -25.8030  -30.8902   27.0218 H   0  0  0  0  0  0
  -26.2868  -29.6794   24.1156 H   0  0  0  0  0  0
  -27.4060  -29.7256   25.4575 H   0  0  0  0  0  0
  -27.8708  -30.4332   23.9281 H   0  0  0  0  0  0
  -27.2708  -33.3599   26.2049 H   0  0  0  0  0  0
  -28.3853  -32.6851   25.0274 H   0  0  0  0  0  0
  -28.0754  -31.8422   26.5359 H   0  0  0  0  0  0
  -28.2622  -38.0100   24.7517 H   0  0  0  0  0  0
  -28.1071  -36.2622   24.6291 H   0  0  0  0  0  0
  -27.2300  -37.1453   25.8875 H   0  0  0  0  0  0
  -20.9356  -29.8962   21.7171 H   0  0  0  0  0  0
  -26.0185  -38.2876   24.1419 H   0  0  0  0  0  0
  -34.2216  -18.8043   20.6980 H   0  0  0  0  0  0
  -33.0027  -20.0412   20.4549 H   0  0  0  0  0  0
  -33.1093  -18.6883   19.3294 H   0  0  0  0  0  0
  -24.6825  -20.4230   21.4219 H   0  0  0  0  0  0
  -25.4761  -21.1774   20.0397 H   0  0  0  0  0  0
  -26.4342  -20.6021   21.4119 H   0  0  0  0  0  0
  -32.5077  -17.1189   21.1651 H   0  0  0  0  0  0
  -32.3201  -18.4514   22.3027 H   0  0  0  0  0  0
  -28.1613  -21.3223   18.7521 H   0  0  0  0  0  0
  -29.8567  -21.5468   18.9018 H   0  0  0  0  0  0
  -26.7899  -17.9718   18.6081 H   0  0  0  0  0  0
  -26.9119  -19.6710   18.4315 H   0  0  0  0  0  0
  -24.8003  -18.8339   19.5371 H   0  0  0  0  0  0
  -25.7347  -18.2268   20.8767 H   0  0  0  0  0  0
  -29.5155  -22.6043   21.1792 H   0  0  0  0  0  0
  -27.7985  -22.3858   20.9983 H   0  0  0  0  0  0
  -27.9145  -23.8964   18.8952 H   0  0  0  0  0  0
  -29.5727  -24.2223   19.2842 H   0  0  0  0  0  0
  -29.8046  -16.5446   23.4505 H   0  0  0  0  0  0
  -29.9188  -14.8205   23.3538 H   0  0  0  0  0  0
  -28.7048  -25.1507   21.5634 H   0  0  0  0  0  0
  -27.1088  -25.0175   20.9302 H   0  0  0  0  0  0
  -28.9058  -15.5030   21.4331 H   0  0  0  0  0  0
  -32.2518  -14.9868   22.8889 H   0  0  0  0  0  0
  -31.8629  -15.7355   24.2677 H   0  0  0  0  0  0
  -32.2031  -16.6181   22.9508 H   0  0  0  0  0  0
  1 25  1  0  0  0
  1 30  2  0  0  0
  1 85  1  0  0  0
  2  3  1  0  0  0
  2 25  1  0  0  0
  2 89  1  0  0  0
  2 90  1  0  0  0
  3  4  1  0  0  0
  3 91  1  0  0  0
  3 92  1  0  0  0
  4  5  1  0  0  0
  4 93  1  0  0  0
  4 94  1  0  0  0
  5  6  1  0  0  0
  5 26  1  0  0  0
  5 95  1  0  0  0
  6 25  1  0  0  0
  6 96  1  0  0  0
  6 97  1  0  0  0
  7  8  2  0  0  0
  7 26  1  0  0  0
  7 29  1  0  0  0
  8  9  1  0  0  0
  8 22  1  0  0  0
  9 10  1  0  0  0
  9 27  2  0  0  0
 10 11  2  0  0  0
 10 15  1  0  0  0
 11 12  1  0  0  0
 11 98  1  0  0  0
 12 13  2  0  0  0
 12 99  1  0  0  0
 13 14  1  0  0  0
 13 31  1  0  0  0
 14 15  2  0  0  0
 14100  1  0  0  0
 15101  1  0  0  0
 16 17  2  0  0  0
 16 21  1  0  0  0
 16 31  1  0  0  0
 17 18  1  0  0  0
 17102  1  0  0  0
 18 19  2  0  0  0
 18103  1  0  0  0
 19 20  1  0  0  0
 19 24  1  0  0  0
 20 21  2  0  0  0
 20104  1  0  0  0
 21 23  1  0  0  0
 22 28  1  0  0  0
 22 32  2  0  0  0
 26 27  1  0  0  0
 28105  1  0  0  0
 28106  1  0  0  0
 29107  1  0  0  0
 29108  1  0  0  0
 33 34  1  0  0  0
 33 66  1  0  0  0
 33 70  2  0  0  0
 34 36  1  0  0  0
 34 59  1  0  0  0
 34109  1  0  0  0
 35 44  2  0  0  0
 35 45  1  0  0  0
 35 68  1  0  0  0
 36 56  1  0  0  0
 36110  1  0  0  0
 37 39  1  0  0  0
 37 47  1  0  0  0
 37 66  1  0  0  0
 37111  1  0  0  0
 38 43  2  0  0  0
 38 46  1  0  0  0
 38 47  1  0  0  0
 39 64  1  0  0  0
 39 67  2  0  0  0
 40 52  1  0  0  0
 40 53  2  0  0  0
 40 58  1  0  0  0
 41112  1  0  0  0
 41113  1  0  0  0
 41114  1  0  0  0
 41 48  1  0  0  0
 42 43  1  0  0  0
 42 66  1  0  0  0
 42115  1  0  0  0
 42116  1  0  0  0
 43 44  1  0  0  0
 44117  1  0  0  0
 45 46  2  0  0  0
 45118  1  0  0  0
 46119  1  0  0  0
 47120  1  0  0  0
 47121  1  0  0  0
 48 56  1  0  0  0
 48 65  1  0  0  0
 48122  1  0  0  0
 49 50  1  0  0  0
 49 53  1  0  0  0
 49 64  1  0  0  0
 49123  1  0  0  0
 50 51  1  0  0  0
 50124  1  0  0  0
 50125  1  0  0  0
 51 52  1  0  0  0
 51126  1  0  0  0
 51127  1  0  0  0
 52128  1  0  0  0
 52129  1  0  0  0
 53 54  1  0  0  0
 54 55  2  0  0  0
 54130  1  0  0  0
 55 57  1  0  0  0
 55131  1  0  0  0
 56 69  2  0  0  0
 57 58  2  0  0  0
 57132  1  0  0  0
 58133  1  0  0  0
 59 60  1  0  0  0
 59 61  1  0  0  0
 59 62  1  0  0  0
 60134  1  0  0  0
 60135  1  0  0  0
 60136  1  0  0  0
 61137  1  0  0  0
 61138  1  0  0  0
 61139  1  0  0  0
 62140  1  0  0  0
 62141  1  0  0  0
 62142  1  0  0  0
 63 65  1  0  0  0
 63143  1  0  0  0
 63144  1  0  0  0
 63145  1  0  0  0
 64146  1  0  0  0
 65147  1  0  0  0
 68 84  1  0  0  0
 71 72  2  0  0  0
 71 78  1  0  0  0
 71 86  1  0  0  0
 72 79  1  0  0  0
 72 87  1  0  0  0
 73 74  1  0  0  0
 73 77  1  0  0  0
 73 86  2  0  0  0
 74 85  1  0  0  0
 74 87  2  0  0  0
 75 77  1  0  0  0
 75148  1  0  0  0
 75149  1  0  0  0
 75150  1  0  0  0
 76 80  1  0  0  0
 76151  1  0  0  0
 76152  1  0  0  0
 76153  1  0  0  0
 77154  1  0  0  0
 77155  1  0  0  0
 78 81  1  0  0  0
 78156  1  0  0  0
 78157  1  0  0  0
 79 80  1  0  0  0
 79158  1  0  0  0
 79159  1  0  0  0
 80160  1  0  0  0
 80161  1  0  0  0
 81 82  1  0  0  0
 81162  1  0  0  0
 81163  1  0  0  0
 82 84  1  0  0  0
 82164  1  0  0  0
 82165  1  0  0  0
 83 88  1  0  0  0
 83166  1  0  0  0
 83167  1  0  0  0
 83 85  1  0  0  0
 84168  1  0  0  0
 84169  1  0  0  0
 85170  1  0  0  0
 88171  1  0  0  0
 88172  1  0  0  0
 88173  1  0  0  0
M  CHG  1  88   1
M  ISO  4   1 100  68 101  84 101  85 100
M  END
> <chiral flag>
0

> <version>
0

> <s_m_source_file>
/data/baiqing/PycharmProjects/Reinvent-master-3.2/result/LINK_invent/BTK/process_docking_weight1_custom_sum_contain_oxygen_bond_distance_aromatic_linkinvent_7_9_3/rearranged_h_0068.sdf

> <i_m_source_file_index>
3

> <r_mmod_Potential_Energy-OPLS-2005>
-91.818489074707

> <r_mmod_Stretch_Energy-OPLS-2005>
78.7484970092773

> <r_mmod_Bend_Energy-OPLS-2005>
161.430282592773

> <r_mmod_Torsional_Energy-OPLS-2005>
192.949081420898

> <r_mmod_Improper_Torsional_Energy-OPLS-2005>
3.97023630142212

> <r_mmod_Van_der_Waal_Energy-OPLS-2005>
137.433380126953

> <r_mmod_Electrostatic_Energy-OPLS-2005>
-220.399398803711

> <r_mmod_Solvation_Energy-OPLS-2005>
-477.355804443359

> <b_mmod_Minimization_Converged-OPLS-2005>
0

> <r_mmod_RMS_Derivative-OPLS-2005>
4.46881437301636

$$$$
3
                    3D
 Structure written by MMmdl.
156164  0  0  1  0            999 V2000
  -30.5641  -14.8199   20.5854 C   0  0  0  0  0  0
  -30.4686  -12.5513   19.4669 C   0  0  0  0  0  0
  -29.5442  -12.5796   18.2292 C   0  0  0  0  0  0
  -28.0708  -12.3380   18.6154 C   0  0  0  0  0  0
  -27.6559  -13.1934   19.8444 C   0  0  2  0  0  0
  -28.7002  -13.0506   20.9770 C   0  0  0  0  0  0
  -25.2573  -13.8031   20.5489 C   0  0  0  0  0  0
  -24.1849  -13.0350   20.9117 C   0  0  0  0  0  0
  -24.6425  -11.6837   20.8706 C   0  0  0  0  0  0
  -23.9087  -10.4271   21.0461 C   0  0  0  0  0  0
  -24.3650   -9.4205   21.9236 C   0  0  0  0  0  0
  -23.6325   -8.2244   22.0777 C   0  0  0  0  0  0
  -22.4299   -8.0310   21.3561 C   0  0  0  0  0  0
  -21.9949   -9.0288   20.4634 C   0  0  0  0  0  0
  -22.7300  -10.2155   20.3070 C   0  0  0  0  0  0
  -21.6854   -6.0741   22.5312 C   0  0  0  0  0  0
  -21.4016   -6.5622   23.8259 C   0  0  0  0  0  0
  -21.3697   -5.6764   24.9212 C   0  0  0  0  0  0
  -21.6071   -4.3032   24.7233 C   0  0  0  0  0  0
  -21.8795   -3.8132   23.4338 C   0  0  0  0  0  0
  -21.9179   -4.6964   22.3411 C   0  0  0  0  0  0
  -22.7914  -13.5281   21.1727 C   0  0  0  0  0  0
  -22.1638   -4.2169   21.0987 F   0  0  0  0  0  0
  -21.5674   -3.4511   25.7736 F   0  0  0  0  0  0
  -29.9796  -13.5588   20.4534 N   0  0  0  0  0  0
  -26.2995  -12.9181   20.3100 N   0  0  0  0  0  0
  -25.9329  -11.6358   20.5570 N   0  0  0  0  0  0
  -22.0465  -12.8409   22.0306 N   0  0  0  0  0  0
  -25.4085  -15.1730   20.3793 N   0  0  0  0  0  0
  -31.6961  -14.9418   20.0972 O   0  0  0  0  0  0
  -21.6647   -6.8916   21.4291 O   0  0  0  0  0  0
  -22.3679  -14.5585   20.6532 O   0  0  0  0  0  0
  -24.6241  -31.8614   23.2076 C   0  0  0  0  0  0
  -25.9099  -32.4813   23.8392 C   0  0  1  0  0  0
  -27.2313  -27.3203   20.1296 C   0  0  0  0  0  0
  -25.5953  -33.8620   24.2345 N   0  0  0  0  0  0
  -23.4155  -30.4842   21.5515 C   0  0  2  0  0  0
  -24.8653  -28.9377   20.1106 C   0  0  0  0  0  0
  -22.7466  -29.4600   22.4972 C   0  0  0  0  0  0
  -18.0282  -28.1347   22.8519 C   0  0  0  0  0  0
  -24.1466  -36.7306   23.2632 C   0  0  0  0  0  0
  -25.9521  -30.7989   21.3688 C   0  0  0  0  0  0
  -26.0328  -29.4208   20.7185 C   0  0  0  0  0  0
  -27.2187  -28.6263   20.7121 C   0  0  0  0  0  0
  -26.0459  -26.8884   19.4958 C   0  0  0  0  0  0
  -24.8757  -27.6779   19.4866 C   0  0  0  0  0  0
  -23.6318  -29.8234   20.1632 C   0  0  0  0  0  0
  -25.4101  -36.3121   24.0333 C   0  0  1  0  0  0
  -20.5877  -28.3650   23.1326 C   0  0  2  0  0  0
  -20.6760  -26.9374   22.5439 C   0  0  0  0  0  0
  -19.5737  -26.6335   21.5246 C   0  0  0  0  0  0
  -18.1912  -26.7909   22.1635 C   0  0  0  0  0  0
  -19.1529  -28.8820   23.2913 C   0  0  0  0  0  0
  -18.9445  -30.1434   23.8907 C   0  0  0  0  0  0
  -17.6438  -30.6560   24.0560 C   0  0  0  0  0  0
  -25.9031  -34.9479   23.5120 C   0  0  0  0  0  0
  -16.5333  -29.9045   23.6340 C   0  0  0  0  0  0
  -16.7271  -28.6456   23.0384 C   0  0  0  0  0  0
  -26.4510  -31.6610   25.0752 C   0  0  0  0  0  0
  -25.3795  -31.3719   26.1513 C   0  0  0  0  0  0
  -27.0337  -30.3067   24.6122 C   0  0  0  0  0  0
  -27.6080  -32.4318   25.7545 C   0  0  0  0  0  0
  -27.5581  -37.1803   24.8472 C   0  0  0  0  0  0
  -21.4179  -29.3025   22.3743 N   0  0  0  0  0  0
  -26.4266  -37.3812   23.9435 N   0  0  0  0  0  0
  -24.6837  -31.0623   22.1023 N   0  0  0  0  0  0
  -23.4199  -28.8125   23.3029 O   0  0  0  0  0  0
  -28.3633  -26.4892   20.1211 O   0  0  0  0  0  0
  -26.5552  -34.8936   22.4660 O   0  0  0  0  0  0
  -23.5414  -32.1406   23.7427 O   0  0  0  0  0  0
  -30.7038  -18.1052   19.4793 C   0  0  0  0  0  0
  -29.9870  -17.6143   20.6144 C   0  0  0  0  0  0
  -28.4872  -16.0049   21.8137 C   0  0  0  0  0  0
  -30.8243  -16.3293   22.5948 C   0  0  0  0  0  0
  -29.5219  -22.5324   20.5343 C   0  0  0  0  0  0
  -28.9794  -23.9033   19.8422 C   0  0  0  0  0  0
  -28.8621  -21.0903   20.2281 C   0  0  0  0  0  0
  -28.2697  -25.0984   20.6463 C   0  0  0  0  0  0
  -29.9495  -16.1700   21.3295 C   0  0  0  0  0  0
  -30.5004  -19.4001   19.2726 N   0  0  0  0  0  0
  -29.3600  -18.7021   21.0984 N   0  0  0  0  0  0
  -29.6554  -19.7797   20.2735 N   0  0  0  0  0  0
  -31.4986  -12.7472   19.1620 H   0  0  0  0  0  0
  -30.4832  -11.5494   19.8963 H   0  0  0  0  0  0
  -29.8691  -11.8307   17.5057 H   0  0  0  0  0  0
  -29.6329  -13.5468   17.7326 H   0  0  0  0  0  0
  -27.9544  -11.2743   18.8283 H   0  0  0  0  0  0
  -27.4328  -12.5512   17.7562 H   0  0  0  0  0  0
  -27.6597  -14.2161   19.4781 H   0  0  0  0  0  0
  -28.7899  -12.0004   21.2601 H   0  0  0  0  0  0
  -28.3895  -13.5090   21.9051 H   0  0  0  0  0  0
  -25.2838   -9.5689   22.4761 H   0  0  0  0  0  0
  -24.0048   -7.4649   22.7504 H   0  0  0  0  0  0
  -21.0883   -8.8858   19.8920 H   0  0  0  0  0  0
  -22.3876  -10.9697   19.6120 H   0  0  0  0  0  0
  -21.1991   -7.6121   23.9784 H   0  0  0  0  0  0
  -21.1561   -6.0463   25.9121 H   0  0  0  0  0  0
  -22.0520   -2.7590   23.2821 H   0  0  0  0  0  0
  -22.4004  -12.0202   22.4978 H   0  0  0  0  0  0
  -21.1013  -13.1472   22.2138 H   0  0  0  0  0  0
  -24.6286  -15.8098   20.5009 H   0  0  0  0  0  0
  -26.2513  -15.6354   20.0659 H   0  0  0  0  0  0
  -26.7165  -32.5490   23.1139 H   0  0  0  0  0  0
  -25.0295  -33.9802   25.0635 H   0  0  0  0  0  0
  -22.7073  -31.3043   21.4160 H   0  0  0  0  0  0
  -23.3753  -35.9616   23.3281 H   0  0  0  0  0  0
  -24.3583  -36.8949   22.2050 H   0  0  0  0  0  0
  -23.7156  -37.6487   23.6654 H   0  0  0  0  0  0
  -26.0590  -31.5585   20.5918 H   0  0  0  0  0  0
  -26.8397  -30.8688   21.9842 H   0  0  0  0  0  0
  -28.1141  -29.0057   21.1819 H   0  0  0  0  0  0
  -26.0246  -25.9298   19.0007 H   0  0  0  0  0  0
  -23.9835  -27.3153   18.9940 H   0  0  0  0  0  0
  -23.7577  -30.6089   19.4162 H   0  0  0  0  0  0
  -22.7467  -29.2634   19.8530 H   0  0  0  0  0  0
  -25.1255  -36.2001   25.0821 H   0  0  0  0  0  0
  -20.9969  -28.3182   24.1445 H   0  0  0  0  0  0
  -20.5683  -26.2233   23.3622 H   0  0  0  0  0  0
  -21.6624  -26.7405   22.1212 H   0  0  0  0  0  0
  -19.6884  -25.6247   21.1274 H   0  0  0  0  0  0
  -19.6682  -27.3144   20.6772 H   0  0  0  0  0  0
  -17.4202  -26.6722   21.4005 H   0  0  0  0  0  0
  -18.0254  -26.0030   22.8993 H   0  0  0  0  0  0
  -19.7916  -30.7269   24.2251 H   0  0  0  0  0  0
  -17.4983  -31.6259   24.5136 H   0  0  0  0  0  0
  -15.5335  -30.2925   23.7667 H   0  0  0  0  0  0
  -15.8675  -28.0755   22.7106 H   0  0  0  0  0  0
  -24.6005  -30.7008   25.7888 H   0  0  0  0  0  0
  -24.8947  -32.2869   26.4927 H   0  0  0  0  0  0
  -25.8182  -30.8955   27.0303 H   0  0  0  0  0  0
  -26.2876  -29.6839   24.1171 H   0  0  0  0  0  0
  -27.4136  -29.7285   25.4555 H   0  0  0  0  0  0
  -27.8714  -30.4420   23.9278 H   0  0  0  0  0  0
  -27.2727  -33.3648   26.2098 H   0  0  0  0  0  0
  -28.3943  -32.6814   25.0410 H   0  0  0  0  0  0
  -28.0705  -31.8457   26.5503 H   0  0  0  0  0  0
  -28.2566  -38.0119   24.7547 H   0  0  0  0  0  0
  -28.1073  -36.2645   24.6232 H   0  0  0  0  0  0
  -27.2316  -37.1415   25.8874 H   0  0  0  0  0  0
  -20.9318  -29.8817   21.7064 H   0  0  0  0  0  0
  -26.0160  -38.2896   24.1476 H   0  0  0  0  0  0
  -31.3563  -17.5462   18.8229 H   0  0  0  0  0  0
  -28.3806  -15.3707   22.6916 H   0  0  0  0  0  0
  -27.8542  -15.6602   21.0099 H   0  0  0  0  0  0
  -28.0304  -16.9384   22.1384 H   0  0  0  0  0  0
  -30.4379  -17.0948   23.2661 H   0  0  0  0  0  0
  -31.8405  -16.6169   22.3216 H   0  0  0  0  0  0
  -30.8893  -15.4073   23.1715 H   0  0  0  0  0  0
  -29.5615  -22.6815   21.6143 H   0  0  0  0  0  0
  -30.5673  -22.4468   20.2394 H   0  0  0  0  0  0
  -28.3790  -23.6679   18.9645 H   0  0  0  0  0  0
  -29.8714  -24.3743   19.4229 H   0  0  0  0  0  0
  -28.4287  -21.1381   19.2298 H   0  0  0  0  0  0
  -28.0057  -20.9640   20.8906 H   0  0  0  0  0  0
  -28.7305  -25.1463   21.6341 H   0  0  0  0  0  0
  -27.2313  -24.8308   20.8371 H   0  0  0  0  0  0
  1 25  1  0  0  0
  1 30  2  0  0  0
  1 79  1  0  0  0
  2  3  1  0  0  0
  2 25  1  0  0  0
  2 83  1  0  0  0
  2 84  1  0  0  0
  3  4  1  0  0  0
  3 85  1  0  0  0
  3 86  1  0  0  0
  4  5  1  0  0  0
  4 87  1  0  0  0
  4 88  1  0  0  0
  5  6  1  0  0  0
  5 26  1  0  0  0
  5 89  1  0  0  0
  6 25  1  0  0  0
  6 90  1  0  0  0
  6 91  1  0  0  0
  7  8  2  0  0  0
  7 26  1  0  0  0
  7 29  1  0  0  0
  8  9  1  0  0  0
  8 22  1  0  0  0
  9 10  1  0  0  0
  9 27  2  0  0  0
 10 11  2  0  0  0
 10 15  1  0  0  0
 11 12  1  0  0  0
 11 92  1  0  0  0
 12 13  2  0  0  0
 12 93  1  0  0  0
 13 14  1  0  0  0
 13 31  1  0  0  0
 14 15  2  0  0  0
 14 94  1  0  0  0
 15 95  1  0  0  0
 16 17  2  0  0  0
 16 21  1  0  0  0
 16 31  1  0  0  0
 17 18  1  0  0  0
 17 96  1  0  0  0
 18 19  2  0  0  0
 18 97  1  0  0  0
 19 20  1  0  0  0
 19 24  1  0  0  0
 20 21  2  0  0  0
 20 98  1  0  0  0
 21 23  1  0  0  0
 22 28  1  0  0  0
 22 32  2  0  0  0
 26 27  1  0  0  0
 28 99  1  0  0  0
 28100  1  0  0  0
 29101  1  0  0  0
 29102  1  0  0  0
 33 34  1  0  0  0
 33 66  1  0  0  0
 33 70  2  0  0  0
 34 36  1  0  0  0
 34 59  1  0  0  0
 34103  1  0  0  0
 35 44  2  0  0  0
 35 45  1  0  0  0
 35 68  1  0  0  0
 36 56  1  0  0  0
 36104  1  0  0  0
 37 39  1  0  0  0
 37 47  1  0  0  0
 37 66  1  0  0  0
 37105  1  0  0  0
 38 43  2  0  0  0
 38 46  1  0  0  0
 38 47  1  0  0  0
 39 64  1  0  0  0
 39 67  2  0  0  0
 40 52  1  0  0  0
 40 53  2  0  0  0
 40 58  1  0  0  0
 41106  1  0  0  0
 41107  1  0  0  0
 41108  1  0  0  0
 41 48  1  0  0  0
 42 43  1  0  0  0
 42 66  1  0  0  0
 42109  1  0  0  0
 42110  1  0  0  0
 43 44  1  0  0  0
 44111  1  0  0  0
 45 46  2  0  0  0
 45112  1  0  0  0
 46113  1  0  0  0
 47114  1  0  0  0
 47115  1  0  0  0
 48 56  1  0  0  0
 48 65  1  0  0  0
 48116  1  0  0  0
 49 50  1  0  0  0
 49 53  1  0  0  0
 49 64  1  0  0  0
 49117  1  0  0  0
 50 51  1  0  0  0
 50118  1  0  0  0
 50119  1  0  0  0
 51 52  1  0  0  0
 51120  1  0  0  0
 51121  1  0  0  0
 52122  1  0  0  0
 52123  1  0  0  0
 53 54  1  0  0  0
 54 55  2  0  0  0
 54124  1  0  0  0
 55 57  1  0  0  0
 55125  1  0  0  0
 56 69  2  0  0  0
 57 58  2  0  0  0
 57126  1  0  0  0
 58127  1  0  0  0
 59 60  1  0  0  0
 59 61  1  0  0  0
 59 62  1  0  0  0
 60128  1  0  0  0
 60129  1  0  0  0
 60130  1  0  0  0
 61131  1  0  0  0
 61132  1  0  0  0
 61133  1  0  0  0
 62134  1  0  0  0
 62135  1  0  0  0
 62136  1  0  0  0
 63 65  1  0  0  0
 63137  1  0  0  0
 63138  1  0  0  0
 63139  1  0  0  0
 64140  1  0  0  0
 65141  1  0  0  0
 68 78  1  0  0  0
 71 72  1  0  0  0
 71 80  2  0  0  0
 71142  1  0  0  0
 72 79  1  0  0  0
 72 81  2  0  0  0
 73143  1  0  0  0
 73144  1  0  0  0
 73145  1  0  0  0
 73 79  1  0  0  0
 74 79  1  0  0  0
 74146  1  0  0  0
 74147  1  0  0  0
 74148  1  0  0  0
 75 76  1  0  0  0
 75 77  1  0  0  0
 75149  1  0  0  0
 75150  1  0  0  0
 76 78  1  0  0  0
 76151  1  0  0  0
 76152  1  0  0  0
 77 82  1  0  0  0
 77153  1  0  0  0
 77154  1  0  0  0
 78155  1  0  0  0
 78156  1  0  0  0
 80 82  1  0  0  0
 81 82  1  0  0  0
M  ISO  4   1 100  68 101  78 101  79 100
M  END
> <chiral flag>
0

> <version>
0

> <s_m_source_file>
/data/baiqing/PycharmProjects/Reinvent-master-3.2/result/LINK_invent/BTK/process_docking_weight1_custom_sum_contain_oxygen_bond_distance_aromatic_linkinvent_7_9_3/rearranged_h_0068.sdf

> <i_m_source_file_index>
4

> <r_mmod_Potential_Energy-OPLS-2005>
320.949951171875

> <r_mmod_Stretch_Energy-OPLS-2005>
140.333587646484

> <r_mmod_Bend_Energy-OPLS-2005>
222.278015136719

> <r_mmod_Torsional_Energy-OPLS-2005>
228.293411254883

> <r_mmod_Improper_Torsional_Energy-OPLS-2005>
4.57167482376099

> <r_mmod_Van_der_Waal_Energy-OPLS-2005>
132.191345214844

> <r_mmod_Electrostatic_Energy-OPLS-2005>
-297.192108154297

> <r_mmod_Solvation_Energy-OPLS-2005>
-191.525268554688

> <b_mmod_Minimization_Converged-OPLS-2005>
0

> <r_mmod_RMS_Derivative-OPLS-2005>
6.30058670043945

$$$$
4
                    3D
 Structure written by MMmdl.
180188  0  0  1  0            999 V2000
  -30.6815  -14.4793   20.6244 C   0  0  0  0  0  0
  -30.4389  -12.3340   19.4088 C   0  0  0  0  0  0
  -29.4923  -12.5324   18.2036 C   0  0  0  0  0  0
  -28.0063  -12.4060   18.6058 C   0  0  0  0  0  0
  -27.6637  -13.2034   19.8910 C   0  0  2  0  0  0
  -28.7098  -12.8728   20.9754 C   0  0  0  0  0  0
  -25.2576  -13.8138   20.5720 C   0  0  0  0  0  0
  -24.1790  -13.0410   20.9153 C   0  0  0  0  0  0
  -24.6354  -11.6892   20.8726 C   0  0  0  0  0  0
  -23.9007  -10.4288   21.0412 C   0  0  0  0  0  0
  -24.3566   -9.4217   21.9184 C   0  0  0  0  0  0
  -23.6291   -8.2231   22.0749 C   0  0  0  0  0  0
  -22.4277   -8.0249   21.3523 C   0  0  0  0  0  0
  -21.9877   -9.0229   20.4636 C   0  0  0  0  0  0
  -22.7186  -10.2132   20.3063 C   0  0  0  0  0  0
  -21.6850   -6.0696   22.5276 C   0  0  0  0  0  0
  -21.4026   -6.5611   23.8194 C   0  0  0  0  0  0
  -21.3666   -5.6772   24.9153 C   0  0  0  0  0  0
  -21.6059   -4.3039   24.7219 C   0  0  0  0  0  0
  -21.8837   -3.8114   23.4346 C   0  0  0  0  0  0
  -21.9203   -4.6932   22.3386 C   0  0  0  0  0  0
  -22.7843  -13.5269   21.1848 C   0  0  0  0  0  0
  -22.1678   -4.2131   21.0969 F   0  0  0  0  0  0
  -21.5627   -3.4512   25.7715 F   0  0  0  0  0  0
  -30.0244  -13.2859   20.4558 N   0  0  0  0  0  0
  -26.3009  -12.9300   20.3454 N   0  0  0  0  0  0
  -25.9278  -11.6463   20.5742 N   0  0  0  0  0  0
  -22.0490  -12.8239   22.0420 N   0  0  0  0  0  0
  -25.4276  -15.1840   20.4132 N   0  0  0  0  0  0
  -31.8146  -14.6404   20.1574 O   0  0  0  0  0  0
  -21.6627   -6.8857   21.4234 O   0  0  0  0  0  0
  -22.3505  -14.5583   20.6736 O   0  0  0  0  0  0
  -24.6072  -31.8741   23.2168 C   0  0  0  0  0  0
  -25.8994  -32.4864   23.8433 C   0  0  1  0  0  0
  -27.2135  -27.4609   20.0886 C   0  0  0  0  0  0
  -25.5879  -33.8673   24.2354 N   0  0  0  0  0  0
  -23.3859  -30.5043   21.5604 C   0  0  2  0  0  0
  -24.8233  -28.9718   20.1190 C   0  0  0  0  0  0
  -22.7337  -29.4678   22.5024 C   0  0  0  0  0  0
  -18.0242  -28.1378   22.8517 C   0  0  0  0  0  0
  -24.1458  -36.7313   23.2640 C   0  0  0  0  0  0
  -25.9141  -30.8524   21.3574 C   0  0  0  0  0  0
  -25.9866  -29.4854   20.7064 C   0  0  0  0  0  0
  -27.1829  -28.7377   20.6883 C   0  0  0  0  0  0
  -26.0293  -26.9530   19.5067 C   0  0  0  0  0  0
  -24.8356  -27.6992   19.5221 C   0  0  0  0  0  0
  -23.5884  -29.8427   20.1725 C   0  0  0  0  0  0
  -25.4078  -36.3143   24.0355 C   0  0  1  0  0  0
  -20.5813  -28.3605   23.1367 C   0  0  2  0  0  0
  -20.6732  -26.9353   22.5432 C   0  0  0  0  0  0
  -19.5707  -26.6382   21.5223 C   0  0  0  0  0  0
  -18.1888  -26.7926   22.1638 C   0  0  0  0  0  0
  -19.1493  -28.8799   23.2951 C   0  0  0  0  0  0
  -18.9448  -30.1431   23.8924 C   0  0  0  0  0  0
  -17.6455  -30.6593   24.0551 C   0  0  0  0  0  0
  -25.9021  -34.9517   23.5154 C   0  0  0  0  0  0
  -16.5340  -29.9089   23.6336 C   0  0  0  0  0  0
  -16.7249  -28.6512   23.0361 C   0  0  0  0  0  0
  -26.4449  -31.6629   25.0727 C   0  0  0  0  0  0
  -25.3793  -31.3689   26.1515 C   0  0  0  0  0  0
  -27.0215  -30.3087   24.6003 C   0  0  0  0  0  0
  -27.6028  -32.4323   25.7490 C   0  0  0  0  0  0
  -27.5560  -37.1796   24.8476 C   0  0  0  0  0  0
  -21.4059  -29.3023   22.3793 N   0  0  0  0  0  0
  -26.4244  -37.3840   23.9449 N   0  0  0  0  0  0
  -24.6560  -31.0888   22.1064 N   0  0  0  0  0  0
  -23.4184  -28.8216   23.3017 O   0  0  0  0  0  0
  -28.3913  -26.7487   20.0951 O   0  0  0  0  0  0
  -26.5576  -34.8965   22.4722 O   0  0  0  0  0  0
  -23.5285  -32.1447   23.7602 O   0  0  0  0  0  0
  -30.2117  -20.1490   19.4068 C   0  0  0  0  0  0
  -30.1375  -21.5048   19.0077 C   0  0  0  0  0  0
  -31.2984  -20.0895   20.2338 C   0  0  0  0  0  0
  -33.4998  -21.9379   23.6757 C   0  0  0  0  0  0
  -31.3746  -23.0883   22.8322 C   0  0  0  0  0  0
  -34.2264  -21.0406   20.9751 C   0  0  0  0  0  0
  -33.3927  -23.3171   20.6509 C   0  0  0  0  0  0
  -28.9839  -15.6103   22.1229 C   0  0  0  0  0  0
  -29.0333  -22.1717   18.2393 C   0  0  0  0  0  0
  -31.8365  -18.9274   21.0213 C   0  0  0  0  0  0
  -28.1837  -23.0496   19.1792 C   0  0  0  0  0  0
  -30.8333  -17.8805   21.5319 C   0  0  0  0  0  0
  -28.4410  -24.5547   18.9931 C   0  0  0  0  0  0
  -30.2397  -16.9210   20.4746 C   0  0  0  0  0  0
  -28.2779  -25.3419   20.3038 C   0  0  0  0  0  0
  -32.4051  -21.9705   22.5903 C   0  0  0  0  0  0
  -32.9470  -21.9043   21.1138 C   0  0  0  0  0  0
  -31.1504  -22.2121   19.4706 N   0  0  0  0  0  0
  -31.8671  -21.3656   20.2544 N   0  0  0  0  0  0
  -29.9470  -15.5712   21.0136 N   0  0  0  0  0  0
  -31.4737  -12.4775   19.0888 H   0  0  0  0  0  0
  -30.3896  -11.3107   19.7869 H   0  0  0  0  0  0
  -29.7282  -11.8214   17.4112 H   0  0  0  0  0  0
  -29.6717  -13.5236   17.7849 H   0  0  0  0  0  0
  -27.7988  -11.3482   18.7724 H   0  0  0  0  0  0
  -27.3633  -12.7178   17.7813 H   0  0  0  0  0  0
  -27.7222  -14.2656   19.6480 H   0  0  0  0  0  0
  -28.7164  -11.7950   21.1460 H   0  0  0  0  0  0
  -28.4452  -13.2385   21.9580 H   0  0  0  0  0  0
  -25.2717   -9.5689   22.4738 H   0  0  0  0  0  0
  -24.0002   -7.4629   22.7490 H   0  0  0  0  0  0
  -21.0799   -8.8759   19.8962 H   0  0  0  0  0  0
  -22.3660  -10.9654   19.6171 H   0  0  0  0  0  0
  -21.2027   -7.6124   23.9686 H   0  0  0  0  0  0
  -21.1480   -6.0494   25.9055 H   0  0  0  0  0  0
  -22.0625   -2.7582   23.2829 H   0  0  0  0  0  0
  -22.4069  -11.9872   22.4751 H   0  0  0  0  0  0
  -21.1153  -13.1349   22.2702 H   0  0  0  0  0  0
  -24.6764  -15.8538   20.5320 H   0  0  0  0  0  0
  -26.2943  -15.6103   20.1107 H   0  0  0  0  0  0
  -26.7037  -32.5566   23.1185 H   0  0  0  0  0  0
  -25.0073  -33.9829   25.0508 H   0  0  0  0  0  0
  -22.6725  -31.3225   21.4350 H   0  0  0  0  0  0
  -23.3742  -35.9617   23.3314 H   0  0  0  0  0  0
  -24.3551  -36.8906   22.2050 H   0  0  0  0  0  0
  -23.7179  -37.6519   23.6633 H   0  0  0  0  0  0
  -26.0014  -31.6123   20.5778 H   0  0  0  0  0  0
  -26.8165  -30.9204   21.9573 H   0  0  0  0  0  0
  -28.0803  -29.1298   21.1489 H   0  0  0  0  0  0
  -26.0018  -25.9816   19.0385 H   0  0  0  0  0  0
  -23.9312  -27.2888   19.0925 H   0  0  0  0  0  0
  -23.7037  -30.6294   19.4262 H   0  0  0  0  0  0
  -22.7079  -29.2769   19.8648 H   0  0  0  0  0  0
  -25.1234  -36.2007   25.0841 H   0  0  0  0  0  0
  -20.9913  -28.3169   24.1475 H   0  0  0  0  0  0
  -20.5614  -26.2214   23.3617 H   0  0  0  0  0  0
  -21.6617  -26.7416   22.1234 H   0  0  0  0  0  0
  -19.6873  -25.6300   21.1228 H   0  0  0  0  0  0
  -19.6671  -27.3207   20.6778 H   0  0  0  0  0  0
  -17.4164  -26.6663   21.4045 H   0  0  0  0  0  0
  -18.0302  -26.0051   22.9026 H   0  0  0  0  0  0
  -19.7931  -30.7243   24.2290 H   0  0  0  0  0  0
  -17.5029  -31.6284   24.5150 H   0  0  0  0  0  0
  -15.5333  -30.3040   23.7663 H   0  0  0  0  0  0
  -15.8629  -28.0871   22.7066 H   0  0  0  0  0  0
  -24.5993  -30.6964   25.7928 H   0  0  0  0  0  0
  -24.8938  -32.2822   26.4986 H   0  0  0  0  0  0
  -25.8232  -30.8925   27.0266 H   0  0  0  0  0  0
  -26.2688  -29.6927   24.1068 H   0  0  0  0  0  0
  -27.4039  -29.7226   25.4366 H   0  0  0  0  0  0
  -27.8520  -30.4419   23.9058 H   0  0  0  0  0  0
  -27.2653  -33.3615   26.2087 H   0  0  0  0  0  0
  -28.3858  -32.6888   25.0350 H   0  0  0  0  0  0
  -28.0691  -31.8458   26.5409 H   0  0  0  0  0  0
  -28.2583  -38.0085   24.7549 H   0  0  0  0  0  0
  -28.1031  -36.2630   24.6248 H   0  0  0  0  0  0
  -27.2297  -37.1418   25.8879 H   0  0  0  0  0  0
  -20.9179  -29.8794   21.7081 H   0  0  0  0  0  0
  -26.0141  -38.2890   24.1555 H   0  0  0  0  0  0
  -29.5134  -19.3650   19.1580 H   0  0  0  0  0  0
  -33.0646  -22.0433   24.6709 H   0  0  0  0  0  0
  -34.2487  -22.7201   23.5380 H   0  0  0  0  0  0
  -34.0198  -20.9781   23.6794 H   0  0  0  0  0  0
  -30.8465  -22.9239   23.7703 H   0  0  0  0  0  0
  -30.6186  -23.1071   22.0453 H   0  0  0  0  0  0
  -31.8331  -24.0747   22.8736 H   0  0  0  0  0  0
  -35.0936  -21.5583   21.3898 H   0  0  0  0  0  0
  -34.4598  -20.8332   19.9308 H   0  0  0  0  0  0
  -34.1695  -20.0805   21.4792 H   0  0  0  0  0  0
  -34.1451  -23.7268   21.3226 H   0  0  0  0  0  0
  -32.5870  -24.0472   20.6276 H   0  0  0  0  0  0
  -33.8337  -23.2912   19.6522 H   0  0  0  0  0  0
  -28.8975  -16.5884   22.5906 H   0  0  0  0  0  0
  -29.2786  -14.9255   22.9211 H   0  0  0  0  0  0
  -27.9790  -15.3693   21.7781 H   0  0  0  0  0  0
  -28.3963  -21.4179   17.7712 H   0  0  0  0  0  0
  -29.4374  -22.7551   17.4116 H   0  0  0  0  0  0
  -32.2901  -19.2919   21.9331 H   0  0  0  0  0  0
  -32.6437  -18.4593   20.4575 H   0  0  0  0  0  0
  -28.3623  -22.7668   20.2193 H   0  0  0  0  0  0
  -27.1249  -22.8339   19.0254 H   0  0  0  0  0  0
  -30.0413  -18.3845   22.0860 H   0  0  0  0  0  0
  -31.3651  -17.2876   22.2767 H   0  0  0  0  0  0
  -27.7682  -24.9233   18.2217 H   0  0  0  0  0  0
  -29.4513  -24.7224   18.6121 H   0  0  0  0  0  0
  -30.9192  -16.8818   19.6207 H   0  0  0  0  0  0
  -29.3091  -17.3266   20.0744 H   0  0  0  0  0  0
  -29.0624  -25.0621   21.0090 H   0  0  0  0  0  0
  -27.3457  -25.0742   20.8022 H   0  0  0  0  0  0
  -31.8019  -21.0906   22.7939 H   0  0  0  0  0  0
  1 25  1  0  0  0
  1 30  2  0  0  0
  1 90  1  0  0  0
  2  3  1  0  0  0
  2 25  1  0  0  0
  2 91  1  0  0  0
  2 92  1  0  0  0
  3  4  1  0  0  0
  3 93  1  0  0  0
  3 94  1  0  0  0
  4  5  1  0  0  0
  4 95  1  0  0  0
  4 96  1  0  0  0
  5  6  1  0  0  0
  5 26  1  0  0  0
  5 97  1  0  0  0
  6 25  1  0  0  0
  6 98  1  0  0  0
  6 99  1  0  0  0
  7  8  2  0  0  0
  7 26  1  0  0  0
  7 29  1  0  0  0
  8  9  1  0  0  0
  8 22  1  0  0  0
  9 10  1  0  0  0
  9 27  2  0  0  0
 10 11  2  0  0  0
 10 15  1  0  0  0
 11 12  1  0  0  0
 11100  1  0  0  0
 12 13  2  0  0  0
 12101  1  0  0  0
 13 14  1  0  0  0
 13 31  1  0  0  0
 14 15  2  0  0  0
 14102  1  0  0  0
 15103  1  0  0  0
 16 17  2  0  0  0
 16 21  1  0  0  0
 16 31  1  0  0  0
 17 18  1  0  0  0
 17104  1  0  0  0
 18 19  2  0  0  0
 18105  1  0  0  0
 19 20  1  0  0  0
 19 24  1  0  0  0
 20 21  2  0  0  0
 20106  1  0  0  0
 21 23  1  0  0  0
 22 28  1  0  0  0
 22 32  2  0  0  0
 26 27  1  0  0  0
 28107  1  0  0  0
 28108  1  0  0  0
 29109  1  0  0  0
 29110  1  0  0  0
 33 34  1  0  0  0
 33 66  1  0  0  0
 33 70  2  0  0  0
 34 36  1  0  0  0
 34 59  1  0  0  0
 34111  1  0  0  0
 35 44  2  0  0  0
 35 45  1  0  0  0
 35 68  1  0  0  0
 36 56  1  0  0  0
 36112  1  0  0  0
 37 39  1  0  0  0
 37 47  1  0  0  0
 37 66  1  0  0  0
 37113  1  0  0  0
 38 43  2  0  0  0
 38 46  1  0  0  0
 38 47  1  0  0  0
 39 64  1  0  0  0
 39 67  2  0  0  0
 40 52  1  0  0  0
 40 53  2  0  0  0
 40 58  1  0  0  0
 41114  1  0  0  0
 41115  1  0  0  0
 41116  1  0  0  0
 41 48  1  0  0  0
 42 43  1  0  0  0
 42 66  1  0  0  0
 42117  1  0  0  0
 42118  1  0  0  0
 43 44  1  0  0  0
 44119  1  0  0  0
 45 46  2  0  0  0
 45120  1  0  0  0
 46121  1  0  0  0
 47122  1  0  0  0
 47123  1  0  0  0
 48 56  1  0  0  0
 48 65  1  0  0  0
 48124  1  0  0  0
 49 50  1  0  0  0
 49 53  1  0  0  0
 49 64  1  0  0  0
 49125  1  0  0  0
 50 51  1  0  0  0
 50126  1  0  0  0
 50127  1  0  0  0
 51 52  1  0  0  0
 51128  1  0  0  0
 51129  1  0  0  0
 52130  1  0  0  0
 52131  1  0  0  0
 53 54  1  0  0  0
 54 55  2  0  0  0
 54132  1  0  0  0
 55 57  1  0  0  0
 55133  1  0  0  0
 56 69  2  0  0  0
 57 58  2  0  0  0
 57134  1  0  0  0
 58135  1  0  0  0
 59 60  1  0  0  0
 59 61  1  0  0  0
 59 62  1  0  0  0
 60136  1  0  0  0
 60137  1  0  0  0
 60138  1  0  0  0
 61139  1  0  0  0
 61140  1  0  0  0
 61141  1  0  0  0
 62142  1  0  0  0
 62143  1  0  0  0
 62144  1  0  0  0
 63 65  1  0  0  0
 63145  1  0  0  0
 63146  1  0  0  0
 63147  1  0  0  0
 64148  1  0  0  0
 65149  1  0  0  0
 68 85  1  0  0  0
 71 72  1  0  0  0
 71 73  2  0  0  0
 71150  1  0  0  0
 72 79  1  0  0  0
 72 88  2  0  0  0
 73 80  1  0  0  0
 73 89  1  0  0  0
 74151  1  0  0  0
 74152  1  0  0  0
 74153  1  0  0  0
 74 86  1  0  0  0
 75 86  1  0  0  0
 75154  1  0  0  0
 75155  1  0  0  0
 75156  1  0  0  0
 76157  1  0  0  0
 76158  1  0  0  0
 76159  1  0  0  0
 76 87  1  0  0  0
 77 87  1  0  0  0
 77160  1  0  0  0
 77161  1  0  0  0
 77162  1  0  0  0
 78 90  1  0  0  0
 78163  1  0  0  0
 78164  1  0  0  0
 78165  1  0  0  0
 79 81  1  0  0  0
 79166  1  0  0  0
 79167  1  0  0  0
 80 82  1  0  0  0
 80168  1  0  0  0
 80169  1  0  0  0
 81 83  1  0  0  0
 81170  1  0  0  0
 81171  1  0  0  0
 82 84  1  0  0  0
 82172  1  0  0  0
 82173  1  0  0  0
 83 85  1  0  0  0
 83174  1  0  0  0
 83175  1  0  0  0
 84 90  1  0  0  0
 84176  1  0  0  0
 84177  1  0  0  0
 85178  1  0  0  0
 85179  1  0  0  0
 86 87  1  0  0  0
 86180  1  0  0  0
 87 89  1  0  0  0
 88 89  1  0  0  0
M  ISO  4   1 100  68 101  85 101  90 100
M  END
> <chiral flag>
0

> <version>
0

> <s_m_source_file>
/data/baiqing/PycharmProjects/Reinvent-master-3.2/result/LINK_invent/BTK/process_docking_weight1_custom_sum_contain_oxygen_bond_distance_aromatic_linkinvent_7_9_3/rearranged_h_0068.sdf

> <i_m_source_file_index>
5

> <r_mmod_Potential_Energy-OPLS-2005>
177.217864990234

> <r_mmod_Stretch_Energy-OPLS-2005>
43.5618515014648

> <r_mmod_Bend_Energy-OPLS-2005>
130.793441772461

> <r_mmod_Torsional_Energy-OPLS-2005>
337.738006591797

> <r_mmod_Improper_Torsional_Energy-OPLS-2005>
9.39193058013916

> <r_mmod_Van_der_Waal_Energy-OPLS-2005>
166.918853759766

> <r_mmod_Electrostatic_Energy-OPLS-2005>
-332.430023193359

> <r_mmod_Solvation_Energy-OPLS-2005>
-192.483200073242

> <b_mmod_Minimization_Converged-OPLS-2005>
0

> <r_mmod_RMS_Derivative-OPLS-2005>
6.89801645278931

$$$$
5
                    3D
 Structure written by MMmdl.
160168  0  0  1  0            999 V2000
  -30.6407  -14.6341   20.4834 C   0  0  0  0  0  0
  -30.4495  -12.3857   19.4439 C   0  0  0  0  0  0
  -29.5092  -12.4862   18.2188 C   0  0  0  0  0  0
  -28.0248  -12.3279   18.6217 C   0  0  0  0  0  0
  -27.6489  -13.1695   19.8673 C   0  0  2  0  0  0
  -28.7163  -12.9893   20.9766 C   0  0  0  0  0  0
  -25.2514  -13.8008   20.5609 C   0  0  0  0  0  0
  -24.1777  -13.0325   20.9196 C   0  0  0  0  0  0
  -24.6324  -11.6791   20.8788 C   0  0  0  0  0  0
  -23.8998  -10.4208   21.0462 C   0  0  0  0  0  0
  -24.3562   -9.4125   21.9227 C   0  0  0  0  0  0
  -23.6237   -8.2167   22.0764 C   0  0  0  0  0  0
  -22.4224   -8.0233   21.3547 C   0  0  0  0  0  0
  -21.9857   -9.0214   20.4660 C   0  0  0  0  0  0
  -22.7191  -10.2084   20.3084 C   0  0  0  0  0  0
  -21.6821   -6.0704   22.5280 C   0  0  0  0  0  0
  -21.4002   -6.5613   23.8216 C   0  0  0  0  0  0
  -21.3658   -5.6772   24.9178 C   0  0  0  0  0  0
  -21.6041   -4.3043   24.7231 C   0  0  0  0  0  0
  -21.8820   -3.8123   23.4354 C   0  0  0  0  0  0
  -21.9170   -4.6931   22.3402 C   0  0  0  0  0  0
  -22.7816  -13.5180   21.1880 C   0  0  0  0  0  0
  -22.1652   -4.2119   21.0984 F   0  0  0  0  0  0
  -21.5624   -3.4529   25.7748 F   0  0  0  0  0  0
  -30.0179  -13.4031   20.4273 N   0  0  0  0  0  0
  -26.2944  -12.9095   20.3376 N   0  0  0  0  0  0
  -25.9246  -11.6304   20.5828 N   0  0  0  0  0  0
  -22.0463  -12.8207   22.0464 N   0  0  0  0  0  0
  -25.4091  -15.1731   20.3882 N   0  0  0  0  0  0
  -31.8412  -14.6865   20.1991 O   0  0  0  0  0  0
  -21.6588   -6.8838   21.4239 O   0  0  0  0  0  0
  -22.3519  -14.5498   20.6725 O   0  0  0  0  0  0
  -24.6200  -31.8638   23.2081 C   0  0  0  0  0  0
  -25.9082  -32.4789   23.8388 C   0  0  1  0  0  0
  -27.2405  -27.3947   20.1004 C   0  0  0  0  0  0
  -25.5921  -33.8590   24.2319 N   0  0  0  0  0  0
  -23.4098  -30.4866   21.5496 C   0  0  2  0  0  0
  -24.8567  -28.9471   20.1150 C   0  0  0  0  0  0
  -22.7431  -29.4642   22.4989 C   0  0  0  0  0  0
  -18.0282  -28.1372   22.8479 C   0  0  0  0  0  0
  -24.1483  -36.7303   23.2638 C   0  0  0  0  0  0
  -25.9426  -30.8159   21.3688 C   0  0  0  0  0  0
  -26.0191  -29.4487   20.7124 C   0  0  0  0  0  0
  -27.2135  -28.6836   20.6942 C   0  0  0  0  0  0
  -26.0534  -26.9193   19.4941 C   0  0  0  0  0  0
  -24.8702  -27.6838   19.5001 C   0  0  0  0  0  0
  -23.6197  -29.8184   20.1658 C   0  0  0  0  0  0
  -25.4107  -36.3088   24.0335 C   0  0  1  0  0  0
  -20.5875  -28.3669   23.1298 C   0  0  2  0  0  0
  -20.6778  -26.9403   22.5398 C   0  0  0  0  0  0
  -19.5744  -26.6386   21.5204 C   0  0  0  0  0  0
  -18.1930  -26.7913   22.1630 C   0  0  0  0  0  0
  -19.1530  -28.8838   23.2885 C   0  0  0  0  0  0
  -18.9457  -30.1442   23.8910 C   0  0  0  0  0  0
  -17.6458  -30.6573   24.0578 C   0  0  0  0  0  0
  -25.9036  -34.9450   23.5123 C   0  0  0  0  0  0
  -16.5353  -29.9076   23.6321 C   0  0  0  0  0  0
  -16.7272  -28.6483   23.0344 C   0  0  0  0  0  0
  -26.4489  -31.6577   25.0726 C   0  0  0  0  0  0
  -25.3737  -31.3692   26.1458 C   0  0  0  0  0  0
  -27.0339  -30.3008   24.6136 C   0  0  0  0  0  0
  -27.6056  -32.4306   25.7490 C   0  0  0  0  0  0
  -27.5578  -37.1810   24.8468 C   0  0  0  0  0  0
  -21.4153  -29.3050   22.3739 N   0  0  0  0  0  0
  -26.4292  -37.3776   23.9411 N   0  0  0  0  0  0
  -24.6758  -31.0719   22.0986 N   0  0  0  0  0  0
  -23.4173  -28.8190   23.3053 O   0  0  0  0  0  0
  -28.4087  -26.6394   20.1160 O   0  0  0  0  0  0
  -26.5595  -34.8915   22.4677 O   0  0  0  0  0  0
  -23.5388  -32.1411   23.7459 O   0  0  0  0  0  0
  -32.0171  -18.9053   20.4764 C   0  0  0  0  0  0
  -30.1922  -18.4422   21.5527 C   0  0  0  0  0  0
  -31.0210  -19.5047   21.2961 C   0  0  0  0  0  0
  -29.3232  -16.3129   19.1196 C   0  0  0  0  0  0
  -28.6477  -16.0085   21.5524 C   0  0  0  0  0  0
  -30.9189  -20.9358   21.8313 C   0  0  0  0  0  0
  -30.8223  -22.1059   20.7933 C   0  0  0  0  0  0
  -29.4782  -22.9094   20.7342 C   0  0  0  0  0  0
  -29.6181  -24.4290   20.3698 C   0  0  0  0  0  0
  -28.2778  -25.1932   20.1371 C   0  0  0  0  0  0
  -29.8427  -16.0368   20.5569 C   0  0  0  0  0  0
  -31.7740  -17.6215   20.2161 N   0  0  0  0  0  0
  -30.6259  -17.2942   20.8732 N   0  0  0  0  0  0
  -31.4874  -12.5139   19.1343 H   0  0  0  0  0  0
  -30.4033  -11.3856   19.8794 H   0  0  0  0  0  0
  -29.7740  -11.7248   17.4853 H   0  0  0  0  0  0
  -29.6567  -13.4455   17.7226 H   0  0  0  0  0  0
  -27.8489  -11.2714   18.8233 H   0  0  0  0  0  0
  -27.3768  -12.5877   17.7831 H   0  0  0  0  0  0
  -27.6328  -14.1915   19.5253 H   0  0  0  0  0  0
  -28.7555  -11.9364   21.2597 H   0  0  0  0  0  0
  -28.4849  -13.4819   21.9168 H   0  0  0  0  0  0
  -25.2713   -9.5583   22.4791 H   0  0  0  0  0  0
  -23.9928   -7.4521   22.7461 H   0  0  0  0  0  0
  -21.0784   -8.8738   19.8955 H   0  0  0  0  0  0
  -22.3677  -10.9617   19.6172 H   0  0  0  0  0  0
  -21.2022   -7.6128   23.9720 H   0  0  0  0  0  0
  -21.1488   -6.0509   25.9081 H   0  0  0  0  0  0
  -22.0607   -2.7584   23.2860 H   0  0  0  0  0  0
  -22.4032  -11.9851   22.4840 H   0  0  0  0  0  0
  -21.1107  -13.1279   22.2723 H   0  0  0  0  0  0
  -24.6318  -15.8164   20.4960 H   0  0  0  0  0  0
  -26.2589  -15.6289   20.0811 H   0  0  0  0  0  0
  -26.7143  -32.5484   23.1147 H   0  0  0  0  0  0
  -25.0114  -33.9745   25.0495 H   0  0  0  0  0  0
  -22.6999  -31.3051   21.4108 H   0  0  0  0  0  0
  -23.3734  -35.9649   23.3315 H   0  0  0  0  0  0
  -24.3578  -36.8900   22.2048 H   0  0  0  0  0  0
  -23.7242  -37.6514   23.6643 H   0  0  0  0  0  0
  -26.0664  -31.5807   20.6008 H   0  0  0  0  0  0
  -26.8266  -30.8631   21.9930 H   0  0  0  0  0  0
  -28.1091  -29.0706   21.1587 H   0  0  0  0  0  0
  -26.0216  -25.9584   19.0027 H   0  0  0  0  0  0
  -23.9795  -27.2967   19.0243 H   0  0  0  0  0  0
  -23.7285  -30.5932   19.4065 H   0  0  0  0  0  0
  -22.7421  -29.2399   19.8704 H   0  0  0  0  0  0
  -25.1283  -36.1954   25.0828 H   0  0  0  0  0  0
  -20.9955  -28.3234   24.1426 H   0  0  0  0  0  0
  -20.5660  -26.2281   23.3588 H   0  0  0  0  0  0
  -21.6648  -26.7439   22.1205 H   0  0  0  0  0  0
  -19.6914  -25.6296   21.1220 H   0  0  0  0  0  0
  -19.6669  -27.3205   20.6740 H   0  0  0  0  0  0
  -17.4201  -26.6637   21.4043 H   0  0  0  0  0  0
  -18.0370  -26.0061   22.9037 H   0  0  0  0  0  0
  -19.7935  -30.7248   24.2283 H   0  0  0  0  0  0
  -17.5013  -31.6245   24.5184 H   0  0  0  0  0  0
  -15.5344  -30.2990   23.7631 H   0  0  0  0  0  0
  -15.8673  -28.0811   22.7058 H   0  0  0  0  0  0
  -24.5925  -30.7026   25.7790 H   0  0  0  0  0  0
  -24.8922  -32.2845   26.4895 H   0  0  0  0  0  0
  -25.8079  -30.8869   27.0221 H   0  0  0  0  0  0
  -26.2901  -29.6766   24.1161 H   0  0  0  0  0  0
  -27.4056  -29.7249   25.4623 H   0  0  0  0  0  0
  -27.8757  -30.4319   23.9341 H   0  0  0  0  0  0
  -27.2670  -33.3597   26.2095 H   0  0  0  0  0  0
  -28.3851  -32.6889   25.0308 H   0  0  0  0  0  0
  -28.0753  -31.8424   26.5385 H   0  0  0  0  0  0
  -28.2607  -38.0098   24.7504 H   0  0  0  0  0  0
  -28.1065  -36.2624   24.6303 H   0  0  0  0  0  0
  -27.2306  -37.1477   25.8877 H   0  0  0  0  0  0
  -20.9328  -29.8786   21.6965 H   0  0  0  0  0  0
  -26.0175  -38.2861   24.1376 H   0  0  0  0  0  0
  -32.8973  -19.3665   20.0492 H   0  0  0  0  0  0
  -29.2942  -18.4688   22.1491 H   0  0  0  0  0  0
  -28.9400  -15.4408   18.6047 H   0  0  0  0  0  0
  -28.5479  -17.0788   19.1108 H   0  0  0  0  0  0
  -30.1270  -16.6656   18.4732 H   0  0  0  0  0  0
  -28.9669  -15.7807   22.5701 H   0  0  0  0  0  0
  -27.8580  -15.3308   21.2874 H   0  0  0  0  0  0
  -28.0872  -16.9390   21.5661 H   0  0  0  0  0  0
  -31.8041  -21.1286   22.4412 H   0  0  0  0  0  0
  -30.0983  -21.0218   22.5436 H   0  0  0  0  0  0
  -31.1212  -21.7686   19.7991 H   0  0  0  0  0  0
  -31.5908  -22.8236   21.0828 H   0  0  0  0  0  0
  -28.9773  -22.8525   21.7005 H   0  0  0  0  0  0
  -28.8064  -22.4192   20.0276 H   0  0  0  0  0  0
  -30.1619  -24.9224   21.1765 H   0  0  0  0  0  0
  -30.2364  -24.5364   19.4785 H   0  0  0  0  0  0
  -27.5739  -24.9155   20.9233 H   0  0  0  0  0  0
  -27.8561  -24.8417   19.1955 H   0  0  0  0  0  0
  1 25  1  0  0  0
  1 30  2  0  0  0
  1 81  1  0  0  0
  2  3  1  0  0  0
  2 25  1  0  0  0
  2 84  1  0  0  0
  2 85  1  0  0  0
  3  4  1  0  0  0
  3 86  1  0  0  0
  3 87  1  0  0  0
  4  5  1  0  0  0
  4 88  1  0  0  0
  4 89  1  0  0  0
  5  6  1  0  0  0
  5 26  1  0  0  0
  5 90  1  0  0  0
  6 25  1  0  0  0
  6 91  1  0  0  0
  6 92  1  0  0  0
  7  8  2  0  0  0
  7 26  1  0  0  0
  7 29  1  0  0  0
  8  9  1  0  0  0
  8 22  1  0  0  0
  9 10  1  0  0  0
  9 27  2  0  0  0
 10 11  2  0  0  0
 10 15  1  0  0  0
 11 12  1  0  0  0
 11 93  1  0  0  0
 12 13  2  0  0  0
 12 94  1  0  0  0
 13 14  1  0  0  0
 13 31  1  0  0  0
 14 15  2  0  0  0
 14 95  1  0  0  0
 15 96  1  0  0  0
 16 17  2  0  0  0
 16 21  1  0  0  0
 16 31  1  0  0  0
 17 18  1  0  0  0
 17 97  1  0  0  0
 18 19  2  0  0  0
 18 98  1  0  0  0
 19 20  1  0  0  0
 19 24  1  0  0  0
 20 21  2  0  0  0
 20 99  1  0  0  0
 21 23  1  0  0  0
 22 28  1  0  0  0
 22 32  2  0  0  0
 26 27  1  0  0  0
 28100  1  0  0  0
 28101  1  0  0  0
 29102  1  0  0  0
 29103  1  0  0  0
 33 34  1  0  0  0
 33 66  1  0  0  0
 33 70  2  0  0  0
 34 36  1  0  0  0
 34 59  1  0  0  0
 34104  1  0  0  0
 35 44  2  0  0  0
 35 45  1  0  0  0
 35 68  1  0  0  0
 36 56  1  0  0  0
 36105  1  0  0  0
 37 39  1  0  0  0
 37 47  1  0  0  0
 37 66  1  0  0  0
 37106  1  0  0  0
 38 43  2  0  0  0
 38 46  1  0  0  0
 38 47  1  0  0  0
 39 64  1  0  0  0
 39 67  2  0  0  0
 40 52  1  0  0  0
 40 53  2  0  0  0
 40 58  1  0  0  0
 41107  1  0  0  0
 41108  1  0  0  0
 41109  1  0  0  0
 41 48  1  0  0  0
 42 43  1  0  0  0
 42 66  1  0  0  0
 42110  1  0  0  0
 42111  1  0  0  0
 43 44  1  0  0  0
 44112  1  0  0  0
 45 46  2  0  0  0
 45113  1  0  0  0
 46114  1  0  0  0
 47115  1  0  0  0
 47116  1  0  0  0
 48 56  1  0  0  0
 48 65  1  0  0  0
 48117  1  0  0  0
 49 50  1  0  0  0
 49 53  1  0  0  0
 49 64  1  0  0  0
 49118  1  0  0  0
 50 51  1  0  0  0
 50119  1  0  0  0
 50120  1  0  0  0
 51 52  1  0  0  0
 51121  1  0  0  0
 51122  1  0  0  0
 52123  1  0  0  0
 52124  1  0  0  0
 53 54  1  0  0  0
 54 55  2  0  0  0
 54125  1  0  0  0
 55 57  1  0  0  0
 55126  1  0  0  0
 56 69  2  0  0  0
 57 58  2  0  0  0
 57127  1  0  0  0
 58128  1  0  0  0
 59 60  1  0  0  0
 59 61  1  0  0  0
 59 62  1  0  0  0
 60129  1  0  0  0
 60130  1  0  0  0
 60131  1  0  0  0
 61132  1  0  0  0
 61133  1  0  0  0
 61134  1  0  0  0
 62135  1  0  0  0
 62136  1  0  0  0
 62137  1  0  0  0
 63 65  1  0  0  0
 63138  1  0  0  0
 63139  1  0  0  0
 63140  1  0  0  0
 64141  1  0  0  0
 65142  1  0  0  0
 68 80  1  0  0  0
 71 73  1  0  0  0
 71 82  2  0  0  0
 71143  1  0  0  0
 72 73  2  0  0  0
 72 83  1  0  0  0
 72144  1  0  0  0
 73 76  1  0  0  0
 74145  1  0  0  0
 74146  1  0  0  0
 74147  1  0  0  0
 74 81  1  0  0  0
 75 81  1  0  0  0
 75148  1  0  0  0
 75149  1  0  0  0
 75150  1  0  0  0
 76 77  1  0  0  0
 76151  1  0  0  0
 76152  1  0  0  0
 77 78  1  0  0  0
 77153  1  0  0  0
 77154  1  0  0  0
 78 79  1  0  0  0
 78155  1  0  0  0
 78156  1  0  0  0
 79 80  1  0  0  0
 79157  1  0  0  0
 79158  1  0  0  0
 80159  1  0  0  0
 80160  1  0  0  0
 81 83  1  0  0  0
 82 83  1  0  0  0
M  ISO  4   1 100  68 101  80 101  81 100
M  END
> <chiral flag>
0

> <version>
0

> <s_m_source_file>
/data/baiqing/PycharmProjects/Reinvent-master-3.2/result/LINK_invent/BTK/process_docking_weight1_custom_sum_contain_oxygen_bond_distance_aromatic_linkinvent_7_9_3/rearranged_h_0068.sdf

> <i_m_source_file_index>
6

> <r_mmod_Potential_Energy-OPLS-2005>
214.066055297852

> <r_mmod_Stretch_Energy-OPLS-2005>
66.9485626220703

> <r_mmod_Bend_Energy-OPLS-2005>
143.953918457031

> <r_mmod_Torsional_Energy-OPLS-2005>
259.609558105469

> <r_mmod_Improper_Torsional_Energy-OPLS-2005>
9.96934223175049

> <r_mmod_Van_der_Waal_Energy-OPLS-2005>
153.349609375

> <r_mmod_Electrostatic_Energy-OPLS-2005>
-239.294082641602

> <r_mmod_Solvation_Energy-OPLS-2005>
-214.634262084961

> <b_mmod_Minimization_Converged-OPLS-2005>
0

> <r_mmod_RMS_Derivative-OPLS-2005>
2.72136378288269

$$$$
7
                    3D
 Structure written by MMmdl.
188196  0  0  1  0            999 V2000
  -30.6343  -14.6851   20.5059 C   0  0  0  0  0  0
  -30.4632  -12.4281   19.4412 C   0  0  0  0  0  0
  -29.5082  -12.4772   18.2229 C   0  0  0  0  0  0
  -28.0288  -12.3106   18.6325 C   0  0  0  0  0  0
  -27.6487  -13.1523   19.8678 C   0  0  2  0  0  0
  -28.7206  -13.0095   20.9772 C   0  0  0  0  0  0
  -25.2469  -13.7845   20.5463 C   0  0  0  0  0  0
  -24.1773  -13.0280   20.9223 C   0  0  0  0  0  0
  -24.6290  -11.6715   20.8855 C   0  0  0  0  0  0
  -23.8936  -10.4172   21.0502 C   0  0  0  0  0  0
  -24.3502   -9.4084   21.9271 C   0  0  0  0  0  0
  -23.6194   -8.2116   22.0804 C   0  0  0  0  0  0
  -22.4184   -8.0168   21.3566 C   0  0  0  0  0  0
  -21.9788   -9.0147   20.4671 C   0  0  0  0  0  0
  -22.7115  -10.2036   20.3121 C   0  0  0  0  0  0
  -21.6782   -6.0645   22.5277 C   0  0  0  0  0  0
  -21.3926   -6.5573   23.8184 C   0  0  0  0  0  0
  -21.3672   -5.6775   24.9196 C   0  0  0  0  0  0
  -21.6107   -4.3056   24.7308 C   0  0  0  0  0  0
  -21.8825   -3.8091   23.4428 C   0  0  0  0  0  0
  -21.9143   -4.6857   22.3437 C   0  0  0  0  0  0
  -22.7824  -13.5140   21.1936 C   0  0  0  0  0  0
  -22.1651   -4.2028   21.1032 F   0  0  0  0  0  0
  -21.5672   -3.4549   25.7835 F   0  0  0  0  0  0
  -30.0267  -13.4384   20.4319 N   0  0  0  0  0  0
  -26.2930  -12.8959   20.3362 N   0  0  0  0  0  0
  -25.9205  -11.6221   20.5953 N   0  0  0  0  0  0
  -22.0409  -12.8103   22.0424 N   0  0  0  0  0  0
  -25.4102  -15.1530   20.3433 N   0  0  0  0  0  0
  -31.8481  -14.7798   20.3077 O   0  0  0  0  0  0
  -21.6602   -6.8734   21.4219 O   0  0  0  0  0  0
  -22.3567  -14.5524   20.6831 O   0  0  0  0  0  0
  -24.6052  -31.8757   23.2075 C   0  0  0  0  0  0
  -25.8964  -32.4873   23.8378 C   0  0  1  0  0  0
  -27.2652  -27.4532   20.1106 C   0  0  0  0  0  0
  -25.5876  -33.8687   24.2325 N   0  0  0  0  0  0
  -23.3969  -30.4860   21.5524 C   0  0  2  0  0  0
  -24.8490  -28.9444   20.1259 C   0  0  0  0  0  0
  -22.7406  -29.4661   22.5069 C   0  0  0  0  0  0
  -18.0272  -28.1353   22.8511 C   0  0  0  0  0  0
  -24.1555  -36.7256   23.2632 C   0  0  0  0  0  0
  -25.9195  -30.8413   21.3635 C   0  0  0  0  0  0
  -26.0036  -29.4748   20.7145 C   0  0  0  0  0  0
  -27.2084  -28.7351   20.6994 C   0  0  0  0  0  0
  -26.0884  -26.9283   19.5281 C   0  0  0  0  0  0
  -24.8857  -27.6718   19.5285 C   0  0  0  0  0  0
  -23.6053  -29.8057   20.1727 C   0  0  0  0  0  0
  -25.4203  -36.3152   24.0324 C   0  0  1  0  0  0
  -20.5870  -28.3653   23.1388 C   0  0  2  0  0  0
  -20.6794  -26.9425   22.5441 C   0  0  0  0  0  0
  -19.5757  -26.6371   21.5247 C   0  0  0  0  0  0
  -18.1917  -26.7907   22.1647 C   0  0  0  0  0  0
  -19.1512  -28.8817   23.2930 C   0  0  0  0  0  0
  -18.9445  -30.1440   23.8909 C   0  0  0  0  0  0
  -17.6453  -30.6582   24.0560 C   0  0  0  0  0  0
  -25.9099  -34.9504   23.5140 C   0  0  0  0  0  0
  -16.5347  -29.9058   23.6347 C   0  0  0  0  0  0
  -16.7252  -28.6476   23.0362 C   0  0  0  0  0  0
  -26.4356  -31.6565   25.0653 C   0  0  0  0  0  0
  -25.3580  -31.3690   26.1365 C   0  0  0  0  0  0
  -27.0098  -30.2999   24.5909 C   0  0  0  0  0  0
  -27.5927  -32.4184   25.7487 C   0  0  0  0  0  0
  -27.5652  -37.1809   24.8484 C   0  0  0  0  0  0
  -21.4138  -29.3031   22.3801 N   0  0  0  0  0  0
  -26.4415  -37.3823   23.9368 N   0  0  0  0  0  0
  -24.6579  -31.0812   22.1039 N   0  0  0  0  0  0
  -23.4186  -28.8281   23.3144 O   0  0  0  0  0  0
  -28.4707  -26.7769   20.0968 O   0  0  0  0  0  0
  -26.5700  -34.8943   22.4718 O   0  0  0  0  0  0
  -23.5256  -32.1506   23.7488 O   0  0  0  0  0  0
  -30.3507  -19.7189   20.4676 C   0  0  0  0  0  0
  -31.1958  -19.3261   21.4376 C   0  0  0  0  0  0
  -30.2681  -17.4811   20.4960 C   0  0  0  0  0  0
  -28.5842  -16.0617   21.3119 C   0  0  0  0  0  0
  -29.5695  -15.9259   18.7343 C   0  0  0  0  0  0
  -31.7725  -21.5733   24.4006 C   0  0  0  0  0  0
  -29.6770  -21.1967   23.2125 C   0  0  0  0  0  0
  -32.3361  -22.9677   21.0866 C   0  0  0  0  0  0
  -31.8031  -24.0958   23.2102 C   0  0  0  0  0  0
  -28.8366  -19.6813   17.9072 C   0  0  0  0  0  0
  -27.5238  -19.9363   20.0819 C   0  0  0  0  0  0
  -27.3831  -17.8780   18.8024 C   0  0  0  0  0  0
  -31.9744  -20.2766   22.3113 C   0  0  0  0  0  0
  -29.8951  -24.9245   20.8578 C   0  0  0  0  0  0
  -29.9309  -23.5436   21.6087 C   0  0  0  0  0  0
  -28.4685  -25.3908   20.4587 C   0  0  0  0  0  0
  -29.7592  -16.0233   20.2860 C   0  0  0  0  0  0
  -31.1802  -21.5297   22.9612 C   0  0  0  0  0  0
  -31.2976  -22.9971   22.2292 C   0  0  0  0  0  0
  -28.3951  -18.9746   19.2144 C   0  0  0  0  0  0
  -29.6489  -18.6356   20.0314 N   0  0  0  0  0  0
  -31.2000  -17.9397   21.3769 N   0  3  0  0  0  0
  -31.4882  -12.5999   19.1127 H   0  0  0  0  0  0
  -30.4554  -11.4289   19.8754 H   0  0  0  0  0  0
  -29.7677  -11.6991   17.5068 H   0  0  0  0  0  0
  -29.6340  -13.4108   17.6844 H   0  0  0  0  0  0
  -27.8498  -11.2599   18.8450 H   0  0  0  0  0  0
  -27.3828  -12.5768   17.7969 H   0  0  0  0  0  0
  -27.6187  -14.1575   19.4952 H   0  0  0  0  0  0
  -28.7628  -11.9568   21.2719 H   0  0  0  0  0  0
  -28.4711  -13.5217   21.9037 H   0  0  0  0  0  0
  -25.2651   -9.5547   22.4867 H   0  0  0  0  0  0
  -23.9920   -7.4448   22.7442 H   0  0  0  0  0  0
  -21.0762   -8.8686   19.8905 H   0  0  0  0  0  0
  -22.3609  -10.9624   19.6274 H   0  0  0  0  0  0
  -21.1874   -7.6084   23.9619 H   0  0  0  0  0  0
  -21.1532   -6.0572   25.9081 H   0  0  0  0  0  0
  -22.0587   -2.7534   23.3030 H   0  0  0  0  0  0
  -22.3985  -11.9676   22.4703 H   0  0  0  0  0  0
  -21.1111  -13.1140   22.2920 H   0  0  0  0  0  0
  -24.6515  -15.8226   20.4109 H   0  0  0  0  0  0
  -26.2410  -15.5211   19.9030 H   0  0  0  0  0  0
  -26.7064  -32.5606   23.1171 H   0  0  0  0  0  0
  -24.9920  -33.9864   25.0384 H   0  0  0  0  0  0
  -22.6825  -31.2991   21.4127 H   0  0  0  0  0  0
  -23.3919  -35.9501   23.3376 H   0  0  0  0  0  0
  -24.3629  -36.8800   22.2036 H   0  0  0  0  0  0
  -23.7195  -37.6423   23.6605 H   0  0  0  0  0  0
  -26.0261  -31.6104   20.5953 H   0  0  0  0  0  0
  -26.8096  -30.9077   21.9766 H   0  0  0  0  0  0
  -28.0977  -29.1445   21.1564 H   0  0  0  0  0  0
  -26.0983  -25.9533   19.0597 H   0  0  0  0  0  0
  -23.9936  -27.2641   19.0685 H   0  0  0  0  0  0
  -23.7025  -30.5813   19.4109 H   0  0  0  0  0  0
  -22.7341  -29.2163   19.8783 H   0  0  0  0  0  0
  -25.1411  -36.2079   25.0838 H   0  0  0  0  0  0
  -20.9925  -28.3198   24.1523 H   0  0  0  0  0  0
  -20.5793  -26.2254   23.3612 H   0  0  0  0  0  0
  -21.6648  -26.7521   22.1184 H   0  0  0  0  0  0
  -19.6945  -25.6273   21.1243 H   0  0  0  0  0  0
  -19.6677  -27.3202   20.6795 H   0  0  0  0  0  0
  -17.4220  -26.6684   21.4021 H   0  0  0  0  0  0
  -18.0310  -26.0006   22.8992 H   0  0  0  0  0  0
  -19.7923  -30.7254   24.2271 H   0  0  0  0  0  0
  -17.5002  -31.6264   24.5164 H   0  0  0  0  0  0
  -15.5342  -30.2974   23.7640 H   0  0  0  0  0  0
  -15.8659  -28.0789   22.7088 H   0  0  0  0  0  0
  -24.5707  -30.7148   25.7573 H   0  0  0  0  0  0
  -24.8828  -32.2866   26.4869 H   0  0  0  0  0  0
  -25.7855  -30.8741   27.0089 H   0  0  0  0  0  0
  -26.2544  -29.6812   24.1036 H   0  0  0  0  0  0
  -27.4080  -29.7109   25.4189 H   0  0  0  0  0  0
  -27.8315  -30.4428   23.8924 H   0  0  0  0  0  0
  -27.2498  -33.3406   26.2192 H   0  0  0  0  0  0
  -28.3757  -32.6882   25.0389 H   0  0  0  0  0  0
  -28.0549  -31.8209   26.5359 H   0  0  0  0  0  0
  -28.2735  -38.0065   24.7615 H   0  0  0  0  0  0
  -28.1130  -36.2623   24.6329 H   0  0  0  0  0  0
  -27.2341  -37.1440   25.8881 H   0  0  0  0  0  0
  -20.9339  -29.8637   21.6900 H   0  0  0  0  0  0
  -26.0364  -38.2931   24.1341 H   0  0  0  0  0  0
  -30.1136  -20.7314   20.1814 H   0  0  0  0  0  0
  -28.0970  -17.0299   21.4107 H   0  0  0  0  0  0
  -28.9672  -15.8468   22.3096 H   0  0  0  0  0  0
  -27.7754  -15.3910   21.1275 H   0  0  0  0  0  0
  -28.6402  -15.4868   18.4039 H   0  0  0  0  0  0
  -30.3618  -15.3646   18.2375 H   0  0  0  0  0  0
  -29.7107  -16.8648   18.2102 H   0  0  0  0  0  0
  -31.5718  -20.6542   24.9551 H   0  0  0  0  0  0
  -31.3715  -22.3771   25.0177 H   0  0  0  0  0  0
  -32.8597  -21.6679   24.3709 H   0  0  0  0  0  0
  -29.0727  -21.2047   22.3105 H   0  0  0  0  0  0
  -29.2181  -21.9102   23.8941 H   0  0  0  0  0  0
  -29.5315  -20.2138   23.6579 H   0  0  0  0  0  0
  -31.9362  -22.4563   20.2128 H   0  0  0  0  0  0
  -33.2915  -22.5323   21.3795 H   0  0  0  0  0  0
  -32.6133  -23.9667   20.7533 H   0  0  0  0  0  0
  -32.0102  -25.0364   22.7049 H   0  0  0  0  0  0
  -32.7535  -23.8342   23.6822 H   0  0  0  0  0  0
  -31.0810  -24.3155   23.9989 H   0  0  0  0  0  0
  -27.9855  -19.8667   17.2519 H   0  0  0  0  0  0
  -29.5374  -19.0707   17.3353 H   0  0  0  0  0  0
  -29.3236  -20.6443   18.0769 H   0  0  0  0  0  0
  -26.6152  -20.2653   19.5789 H   0  0  0  0  0  0
  -28.0137  -20.8627   20.3652 H   0  0  0  0  0  0
  -27.2243  -19.4462   21.0135 H   0  0  0  0  0  0
  -27.6705  -17.3481   17.9017 H   0  0  0  0  0  0
  -26.4279  -18.3180   18.5132 H   0  0  0  0  0  0
  -27.1201  -17.1855   19.5886 H   0  0  0  0  0  0
  -32.8370  -20.5653   21.7238 H   0  0  0  0  0  0
  -32.4397  -19.6759   23.0918 H   0  0  0  0  0  0
  -30.4960  -24.8838   19.9539 H   0  0  0  0  0  0
  -30.3319  -25.7167   21.4657 H   0  0  0  0  0  0
  -29.5503  -22.8178   20.8950 H   0  0  0  0  0  0
  -29.1720  -23.6130   22.3937 H   0  0  0  0  0  0
  -27.8026  -25.2578   21.3105 H   0  0  0  0  0  0
  -28.0862  -24.7735   19.6373 H   0  0  0  0  0  0
  -31.8174  -17.3515   21.9334 H   0  0  0  0  0  0
  1 25  1  0  0  0
  1 30  2  0  0  0
  1 87  1  0  0  0
  2  3  1  0  0  0
  2 25  1  0  0  0
  2 93  1  0  0  0
  2 94  1  0  0  0
  3  4  1  0  0  0
  3 95  1  0  0  0
  3 96  1  0  0  0
  4  5  1  0  0  0
  4 97  1  0  0  0
  4 98  1  0  0  0
  5  6  1  0  0  0
  5 26  1  0  0  0
  5 99  1  0  0  0
  6 25  1  0  0  0
  6100  1  0  0  0
  6101  1  0  0  0
  7  8  2  0  0  0
  7 26  1  0  0  0
  7 29  1  0  0  0
  8  9  1  0  0  0
  8 22  1  0  0  0
  9 10  1  0  0  0
  9 27  2  0  0  0
 10 11  2  0  0  0
 10 15  1  0  0  0
 11 12  1  0  0  0
 11102  1  0  0  0
 12 13  2  0  0  0
 12103  1  0  0  0
 13 14  1  0  0  0
 13 31  1  0  0  0
 14 15  2  0  0  0
 14104  1  0  0  0
 15105  1  0  0  0
 16 17  2  0  0  0
 16 21  1  0  0  0
 16 31  1  0  0  0
 17 18  1  0  0  0
 17106  1  0  0  0
 18 19  2  0  0  0
 18107  1  0  0  0
 19 20  1  0  0  0
 19 24  1  0  0  0
 20 21  2  0  0  0
 20108  1  0  0  0
 21 23  1  0  0  0
 22 28  1  0  0  0
 22 32  2  0  0  0
 26 27  1  0  0  0
 28109  1  0  0  0
 28110  1  0  0  0
 29111  1  0  0  0
 29112  1  0  0  0
 33 34  1  0  0  0
 33 66  1  0  0  0
 33 70  2  0  0  0
 34 36  1  0  0  0
 34 59  1  0  0  0
 34113  1  0  0  0
 35 44  2  0  0  0
 35 45  1  0  0  0
 35 68  1  0  0  0
 36 56  1  0  0  0
 36114  1  0  0  0
 37 39  1  0  0  0
 37 47  1  0  0  0
 37 66  1  0  0  0
 37115  1  0  0  0
 38 43  2  0  0  0
 38 46  1  0  0  0
 38 47  1  0  0  0
 39 64  1  0  0  0
 39 67  2  0  0  0
 40 52  1  0  0  0
 40 53  2  0  0  0
 40 58  1  0  0  0
 41116  1  0  0  0
 41117  1  0  0  0
 41118  1  0  0  0
 41 48  1  0  0  0
 42 43  1  0  0  0
 42 66  1  0  0  0
 42119  1  0  0  0
 42120  1  0  0  0
 43 44  1  0  0  0
 44121  1  0  0  0
 45 46  2  0  0  0
 45122  1  0  0  0
 46123  1  0  0  0
 47124  1  0  0  0
 47125  1  0  0  0
 48 56  1  0  0  0
 48 65  1  0  0  0
 48126  1  0  0  0
 49 50  1  0  0  0
 49 53  1  0  0  0
 49 64  1  0  0  0
 49127  1  0  0  0
 50 51  1  0  0  0
 50128  1  0  0  0
 50129  1  0  0  0
 51 52  1  0  0  0
 51130  1  0  0  0
 51131  1  0  0  0
 52132  1  0  0  0
 52133  1  0  0  0
 53 54  1  0  0  0
 54 55  2  0  0  0
 54134  1  0  0  0
 55 57  1  0  0  0
 55135  1  0  0  0
 56 69  2  0  0  0
 57 58  2  0  0  0
 57136  1  0  0  0
 58137  1  0  0  0
 59 60  1  0  0  0
 59 61  1  0  0  0
 59 62  1  0  0  0
 60138  1  0  0  0
 60139  1  0  0  0
 60140  1  0  0  0
 61141  1  0  0  0
 61142  1  0  0  0
 61143  1  0  0  0
 62144  1  0  0  0
 62145  1  0  0  0
 62146  1  0  0  0
 63 65  1  0  0  0
 63147  1  0  0  0
 63148  1  0  0  0
 63149  1  0  0  0
 64150  1  0  0  0
 65151  1  0  0  0
 68 86  1  0  0  0
 71 72  2  0  0  0
 71 91  1  0  0  0
 71152  1  0  0  0
 72 83  1  0  0  0
 72 92  1  0  0  0
 73 87  1  0  0  0
 73 91  1  0  0  0
 73 92  2  0  0  0
 74153  1  0  0  0
 74154  1  0  0  0
 74155  1  0  0  0
 74 87  1  0  0  0
 75 87  1  0  0  0
 75156  1  0  0  0
 75157  1  0  0  0
 75158  1  0  0  0
 76159  1  0  0  0
 76160  1  0  0  0
 76161  1  0  0  0
 76 88  1  0  0  0
 77 88  1  0  0  0
 77162  1  0  0  0
 77163  1  0  0  0
 77164  1  0  0  0
 78165  1  0  0  0
 78166  1  0  0  0
 78167  1  0  0  0
 78 89  1  0  0  0
 79 89  1  0  0  0
 79168  1  0  0  0
 79169  1  0  0  0
 79170  1  0  0  0
 80171  1  0  0  0
 80172  1  0  0  0
 80173  1  0  0  0
 80 90  1  0  0  0
 81 90  1  0  0  0
 81174  1  0  0  0
 81175  1  0  0  0
 81176  1  0  0  0
 82 90  1  0  0  0
 82177  1  0  0  0
 82178  1  0  0  0
 82179  1  0  0  0
 83 88  1  0  0  0
 83180  1  0  0  0
 83181  1  0  0  0
 84 85  1  0  0  0
 84 86  1  0  0  0
 84182  1  0  0  0
 84183  1  0  0  0
 85 89  1  0  0  0
 85184  1  0  0  0
 85185  1  0  0  0
 86186  1  0  0  0
 86187  1  0  0  0
 88 89  1  0  0  0
 90 91  1  0  0  0
 92188  1  0  0  0
M  CHG  1  92   1
M  ISO  4   1 100  68 101  86 101  87 100
M  END
> <chiral flag>
0

> <version>
0

> <s_m_source_file>
/data/baiqing/PycharmProjects/Reinvent-master-3.2/result/LINK_invent/BTK/process_docking_weight1_custom_sum_contain_oxygen_bond_distance_aromatic_linkinvent_7_9_3/rearranged_h_0068.sdf

> <i_m_source_file_index>
7

> <r_mmod_Potential_Energy-OPLS-2005>
495.331848144531

> <r_mmod_Stretch_Energy-OPLS-2005>
112.425285339355

> <r_mmod_Bend_Energy-OPLS-2005>
296.007995605469

> <r_mmod_Torsional_Energy-OPLS-2005>
351.0078125

> <r_mmod_Improper_Torsional_Energy-OPLS-2005>
17.7444972991943

> <r_mmod_Van_der_Waal_Energy-OPLS-2005>
213.647094726562

> <r_mmod_Electrostatic_Energy-OPLS-2005>
-183.054260253906

> <r_mmod_Solvation_Energy-OPLS-2005>
-356.012054443359

> <b_mmod_Minimization_Converged-OPLS-2005>
0

> <r_mmod_RMS_Derivative-OPLS-2005>
9.83353614807129

$$$$
8
                    3D
 Structure written by MMmdl.
160168  0  0  1  0            999 V2000
  -30.5979  -14.7047   20.5641 C   0  0  0  0  0  0
  -30.4576  -12.4776   19.4397 C   0  0  0  0  0  0
  -29.4975  -12.5769   18.2276 C   0  0  0  0  0  0
  -28.0170  -12.4170   18.6361 C   0  0  0  0  0  0
  -27.6629  -13.2162   19.9127 C   0  0  2  0  0  0
  -28.7284  -12.9512   20.9995 C   0  0  0  0  0  0
  -25.2587  -13.8195   20.5769 C   0  0  0  0  0  0
  -24.1842  -13.0450   20.9247 C   0  0  0  0  0  0
  -24.6415  -11.6941   20.8824 C   0  0  0  0  0  0
  -23.9100  -10.4317   21.0499 C   0  0  0  0  0  0
  -24.3648   -9.4227   21.9253 C   0  0  0  0  0  0
  -23.6316   -8.2258   22.0784 C   0  0  0  0  0  0
  -22.4310   -8.0308   21.3554 C   0  0  0  0  0  0
  -21.9968   -9.0312   20.4677 C   0  0  0  0  0  0
  -22.7297  -10.2193   20.3137 C   0  0  0  0  0  0
  -21.6866   -6.0752   22.5270 C   0  0  0  0  0  0
  -21.4014   -6.5638   23.8208 C   0  0  0  0  0  0
  -21.3667   -5.6780   24.9160 C   0  0  0  0  0  0
  -21.6052   -4.3045   24.7208 C   0  0  0  0  0  0
  -21.8810   -3.8156   23.4318 C   0  0  0  0  0  0
  -21.9191   -4.6979   22.3390 C   0  0  0  0  0  0
  -22.7862  -13.5294   21.1802 C   0  0  0  0  0  0
  -22.1654   -4.2172   21.0965 F   0  0  0  0  0  0
  -21.5649   -3.4534   25.7721 F   0  0  0  0  0  0
  -30.0091  -13.4526   20.4623 N   0  0  0  0  0  0
  -26.3050  -12.9352   20.3621 N   0  0  0  0  0  0
  -25.9362  -11.6505   20.5915 N   0  0  0  0  0  0
  -22.0460  -12.8353   22.0397 N   0  0  0  0  0  0
  -25.4161  -15.1907   20.4056 N   0  0  0  0  0  0
  -31.7141  -14.8548   20.0511 O   0  0  0  0  0  0
  -21.6649   -6.8915   21.4248 O   0  0  0  0  0  0
  -22.3608  -14.5601   20.6624 O   0  0  0  0  0  0
  -24.6258  -31.8583   23.2035 C   0  0  0  0  0  0
  -25.9105  -32.4774   23.8347 C   0  0  1  0  0  0
  -27.2094  -27.2876   20.1224 C   0  0  0  0  0  0
  -25.5940  -33.8576   24.2267 N   0  0  0  0  0  0
  -23.4196  -30.4856   21.5464 C   0  0  2  0  0  0
  -24.8623  -28.9394   20.1090 C   0  0  0  0  0  0
  -22.7464  -29.4629   22.4929 C   0  0  0  0  0  0
  -18.0272  -28.1369   22.8509 C   0  0  0  0  0  0
  -24.1488  -36.7270   23.2642 C   0  0  0  0  0  0
  -25.9636  -30.7812   21.3784 C   0  0  0  0  0  0
  -26.0316  -29.4090   20.7157 C   0  0  0  0  0  0
  -27.2062  -28.5928   20.7133 C   0  0  0  0  0  0
  -26.0110  -26.8777   19.4912 C   0  0  0  0  0  0
  -24.8549  -27.6812   19.4877 C   0  0  0  0  0  0
  -23.6342  -29.8258   20.1588 C   0  0  0  0  0  0
  -25.4127  -36.3071   24.0319 C   0  0  1  0  0  0
  -20.5867  -28.3688   23.1277 C   0  0  2  0  0  0
  -20.6772  -26.9423   22.5368 C   0  0  0  0  0  0
  -19.5737  -26.6387   21.5183 C   0  0  0  0  0  0
  -18.1939  -26.7899   22.1674 C   0  0  0  0  0  0
  -19.1523  -28.8842   23.2897 C   0  0  0  0  0  0
  -18.9490  -30.1435   23.8931 C   0  0  0  0  0  0
  -17.6499  -30.6617   24.0588 C   0  0  0  0  0  0
  -25.9059  -34.9441   23.5085 C   0  0  0  0  0  0
  -16.5385  -29.9111   23.6363 C   0  0  0  0  0  0
  -16.7261  -28.6520   23.0365 C   0  0  0  0  0  0
  -26.4475  -31.6599   25.0723 C   0  0  0  0  0  0
  -25.3713  -31.3735   26.1447 C   0  0  0  0  0  0
  -27.0286  -30.3018   24.6201 C   0  0  0  0  0  0
  -27.6038  -32.4310   25.7494 C   0  0  0  0  0  0
  -27.5562  -37.1794   24.8459 C   0  0  0  0  0  0
  -21.4171  -29.3075   22.3683 N   0  0  0  0  0  0
  -26.4278  -37.3781   23.9413 N   0  0  0  0  0  0
  -24.6885  -31.0580   22.1001 N   0  0  0  0  0  0
  -23.4188  -28.8145   23.2984 O   0  0  0  0  0  0
  -28.3381  -26.4462   20.2077 O   0  0  0  0  0  0
  -26.5625  -34.8903   22.4641 O   0  0  0  0  0  0
  -23.5418  -32.1372   23.7369 O   0  0  0  0  0  0
  -29.2966  -18.9090   19.1949 C   0  0  0  0  0  0
  -29.4845  -18.5581   21.3055 C   0  0  0  0  0  0
  -29.0929  -19.5787   20.4526 C   0  0  0  0  0  0
  -28.7780  -15.7357   22.2157 C   0  0  0  0  0  0
  -28.6479  -21.1411   22.3922 C   0  0  0  0  0  0
  -26.9396  -20.8390   20.6085 C   0  0  0  0  0  0
  -28.4811  -23.7826   20.7106 C   0  0  0  0  0  0
  -28.9231  -22.3363   20.1268 C   0  0  0  0  0  0
  -28.3843  -25.0356   19.7134 C   0  0  0  0  0  0
  -29.9850  -16.0031   21.3057 C   0  0  2  0  0  0
  -28.4551  -20.9794   20.8638 C   0  0  0  0  0  0
  -29.6449  -17.6048   19.3084 N   0  0  0  0  0  0
  -29.7587  -17.3550   20.6387 N   0  0  0  0  0  0
  -30.4854  -11.4691   19.8531 H   0  0  0  0  0  0
  -31.4778  -12.6689   19.1027 H   0  0  0  0  0  0
  -29.7580  -11.8225   17.4882 H   0  0  0  0  0  0
  -29.6270  -13.5448   17.7392 H   0  0  0  0  0  0
  -27.8173  -11.3547   18.7915 H   0  0  0  0  0  0
  -27.3675  -12.7320   17.8175 H   0  0  0  0  0  0
  -27.7046  -14.2732   19.6514 H   0  0  0  0  0  0
  -28.4643  -13.3019   21.9897 H   0  0  0  0  0  0
  -28.7977  -11.8760   21.1735 H   0  0  0  0  0  0
  -25.2800   -9.5664   22.4827 H   0  0  0  0  0  0
  -24.0028   -7.4625   22.7483 H   0  0  0  0  0  0
  -21.0909   -8.8877   19.8948 H   0  0  0  0  0  0
  -22.3828  -10.9766   19.6262 H   0  0  0  0  0  0
  -21.2001   -7.6153   23.9728 H   0  0  0  0  0  0
  -21.1502   -6.0500   25.9062 H   0  0  0  0  0  0
  -22.0591   -2.7630   23.2800 H   0  0  0  0  0  0
  -22.4053  -12.0097   22.4935 H   0  0  0  0  0  0
  -21.1050  -13.1416   22.2416 H   0  0  0  0  0  0
  -24.6448  -15.8350   20.5461 H   0  0  0  0  0  0
  -26.2677  -15.6529   20.1105 H   0  0  0  0  0  0
  -26.7191  -32.5442   23.1100 H   0  0  0  0  0  0
  -25.0079  -33.9737   25.0405 H   0  0  0  0  0  0
  -22.7154  -31.3099   21.4081 H   0  0  0  0  0  0
  -23.3746  -35.9592   23.3302 H   0  0  0  0  0  0
  -24.3565  -36.8897   22.2050 H   0  0  0  0  0  0
  -23.7224  -37.6472   23.6662 H   0  0  0  0  0  0
  -26.1004  -31.5475   20.6131 H   0  0  0  0  0  0
  -26.8419  -30.8276   22.0083 H   0  0  0  0  0  0
  -28.1035  -28.9441   21.2026 H   0  0  0  0  0  0
  -25.9061  -25.9181   19.0137 H   0  0  0  0  0  0
  -23.9557  -27.3175   19.0085 H   0  0  0  0  0  0
  -23.7679  -30.6086   19.4104 H   0  0  0  0  0  0
  -22.7473  -29.2703   19.8463 H   0  0  0  0  0  0
  -25.1303  -36.1917   25.0810 H   0  0  0  0  0  0
  -20.9970  -28.3237   24.1400 H   0  0  0  0  0  0
  -20.5735  -26.2281   23.3525 H   0  0  0  0  0  0
  -21.6637  -26.7499   22.1128 H   0  0  0  0  0  0
  -19.6928  -25.6311   21.1206 H   0  0  0  0  0  0
  -19.6638  -27.3203   20.6713 H   0  0  0  0  0  0
  -17.4139  -26.6515   21.4179 H   0  0  0  0  0  0
  -18.0499  -26.0075   22.9147 H   0  0  0  0  0  0
  -19.7991  -30.7208   24.2331 H   0  0  0  0  0  0
  -17.5096  -31.6307   24.5174 H   0  0  0  0  0  0
  -15.5393  -30.3041   23.7711 H   0  0  0  0  0  0
  -15.8640  -28.0880   22.7098 H   0  0  0  0  0  0
  -24.5915  -30.7052   25.7782 H   0  0  0  0  0  0
  -24.8840  -32.2890   26.4826 H   0  0  0  0  0  0
  -25.8036  -30.8958   27.0261 H   0  0  0  0  0  0
  -26.2856  -29.6824   24.1175 H   0  0  0  0  0  0
  -27.3897  -29.7238   25.4725 H   0  0  0  0  0  0
  -27.8763  -30.4269   23.9456 H   0  0  0  0  0  0
  -27.2693  -33.3652   26.2016 H   0  0  0  0  0  0
  -28.3892  -32.6809   25.0343 H   0  0  0  0  0  0
  -28.0665  -31.8475   26.5468 H   0  0  0  0  0  0
  -28.2580  -38.0090   24.7499 H   0  0  0  0  0  0
  -28.1064  -36.2614   24.6307 H   0  0  0  0  0  0
  -27.2268  -37.1466   25.8860 H   0  0  0  0  0  0
  -20.9312  -29.8889   21.6993 H   0  0  0  0  0  0
  -26.0147  -38.2840   24.1462 H   0  0  0  0  0  0
  -29.1244  -19.2924   18.1962 H   0  0  0  0  0  0
  -29.4979  -18.5618   22.3846 H   0  0  0  0  0  0
  -27.9264  -15.4056   21.6309 H   0  0  0  0  0  0
  -29.0176  -15.0076   22.9857 H   0  0  0  0  0  0
  -28.4433  -16.6194   22.7539 H   0  0  0  0  0  0
  -28.2099  -22.0579   22.7816 H   0  0  0  0  0  0
  -29.7004  -21.1340   22.6759 H   0  0  0  0  0  0
  -28.1578  -20.3315   22.9363 H   0  0  0  0  0  0
  -26.5211  -19.9588   21.1024 H   0  0  0  0  0  0
  -26.7188  -20.7422   19.5452 H   0  0  0  0  0  0
  -26.3805  -21.6996   20.9722 H   0  0  0  0  0  0
  -29.1745  -24.0388   21.5141 H   0  0  0  0  0  0
  -27.5151  -23.6920   21.2047 H   0  0  0  0  0  0
  -30.0132  -22.3368   20.0652 H   0  0  0  0  0  0
  -28.5895  -22.2812   19.0900 H   0  0  0  0  0  0
  -27.5992  -24.8154   18.9950 H   0  0  0  0  0  0
  -29.2854  -25.0025   19.1020 H   0  0  0  0  0  0
  -30.7918  -16.2239   22.0066 H   0  0  0  0  0  0
  1 25  1  0  0  0
  1 30  2  0  0  0
  1 80  1  0  0  0
  2  3  1  0  0  0
  2 25  1  0  0  0
  2 84  1  0  0  0
  2 85  1  0  0  0
  3  4  1  0  0  0
  3 86  1  0  0  0
  3 87  1  0  0  0
  4  5  1  0  0  0
  4 88  1  0  0  0
  4 89  1  0  0  0
  5  6  1  0  0  0
  5 26  1  0  0  0
  5 90  1  0  0  0
  6 25  1  0  0  0
  6 91  1  0  0  0
  6 92  1  0  0  0
  7  8  2  0  0  0
  7 26  1  0  0  0
  7 29  1  0  0  0
  8  9  1  0  0  0
  8 22  1  0  0  0
  9 10  1  0  0  0
  9 27  2  0  0  0
 10 11  2  0  0  0
 10 15  1  0  0  0
 11 12  1  0  0  0
 11 93  1  0  0  0
 12 13  2  0  0  0
 12 94  1  0  0  0
 13 14  1  0  0  0
 13 31  1  0  0  0
 14 15  2  0  0  0
 14 95  1  0  0  0
 15 96  1  0  0  0
 16 17  2  0  0  0
 16 21  1  0  0  0
 16 31  1  0  0  0
 17 18  1  0  0  0
 17 97  1  0  0  0
 18 19  2  0  0  0
 18 98  1  0  0  0
 19 20  1  0  0  0
 19 24  1  0  0  0
 20 21  2  0  0  0
 20 99  1  0  0  0
 21 23  1  0  0  0
 22 28  1  0  0  0
 22 32  2  0  0  0
 26 27  1  0  0  0
 28100  1  0  0  0
 28101  1  0  0  0
 29102  1  0  0  0
 29103  1  0  0  0
 33 34  1  0  0  0
 33 66  1  0  0  0
 33 70  2  0  0  0
 34 36  1  0  0  0
 34 59  1  0  0  0
 34104  1  0  0  0
 35 44  2  0  0  0
 35 45  1  0  0  0
 35 68  1  0  0  0
 36 56  1  0  0  0
 36105  1  0  0  0
 37 39  1  0  0  0
 37 47  1  0  0  0
 37 66  1  0  0  0
 37106  1  0  0  0
 38 43  2  0  0  0
 38 46  1  0  0  0
 38 47  1  0  0  0
 39 64  1  0  0  0
 39 67  2  0  0  0
 40 52  1  0  0  0
 40 53  2  0  0  0
 40 58  1  0  0  0
 41107  1  0  0  0
 41108  1  0  0  0
 41109  1  0  0  0
 41 48  1  0  0  0
 42 43  1  0  0  0
 42 66  1  0  0  0
 42110  1  0  0  0
 42111  1  0  0  0
 43 44  1  0  0  0
 44112  1  0  0  0
 45 46  2  0  0  0
 45113  1  0  0  0
 46114  1  0  0  0
 47115  1  0  0  0
 47116  1  0  0  0
 48 56  1  0  0  0
 48 65  1  0  0  0
 48117  1  0  0  0
 49 50  1  0  0  0
 49 53  1  0  0  0
 49 64  1  0  0  0
 49118  1  0  0  0
 50 51  1  0  0  0
 50119  1  0  0  0
 50120  1  0  0  0
 51 52  1  0  0  0
 51121  1  0  0  0
 51122  1  0  0  0
 52123  1  0  0  0
 52124  1  0  0  0
 53 54  1  0  0  0
 54 55  2  0  0  0
 54125  1  0  0  0
 55 57  1  0  0  0
 55126  1  0  0  0
 56 69  2  0  0  0
 57 58  2  0  0  0
 57127  1  0  0  0
 58128  1  0  0  0
 59 60  1  0  0  0
 59 61  1  0  0  0
 59 62  1  0  0  0
 60129  1  0  0  0
 60130  1  0  0  0
 60131  1  0  0  0
 61132  1  0  0  0
 61133  1  0  0  0
 61134  1  0  0  0
 62135  1  0  0  0
 62136  1  0  0  0
 62137  1  0  0  0
 63 65  1  0  0  0
 63138  1  0  0  0
 63139  1  0  0  0
 63140  1  0  0  0
 64141  1  0  0  0
 65142  1  0  0  0
 68 79  1  0  0  0
 71 73  1  0  0  0
 71 82  2  0  0  0
 71143  1  0  0  0
 72 73  2  0  0  0
 72 83  1  0  0  0
 72144  1  0  0  0
 73 81  1  0  0  0
 74145  1  0  0  0
 74146  1  0  0  0
 74147  1  0  0  0
 74 80  1  0  0  0
 75148  1  0  0  0
 75149  1  0  0  0
 75150  1  0  0  0
 75 81  1  0  0  0
 76 81  1  0  0  0
 76151  1  0  0  0
 76152  1  0  0  0
 76153  1  0  0  0
 77 78  1  0  0  0
 77 79  1  0  0  0
 77154  1  0  0  0
 77155  1  0  0  0
 78 81  1  0  0  0
 78156  1  0  0  0
 78157  1  0  0  0
 79158  1  0  0  0
 79159  1  0  0  0
 80 83  1  0  0  0
 80160  1  0  0  0
 82 83  1  0  0  0
M  ISO  4   1 100  68 101  79 101  80 100
M  END
> <chiral flag>
0

> <version>
0

> <s_m_source_file>
/data/baiqing/PycharmProjects/Reinvent-master-3.2/result/LINK_invent/BTK/process_docking_weight1_custom_sum_contain_oxygen_bond_distance_aromatic_linkinvent_7_9_3/rearranged_h_0068.sdf

> <i_m_source_file_index>
8

> <r_mmod_Potential_Energy-OPLS-2005>
259.458099365234

> <r_mmod_Stretch_Energy-OPLS-2005>
113.089706420898

> <r_mmod_Bend_Energy-OPLS-2005>
220.896728515625

> <r_mmod_Torsional_Energy-OPLS-2005>
214.442047119141

> <r_mmod_Improper_Torsional_Energy-OPLS-2005>
3.37545824050903

> <r_mmod_Van_der_Waal_Energy-OPLS-2005>
137.62043762207

> <r_mmod_Electrostatic_Energy-OPLS-2005>
-289.913330078125

> <r_mmod_Solvation_Energy-OPLS-2005>
-203.319259643555

> <b_mmod_Minimization_Converged-OPLS-2005>
0

> <r_mmod_RMS_Derivative-OPLS-2005>
6.46560001373291

$$$$
9
                    3D
 Structure written by MMmdl.
184192  0  0  1  0            999 V2000
  -30.6482  -14.5400   20.5486 C   0  0  0  0  0  0
  -30.4431  -12.3454   19.4169 C   0  0  0  0  0  0
  -29.4998  -12.4963   18.2035 C   0  0  0  0  0  0
  -28.0231  -12.3404   18.6236 C   0  0  0  0  0  0
  -27.6593  -13.1979   19.8631 C   0  0  2  0  0  0
  -28.7063  -12.9994   20.9818 C   0  0  0  0  0  0
  -25.2619  -13.8139   20.5670 C   0  0  0  0  0  0
  -24.1864  -13.0438   20.9181 C   0  0  0  0  0  0
  -24.6402  -11.6901   20.8750 C   0  0  0  0  0  0
  -23.9060  -10.4294   21.0418 C   0  0  0  0  0  0
  -24.3615   -9.4212   21.9196 C   0  0  0  0  0  0
  -23.6297   -8.2248   22.0756 C   0  0  0  0  0  0
  -22.4278   -8.0283   21.3542 C   0  0  0  0  0  0
  -21.9920   -9.0256   20.4645 C   0  0  0  0  0  0
  -22.7243  -10.2139   20.3058 C   0  0  0  0  0  0
  -21.6850   -6.0744   22.5283 C   0  0  0  0  0  0
  -21.4013   -6.5644   23.8217 C   0  0  0  0  0  0
  -21.3659   -5.6794   24.9178 C   0  0  0  0  0  0
  -21.6039   -4.3053   24.7227 C   0  0  0  0  0  0
  -21.8821   -3.8154   23.4346 C   0  0  0  0  0  0
  -21.9195   -4.6975   22.3406 C   0  0  0  0  0  0
  -22.7887  -13.5239   21.1851 C   0  0  0  0  0  0
  -22.1664   -4.2162   21.0983 F   0  0  0  0  0  0
  -21.5627   -3.4537   25.7742 F   0  0  0  0  0  0
  -30.0282  -13.3337   20.4220 N   0  0  0  0  0  0
  -26.3023  -12.9283   20.3305 N   0  0  0  0  0  0
  -25.9318  -11.6452   20.5754 N   0  0  0  0  0  0
  -22.0522  -12.8227   22.0394 N   0  0  0  0  0  0
  -25.4358  -15.1857   20.4076 N   0  0  0  0  0  0
  -31.8078  -14.7406   20.1842 O   0  0  0  0  0  0
  -21.6633   -6.8885   21.4241 O   0  0  0  0  0  0
  -22.3591  -14.5560   20.6713 O   0  0  0  0  0  0
  -24.6182  -31.8666   23.2115 C   0  0  0  0  0  0
  -25.9045  -32.4809   23.8436 C   0  0  1  0  0  0
  -27.2168  -27.3834   20.1209 C   0  0  0  0  0  0
  -25.5918  -33.8616   24.2352 N   0  0  0  0  0  0
  -23.4088  -30.4921   21.5527 C   0  0  2  0  0  0
  -24.8548  -28.9595   20.1129 C   0  0  0  0  0  0
  -22.7427  -29.4643   22.4976 C   0  0  0  0  0  0
  -18.0277  -28.1337   22.8492 C   0  0  0  0  0  0
  -24.1483  -36.7306   23.2645 C   0  0  0  0  0  0
  -25.9456  -30.8148   21.3757 C   0  0  0  0  0  0
  -26.0177  -29.4484   20.7199 C   0  0  0  0  0  0
  -27.2050  -28.6719   20.7150 C   0  0  0  0  0  0
  -26.0412  -26.9342   19.4798 C   0  0  0  0  0  0
  -24.8654  -27.7044   19.4826 C   0  0  0  0  0  0
  -23.6200  -29.8335   20.1648 C   0  0  0  0  0  0
  -25.4101  -36.3094   24.0344 C   0  0  1  0  0  0
  -20.5873  -28.3653   23.1289 C   0  0  2  0  0  0
  -20.6772  -26.9374   22.5403 C   0  0  0  0  0  0
  -19.5752  -26.6345   21.5205 C   0  0  0  0  0  0
  -18.1929  -26.7892   22.1605 C   0  0  0  0  0  0
  -19.1524  -28.8816   23.2897 C   0  0  0  0  0  0
  -18.9449  -30.1413   23.8910 C   0  0  0  0  0  0
  -17.6463  -30.6561   24.0544 C   0  0  0  0  0  0
  -25.9032  -34.9450   23.5139 C   0  0  0  0  0  0
  -16.5350  -29.9053   23.6319 C   0  0  0  0  0  0
  -16.7263  -28.6458   23.0360 C   0  0  0  0  0  0
  -26.4445  -31.6604   25.0772 C   0  0  0  0  0  0
  -25.3685  -31.3685   26.1511 C   0  0  0  0  0  0
  -27.0290  -30.3059   24.6150 C   0  0  0  0  0  0
  -27.6028  -32.4349   25.7500 C   0  0  0  0  0  0
  -27.5574  -37.1803   24.8461 C   0  0  0  0  0  0
  -21.4158  -29.3028   22.3699 N   0  0  0  0  0  0
  -26.4289  -37.3773   23.9405 N   0  0  0  0  0  0
  -24.6748  -31.0729   22.1035 N   0  0  0  0  0  0
  -23.4187  -28.8161   23.3013 O   0  0  0  0  0  0
  -28.3540  -26.5880   20.1527 O   0  0  0  0  0  0
  -26.5552  -34.8876   22.4676 O   0  0  0  0  0  0
  -23.5368  -32.1451   23.7470 O   0  0  0  0  0  0
  -29.2503  -21.5056   21.4241 C   0  0  0  0  0  0
  -29.2805  -21.6734   20.0695 C   0  0  0  0  0  0
  -29.7890  -19.5027   20.5595 C   0  0  0  0  0  0
  -29.7527  -22.7531   17.8788 C   0  0  0  0  0  0
  -27.4456  -22.7191   18.8054 C   0  0  0  0  0  0
  -31.8272  -18.1526   20.0893 C   0  0  0  0  0  0
  -29.7025  -17.6101   18.8831 C   0  0  0  0  0  0
  -27.3795  -18.3578   25.0536 C   0  0  0  0  0  0
  -27.2979  -20.5858   26.1683 C   0  0  0  0  0  0
  -29.4478  -19.3067   26.1565 C   0  0  0  0  0  0
  -28.5581  -20.3688   24.0249 C   0  0  0  0  0  0
  -29.2731  -24.2735   19.8310 C   0  0  0  0  0  0
  -29.5624  -19.6497   23.0908 C   0  0  0  0  0  0
  -29.9633  -16.9577   21.3182 C   0  0  0  0  0  0
  -28.1761  -25.1771   20.4809 C   0  0  0  0  0  0
  -28.9318  -22.8657   19.1823 C   0  0  0  0  0  0
  -30.2961  -18.0605   20.2412 C   0  0  0  0  0  0
  -28.1871  -19.6415   25.3387 C   0  0  0  0  0  0
  -29.5328  -20.1824   21.7108 N   0  0  0  0  0  0
  -29.6279  -20.4267   19.5905 N   0  3  0  0  0  0
  -29.8155  -15.5273   20.9466 N   0  0  0  0  0  0
  -31.4816  -12.4826   19.1094 H   0  0  0  0  0  0
  -30.3806  -11.3395   19.8336 H   0  0  0  0  0  0
  -29.7484  -11.7563   17.4413 H   0  0  0  0  0  0
  -29.6474  -13.4723   17.7408 H   0  0  0  0  0  0
  -27.8539  -11.2867   18.8459 H   0  0  0  0  0  0
  -27.3646  -12.5823   17.7882 H   0  0  0  0  0  0
  -27.6941  -14.2368   19.5382 H   0  0  0  0  0  0
  -28.7062  -11.9655   21.3285 H   0  0  0  0  0  0
  -28.4609  -13.5985   21.8605 H   0  0  0  0  0  0
  -25.2762   -9.5688   22.4769 H   0  0  0  0  0  0
  -24.0005   -7.4639   22.7477 H   0  0  0  0  0  0
  -21.0850   -8.8782   19.8952 H   0  0  0  0  0  0
  -22.3710  -10.9682   19.6165 H   0  0  0  0  0  0
  -21.2000   -7.6152   23.9726 H   0  0  0  0  0  0
  -21.1470   -6.0521   25.9079 H   0  0  0  0  0  0
  -22.0599   -2.7619   23.2848 H   0  0  0  0  0  0
  -22.4123  -11.9864   22.4747 H   0  0  0  0  0  0
  -21.1139  -13.1255   22.2592 H   0  0  0  0  0  0
  -24.6679  -15.8392   20.5112 H   0  0  0  0  0  0
  -26.2763  -15.6215   20.0524 H   0  0  0  0  0  0
  -26.7122  -32.5489   23.1204 H   0  0  0  0  0  0
  -25.0150  -33.9810   25.0563 H   0  0  0  0  0  0
  -22.6969  -31.3079   21.4128 H   0  0  0  0  0  0
  -23.3735  -35.9650   23.3311 H   0  0  0  0  0  0
  -24.3608  -36.8929   22.2066 H   0  0  0  0  0  0
  -23.7230  -37.6514   23.6658 H   0  0  0  0  0  0
  -26.0670  -31.5763   20.6046 H   0  0  0  0  0  0
  -26.8336  -30.8676   21.9941 H   0  0  0  0  0  0
  -28.1011  -29.0408   21.1935 H   0  0  0  0  0  0
  -26.0136  -25.9848   18.9650 H   0  0  0  0  0  0
  -23.9792  -27.3282   18.9894 H   0  0  0  0  0  0
  -23.7289  -30.6142   19.4114 H   0  0  0  0  0  0
  -22.7406  -29.2601   19.8661 H   0  0  0  0  0  0
  -25.1262  -36.1989   25.0840 H   0  0  0  0  0  0
  -20.9978  -28.3231   24.1399 H   0  0  0  0  0  0
  -20.5682  -26.2252   23.3591 H   0  0  0  0  0  0
  -21.6647  -26.7404   22.1175 H   0  0  0  0  0  0
  -19.6909  -25.6251   21.1237 H   0  0  0  0  0  0
  -19.6700  -27.3133   20.6712 H   0  0  0  0  0  0
  -17.4197  -26.6640   21.3990 H   0  0  0  0  0  0
  -18.0323  -26.0015   22.8971 H   0  0  0  0  0  0
  -19.7930  -30.7220   24.2297 H   0  0  0  0  0  0
  -17.5008  -31.6253   24.5097 H   0  0  0  0  0  0
  -15.5348  -30.2953   23.7645 H   0  0  0  0  0  0
  -15.8653  -28.0777   22.7091 H   0  0  0  0  0  0
  -24.5867  -30.7013   25.7839 H   0  0  0  0  0  0
  -24.8822  -32.2812   26.4974 H   0  0  0  0  0  0
  -25.8042  -30.8847   27.0269 H   0  0  0  0  0  0
  -26.2869  -29.6839   24.1132 H   0  0  0  0  0  0
  -27.3996  -29.7255   25.4615 H   0  0  0  0  0  0
  -27.8713  -30.4391   23.9356 H   0  0  0  0  0  0
  -27.2674  -33.3679   26.2045 H   0  0  0  0  0  0
  -28.3834  -32.6895   25.0306 H   0  0  0  0  0  0
  -28.0689  -31.8499   26.5440 H   0  0  0  0  0  0
  -28.2561  -38.0116   24.7551 H   0  0  0  0  0  0
  -28.1096  -36.2655   24.6266 H   0  0  0  0  0  0
  -27.2301  -37.1461   25.8860 H   0  0  0  0  0  0
  -20.9306  -29.8810   21.6985 H   0  0  0  0  0  0
  -26.0175  -38.2849   24.1430 H   0  0  0  0  0  0
  -29.0119  -22.2328   22.1863 H   0  0  0  0  0  0
  -29.4947  -21.8645   17.3024 H   0  0  0  0  0  0
  -30.8240  -22.7196   18.0872 H   0  0  0  0  0  0
  -29.5743  -23.6033   17.2207 H   0  0  0  0  0  0
  -27.2628  -21.7881   18.2671 H   0  0  0  0  0  0
  -27.1068  -23.5362   18.1682 H   0  0  0  0  0  0
  -26.8085  -22.6906   19.6906 H   0  0  0  0  0  0
  -32.1100  -18.8642   19.3136 H   0  0  0  0  0  0
  -32.2735  -17.1976   19.8198 H   0  0  0  0  0  0
  -32.3019  -18.4798   21.0161 H   0  0  0  0  0  0
  -29.8938  -18.3267   18.0848 H   0  0  0  0  0  0
  -28.6236  -17.4715   18.9529 H   0  0  0  0  0  0
  -30.1354  -16.6691   18.5448 H   0  0  0  0  0  0
  -27.0308  -17.8988   25.9780 H   0  0  0  0  0  0
  -27.9640  -17.6023   24.5286 H   0  0  0  0  0  0
  -26.4977  -18.5685   24.4451 H   0  0  0  0  0  0
  -27.0096  -20.1334   27.1174 H   0  0  0  0  0  0
  -26.3794  -20.8385   25.6371 H   0  0  0  0  0  0
  -27.8105  -21.5215   26.3966 H   0  0  0  0  0  0
  -29.1897  -18.9212   27.1434 H   0  0  0  0  0  0
  -30.0677  -20.1926   26.3077 H   0  0  0  0  0  0
  -30.0636  -18.5519   25.6671 H   0  0  0  0  0  0
  -27.6329  -20.5505   23.4737 H   0  0  0  0  0  0
  -28.9599  -21.3536   24.2694 H   0  0  0  0  0  0
  -30.1060  -24.1680   20.5247 H   0  0  0  0  0  0
  -29.6760  -24.9023   19.0387 H   0  0  0  0  0  0
  -29.3069  -18.6044   23.0850 H   0  0  0  0  0  0
  -30.5810  -19.7389   23.4673 H   0  0  0  0  0  0
  -28.9486  -17.1632   21.6557 H   0  0  0  0  0  0
  -30.6133  -17.0389   22.1914 H   0  0  0  0  0  0
  -28.2425  -25.0768   21.5657 H   0  0  0  0  0  0
  -27.1822  -24.8096   20.2558 H   0  0  0  0  0  0
  -29.7654  -20.2233   18.6083 H   0  0  0  0  0  0
  -28.8868  -15.1739   21.1201 H   0  0  0  0  0  0
  1 25  1  0  0  0
  1 30  2  0  0  0
  1 91  1  0  0  0
  2  3  1  0  0  0
  2 25  1  0  0  0
  2 92  1  0  0  0
  2 93  1  0  0  0
  3  4  1  0  0  0
  3 94  1  0  0  0
  3 95  1  0  0  0
  4  5  1  0  0  0
  4 96  1  0  0  0
  4 97  1  0  0  0
  5  6  1  0  0  0
  5 26  1  0  0  0
  5 98  1  0  0  0
  6 25  1  0  0  0
  6 99  1  0  0  0
  6100  1  0  0  0
  7  8  2  0  0  0
  7 26  1  0  0  0
  7 29  1  0  0  0
  8  9  1  0  0  0
  8 22  1  0  0  0
  9 10  1  0  0  0
  9 27  2  0  0  0
 10 11  2  0  0  0
 10 15  1  0  0  0
 11 12  1  0  0  0
 11101  1  0  0  0
 12 13  2  0  0  0
 12102  1  0  0  0
 13 14  1  0  0  0
 13 31  1  0  0  0
 14 15  2  0  0  0
 14103  1  0  0  0
 15104  1  0  0  0
 16 17  2  0  0  0
 16 21  1  0  0  0
 16 31  1  0  0  0
 17 18  1  0  0  0
 17105  1  0  0  0
 18 19  2  0  0  0
 18106  1  0  0  0
 19 20  1  0  0  0
 19 24  1  0  0  0
 20 21  2  0  0  0
 20107  1  0  0  0
 21 23  1  0  0  0
 22 28  1  0  0  0
 22 32  2  0  0  0
 26 27  1  0  0  0
 28108  1  0  0  0
 28109  1  0  0  0
 29110  1  0  0  0
 29111  1  0  0  0
 33 34  1  0  0  0
 33 66  1  0  0  0
 33 70  2  0  0  0
 34 36  1  0  0  0
 34 59  1  0  0  0
 34112  1  0  0  0
 35 44  2  0  0  0
 35 45  1  0  0  0
 35 68  1  0  0  0
 36 56  1  0  0  0
 36113  1  0  0  0
 37 39  1  0  0  0
 37 47  1  0  0  0
 37 66  1  0  0  0
 37114  1  0  0  0
 38 43  2  0  0  0
 38 46  1  0  0  0
 38 47  1  0  0  0
 39 64  1  0  0  0
 39 67  2  0  0  0
 40 52  1  0  0  0
 40 53  2  0  0  0
 40 58  1  0  0  0
 41115  1  0  0  0
 41116  1  0  0  0
 41117  1  0  0  0
 41 48  1  0  0  0
 42 43  1  0  0  0
 42 66  1  0  0  0
 42118  1  0  0  0
 42119  1  0  0  0
 43 44  1  0  0  0
 44120  1  0  0  0
 45 46  2  0  0  0
 45121  1  0  0  0
 46122  1  0  0  0
 47123  1  0  0  0
 47124  1  0  0  0
 48 56  1  0  0  0
 48 65  1  0  0  0
 48125  1  0  0  0
 49 50  1  0  0  0
 49 53  1  0  0  0
 49 64  1  0  0  0
 49126  1  0  0  0
 50 51  1  0  0  0
 50127  1  0  0  0
 50128  1  0  0  0
 51 52  1  0  0  0
 51129  1  0  0  0
 51130  1  0  0  0
 52131  1  0  0  0
 52132  1  0  0  0
 53 54  1  0  0  0
 54 55  2  0  0  0
 54133  1  0  0  0
 55 57  1  0  0  0
 55134  1  0  0  0
 56 69  2  0  0  0
 57 58  2  0  0  0
 57135  1  0  0  0
 58136  1  0  0  0
 59 60  1  0  0  0
 59 61  1  0  0  0
 59 62  1  0  0  0
 60137  1  0  0  0
 60138  1  0  0  0
 60139  1  0  0  0
 61140  1  0  0  0
 61141  1  0  0  0
 61142  1  0  0  0
 62143  1  0  0  0
 62144  1  0  0  0
 62145  1  0  0  0
 63 65  1  0  0  0
 63146  1  0  0  0
 63147  1  0  0  0
 63148  1  0  0  0
 64149  1  0  0  0
 65150  1  0  0  0
 68 85  1  0  0  0
 71 72  2  0  0  0
 71 89  1  0  0  0
 71151  1  0  0  0
 72 86  1  0  0  0
 72 90  1  0  0  0
 73 87  1  0  0  0
 73 89  1  0  0  0
 73 90  2  0  0  0
 74152  1  0  0  0
 74153  1  0  0  0
 74154  1  0  0  0
 74 86  1  0  0  0
 75 86  1  0  0  0
 75155  1  0  0  0
 75156  1  0  0  0
 75157  1  0  0  0
 76158  1  0  0  0
 76159  1  0  0  0
 76160  1  0  0  0
 76 87  1  0  0  0
 77 87  1  0  0  0
 77161  1  0  0  0
 77162  1  0  0  0
 77163  1  0  0  0
 78164  1  0  0  0
 78165  1  0  0  0
 78166  1  0  0  0
 78 88  1  0  0  0
 79 88  1  0  0  0
 79167  1  0  0  0
 79168  1  0  0  0
 79169  1  0  0  0
 80 88  1  0  0  0
 80170  1  0  0  0
 80171  1  0  0  0
 80172  1  0  0  0
 81 83  1  0  0  0
 81 88  1  0  0  0
 81173  1  0  0  0
 81174  1  0  0  0
 82 85  1  0  0  0
 82 86  1  0  0  0
 82175  1  0  0  0
 82176  1  0  0  0
 83 89  1  0  0  0
 83177  1  0  0  0
 83178  1  0  0  0
 84 87  1  0  0  0
 84 91  1  0  0  0
 84179  1  0  0  0
 84180  1  0  0  0
 85181  1  0  0  0
 85182  1  0  0  0
 90183  1  0  0  0
 91184  1  0  0  0
M  CHG  1  90   1
M  ISO  4   1 100  68 101  85 101  91 100
M  END
> <chiral flag>
0

> <version>
0

> <s_m_source_file>
/data/baiqing/PycharmProjects/Reinvent-master-3.2/result/LINK_invent/BTK/process_docking_weight1_custom_sum_contain_oxygen_bond_distance_aromatic_linkinvent_7_9_3/rearranged_h_0068.sdf

> <i_m_source_file_index>
9

> <r_mmod_Potential_Energy-OPLS-2005>
4.44796895980835

> <r_mmod_Stretch_Energy-OPLS-2005>
58.250072479248

> <r_mmod_Bend_Energy-OPLS-2005>
166.946517944336

> <r_mmod_Torsional_Energy-OPLS-2005>
298.726196289062

> <r_mmod_Improper_Torsional_Energy-OPLS-2005>
4.36877775192261

> <r_mmod_Van_der_Waal_Energy-OPLS-2005>
144.486572265625

> <r_mmod_Electrostatic_Energy-OPLS-2005>
-304.140838623047

> <r_mmod_Solvation_Energy-OPLS-2005>
-390.209350585938

> <b_mmod_Minimization_Converged-OPLS-2005>
0

> <r_mmod_RMS_Derivative-OPLS-2005>
3.34691858291626

$$$$
10
                    3D
 Structure written by MMmdl.
173181  0  0  1  0            999 V2000
  -30.7264  -14.4236   20.6370 C   0  0  0  0  0  0
  -30.4298  -12.3063   19.4056 C   0  0  0  0  0  0
  -29.4898  -12.5165   18.2023 C   0  0  0  0  0  0
  -28.0120  -12.3810   18.6162 C   0  0  0  0  0  0
  -27.6670  -13.2025   19.8857 C   0  0  2  0  0  0
  -28.7099  -12.9527   21.0010 C   0  0  0  0  0  0
  -25.2535  -13.8114   20.5599 C   0  0  0  0  0  0
  -24.1812  -13.0405   20.9154 C   0  0  0  0  0  0
  -24.6399  -11.6878   20.8738 C   0  0  0  0  0  0
  -23.9065  -10.4273   21.0380 C   0  0  0  0  0  0
  -24.3626   -9.4196   21.9164 C   0  0  0  0  0  0
  -23.6303   -8.2233   22.0752 C   0  0  0  0  0  0
  -22.4288   -8.0262   21.3542 C   0  0  0  0  0  0
  -21.9916   -9.0217   20.4632 C   0  0  0  0  0  0
  -22.7230  -10.2110   20.3039 C   0  0  0  0  0  0
  -21.6866   -6.0725   22.5258 C   0  0  0  0  0  0
  -21.4024   -6.5638   23.8193 C   0  0  0  0  0  0
  -21.3654   -5.6805   24.9162 C   0  0  0  0  0  0
  -21.6037   -4.3064   24.7214 C   0  0  0  0  0  0
  -21.8833   -3.8141   23.4339 C   0  0  0  0  0  0
  -21.9202   -4.6952   22.3395 C   0  0  0  0  0  0
  -22.7831  -13.5181   21.1809 C   0  0  0  0  0  0
  -22.1687   -4.2143   21.0977 F   0  0  0  0  0  0
  -21.5613   -3.4544   25.7719 F   0  0  0  0  0  0
  -30.0482  -13.2591   20.4586 N   0  0  0  0  0  0
  -26.3045  -12.9323   20.3427 N   0  0  0  0  0  0
  -25.9343  -11.6489   20.5839 N   0  0  0  0  0  0
  -22.0497  -12.8166   22.0368 N   0  0  0  0  0  0
  -25.4117  -15.1801   20.3785 N   0  0  0  0  0  0
  -31.7899  -14.6866   20.0698 O   0  0  0  0  0  0
  -21.6658   -6.8863   21.4227 O   0  0  0  0  0  0
  -22.3500  -14.5476   20.6648 O   0  0  0  0  0  0
  -24.6104  -31.8698   23.2127 C   0  0  0  0  0  0
  -25.9004  -32.4842   23.8422 C   0  0  1  0  0  0
  -27.2472  -27.4643   20.0897 C   0  0  0  0  0  0
  -25.5868  -33.8635   24.2359 N   0  0  0  0  0  0
  -23.3979  -30.4922   21.5520 C   0  0  2  0  0  0
  -24.8480  -28.9555   20.1225 C   0  0  0  0  0  0
  -22.7387  -29.4664   22.5006 C   0  0  0  0  0  0
  -18.0273  -28.1376   22.8497 C   0  0  0  0  0  0
  -24.1483  -36.7322   23.2646 C   0  0  0  0  0  0
  -25.9229  -30.8414   21.3633 C   0  0  0  0  0  0
  -26.0030  -29.4734   20.7218 C   0  0  0  0  0  0
  -27.2047  -28.7332   20.7132 C   0  0  0  0  0  0
  -26.0804  -26.9588   19.4840 C   0  0  0  0  0  0
  -24.8781  -27.6925   19.5047 C   0  0  0  0  0  0
  -23.6084  -29.8211   20.1680 C   0  0  0  0  0  0
  -25.4100  -36.3123   24.0355 C   0  0  1  0  0  0
  -20.5860  -28.3656   23.1334 C   0  0  2  0  0  0
  -20.6768  -26.9392   22.5425 C   0  0  0  0  0  0
  -19.5747  -26.6385   21.5218 C   0  0  0  0  0  0
  -18.1923  -26.7925   22.1623 C   0  0  0  0  0  0
  -19.1520  -28.8830   23.2916 C   0  0  0  0  0  0
  -18.9448  -30.1443   23.8918 C   0  0  0  0  0  0
  -17.6453  -30.6582   24.0570 C   0  0  0  0  0  0
  -25.9018  -34.9488   23.5160 C   0  0  0  0  0  0
  -16.5346  -29.9087   23.6328 C   0  0  0  0  0  0
  -16.7265  -28.6504   23.0346 C   0  0  0  0  0  0
  -26.4451  -31.6600   25.0727 C   0  0  0  0  0  0
  -25.3733  -31.3675   26.1487 C   0  0  0  0  0  0
  -27.0290  -30.3063   24.6059 C   0  0  0  0  0  0
  -27.6047  -32.4303   25.7469 C   0  0  0  0  0  0
  -27.5581  -37.1811   24.8468 C   0  0  0  0  0  0
  -21.4121  -29.3024   22.3737 N   0  0  0  0  0  0
  -26.4291  -37.3801   23.9417 N   0  0  0  0  0  0
  -24.6616  -31.0821   22.1020 N   0  0  0  0  0  0
  -23.4163  -28.8208   23.3047 O   0  0  0  0  0  0
  -28.3880  -26.7003   19.9887 O   0  0  0  0  0  0
  -26.5584  -34.8930   22.4724 O   0  0  0  0  0  0
  -23.5300  -32.1439   23.7540 O   0  0  0  0  0  0
  -29.5161  -20.0413   22.9515 C   0  0  0  0  0  0
  -29.5184  -19.1203   21.8710 C   0  0  0  0  0  0
  -29.7465  -21.8116   21.4810 C   0  0  0  0  0  0
  -29.8294  -20.8984   20.3980 C   0  0  0  0  0  0
  -30.0074  -21.1182   16.7344 C   0  0  0  0  0  0
  -31.7193  -19.8939   18.1330 C   0  0  0  0  0  0
  -27.9740  -17.3091   21.1259 C   0  0  0  0  0  0
  -29.8043  -23.3276   21.2915 C   0  0  0  0  0  0
  -28.4506  -24.0333   21.5513 C   0  0  0  0  0  0
  -28.5538  -25.4747   22.1012 C   0  0  0  0  0  0
  -30.4211  -16.7520   21.5302 C   0  0  0  0  0  0
  -29.1795  -26.5214   21.1589 C   0  0  0  0  0  0
  -30.2687  -20.3987   18.0611 C   0  0  0  0  0  0
  -29.2051  -17.6124   22.0155 C   0  0  1  0  0  0
  -28.8377  -17.2331   23.4877 C   0  0  0  0  0  0
  -29.6261  -21.3776   22.7602 N   0  0  0  0  0  0
  -29.7137  -19.5632   20.6030 N   0  0  0  0  0  0
  -30.1123  -15.3173   21.4196 N   0  0  0  0  0  0
  -30.0155  -21.3453   19.1045 O   0  0  0  0  0  0
  -27.8008  -17.9458   23.9343 F   0  0  0  0  0  0
  -29.8776  -17.4225   24.3020 F   0  0  0  0  0  0
  -28.4894  -15.9465   23.5733 F   0  0  0  0  0  0
  -31.4671  -12.4318   19.0908 H   0  0  0  0  0  0
  -30.3555  -11.2848   19.7789 H   0  0  0  0  0  0
  -29.7203  -11.7983   17.4133 H   0  0  0  0  0  0
  -29.6622  -13.5072   17.7784 H   0  0  0  0  0  0
  -27.8054  -11.3243   18.7916 H   0  0  0  0  0  0
  -27.3663  -12.6807   17.7898 H   0  0  0  0  0  0
  -27.7234  -14.2543   19.6105 H   0  0  0  0  0  0
  -28.6837  -11.9107   21.3208 H   0  0  0  0  0  0
  -28.4552  -13.5244   21.8930 H   0  0  0  0  0  0
  -25.2774   -9.5677   22.4726 H   0  0  0  0  0  0
  -24.0008   -7.4647   22.7508 H   0  0  0  0  0  0
  -21.0846   -8.8699   19.8949 H   0  0  0  0  0  0
  -22.3663  -10.9632   19.6147 H   0  0  0  0  0  0
  -21.2040   -7.6147   23.9665 H   0  0  0  0  0  0
  -21.1465   -6.0557   25.9061 H   0  0  0  0  0  0
  -22.0623   -2.7598   23.2844 H   0  0  0  0  0  0
  -22.4199  -11.9890   22.4819 H   0  0  0  0  0  0
  -21.1089  -13.1121   22.2543 H   0  0  0  0  0  0
  -24.6301  -15.8213   20.4607 H   0  0  0  0  0  0
  -26.2310  -15.6071   19.9694 H   0  0  0  0  0  0
  -26.7075  -32.5575   23.1192 H   0  0  0  0  0  0
  -25.0019  -33.9799   25.0502 H   0  0  0  0  0  0
  -22.6862  -31.3085   21.4121 H   0  0  0  0  0  0
  -23.3742  -35.9656   23.3319 H   0  0  0  0  0  0
  -24.3583  -36.8920   22.2055 H   0  0  0  0  0  0
  -23.7228  -37.6536   23.6641 H   0  0  0  0  0  0
  -26.0274  -31.6012   20.5878 H   0  0  0  0  0  0
  -26.8135  -30.9050   21.9757 H   0  0  0  0  0  0
  -28.0916  -29.1589   21.1590 H   0  0  0  0  0  0
  -26.1077  -25.9943   18.9961 H   0  0  0  0  0  0
  -23.9926  -27.2863   19.0357 H   0  0  0  0  0  0
  -23.7204  -30.5963   19.4090 H   0  0  0  0  0  0
  -22.7331  -29.2415   19.8691 H   0  0  0  0  0  0
  -25.1269  -36.2011   25.0847 H   0  0  0  0  0  0
  -20.9958  -28.3227   24.1454 H   0  0  0  0  0  0
  -20.5691  -26.2249   23.3602 H   0  0  0  0  0  0
  -21.6639  -26.7446   22.1211 H   0  0  0  0  0  0
  -19.6908  -25.6303   21.1230 H   0  0  0  0  0  0
  -19.6702  -27.3214   20.6764 H   0  0  0  0  0  0
  -17.4197  -26.6691   21.4019 H   0  0  0  0  0  0
  -18.0318  -26.0057   22.9006 H   0  0  0  0  0  0
  -19.7923  -30.7256   24.2292 H   0  0  0  0  0  0
  -17.5007  -31.6267   24.5169 H   0  0  0  0  0  0
  -15.5348  -30.2996   23.7639 H   0  0  0  0  0  0
  -15.8664  -28.0837   22.7043 H   0  0  0  0  0  0
  -24.5915  -30.7008   25.7829 H   0  0  0  0  0  0
  -24.8897  -32.2806   26.4966 H   0  0  0  0  0  0
  -25.8105  -30.8833   27.0226 H   0  0  0  0  0  0
  -26.2822  -29.6813   24.1149 H   0  0  0  0  0  0
  -27.4139  -29.7310   25.4486 H   0  0  0  0  0  0
  -27.8613  -30.4434   23.9154 H   0  0  0  0  0  0
  -27.2703  -33.3602   26.2082 H   0  0  0  0  0  0
  -28.3824  -32.6856   25.0260 H   0  0  0  0  0  0
  -28.0741  -31.8392   26.5343 H   0  0  0  0  0  0
  -28.2609  -38.0103   24.7521 H   0  0  0  0  0  0
  -28.1074  -36.2635   24.6290 H   0  0  0  0  0  0
  -27.2306  -37.1461   25.8876 H   0  0  0  0  0  0
  -20.9273  -29.8722   21.6944 H   0  0  0  0  0  0
  -26.0197  -38.2889   24.1413 H   0  0  0  0  0  0
  -29.3847  -19.7391   23.9792 H   0  0  0  0  0  0
  -30.1753  -20.4502   15.8884 H   0  0  0  0  0  0
  -30.6681  -21.9777   16.6158 H   0  0  0  0  0  0
  -28.9792  -21.4768   16.6756 H   0  0  0  0  0  0
  -31.9195  -19.1827   17.3318 H   0  0  0  0  0  0
  -31.9297  -19.3835   19.0722 H   0  0  0  0  0  0
  -32.4301  -20.7148   18.0361 H   0  0  0  0  0  0
  -27.6586  -16.2740   21.2216 H   0  0  0  0  0  0
  -28.1846  -17.4842   20.0695 H   0  0  0  0  0  0
  -27.1217  -17.9330   21.3986 H   0  0  0  0  0  0
  -30.1427  -23.5641   20.2826 H   0  0  0  0  0  0
  -30.5719  -23.7152   21.9611 H   0  0  0  0  0  0
  -27.8999  -23.4631   22.3005 H   0  0  0  0  0  0
  -27.8297  -24.0038   20.6541 H   0  0  0  0  0  0
  -29.1209  -25.4556   23.0322 H   0  0  0  0  0  0
  -27.5559  -25.8120   22.3825 H   0  0  0  0  0  0
  -31.2790  -16.8927   22.1882 H   0  0  0  0  0  0
  -30.7431  -17.1030   20.5478 H   0  0  0  0  0  0
  -30.1765  -26.2050   20.8509 H   0  0  0  0  0  0
  -29.3287  -27.4583   21.6934 H   0  0  0  0  0  0
  -29.5793  -19.5529   18.1116 H   0  0  0  0  0  0
  -29.2799  -14.9906   21.8899 H   0  0  0  0  0  0
  1 25  1  0  0  0
  1 30  2  0  0  0
  1 88  1  0  0  0
  2  3  1  0  0  0
  2 25  1  0  0  0
  2 93  1  0  0  0
  2 94  1  0  0  0
  3  4  1  0  0  0
  3 95  1  0  0  0
  3 96  1  0  0  0
  4  5  1  0  0  0
  4 97  1  0  0  0
  4 98  1  0  0  0
  5  6  1  0  0  0
  5 26  1  0  0  0
  5 99  1  0  0  0
  6 25  1  0  0  0
  6100  1  0  0  0
  6101  1  0  0  0
  7  8  2  0  0  0
  7 26  1  0  0  0
  7 29  1  0  0  0
  8  9  1  0  0  0
  8 22  1  0  0  0
  9 10  1  0  0  0
  9 27  2  0  0  0
 10 11  2  0  0  0
 10 15  1  0  0  0
 11 12  1  0  0  0
 11102  1  0  0  0
 12 13  2  0  0  0
 12103  1  0  0  0
 13 14  1  0  0  0
 13 31  1  0  0  0
 14 15  2  0  0  0
 14104  1  0  0  0
 15105  1  0  0  0
 16 17  2  0  0  0
 16 21  1  0  0  0
 16 31  1  0  0  0
 17 18  1  0  0  0
 17106  1  0  0  0
 18 19  2  0  0  0
 18107  1  0  0  0
 19 20  1  0  0  0
 19 24  1  0  0  0
 20 21  2  0  0  0
 20108  1  0  0  0
 21 23  1  0  0  0
 22 28  1  0  0  0
 22 32  2  0  0  0
 26 27  1  0  0  0
 28109  1  0  0  0
 28110  1  0  0  0
 29111  1  0  0  0
 29112  1  0  0  0
 33 34  1  0  0  0
 33 66  1  0  0  0
 33 70  2  0  0  0
 34 36  1  0  0  0
 34 59  1  0  0  0
 34113  1  0  0  0
 35 44  2  0  0  0
 35 45  1  0  0  0
 35 68  1  0  0  0
 36 56  1  0  0  0
 36114  1  0  0  0
 37 39  1  0  0  0
 37 47  1  0  0  0
 37 66  1  0  0  0
 37115  1  0  0  0
 38 43  2  0  0  0
 38 46  1  0  0  0
 38 47  1  0  0  0
 39 64  1  0  0  0
 39 67  2  0  0  0
 40 52  1  0  0  0
 40 53  2  0  0  0
 40 58  1  0  0  0
 41116  1  0  0  0
 41117  1  0  0  0
 41118  1  0  0  0
 41 48  1  0  0  0
 42 43  1  0  0  0
 42 66  1  0  0  0
 42119  1  0  0  0
 42120  1  0  0  0
 43 44  1  0  0  0
 44121  1  0  0  0
 45 46  2  0  0  0
 45122  1  0  0  0
 46123  1  0  0  0
 47124  1  0  0  0
 47125  1  0  0  0
 48 56  1  0  0  0
 48 65  1  0  0  0
 48126  1  0  0  0
 49 50  1  0  0  0
 49 53  1  0  0  0
 49 64  1  0  0  0
 49127  1  0  0  0
 50 51  1  0  0  0
 50128  1  0  0  0
 50129  1  0  0  0
 51 52  1  0  0  0
 51130  1  0  0  0
 51131  1  0  0  0
 52132  1  0  0  0
 52133  1  0  0  0
 53 54  1  0  0  0
 54 55  2  0  0  0
 54134  1  0  0  0
 55 57  1  0  0  0
 55135  1  0  0  0
 56 69  2  0  0  0
 57 58  2  0  0  0
 57136  1  0  0  0
 58137  1  0  0  0
 59 60  1  0  0  0
 59 61  1  0  0  0
 59 62  1  0  0  0
 60138  1  0  0  0
 60139  1  0  0  0
 60140  1  0  0  0
 61141  1  0  0  0
 61142  1  0  0  0
 61143  1  0  0  0
 62144  1  0  0  0
 62145  1  0  0  0
 62146  1  0  0  0
 63 65  1  0  0  0
 63147  1  0  0  0
 63148  1  0  0  0
 63149  1  0  0  0
 64150  1  0  0  0
 65151  1  0  0  0
 68 82  1  0  0  0
 71 72  2  0  0  0
 71 86  1  0  0  0
 71152  1  0  0  0
 72 84  1  0  0  0
 72 87  1  0  0  0
 73 74  1  0  0  0
 73 78  1  0  0  0
 73 86  2  0  0  0
 74 87  2  0  0  0
 74 89  1  0  0  0
 75153  1  0  0  0
 75154  1  0  0  0
 75155  1  0  0  0
 75 83  1  0  0  0
 76 83  1  0  0  0
 76156  1  0  0  0
 76157  1  0  0  0
 76158  1  0  0  0
 77159  1  0  0  0
 77160  1  0  0  0
 77161  1  0  0  0
 77 84  1  0  0  0
 78 79  1  0  0  0
 78162  1  0  0  0
 78163  1  0  0  0
 79 80  1  0  0  0
 79164  1  0  0  0
 79165  1  0  0  0
 80 82  1  0  0  0
 80166  1  0  0  0
 80167  1  0  0  0
 81 84  1  0  0  0
 81 88  1  0  0  0
 81168  1  0  0  0
 81169  1  0  0  0
 82170  1  0  0  0
 82171  1  0  0  0
 83 89  1  0  0  0
 83172  1  0  0  0
 84 85  1  0  0  0
 85 90  1  0  0  0
 85 91  1  0  0  0
 85 92  1  0  0  0
 88173  1  0  0  0
M  ISO  4   1 100  68 101  82 101  88 100
M  END
> <chiral flag>
0

> <version>
0

> <s_m_source_file>
/data/baiqing/PycharmProjects/Reinvent-master-3.2/result/LINK_invent/BTK/process_docking_weight1_custom_sum_contain_oxygen_bond_distance_aromatic_linkinvent_7_9_3/rearranged_h_0068.sdf

> <i_m_source_file_index>
10

> <r_mmod_Potential_Energy-OPLS-2005>
31.8797912597656

> <r_mmod_Stretch_Energy-OPLS-2005>
41.6158180236816

> <r_mmod_Bend_Energy-OPLS-2005>
112.872657775879

> <r_mmod_Torsional_Energy-OPLS-2005>
203.463439941406

> <r_mmod_Improper_Torsional_Energy-OPLS-2005>
3.1563549041748

> <r_mmod_Van_der_Waal_Energy-OPLS-2005>
171.603134155273

> <r_mmod_Electrostatic_Energy-OPLS-2005>
-309.689270019531

> <r_mmod_Solvation_Energy-OPLS-2005>
-198.549179077148

> <b_mmod_Minimization_Converged-OPLS-2005>
0

> <r_mmod_RMS_Derivative-OPLS-2005>
2.86012744903564

$$$$
11
                    3D
 Structure written by MMmdl.
169177  0  0  1  0            999 V2000
  -30.7338  -14.4212   20.6541 C   0  0  0  0  0  0
  -30.4220  -12.3114   19.4026 C   0  0  0  0  0  0
  -29.4884  -12.5282   18.1962 C   0  0  0  0  0  0
  -28.0109  -12.3835   18.6096 C   0  0  0  0  0  0
  -27.6632  -13.2074   19.8778 C   0  0  2  0  0  0
  -28.7021  -12.9589   20.9923 C   0  0  0  0  0  0
  -25.2586  -13.8169   20.5678 C   0  0  0  0  0  0
  -24.1839  -13.0449   20.9177 C   0  0  0  0  0  0
  -24.6392  -11.6913   20.8732 C   0  0  0  0  0  0
  -23.9059  -10.4299   21.0403 C   0  0  0  0  0  0
  -24.3612   -9.4215   21.9181 C   0  0  0  0  0  0
  -23.6290   -8.2247   22.0751 C   0  0  0  0  0  0
  -22.4271   -8.0284   21.3543 C   0  0  0  0  0  0
  -21.9906   -9.0258   20.4644 C   0  0  0  0  0  0
  -22.7232  -10.2139   20.3051 C   0  0  0  0  0  0
  -21.6853   -6.0736   22.5279 C   0  0  0  0  0  0
  -21.4012   -6.5638   23.8212 C   0  0  0  0  0  0
  -21.3660   -5.6791   24.9174 C   0  0  0  0  0  0
  -21.6045   -4.3054   24.7226 C   0  0  0  0  0  0
  -21.8820   -3.8146   23.4347 C   0  0  0  0  0  0
  -21.9194   -4.6963   22.3403 C   0  0  0  0  0  0
  -22.7861  -13.5245   21.1848 C   0  0  0  0  0  0
  -22.1663   -4.2149   21.0980 F   0  0  0  0  0  0
  -21.5632   -3.4538   25.7740 F   0  0  0  0  0  0
  -30.0376  -13.2706   20.4491 N   0  0  0  0  0  0
  -26.3029  -12.9341   20.3368 N   0  0  0  0  0  0
  -25.9317  -11.6498   20.5749 N   0  0  0  0  0  0
  -22.0497  -12.8236   22.0402 N   0  0  0  0  0  0
  -25.4321  -15.1881   20.4086 N   0  0  0  0  0  0
  -31.8119  -14.6622   20.1046 O   0  0  0  0  0  0
  -21.6638   -6.8880   21.4240 O   0  0  0  0  0  0
  -22.3546  -14.5556   20.6703 O   0  0  0  0  0  0
  -24.6142  -31.8692   23.2109 C   0  0  0  0  0  0
  -25.9037  -32.4824   23.8404 C   0  0  1  0  0  0
  -27.2309  -27.4392   20.0933 C   0  0  0  0  0  0
  -25.5894  -33.8624   24.2325 N   0  0  0  0  0  0
  -23.4003  -30.4947   21.5524 C   0  0  2  0  0  0
  -24.8442  -28.9604   20.1169 C   0  0  0  0  0  0
  -22.7396  -29.4673   22.4996 C   0  0  0  0  0  0
  -18.0265  -28.1379   22.8481 C   0  0  0  0  0  0
  -24.1469  -36.7297   23.2646 C   0  0  0  0  0  0
  -25.9295  -30.8351   21.3635 C   0  0  0  0  0  0
  -26.0060  -29.4715   20.7083 C   0  0  0  0  0  0
  -27.2031  -28.7207   20.6885 C   0  0  0  0  0  0
  -26.0491  -26.9389   19.5011 C   0  0  0  0  0  0
  -24.8604  -27.6924   19.5121 C   0  0  0  0  0  0
  -23.6076  -29.8291   20.1667 C   0  0  0  0  0  0
  -25.4099  -36.3115   24.0341 C   0  0  1  0  0  0
  -20.5854  -28.3669   23.1304 C   0  0  2  0  0  0
  -20.6757  -26.9405   22.5414 C   0  0  0  0  0  0
  -19.5739  -26.6387   21.5203 C   0  0  0  0  0  0
  -18.1911  -26.7922   22.1611 C   0  0  0  0  0  0
  -19.1517  -28.8839   23.2886 C   0  0  0  0  0  0
  -18.9458  -30.1441   23.8905 C   0  0  0  0  0  0
  -17.6469  -30.6594   24.0566 C   0  0  0  0  0  0
  -25.9036  -34.9482   23.5132 C   0  0  0  0  0  0
  -16.5352  -29.9106   23.6328 C   0  0  0  0  0  0
  -16.7258  -28.6518   23.0345 C   0  0  0  0  0  0
  -26.4472  -31.6609   25.0732 C   0  0  0  0  0  0
  -25.3744  -31.3700   26.1490 C   0  0  0  0  0  0
  -27.0323  -30.3066   24.6108 C   0  0  0  0  0  0
  -27.6047  -32.4350   25.7475 C   0  0  0  0  0  0
  -27.5571  -37.1789   24.8468 C   0  0  0  0  0  0
  -21.4125  -29.3042   22.3717 N   0  0  0  0  0  0
  -26.4279  -37.3804   23.9426 N   0  0  0  0  0  0
  -24.6665  -31.0799   22.1013 N   0  0  0  0  0  0
  -23.4167  -28.8218   23.3043 O   0  0  0  0  0  0
  -28.4085  -26.7202   20.0959 O   0  0  0  0  0  0
  -26.5603  -34.8934   22.4697 O   0  0  0  0  0  0
  -23.5334  -32.1461   23.7502 O   0  0  0  0  0  0
  -30.7008  -20.4792   18.8352 C   0  0  0  0  0  0
  -31.2583  -19.1993   18.8968 C   0  0  0  0  0  0
  -29.7952  -20.8289   19.8433 C   0  0  0  0  0  0
  -30.1136  -18.7683   20.8383 C   0  0  0  0  0  0
  -33.7053  -18.7909   18.4016 C   0  0  0  0  0  0
  -28.3587  -17.4183   22.0853 C   0  0  0  0  0  0
  -30.2165  -18.5868   23.3298 C   0  0  0  0  0  0
  -32.2672  -18.7156   17.8739 C   0  0  0  0  0  0
  -29.1279  -22.2039   19.8367 C   0  0  0  0  0  0
  -29.7359  -23.1983   20.8496 C   0  0  0  0  0  0
  -29.6947  -24.6931   20.4376 C   0  0  0  0  0  0
  -30.7555  -16.5204   22.0487 C   0  0  0  0  0  0
  -28.2982  -25.2944   20.1968 C   0  0  0  0  0  0
  -29.8503  -17.8167   22.0394 C   0  0  0  0  0  0
  -30.9533  -18.3554   19.8944 N   0  0  0  0  0  0
  -29.5062  -19.9645   20.8399 N   0  0  0  0  0  0
  -30.1593  -15.2892   21.4997 N   0  0  0  0  0  0
  -31.4639  -12.4222   19.0971 H   0  0  0  0  0  0
  -30.3317  -11.2916   19.7799 H   0  0  0  0  0  0
  -29.7265  -11.8187   17.4024 H   0  0  0  0  0  0
  -29.6562  -13.5221   17.7781 H   0  0  0  0  0  0
  -27.8161  -11.3262   18.7892 H   0  0  0  0  0  0
  -27.3604  -12.6764   17.7841 H   0  0  0  0  0  0
  -27.7170  -14.2609   19.6024 H   0  0  0  0  0  0
  -28.6745  -11.9146   21.3060 H   0  0  0  0  0  0
  -28.4481  -13.5296   21.8859 H   0  0  0  0  0  0
  -25.2758   -9.5693   22.4754 H   0  0  0  0  0  0
  -24.0005   -7.4638   22.7467 H   0  0  0  0  0  0
  -21.0839   -8.8777   19.8946 H   0  0  0  0  0  0
  -22.3693  -10.9679   19.6158 H   0  0  0  0  0  0
  -21.1997   -7.6144   23.9716 H   0  0  0  0  0  0
  -21.1482   -6.0519   25.9078 H   0  0  0  0  0  0
  -22.0598   -2.7608   23.2847 H   0  0  0  0  0  0
  -22.4104  -11.9893   22.4792 H   0  0  0  0  0  0
  -21.1112  -13.1262   22.2600 H   0  0  0  0  0  0
  -24.6692  -15.8476   20.5165 H   0  0  0  0  0  0
  -26.2881  -15.6228   20.0890 H   0  0  0  0  0  0
  -26.7102  -32.5546   23.1158 H   0  0  0  0  0  0
  -25.0057  -33.9782   25.0482 H   0  0  0  0  0  0
  -22.6899  -31.3130   21.4149 H   0  0  0  0  0  0
  -23.3747  -35.9613   23.3338 H   0  0  0  0  0  0
  -24.3565  -36.8898   22.2058 H   0  0  0  0  0  0
  -23.7198  -37.6499   23.6651 H   0  0  0  0  0  0
  -26.0447  -31.6014   20.5964 H   0  0  0  0  0  0
  -26.8157  -30.8851   21.9844 H   0  0  0  0  0  0
  -28.1026  -29.1133   21.1434 H   0  0  0  0  0  0
  -26.0265  -25.9746   19.0162 H   0  0  0  0  0  0
  -23.9669  -27.2920   19.0536 H   0  0  0  0  0  0
  -23.7180  -30.6072   19.4106 H   0  0  0  0  0  0
  -22.7284  -29.2546   19.8673 H   0  0  0  0  0  0
  -25.1265  -36.1988   25.0830 H   0  0  0  0  0  0
  -20.9943  -28.3250   24.1424 H   0  0  0  0  0  0
  -20.5648  -26.2279   23.3606 H   0  0  0  0  0  0
  -21.6628  -26.7442   22.1213 H   0  0  0  0  0  0
  -19.6906  -25.6303   21.1220 H   0  0  0  0  0  0
  -19.6684  -27.3206   20.6740 H   0  0  0  0  0  0
  -17.4179  -26.6664   21.4016 H   0  0  0  0  0  0
  -18.0328  -26.0055   22.8998 H   0  0  0  0  0  0
  -19.7948  -30.7234   24.2285 H   0  0  0  0  0  0
  -17.5043  -31.6279   24.5165 H   0  0  0  0  0  0
  -15.5360  -30.3021   23.7663 H   0  0  0  0  0  0
  -15.8644  -28.0860   22.7055 H   0  0  0  0  0  0
  -24.5896  -30.7068   25.7829 H   0  0  0  0  0  0
  -24.8946  -32.2848   26.4986 H   0  0  0  0  0  0
  -25.8107  -30.8835   27.0224 H   0  0  0  0  0  0
  -26.2864  -29.6777   24.1233 H   0  0  0  0  0  0
  -27.4200  -29.7346   25.4551 H   0  0  0  0  0  0
  -27.8641  -30.4409   23.9189 H   0  0  0  0  0  0
  -27.2675  -33.3653   26.2064 H   0  0  0  0  0  0
  -28.3836  -32.6926   25.0281 H   0  0  0  0  0  0
  -28.0738  -31.8478   26.5380 H   0  0  0  0  0  0
  -28.2595  -38.0080   24.7560 H   0  0  0  0  0  0
  -28.1057  -36.2624   24.6251 H   0  0  0  0  0  0
  -27.2295  -37.1402   25.8869 H   0  0  0  0  0  0
  -20.9291  -29.8774   21.6944 H   0  0  0  0  0  0
  -26.0173  -38.2873   24.1481 H   0  0  0  0  0  0
  -30.9594  -21.1680   18.0408 H   0  0  0  0  0  0
  -34.4126  -18.4132   17.6638 H   0  0  0  0  0  0
  -33.8221  -18.1966   19.3084 H   0  0  0  0  0  0
  -33.9791  -19.8199   18.6368 H   0  0  0  0  0  0
  -27.7201  -18.2943   22.1991 H   0  0  0  0  0  0
  -28.1494  -16.7525   22.9218 H   0  0  0  0  0  0
  -28.0523  -16.9189   21.1660 H   0  0  0  0  0  0
  -29.6078  -19.4834   23.4511 H   0  0  0  0  0  0
  -31.2605  -18.9022   23.3110 H   0  0  0  0  0  0
  -30.0655  -17.9804   24.2224 H   0  0  0  0  0  0
  -32.1763  -19.3130   16.9664 H   0  0  0  0  0  0
  -32.0266  -17.6902   17.5922 H   0  0  0  0  0  0
  -28.0576  -22.0919   20.0189 H   0  0  0  0  0  0
  -29.2134  -22.6109   18.8290 H   0  0  0  0  0  0
  -30.7871  -22.9430   20.9884 H   0  0  0  0  0  0
  -29.2726  -23.0502   21.8257 H   0  0  0  0  0  0
  -30.3026  -24.8451   19.5447 H   0  0  0  0  0  0
  -30.1821  -25.2680   21.2259 H   0  0  0  0  0  0
  -30.9524  -16.2410   23.0834 H   0  0  0  0  0  0
  -31.7497  -16.7187   21.6457 H   0  0  0  0  0  0
  -27.6325  -25.0332   21.0212 H   0  0  0  0  0  0
  -27.8802  -24.8701   19.2843 H   0  0  0  0  0  0
  -29.2672  -15.0098   21.8788 H   0  0  0  0  0  0
  1 25  1  0  0  0
  1 30  2  0  0  0
  1 87  1  0  0  0
  2  3  1  0  0  0
  2 25  1  0  0  0
  2 88  1  0  0  0
  2 89  1  0  0  0
  3  4  1  0  0  0
  3 90  1  0  0  0
  3 91  1  0  0  0
  4  5  1  0  0  0
  4 92  1  0  0  0
  4 93  1  0  0  0
  5  6  1  0  0  0
  5 26  1  0  0  0
  5 94  1  0  0  0
  6 25  1  0  0  0
  6 95  1  0  0  0
  6 96  1  0  0  0
  7  8  2  0  0  0
  7 26  1  0  0  0
  7 29  1  0  0  0
  8  9  1  0  0  0
  8 22  1  0  0  0
  9 10  1  0  0  0
  9 27  2  0  0  0
 10 11  2  0  0  0
 10 15  1  0  0  0
 11 12  1  0  0  0
 11 97  1  0  0  0
 12 13  2  0  0  0
 12 98  1  0  0  0
 13 14  1  0  0  0
 13 31  1  0  0  0
 14 15  2  0  0  0
 14 99  1  0  0  0
 15100  1  0  0  0
 16 17  2  0  0  0
 16 21  1  0  0  0
 16 31  1  0  0  0
 17 18  1  0  0  0
 17101  1  0  0  0
 18 19  2  0  0  0
 18102  1  0  0  0
 19 20  1  0  0  0
 19 24  1  0  0  0
 20 21  2  0  0  0
 20103  1  0  0  0
 21 23  1  0  0  0
 22 28  1  0  0  0
 22 32  2  0  0  0
 26 27  1  0  0  0
 28104  1  0  0  0
 28105  1  0  0  0
 29106  1  0  0  0
 29107  1  0  0  0
 33 34  1  0  0  0
 33 66  1  0  0  0
 33 70  2  0  0  0
 34 36  1  0  0  0
 34 59  1  0  0  0
 34108  1  0  0  0
 35 44  2  0  0  0
 35 45  1  0  0  0
 35 68  1  0  0  0
 36 56  1  0  0  0
 36109  1  0  0  0
 37 39  1  0  0  0
 37 47  1  0  0  0
 37 66  1  0  0  0
 37110  1  0  0  0
 38 43  2  0  0  0
 38 46  1  0  0  0
 38 47  1  0  0  0
 39 64  1  0  0  0
 39 67  2  0  0  0
 40 52  1  0  0  0
 40 53  2  0  0  0
 40 58  1  0  0  0
 41111  1  0  0  0
 41112  1  0  0  0
 41113  1  0  0  0
 41 48  1  0  0  0
 42 43  1  0  0  0
 42 66  1  0  0  0
 42114  1  0  0  0
 42115  1  0  0  0
 43 44  1  0  0  0
 44116  1  0  0  0
 45 46  2  0  0  0
 45117  1  0  0  0
 46118  1  0  0  0
 47119  1  0  0  0
 47120  1  0  0  0
 48 56  1  0  0  0
 48 65  1  0  0  0
 48121  1  0  0  0
 49 50  1  0  0  0
 49 53  1  0  0  0
 49 64  1  0  0  0
 49122  1  0  0  0
 50 51  1  0  0  0
 50123  1  0  0  0
 50124  1  0  0  0
 51 52  1  0  0  0
 51125  1  0  0  0
 51126  1  0  0  0
 52127  1  0  0  0
 52128  1  0  0  0
 53 54  1  0  0  0
 54 55  2  0  0  0
 54129  1  0  0  0
 55 57  1  0  0  0
 55130  1  0  0  0
 56 69  2  0  0  0
 57 58  2  0  0  0
 57131  1  0  0  0
 58132  1  0  0  0
 59 60  1  0  0  0
 59 61  1  0  0  0
 59 62  1  0  0  0
 60133  1  0  0  0
 60134  1  0  0  0
 60135  1  0  0  0
 61136  1  0  0  0
 61137  1  0  0  0
 61138  1  0  0  0
 62139  1  0  0  0
 62140  1  0  0  0
 62141  1  0  0  0
 63 65  1  0  0  0
 63142  1  0  0  0
 63143  1  0  0  0
 63144  1  0  0  0
 64145  1  0  0  0
 65146  1  0  0  0
 68 83  1  0  0  0
 71 72  2  0  0  0
 71 73  1  0  0  0
 71147  1  0  0  0
 72 78  1  0  0  0
 72 85  1  0  0  0
 73 79  1  0  0  0
 73 86  2  0  0  0
 74 84  1  0  0  0
 74 85  2  0  0  0
 74 86  1  0  0  0
 75 78  1  0  0  0
 75148  1  0  0  0
 75149  1  0  0  0
 75150  1  0  0  0
 76151  1  0  0  0
 76152  1  0  0  0
 76153  1  0  0  0
 76 84  1  0  0  0
 77 84  1  0  0  0
 77154  1  0  0  0
 77155  1  0  0  0
 77156  1  0  0  0
 78157  1  0  0  0
 78158  1  0  0  0
 79 80  1  0  0  0
 79159  1  0  0  0
 79160  1  0  0  0
 80 81  1  0  0  0
 80161  1  0  0  0
 80162  1  0  0  0
 81 83  1  0  0  0
 81163  1  0  0  0
 81164  1  0  0  0
 82 84  1  0  0  0
 82 87  1  0  0  0
 82165  1  0  0  0
 82166  1  0  0  0
 83167  1  0  0  0
 83168  1  0  0  0
 87169  1  0  0  0
M  ISO  4   1 100  68 101  83 101  87 100
M  END
> <chiral flag>
0

> <version>
0

> <s_m_source_file>
/data/baiqing/PycharmProjects/Reinvent-master-3.2/result/LINK_invent/BTK/process_docking_weight1_custom_sum_contain_oxygen_bond_distance_aromatic_linkinvent_7_9_3/rearranged_h_0068.sdf

> <i_m_source_file_index>
11

> <r_mmod_Potential_Energy-OPLS-2005>
-499.845916748047

> <r_mmod_Stretch_Energy-OPLS-2005>
39.8398094177246

> <r_mmod_Bend_Energy-OPLS-2005>
109.714057922363

> <r_mmod_Torsional_Energy-OPLS-2005>
203.887603759766

> <r_mmod_Improper_Torsional_Energy-OPLS-2005>
1.88984179496765

> <r_mmod_Van_der_Waal_Energy-OPLS-2005>
164.201156616211

> <r_mmod_Electrostatic_Energy-OPLS-2005>
-806.737365722656

> <r_mmod_Solvation_Energy-OPLS-2005>
-222.053939819336

> <b_mmod_Minimization_Converged-OPLS-2005>
0

> <r_mmod_RMS_Derivative-OPLS-2005>
1.46985530853271

$$$$
12
                    3D
 Structure written by MMmdl.
177186  0  0  1  0            999 V2000
  -30.7247  -14.4612   20.5644 C   0  0  0  0  0  0
  -30.4221  -12.2990   19.4377 C   0  0  0  0  0  0
  -29.5018  -12.4989   18.2160 C   0  0  0  0  0  0
  -28.0234  -12.3449   18.6285 C   0  0  0  0  0  0
  -27.6616  -13.2041   19.8702 C   0  0  2  0  0  0
  -28.7003  -13.0143   21.0000 C   0  0  0  0  0  0
  -25.2597  -13.8185   20.5652 C   0  0  0  0  0  0
  -24.1839  -13.0448   20.9158 C   0  0  0  0  0  0
  -24.6389  -11.6921   20.8699 C   0  0  0  0  0  0
  -23.9066  -10.4301   21.0410 C   0  0  0  0  0  0
  -24.3625   -9.4205   21.9185 C   0  0  0  0  0  0
  -23.6283   -8.2245   22.0747 C   0  0  0  0  0  0
  -22.4258   -8.0310   21.3545 C   0  0  0  0  0  0
  -21.9910   -9.0291   20.4645 C   0  0  0  0  0  0
  -22.7248  -10.2162   20.3046 C   0  0  0  0  0  0
  -21.6858   -6.0751   22.5277 C   0  0  0  0  0  0
  -21.4030   -6.5648   23.8221 C   0  0  0  0  0  0
  -21.3649   -5.6787   24.9174 C   0  0  0  0  0  0
  -21.6029   -4.3051   24.7207 C   0  0  0  0  0  0
  -21.8826   -3.8153   23.4326 C   0  0  0  0  0  0
  -21.9200   -4.6979   22.3392 C   0  0  0  0  0  0
  -22.7887  -13.5281   21.1835 C   0  0  0  0  0  0
  -22.1654   -4.2176   21.0969 F   0  0  0  0  0  0
  -21.5626   -3.4528   25.7711 F   0  0  0  0  0  0
  -30.0367  -13.2947   20.4456 N   0  0  0  0  0  0
  -26.3016  -12.9334   20.3330 N   0  0  0  0  0  0
  -25.9311  -11.6495   20.5735 N   0  0  0  0  0  0
  -22.0489  -12.8254   22.0361 N   0  0  0  0  0  0
  -25.4351  -15.1874   20.4081 N   0  0  0  0  0  0
  -31.8557  -14.6231   20.0969 O   0  0  0  0  0  0
  -21.6624   -6.8905   21.4240 O   0  0  0  0  0  0
  -22.3587  -14.5591   20.6708 O   0  0  0  0  0  0
  -24.6087  -31.8687   23.2101 C   0  0  0  0  0  0
  -25.8994  -32.4817   23.8401 C   0  0  1  0  0  0
  -27.2361  -27.4409   20.0859 C   0  0  0  0  0  0
  -25.5892  -33.8640   24.2308 N   0  0  0  0  0  0
  -23.3962  -30.4876   21.5556 C   0  0  2  0  0  0
  -24.8415  -28.9618   20.1068 C   0  0  0  0  0  0
  -22.7360  -29.4634   22.5029 C   0  0  0  0  0  0
  -18.0255  -28.1364   22.8494 C   0  0  0  0  0  0
  -24.1494  -36.7324   23.2634 C   0  0  0  0  0  0
  -25.9245  -30.8286   21.3679 C   0  0  0  0  0  0
  -25.9973  -29.4658   20.7148 C   0  0  0  0  0  0
  -27.1921  -28.7122   20.7031 C   0  0  0  0  0  0
  -26.0734  -26.9692   19.4338 C   0  0  0  0  0  0
  -24.8773  -27.7143   19.4583 C   0  0  0  0  0  0
  -23.5979  -29.8229   20.1678 C   0  0  0  0  0  0
  -25.4113  -36.3121   24.0324 C   0  0  1  0  0  0
  -20.5838  -28.3656   23.1341 C   0  0  2  0  0  0
  -20.6762  -26.9408   22.5435 C   0  0  0  0  0  0
  -19.5758  -26.6380   21.5227 C   0  0  0  0  0  0
  -18.1926  -26.7906   22.1613 C   0  0  0  0  0  0
  -19.1499  -28.8838   23.2905 C   0  0  0  0  0  0
  -18.9425  -30.1449   23.8907 C   0  0  0  0  0  0
  -17.6426  -30.6582   24.0579 C   0  0  0  0  0  0
  -25.9048  -34.9501   23.5127 C   0  0  0  0  0  0
  -16.5319  -29.9076   23.6346 C   0  0  0  0  0  0
  -16.7242  -28.6497   23.0348 C   0  0  0  0  0  0
  -26.4469  -31.6584   25.0715 C   0  0  0  0  0  0
  -25.3738  -31.3692   26.1451 C   0  0  0  0  0  0
  -27.0302  -30.3020   24.6101 C   0  0  0  0  0  0
  -27.6062  -32.4298   25.7468 C   0  0  0  0  0  0
  -27.5587  -37.1804   24.8464 C   0  0  0  0  0  0
  -21.4094  -29.3000   22.3765 N   0  0  0  0  0  0
  -26.4305  -37.3786   23.9401 N   0  0  0  0  0  0
  -24.6619  -31.0767   22.1010 N   0  0  0  0  0  0
  -23.4174  -28.8206   23.3055 O   0  0  0  0  0  0
  -28.4277  -26.7419   20.0813 O   0  0  0  0  0  0
  -26.5646  -34.8945   22.4714 O   0  0  0  0  0  0
  -23.5291  -32.1471   23.7502 O   0  0  0  0  0  0
  -29.5504  -21.3410   19.6564 C   0  0  0  0  0  0
  -31.5285  -20.5784   18.9748 C   0  0  0  0  0  0
  -30.6630  -19.8478   20.8665 C   0  0  0  0  0  0
  -27.5656  -23.2343   21.5998 C   0  0  0  0  0  0
  -27.2325  -22.1702   20.5352 C   0  0  0  0  0  0
  -28.3367  -23.3912   18.5673 C   0  0  0  0  0  0
  -27.3099  -24.6737   21.1272 C   0  0  0  0  0  0
  -29.1451  -24.5324   19.2272 C   0  0  0  0  0  0
  -28.2154  -22.0480   19.3405 C   0  0  1  0  0  0
  -28.5029  -25.3305   20.3924 C   0  0  1  0  0  0
  -32.6738  -20.5967   17.9804 C   0  0  0  0  0  0
  -30.6480  -17.0791   23.4532 C   0  0  0  0  0  0
  -28.6018  -17.9509   22.3172 C   0  0  0  0  0  0
  -30.9306  -19.9561   23.2289 C   0  0  0  0  0  0
  -30.4478  -16.9085   20.9386 C   0  0  0  0  0  0
  -30.1319  -17.7911   22.1783 C   0  0  0  0  0  0
  -30.4794  -21.3497   18.7023 N   0  0  0  0  0  0
  -29.5815  -20.5939   20.7543 N   0  0  0  0  0  0
  -31.6888  -19.7996   20.0380 N   0  0  0  0  0  0
  -30.0317  -15.4994   21.0575 N   0  0  0  0  0  0
  -30.7961  -19.1088   22.0375 N   0  0  0  0  0  0
  -31.4686  -12.3759   19.1403 H   0  0  0  0  0  0
  -30.3177  -11.2961   19.8508 H   0  0  0  0  0  0
  -29.7515  -11.7786   17.4359 H   0  0  0  0  0  0
  -29.6593  -13.4870   17.7782 H   0  0  0  0  0  0
  -27.8584  -11.2865   18.8523 H   0  0  0  0  0  0
  -27.3670  -12.5899   17.7934 H   0  0  0  0  0  0
  -27.6996  -14.2452   19.5509 H   0  0  0  0  0  0
  -28.6690  -11.9930   21.3766 H   0  0  0  0  0  0
  -28.4585  -13.6480   21.8553 H   0  0  0  0  0  0
  -25.2775   -9.5677   22.4770 H   0  0  0  0  0  0
  -23.9995   -7.4638   22.7460 H   0  0  0  0  0  0
  -21.0859   -8.8836   19.8935 H   0  0  0  0  0  0
  -22.3740  -10.9716   19.6157 H   0  0  0  0  0  0
  -21.2032   -7.6167   23.9738 H   0  0  0  0  0  0
  -21.1448   -6.0508   25.9086 H   0  0  0  0  0  0
  -22.0610   -2.7616   23.2801 H   0  0  0  0  0  0
  -22.4067  -11.9918   22.4780 H   0  0  0  0  0  0
  -21.1120  -13.1315   22.2588 H   0  0  0  0  0  0
  -24.6732  -15.8476   20.5243 H   0  0  0  0  0  0
  -26.2941  -15.6214   20.0954 H   0  0  0  0  0  0
  -26.7024  -32.5502   23.1136 H   0  0  0  0  0  0
  -25.0063  -33.9856   25.0465 H   0  0  0  0  0  0
  -22.6809  -31.3027   21.4243 H   0  0  0  0  0  0
  -23.3783  -35.9641   23.3330 H   0  0  0  0  0  0
  -24.3567  -36.8923   22.2040 H   0  0  0  0  0  0
  -23.7230  -37.6524   23.6646 H   0  0  0  0  0  0
  -26.0439  -31.5927   20.5994 H   0  0  0  0  0  0
  -26.8099  -30.8713   21.9915 H   0  0  0  0  0  0
  -28.0822  -29.1083   21.1738 H   0  0  0  0  0  0
  -26.0979  -26.0434   18.8787 H   0  0  0  0  0  0
  -24.0021  -27.3412   18.9414 H   0  0  0  0  0  0
  -23.6809  -30.6000   19.4057 H   0  0  0  0  0  0
  -22.7232  -29.2323   19.8886 H   0  0  0  0  0  0
  -25.1280  -36.2033   25.0810 H   0  0  0  0  0  0
  -20.9911  -28.3223   24.1460 H   0  0  0  0  0  0
  -20.5716  -26.2259   23.3600 H   0  0  0  0  0  0
  -21.6623  -26.7484   22.1205 H   0  0  0  0  0  0
  -19.6956  -25.6315   21.1206 H   0  0  0  0  0  0
  -19.6703  -27.3224   20.6788 H   0  0  0  0  0  0
  -17.4197  -26.6671   21.3999 H   0  0  0  0  0  0
  -18.0341  -26.0037   22.8999 H   0  0  0  0  0  0
  -19.7908  -30.7280   24.2243 H   0  0  0  0  0  0
  -17.4982  -31.6253   24.5179 H   0  0  0  0  0  0
  -15.5325  -30.2979   23.7670 H   0  0  0  0  0  0
  -15.8632  -28.0833   22.7026 H   0  0  0  0  0  0
  -24.5909  -30.7054   25.7753 H   0  0  0  0  0  0
  -24.8959  -32.2851   26.4911 H   0  0  0  0  0  0
  -25.8055  -30.8814   27.0189 H   0  0  0  0  0  0
  -26.2843  -29.6778   24.1149 H   0  0  0  0  0  0
  -27.4055  -29.7233   25.4555 H   0  0  0  0  0  0
  -27.8687  -30.4347   23.9267 H   0  0  0  0  0  0
  -27.2693  -33.3582   26.2091 H   0  0  0  0  0  0
  -28.3822  -32.6858   25.0249 H   0  0  0  0  0  0
  -28.0791  -31.8408   26.5331 H   0  0  0  0  0  0
  -28.2591  -38.0113   24.7506 H   0  0  0  0  0  0
  -28.1078  -36.2634   24.6283 H   0  0  0  0  0  0
  -27.2305  -37.1445   25.8866 H   0  0  0  0  0  0
  -20.9287  -29.8653   21.6926 H   0  0  0  0  0  0
  -26.0226  -38.2878   24.1397 H   0  0  0  0  0  0
  -28.5770  -23.1084   21.9885 H   0  0  0  0  0  0
  -26.9125  -23.0598   22.4560 H   0  0  0  0  0  0
  -26.2366  -22.3763   20.1387 H   0  0  0  0  0  0
  -27.1299  -21.1999   21.0229 H   0  0  0  0  0  0
  -28.8226  -23.1753   17.6149 H   0  0  0  0  0  0
  -27.3450  -23.7466   18.2882 H   0  0  0  0  0  0
  -27.0736  -25.2847   21.9983 H   0  0  0  0  0  0
  -26.4087  -24.6662   20.5243 H   0  0  0  0  0  0
  -30.0991  -24.1227   19.5586 H   0  0  0  0  0  0
  -29.4214  -25.2397   18.4434 H   0  0  0  0  0  0
  -27.7273  -21.3618   18.6471 H   0  0  0  0  0  0
  -29.2785  -25.3320   21.1602 H   0  0  0  0  0  0
  -32.3268  -20.8869   16.9881 H   0  0  0  0  0  0
  -33.1465  -19.6186   17.8945 H   0  0  0  0  0  0
  -33.4405  -21.3006   18.3015 H   0  0  0  0  0  0
  -30.1825  -16.1046   23.5939 H   0  0  0  0  0  0
  -30.4140  -17.6388   24.3596 H   0  0  0  0  0  0
  -31.7268  -16.9152   23.4303 H   0  0  0  0  0  0
  -28.1399  -18.2829   21.3874 H   0  0  0  0  0  0
  -28.3269  -18.6793   23.0798 H   0  0  0  0  0  0
  -28.1314  -17.0037   22.5884 H   0  0  0  0  0  0
  -31.6350  -19.5153   23.9348 H   0  0  0  0  0  0
  -29.9702  -20.0948   23.7260 H   0  0  0  0  0  0
  -31.3178  -20.9457   22.9721 H   0  0  0  0  0  0
  -29.9672  -17.3212   20.0464 H   0  0  0  0  0  0
  -31.5218  -16.9603   20.7486 H   0  0  0  0  0  0
  -29.1037  -15.3085   21.4038 H   0  0  0  0  0  0
  1 25  1  0  0  0
  1 30  2  0  0  0
  1 90  1  0  0  0
  2  3  1  0  0  0
  2 25  1  0  0  0
  2 92  1  0  0  0
  2 93  1  0  0  0
  3  4  1  0  0  0
  3 94  1  0  0  0
  3 95  1  0  0  0
  4  5  1  0  0  0
  4 96  1  0  0  0
  4 97  1  0  0  0
  5  6  1  0  0  0
  5 26  1  0  0  0
  5 98  1  0  0  0
  6 25  1  0  0  0
  6 99  1  0  0  0
  6100  1  0  0  0
  7  8  2  0  0  0
  7 26  1  0  0  0
  7 29  1  0  0  0
  8  9  1  0  0  0
  8 22  1  0  0  0
  9 10  1  0  0  0
  9 27  2  0  0  0
 10 11  2  0  0  0
 10 15  1  0  0  0
 11 12  1  0  0  0
 11101  1  0  0  0
 12 13  2  0  0  0
 12102  1  0  0  0
 13 14  1  0  0  0
 13 31  1  0  0  0
 14 15  2  0  0  0
 14103  1  0  0  0
 15104  1  0  0  0
 16 17  2  0  0  0
 16 21  1  0  0  0
 16 31  1  0  0  0
 17 18  1  0  0  0
 17105  1  0  0  0
 18 19  2  0  0  0
 18106  1  0  0  0
 19 20  1  0  0  0
 19 24  1  0  0  0
 20 21  2  0  0  0
 20107  1  0  0  0
 21 23  1  0  0  0
 22 28  1  0  0  0
 22 32  2  0  0  0
 26 27  1  0  0  0
 28108  1  0  0  0
 28109  1  0  0  0
 29110  1  0  0  0
 29111  1  0  0  0
 33 34  1  0  0  0
 33 66  1  0  0  0
 33 70  2  0  0  0
 34 36  1  0  0  0
 34 59  1  0  0  0
 34112  1  0  0  0
 35 44  2  0  0  0
 35 45  1  0  0  0
 35 68  1  0  0  0
 36 56  1  0  0  0
 36113  1  0  0  0
 37 39  1  0  0  0
 37 47  1  0  0  0
 37 66  1  0  0  0
 37114  1  0  0  0
 38 43  2  0  0  0
 38 46  1  0  0  0
 38 47  1  0  0  0
 39 64  1  0  0  0
 39 67  2  0  0  0
 40 52  1  0  0  0
 40 53  2  0  0  0
 40 58  1  0  0  0
 41115  1  0  0  0
 41116  1  0  0  0
 41117  1  0  0  0
 41 48  1  0  0  0
 42 43  1  0  0  0
 42 66  1  0  0  0
 42118  1  0  0  0
 42119  1  0  0  0
 43 44  1  0  0  0
 44120  1  0  0  0
 45 46  2  0  0  0
 45121  1  0  0  0
 46122  1  0  0  0
 47123  1  0  0  0
 47124  1  0  0  0
 48 56  1  0  0  0
 48 65  1  0  0  0
 48125  1  0  0  0
 49 50  1  0  0  0
 49 53  1  0  0  0
 49 64  1  0  0  0
 49126  1  0  0  0
 50 51  1  0  0  0
 50127  1  0  0  0
 50128  1  0  0  0
 51 52  1  0  0  0
 51129  1  0  0  0
 51130  1  0  0  0
 52131  1  0  0  0
 52132  1  0  0  0
 53 54  1  0  0  0
 54 55  2  0  0  0
 54133  1  0  0  0
 55 57  1  0  0  0
 55134  1  0  0  0
 56 69  2  0  0  0
 57 58  2  0  0  0
 57135  1  0  0  0
 58136  1  0  0  0
 59 60  1  0  0  0
 59 61  1  0  0  0
 59 62  1  0  0  0
 60137  1  0  0  0
 60138  1  0  0  0
 60139  1  0  0  0
 61140  1  0  0  0
 61141  1  0  0  0
 61142  1  0  0  0
 62143  1  0  0  0
 62144  1  0  0  0
 62145  1  0  0  0
 63 65  1  0  0  0
 63146  1  0  0  0
 63147  1  0  0  0
 63148  1  0  0  0
 64149  1  0  0  0
 65150  1  0  0  0
 68 80  1  0  0  0
 71 87  1  0  0  0
 71 88  2  0  0  0
 71 79  1  0  0  0
 72 81  1  0  0  0
 72 87  2  0  0  0
 72 89  1  0  0  0
 73 88  1  0  0  0
 73 89  2  0  0  0
 73 91  1  0  0  0
 74 75  1  0  0  0
 74 77  1  0  0  0
 74151  1  0  0  0
 74152  1  0  0  0
 75 79  1  0  0  0
 75153  1  0  0  0
 75154  1  0  0  0
 76 78  1  0  0  0
 76 79  1  0  0  0
 76155  1  0  0  0
 76156  1  0  0  0
 77 80  1  0  0  0
 77157  1  0  0  0
 77158  1  0  0  0
 78 80  1  0  0  0
 78159  1  0  0  0
 78160  1  0  0  0
 79161  1  0  0  0
 80162  1  0  0  0
 81163  1  0  0  0
 81164  1  0  0  0
 81165  1  0  0  0
 82166  1  0  0  0
 82167  1  0  0  0
 82168  1  0  0  0
 82 86  1  0  0  0
 83 86  1  0  0  0
 83169  1  0  0  0
 83170  1  0  0  0
 83171  1  0  0  0
 84 91  1  0  0  0
 84172  1  0  0  0
 84173  1  0  0  0
 84174  1  0  0  0
 85 86  1  0  0  0
 85 90  1  0  0  0
 85175  1  0  0  0
 85176  1  0  0  0
 86 91  1  0  0  0
 90177  1  0  0  0
M  ISO  4   1 100  68 101  80 101  90 100
M  END
> <chiral flag>
0

> <version>
0

> <s_m_source_file>
/data/baiqing/PycharmProjects/Reinvent-master-3.2/result/LINK_invent/BTK/process_docking_weight1_custom_sum_contain_oxygen_bond_distance_aromatic_linkinvent_7_9_3/rearranged_h_0068.sdf

> <i_m_source_file_index>
12

> <r_mmod_Potential_Energy-OPLS-2005>
-726.652038574219

> <r_mmod_Stretch_Energy-OPLS-2005>
41.5615386962891

> <r_mmod_Bend_Energy-OPLS-2005>
142.155380249023

> <r_mmod_Torsional_Energy-OPLS-2005>
298.174865722656

> <r_mmod_Improper_Torsional_Energy-OPLS-2005>
8.09897804260254

> <r_mmod_Van_der_Waal_Energy-OPLS-2005>
189.6435546875

> <r_mmod_Electrostatic_Energy-OPLS-2005>
-1189.06860351562

> <r_mmod_Solvation_Energy-OPLS-2005>
-230.681213378906

> <b_mmod_Minimization_Converged-OPLS-2005>
0

> <r_mmod_RMS_Derivative-OPLS-2005>
5.76040697097778

$$$$
13
                    3D
 Structure written by MMmdl.
172180  0  0  1  0            999 V2000
  -30.7044  -14.5866   20.5331 C   0  0  0  0  0  0
  -30.4302  -12.3751   19.4288 C   0  0  0  0  0  0
  -29.4959  -12.5047   18.2072 C   0  0  0  0  0  0
  -28.0212  -12.3570   18.6262 C   0  0  0  0  0  0
  -27.6597  -13.2143   19.8687 C   0  0  2  0  0  0
  -28.7115  -13.0610   20.9873 C   0  0  0  0  0  0
  -25.2605  -13.8131   20.5723 C   0  0  0  0  0  0
  -24.1846  -13.0435   20.9140 C   0  0  0  0  0  0
  -24.6398  -11.6895   20.8697 C   0  0  0  0  0  0
  -23.9053  -10.4292   21.0369 C   0  0  0  0  0  0
  -24.3589   -9.4217   21.9162 C   0  0  0  0  0  0
  -23.6264   -8.2256   22.0755 C   0  0  0  0  0  0
  -22.4256   -8.0269   21.3533 C   0  0  0  0  0  0
  -21.9890   -9.0250   20.4643 C   0  0  0  0  0  0
  -22.7214  -10.2129   20.3046 C   0  0  0  0  0  0
  -21.6867   -6.0711   22.5261 C   0  0  0  0  0  0
  -21.4016   -6.5618   23.8186 C   0  0  0  0  0  0
  -21.3659   -5.6778   24.9153 C   0  0  0  0  0  0
  -21.6049   -4.3040   24.7215 C   0  0  0  0  0  0
  -21.8823   -3.8128   23.4339 C   0  0  0  0  0  0
  -21.9197   -4.6938   22.3393 C   0  0  0  0  0  0
  -22.7859  -13.5234   21.1791 C   0  0  0  0  0  0
  -22.1664   -4.2125   21.0973 F   0  0  0  0  0  0
  -21.5637   -3.4525   25.7732 F   0  0  0  0  0  0
  -30.0306  -13.3944   20.4220 N   0  0  0  0  0  0
  -26.3055  -12.9332   20.3388 N   0  0  0  0  0  0
  -25.9339  -11.6483   20.5760 N   0  0  0  0  0  0
  -22.0497  -12.8256   22.0333 N   0  0  0  0  0  0
  -25.4323  -15.1868   20.4166 N   0  0  0  0  0  0
  -31.8252  -14.7358   20.0385 O   0  0  0  0  0  0
  -21.6642   -6.8860   21.4226 O   0  0  0  0  0  0
  -22.3551  -14.5547   20.6626 O   0  0  0  0  0  0
  -24.6224  -31.8637   23.2107 C   0  0  0  0  0  0
  -25.9088  -32.4782   23.8416 C   0  0  1  0  0  0
  -27.2064  -27.3423   20.1059 C   0  0  0  0  0  0
  -25.5892  -33.8581   24.2336 N   0  0  0  0  0  0
  -23.4118  -30.4966   21.5502 C   0  0  2  0  0  0
  -24.8606  -28.9700   20.1036 C   0  0  0  0  0  0
  -22.7472  -29.4632   22.4950 C   0  0  0  0  0  0
  -18.0236  -28.1349   22.8546 C   0  0  0  0  0  0
  -24.1429  -36.7264   23.2660 C   0  0  0  0  0  0
  -25.9595  -30.8026   21.3811 C   0  0  0  0  0  0
  -26.0320  -29.4359   20.7182 C   0  0  0  0  0  0
  -27.2152  -28.6330   20.7146 C   0  0  0  0  0  0
  -26.0270  -26.9543   19.4338 C   0  0  0  0  0  0
  -24.8618  -27.7358   19.4443 C   0  0  0  0  0  0
  -23.6241  -29.8431   20.1610 C   0  0  0  0  0  0
  -25.4057  -36.3081   24.0363 C   0  0  1  0  0  0
  -20.5871  -28.3615   23.1294 C   0  0  2  0  0  0
  -20.6717  -26.9341   22.5390 C   0  0  0  0  0  0
  -19.5682  -26.6387   21.5186 C   0  0  0  0  0  0
  -18.1878  -26.7898   22.1642 C   0  0  0  0  0  0
  -19.1521  -28.8813   23.2902 C   0  0  0  0  0  0
  -18.9432  -30.1424   23.8890 C   0  0  0  0  0  0
  -17.6441  -30.6568   24.0579 C   0  0  0  0  0  0
  -25.9024  -34.9451   23.5164 C   0  0  0  0  0  0
  -16.5336  -29.9087   23.6318 C   0  0  0  0  0  0
  -16.7232  -28.6491   23.0380 C   0  0  0  0  0  0
  -26.4498  -31.6550   25.0763 C   0  0  0  0  0  0
  -25.3799  -31.3620   26.1539 C   0  0  0  0  0  0
  -27.0335  -30.2996   24.6162 C   0  0  0  0  0  0
  -27.6077  -32.4277   25.7490 C   0  0  0  0  0  0
  -27.5518  -37.1785   24.8476 C   0  0  0  0  0  0
  -21.4166  -29.3015   22.3736 N   0  0  0  0  0  0
  -26.4209  -37.3802   23.9470 N   0  0  0  0  0  0
  -24.6812  -31.0744   22.1002 N   0  0  0  0  0  0
  -23.4226  -28.8125   23.2950 O   0  0  0  0  0  0
  -28.2580  -26.4174   20.1584 O   0  0  0  0  0  0
  -26.5599  -34.8920   22.4725 O   0  0  0  0  0  0
  -23.5382  -32.1386   23.7499 O   0  0  0  0  0  0
  -29.8381  -21.9660   21.3703 C   0  0  0  0  0  0
  -29.1054  -20.9855   20.6351 C   0  0  0  0  0  0
  -27.8046  -22.7585   19.7762 C   0  0  0  0  0  0
  -28.4982  -23.7442   20.5508 C   0  0  0  0  0  0
  -30.2990  -21.4008   23.7981 C   0  0  0  0  0  0
  -24.0125  -23.2864   18.9632 C   0  0  0  0  0  0
  -29.4386  -16.7224   18.8035 C   0  0  0  0  0  0
  -30.0612  -15.7974   22.5163 C   0  0  0  0  0  0
  -30.8921  -21.5889   22.3965 C   0  0  0  0  0  0
  -29.0228  -19.4449   20.9622 C   0  0  0  0  0  0
  -26.5684  -23.0630   18.9491 C   0  0  0  0  0  0
  -27.9075  -25.1760   20.8947 C   0  0  0  0  0  0
  -25.2429  -22.6444   19.6313 C   0  0  0  0  0  0
  -30.1297  -18.3533   20.6448 C   0  0  0  0  0  0
  -29.5219  -16.9019   20.3346 C   0  0  2  0  0  0
  -28.1355  -21.4302   19.7927 N   0  0  0  0  0  0
  -29.5520  -23.3104   21.3076 N   0  0  0  0  0  0
  -30.0340  -15.6672   21.0578 N   0  0  0  0  0  0
  -31.4701  -12.4791   19.1141 H   0  0  0  0  0  0
  -30.3529  -11.3746   19.8600 H   0  0  0  0  0  0
  -29.7457  -11.7496   17.4601 H   0  0  0  0  0  0
  -29.6491  -13.4709   17.7221 H   0  0  0  0  0  0
  -27.8429  -11.3031   18.8353 H   0  0  0  0  0  0
  -27.3658  -12.6142   17.7917 H   0  0  0  0  0  0
  -27.6777  -14.2542   19.5482 H   0  0  0  0  0  0
  -28.7200  -12.0389   21.3700 H   0  0  0  0  0  0
  -28.4493  -13.6886   21.8359 H   0  0  0  0  0  0
  -25.2726   -9.5706   22.4728 H   0  0  0  0  0  0
  -23.9976   -7.4671   22.7493 H   0  0  0  0  0  0
  -21.0816   -8.8732   19.8959 H   0  0  0  0  0  0
  -22.3630  -10.9647   19.6150 H   0  0  0  0  0  0
  -21.1998   -7.6123   23.9669 H   0  0  0  0  0  0
  -21.1483   -6.0516   25.9051 H   0  0  0  0  0  0
  -22.0603   -2.7591   23.2843 H   0  0  0  0  0  0
  -22.4112  -11.9955   22.4790 H   0  0  0  0  0  0
  -21.1098  -13.1264   22.2493 H   0  0  0  0  0  0
  -24.6710  -15.8442   20.5471 H   0  0  0  0  0  0
  -26.2970  -15.6264   20.1316 H   0  0  0  0  0  0
  -26.7197  -32.5474   23.1196 H   0  0  0  0  0  0
  -25.0013  -33.9732   25.0464 H   0  0  0  0  0  0
  -22.6974  -31.3111   21.4196 H   0  0  0  0  0  0
  -23.3676  -35.9600   23.3348 H   0  0  0  0  0  0
  -24.3517  -36.8844   22.2060 H   0  0  0  0  0  0
  -23.7162  -37.6489   23.6645 H   0  0  0  0  0  0
  -26.1077  -31.5665   20.6190 H   0  0  0  0  0  0
  -26.8350  -30.8429   22.0149 H   0  0  0  0  0  0
  -28.1072  -28.9871   21.2142 H   0  0  0  0  0  0
  -25.9893  -26.0292   18.8923 H   0  0  0  0  0  0
  -23.9754  -27.3935   18.9266 H   0  0  0  0  0  0
  -23.7272  -30.6258   19.4069 H   0  0  0  0  0  0
  -22.7444  -29.2687   19.8635 H   0  0  0  0  0  0
  -25.1213  -36.1929   25.0846 H   0  0  0  0  0  0
  -20.9982  -28.3149   24.1413 H   0  0  0  0  0  0
  -20.5538  -26.2231   23.3584 H   0  0  0  0  0  0
  -21.6591  -26.7294   22.1249 H   0  0  0  0  0  0
  -19.6814  -25.6296   21.1185 H   0  0  0  0  0  0
  -19.6618  -27.3227   20.6739 H   0  0  0  0  0  0
  -17.4142  -26.6631   21.4069 H   0  0  0  0  0  0
  -18.0291  -25.9993   22.8985 H   0  0  0  0  0  0
  -19.7882  -30.7253   24.2288 H   0  0  0  0  0  0
  -17.4959  -31.6254   24.5136 H   0  0  0  0  0  0
  -15.5328  -30.3007   23.7604 H   0  0  0  0  0  0
  -15.8604  -28.0790   22.7162 H   0  0  0  0  0  0
  -24.6030  -30.6876   25.7922 H   0  0  0  0  0  0
  -24.8913  -32.2741   26.4985 H   0  0  0  0  0  0
  -25.8239  -30.8849   27.0284 H   0  0  0  0  0  0
  -26.2891  -29.6787   24.1193 H   0  0  0  0  0  0
  -27.4071  -29.7207   25.4601 H   0  0  0  0  0  0
  -27.8740  -30.4307   23.9352 H   0  0  0  0  0  0
  -27.2721  -33.3595   26.2040 H   0  0  0  0  0  0
  -28.3889  -32.6800   25.0313 H   0  0  0  0  0  0
  -28.0750  -31.8414   26.5409 H   0  0  0  0  0  0
  -28.2576  -38.0058   24.7559 H   0  0  0  0  0  0
  -28.0979  -36.2614   24.6234 H   0  0  0  0  0  0
  -27.2278  -37.1351   25.8894 H   0  0  0  0  0  0
  -20.9305  -29.8747   21.6990 H   0  0  0  0  0  0
  -26.0067  -38.2846   24.1577 H   0  0  0  0  0  0
  -29.6203  -22.2181   24.0458 H   0  0  0  0  0  0
  -31.0836  -21.3891   24.5550 H   0  0  0  0  0  0
  -29.7446  -20.4656   23.8718 H   0  0  0  0  0  0
  -24.1045  -23.3327   17.8734 H   0  0  0  0  0  0
  -23.8615  -24.3077   19.3234 H   0  0  0  0  0  0
  -23.1102  -22.7167   19.1939 H   0  0  0  0  0  0
  -28.9041  -17.5621   18.3562 H   0  0  0  0  0  0
  -28.9090  -15.8195   18.5047 H   0  0  0  0  0  0
  -30.4288  -16.6972   18.3486 H   0  0  0  0  0  0
  -29.2060  -16.3668   22.8880 H   0  0  0  0  0  0
  -30.9781  -16.3023   22.8226 H   0  0  0  0  0  0
  -30.0462  -14.8271   23.0178 H   0  0  0  0  0  0
  -31.6386  -22.3844   22.4308 H   0  0  0  0  0  0
  -31.4288  -20.6934   22.0805 H   0  0  0  0  0  0
  -28.1270  -19.1087   20.4408 H   0  0  0  0  0  0
  -28.7637  -19.3492   22.0154 H   0  0  0  0  0  0
  -26.6610  -22.5422   17.9931 H   0  0  0  0  0  0
  -26.5852  -24.1131   18.6922 H   0  0  0  0  0  0
  -28.1786  -25.3830   21.9301 H   0  0  0  0  0  0
  -26.8249  -25.0515   20.9511 H   0  0  0  0  0  0
  -25.1679  -21.5502   19.6124 H   0  0  0  0  0  0
  -25.2377  -22.9270   20.6854 H   0  0  0  0  0  0
  -30.8553  -18.3131   21.4592 H   0  0  0  0  0  0
  -30.7021  -18.6947   19.7794 H   0  0  0  0  0  0
  -28.4848  -16.9275   20.6675 H   0  0  0  0  0  0
  1 25  1  0  0  0
  1 30  2  0  0  0
  1 88  1  0  0  0
  2  3  1  0  0  0
  2 25  1  0  0  0
  2 89  1  0  0  0
  2 90  1  0  0  0
  3  4  1  0  0  0
  3 91  1  0  0  0
  3 92  1  0  0  0
  4  5  1  0  0  0
  4 93  1  0  0  0
  4 94  1  0  0  0
  5  6  1  0  0  0
  5 26  1  0  0  0
  5 95  1  0  0  0
  6 25  1  0  0  0
  6 96  1  0  0  0
  6 97  1  0  0  0
  7  8  2  0  0  0
  7 26  1  0  0  0
  7 29  1  0  0  0
  8  9  1  0  0  0
  8 22  1  0  0  0
  9 10  1  0  0  0
  9 27  2  0  0  0
 10 11  2  0  0  0
 10 15  1  0  0  0
 11 12  1  0  0  0
 11 98  1  0  0  0
 12 13  2  0  0  0
 12 99  1  0  0  0
 13 14  1  0  0  0
 13 31  1  0  0  0
 14 15  2  0  0  0
 14100  1  0  0  0
 15101  1  0  0  0
 16 17  2  0  0  0
 16 21  1  0  0  0
 16 31  1  0  0  0
 17 18  1  0  0  0
 17102  1  0  0  0
 18 19  2  0  0  0
 18103  1  0  0  0
 19 20  1  0  0  0
 19 24  1  0  0  0
 20 21  2  0  0  0
 20104  1  0  0  0
 21 23  1  0  0  0
 22 28  1  0  0  0
 22 32  2  0  0  0
 26 27  1  0  0  0
 28105  1  0  0  0
 28106  1  0  0  0
 29107  1  0  0  0
 29108  1  0  0  0
 33 34  1  0  0  0
 33 66  1  0  0  0
 33 70  2  0  0  0
 34 36  1  0  0  0
 34 59  1  0  0  0
 34109  1  0  0  0
 35 44  2  0  0  0
 35 45  1  0  0  0
 35 68  1  0  0  0
 36 56  1  0  0  0
 36110  1  0  0  0
 37 39  1  0  0  0
 37 47  1  0  0  0
 37 66  1  0  0  0
 37111  1  0  0  0
 38 43  2  0  0  0
 38 46  1  0  0  0
 38 47  1  0  0  0
 39 64  1  0  0  0
 39 67  2  0  0  0
 40 52  1  0  0  0
 40 53  2  0  0  0
 40 58  1  0  0  0
 41112  1  0  0  0
 41113  1  0  0  0
 41114  1  0  0  0
 41 48  1  0  0  0
 42 43  1  0  0  0
 42 66  1  0  0  0
 42115  1  0  0  0
 42116  1  0  0  0
 43 44  1  0  0  0
 44117  1  0  0  0
 45 46  2  0  0  0
 45118  1  0  0  0
 46119  1  0  0  0
 47120  1  0  0  0
 47121  1  0  0  0
 48 56  1  0  0  0
 48 65  1  0  0  0
 48122  1  0  0  0
 49 50  1  0  0  0
 49 53  1  0  0  0
 49 64  1  0  0  0
 49123  1  0  0  0
 50 51  1  0  0  0
 50124  1  0  0  0
 50125  1  0  0  0
 51 52  1  0  0  0
 51126  1  0  0  0
 51127  1  0  0  0
 52128  1  0  0  0
 52129  1  0  0  0
 53 54  1  0  0  0
 54 55  2  0  0  0
 54130  1  0  0  0
 55 57  1  0  0  0
 55131  1  0  0  0
 56 69  2  0  0  0
 57 58  2  0  0  0
 57132  1  0  0  0
 58133  1  0  0  0
 59 60  1  0  0  0
 59 61  1  0  0  0
 59 62  1  0  0  0
 60134  1  0  0  0
 60135  1  0  0  0
 60136  1  0  0  0
 61137  1  0  0  0
 61138  1  0  0  0
 61139  1  0  0  0
 62140  1  0  0  0
 62141  1  0  0  0
 62142  1  0  0  0
 63 65  1  0  0  0
 63143  1  0  0  0
 63144  1  0  0  0
 63145  1  0  0  0
 64146  1  0  0  0
 65147  1  0  0  0
 68 82  1  0  0  0
 71 72  2  0  0  0
 71 79  1  0  0  0
 71 87  1  0  0  0
 72 80  1  0  0  0
 72 86  1  0  0  0
 73 74  1  0  0  0
 73 81  1  0  0  0
 73 86  2  0  0  0
 74 82  1  0  0  0
 74 87  2  0  0  0
 75 79  1  0  0  0
 75148  1  0  0  0
 75149  1  0  0  0
 75150  1  0  0  0
 76 83  1  0  0  0
 76151  1  0  0  0
 76152  1  0  0  0
 76153  1  0  0  0
 77154  1  0  0  0
 77155  1  0  0  0
 77156  1  0  0  0
 77 85  1  0  0  0
 78 88  1  0  0  0
 78157  1  0  0  0
 78158  1  0  0  0
 78159  1  0  0  0
 79160  1  0  0  0
 79161  1  0  0  0
 80 84  1  0  0  0
 80162  1  0  0  0
 80163  1  0  0  0
 81 83  1  0  0  0
 81164  1  0  0  0
 81165  1  0  0  0
 82166  1  0  0  0
 82167  1  0  0  0
 83168  1  0  0  0
 83169  1  0  0  0
 84 85  1  0  0  0
 84170  1  0  0  0
 84171  1  0  0  0
 85 88  1  0  0  0
 85172  1  0  0  0
M  ISO  4   1 100  68 101  82 101  88 100
M  END
> <chiral flag>
0

> <version>
0

> <s_m_source_file>
/data/baiqing/PycharmProjects/Reinvent-master-3.2/result/LINK_invent/BTK/process_docking_weight1_custom_sum_contain_oxygen_bond_distance_aromatic_linkinvent_7_9_3/rearranged_h_0068.sdf

> <i_m_source_file_index>
13

> <r_mmod_Potential_Energy-OPLS-2005>
405.704193115234

> <r_mmod_Stretch_Energy-OPLS-2005>
92.4600524902344

> <r_mmod_Bend_Energy-OPLS-2005>
172.700561523438

> <r_mmod_Torsional_Energy-OPLS-2005>
351.702087402344

> <r_mmod_Improper_Torsional_Energy-OPLS-2005>
9.54046058654785

> <r_mmod_Van_der_Waal_Energy-OPLS-2005>
136.851806640625

> <r_mmod_Electrostatic_Energy-OPLS-2005>
-199.847991943359

> <r_mmod_Solvation_Energy-OPLS-2005>
-200.911056518555

> <b_mmod_Minimization_Converged-OPLS-2005>
0

> <r_mmod_RMS_Derivative-OPLS-2005>
6.22768878936768

$$$$
14
                    3D
 Structure written by MMmdl.
171180  0  0  1  0            999 V2000
  -30.6809  -14.4708   20.4896 C   0  0  0  0  0  0
  -30.4283  -12.2593   19.4502 C   0  0  0  0  0  0
  -29.5085  -12.4209   18.2196 C   0  0  0  0  0  0
  -28.0157  -12.3559   18.6163 C   0  0  0  0  0  0
  -27.6597  -13.2082   19.8678 C   0  0  2  0  0  0
  -28.7022  -13.0132   20.9902 C   0  0  0  0  0  0
  -25.2597  -13.8175   20.5725 C   0  0  0  0  0  0
  -24.1827  -13.0429   20.9177 C   0  0  0  0  0  0
  -24.6388  -11.6908   20.8766 C   0  0  0  0  0  0
  -23.9039  -10.4291   21.0432 C   0  0  0  0  0  0
  -24.3595   -9.4211   21.9208 C   0  0  0  0  0  0
  -23.6274   -8.2238   22.0774 C   0  0  0  0  0  0
  -22.4251   -8.0269   21.3568 C   0  0  0  0  0  0
  -21.9894   -9.0241   20.4669 C   0  0  0  0  0  0
  -22.7225  -10.2117   20.3074 C   0  0  0  0  0  0
  -21.6835   -6.0689   22.5275 C   0  0  0  0  0  0
  -21.3998   -6.5596   23.8204 C   0  0  0  0  0  0
  -21.3706   -5.6773   24.9185 C   0  0  0  0  0  0
  -21.6066   -4.3032   24.7262 C   0  0  0  0  0  0
  -21.8808   -3.8105   23.4386 C   0  0  0  0  0  0
  -21.9169   -4.6907   22.3430 C   0  0  0  0  0  0
  -22.7865  -13.5263   21.1819 C   0  0  0  0  0  0
  -22.1634   -4.2071   21.1012 F   0  0  0  0  0  0
  -21.5669   -3.4541   25.7799 F   0  0  0  0  0  0
  -30.0374  -13.2762   20.4358 N   0  0  0  0  0  0
  -26.3013  -12.9335   20.3351 N   0  0  0  0  0  0
  -25.9314  -11.6494   20.5788 N   0  0  0  0  0  0
  -22.0492  -12.8248   22.0387 N   0  0  0  0  0  0
  -25.4329  -15.1910   20.4318 N   0  0  0  0  0  0
  -31.8484  -14.6221   20.1203 O   0  0  0  0  0  0
  -21.6640   -6.8841   21.4245 O   0  0  0  0  0  0
  -22.3545  -14.5555   20.6661 O   0  0  0  0  0  0
  -24.6105  -31.8703   23.2097 C   0  0  0  0  0  0
  -25.9014  -32.4837   23.8380 C   0  0  1  0  0  0
  -27.2398  -27.4694   20.0735 C   0  0  0  0  0  0
  -25.5889  -33.8625   24.2329 N   0  0  0  0  0  0
  -23.3943  -30.4943   21.5496 C   0  0  2  0  0  0
  -24.8409  -28.9568   20.1174 C   0  0  0  0  0  0
  -22.7388  -29.4671   22.4989 C   0  0  0  0  0  0
  -18.0254  -28.1374   22.8511 C   0  0  0  0  0  0
  -24.1488  -36.7317   23.2640 C   0  0  0  0  0  0
  -25.9208  -30.8414   21.3609 C   0  0  0  0  0  0
  -25.9962  -29.4741   20.7153 C   0  0  0  0  0  0
  -27.1934  -28.7294   20.7051 C   0  0  0  0  0  0
  -26.0625  -26.9440   19.4974 C   0  0  0  0  0  0
  -24.8666  -27.6867   19.5137 C   0  0  0  0  0  0
  -23.6021  -29.8221   20.1647 C   0  0  0  0  0  0
  -25.4115  -36.3115   24.0332 C   0  0  1  0  0  0
  -20.5840  -28.3661   23.1336 C   0  0  2  0  0  0
  -20.6749  -26.9394   22.5437 C   0  0  0  0  0  0
  -19.5736  -26.6389   21.5216 C   0  0  0  0  0  0
  -18.1919  -26.7911   22.1653 C   0  0  0  0  0  0
  -19.1502  -28.8829   23.2914 C   0  0  0  0  0  0
  -18.9455  -30.1444   23.8909 C   0  0  0  0  0  0
  -17.6465  -30.6579   24.0586 C   0  0  0  0  0  0
  -25.9017  -34.9476   23.5115 C   0  0  0  0  0  0
  -16.5354  -29.9088   23.6339 C   0  0  0  0  0  0
  -16.7238  -28.6514   23.0334 C   0  0  0  0  0  0
  -26.4461  -31.6593   25.0687 C   0  0  0  0  0  0
  -25.3734  -31.3729   26.1443 C   0  0  0  0  0  0
  -27.0245  -30.3020   24.6049 C   0  0  0  0  0  0
  -27.6033  -32.4271   25.7485 C   0  0  0  0  0  0
  -27.5586  -37.1824   24.8477 C   0  0  0  0  0  0
  -21.4106  -29.3045   22.3751 N   0  0  0  0  0  0
  -26.4296  -37.3808   23.9404 N   0  0  0  0  0  0
  -24.6585  -31.0850   22.0985 N   0  0  0  0  0  0
  -23.4202  -28.8196   23.2985 O   0  0  0  0  0  0
  -28.4313  -26.7848   20.0844 O   0  0  0  0  0  0
  -26.5608  -34.8946   22.4698 O   0  0  0  0  0  0
  -23.5315  -32.1408   23.7563 O   0  0  0  0  0  0
  -29.6800  -16.3559   21.8833 C   0  0  0  0  0  0
  -30.0029  -22.3330   22.1562 C   0  0  0  0  0  0
  -30.1262  -20.1637   20.5591 C   0  0  0  0  0  0
  -29.8630  -15.6992   20.6984 C   0  0  0  0  0  0
  -29.0190  -17.5679   21.4965 C   0  0  0  0  0  0
  -30.6993  -22.3625   20.9254 C   0  0  0  0  0  0
  -29.4342  -20.1014   21.8031 C   0  0  0  0  0  0
  -30.2744  -17.5062   17.6276 C   0  0  0  0  0  0
  -29.1847  -18.5608   23.7857 C   0  0  0  0  0  0
  -27.1932  -19.0528   22.3520 C   0  0  0  0  0  0
  -31.4744  -23.5850   20.4559 C   0  0  0  0  0  0
  -30.6379  -24.8645   20.2829 C   0  0  0  0  0  0
  -29.4165  -24.7069   19.3595 C   0  0  0  0  0  0
  -29.4392  -16.3697   18.2359 C   0  0  0  0  0  0
  -28.8148  -26.0494   18.9248 C   0  0  0  0  0  0
  -28.7193  -18.8224   22.3341 C   0  0  0  0  0  0
  -30.7408  -21.2842   20.1136 N   0  0  0  0  0  0
  -29.3619  -21.2171   22.5862 N   0  0  0  0  0  0
  -28.6945  -17.5429   20.2048 N   0  0  0  0  0  0
  -29.3473  -16.4849   19.6841 N   0  0  0  0  0  0
  -31.4776  -12.3313   19.1539 H   0  0  0  0  0  0
  -30.3083  -11.2642   19.8782 H   0  0  0  0  0  0
  -29.7292  -11.6338   17.4979 H   0  0  0  0  0  0
  -29.7329  -13.3482   17.7013 H   0  0  0  0  0  0
  -27.7773  -11.3064   18.8015 H   0  0  0  0  0  0
  -27.3929  -12.6577   17.7740 H   0  0  0  0  0  0
  -27.6917  -14.2540   19.5624 H   0  0  0  0  0  0
  -28.6633  -11.9945   21.3775 H   0  0  0  0  0  0
  -28.4786  -13.6584   21.8401 H   0  0  0  0  0  0
  -25.2739   -9.5685   22.4763 H   0  0  0  0  0  0
  -23.9987   -7.4614   22.7478 H   0  0  0  0  0  0
  -21.0834   -8.8748   19.8969 H   0  0  0  0  0  0
  -22.3688  -10.9636   19.6161 H   0  0  0  0  0  0
  -21.1959   -7.6094   23.9672 H   0  0  0  0  0  0
  -21.1578   -6.0526   25.9081 H   0  0  0  0  0  0
  -22.0551   -2.7545   23.2928 H   0  0  0  0  0  0
  -22.4090  -11.9913   22.4765 H   0  0  0  0  0  0
  -21.1095  -13.1282   22.2498 H   0  0  0  0  0  0
  -24.6812  -15.8522   20.5921 H   0  0  0  0  0  0
  -26.3110  -15.6421   20.2046 H   0  0  0  0  0  0
  -26.7089  -32.5590   23.1146 H   0  0  0  0  0  0
  -25.0041  -33.9790   25.0481 H   0  0  0  0  0  0
  -22.6796  -31.3104   21.4134 H   0  0  0  0  0  0
  -23.3742  -35.9656   23.3320 H   0  0  0  0  0  0
  -24.3564  -36.8896   22.2042 H   0  0  0  0  0  0
  -23.7259  -37.6533   23.6651 H   0  0  0  0  0  0
  -26.0252  -31.6042   20.5869 H   0  0  0  0  0  0
  -26.8138  -30.9006   21.9736 H   0  0  0  0  0  0
  -28.0843  -29.1265   21.1703 H   0  0  0  0  0  0
  -26.0482  -25.9595   19.0527 H   0  0  0  0  0  0
  -23.9759  -27.2712   19.0651 H   0  0  0  0  0  0
  -23.7135  -30.5948   19.4037 H   0  0  0  0  0  0
  -22.7275  -29.2386   19.8702 H   0  0  0  0  0  0
  -25.1300  -36.1982   25.0821 H   0  0  0  0  0  0
  -20.9939  -28.3186   24.1451 H   0  0  0  0  0  0
  -20.5635  -26.2262   23.3621 H   0  0  0  0  0  0
  -21.6634  -26.7458   22.1249 H   0  0  0  0  0  0
  -19.6920  -25.6306   21.1223 H   0  0  0  0  0  0
  -19.6684  -27.3216   20.6752 H   0  0  0  0  0  0
  -17.4202  -26.6631   21.4053 H   0  0  0  0  0  0
  -18.0312  -26.0077   22.9070 H   0  0  0  0  0  0
  -19.7939  -30.7258   24.2246 H   0  0  0  0  0  0
  -17.5017  -31.6263   24.5181 H   0  0  0  0  0  0
  -15.5339  -30.3004   23.7645 H   0  0  0  0  0  0
  -15.8653  -28.0868   22.6991 H   0  0  0  0  0  0
  -24.5866  -30.7118   25.7830 H   0  0  0  0  0  0
  -24.8958  -32.2889   26.4901 H   0  0  0  0  0  0
  -25.8114  -30.8901   27.0192 H   0  0  0  0  0  0
  -26.2759  -29.6855   24.1059 H   0  0  0  0  0  0
  -27.3871  -29.7158   25.4517 H   0  0  0  0  0  0
  -27.8663  -30.4316   23.9227 H   0  0  0  0  0  0
  -27.2632  -33.3538   26.2136 H   0  0  0  0  0  0
  -28.3872  -32.6820   25.0334 H   0  0  0  0  0  0
  -28.0662  -31.8339   26.5379 H   0  0  0  0  0  0
  -28.2631  -38.0104   24.7507 H   0  0  0  0  0  0
  -28.1057  -36.2638   24.6311 H   0  0  0  0  0  0
  -27.2302  -37.1452   25.8882 H   0  0  0  0  0  0
  -20.9194  -29.8787   21.7022 H   0  0  0  0  0  0
  -26.0185  -38.2886   24.1407 H   0  0  0  0  0  0
  -30.0435  -16.0604   22.8567 H   0  0  0  0  0  0
  -29.9807  -23.2008   22.7969 H   0  0  0  0  0  0
  -30.2245  -19.3316   19.8865 H   0  0  0  0  0  0
  -30.4336  -17.3475   16.5608 H   0  0  0  0  0  0
  -31.2572  -17.5572   18.0979 H   0  0  0  0  0  0
  -29.7954  -18.4775   17.7506 H   0  0  0  0  0  0
  -30.2666  -18.4361   23.8355 H   0  0  0  0  0  0
  -28.7307  -17.6594   24.1991 H   0  0  0  0  0  0
  -28.9269  -19.3817   24.4559 H   0  0  0  0  0  0
  -26.6638  -18.1647   22.6972 H   0  0  0  0  0  0
  -26.8095  -19.2932   21.3595 H   0  0  0  0  0  0
  -26.9282  -19.8772   23.0151 H   0  0  0  0  0  0
  -31.9496  -23.3535   19.5004 H   0  0  0  0  0  0
  -32.2898  -23.7720   21.1507 H   0  0  0  0  0  0
  -31.2947  -25.6446   19.8947 H   0  0  0  0  0  0
  -30.3094  -25.2128   21.2625 H   0  0  0  0  0  0
  -28.6493  -24.1105   19.8552 H   0  0  0  0  0  0
  -29.7019  -24.1507   18.4671 H   0  0  0  0  0  0
  -29.9158  -15.4309   17.9716 H   0  0  0  0  0  0
  -28.4321  -16.3543   17.8164 H   0  0  0  0  0  0
  -28.0146  -25.8760   18.2058 H   0  0  0  0  0  0
  -29.5676  -26.6353   18.3949 H   0  0  0  0  0  0
  1 25  1  0  0  0
  1 30  2  0  0  0
  1 74  1  0  0  0
  2  3  1  0  0  0
  2 25  1  0  0  0
  2 91  1  0  0  0
  2 92  1  0  0  0
  3  4  1  0  0  0
  3 93  1  0  0  0
  3 94  1  0  0  0
  4  5  1  0  0  0
  4 95  1  0  0  0
  4 96  1  0  0  0
  5  6  1  0  0  0
  5 26  1  0  0  0
  5 97  1  0  0  0
  6 25  1  0  0  0
  6 98  1  0  0  0
  6 99  1  0  0  0
  7  8  2  0  0  0
  7 26  1  0  0  0
  7 29  1  0  0  0
  8  9  1  0  0  0
  8 22  1  0  0  0
  9 10  1  0  0  0
  9 27  2  0  0  0
 10 11  2  0  0  0
 10 15  1  0  0  0
 11 12  1  0  0  0
 11100  1  0  0  0
 12 13  2  0  0  0
 12101  1  0  0  0
 13 14  1  0  0  0
 13 31  1  0  0  0
 14 15  2  0  0  0
 14102  1  0  0  0
 15103  1  0  0  0
 16 17  2  0  0  0
 16 21  1  0  0  0
 16 31  1  0  0  0
 17 18  1  0  0  0
 17104  1  0  0  0
 18 19  2  0  0  0
 18105  1  0  0  0
 19 20  1  0  0  0
 19 24  1  0  0  0
 20 21  2  0  0  0
 20106  1  0  0  0
 21 23  1  0  0  0
 22 28  1  0  0  0
 22 32  2  0  0  0
 26 27  1  0  0  0
 28107  1  0  0  0
 28108  1  0  0  0
 29109  1  0  0  0
 29110  1  0  0  0
 33 34  1  0  0  0
 33 66  1  0  0  0
 33 70  2  0  0  0
 34 36  1  0  0  0
 34 59  1  0  0  0
 34111  1  0  0  0
 35 44  2  0  0  0
 35 45  1  0  0  0
 35 68  1  0  0  0
 36 56  1  0  0  0
 36112  1  0  0  0
 37 39  1  0  0  0
 37 47  1  0  0  0
 37 66  1  0  0  0
 37113  1  0  0  0
 38 43  2  0  0  0
 38 46  1  0  0  0
 38 47  1  0  0  0
 39 64  1  0  0  0
 39 67  2  0  0  0
 40 52  1  0  0  0
 40 53  2  0  0  0
 40 58  1  0  0  0
 41114  1  0  0  0
 41115  1  0  0  0
 41116  1  0  0  0
 41 48  1  0  0  0
 42 43  1  0  0  0
 42 66  1  0  0  0
 42117  1  0  0  0
 42118  1  0  0  0
 43 44  1  0  0  0
 44119  1  0  0  0
 45 46  2  0  0  0
 45120  1  0  0  0
 46121  1  0  0  0
 47122  1  0  0  0
 47123  1  0  0  0
 48 56  1  0  0  0
 48 65  1  0  0  0
 48124  1  0  0  0
 49 50  1  0  0  0
 49 53  1  0  0  0
 49 64  1  0  0  0
 49125  1  0  0  0
 50 51  1  0  0  0
 50126  1  0  0  0
 50127  1  0  0  0
 51 52  1  0  0  0
 51128  1  0  0  0
 51129  1  0  0  0
 52130  1  0  0  0
 52131  1  0  0  0
 53 54  1  0  0  0
 54 55  2  0  0  0
 54132  1  0  0  0
 55 57  1  0  0  0
 55133  1  0  0  0
 56 69  2  0  0  0
 57 58  2  0  0  0
 57134  1  0  0  0
 58135  1  0  0  0
 59 60  1  0  0  0
 59 61  1  0  0  0
 59 62  1  0  0  0
 60136  1  0  0  0
 60137  1  0  0  0
 60138  1  0  0  0
 61139  1  0  0  0
 61140  1  0  0  0
 61141  1  0  0  0
 62142  1  0  0  0
 62143  1  0  0  0
 62144  1  0  0  0
 63 65  1  0  0  0
 63145  1  0  0  0
 63146  1  0  0  0
 63147  1  0  0  0
 64148  1  0  0  0
 65149  1  0  0  0
 68 85  1  0  0  0
 71 74  2  0  0  0
 71 75  1  0  0  0
 71150  1  0  0  0
 72 76  2  0  0  0
 72 88  1  0  0  0
 72151  1  0  0  0
 73 77  1  0  0  0
 73 87  2  0  0  0
 73152  1  0  0  0
 74 90  1  0  0  0
 75 86  1  0  0  0
 75 89  2  0  0  0
 76 81  1  0  0  0
 76 87  1  0  0  0
 77 86  1  0  0  0
 77 88  2  0  0  0
 78 84  1  0  0  0
 78153  1  0  0  0
 78154  1  0  0  0
 78155  1  0  0  0
 79156  1  0  0  0
 79157  1  0  0  0
 79158  1  0  0  0
 79 86  1  0  0  0
 80 86  1  0  0  0
 80159  1  0  0  0
 80160  1  0  0  0
 80161  1  0  0  0
 81 82  1  0  0  0
 81162  1  0  0  0
 81163  1  0  0  0
 82 83  1  0  0  0
 82164  1  0  0  0
 82165  1  0  0  0
 83 85  1  0  0  0
 83166  1  0  0  0
 83167  1  0  0  0
 84 90  1  0  0  0
 84168  1  0  0  0
 84169  1  0  0  0
 85170  1  0  0  0
 85171  1  0  0  0
 89 90  1  0  0  0
M  ISO  4   1 100  68 101  74 100  85 101
M  END
> <chiral flag>
0

> <version>
0

> <s_m_source_file>
/data/baiqing/PycharmProjects/Reinvent-master-3.2/result/LINK_invent/BTK/process_docking_weight1_custom_sum_contain_oxygen_bond_distance_aromatic_linkinvent_7_9_3/rearranged_h_0068.sdf

> <i_m_source_file_index>
14

> <r_mmod_Potential_Energy-OPLS-2005>
140.794967651367

> <r_mmod_Stretch_Energy-OPLS-2005>
41.0951766967773

> <r_mmod_Bend_Energy-OPLS-2005>
109.809356689453

> <r_mmod_Torsional_Energy-OPLS-2005>
233.621643066406

> <r_mmod_Improper_Torsional_Energy-OPLS-2005>
8.25453662872314

> <r_mmod_Van_der_Waal_Energy-OPLS-2005>
150.171112060547

> <r_mmod_Electrostatic_Energy-OPLS-2005>
-222.179336547852

> <r_mmod_Solvation_Energy-OPLS-2005>
-196.073150634766

> <b_mmod_Minimization_Converged-OPLS-2005>
0

> <r_mmod_RMS_Derivative-OPLS-2005>
4.37584924697876

$$$$
15
                    3D
 Structure written by MMmdl.
176184  0  0  1  0            999 V2000
  -30.7622  -14.3605   20.7418 C   0  0  0  0  0  0
  -30.4155  -12.3083   19.4075 C   0  0  0  0  0  0
  -29.4819  -12.5394   18.2015 C   0  0  0  0  0  0
  -28.0091  -12.3753   18.6076 C   0  0  0  0  0  0
  -27.6590  -13.2085   19.8685 C   0  0  2  0  0  0
  -28.6849  -12.9618   20.9953 C   0  0  0  0  0  0
  -25.2584  -13.8193   20.5713 C   0  0  0  0  0  0
  -24.1846  -13.0441   20.9236 C   0  0  0  0  0  0
  -24.6407  -11.6933   20.8776 C   0  0  0  0  0  0
  -23.9089  -10.4298   21.0420 C   0  0  0  0  0  0
  -24.3622   -9.4205   21.9184 C   0  0  0  0  0  0
  -23.6295   -8.2230   22.0727 C   0  0  0  0  0  0
  -22.4271   -8.0297   21.3522 C   0  0  0  0  0  0
  -21.9931   -9.0279   20.4629 C   0  0  0  0  0  0
  -22.7272  -10.2158   20.3060 C   0  0  0  0  0  0
  -21.6842   -6.0776   22.5285 C   0  0  0  0  0  0
  -21.3996   -6.5667   23.8229 C   0  0  0  0  0  0
  -21.3657   -5.6820   24.9189 C   0  0  0  0  0  0
  -21.6030   -4.3075   24.7238 C   0  0  0  0  0  0
  -21.8808   -3.8185   23.4350 C   0  0  0  0  0  0
  -21.9178   -4.7001   22.3418 C   0  0  0  0  0  0
  -22.7870  -13.5246   21.1895 C   0  0  0  0  0  0
  -22.1665   -4.2202   21.0987 F   0  0  0  0  0  0
  -21.5621   -3.4551   25.7731 F   0  0  0  0  0  0
  -30.0386  -13.2411   20.4804 N   0  0  0  0  0  0
  -26.3001  -12.9370   20.3303 N   0  0  0  0  0  0
  -25.9309  -11.6532   20.5713 N   0  0  0  0  0  0
  -22.0497  -12.8206   22.0447 N   0  0  0  0  0  0
  -25.4320  -15.1896   20.4179 N   0  0  0  0  0  0
  -31.7730  -14.6734   20.0999 O   0  0  0  0  0  0
  -21.6619   -6.8902   21.4238 O   0  0  0  0  0  0
  -22.3562  -14.5552   20.6750 O   0  0  0  0  0  0
  -24.6070  -31.8792   23.2162 C   0  0  0  0  0  0
  -25.8988  -32.4866   23.8418 C   0  0  1  0  0  0
  -27.1939  -27.4778   20.0426 C   0  0  0  0  0  0
  -25.5867  -33.8666   24.2358 N   0  0  0  0  0  0
  -23.3828  -30.5060   21.5694 C   0  0  2  0  0  0
  -24.8069  -28.9727   20.1195 C   0  0  0  0  0  0
  -22.7332  -29.4730   22.5169 C   0  0  0  0  0  0
  -18.0240  -28.1367   22.8524 C   0  0  0  0  0  0
  -24.1475  -36.7330   23.2648 C   0  0  0  0  0  0
  -25.9080  -30.8487   21.3576 C   0  0  0  0  0  0
  -25.9717  -29.4875   20.7002 C   0  0  0  0  0  0
  -27.1669  -28.7453   20.6592 C   0  0  0  0  0  0
  -26.0058  -26.9498   19.4913 C   0  0  0  0  0  0
  -24.8155  -27.6998   19.5216 C   0  0  0  0  0  0
  -23.5727  -29.8429   20.1820 C   0  0  0  0  0  0
  -25.4091  -36.3166   24.0373 C   0  0  1  0  0  0
  -20.5817  -28.3621   23.1435 C   0  0  2  0  0  0
  -20.6743  -26.9391   22.5463 C   0  0  0  0  0  0
  -19.5719  -26.6392   21.5255 C   0  0  0  0  0  0
  -18.1890  -26.7920   22.1656 C   0  0  0  0  0  0
  -19.1480  -28.8815   23.2961 C   0  0  0  0  0  0
  -18.9408  -30.1429   23.8953 C   0  0  0  0  0  0
  -17.6407  -30.6587   24.0564 C   0  0  0  0  0  0
  -25.9021  -34.9531   23.5174 C   0  0  0  0  0  0
  -16.5303  -29.9084   23.6329 C   0  0  0  0  0  0
  -16.7224  -28.6494   23.0370 C   0  0  0  0  0  0
  -26.4416  -31.6630   25.0703 C   0  0  0  0  0  0
  -25.3647  -31.3670   26.1418 C   0  0  0  0  0  0
  -27.0299  -30.3102   24.6058 C   0  0  0  0  0  0
  -27.6046  -32.4360   25.7344 C   0  0  0  0  0  0
  -27.5586  -37.1839   24.8481 C   0  0  0  0  0  0
  -21.4082  -29.3018   22.3884 N   0  0  0  0  0  0
  -26.4300  -37.3836   23.9421 N   0  0  0  0  0  0
  -24.6531  -31.0914   22.1060 N   0  0  0  0  0  0
  -23.4155  -28.8308   23.3203 O   0  0  0  0  0  0
  -28.4070  -26.8528   19.9552 O   0  0  0  0  0  0
  -26.5622  -34.8982   22.4748 O   0  0  0  0  0  0
  -23.5289  -32.1557   23.7583 O   0  0  0  0  0  0
  -30.8504  -23.6706   22.4553 C   0  0  0  0  0  0
  -31.7117  -22.5926   22.1696 C   0  0  0  0  0  0
  -29.5856  -23.3356   22.9866 C   0  0  0  0  0  0
  -30.1238  -21.1162   22.9035 C   0  0  0  0  0  0
  -33.0900  -22.7609   21.5505 C   0  0  0  0  0  0
  -28.7937  -24.7763   24.8914 C   0  0  0  0  0  0
  -28.9703  -17.6739   21.4231 C   0  0  0  0  0  0
  -29.0818  -16.9949   23.8539 C   0  0  0  0  0  0
  -31.2926  -25.1166   22.2398 C   0  0  0  0  0  0
  -28.5821  -24.3902   23.4276 C   0  0  0  0  0  0
  -30.6647  -25.8700   21.0576 C   0  0  0  0  0  0
  -29.9648  -25.0732   19.9148 C   0  0  0  0  0  0
  -30.9413  -16.3337   22.2850 C   0  0  0  0  0  0
  -28.4816  -25.4547   19.7395 C   0  0  0  0  0  0
  -30.6364  -18.7604   22.9652 C   0  0  0  0  0  0
  -29.9000  -17.4393   22.6287 C   0  0  0  0  0  0
  -31.3369  -21.3276   22.4084 N   0  0  0  0  0  0
  -29.2319  -22.0524   23.2036 N   0  0  0  0  0  0
  -30.3421  -15.0843   21.7921 N   0  0  0  0  0  0
  -29.7099  -19.8473   23.1295 O   0  0  0  0  0  0
  -31.4544  -12.4386   19.1015 H   0  0  0  0  0  0
  -30.3420  -11.2784   19.7667 H   0  0  0  0  0  0
  -29.7319  -11.8515   17.3899 H   0  0  0  0  0  0
  -29.6349  -13.5483   17.8152 H   0  0  0  0  0  0
  -27.8289  -11.3184   18.7984 H   0  0  0  0  0  0
  -27.3546  -12.6517   17.7798 H   0  0  0  0  0  0
  -27.7128  -14.2598   19.5801 H   0  0  0  0  0  0
  -28.6309  -11.9288   21.3427 H   0  0  0  0  0  0
  -28.4119  -13.5672   21.8584 H   0  0  0  0  0  0
  -25.2759   -9.5674   22.4790 H   0  0  0  0  0  0
  -24.0020   -7.4612   22.7432 H   0  0  0  0  0  0
  -21.0878   -8.8817   19.8932 H   0  0  0  0  0  0
  -22.3743  -10.9705   19.6192 H   0  0  0  0  0  0
  -21.1979   -7.6178   23.9745 H   0  0  0  0  0  0
  -21.1495   -6.0550   25.9090 H   0  0  0  0  0  0
  -22.0583   -2.7653   23.2835 H   0  0  0  0  0  0
  -22.4083  -11.9869   22.4839 H   0  0  0  0  0  0
  -21.1089  -13.1197   22.2602 H   0  0  0  0  0  0
  -24.6720  -15.8484   20.5504 H   0  0  0  0  0  0
  -26.2983  -15.6319   20.1370 H   0  0  0  0  0  0
  -26.7018  -32.5572   23.1134 H   0  0  0  0  0  0
  -24.9970  -33.9839   25.0461 H   0  0  0  0  0  0
  -22.6678  -31.3233   21.4505 H   0  0  0  0  0  0
  -23.3774  -35.9629   23.3346 H   0  0  0  0  0  0
  -24.3576  -36.8907   22.2055 H   0  0  0  0  0  0
  -23.7199  -37.6538   23.6638 H   0  0  0  0  0  0
  -26.0131  -31.6213   20.5941 H   0  0  0  0  0  0
  -26.8023  -30.8970   21.9664 H   0  0  0  0  0  0
  -28.0753  -29.1511   21.0808 H   0  0  0  0  0  0
  -25.9852  -25.9856   19.0060 H   0  0  0  0  0  0
  -23.9102  -27.3065   19.0779 H   0  0  0  0  0  0
  -23.6660  -30.6234   19.4271 H   0  0  0  0  0  0
  -22.6882  -29.2691   19.8995 H   0  0  0  0  0  0
  -25.1265  -36.2057   25.0881 H   0  0  0  0  0  0
  -20.9859  -28.3144   24.1580 H   0  0  0  0  0  0
  -20.5702  -26.2206   23.3607 H   0  0  0  0  0  0
  -21.6612  -26.7511   22.1221 H   0  0  0  0  0  0
  -19.6880  -25.6317   21.1246 H   0  0  0  0  0  0
  -19.6648  -27.3249   20.6821 H   0  0  0  0  0  0
  -17.4168  -26.6685   21.4048 H   0  0  0  0  0  0
  -18.0275  -26.0057   22.9044 H   0  0  0  0  0  0
  -19.7875  -30.7235   24.2358 H   0  0  0  0  0  0
  -17.4962  -31.6284   24.5132 H   0  0  0  0  0  0
  -15.5301  -30.2991   23.7640 H   0  0  0  0  0  0
  -15.8628  -28.0814   22.7079 H   0  0  0  0  0  0
  -24.5782  -30.7113   25.7640 H   0  0  0  0  0  0
  -24.8840  -32.2794   26.4964 H   0  0  0  0  0  0
  -25.7939  -30.8679   27.0103 H   0  0  0  0  0  0
  -26.2877  -29.6927   24.0974 H   0  0  0  0  0  0
  -27.3976  -29.7324   25.4549 H   0  0  0  0  0  0
  -27.8769  -30.4495   23.9340 H   0  0  0  0  0  0
  -27.2733  -33.3691   26.1909 H   0  0  0  0  0  0
  -28.3722  -32.6890   25.0007 H   0  0  0  0  0  0
  -28.0846  -31.8512   26.5194 H   0  0  0  0  0  0
  -28.2654  -38.0095   24.7543 H   0  0  0  0  0  0
  -28.1061  -36.2653   24.6315 H   0  0  0  0  0  0
  -27.2325  -37.1482   25.8892 H   0  0  0  0  0  0
  -20.9218  -29.8662   21.7057 H   0  0  0  0  0  0
  -26.0246  -38.2944   24.1404 H   0  0  0  0  0  0
  -33.6538  -21.8277   21.5757 H   0  0  0  0  0  0
  -32.9990  -23.0765   20.5110 H   0  0  0  0  0  0
  -33.6947  -23.4922   22.0850 H   0  0  0  0  0  0
  -29.8009  -25.1640   25.0354 H   0  0  0  0  0  0
  -28.6709  -23.9124   25.5447 H   0  0  0  0  0  0
  -28.0861  -25.5470   25.1923 H   0  0  0  0  0  0
  -28.2357  -18.4557   21.6241 H   0  0  0  0  0  0
  -29.5468  -17.9721   20.5487 H   0  0  0  0  0  0
  -28.4152  -16.7750   21.1556 H   0  0  0  0  0  0
  -28.4414  -16.1452   23.6208 H   0  0  0  0  0  0
  -28.4389  -17.7903   24.2312 H   0  0  0  0  0  0
  -29.7403  -16.6908   24.6688 H   0  0  0  0  0  0
  -32.3699  -25.1825   22.1209 H   0  0  0  0  0  0
  -31.1061  -25.6810   23.1544 H   0  0  0  0  0  0
  -27.5619  -24.0346   23.2795 H   0  0  0  0  0  0
  -28.6712  -25.2782   22.8072 H   0  0  0  0  0  0
  -31.4349  -26.4969   20.6069 H   0  0  0  0  0  0
  -29.9993  -26.6009   21.5153 H   0  0  0  0  0  0
  -30.0602  -23.9912   20.0132 H   0  0  0  0  0  0
  -30.4835  -25.3099   18.9833 H   0  0  0  0  0  0
  -31.6602  -16.7241   21.5624 H   0  0  0  0  0  0
  -31.5283  -16.0955   23.1716 H   0  0  0  0  0  0
  -27.8648  -24.9161   20.4581 H   0  0  0  0  0  0
  -28.1350  -25.2002   18.7364 H   0  0  0  0  0  0
  -31.3760  -18.9352   22.1826 H   0  0  0  0  0  0
  -31.1836  -18.6531   23.9005 H   0  0  0  0  0  0
  -29.5314  -14.7371   22.2833 H   0  0  0  0  0  0
  1 25  1  0  0  0
  1 30  2  0  0  0
  1 89  1  0  0  0
  2  3  1  0  0  0
  2 25  1  0  0  0
  2 91  1  0  0  0
  2 92  1  0  0  0
  3  4  1  0  0  0
  3 93  1  0  0  0
  3 94  1  0  0  0
  4  5  1  0  0  0
  4 95  1  0  0  0
  4 96  1  0  0  0
  5  6  1  0  0  0
  5 26  1  0  0  0
  5 97  1  0  0  0
  6 25  1  0  0  0
  6 98  1  0  0  0
  6 99  1  0  0  0
  7  8  2  0  0  0
  7 26  1  0  0  0
  7 29  1  0  0  0
  8  9  1  0  0  0
  8 22  1  0  0  0
  9 10  1  0  0  0
  9 27  2  0  0  0
 10 11  2  0  0  0
 10 15  1  0  0  0
 11 12  1  0  0  0
 11100  1  0  0  0
 12 13  2  0  0  0
 12101  1  0  0  0
 13 14  1  0  0  0
 13 31  1  0  0  0
 14 15  2  0  0  0
 14102  1  0  0  0
 15103  1  0  0  0
 16 17  2  0  0  0
 16 21  1  0  0  0
 16 31  1  0  0  0
 17 18  1  0  0  0
 17104  1  0  0  0
 18 19  2  0  0  0
 18105  1  0  0  0
 19 20  1  0  0  0
 19 24  1  0  0  0
 20 21  2  0  0  0
 20106  1  0  0  0
 21 23  1  0  0  0
 22 28  1  0  0  0
 22 32  2  0  0  0
 26 27  1  0  0  0
 28107  1  0  0  0
 28108  1  0  0  0
 29109  1  0  0  0
 29110  1  0  0  0
 33 34  1  0  0  0
 33 66  1  0  0  0
 33 70  2  0  0  0
 34 36  1  0  0  0
 34 59  1  0  0  0
 34111  1  0  0  0
 35 44  2  0  0  0
 35 45  1  0  0  0
 35 68  1  0  0  0
 36 56  1  0  0  0
 36112  1  0  0  0
 37 39  1  0  0  0
 37 47  1  0  0  0
 37 66  1  0  0  0
 37113  1  0  0  0
 38 43  2  0  0  0
 38 46  1  0  0  0
 38 47  1  0  0  0
 39 64  1  0  0  0
 39 67  2  0  0  0
 40 52  1  0  0  0
 40 53  2  0  0  0
 40 58  1  0  0  0
 41114  1  0  0  0
 41115  1  0  0  0
 41116  1  0  0  0
 41 48  1  0  0  0
 42 43  1  0  0  0
 42 66  1  0  0  0
 42117  1  0  0  0
 42118  1  0  0  0
 43 44  1  0  0  0
 44119  1  0  0  0
 45 46  2  0  0  0
 45120  1  0  0  0
 46121  1  0  0  0
 47122  1  0  0  0
 47123  1  0  0  0
 48 56  1  0  0  0
 48 65  1  0  0  0
 48124  1  0  0  0
 49 50  1  0  0  0
 49 53  1  0  0  0
 49 64  1  0  0  0
 49125  1  0  0  0
 50 51  1  0  0  0
 50126  1  0  0  0
 50127  1  0  0  0
 51 52  1  0  0  0
 51128  1  0  0  0
 51129  1  0  0  0
 52130  1  0  0  0
 52131  1  0  0  0
 53 54  1  0  0  0
 54 55  2  0  0  0
 54132  1  0  0  0
 55 57  1  0  0  0
 55133  1  0  0  0
 56 69  2  0  0  0
 57 58  2  0  0  0
 57134  1  0  0  0
 58135  1  0  0  0
 59 60  1  0  0  0
 59 61  1  0  0  0
 59 62  1  0  0  0
 60136  1  0  0  0
 60137  1  0  0  0
 60138  1  0  0  0
 61139  1  0  0  0
 61140  1  0  0  0
 61141  1  0  0  0
 62142  1  0  0  0
 62143  1  0  0  0
 62144  1  0  0  0
 63 65  1  0  0  0
 63145  1  0  0  0
 63146  1  0  0  0
 63147  1  0  0  0
 64148  1  0  0  0
 65149  1  0  0  0
 68 84  1  0  0  0
 71 72  2  0  0  0
 71 73  1  0  0  0
 71 79  1  0  0  0
 72 75  1  0  0  0
 72 87  1  0  0  0
 73 80  1  0  0  0
 73 88  2  0  0  0
 74 87  2  0  0  0
 74 88  1  0  0  0
 74 90  1  0  0  0
 75150  1  0  0  0
 75151  1  0  0  0
 75152  1  0  0  0
 76 80  1  0  0  0
 76153  1  0  0  0
 76154  1  0  0  0
 76155  1  0  0  0
 77156  1  0  0  0
 77157  1  0  0  0
 77158  1  0  0  0
 77 86  1  0  0  0
 78 86  1  0  0  0
 78159  1  0  0  0
 78160  1  0  0  0
 78161  1  0  0  0
 79 81  1  0  0  0
 79162  1  0  0  0
 79163  1  0  0  0
 80164  1  0  0  0
 80165  1  0  0  0
 81 82  1  0  0  0
 81166  1  0  0  0
 81167  1  0  0  0
 82 84  1  0  0  0
 82168  1  0  0  0
 82169  1  0  0  0
 83 86  1  0  0  0
 83 89  1  0  0  0
 83170  1  0  0  0
 83171  1  0  0  0
 84172  1  0  0  0
 84173  1  0  0  0
 85 86  1  0  0  0
 85 90  1  0  0  0
 85174  1  0  0  0
 85175  1  0  0  0
 89176  1  0  0  0
M  ISO  4   1 100  68 101  84 101  89 100
M  END
> <chiral flag>
0

> <version>
0

> <s_m_source_file>
/data/baiqing/PycharmProjects/Reinvent-master-3.2/result/LINK_invent/BTK/process_docking_weight1_custom_sum_contain_oxygen_bond_distance_aromatic_linkinvent_7_9_3/rearranged_h_0068.sdf

> <i_m_source_file_index>
15

> <r_mmod_Potential_Energy-OPLS-2005>
-521.859191894531

> <r_mmod_Stretch_Energy-OPLS-2005>
33.8565444946289

> <r_mmod_Bend_Energy-OPLS-2005>
124.848175048828

> <r_mmod_Torsional_Energy-OPLS-2005>
228.774230957031

> <r_mmod_Improper_Torsional_Energy-OPLS-2005>
2.16500329971313

> <r_mmod_Van_der_Waal_Energy-OPLS-2005>
184.517181396484

> <r_mmod_Electrostatic_Energy-OPLS-2005>
-891.726440429688

> <r_mmod_Solvation_Energy-OPLS-2005>
-216.516967773438

> <b_mmod_Minimization_Converged-OPLS-2005>
0

> <r_mmod_RMS_Derivative-OPLS-2005>
5.78364753723145

$$$$
16
                    3D
 Structure written by MMmdl.
178186  0  0  1  0            999 V2000
  -30.6765  -14.5152   20.5616 C   0  0  0  0  0  0
  -30.4318  -12.3364   19.4144 C   0  0  0  0  0  0
  -29.4949  -12.5161   18.2011 C   0  0  0  0  0  0
  -28.0170  -12.3652   18.6166 C   0  0  0  0  0  0
  -27.6610  -13.2055   19.8723 C   0  0  2  0  0  0
  -28.7075  -12.9900   20.9892 C   0  0  0  0  0  0
  -25.2604  -13.8150   20.5672 C   0  0  0  0  0  0
  -24.1847  -13.0428   20.9161 C   0  0  0  0  0  0
  -24.6398  -11.6897   20.8708 C   0  0  0  0  0  0
  -23.9050  -10.4291   21.0394 C   0  0  0  0  0  0
  -24.3606   -9.4220   21.9183 C   0  0  0  0  0  0
  -23.6291   -8.2250   22.0761 C   0  0  0  0  0  0
  -22.4275   -8.0280   21.3544 C   0  0  0  0  0  0
  -21.9903   -9.0249   20.4651 C   0  0  0  0  0  0
  -22.7216  -10.2136   20.3060 C   0  0  0  0  0  0
  -21.6870   -6.0727   22.5285 C   0  0  0  0  0  0
  -21.4015   -6.5636   23.8206 C   0  0  0  0  0  0
  -21.3659   -5.6793   24.9176 C   0  0  0  0  0  0
  -21.6047   -4.3053   24.7229 C   0  0  0  0  0  0
  -21.8825   -3.8143   23.4354 C   0  0  0  0  0  0
  -21.9194   -4.6953   22.3407 C   0  0  0  0  0  0
  -22.7871  -13.5237   21.1820 C   0  0  0  0  0  0
  -22.1667   -4.2131   21.0982 F   0  0  0  0  0  0
  -21.5626   -3.4544   25.7746 F   0  0  0  0  0  0
  -30.0314  -13.3208   20.4322 N   0  0  0  0  0  0
  -26.3032  -12.9306   20.3355 N   0  0  0  0  0  0
  -25.9326  -11.6462   20.5742 N   0  0  0  0  0  0
  -22.0514  -12.8225   22.0383 N   0  0  0  0  0  0
  -25.4336  -15.1866   20.4102 N   0  0  0  0  0  0
  -31.8071  -14.7177   20.1146 O   0  0  0  0  0  0
  -21.6647   -6.8875   21.4243 O   0  0  0  0  0  0
  -22.3548  -14.5539   20.6682 O   0  0  0  0  0  0
  -24.6227  -31.8636   23.2066 C   0  0  0  0  0  0
  -25.9106  -32.4758   23.8372 C   0  0  1  0  0  0
  -27.2228  -27.3739   20.0879 C   0  0  0  0  0  0
  -25.5947  -33.8560   24.2321 N   0  0  0  0  0  0
  -23.4109  -30.4912   21.5495 C   0  0  2  0  0  0
  -24.8529  -28.9584   20.1059 C   0  0  0  0  0  0
  -22.7440  -29.4653   22.4976 C   0  0  0  0  0  0
  -18.0280  -28.1359   22.8505 C   0  0  0  0  0  0
  -24.1488  -36.7318   23.2643 C   0  0  0  0  0  0
  -25.9483  -30.8040   21.3747 C   0  0  0  0  0  0
  -26.0190  -29.4389   20.7153 C   0  0  0  0  0  0
  -27.2035  -28.6534   20.7079 C   0  0  0  0  0  0
  -26.0337  -26.9421   19.4477 C   0  0  0  0  0  0
  -24.8591  -27.7111   19.4680 C   0  0  0  0  0  0
  -23.6186  -29.8307   20.1623 C   0  0  0  0  0  0
  -25.4094  -36.3080   24.0353 C   0  0  1  0  0  0
  -20.5870  -28.3674   23.1286 C   0  0  2  0  0  0
  -20.6781  -26.9410   22.5393 C   0  0  0  0  0  0
  -19.5761  -26.6379   21.5195 C   0  0  0  0  0  0
  -18.1935  -26.7910   22.1613 C   0  0  0  0  0  0
  -19.1530  -28.8839   23.2885 C   0  0  0  0  0  0
  -18.9454  -30.1435   23.8905 C   0  0  0  0  0  0
  -17.6455  -30.6577   24.0562 C   0  0  0  0  0  0
  -25.9043  -34.9440   23.5141 C   0  0  0  0  0  0
  -16.5352  -29.9077   23.6320 C   0  0  0  0  0  0
  -16.7266  -28.6479   23.0382 C   0  0  0  0  0  0
  -26.4513  -31.6530   25.0716 C   0  0  0  0  0  0
  -25.3779  -31.3629   26.1470 C   0  0  0  0  0  0
  -27.0375  -30.2970   24.6115 C   0  0  0  0  0  0
  -27.6087  -32.4265   25.7469 C   0  0  0  0  0  0
  -27.5579  -37.1790   24.8465 C   0  0  0  0  0  0
  -21.4171  -29.3047   22.3699 N   0  0  0  0  0  0
  -26.4292  -37.3757   23.9410 N   0  0  0  0  0  0
  -24.6790  -31.0677   22.1010 N   0  0  0  0  0  0
  -23.4182  -28.8209   23.3057 O   0  0  0  0  0  0
  -28.3606  -26.5640   20.1288 O   0  0  0  0  0  0
  -26.5591  -34.8909   22.4695 O   0  0  0  0  0  0
  -23.5403  -32.1464   23.7393 O   0  0  0  0  0  0
  -31.1105  -21.5110   20.6266 C   0  0  0  0  0  0
  -31.6281  -20.1794   20.6945 C   0  0  0  0  0  0
  -29.8321  -21.4954   20.1461 C   0  0  0  0  0  0
  -30.6204  -19.3287   20.2892 C   0  0  0  0  0  0
  -31.2047  -17.0735   22.5272 C   0  0  0  0  0  0
  -27.4571  -17.0610   17.6838 C   0  0  0  0  0  0
  -27.5437  -18.5257   15.6686 C   0  0  0  0  0  0
  -25.9189  -19.0563   17.4963 C   0  0  0  0  0  0
  -28.8668  -22.6405   19.8255 C   0  0  0  0  0  0
  -30.6092  -17.7985   20.1171 C   0  0  0  0  0  0
  -29.2789  -24.1156   20.1847 C   0  0  0  0  0  0
  -28.4046  -19.4268   17.8448 C   0  0  0  0  0  0
  -28.2837  -19.6318   19.3725 C   0  0  0  0  0  0
  -28.1761  -25.1548   19.7960 C   0  0  0  0  0  0
  -30.2146  -16.9382   21.3608 C   0  0  1  0  0  0
  -33.0509  -19.8384   21.1115 C   0  0  0  0  0  0
  -27.3300  -18.5191   17.1941 C   0  0  0  0  0  0
  -29.5290  -20.1410   19.9335 N   0  0  0  0  0  0
  -29.9269  -15.5048   21.0950 N   0  0  0  0  0  0
  -33.8630  -20.8417   20.7736 F   0  0  0  0  0  0
  -33.1261  -19.6722   22.4310 F   0  0  0  0  0  0
  -33.4907  -18.7349   20.5090 F   0  0  0  0  0  0
  -31.4739  -12.4515   19.1101 H   0  0  0  0  0  0
  -30.3459  -11.3254   19.8164 H   0  0  0  0  0  0
  -29.7385  -11.7934   17.4213 H   0  0  0  0  0  0
  -29.6507  -13.5019   17.7594 H   0  0  0  0  0  0
  -27.8333  -11.3070   18.8105 H   0  0  0  0  0  0
  -27.3648  -12.6373   17.7852 H   0  0  0  0  0  0
  -27.6999  -14.2522   19.5701 H   0  0  0  0  0  0
  -28.6996  -11.9487   21.3170 H   0  0  0  0  0  0
  -28.4641  -13.5741   21.8774 H   0  0  0  0  0  0
  -25.2762   -9.5687   22.4732 H   0  0  0  0  0  0
  -24.0003   -7.4645   22.7483 H   0  0  0  0  0  0
  -21.0838   -8.8766   19.8953 H   0  0  0  0  0  0
  -22.3691  -10.9663   19.6155 H   0  0  0  0  0  0
  -21.2014   -7.6149   23.9704 H   0  0  0  0  0  0
  -21.1472   -6.0528   25.9071 H   0  0  0  0  0  0
  -22.0603   -2.7602   23.2868 H   0  0  0  0  0  0
  -22.4139  -11.9897   22.4775 H   0  0  0  0  0  0
  -21.1137  -13.1246   22.2579 H   0  0  0  0  0  0
  -24.6678  -15.8426   20.5191 H   0  0  0  0  0  0
  -26.2840  -15.6218   20.0804 H   0  0  0  0  0  0
  -26.7165  -32.5419   23.1102 H   0  0  0  0  0  0
  -25.0100  -33.9693   25.0471 H   0  0  0  0  0  0
  -22.7041  -31.3113   21.4072 H   0  0  0  0  0  0
  -23.3732  -35.9672   23.3298 H   0  0  0  0  0  0
  -24.3591  -36.8944   22.2062 H   0  0  0  0  0  0
  -23.7266  -37.6536   23.6660 H   0  0  0  0  0  0
  -26.0740  -31.5668   20.6059 H   0  0  0  0  0  0
  -26.8327  -30.8452   21.9976 H   0  0  0  0  0  0
  -28.0971  -29.0131   21.1993 H   0  0  0  0  0  0
  -25.9758  -26.0030   18.9199 H   0  0  0  0  0  0
  -23.9697  -27.3393   18.9767 H   0  0  0  0  0  0
  -23.7231  -30.6074   19.4041 H   0  0  0  0  0  0
  -22.7415  -29.2525   19.8674 H   0  0  0  0  0  0
  -25.1239  -36.1964   25.0847 H   0  0  0  0  0  0
  -20.9925  -28.3235   24.1420 H   0  0  0  0  0  0
  -20.5662  -26.2302   23.3594 H   0  0  0  0  0  0
  -21.6662  -26.7448   22.1204 H   0  0  0  0  0  0
  -19.6947  -25.6287   21.1236 H   0  0  0  0  0  0
  -19.6701  -27.3189   20.6728 H   0  0  0  0  0  0
  -17.4212  -26.6680   21.4003 H   0  0  0  0  0  0
  -18.0342  -26.0013   22.8974 H   0  0  0  0  0  0
  -19.7923  -30.7243   24.2296 H   0  0  0  0  0  0
  -17.5011  -31.6251   24.5167 H   0  0  0  0  0  0
  -15.5351  -30.2993   23.7616 H   0  0  0  0  0  0
  -15.8667  -28.0766   22.7141 H   0  0  0  0  0  0
  -24.6000  -30.6901   25.7834 H   0  0  0  0  0  0
  -24.8911  -32.2776   26.4867 H   0  0  0  0  0  0
  -25.8164  -30.8868   27.0255 H   0  0  0  0  0  0
  -26.2949  -29.6664   24.1212 H   0  0  0  0  0  0
  -27.4223  -29.7224   25.4551 H   0  0  0  0  0  0
  -27.8739  -30.4278   23.9244 H   0  0  0  0  0  0
  -27.2720  -33.3586   26.2008 H   0  0  0  0  0  0
  -28.3909  -32.6780   25.0293 H   0  0  0  0  0  0
  -28.0748  -31.8416   26.5404 H   0  0  0  0  0  0
  -28.2568  -38.0102   24.7504 H   0  0  0  0  0  0
  -28.1103  -36.2636   24.6292 H   0  0  0  0  0  0
  -27.2314  -37.1454   25.8871 H   0  0  0  0  0  0
  -20.9366  -29.8800   21.6919 H   0  0  0  0  0  0
  -26.0192  -38.2852   24.1362 H   0  0  0  0  0  0
  -31.6601  -22.4072   20.8749 H   0  0  0  0  0  0
  -31.2375  -18.1014   22.8850 H   0  0  0  0  0  0
  -32.2161  -16.7881   22.2341 H   0  0  0  0  0  0
  -30.9080  -16.4546   23.3750 H   0  0  0  0  0  0
  -26.7542  -16.4069   17.1670 H   0  0  0  0  0  0
  -27.2544  -16.9575   18.7486 H   0  0  0  0  0  0
  -28.4566  -16.6631   17.5034 H   0  0  0  0  0  0
  -26.8055  -17.9070   15.1566 H   0  0  0  0  0  0
  -28.5298  -18.1396   15.4052 H   0  0  0  0  0  0
  -27.4649  -19.5322   15.2551 H   0  0  0  0  0  0
  -25.1528  -18.4841   16.9724 H   0  0  0  0  0  0
  -25.8153  -20.0963   17.1847 H   0  0  0  0  0  0
  -25.6829  -19.0061   18.5596 H   0  0  0  0  0  0
  -27.9162  -22.4398   20.3213 H   0  0  0  0  0  0
  -28.6405  -22.6041   18.7583 H   0  0  0  0  0  0
  -31.5833  -17.4685   19.7612 H   0  0  0  0  0  0
  -29.9448  -17.5268   19.3008 H   0  0  0  0  0  0
  -30.2181  -24.3711   19.6913 H   0  0  0  0  0  0
  -29.4530  -24.1821   21.2585 H   0  0  0  0  0  0
  -29.3904  -19.0230   17.6097 H   0  0  0  0  0  0
  -28.3863  -20.4083   17.3686 H   0  0  0  0  0  0
  -28.0402  -18.7009   19.8794 H   0  0  0  0  0  0
  -27.4636  -20.3075   19.6100 H   0  0  0  0  0  0
  -27.2585  -24.8002   20.2673 H   0  0  0  0  0  0
  -28.0242  -25.0877   18.7192 H   0  0  0  0  0  0
  -29.2601  -17.3367   21.7097 H   0  0  0  0  0  0
  -29.0094  -15.1989   21.3827 H   0  0  0  0  0  0
  1 25  1  0  0  0
  1 30  2  0  0  0
  1 89  1  0  0  0
  2  3  1  0  0  0
  2 25  1  0  0  0
  2 93  1  0  0  0
  2 94  1  0  0  0
  3  4  1  0  0  0
  3 95  1  0  0  0
  3 96  1  0  0  0
  4  5  1  0  0  0
  4 97  1  0  0  0
  4 98  1  0  0  0
  5  6  1  0  0  0
  5 26  1  0  0  0
  5 99  1  0  0  0
  6 25  1  0  0  0
  6100  1  0  0  0
  6101  1  0  0  0
  7  8  2  0  0  0
  7 26  1  0  0  0
  7 29  1  0  0  0
  8  9  1  0  0  0
  8 22  1  0  0  0
  9 10  1  0  0  0
  9 27  2  0  0  0
 10 11  2  0  0  0
 10 15  1  0  0  0
 11 12  1  0  0  0
 11102  1  0  0  0
 12 13  2  0  0  0
 12103  1  0  0  0
 13 14  1  0  0  0
 13 31  1  0  0  0
 14 15  2  0  0  0
 14104  1  0  0  0
 15105  1  0  0  0
 16 17  2  0  0  0
 16 21  1  0  0  0
 16 31  1  0  0  0
 17 18  1  0  0  0
 17106  1  0  0  0
 18 19  2  0  0  0
 18107  1  0  0  0
 19 20  1  0  0  0
 19 24  1  0  0  0
 20 21  2  0  0  0
 20108  1  0  0  0
 21 23  1  0  0  0
 22 28  1  0  0  0
 22 32  2  0  0  0
 26 27  1  0  0  0
 28109  1  0  0  0
 28110  1  0  0  0
 29111  1  0  0  0
 29112  1  0  0  0
 33 34  1  0  0  0
 33 66  1  0  0  0
 33 70  2  0  0  0
 34 36  1  0  0  0
 34 59  1  0  0  0
 34113  1  0  0  0
 35 44  2  0  0  0
 35 45  1  0  0  0
 35 68  1  0  0  0
 36 56  1  0  0  0
 36114  1  0  0  0
 37 39  1  0  0  0
 37 47  1  0  0  0
 37 66  1  0  0  0
 37115  1  0  0  0
 38 43  2  0  0  0
 38 46  1  0  0  0
 38 47  1  0  0  0
 39 64  1  0  0  0
 39 67  2  0  0  0
 40 52  1  0  0  0
 40 53  2  0  0  0
 40 58  1  0  0  0
 41116  1  0  0  0
 41117  1  0  0  0
 41118  1  0  0  0
 41 48  1  0  0  0
 42 43  1  0  0  0
 42 66  1  0  0  0
 42119  1  0  0  0
 42120  1  0  0  0
 43 44  1  0  0  0
 44121  1  0  0  0
 45 46  2  0  0  0
 45122  1  0  0  0
 46123  1  0  0  0
 47124  1  0  0  0
 47125  1  0  0  0
 48 56  1  0  0  0
 48 65  1  0  0  0
 48126  1  0  0  0
 49 50  1  0  0  0
 49 53  1  0  0  0
 49 64  1  0  0  0
 49127  1  0  0  0
 50 51  1  0  0  0
 50128  1  0  0  0
 50129  1  0  0  0
 51 52  1  0  0  0
 51130  1  0  0  0
 51131  1  0  0  0
 52132  1  0  0  0
 52133  1  0  0  0
 53 54  1  0  0  0
 54 55  2  0  0  0
 54134  1  0  0  0
 55 57  1  0  0  0
 55135  1  0  0  0
 56 69  2  0  0  0
 57 58  2  0  0  0
 57136  1  0  0  0
 58137  1  0  0  0
 59 60  1  0  0  0
 59 61  1  0  0  0
 59 62  1  0  0  0
 60138  1  0  0  0
 60139  1  0  0  0
 60140  1  0  0  0
 61141  1  0  0  0
 61142  1  0  0  0
 61143  1  0  0  0
 62144  1  0  0  0
 62145  1  0  0  0
 62146  1  0  0  0
 63 65  1  0  0  0
 63147  1  0  0  0
 63148  1  0  0  0
 63149  1  0  0  0
 64150  1  0  0  0
 65151  1  0  0  0
 68 84  1  0  0  0
 71 72  1  0  0  0
 71 73  2  0  0  0
 71152  1  0  0  0
 72 74  2  0  0  0
 72 86  1  0  0  0
 73 79  1  0  0  0
 73 88  1  0  0  0
 74 80  1  0  0  0
 74 88  1  0  0  0
 75153  1  0  0  0
 75154  1  0  0  0
 75155  1  0  0  0
 75 85  1  0  0  0
 76156  1  0  0  0
 76157  1  0  0  0
 76158  1  0  0  0
 76 87  1  0  0  0
 77 87  1  0  0  0
 77159  1  0  0  0
 77160  1  0  0  0
 77161  1  0  0  0
 78 87  1  0  0  0
 78162  1  0  0  0
 78163  1  0  0  0
 78164  1  0  0  0
 79 81  1  0  0  0
 79165  1  0  0  0
 79166  1  0  0  0
 80 85  1  0  0  0
 80167  1  0  0  0
 80168  1  0  0  0
 81 84  1  0  0  0
 81169  1  0  0  0
 81170  1  0  0  0
 82 83  1  0  0  0
 82 87  1  0  0  0
 82171  1  0  0  0
 82172  1  0  0  0
 83 88  1  0  0  0
 83173  1  0  0  0
 83174  1  0  0  0
 84175  1  0  0  0
 84176  1  0  0  0
 85 89  1  0  0  0
 85177  1  0  0  0
 86 90  1  0  0  0
 86 91  1  0  0  0
 86 92  1  0  0  0
 89178  1  0  0  0
M  ISO  4   1 100  68 101  84 101  89 100
M  END
> <chiral flag>
0

> <version>
0

> <s_m_source_file>
/data/baiqing/PycharmProjects/Reinvent-master-3.2/result/LINK_invent/BTK/process_docking_weight1_custom_sum_contain_oxygen_bond_distance_aromatic_linkinvent_7_9_3/rearranged_h_0068.sdf

> <i_m_source_file_index>
16

> <r_mmod_Potential_Energy-OPLS-2005>
19.5276336669922

> <r_mmod_Stretch_Energy-OPLS-2005>
54.1766471862793

> <r_mmod_Bend_Energy-OPLS-2005>
128.412445068359

> <r_mmod_Torsional_Energy-OPLS-2005>
212.34489440918

> <r_mmod_Improper_Torsional_Energy-OPLS-2005>
3.37447595596313

> <r_mmod_Van_der_Waal_Energy-OPLS-2005>
118.258369445801

> <r_mmod_Electrostatic_Energy-OPLS-2005>
-325.573669433594

> <r_mmod_Solvation_Energy-OPLS-2005>
-194.752792358398

> <b_mmod_Minimization_Converged-OPLS-2005>
0

> <r_mmod_RMS_Derivative-OPLS-2005>
2.67652630805969

$$$$
17
                    3D
 Structure written by MMmdl.
152160  0  0  1  0            999 V2000
  -30.2784  -15.5452   20.3100 C   0  0  0  0  0  0
  -30.4534  -13.0027   19.5345 C   0  0  0  0  0  0
  -29.5494  -12.6328   18.3207 C   0  0  0  0  0  0
  -28.1196  -12.2768   18.7693 C   0  0  0  0  0  0
  -27.6074  -13.2675   19.8370 C   0  0  2  0  0  0
  -28.6504  -13.5029   20.9528 C   0  0  0  0  0  0
  -25.2346  -13.8159   20.5794 C   0  0  0  0  0  0
  -24.1686  -13.0364   20.9272 C   0  0  0  0  0  0
  -24.6352  -11.6865   20.8804 C   0  0  0  0  0  0
  -23.9030  -10.4255   21.0445 C   0  0  0  0  0  0
  -24.3592   -9.4187   21.9233 C   0  0  0  0  0  0
  -23.6253   -8.2232   22.0765 C   0  0  0  0  0  0
  -22.4228   -8.0288   21.3557 C   0  0  0  0  0  0
  -21.9872   -9.0260   20.4649 C   0  0  0  0  0  0
  -22.7218  -10.2135   20.3080 C   0  0  0  0  0  0
  -21.6833   -6.0730   22.5288 C   0  0  0  0  0  0
  -21.4007   -6.5628   23.8227 C   0  0  0  0  0  0
  -21.3639   -5.6771   24.9174 C   0  0  0  0  0  0
  -21.6019   -4.3038   24.7210 C   0  0  0  0  0  0
  -21.8820   -3.8145   23.4320 C   0  0  0  0  0  0
  -21.9190   -4.6961   22.3380 C   0  0  0  0  0  0
  -22.7725  -13.5154   21.1914 C   0  0  0  0  0  0
  -22.1670   -4.2156   21.0958 F   0  0  0  0  0  0
  -21.5596   -3.4515   25.7709 F   0  0  0  0  0  0
  -29.8308  -14.1511   20.3249 N   0  0  0  0  0  0
  -26.2794  -12.9412   20.3372 N   0  0  0  0  0  0
  -25.9306  -11.6529   20.5818 N   0  0  0  0  0  0
  -22.0369  -12.8172   22.0481 N   0  0  0  0  0  0
  -25.3936  -15.1879   20.4220 N   0  0  0  0  0  0
  -31.5128  -15.5408   20.1492 O   0  0  0  0  0  0
  -21.6593   -6.8892   21.4266 O   0  0  0  0  0  0
  -22.3462  -14.5500   20.6764 O   0  0  0  0  0  0
  -24.6795  -31.8065   23.1556 C   0  0  0  0  0  0
  -25.9398  -32.4492   23.8087 C   0  0  1  0  0  0
  -27.2298  -26.7652   20.1904 C   0  0  0  0  0  0
  -25.5990  -33.8305   24.1981 N   0  0  0  0  0  0
  -23.5018  -30.4112   21.5084 C   0  0  2  0  0  0
  -24.9579  -28.7644   20.1173 C   0  0  0  0  0  0
  -22.7735  -29.4363   22.4715 C   0  0  0  0  0  0
  -18.0355  -28.1431   22.8456 C   0  0  0  0  0  0
  -24.1494  -36.7159   23.2658 C   0  0  0  0  0  0
  -26.0801  -30.5572   21.4127 C   0  0  0  0  0  0
  -26.1473  -29.1294   20.7583 C   0  0  0  0  0  0
  -27.2707  -28.1563   20.7655 C   0  0  0  0  0  0
  -26.0041  -26.5947   19.5008 C   0  0  0  0  0  0
  -24.9210  -27.5202   19.4670 C   0  0  0  0  0  0
  -23.7516  -29.7130   20.1431 C   0  0  0  0  0  0
  -25.4150  -36.2899   24.0282 C   0  0  1  0  0  0
  -20.5982  -28.3791   23.1159 C   0  0  2  0  0  0
  -20.6813  -26.9452   22.5404 C   0  0  0  0  0  0
  -19.5795  -26.6378   21.5208 C   0  0  0  0  0  0
  -18.1983  -26.7959   22.1614 C   0  0  0  0  0  0
  -19.1618  -28.8928   23.2792 C   0  0  0  0  0  0
  -18.9515  -30.1512   23.8832 C   0  0  0  0  0  0
  -17.6505  -30.6605   24.0553 C   0  0  0  0  0  0
  -25.9119  -34.9296   23.4964 C   0  0  0  0  0  0
  -16.5398  -29.9086   23.6348 C   0  0  0  0  0  0
  -16.7335  -28.6514   23.0358 C   0  0  0  0  0  0
  -26.4597  -31.6502   25.0681 C   0  0  0  0  0  0
  -25.3688  -31.3815   26.1303 C   0  0  0  0  0  0
  -27.0530  -30.2851   24.6551 C   0  0  0  0  0  0
  -27.6043  -32.4364   25.7502 C   0  0  0  0  0  0
  -27.5546  -37.1760   24.8491 C   0  0  0  0  0  0
  -21.4387  -29.3051   22.3468 N   0  0  0  0  0  0
  -26.4288  -37.3644   23.9380 N   0  0  0  0  0  0
  -24.7763  -30.9568   22.0788 N   0  0  0  0  0  0
  -23.4205  -28.7942   23.3032 O   0  0  0  0  0  0
  -28.2013  -25.5722   20.2383 O   0  0  0  0  0  0
  -26.5738  -34.8866   22.4575 O   0  0  0  0  0  0
  -23.5821  -32.1109   23.6555 O   0  0  0  0  0  0
  -29.2332  -19.9610   21.3329 C   0  0  0  0  0  0
  -29.4288  -18.9800   20.2319 C   0  0  0  0  0  0
  -28.8687  -21.2447   19.0569 C   0  0  0  0  0  0
  -28.6944  -22.2219   20.1697 C   0  0  0  0  0  0
  -28.6229  -21.7335   17.6360 C   0  0  0  0  0  0
  -28.2145  -16.9598   21.3018 C   0  0  0  0  0  0
  -28.6408  -16.9339   18.8348 C   0  0  0  0  0  0
  -27.8773  -23.8765   20.1673 C   0  0  0  0  0  0
  -29.2989  -17.1361   20.2222 C   0  0  0  0  0  0
  -28.9074  -21.3876   21.3051 N   0  0  0  0  0  0
  -29.1923  -19.8195   19.1018 N   0  0  0  0  0  0
  -31.4442  -13.2780   19.1666 H   0  0  0  0  0  0
  -30.6253  -12.1301   20.1660 H   0  0  0  0  0  0
  -29.9856  -11.8049   17.7585 H   0  0  0  0  0  0
  -29.5111  -13.4827   17.6400 H   0  0  0  0  0  0
  -28.1522  -11.2759   19.2049 H   0  0  0  0  0  0
  -27.4400  -12.2231   17.9174 H   0  0  0  0  0  0
  -27.4761  -14.2002   19.2978 H   0  0  0  0  0  0
  -28.9069  -12.5605   21.4364 H   0  0  0  0  0  0
  -28.2576  -14.1042   21.7694 H   0  0  0  0  0  0
  -25.2749   -9.5618   22.4812 H   0  0  0  0  0  0
  -23.9924   -7.4578   22.7444 H   0  0  0  0  0  0
  -21.0808   -8.8786   19.8934 H   0  0  0  0  0  0
  -22.3705  -10.9668   19.6167 H   0  0  0  0  0  0
  -21.2037   -7.6145   23.9730 H   0  0  0  0  0  0
  -21.1440   -6.0501   25.9073 H   0  0  0  0  0  0
  -22.0617   -2.7608   23.2805 H   0  0  0  0  0  0
  -22.3942  -11.9777   22.4801 H   0  0  0  0  0  0
  -21.1016  -13.1263   22.2727 H   0  0  0  0  0  0
  -24.6379  -15.8456   20.5742 H   0  0  0  0  0  0
  -26.2576  -15.6393   20.1564 H   0  0  0  0  0  0
  -26.7462  -32.4981   23.0784 H   0  0  0  0  0  0
  -25.0044  -33.9348   25.0064 H   0  0  0  0  0  0
  -22.8243  -31.2472   21.3246 H   0  0  0  0  0  0
  -23.3733  -35.9517   23.3377 H   0  0  0  0  0  0
  -24.3529  -36.8748   22.2056 H   0  0  0  0  0  0
  -23.7299  -37.6382   23.6693 H   0  0  0  0  0  0
  -26.2794  -31.2890   20.6284 H   0  0  0  0  0  0
  -26.9304  -30.6196   22.0785 H   0  0  0  0  0  0
  -28.1660  -28.4382   21.3015 H   0  0  0  0  0  0
  -25.8435  -25.6538   18.9973 H   0  0  0  0  0  0
  -24.0218  -27.2316   18.9405 H   0  0  0  0  0  0
  -23.9215  -30.4743   19.3816 H   0  0  0  0  0  0
  -22.8568  -29.1769   19.8193 H   0  0  0  0  0  0
  -25.1370  -36.1678   25.0772 H   0  0  0  0  0  0
  -21.0077  -28.3414   24.1280 H   0  0  0  0  0  0
  -20.5698  -26.2396   23.3666 H   0  0  0  0  0  0
  -21.6672  -26.7406   22.1212 H   0  0  0  0  0  0
  -19.6958  -25.6281   21.1267 H   0  0  0  0  0  0
  -19.6743  -27.3154   20.6727 H   0  0  0  0  0  0
  -17.4243  -26.6695   21.4028 H   0  0  0  0  0  0
  -18.0380  -26.0120   22.9036 H   0  0  0  0  0  0
  -19.7989  -30.7352   24.2160 H   0  0  0  0  0  0
  -17.5062  -31.6282   24.5178 H   0  0  0  0  0  0
  -15.5406  -30.2967   23.7723 H   0  0  0  0  0  0
  -15.8736  -28.0816   22.7106 H   0  0  0  0  0  0
  -24.5863  -30.7177   25.7600 H   0  0  0  0  0  0
  -24.8888  -32.3039   26.4588 H   0  0  0  0  0  0
  -25.7867  -30.9053   27.0179 H   0  0  0  0  0  0
  -26.3244  -29.6464   24.1534 H   0  0  0  0  0  0
  -27.3965  -29.7287   25.5283 H   0  0  0  0  0  0
  -27.9218  -30.3982   24.0062 H   0  0  0  0  0  0
  -27.2563  -33.3702   26.1937 H   0  0  0  0  0  0
  -28.3927  -32.6873   25.0394 H   0  0  0  0  0  0
  -28.0638  -31.8600   26.5542 H   0  0  0  0  0  0
  -28.2634  -37.9979   24.7383 H   0  0  0  0  0  0
  -28.0962  -36.2493   24.6525 H   0  0  0  0  0  0
  -27.2222  -37.1648   25.8886 H   0  0  0  0  0  0
  -20.9678  -29.8701   21.6534 H   0  0  0  0  0  0
  -26.0124  -38.2710   24.1313 H   0  0  0  0  0  0
  -29.2448  -19.5612   22.3375 H   0  0  0  0  0  0
  -28.6963  -20.9251   16.9050 H   0  0  0  0  0  0
  -29.3591  -22.4862   17.3540 H   0  0  0  0  0  0
  -27.6281  -22.1689   17.5319 H   0  0  0  0  0  0
  -27.4102  -17.6898   21.1886 H   0  0  0  0  0  0
  -28.6325  -17.0878   22.3011 H   0  0  0  0  0  0
  -27.7304  -15.9986   21.2608 H   0  0  0  0  0  0
  -27.6882  -17.4588   18.7524 H   0  0  0  0  0  0
  -28.4554  -15.8966   18.5782 H   0  0  0  0  0  0
  -29.2950  -17.3166   18.0486 H   0  0  0  0  0  0
  -27.1986  -23.7586   21.0139 H   0  0  0  0  0  0
  -27.2188  -23.7940   19.3035 H   0  0  0  0  0  0
  1 25  1  0  0  0
  1 30  2  0  0  0
  1 79  1  0  0  0
  2  3  1  0  0  0
  2 25  1  0  0  0
  2 82  1  0  0  0
  2 83  1  0  0  0
  3  4  1  0  0  0
  3 84  1  0  0  0
  3 85  1  0  0  0
  4  5  1  0  0  0
  4 86  1  0  0  0
  4 87  1  0  0  0
  5  6  1  0  0  0
  5 26  1  0  0  0
  5 88  1  0  0  0
  6 25  1  0  0  0
  6 89  1  0  0  0
  6 90  1  0  0  0
  7  8  2  0  0  0
  7 26  1  0  0  0
  7 29  1  0  0  0
  8  9  1  0  0  0
  8 22  1  0  0  0
  9 10  1  0  0  0
  9 27  2  0  0  0
 10 11  2  0  0  0
 10 15  1  0  0  0
 11 12  1  0  0  0
 11 91  1  0  0  0
 12 13  2  0  0  0
 12 92  1  0  0  0
 13 14  1  0  0  0
 13 31  1  0  0  0
 14 15  2  0  0  0
 14 93  1  0  0  0
 15 94  1  0  0  0
 16 17  2  0  0  0
 16 21  1  0  0  0
 16 31  1  0  0  0
 17 18  1  0  0  0
 17 95  1  0  0  0
 18 19  2  0  0  0
 18 96  1  0  0  0
 19 20  1  0  0  0
 19 24  1  0  0  0
 20 21  2  0  0  0
 20 97  1  0  0  0
 21 23  1  0  0  0
 22 28  1  0  0  0
 22 32  2  0  0  0
 26 27  1  0  0  0
 28 98  1  0  0  0
 28 99  1  0  0  0
 29100  1  0  0  0
 29101  1  0  0  0
 33 34  1  0  0  0
 33 66  1  0  0  0
 33 70  2  0  0  0
 34 36  1  0  0  0
 34 59  1  0  0  0
 34102  1  0  0  0
 35 44  2  0  0  0
 35 45  1  0  0  0
 35 68  1  0  0  0
 36 56  1  0  0  0
 36103  1  0  0  0
 37 39  1  0  0  0
 37 47  1  0  0  0
 37 66  1  0  0  0
 37104  1  0  0  0
 38 43  2  0  0  0
 38 46  1  0  0  0
 38 47  1  0  0  0
 39 64  1  0  0  0
 39 67  2  0  0  0
 40 52  1  0  0  0
 40 53  2  0  0  0
 40 58  1  0  0  0
 41105  1  0  0  0
 41106  1  0  0  0
 41107  1  0  0  0
 41 48  1  0  0  0
 42 43  1  0  0  0
 42 66  1  0  0  0
 42108  1  0  0  0
 42109  1  0  0  0
 43 44  1  0  0  0
 44110  1  0  0  0
 45 46  2  0  0  0
 45111  1  0  0  0
 46112  1  0  0  0
 47113  1  0  0  0
 47114  1  0  0  0
 48 56  1  0  0  0
 48 65  1  0  0  0
 48115  1  0  0  0
 49 50  1  0  0  0
 49 53  1  0  0  0
 49 64  1  0  0  0
 49116  1  0  0  0
 50 51  1  0  0  0
 50117  1  0  0  0
 50118  1  0  0  0
 51 52  1  0  0  0
 51119  1  0  0  0
 51120  1  0  0  0
 52121  1  0  0  0
 52122  1  0  0  0
 53 54  1  0  0  0
 54 55  2  0  0  0
 54123  1  0  0  0
 55 57  1  0  0  0
 55124  1  0  0  0
 56 69  2  0  0  0
 57 58  2  0  0  0
 57125  1  0  0  0
 58126  1  0  0  0
 59 60  1  0  0  0
 59 61  1  0  0  0
 59 62  1  0  0  0
 60127  1  0  0  0
 60128  1  0  0  0
 60129  1  0  0  0
 61130  1  0  0  0
 61131  1  0  0  0
 61132  1  0  0  0
 62133  1  0  0  0
 62134  1  0  0  0
 62135  1  0  0  0
 63 65  1  0  0  0
 63136  1  0  0  0
 63137  1  0  0  0
 63138  1  0  0  0
 64139  1  0  0  0
 65140  1  0  0  0
 68 78  1  0  0  0
 71 72  2  0  0  0
 71 80  1  0  0  0
 71141  1  0  0  0
 72 79  1  0  0  0
 72 81  1  0  0  0
 73 74  1  0  0  0
 73 75  1  0  0  0
 73 81  2  0  0  0
 74 78  1  0  0  0
 74 80  2  0  0  0
 75142  1  0  0  0
 75143  1  0  0  0
 75144  1  0  0  0
 76145  1  0  0  0
 76146  1  0  0  0
 76147  1  0  0  0
 76 79  1  0  0  0
 77 79  1  0  0  0
 77148  1  0  0  0
 77149  1  0  0  0
 77150  1  0  0  0
 78151  1  0  0  0
 78152  1  0  0  0
M  ISO  4   1 100  68 101  78 101  79 100
M  END
> <chiral flag>
0

> <version>
0

> <s_m_source_file>
/data/baiqing/PycharmProjects/Reinvent-master-3.2/result/LINK_invent/BTK/process_docking_weight1_custom_sum_contain_oxygen_bond_distance_aromatic_linkinvent_7_9_3/rearranged_h_0068.sdf

> <i_m_source_file_index>
17

> <r_mmod_Potential_Energy-OPLS-2005>
2297.548828125

> <r_mmod_Stretch_Energy-OPLS-2005>
903.483825683594

> <r_mmod_Bend_Energy-OPLS-2005>
662.6806640625

> <r_mmod_Torsional_Energy-OPLS-2005>
240.505126953125

> <r_mmod_Improper_Torsional_Energy-OPLS-2005>
12.7526969909668

> <r_mmod_Van_der_Waal_Energy-OPLS-2005>
140.936264038086

> <r_mmod_Electrostatic_Energy-OPLS-2005>
-215.321243286133

> <r_mmod_Solvation_Energy-OPLS-2005>
-213.845672607422

> <b_mmod_Minimization_Converged-OPLS-2005>
0

> <r_mmod_RMS_Derivative-OPLS-2005>
4.11108350753784

$$$$
18
                    3D
 Structure written by MMmdl.
175183  0  0  1  0            999 V2000
  -31.4580  -13.0434   21.1149 C   0  0  0  0  0  0
  -31.3699  -13.6056   18.6320 C   0  0  0  0  0  0
  -30.1896  -13.3500   17.4963 C   0  0  0  0  0  0
  -28.6227  -13.6846   17.7259 C   0  0  0  0  0  0
  -28.2966  -14.2207   19.2611 C   0  0  2  0  0  0
  -29.7681  -14.7988   19.7852 C   0  0  0  0  0  0
  -24.5043  -14.3241   20.8101 C   0  0  0  0  0  0
  -23.6394  -13.2925   20.9639 C   0  0  0  0  0  0
  -24.2618  -12.0460   21.0948 C   0  0  0  0  0  0
  -23.7265  -10.6298   21.2130 C   0  0  0  0  0  0
  -24.1596   -9.6222   22.1310 C   0  0  0  0  0  0
  -23.5906   -8.3282   22.1620 C   0  0  0  0  0  0
  -22.4488   -8.0561   21.3717 C   0  0  0  0  0  0
  -22.0190   -9.0291   20.4525 C   0  0  0  0  0  0
  -22.6663  -10.2731   20.3542 C   0  0  0  0  0  0
  -21.7131   -6.0827   22.5305 C   0  0  0  0  0  0
  -21.4185   -6.5734   23.8248 C   0  0  0  0  0  0
  -21.3605   -5.6858   24.9163 C   0  0  0  0  0  0
  -21.5926   -4.3104   24.7224 C   0  0  0  0  0  0
  -21.8773   -3.8210   23.4364 C   0  0  0  0  0  0
  -21.9296   -4.7039   22.3436 C   0  0  0  0  0  0
  -22.2410  -13.5475   21.1596 C   0  0  0  0  0  0
  -22.1735   -4.2209   21.1008 F   0  0  0  0  0  0
  -21.5489   -3.4577   25.7719 F   0  0  0  0  0  0
  -31.0216  -13.9578   20.0708 N   0  0  0  0  0  0
  -25.7301  -13.8375   20.8730 N   0  0  0  0  0  0
  -25.3304  -12.5690   21.5869 N   0  0  0  0  0  0
  -21.6502  -12.8043   22.0792 N   0  0  0  0  0  0
  -24.3325  -15.6638   20.5845 N   0  0  0  0  0  0
  -32.5420  -13.5379   21.3351 O   0  0  0  0  0  0
  -21.7248   -6.8874   21.4188 O   0  0  0  0  0  0
  -21.7065  -14.4923   20.5938 O   0  0  0  0  0  0
  -24.7355  -31.7312   23.1158 C   0  0  0  0  0  0
  -25.9682  -32.4122   23.7868 C   0  0  1  0  0  0
  -26.8312  -26.0137   20.2419 C   0  0  0  0  0  0
  -25.6046  -33.8001   24.1679 N   0  0  0  0  0  0
  -23.5603  -30.3386   21.4902 C   0  0  2  0  0  0
  -24.9344  -28.5632   20.0975 C   0  0  0  0  0  0
  -22.7906  -29.3998   22.4601 C   0  0  0  0  0  0
  -18.0338  -28.1438   22.8433 C   0  0  0  0  0  0
  -24.1483  -36.7018   23.2668 C   0  0  0  0  0  0
  -26.1456  -30.2084   21.4773 C   0  0  0  0  0  0
  -26.1178  -28.7151   20.8217 C   0  0  0  0  0  0
  -27.0480  -27.4723   20.8601 C   0  0  0  0  0  0
  -25.7091  -26.2533   19.4062 C   0  0  0  0  0  0
  -24.8149  -27.3757   19.3574 C   0  0  0  0  0  0
  -23.8157  -29.6343   20.1227 C   0  0  0  0  0  0
  -25.4156  -36.2726   24.0260 C   0  0  1  0  0  0
  -20.5985  -28.3799   23.1089 C   0  0  2  0  0  0
  -20.6792  -26.9427   22.5423 C   0  0  0  0  0  0
  -19.5777  -26.6350   21.5234 C   0  0  0  0  0  0
  -18.1954  -26.7964   22.1618 C   0  0  0  0  0  0
  -19.1609  -28.8953   23.2731 C   0  0  0  0  0  0
  -18.9524  -30.1533   23.8786 C   0  0  0  0  0  0
  -17.6507  -30.6610   24.0544 C   0  0  0  0  0  0
  -25.9178  -34.9115   23.4850 C   0  0  0  0  0  0
  -16.5395  -29.9082   23.6356 C   0  0  0  0  0  0
  -16.7325  -28.6510   23.0373 C   0  0  0  0  0  0
  -26.4661  -31.6454   25.0749 C   0  0  0  0  0  0
  -25.3588  -31.3917   26.1281 C   0  0  0  0  0  0
  -27.0679  -30.2749   24.7075 C   0  0  0  0  0  0
  -27.6023  -32.4473   25.7554 C   0  0  0  0  0  0
  -27.5557  -37.1664   24.8465 C   0  0  0  0  0  0
  -21.4522  -29.2955   22.3356 N   0  0  0  0  0  0
  -26.4237  -37.3557   23.9430 N   0  0  0  0  0  0
  -24.8513  -30.8121   22.0778 N   0  0  0  0  0  0
  -23.4142  -28.7619   23.3115 O   0  0  0  0  0  0
  -27.4204  -24.4169   20.3077 O   0  0  0  0  0  0
  -26.5894  -34.8801   22.4519 O   0  0  0  0  0  0
  -23.6296  -32.0735   23.5767 O   0  0  0  0  0  0
  -27.8809  -13.2256   21.3693 C   0  0  0  0  0  0
  -27.7657  -14.8501   21.4421 C   0  0  0  0  0  0
  -26.8561  -15.8102   20.0825 C   0  0  0  0  0  0
  -26.5323  -12.6289   19.0204 C   0  0  0  0  0  0
  -27.5162  -12.6377   24.1049 C   0  0  0  0  0  0
  -29.8831  -14.7018   22.5787 C   0  0  0  0  0  0
  -29.5462  -12.2187   19.7189 C   0  0  0  0  0  0
  -27.7646  -10.1270   18.5245 C   0  0  0  0  0  0
  -26.4163   -9.8653   20.2454 C   0  0  0  0  0  0
  -26.6697  -17.9605   19.9352 C   0  0  0  0  0  0
  -28.8766  -12.8887   23.4394 C   0  0  0  0  0  0
  -27.2448  -20.1508   20.2630 C   0  0  0  0  0  0
  -28.9523  -10.7625   21.4168 C   0  0  0  0  0  0
  -26.9462  -22.4223   20.0470 C   0  0  0  0  0  0
  -28.9594  -13.5677   21.7538 C   0  0  0  0  0  0
  -27.4032  -10.9913   19.8430 C   0  0  0  0  0  0
  -27.2982  -12.2664   20.2873 N   0  0  0  0  0  0
  -26.1816  -14.5084   18.8173 N   0  0  0  0  0  0
  -30.6686  -11.7034   21.6905 N   0  0  0  0  0  0
  -31.9706  -14.4618   18.3085 H   0  0  0  0  0  0
  -32.1214  -12.8148   18.5895 H   0  0  0  0  0  0
  -30.3025  -12.3253   17.1354 H   0  0  0  0  0  0
  -30.5001  -13.8947   16.6011 H   0  0  0  0  0  0
  -28.0525  -12.8700   17.2833 H   0  0  0  0  0  0
  -28.3671  -14.4448   16.9771 H   0  0  0  0  0  0
  -28.3294  -15.1589   18.6803 H   0  0  0  0  0  0
  -29.6815  -15.7177   20.3554 H   0  0  0  0  0  0
  -30.1251  -15.4529   18.9969 H   0  0  0  0  0  0
  -24.9626   -9.8412   22.8189 H   0  0  0  0  0  0
  -23.9913   -7.5905   22.8464 H   0  0  0  0  0  0
  -21.1605   -8.8285   19.8268 H   0  0  0  0  0  0
  -22.3062  -11.0006   19.6436 H   0  0  0  0  0  0
  -21.2321   -7.6265   23.9800 H   0  0  0  0  0  0
  -21.1333   -6.0567   25.9047 H   0  0  0  0  0  0
  -22.0512   -2.7680   23.2845 H   0  0  0  0  0  0
  -22.1566  -12.0905   22.5806 H   0  0  0  0  0  0
  -20.6733  -12.9510   22.2956 H   0  0  0  0  0  0
  -24.7203  -15.7148   19.6352 H   0  0  0  0  0  0
  -24.9864  -16.1766   21.1690 H   0  0  0  0  0  0
  -26.7826  -32.4403   23.0624 H   0  0  0  0  0  0
  -25.0042  -33.8960   24.9740 H   0  0  0  0  0  0
  -22.9221  -31.2000   21.2916 H   0  0  0  0  0  0
  -23.3808  -35.9276   23.3191 H   0  0  0  0  0  0
  -24.3546  -36.8849   22.2109 H   0  0  0  0  0  0
  -23.7156  -37.6106   23.6866 H   0  0  0  0  0  0
  -26.4307  -30.8739   20.6610 H   0  0  0  0  0  0
  -26.9909  -30.2555   22.1527 H   0  0  0  0  0  0
  -27.9022  -27.5595   21.5174 H   0  0  0  0  0  0
  -25.3981  -25.4026   18.8168 H   0  0  0  0  0  0
  -23.9420  -27.2623   18.7326 H   0  0  0  0  0  0
  -24.0839  -30.3905   19.3848 H   0  0  0  0  0  0
  -22.8876  -29.1908   19.7585 H   0  0  0  0  0  0
  -25.1368  -36.1438   25.0746 H   0  0  0  0  0  0
  -21.0049  -28.3449   24.1229 H   0  0  0  0  0  0
  -20.5638  -26.2427   23.3711 H   0  0  0  0  0  0
  -21.6646  -26.7317   22.1248 H   0  0  0  0  0  0
  -19.6920  -25.6228   21.1331 H   0  0  0  0  0  0
  -19.6740  -27.3104   20.6719 H   0  0  0  0  0  0
  -17.4236  -26.6723   21.4010 H   0  0  0  0  0  0
  -18.0311  -26.0132   22.9031 H   0  0  0  0  0  0
  -19.8000  -30.7380   24.2118 H   0  0  0  0  0  0
  -17.5052  -31.6284   24.5169 H   0  0  0  0  0  0
  -15.5389  -30.2953   23.7750 H   0  0  0  0  0  0
  -15.8735  -28.0803   22.7150 H   0  0  0  0  0  0
  -24.5852  -30.7178   25.7586 H   0  0  0  0  0  0
  -24.8679  -32.3156   26.4344 H   0  0  0  0  0  0
  -25.7646  -30.9337   27.0314 H   0  0  0  0  0  0
  -26.3425  -29.6144   24.2326 H   0  0  0  0  0  0
  -27.4106  -29.7510   25.6009 H   0  0  0  0  0  0
  -27.9420  -30.3772   24.0651 H   0  0  0  0  0  0
  -27.2528  -33.3946   26.1685 H   0  0  0  0  0  0
  -28.4016  -32.6776   25.0493 H   0  0  0  0  0  0
  -28.0501  -31.8936   26.5822 H   0  0  0  0  0  0
  -28.2475  -38.0057   24.7587 H   0  0  0  0  0  0
  -28.1158  -36.2578   24.6193 H   0  0  0  0  0  0
  -27.2298  -37.1169   25.8873 H   0  0  0  0  0  0
  -20.9921  -29.8599   21.6353 H   0  0  0  0  0  0
  -26.0027  -38.2579   24.1488 H   0  0  0  0  0  0
  -27.5002  -12.9806   20.5853 H   0  0  0  0  0  0
  -27.6791  -12.3946   25.1503 H   0  0  0  0  0  0
  -26.9773  -11.8072   23.6783 H   0  0  0  0  0  0
  -26.8793  -13.5117   24.0832 H   0  0  0  0  0  0
  -30.4770  -15.4537   22.0848 H   0  0  0  0  0  0
  -30.6867  -14.3270   23.2035 H   0  0  0  0  0  0
  -29.2865  -15.3160   23.2532 H   0  0  0  0  0  0
  -29.0374  -12.0053   18.8780 H   0  0  0  0  0  0
  -29.7530  -11.1598   19.5319 H   0  0  0  0  0  0
  -30.5081  -11.7774   19.4311 H   0  0  0  0  0  0
  -28.1488  -10.7042   17.6850 H   0  0  0  0  0  0
  -26.9042   -9.6361   18.0428 H   0  0  0  0  0  0
  -28.5221   -9.3701   18.7427 H   0  0  0  0  0  0
  -26.7766   -8.8287   20.1888 H   0  0  0  0  0  0
  -25.5003   -9.9495   19.6431 H   0  0  0  0  0  0
  -26.3041  -10.0360   21.2966 H   0  0  0  0  0  0
  -25.6638  -18.0212   20.3310 H   0  0  0  0  0  0
  -26.5263  -17.9788   18.8554 H   0  0  0  0  0  0
  -29.4767  -12.0061   23.6453 H   0  0  0  0  0  0
  -29.2515  -13.4813   24.2810 H   0  0  0  0  0  0
  -28.2776  -20.0926   19.9239 H   0  0  0  0  0  0
  -27.3308  -20.1031   21.3415 H   0  0  0  0  0  0
  -29.2593   -9.7214   21.2844 H   0  0  0  0  0  0
  -28.4111  -10.6858   22.3595 H   0  0  0  0  0  0
  -26.9246  -22.4557   18.9561 H   0  0  0  0  0  0
  -25.8984  -22.4772   20.3245 H   0  0  0  0  0  0
  -31.1660  -11.2958   22.4635 H   0  0  0  0  0  0
  1 25  1  0  0  0
  1 30  2  0  0  0
  1 89  1  0  0  0
  2  3  1  0  0  0
  2 25  1  0  0  0
  2 90  1  0  0  0
  2 91  1  0  0  0
  3  4  1  0  0  0
  3 92  1  0  0  0
  3 93  1  0  0  0
  4  5  1  0  0  0
  4 94  1  0  0  0
  4 95  1  0  0  0
  5  6  1  0  0  0
  5 26  1  0  0  0
  5 96  1  0  0  0
  6 25  1  0  0  0
  6 97  1  0  0  0
  6 98  1  0  0  0
  7  8  2  0  0  0
  7 26  1  0  0  0
  7 29  1  0  0  0
  8  9  1  0  0  0
  8 22  1  0  0  0
  9 10  1  0  0  0
  9 27  2  0  0  0
 10 11  2  0  0  0
 10 15  1  0  0  0
 11 12  1  0  0  0
 11 99  1  0  0  0
 12 13  2  0  0  0
 12100  1  0  0  0
 13 14  1  0  0  0
 13 31  1  0  0  0
 14 15  2  0  0  0
 14101  1  0  0  0
 15102  1  0  0  0
 16 17  2  0  0  0
 16 21  1  0  0  0
 16 31  1  0  0  0
 17 18  1  0  0  0
 17103  1  0  0  0
 18 19  2  0  0  0
 18104  1  0  0  0
 19 20  1  0  0  0
 19 24  1  0  0  0
 20 21  2  0  0  0
 20105  1  0  0  0
 21 23  1  0  0  0
 22 28  1  0  0  0
 22 32  2  0  0  0
 26 27  1  0  0  0
 28106  1  0  0  0
 28107  1  0  0  0
 29108  1  0  0  0
 29109  1  0  0  0
 33 34  1  0  0  0
 33 66  1  0  0  0
 33 70  2  0  0  0
 34 36  1  0  0  0
 34 59  1  0  0  0
 34110  1  0  0  0
 35 44  2  0  0  0
 35 45  1  0  0  0
 35 68  1  0  0  0
 36 56  1  0  0  0
 36111  1  0  0  0
 37 39  1  0  0  0
 37 47  1  0  0  0
 37 66  1  0  0  0
 37112  1  0  0  0
 38 43  2  0  0  0
 38 46  1  0  0  0
 38 47  1  0  0  0
 39 64  1  0  0  0
 39 67  2  0  0  0
 40 52  1  0  0  0
 40 53  2  0  0  0
 40 58  1  0  0  0
 41113  1  0  0  0
 41114  1  0  0  0
 41115  1  0  0  0
 41 48  1  0  0  0
 42 43  1  0  0  0
 42 66  1  0  0  0
 42116  1  0  0  0
 42117  1  0  0  0
 43 44  1  0  0  0
 44118  1  0  0  0
 45 46  2  0  0  0
 45119  1  0  0  0
 46120  1  0  0  0
 47121  1  0  0  0
 47122  1  0  0  0
 48 56  1  0  0  0
 48 65  1  0  0  0
 48123  1  0  0  0
 49 50  1  0  0  0
 49 53  1  0  0  0
 49 64  1  0  0  0
 49124  1  0  0  0
 50 51  1  0  0  0
 50125  1  0  0  0
 50126  1  0  0  0
 51 52  1  0  0  0
 51127  1  0  0  0
 51128  1  0  0  0
 52129  1  0  0  0
 52130  1  0  0  0
 53 54  1  0  0  0
 54 55  2  0  0  0
 54131  1  0  0  0
 55 57  1  0  0  0
 55132  1  0  0  0
 56 69  2  0  0  0
 57 58  2  0  0  0
 57133  1  0  0  0
 58134  1  0  0  0
 59 60  1  0  0  0
 59 61  1  0  0  0
 59 62  1  0  0  0
 60135  1  0  0  0
 60136  1  0  0  0
 60137  1  0  0  0
 61138  1  0  0  0
 61139  1  0  0  0
 61140  1  0  0  0
 62141  1  0  0  0
 62142  1  0  0  0
 62143  1  0  0  0
 63 65  1  0  0  0
 63144  1  0  0  0
 63145  1  0  0  0
 63146  1  0  0  0
 64147  1  0  0  0
 65148  1  0  0  0
 68 84  1  0  0  0
 71 72  2  0  0  0
 71 87  1  0  0  0
 71149  1  0  0  0
 72 73  1  0  0  0
 72 85  1  0  0  0
 73 80  1  0  0  0
 73 88  2  0  0  0
 74 86  1  0  0  0
 74 87  2  0  0  0
 74 88  1  0  0  0
 75 81  1  0  0  0
 75150  1  0  0  0
 75151  1  0  0  0
 75152  1  0  0  0
 76153  1  0  0  0
 76154  1  0  0  0
 76155  1  0  0  0
 76 85  1  0  0  0
 77 85  1  0  0  0
 77156  1  0  0  0
 77157  1  0  0  0
 77158  1  0  0  0
 78159  1  0  0  0
 78160  1  0  0  0
 78161  1  0  0  0
 78 86  1  0  0  0
 79 86  1  0  0  0
 79162  1  0  0  0
 79163  1  0  0  0
 79164  1  0  0  0
 80 82  1  0  0  0
 80165  1  0  0  0
 80166  1  0  0  0
 81 85  1  0  0  0
 81167  1  0  0  0
 81168  1  0  0  0
 82 84  1  0  0  0
 82169  1  0  0  0
 82170  1  0  0  0
 83 86  1  0  0  0
 83 89  1  0  0  0
 83171  1  0  0  0
 83172  1  0  0  0
 84173  1  0  0  0
 84174  1  0  0  0
 89175  1  0  0  0
M  ISO  4   1 100  68 101  84 101  89 100
M  END
> <chiral flag>
0

> <version>
0

> <s_m_source_file>
/data/baiqing/PycharmProjects/Reinvent-master-3.2/result/LINK_invent/BTK/process_docking_weight1_custom_sum_contain_oxygen_bond_distance_aromatic_linkinvent_7_9_3/rearranged_h_0068.sdf

> <i_m_source_file_index>
18

> <r_mmod_Potential_Energy-OPLS-2005>
24147.40625

> <r_mmod_Stretch_Energy-OPLS-2005>
11637.880859375

> <r_mmod_Bend_Energy-OPLS-2005>
3738.330078125

> <r_mmod_Torsional_Energy-OPLS-2005>
601.265014648438

> <r_mmod_Improper_Torsional_Energy-OPLS-2005>
56.5377655029297

> <r_mmod_Van_der_Waal_Energy-OPLS-2005>
4603.5107421875

> <r_mmod_Electrostatic_Energy-OPLS-2005>
-676.151123046875

> <r_mmod_Solvation_Energy-OPLS-2005>
-236.051559448242

> <b_mmod_Minimization_Converged-OPLS-2005>
0

> <r_mmod_RMS_Derivative-OPLS-2005>
21.5184593200684

$$$$
19
                    3D
 Structure written by MMmdl.
172180  0  0  1  0            999 V2000
  -30.7113  -14.4641   20.6563 C   0  0  0  0  0  0
  -30.4284  -12.3351   19.4062 C   0  0  0  0  0  0
  -29.4900  -12.5327   18.1978 C   0  0  0  0  0  0
  -28.0113  -12.3841   18.6107 C   0  0  0  0  0  0
  -27.6644  -13.2025   19.8828 C   0  0  2  0  0  0
  -28.7062  -12.9271   20.9868 C   0  0  0  0  0  0
  -25.2612  -13.8155   20.5700 C   0  0  0  0  0  0
  -24.1843  -13.0437   20.9153 C   0  0  0  0  0  0
  -24.6389  -11.6900   20.8717 C   0  0  0  0  0  0
  -23.9053  -10.4292   21.0394 C   0  0  0  0  0  0
  -24.3609   -9.4216   21.9178 C   0  0  0  0  0  0
  -23.6290   -8.2248   22.0752 C   0  0  0  0  0  0
  -22.4273   -8.0281   21.3540 C   0  0  0  0  0  0
  -21.9901   -9.0254   20.4643 C   0  0  0  0  0  0
  -22.7226  -10.2134   20.3048 C   0  0  0  0  0  0
  -21.6854   -6.0736   22.5282 C   0  0  0  0  0  0
  -21.4012   -6.5640   23.8215 C   0  0  0  0  0  0
  -21.3661   -5.6791   24.9175 C   0  0  0  0  0  0
  -21.6044   -4.3053   24.7225 C   0  0  0  0  0  0
  -21.8820   -3.8146   23.4346 C   0  0  0  0  0  0
  -21.9193   -4.6964   22.3404 C   0  0  0  0  0  0
  -22.7869  -13.5247   21.1835 C   0  0  0  0  0  0
  -22.1661   -4.2150   21.0981 F   0  0  0  0  0  0
  -21.5632   -3.4539   25.7739 F   0  0  0  0  0  0
  -30.0304  -13.2939   20.4539 N   0  0  0  0  0  0
  -26.3043  -12.9312   20.3408 N   0  0  0  0  0  0
  -25.9316  -11.6474   20.5756 N   0  0  0  0  0  0
  -22.0510  -12.8233   22.0389 N   0  0  0  0  0  0
  -25.4381  -15.1879   20.4193 N   0  0  0  0  0  0
  -31.7763  -14.6719   20.0625 O   0  0  0  0  0  0
  -21.6638   -6.8879   21.4241 O   0  0  0  0  0  0
  -22.3557  -14.5563   20.6706 O   0  0  0  0  0  0
  -24.6147  -31.8671   23.2083 C   0  0  0  0  0  0
  -25.9034  -32.4823   23.8385 C   0  0  1  0  0  0
  -27.2360  -27.4232   20.1044 C   0  0  0  0  0  0
  -25.5886  -33.8620   24.2315 N   0  0  0  0  0  0
  -23.4027  -30.4883   21.5495 C   0  0  2  0  0  0
  -24.8491  -28.9463   20.1205 C   0  0  0  0  0  0
  -22.7406  -29.4650   22.4998 C   0  0  0  0  0  0
  -18.0267  -28.1369   22.8496 C   0  0  0  0  0  0
  -24.1485  -36.7309   23.2643 C   0  0  0  0  0  0
  -25.9317  -30.8295   21.3612 C   0  0  0  0  0  0
  -26.0098  -29.4614   20.7117 C   0  0  0  0  0  0
  -27.2071  -28.7096   20.6928 C   0  0  0  0  0  0
  -26.0586  -26.9201   19.5113 C   0  0  0  0  0  0
  -24.8691  -27.6752   19.5174 C   0  0  0  0  0  0
  -23.6119  -29.8151   20.1665 C   0  0  0  0  0  0
  -25.4106  -36.3113   24.0343 C   0  0  1  0  0  0
  -20.5860  -28.3657   23.1325 C   0  0  2  0  0  0
  -20.6762  -26.9393   22.5420 C   0  0  0  0  0  0
  -19.5743  -26.6378   21.5215 C   0  0  0  0  0  0
  -18.1919  -26.7913   22.1623 C   0  0  0  0  0  0
  -19.1515  -28.8824   23.2911 C   0  0  0  0  0  0
  -18.9449  -30.1430   23.8923 C   0  0  0  0  0  0
  -17.6454  -30.6583   24.0561 C   0  0  0  0  0  0
  -25.9034  -34.9478   23.5128 C   0  0  0  0  0  0
  -16.5344  -29.9081   23.6325 C   0  0  0  0  0  0
  -16.7256  -28.6494   23.0354 C   0  0  0  0  0  0
  -26.4456  -31.6610   25.0719 C   0  0  0  0  0  0
  -25.3722  -31.3714   26.1471 C   0  0  0  0  0  0
  -27.0287  -30.3060   24.6087 C   0  0  0  0  0  0
  -27.6037  -32.4328   25.7473 C   0  0  0  0  0  0
  -27.5579  -37.1808   24.8465 C   0  0  0  0  0  0
  -21.4133  -29.3029   22.3739 N   0  0  0  0  0  0
  -26.4292  -37.3799   23.9412 N   0  0  0  0  0  0
  -24.6682  -31.0765   22.0984 N   0  0  0  0  0  0
  -23.4178  -28.8205   23.3047 O   0  0  0  0  0  0
  -28.4171  -26.7120   20.0662 O   0  0  0  0  0  0
  -26.5606  -34.8932   22.4697 O   0  0  0  0  0  0
  -23.5338  -32.1419   23.7483 O   0  0  0  0  0  0
  -28.1977  -18.5228   20.5436 C   0  0  0  0  0  0
  -29.2118  -19.3796   20.0672 C   0  0  0  0  0  0
  -29.7928  -16.9068   20.9269 C   0  0  0  0  0  0
  -28.2944  -23.9179   18.3817 C   0  0  0  0  0  0
  -30.3878  -25.1784   18.9157 C   0  0  0  0  0  0
  -32.4833  -15.9809   22.7883 C   0  0  0  0  0  0
  -30.4103  -16.9334   23.8049 C   0  0  0  0  0  0
  -28.9242  -20.7996   19.5591 C   0  0  0  0  0  0
  -28.9825  -21.9192   20.6398 C   0  0  0  0  0  0
  -29.8442  -23.1632   20.2775 C   0  0  0  0  0  0
  -28.4131  -25.3326   20.4909 C   0  0  0  0  0  0
  -30.1736  -15.5742   21.6242 C   0  0  2  0  0  0
  -29.2089  -24.3871   19.5278 C   0  0  0  0  0  0
  -30.9634  -15.7347   22.9856 C   0  0  0  0  0  0
  -30.7903  -14.4527   23.8507 C   0  0  0  0  0  0
  -28.5006  -17.2762   20.9826 N   0  0  0  0  0  0
  -30.4943  -18.9379   20.0247 N   0  0  0  0  0  0
  -30.7813  -17.6937   20.4501 N   0  0  0  0  0  0
  -31.4095  -14.5935   25.0237 F   0  0  0  0  0  0
  -29.5024  -14.2176   24.0985 F   0  0  0  0  0  0
  -31.3050  -13.3752   23.2600 F   0  0  0  0  0  0
  -31.4691  -12.4505   19.0984 H   0  0  0  0  0  0
  -30.3533  -11.3139   19.7839 H   0  0  0  0  0  0
  -29.7325  -11.8153   17.4128 H   0  0  0  0  0  0
  -29.6522  -13.5220   17.7678 H   0  0  0  0  0  0
  -27.8216  -11.3254   18.7901 H   0  0  0  0  0  0
  -27.3582  -12.6727   17.7866 H   0  0  0  0  0  0
  -27.7220  -14.2588   19.6188 H   0  0  0  0  0  0
  -28.7022  -11.8632   21.2304 H   0  0  0  0  0  0
  -28.4287  -13.3985   21.9247 H   0  0  0  0  0  0
  -25.2757   -9.5697   22.4747 H   0  0  0  0  0  0
  -24.0005   -7.4640   22.7466 H   0  0  0  0  0  0
  -21.0835   -8.8769   19.8947 H   0  0  0  0  0  0
  -22.3687  -10.9671   19.6152 H   0  0  0  0  0  0
  -21.2000   -7.6147   23.9719 H   0  0  0  0  0  0
  -21.1479   -6.0520   25.9079 H   0  0  0  0  0  0
  -22.0597   -2.7608   23.2848 H   0  0  0  0  0  0
  -22.4115  -11.9883   22.4763 H   0  0  0  0  0  0
  -21.1130  -13.1262   22.2602 H   0  0  0  0  0  0
  -24.6814  -15.8481   20.5583 H   0  0  0  0  0  0
  -26.3199  -15.6385   20.2046 H   0  0  0  0  0  0
  -26.7103  -32.5532   23.1146 H   0  0  0  0  0  0
  -25.0041  -33.9792   25.0462 H   0  0  0  0  0  0
  -22.6915  -31.3048   21.4075 H   0  0  0  0  0  0
  -23.3754  -35.9638   23.3316 H   0  0  0  0  0  0
  -24.3571  -36.8904   22.2053 H   0  0  0  0  0  0
  -23.7231  -37.6518   23.6642 H   0  0  0  0  0  0
  -26.0433  -31.5931   20.5903 H   0  0  0  0  0  0
  -26.8207  -30.8853   21.9783 H   0  0  0  0  0  0
  -28.1081  -29.1084   21.1376 H   0  0  0  0  0  0
  -26.0611  -25.9519   19.0314 H   0  0  0  0  0  0
  -23.9771  -27.2727   19.0577 H   0  0  0  0  0  0
  -23.7209  -30.5871   19.4034 H   0  0  0  0  0  0
  -22.7362  -29.2342   19.8720 H   0  0  0  0  0  0
  -25.1280  -36.1983   25.0837 H   0  0  0  0  0  0
  -20.9946  -28.3213   24.1446 H   0  0  0  0  0  0
  -20.5666  -26.2261   23.3605 H   0  0  0  0  0  0
  -21.6630  -26.7437   22.1210 H   0  0  0  0  0  0
  -19.6911  -25.6295   21.1229 H   0  0  0  0  0  0
  -19.6687  -27.3202   20.6759 H   0  0  0  0  0  0
  -17.4192  -26.6670   21.4021 H   0  0  0  0  0  0
  -18.0314  -26.0040   22.9002 H   0  0  0  0  0  0
  -19.7930  -30.7233   24.2310 H   0  0  0  0  0  0
  -17.5014  -31.6268   24.5148 H   0  0  0  0  0  0
  -15.5350  -30.2999   23.7635 H   0  0  0  0  0  0
  -15.8649  -28.0821   22.7070 H   0  0  0  0  0  0
  -24.5884  -30.7073   25.7798 H   0  0  0  0  0  0
  -24.8927  -32.2875   26.4940 H   0  0  0  0  0  0
  -25.8071  -30.8860   27.0219 H   0  0  0  0  0  0
  -26.2827  -29.6833   24.1136 H   0  0  0  0  0  0
  -27.4065  -29.7283   25.4533 H   0  0  0  0  0  0
  -27.8650  -30.4393   23.9222 H   0  0  0  0  0  0
  -27.2660  -33.3621   26.2072 H   0  0  0  0  0  0
  -28.3825  -32.6902   25.0280 H   0  0  0  0  0  0
  -28.0727  -31.8443   26.5367 H   0  0  0  0  0  0
  -28.2604  -38.0102   24.7516 H   0  0  0  0  0  0
  -28.1070  -36.2635   24.6279 H   0  0  0  0  0  0
  -27.2299  -37.1433   25.8872 H   0  0  0  0  0  0
  -20.9299  -29.8747   21.6959 H   0  0  0  0  0  0
  -26.0186  -38.2880   24.1420 H   0  0  0  0  0  0
  -27.1641  -18.8356   20.5830 H   0  0  0  0  0  0
  -28.8189  -23.2474   17.6996 H   0  0  0  0  0  0
  -27.9294  -24.7621   17.7961 H   0  0  0  0  0  0
  -27.4193  -23.3871   18.7583 H   0  0  0  0  0  0
  -30.9894  -24.5567   18.2511 H   0  0  0  0  0  0
  -31.0500  -25.5659   19.6910 H   0  0  0  0  0  0
  -30.0471  -26.0284   18.3231 H   0  0  0  0  0  0
  -32.6807  -16.8522   22.1648 H   0  0  0  0  0  0
  -32.9837  -15.1279   22.3310 H   0  0  0  0  0  0
  -32.9823  -16.1547   23.7421 H   0  0  0  0  0  0
  -30.5868  -17.8902   23.3129 H   0  0  0  0  0  0
  -30.8804  -17.0008   24.7861 H   0  0  0  0  0  0
  -29.3364  -16.8408   23.9715 H   0  0  0  0  0  0
  -27.9432  -20.8076   19.0824 H   0  0  0  0  0  0
  -29.6315  -21.0117   18.7566 H   0  0  0  0  0  0
  -29.4309  -21.4837   21.5339 H   0  0  0  0  0  0
  -27.9787  -22.2128   20.9481 H   0  0  0  0  0  0
  -30.7061  -22.7990   19.7163 H   0  0  0  0  0  0
  -30.2851  -23.5374   21.2028 H   0  0  0  0  0  0
  -28.8947  -25.3360   21.4688 H   0  0  0  0  0  0
  -27.4103  -24.9426   20.6726 H   0  0  0  0  0  0
  -29.1968  -15.2514   21.9535 H   0  0  0  0  0  0
  1 25  1  0  0  0
  1 30  2  0  0  0
  1 82  1  0  0  0
  2  3  1  0  0  0
  2 25  1  0  0  0
  2 92  1  0  0  0
  2 93  1  0  0  0
  3  4  1  0  0  0
  3 94  1  0  0  0
  3 95  1  0  0  0
  4  5  1  0  0  0
  4 96  1  0  0  0
  4 97  1  0  0  0
  5  6  1  0  0  0
  5 26  1  0  0  0
  5 98  1  0  0  0
  6 25  1  0  0  0
  6 99  1  0  0  0
  6100  1  0  0  0
  7  8  2  0  0  0
  7 26  1  0  0  0
  7 29  1  0  0  0
  8  9  1  0  0  0
  8 22  1  0  0  0
  9 10  1  0  0  0
  9 27  2  0  0  0
 10 11  2  0  0  0
 10 15  1  0  0  0
 11 12  1  0  0  0
 11101  1  0  0  0
 12 13  2  0  0  0
 12102  1  0  0  0
 13 14  1  0  0  0
 13 31  1  0  0  0
 14 15  2  0  0  0
 14103  1  0  0  0
 15104  1  0  0  0
 16 17  2  0  0  0
 16 21  1  0  0  0
 16 31  1  0  0  0
 17 18  1  0  0  0
 17105  1  0  0  0
 18 19  2  0  0  0
 18106  1  0  0  0
 19 20  1  0  0  0
 19 24  1  0  0  0
 20 21  2  0  0  0
 20107  1  0  0  0
 21 23  1  0  0  0
 22 28  1  0  0  0
 22 32  2  0  0  0
 26 27  1  0  0  0
 28108  1  0  0  0
 28109  1  0  0  0
 29110  1  0  0  0
 29111  1  0  0  0
 33 34  1  0  0  0
 33 66  1  0  0  0
 33 70  2  0  0  0
 34 36  1  0  0  0
 34 59  1  0  0  0
 34112  1  0  0  0
 35 44  2  0  0  0
 35 45  1  0  0  0
 35 68  1  0  0  0
 36 56  1  0  0  0
 36113  1  0  0  0
 37 39  1  0  0  0
 37 47  1  0  0  0
 37 66  1  0  0  0
 37114  1  0  0  0
 38 43  2  0  0  0
 38 46  1  0  0  0
 38 47  1  0  0  0
 39 64  1  0  0  0
 39 67  2  0  0  0
 40 52  1  0  0  0
 40 53  2  0  0  0
 40 58  1  0  0  0
 41115  1  0  0  0
 41116  1  0  0  0
 41117  1  0  0  0
 41 48  1  0  0  0
 42 43  1  0  0  0
 42 66  1  0  0  0
 42118  1  0  0  0
 42119  1  0  0  0
 43 44  1  0  0  0
 44120  1  0  0  0
 45 46  2  0  0  0
 45121  1  0  0  0
 46122  1  0  0  0
 47123  1  0  0  0
 47124  1  0  0  0
 48 56  1  0  0  0
 48 65  1  0  0  0
 48125  1  0  0  0
 49 50  1  0  0  0
 49 53  1  0  0  0
 49 64  1  0  0  0
 49126  1  0  0  0
 50 51  1  0  0  0
 50127  1  0  0  0
 50128  1  0  0  0
 51 52  1  0  0  0
 51129  1  0  0  0
 51130  1  0  0  0
 52131  1  0  0  0
 52132  1  0  0  0
 53 54  1  0  0  0
 54 55  2  0  0  0
 54133  1  0  0  0
 55 57  1  0  0  0
 55134  1  0  0  0
 56 69  2  0  0  0
 57 58  2  0  0  0
 57135  1  0  0  0
 58136  1  0  0  0
 59 60  1  0  0  0
 59 61  1  0  0  0
 59 62  1  0  0  0
 60137  1  0  0  0
 60138  1  0  0  0
 60139  1  0  0  0
 61140  1  0  0  0
 61141  1  0  0  0
 61142  1  0  0  0
 62143  1  0  0  0
 62144  1  0  0  0
 62145  1  0  0  0
 63 65  1  0  0  0
 63146  1  0  0  0
 63147  1  0  0  0
 63148  1  0  0  0
 64149  1  0  0  0
 65150  1  0  0  0
 68 81  1  0  0  0
 71 72  2  0  0  0
 71 86  1  0  0  0
 71151  1  0  0  0
 72 78  1  0  0  0
 72 87  1  0  0  0
 73 82  1  0  0  0
 73 86  2  0  0  0
 73 88  1  0  0  0
 74152  1  0  0  0
 74153  1  0  0  0
 74154  1  0  0  0
 74 83  1  0  0  0
 75 83  1  0  0  0
 75155  1  0  0  0
 75156  1  0  0  0
 75157  1  0  0  0
 76158  1  0  0  0
 76159  1  0  0  0
 76160  1  0  0  0
 76 84  1  0  0  0
 77 84  1  0  0  0
 77161  1  0  0  0
 77162  1  0  0  0
 77163  1  0  0  0
 78 79  1  0  0  0
 78164  1  0  0  0
 78165  1  0  0  0
 79 80  1  0  0  0
 79166  1  0  0  0
 79167  1  0  0  0
 80 83  1  0  0  0
 80168  1  0  0  0
 80169  1  0  0  0
 81 83  1  0  0  0
 81170  1  0  0  0
 81171  1  0  0  0
 82 84  1  0  0  0
 82172  1  0  0  0
 84 85  1  0  0  0
 85 89  1  0  0  0
 85 90  1  0  0  0
 85 91  1  0  0  0
 87 88  2  0  0  0
M  ISO  4   1 100  68 101  81 101  82 100
M  END
> <chiral flag>
0

> <version>
0

> <s_m_source_file>
/data/baiqing/PycharmProjects/Reinvent-master-3.2/result/LINK_invent/BTK/process_docking_weight1_custom_sum_contain_oxygen_bond_distance_aromatic_linkinvent_7_9_3/rearranged_h_0068.sdf

> <i_m_source_file_index>
19

> <r_mmod_Potential_Energy-OPLS-2005>
48.3615760803223

> <r_mmod_Stretch_Energy-OPLS-2005>
54.838451385498

> <r_mmod_Bend_Energy-OPLS-2005>
140.336029052734

> <r_mmod_Torsional_Energy-OPLS-2005>
199.263595581055

> <r_mmod_Improper_Torsional_Energy-OPLS-2005>
2.33590817451477

> <r_mmod_Van_der_Waal_Energy-OPLS-2005>
165.638107299805

> <r_mmod_Electrostatic_Energy-OPLS-2005>
-340.645935058594

> <r_mmod_Solvation_Energy-OPLS-2005>
-184.364028930664

> <b_mmod_Minimization_Converged-OPLS-2005>
0

> <r_mmod_RMS_Derivative-OPLS-2005>
0.91754686832428

$$$$
20
                    3D
 Structure written by MMmdl.
172180  0  0  1  0            999 V2000
  -30.6556  -14.6296   20.4751 C   0  0  0  0  0  0
  -30.4191  -12.3806   19.4645 C   0  0  0  0  0  0
  -29.5019  -12.4999   18.2285 C   0  0  0  0  0  0
  -28.0263  -12.3417   18.6409 C   0  0  0  0  0  0
  -27.6471  -13.2247   19.8606 C   0  0  2  0  0  0
  -28.6905  -13.1120   20.9949 C   0  0  0  0  0  0
  -25.2514  -13.8180   20.5713 C   0  0  0  0  0  0
  -24.1793  -13.0426   20.9212 C   0  0  0  0  0  0
  -24.6385  -11.6909   20.8754 C   0  0  0  0  0  0
  -23.9061  -10.4285   21.0407 C   0  0  0  0  0  0
  -24.3613   -9.4202   21.9183 C   0  0  0  0  0  0
  -23.6287   -8.2242   22.0753 C   0  0  0  0  0  0
  -22.4274   -8.0278   21.3542 C   0  0  0  0  0  0
  -21.9909   -9.0252   20.4643 C   0  0  0  0  0  0
  -22.7238  -10.2129   20.3053 C   0  0  0  0  0  0
  -21.6849   -6.0732   22.5275 C   0  0  0  0  0  0
  -21.4019   -6.5636   23.8210 C   0  0  0  0  0  0
  -21.3661   -5.6788   24.9171 C   0  0  0  0  0  0
  -21.6047   -4.3051   24.7223 C   0  0  0  0  0  0
  -21.8817   -3.8141   23.4344 C   0  0  0  0  0  0
  -21.9195   -4.6959   22.3401 C   0  0  0  0  0  0
  -22.7823  -13.5218   21.1875 C   0  0  0  0  0  0
  -22.1658   -4.2144   21.0977 F   0  0  0  0  0  0
  -21.5631   -3.4533   25.7738 F   0  0  0  0  0  0
  -30.0042  -13.4271   20.4205 N   0  0  0  0  0  0
  -26.2952  -12.9385   20.3324 N   0  0  0  0  0  0
  -25.9316  -11.6530   20.5768 N   0  0  0  0  0  0
  -22.0466  -12.8203   22.0426 N   0  0  0  0  0  0
  -25.4167  -15.1894   20.4117 N   0  0  0  0  0  0
  -31.8394  -14.7114   20.1402 O   0  0  0  0  0  0
  -21.6638   -6.8877   21.4239 O   0  0  0  0  0  0
  -22.3515  -14.5525   20.6727 O   0  0  0  0  0  0
  -24.6220  -31.8624   23.2030 C   0  0  0  0  0  0
  -25.9090  -32.4778   23.8365 C   0  0  1  0  0  0
  -27.2242  -27.3432   20.1130 C   0  0  0  0  0  0
  -25.5934  -33.8583   24.2303 N   0  0  0  0  0  0
  -23.4146  -30.4853   21.5453 C   0  0  2  0  0  0
  -24.8603  -28.9428   20.1098 C   0  0  0  0  0  0
  -22.7456  -29.4635   22.4946 C   0  0  0  0  0  0
  -18.0293  -28.1355   22.8480 C   0  0  0  0  0  0
  -24.1507  -36.7289   23.2638 C   0  0  0  0  0  0
  -25.9525  -30.8003   21.3701 C   0  0  0  0  0  0
  -26.0284  -29.4305   20.7098 C   0  0  0  0  0  0
  -27.2145  -28.6424   20.6998 C   0  0  0  0  0  0
  -26.0316  -26.8975   19.4972 C   0  0  0  0  0  0
  -24.8624  -27.6813   19.4940 C   0  0  0  0  0  0
  -23.6268  -29.8198   20.1599 C   0  0  0  0  0  0
  -25.4120  -36.3082   24.0331 C   0  0  1  0  0  0
  -20.5887  -28.3673   23.1270 C   0  0  2  0  0  0
  -20.6779  -26.9399   22.5394 C   0  0  0  0  0  0
  -19.5761  -26.6361   21.5188 C   0  0  0  0  0  0
  -18.1942  -26.7901   22.1604 C   0  0  0  0  0  0
  -19.1541  -28.8827   23.2874 C   0  0  0  0  0  0
  -18.9466  -30.1425   23.8898 C   0  0  0  0  0  0
  -17.6471  -30.6571   24.0543 C   0  0  0  0  0  0
  -25.9044  -34.9449   23.5109 C   0  0  0  0  0  0
  -16.5365  -29.9059   23.6312 C   0  0  0  0  0  0
  -16.7282  -28.6471   23.0342 C   0  0  0  0  0  0
  -26.4490  -31.6569   25.0716 C   0  0  0  0  0  0
  -25.3730  -31.3678   26.1450 C   0  0  0  0  0  0
  -27.0324  -30.3002   24.6127 C   0  0  0  0  0  0
  -27.6071  -32.4288   25.7478 C   0  0  0  0  0  0
  -27.5593  -37.1805   24.8466 C   0  0  0  0  0  0
  -21.4173  -29.3052   22.3690 N   0  0  0  0  0  0
  -26.4310  -37.3771   23.9404 N   0  0  0  0  0  0
  -24.6819  -31.0655   22.0964 N   0  0  0  0  0  0
  -23.4199  -28.8163   23.2997 O   0  0  0  0  0  0
  -28.3592  -26.5283   20.1560 O   0  0  0  0  0  0
  -26.5606  -34.8915   22.4674 O   0  0  0  0  0  0
  -23.5391  -32.1411   23.7373 O   0  0  0  0  0  0
  -28.5131  -21.9579   21.4139 C   0  0  0  0  0  0
  -29.9275  -21.7400   19.5596 C   0  0  0  0  0  0
  -29.2758  -22.6349   20.4412 C   0  0  0  0  0  0
  -29.1867  -19.8334   20.6846 C   0  0  0  0  0  0
  -31.2023  -23.8823   22.3834 C   0  0  0  0  0  0
  -30.5332  -24.6269   19.3873 C   0  0  0  0  0  0
  -28.4111  -17.8650   22.1275 C   0  0  0  0  0  0
  -27.8014  -17.9482   19.7288 C   0  0  0  0  0  0
  -31.4194  -17.6493   21.2792 C   0  0  0  0  0  0
  -30.6231  -17.3363   18.9238 C   0  0  0  0  0  0
  -29.9834  -24.6525   21.8389 C   0  0  0  0  0  0
  -28.1830  -25.0663   20.1050 C   0  0  0  0  0  0
  -29.4748  -24.2083   20.4369 C   0  0  2  0  0  0
  -28.9500  -18.2446   20.7167 C   0  0  0  0  0  0
  -30.2015  -17.2332   20.4173 C   0  0  0  0  0  0
  -28.4685  -20.6028   21.5170 N   0  0  0  0  0  0
  -29.8605  -20.3869   19.6738 N   0  0  0  0  0  0
  -29.8939  -15.7569   20.6772 N   0  0  0  0  0  0
  -31.4661  -12.4711   19.1690 H   0  0  0  0  0  0
  -30.3227  -11.3934   19.9192 H   0  0  0  0  0  0
  -29.7661  -11.7448   17.4866 H   0  0  0  0  0  0
  -29.6496  -13.4685   17.7476 H   0  0  0  0  0  0
  -27.8672  -11.2906   18.8841 H   0  0  0  0  0  0
  -27.3702  -12.5604   17.7978 H   0  0  0  0  0  0
  -27.6564  -14.2550   19.5049 H   0  0  0  0  0  0
  -28.6963  -12.1057   21.4161 H   0  0  0  0  0  0
  -28.4462  -13.7847   21.8186 H   0  0  0  0  0  0
  -25.2756   -9.5681   22.4758 H   0  0  0  0  0  0
  -23.9994   -7.4635   22.7473 H   0  0  0  0  0  0
  -21.0844   -8.8773   19.8944 H   0  0  0  0  0  0
  -22.3700  -10.9671   19.6161 H   0  0  0  0  0  0
  -21.2012   -7.6142   23.9715 H   0  0  0  0  0  0
  -21.1487   -6.0516   25.9077 H   0  0  0  0  0  0
  -22.0597   -2.7603   23.2844 H   0  0  0  0  0  0
  -22.4084  -11.9856   22.4793 H   0  0  0  0  0  0
  -21.1092  -13.1229   22.2642 H   0  0  0  0  0  0
  -24.6422  -15.8352   20.5176 H   0  0  0  0  0  0
  -26.2501  -15.6279   20.0464 H   0  0  0  0  0  0
  -26.7154  -32.5465   23.1115 H   0  0  0  0  0  0
  -25.0154  -33.9728   25.0498 H   0  0  0  0  0  0
  -22.7082  -31.3059   21.4023 H   0  0  0  0  0  0
  -23.3772  -35.9621   23.3284 H   0  0  0  0  0  0
  -24.3628  -36.8910   22.2063 H   0  0  0  0  0  0
  -23.7254  -37.6483   23.6659 H   0  0  0  0  0  0
  -26.0828  -31.5683   20.6073 H   0  0  0  0  0  0
  -26.8316  -30.8453   21.9999 H   0  0  0  0  0  0
  -28.1141  -29.0127   21.1723 H   0  0  0  0  0  0
  -25.9769  -25.9333   19.0146 H   0  0  0  0  0  0
  -23.9658  -27.3015   19.0211 H   0  0  0  0  0  0
  -23.7402  -30.5952   19.4006 H   0  0  0  0  0  0
  -22.7481  -29.2434   19.8623 H   0  0  0  0  0  0
  -25.1298  -36.1949   25.0818 H   0  0  0  0  0  0
  -20.9991  -28.3248   24.1383 H   0  0  0  0  0  0
  -20.5670  -26.2287   23.3600 H   0  0  0  0  0  0
  -21.6652  -26.7424   22.1204 H   0  0  0  0  0  0
  -19.6933  -25.6261   21.1239 H   0  0  0  0  0  0
  -19.6694  -27.3155   20.6705 H   0  0  0  0  0  0
  -17.4213  -26.6646   21.4005 H   0  0  0  0  0  0
  -18.0348  -26.0031   22.8987 H   0  0  0  0  0  0
  -19.7948  -30.7218   24.2294 H   0  0  0  0  0  0
  -17.5029  -31.6261   24.5131 H   0  0  0  0  0  0
  -15.5363  -30.2967   23.7611 H   0  0  0  0  0  0
  -15.8687  -28.0784   22.7060 H   0  0  0  0  0  0
  -24.5962  -30.6949   25.7793 H   0  0  0  0  0  0
  -24.8849  -32.2818   26.4847 H   0  0  0  0  0  0
  -25.8080  -30.8917   27.0247 H   0  0  0  0  0  0
  -26.2873  -29.6759   24.1182 H   0  0  0  0  0  0
  -27.4075  -29.7248   25.4600 H   0  0  0  0  0  0
  -27.8722  -30.4291   23.9293 H   0  0  0  0  0  0
  -27.2720  -33.3622   26.2011 H   0  0  0  0  0  0
  -28.3908  -32.6778   25.0304 H   0  0  0  0  0  0
  -28.0701  -31.8422   26.5421 H   0  0  0  0  0  0
  -28.2592  -38.0128   24.7541 H   0  0  0  0  0  0
  -28.1114  -36.2657   24.6261 H   0  0  0  0  0  0
  -27.2322  -37.1418   25.8874 H   0  0  0  0  0  0
  -20.9339  -29.8803   21.6941 H   0  0  0  0  0  0
  -26.0192  -38.2840   24.1412 H   0  0  0  0  0  0
  -27.9551  -22.5097   22.1566 H   0  0  0  0  0  0
  -30.5464  -22.0920   18.7478 H   0  0  0  0  0  0
  -31.4705  -24.2445   23.3763 H   0  0  0  0  0  0
  -32.0783  -24.0142   21.7493 H   0  0  0  0  0  0
  -31.0148  -22.8129   22.4740 H   0  0  0  0  0  0
  -31.4936  -24.1352   19.5384 H   0  0  0  0  0  0
  -30.7252  -25.7007   19.4215 H   0  0  0  0  0  0
  -30.2031  -24.4026   18.3726 H   0  0  0  0  0  0
  -27.4742  -18.3762   22.3498 H   0  0  0  0  0  0
  -29.1123  -18.1415   22.9140 H   0  0  0  0  0  0
  -28.1933  -16.8043   22.2372 H   0  0  0  0  0  0
  -26.8980  -18.4947   20.0019 H   0  0  0  0  0  0
  -27.5551  -16.8897   19.6961 H   0  0  0  0  0  0
  -28.0603  -18.2642   18.7183 H   0  0  0  0  0  0
  -31.6722  -18.7001   21.1394 H   0  0  0  0  0  0
  -32.3160  -17.0872   21.0193 H   0  0  0  0  0  0
  -31.2446  -17.4913   22.3426 H   0  0  0  0  0  0
  -30.8016  -18.3584   18.6021 H   0  0  0  0  0  0
  -29.8709  -16.9156   18.2564 H   0  0  0  0  0  0
  -31.5522  -16.8071   18.7188 H   0  0  0  0  0  0
  -30.2222  -25.7180   21.8287 H   0  0  0  0  0  0
  -29.1739  -24.5561   22.5639 H   0  0  0  0  0  0
  -27.3850  -24.7878   20.7945 H   0  0  0  0  0  0
  -27.8410  -24.7880   19.1077 H   0  0  0  0  0  0
  -28.9404  -15.5644   20.9447 H   0  0  0  0  0  0
  1 25  1  0  0  0
  1 30  2  0  0  0
  1 88  1  0  0  0
  2  3  1  0  0  0
  2 25  1  0  0  0
  2 89  1  0  0  0
  2 90  1  0  0  0
  3  4  1  0  0  0
  3 91  1  0  0  0
  3 92  1  0  0  0
  4  5  1  0  0  0
  4 93  1  0  0  0
  4 94  1  0  0  0
  5  6  1  0  0  0
  5 26  1  0  0  0
  5 95  1  0  0  0
  6 25  1  0  0  0
  6 96  1  0  0  0
  6 97  1  0  0  0
  7  8  2  0  0  0
  7 26  1  0  0  0
  7 29  1  0  0  0
  8  9  1  0  0  0
  8 22  1  0  0  0
  9 10  1  0  0  0
  9 27  2  0  0  0
 10 11  2  0  0  0
 10 15  1  0  0  0
 11 12  1  0  0  0
 11 98  1  0  0  0
 12 13  2  0  0  0
 12 99  1  0  0  0
 13 14  1  0  0  0
 13 31  1  0  0  0
 14 15  2  0  0  0
 14100  1  0  0  0
 15101  1  0  0  0
 16 17  2  0  0  0
 16 21  1  0  0  0
 16 31  1  0  0  0
 17 18  1  0  0  0
 17102  1  0  0  0
 18 19  2  0  0  0
 18103  1  0  0  0
 19 20  1  0  0  0
 19 24  1  0  0  0
 20 21  2  0  0  0
 20104  1  0  0  0
 21 23  1  0  0  0
 22 28  1  0  0  0
 22 32  2  0  0  0
 26 27  1  0  0  0
 28105  1  0  0  0
 28106  1  0  0  0
 29107  1  0  0  0
 29108  1  0  0  0
 33 34  1  0  0  0
 33 66  1  0  0  0
 33 70  2  0  0  0
 34 36  1  0  0  0
 34 59  1  0  0  0
 34109  1  0  0  0
 35 44  2  0  0  0
 35 45  1  0  0  0
 35 68  1  0  0  0
 36 56  1  0  0  0
 36110  1  0  0  0
 37 39  1  0  0  0
 37 47  1  0  0  0
 37 66  1  0  0  0
 37111  1  0  0  0
 38 43  2  0  0  0
 38 46  1  0  0  0
 38 47  1  0  0  0
 39 64  1  0  0  0
 39 67  2  0  0  0
 40 52  1  0  0  0
 40 53  2  0  0  0
 40 58  1  0  0  0
 41112  1  0  0  0
 41113  1  0  0  0
 41114  1  0  0  0
 41 48  1  0  0  0
 42 43  1  0  0  0
 42 66  1  0  0  0
 42115  1  0  0  0
 42116  1  0  0  0
 43 44  1  0  0  0
 44117  1  0  0  0
 45 46  2  0  0  0
 45118  1  0  0  0
 46119  1  0  0  0
 47120  1  0  0  0
 47121  1  0  0  0
 48 56  1  0  0  0
 48 65  1  0  0  0
 48122  1  0  0  0
 49 50  1  0  0  0
 49 53  1  0  0  0
 49 64  1  0  0  0
 49123  1  0  0  0
 50 51  1  0  0  0
 50124  1  0  0  0
 50125  1  0  0  0
 51 52  1  0  0  0
 51126  1  0  0  0
 51127  1  0  0  0
 52128  1  0  0  0
 52129  1  0  0  0
 53 54  1  0  0  0
 54 55  2  0  0  0
 54130  1  0  0  0
 55 57  1  0  0  0
 55131  1  0  0  0
 56 69  2  0  0  0
 57 58  2  0  0  0
 57132  1  0  0  0
 58133  1  0  0  0
 59 60  1  0  0  0
 59 61  1  0  0  0
 59 62  1  0  0  0
 60134  1  0  0  0
 60135  1  0  0  0
 60136  1  0  0  0
 61137  1  0  0  0
 61138  1  0  0  0
 61139  1  0  0  0
 62140  1  0  0  0
 62141  1  0  0  0
 62142  1  0  0  0
 63 65  1  0  0  0
 63143  1  0  0  0
 63144  1  0  0  0
 63145  1  0  0  0
 64146  1  0  0  0
 65147  1  0  0  0
 68 82  1  0  0  0
 71 73  2  0  0  0
 71 86  1  0  0  0
 71148  1  0  0  0
 72 73  1  0  0  0
 72 87  2  0  0  0
 72149  1  0  0  0
 73 83  1  0  0  0
 74 84  1  0  0  0
 74 86  2  0  0  0
 74 87  1  0  0  0
 75 81  1  0  0  0
 75150  1  0  0  0
 75151  1  0  0  0
 75152  1  0  0  0
 76153  1  0  0  0
 76154  1  0  0  0
 76155  1  0  0  0
 76 83  1  0  0  0
 77156  1  0  0  0
 77157  1  0  0  0
 77158  1  0  0  0
 77 84  1  0  0  0
 78 84  1  0  0  0
 78159  1  0  0  0
 78160  1  0  0  0
 78161  1  0  0  0
 79162  1  0  0  0
 79163  1  0  0  0
 79164  1  0  0  0
 79 85  1  0  0  0
 80 85  1  0  0  0
 80165  1  0  0  0
 80166  1  0  0  0
 80167  1  0  0  0
 81 83  1  0  0  0
 81168  1  0  0  0
 81169  1  0  0  0
 82 83  1  0  0  0
 82170  1  0  0  0
 82171  1  0  0  0
 84 85  1  0  0  0
 85 88  1  0  0  0
 88172  1  0  0  0
M  ISO  4   1 100  68 101  82 101  88 100
M  END
> <chiral flag>
0

> <version>
0

> <s_m_source_file>
/data/baiqing/PycharmProjects/Reinvent-master-3.2/result/LINK_invent/BTK/process_docking_weight1_custom_sum_contain_oxygen_bond_distance_aromatic_linkinvent_7_9_3/rearranged_h_0068.sdf

> <i_m_source_file_index>
20

> <r_mmod_Potential_Energy-OPLS-2005>
-246.109664916992

> <r_mmod_Stretch_Energy-OPLS-2005>
96.7970428466797

> <r_mmod_Bend_Energy-OPLS-2005>
152.845474243164

> <r_mmod_Torsional_Energy-OPLS-2005>
218.269104003906

> <r_mmod_Improper_Torsional_Energy-OPLS-2005>
7.99271154403687

> <r_mmod_Van_der_Waal_Energy-OPLS-2005>
168.598907470703

> <r_mmod_Electrostatic_Energy-OPLS-2005>
-729.7314453125

> <r_mmod_Solvation_Energy-OPLS-2005>
-204.314270019531

> <b_mmod_Minimization_Converged-OPLS-2005>
0

> <r_mmod_RMS_Derivative-OPLS-2005>
1.99901759624481

$$$$
21
                    3D
 Structure written by MMmdl.
189197  0  0  1  0            999 V2000
  -30.8155  -14.3497   20.7760 C   0  0  0  0  0  0
  -30.4061  -12.3199   19.4132 C   0  0  0  0  0  0
  -29.4754  -12.5348   18.2098 C   0  0  0  0  0  0
  -28.0064  -12.3635   18.6273 C   0  0  0  0  0  0
  -27.6540  -13.2170   19.8719 C   0  0  2  0  0  0
  -28.6846  -12.9919   20.9965 C   0  0  0  0  0  0
  -25.2468  -13.8200   20.5664 C   0  0  0  0  0  0
  -24.1757  -13.0424   20.9230 C   0  0  0  0  0  0
  -24.6383  -11.6936   20.8842 C   0  0  0  0  0  0
  -23.9094  -10.4301   21.0473 C   0  0  0  0  0  0
  -24.3644   -9.4223   21.9243 C   0  0  0  0  0  0
  -23.6328   -8.2247   22.0796 C   0  0  0  0  0  0
  -22.4310   -8.0297   21.3583 C   0  0  0  0  0  0
  -21.9966   -9.0269   20.4665 C   0  0  0  0  0  0
  -22.7287  -10.2154   20.3084 C   0  0  0  0  0  0
  -21.6850   -6.0765   22.5323 C   0  0  0  0  0  0
  -21.4009   -6.5655   23.8276 C   0  0  0  0  0  0
  -21.3632   -5.6784   24.9222 C   0  0  0  0  0  0
  -21.6047   -4.3048   24.7249 C   0  0  0  0  0  0
  -21.8810   -3.8155   23.4358 C   0  0  0  0  0  0
  -21.9178   -4.6989   22.3439 C   0  0  0  0  0  0
  -22.7767  -13.5177   21.1853 C   0  0  0  0  0  0
  -22.1628   -4.2187   21.1010 F   0  0  0  0  0  0
  -21.5667   -3.4536   25.7758 F   0  0  0  0  0  0
  -30.0377  -13.2696   20.4795 N   0  0  0  0  0  0
  -26.2947  -12.9404   20.3335 N   0  0  0  0  0  0
  -25.9303  -11.6579   20.5861 N   0  0  0  0  0  0
  -22.0339  -12.8217   22.0394 N   0  0  0  0  0  0
  -25.4035  -15.1922   20.4116 N   0  0  0  0  0  0
  -31.7875  -14.6272   20.0584 O   0  0  0  0  0  0
  -21.6632   -6.8926   21.4294 O   0  0  0  0  0  0
  -22.3423  -14.5417   20.6641 O   0  0  0  0  0  0
  -24.6107  -31.8711   23.2127 C   0  0  0  0  0  0
  -25.9008  -32.4842   23.8422 C   0  0  1  0  0  0
  -27.2426  -27.4752   20.0982 C   0  0  0  0  0  0
  -25.5877  -33.8628   24.2355 N   0  0  0  0  0  0
  -23.3974  -30.4923   21.5500 C   0  0  2  0  0  0
  -24.8481  -28.9593   20.1154 C   0  0  0  0  0  0
  -22.7392  -29.4655   22.5004 C   0  0  0  0  0  0
  -18.0266  -28.1357   22.8514 C   0  0  0  0  0  0
  -24.1471  -36.7329   23.2636 C   0  0  0  0  0  0
  -25.9186  -30.8483   21.3590 C   0  0  0  0  0  0
  -25.9993  -29.4800   20.7182 C   0  0  0  0  0  0
  -27.1964  -28.7371   20.7208 C   0  0  0  0  0  0
  -26.0792  -26.9524   19.4951 C   0  0  0  0  0  0
  -24.8796  -27.6921   19.5027 C   0  0  0  0  0  0
  -23.6062  -29.8218   20.1647 C   0  0  0  0  0  0
  -25.4088  -36.3118   24.0347 C   0  0  1  0  0  0
  -20.5851  -28.3641   23.1340 C   0  0  2  0  0  0
  -20.6742  -26.9378   22.5429 C   0  0  0  0  0  0
  -19.5717  -26.6377   21.5216 C   0  0  0  0  0  0
  -18.1899  -26.7905   22.1626 C   0  0  0  0  0  0
  -19.1514  -28.8816   23.2927 C   0  0  0  0  0  0
  -18.9433  -30.1417   23.8945 C   0  0  0  0  0  0
  -17.6439  -30.6573   24.0558 C   0  0  0  0  0  0
  -25.9023  -34.9488   23.5155 C   0  0  0  0  0  0
  -16.5337  -29.9079   23.6312 C   0  0  0  0  0  0
  -16.7254  -28.6482   23.0371 C   0  0  0  0  0  0
  -26.4463  -31.6608   25.0736 C   0  0  0  0  0  0
  -25.3756  -31.3679   26.1510 C   0  0  0  0  0  0
  -27.0292  -30.3065   24.6066 C   0  0  0  0  0  0
  -27.6062  -32.4314   25.7491 C   0  0  0  0  0  0
  -27.5580  -37.1799   24.8459 C   0  0  0  0  0  0
  -21.4125  -29.3027   22.3765 N   0  0  0  0  0  0
  -26.4275  -37.3812   23.9429 N   0  0  0  0  0  0
  -24.6601  -31.0846   22.1003 N   0  0  0  0  0  0
  -23.4185  -28.8220   23.3040 O   0  0  0  0  0  0
  -28.4119  -26.7602   20.1166 O   0  0  0  0  0  0
  -26.5588  -34.8930   22.4713 O   0  0  0  0  0  0
  -23.5314  -32.1423   23.7555 O   0  0  0  0  0  0
  -28.2514  -17.7309   21.1251 C   0  0  0  0  0  0
  -29.3803  -16.1296   21.8664 C   0  0  0  0  0  0
  -26.7107  -16.3895   24.6513 C   0  0  0  0  0  0
  -31.0620  -22.4060   23.6447 C   0  0  0  0  0  0
  -28.5162  -22.4086   23.5353 C   0  0  0  0  0  0
  -31.8107  -16.1367   22.3127 C   0  0  0  0  0  0
  -30.5984  -14.2817   23.3280 C   0  0  0  0  0  0
  -30.6394  -19.9334   21.7235 C   0  0  0  0  0  0
  -30.1314  -20.7038   19.4234 C   0  0  0  0  0  0
  -27.8335  -18.9399   20.3531 C   0  0  0  0  0  0
  -28.2136  -20.2856   21.0357 C   0  0  0  0  0  0
  -29.8796  -24.1824   19.4735 C   0  0  0  0  0  0
  -29.0454  -25.0371   18.5006 C   0  0  0  0  0  0
  -29.0275  -23.3453   20.4454 C   0  0  0  0  0  0
  -28.0847  -15.9342   24.1053 C   0  0  0  0  0  0
  -29.0162  -26.5314   18.8521 C   0  0  0  0  0  0
  -29.8171  -22.7747   22.8122 C   0  0  0  0  0  0
  -29.8639  -22.3477   21.3075 C   0  0  1  0  0  0
  -30.5913  -15.2055   22.0770 C   0  0  0  0  0  0
  -29.6834  -20.8227   20.8985 C   0  0  0  0  0  0
  -29.2839  -16.9135   20.7832 N   0  0  0  0  0  0
  -27.6404  -17.4197   22.2542 N   0  0  0  0  0  0
  -28.3884  -16.4040   22.7534 N   0  0  0  0  0  0
  -31.4468  -12.4113   19.0993 H   0  0  0  0  0  0
  -30.3070  -11.3003   19.7881 H   0  0  0  0  0  0
  -29.7231  -11.8236   17.4234 H   0  0  0  0  0  0
  -29.6312  -13.5335   17.7960 H   0  0  0  0  0  0
  -27.8468  -11.3072   18.8546 H   0  0  0  0  0  0
  -27.3403  -12.5957   17.7968 H   0  0  0  0  0  0
  -27.7038  -14.2678   19.5838 H   0  0  0  0  0  0
  -28.6429  -11.9617   21.3511 H   0  0  0  0  0  0
  -28.3877  -13.6200   21.8302 H   0  0  0  0  0  0
  -25.2794   -9.5720   22.4820 H   0  0  0  0  0  0
  -24.0071   -7.4628   22.7490 H   0  0  0  0  0  0
  -21.0925   -8.8779   19.8936 H   0  0  0  0  0  0
  -22.3748  -10.9709   19.6207 H   0  0  0  0  0  0
  -21.1990   -7.6156   23.9821 H   0  0  0  0  0  0
  -21.1460   -6.0508   25.9139 H   0  0  0  0  0  0
  -22.0610   -2.7613   23.2870 H   0  0  0  0  0  0
  -22.3969  -12.0047   22.5093 H   0  0  0  0  0  0
  -21.0811  -13.1075   22.2169 H   0  0  0  0  0  0
  -24.6322  -15.8353   20.5577 H   0  0  0  0  0  0
  -26.2593  -15.6659   20.1556 H   0  0  0  0  0  0
  -26.7103  -32.5581   23.1219 H   0  0  0  0  0  0
  -25.0014  -33.9796   25.0492 H   0  0  0  0  0  0
  -22.6832  -31.3067   21.4126 H   0  0  0  0  0  0
  -23.3732  -35.9662   23.3282 H   0  0  0  0  0  0
  -24.3584  -36.8959   22.2057 H   0  0  0  0  0  0
  -23.7225  -37.6529   23.6661 H   0  0  0  0  0  0
  -26.0158  -31.6075   20.5808 H   0  0  0  0  0  0
  -26.8133  -30.9156   21.9672 H   0  0  0  0  0  0
  -28.0866  -29.1308   21.1910 H   0  0  0  0  0  0
  -26.0985  -25.9741   19.0342 H   0  0  0  0  0  0
  -23.9926  -27.2842   19.0387 H   0  0  0  0  0  0
  -23.7072  -30.5946   19.4018 H   0  0  0  0  0  0
  -22.7321  -29.2370   19.8747 H   0  0  0  0  0  0
  -25.1253  -36.1982   25.0843 H   0  0  0  0  0  0
  -20.9946  -28.3176   24.1452 H   0  0  0  0  0  0
  -20.5608  -26.2245   23.3608 H   0  0  0  0  0  0
  -21.6615  -26.7391   22.1232 H   0  0  0  0  0  0
  -19.6865  -25.6292   21.1227 H   0  0  0  0  0  0
  -19.6649  -27.3203   20.6759 H   0  0  0  0  0  0
  -17.4166  -26.6684   21.4030 H   0  0  0  0  0  0
  -18.0282  -26.0036   22.9006 H   0  0  0  0  0  0
  -19.7914  -30.7226   24.2342 H   0  0  0  0  0  0
  -17.4994  -31.6260   24.5137 H   0  0  0  0  0  0
  -15.5337  -30.2992   23.7610 H   0  0  0  0  0  0
  -15.8652  -28.0804   22.7086 H   0  0  0  0  0  0
  -24.5941  -30.7006   25.7859 H   0  0  0  0  0  0
  -24.8928  -32.2813   26.4995 H   0  0  0  0  0  0
  -25.8142  -30.8841   27.0248 H   0  0  0  0  0  0
  -26.2805  -29.6830   24.1164 H   0  0  0  0  0  0
  -27.4137  -29.7303   25.4494 H   0  0  0  0  0  0
  -27.8608  -30.4419   23.9146 H   0  0  0  0  0  0
  -27.2705  -33.3612   26.2100 H   0  0  0  0  0  0
  -28.3853  -32.6874   25.0296 H   0  0  0  0  0  0
  -28.0750  -31.8410   26.5378 H   0  0  0  0  0  0
  -28.2570  -38.0124   24.7560 H   0  0  0  0  0  0
  -28.1098  -36.2662   24.6195 H   0  0  0  0  0  0
  -27.2319  -37.1354   25.8867 H   0  0  0  0  0  0
  -20.9261  -29.8778   21.7027 H   0  0  0  0  0  0
  -26.0157  -38.2880   24.1471 H   0  0  0  0  0  0
  -26.5262  -15.9779   25.6430 H   0  0  0  0  0  0
  -25.8975  -16.0604   24.0020 H   0  0  0  0  0  0
  -26.6464  -17.4756   24.7405 H   0  0  0  0  0  0
  -31.1370  -23.0455   24.5240 H   0  0  0  0  0  0
  -31.9814  -22.5407   23.0742 H   0  0  0  0  0  0
  -31.0365  -21.3819   24.0115 H   0  0  0  0  0  0
  -28.3919  -23.0039   24.4398 H   0  0  0  0  0  0
  -28.5096  -21.3620   23.8343 H   0  0  0  0  0  0
  -27.6476  -22.5915   22.9018 H   0  0  0  0  0  0
  -31.6608  -16.7684   23.1878 H   0  0  0  0  0  0
  -31.9753  -16.8031   21.4653 H   0  0  0  0  0  0
  -32.7320  -15.5754   22.4723 H   0  0  0  0  0  0
  -30.5887  -14.8584   24.2513 H   0  0  0  0  0  0
  -31.5130  -13.6882   23.3654 H   0  0  0  0  0  0
  -29.7828  -13.5699   23.3804 H   0  0  0  0  0  0
  -30.7982  -18.9583   21.2670 H   0  0  0  0  0  0
  -30.2536  -19.7514   22.7260 H   0  0  0  0  0  0
  -31.6277  -20.3850   21.8171 H   0  0  0  0  0  0
  -30.2317  -19.6685   19.0975 H   0  0  0  0  0  0
  -31.1087  -21.1618   19.2705 H   0  0  0  0  0  0
  -29.4284  -21.1927   18.7475 H   0  0  0  0  0  0
  -26.7473  -18.8988   20.2574 H   0  0  0  0  0  0
  -28.1950  -18.8742   19.3284 H   0  0  0  0  0  0
  -27.9264  -20.2059   22.0831 H   0  0  0  0  0  0
  -27.5219  -21.0135   20.6205 H   0  0  0  0  0  0
  -30.5737  -24.8108   20.0368 H   0  0  0  0  0  0
  -30.5007  -23.5100   18.8825 H   0  0  0  0  0  0
  -28.0350  -24.6407   18.3982 H   0  0  0  0  0  0
  -29.4824  -24.9467   17.5059 H   0  0  0  0  0  0
  -28.2621  -22.8322   19.8700 H   0  0  0  0  0  0
  -28.4705  -24.0368   21.0786 H   0  0  0  0  0  0
  -28.1063  -14.8471   24.1057 H   0  0  0  0  0  0
  -28.8734  -16.2842   24.7725 H   0  0  0  0  0  0
  -28.5300  -27.0983   18.0566 H   0  0  0  0  0  0
  -30.0347  -26.9162   18.9097 H   0  0  0  0  0  0
  -29.8519  -23.8669   22.7983 H   0  0  0  0  0  0
  -30.8979  -22.5711   21.0406 H   0  0  0  0  0  0
  1 25  1  0  0  0
  1 30  2  0  0  0
  1 89  1  0  0  0
  2  3  1  0  0  0
  2 25  1  0  0  0
  2 94  1  0  0  0
  2 95  1  0  0  0
  3  4  1  0  0  0
  3 96  1  0  0  0
  3 97  1  0  0  0
  4  5  1  0  0  0
  4 98  1  0  0  0
  4 99  1  0  0  0
  5  6  1  0  0  0
  5 26  1  0  0  0
  5100  1  0  0  0
  6 25  1  0  0  0
  6101  1  0  0  0
  6102  1  0  0  0
  7  8  2  0  0  0
  7 26  1  0  0  0
  7 29  1  0  0  0
  8  9  1  0  0  0
  8 22  1  0  0  0
  9 10  1  0  0  0
  9 27  2  0  0  0
 10 11  2  0  0  0
 10 15  1  0  0  0
 11 12  1  0  0  0
 11103  1  0  0  0
 12 13  2  0  0  0
 12104  1  0  0  0
 13 14  1  0  0  0
 13 31  1  0  0  0
 14 15  2  0  0  0
 14105  1  0  0  0
 15106  1  0  0  0
 16 17  2  0  0  0
 16 21  1  0  0  0
 16 31  1  0  0  0
 17 18  1  0  0  0
 17107  1  0  0  0
 18 19  2  0  0  0
 18108  1  0  0  0
 19 20  1  0  0  0
 19 24  1  0  0  0
 20 21  2  0  0  0
 20109  1  0  0  0
 21 23  1  0  0  0
 22 28  1  0  0  0
 22 32  2  0  0  0
 26 27  1  0  0  0
 28110  1  0  0  0
 28111  1  0  0  0
 29112  1  0  0  0
 29113  1  0  0  0
 33 34  1  0  0  0
 33 66  1  0  0  0
 33 70  2  0  0  0
 34 36  1  0  0  0
 34 59  1  0  0  0
 34114  1  0  0  0
 35 44  2  0  0  0
 35 45  1  0  0  0
 35 68  1  0  0  0
 36 56  1  0  0  0
 36115  1  0  0  0
 37 39  1  0  0  0
 37 47  1  0  0  0
 37 66  1  0  0  0
 37116  1  0  0  0
 38 43  2  0  0  0
 38 46  1  0  0  0
 38 47  1  0  0  0
 39 64  1  0  0  0
 39 67  2  0  0  0
 40 52  1  0  0  0
 40 53  2  0  0  0
 40 58  1  0  0  0
 41117  1  0  0  0
 41118  1  0  0  0
 41119  1  0  0  0
 41 48  1  0  0  0
 42 43  1  0  0  0
 42 66  1  0  0  0
 42120  1  0  0  0
 42121  1  0  0  0
 43 44  1  0  0  0
 44122  1  0  0  0
 45 46  2  0  0  0
 45123  1  0  0  0
 46124  1  0  0  0
 47125  1  0  0  0
 47126  1  0  0  0
 48 56  1  0  0  0
 48 65  1  0  0  0
 48127  1  0  0  0
 49 50  1  0  0  0
 49 53  1  0  0  0
 49 64  1  0  0  0
 49128  1  0  0  0
 50 51  1  0  0  0
 50129  1  0  0  0
 50130  1  0  0  0
 51 52  1  0  0  0
 51131  1  0  0  0
 51132  1  0  0  0
 52133  1  0  0  0
 52134  1  0  0  0
 53 54  1  0  0  0
 54 55  2  0  0  0
 54135  1  0  0  0
 55 57  1  0  0  0
 55136  1  0  0  0
 56 69  2  0  0  0
 57 58  2  0  0  0
 57137  1  0  0  0
 58138  1  0  0  0
 59 60  1  0  0  0
 59 61  1  0  0  0
 59 62  1  0  0  0
 60139  1  0  0  0
 60140  1  0  0  0
 60141  1  0  0  0
 61142  1  0  0  0
 61143  1  0  0  0
 61144  1  0  0  0
 62145  1  0  0  0
 62146  1  0  0  0
 62147  1  0  0  0
 63 65  1  0  0  0
 63148  1  0  0  0
 63149  1  0  0  0
 63150  1  0  0  0
 64151  1  0  0  0
 65152  1  0  0  0
 68 86  1  0  0  0
 71 80  1  0  0  0
 71 91  1  0  0  0
 71 92  2  0  0  0
 72 89  1  0  0  0
 72 91  2  0  0  0
 72 93  1  0  0  0
 73 85  1  0  0  0
 73153  1  0  0  0
 73154  1  0  0  0
 73155  1  0  0  0
 74156  1  0  0  0
 74157  1  0  0  0
 74158  1  0  0  0
 74 87  1  0  0  0
 75 87  1  0  0  0
 75159  1  0  0  0
 75160  1  0  0  0
 75161  1  0  0  0
 76162  1  0  0  0
 76163  1  0  0  0
 76164  1  0  0  0
 76 89  1  0  0  0
 77 89  1  0  0  0
 77165  1  0  0  0
 77166  1  0  0  0
 77167  1  0  0  0
 78168  1  0  0  0
 78169  1  0  0  0
 78170  1  0  0  0
 78 90  1  0  0  0
 79 90  1  0  0  0
 79171  1  0  0  0
 79172  1  0  0  0
 79173  1  0  0  0
 80 81  1  0  0  0
 80174  1  0  0  0
 80175  1  0  0  0
 81 90  1  0  0  0
 81176  1  0  0  0
 81177  1  0  0  0
 82 83  1  0  0  0
 82 84  1  0  0  0
 82178  1  0  0  0
 82179  1  0  0  0
 83 86  1  0  0  0
 83180  1  0  0  0
 83181  1  0  0  0
 84182  1  0  0  0
 84183  1  0  0  0
 84 88  1  0  0  0
 85 93  1  0  0  0
 85184  1  0  0  0
 85185  1  0  0  0
 86186  1  0  0  0
 86187  1  0  0  0
 87 88  1  0  0  0
 87188  1  0  0  0
 88 90  1  0  0  0
 88189  1  0  0  0
 92 93  1  0  0  0
M  ISO  4   1 100  68 101  86 101  89 100
M  END
> <chiral flag>
0

> <version>
0

> <s_m_source_file>
/data/baiqing/PycharmProjects/Reinvent-master-3.2/result/LINK_invent/BTK/process_docking_weight1_custom_sum_contain_oxygen_bond_distance_aromatic_linkinvent_7_9_3/rearranged_h_0068.sdf

> <i_m_source_file_index>
21

> <r_mmod_Potential_Energy-OPLS-2005>
127.942810058594

> <r_mmod_Stretch_Energy-OPLS-2005>
49.4580535888672

> <r_mmod_Bend_Energy-OPLS-2005>
155.343353271484

> <r_mmod_Torsional_Energy-OPLS-2005>
274.578002929688

> <r_mmod_Improper_Torsional_Energy-OPLS-2005>
2.97935175895691

> <r_mmod_Van_der_Waal_Energy-OPLS-2005>
136.035598754883

> <r_mmod_Electrostatic_Energy-OPLS-2005>
-328.707672119141

> <r_mmod_Solvation_Energy-OPLS-2005>
-171.640991210938

> <b_mmod_Minimization_Converged-OPLS-2005>
0

> <r_mmod_RMS_Derivative-OPLS-2005>
4.45068454742432

$$$$
22
                    3D
 Structure written by MMmdl.
200209  0  0  1  0            999 V2000
  -30.7350  -14.5074   20.4716 C   0  0  0  0  0  0
  -30.4148  -12.3120   19.4320 C   0  0  0  0  0  0
  -29.4913  -12.4841   18.2074 C   0  0  0  0  0  0
  -28.0113  -12.3438   18.6181 C   0  0  0  0  0  0
  -27.6532  -13.2015   19.8598 C   0  0  2  0  0  0
  -28.7091  -13.0178   20.9774 C   0  0  0  0  0  0
  -25.2545  -13.8100   20.5662 C   0  0  0  0  0  0
  -24.1822  -13.0380   20.9163 C   0  0  0  0  0  0
  -24.6402  -11.6866   20.8750 C   0  0  0  0  0  0
  -23.9069  -10.4265   21.0413 C   0  0  0  0  0  0
  -24.3624   -9.4184   21.9188 C   0  0  0  0  0  0
  -23.6298   -8.2223   22.0754 C   0  0  0  0  0  0
  -22.4272   -8.0281   21.3549 C   0  0  0  0  0  0
  -21.9927   -9.0243   20.4634 C   0  0  0  0  0  0
  -22.7254  -10.2117   20.3043 C   0  0  0  0  0  0
  -21.6837   -6.0747   22.5287 C   0  0  0  0  0  0
  -21.3997   -6.5650   23.8223 C   0  0  0  0  0  0
  -21.3649   -5.6799   24.9180 C   0  0  0  0  0  0
  -21.6043   -4.3064   24.7220 C   0  0  0  0  0  0
  -21.8831   -3.8160   23.4343 C   0  0  0  0  0  0
  -21.9197   -4.6980   22.3407 C   0  0  0  0  0  0
  -22.7848  -13.5190   21.1852 C   0  0  0  0  0  0
  -22.1664   -4.2171   21.0982 F   0  0  0  0  0  0
  -21.5638   -3.4543   25.7727 F   0  0  0  0  0  0
  -30.0262  -13.3394   20.4170 N   0  0  0  0  0  0
  -26.3003  -12.9292   20.3340 N   0  0  0  0  0  0
  -25.9331  -11.6466   20.5797 N   0  0  0  0  0  0
  -22.0532  -12.8141   22.0408 N   0  0  0  0  0  0
  -25.4135  -15.1815   20.4106 N   0  0  0  0  0  0
  -31.9379  -14.4845   20.2074 O   0  0  0  0  0  0
  -21.6628   -6.8883   21.4244 O   0  0  0  0  0  0
  -22.3528  -14.5512   20.6738 O   0  0  0  0  0  0
  -24.6138  -31.8701   23.2126 C   0  0  0  0  0  0
  -25.9033  -32.4834   23.8417 C   0  0  1  0  0  0
  -27.2321  -27.4551   20.0622 C   0  0  0  0  0  0
  -25.5886  -33.8633   24.2338 N   0  0  0  0  0  0
  -23.3992  -30.4977   21.5542 C   0  0  2  0  0  0
  -24.8426  -28.9717   20.1127 C   0  0  0  0  0  0
  -22.7387  -29.4678   22.5001 C   0  0  0  0  0  0
  -18.0275  -28.1377   22.8506 C   0  0  0  0  0  0
  -24.1485  -36.7325   23.2636 C   0  0  0  0  0  0
  -25.9284  -30.8415   21.3620 C   0  0  0  0  0  0
  -26.0065  -29.4790   20.7042 C   0  0  0  0  0  0
  -27.2025  -28.7249   20.6842 C   0  0  0  0  0  0
  -26.0359  -26.9476   19.5094 C   0  0  0  0  0  0
  -24.8509  -27.7013   19.5171 C   0  0  0  0  0  0
  -23.6053  -29.8364   20.1666 C   0  0  0  0  0  0
  -25.4101  -36.3116   24.0339 C   0  0  1  0  0  0
  -20.5859  -28.3657   23.1334 C   0  0  2  0  0  0
  -20.6762  -26.9400   22.5418 C   0  0  0  0  0  0
  -19.5743  -26.6391   21.5214 C   0  0  0  0  0  0
  -18.1923  -26.7928   22.1632 C   0  0  0  0  0  0
  -19.1519  -28.8835   23.2917 C   0  0  0  0  0  0
  -18.9448  -30.1443   23.8928 C   0  0  0  0  0  0
  -17.6453  -30.6591   24.0566 C   0  0  0  0  0  0
  -25.9031  -34.9484   23.5134 C   0  0  0  0  0  0
  -16.5343  -29.9095   23.6325 C   0  0  0  0  0  0
  -16.7259  -28.6507   23.0356 C   0  0  0  0  0  0
  -26.4467  -31.6600   25.0730 C   0  0  0  0  0  0
  -25.3731  -31.3671   26.1467 C   0  0  0  0  0  0
  -27.0303  -30.3060   24.6060 C   0  0  0  0  0  0
  -27.6044  -32.4308   25.7492 C   0  0  0  0  0  0
  -27.5581  -37.1815   24.8463 C   0  0  0  0  0  0
  -21.4120  -29.3032   22.3748 N   0  0  0  0  0  0
  -26.4292  -37.3799   23.9412 N   0  0  0  0  0  0
  -24.6660  -31.0817   22.1023 N   0  0  0  0  0  0
  -23.4168  -28.8219   23.3036 O   0  0  0  0  0  0
  -28.3746  -26.6866   20.1185 O   0  0  0  0  0  0
  -26.5601  -34.8934   22.4701 O   0  0  0  0  0  0
  -23.5333  -32.1455   23.7530 O   0  0  0  0  0  0
  -27.2853  -17.7546   19.8767 C   0  0  0  0  0  0
  -26.7757  -19.0690   20.0626 C   0  0  0  0  0  0
  -28.0923  -17.5165   20.9542 C   0  0  0  0  0  0
  -27.2994  -22.5552   16.9259 C   0  0  0  0  0  0
  -28.3974  -22.3381   19.1834 C   0  0  0  0  0  0
  -28.5599  -23.2663   16.3967 C   0  0  0  0  0  0
  -29.6090  -23.1359   18.6390 C   0  0  0  0  0  0
  -27.5601  -21.5816   18.1083 C   0  0  2  0  0  0
  -29.2786  -24.1177   17.4767 C   0  0  1  0  0  0
  -28.3653  -20.3765   17.5631 C   0  0  0  0  0  0
  -30.6054  -24.6213   16.8641 C   0  0  0  0  0  0
  -23.8388  -18.6860   20.7109 C   0  0  0  0  0  0
  -28.6307  -20.3690   23.5007 C   0  0  0  0  0  0
  -27.7404  -26.1111   16.7870 C   0  0  0  0  0  0
  -25.3387  -18.9181   17.9911 C   0  0  0  0  0  0
  -31.1992  -16.9500   20.9912 C   0  0  0  0  0  0
  -29.9180  -16.3145   18.9621 C   0  0  0  0  0  0
  -28.8434  -16.2563   21.3149 C   0  0  0  0  0  0
  -26.1464  -21.2078   18.7051 C   0  0  0  0  0  0
  -24.4298  -19.9592   20.0700 C   0  0  0  0  0  0
  -28.7324  -18.9183   22.9979 C   0  0  0  0  0  0
  -29.0770  -26.3457   18.9164 C   0  0  0  0  0  0
  -28.3905  -25.3297   17.9555 C   0  0  2  0  0  0
  -25.7249  -19.7847   19.2191 C   0  0  2  0  0  0
  -30.1209  -15.9604   20.4611 C   0  0  0  0  0  0
  -27.2511  -19.6077   21.1793 N   0  0  0  0  0  0
  -28.0670  -18.6694   21.7232 N   0  0  0  0  0  0
  -31.4575  -12.3837   19.1184 H   0  0  0  0  0  0
  -30.3122  -11.3137   19.8612 H   0  0  0  0  0  0
  -29.7391  -11.7461   17.4432 H   0  0  0  0  0  0
  -29.6552  -13.4606   17.7495 H   0  0  0  0  0  0
  -27.8262  -11.2907   18.8316 H   0  0  0  0  0  0
  -27.3610  -12.6048   17.7823 H   0  0  0  0  0  0
  -27.6720  -14.2313   19.5140 H   0  0  0  0  0  0
  -28.7071  -11.9780   21.3098 H   0  0  0  0  0  0
  -28.4948  -13.5766   21.8848 H   0  0  0  0  0  0
  -25.2789   -9.5655   22.4743 H   0  0  0  0  0  0
  -24.0027   -7.4604   22.7454 H   0  0  0  0  0  0
  -21.0879   -8.8755   19.8913 H   0  0  0  0  0  0
  -22.3741  -10.9659   19.6139 H   0  0  0  0  0  0
  -21.1971   -7.6154   23.9717 H   0  0  0  0  0  0
  -21.1453   -6.0532   25.9086 H   0  0  0  0  0  0
  -22.0621   -2.7623   23.2822 H   0  0  0  0  0  0
  -22.4189  -11.9762   22.4691 H   0  0  0  0  0  0
  -21.1154  -13.1125   22.2683 H   0  0  0  0  0  0
  -24.6364  -15.8205   20.5279 H   0  0  0  0  0  0
  -26.2763  -15.6553   20.1831 H   0  0  0  0  0  0
  -26.7087  -32.5568   23.1179 H   0  0  0  0  0  0
  -25.0013  -33.9792   25.0461 H   0  0  0  0  0  0
  -22.6868  -31.3141   21.4197 H   0  0  0  0  0  0
  -23.3748  -35.9659   23.3299 H   0  0  0  0  0  0
  -24.3574  -36.8942   22.2048 H   0  0  0  0  0  0
  -23.7242  -37.6531   23.6655 H   0  0  0  0  0  0
  -26.0314  -31.6079   20.5927 H   0  0  0  0  0  0
  -26.8202  -30.8974   21.9751 H   0  0  0  0  0  0
  -28.0995  -29.1084   21.1512 H   0  0  0  0  0  0
  -25.9781  -25.9592   19.0882 H   0  0  0  0  0  0
  -23.9510  -27.2916   19.0803 H   0  0  0  0  0  0
  -23.7122  -30.6150   19.4101 H   0  0  0  0  0  0
  -22.7279  -29.2562   19.8717 H   0  0  0  0  0  0
  -25.1273  -36.1984   25.0832 H   0  0  0  0  0  0
  -20.9954  -28.3218   24.1447 H   0  0  0  0  0  0
  -20.5666  -26.2259   23.3595 H   0  0  0  0  0  0
  -21.6639  -26.7448   22.1209 H   0  0  0  0  0  0
  -19.6902  -25.6304   21.1233 H   0  0  0  0  0  0
  -19.6688  -27.3205   20.6746 H   0  0  0  0  0  0
  -17.4186  -26.6680   21.4032 H   0  0  0  0  0  0
  -18.0326  -26.0059   22.9017 H   0  0  0  0  0  0
  -19.7922  -30.7249   24.2312 H   0  0  0  0  0  0
  -17.5010  -31.6277   24.5151 H   0  0  0  0  0  0
  -15.5344  -30.3007   23.7632 H   0  0  0  0  0  0
  -15.8657  -28.0829   22.7063 H   0  0  0  0  0  0
  -24.5928  -30.6994   25.7788 H   0  0  0  0  0  0
  -24.8898  -32.2810   26.4923 H   0  0  0  0  0  0
  -25.8099  -30.8835   27.0213 H   0  0  0  0  0  0
  -26.2846  -29.6815   24.1123 H   0  0  0  0  0  0
  -27.4112  -29.7280   25.4488 H   0  0  0  0  0  0
  -27.8653  -30.4399   23.9182 H   0  0  0  0  0  0
  -27.2674  -33.3605   26.2078 H   0  0  0  0  0  0
  -28.3858  -32.6855   25.0323 H   0  0  0  0  0  0
  -28.0699  -31.8418   26.5398 H   0  0  0  0  0  0
  -28.2586  -38.0123   24.7525 H   0  0  0  0  0  0
  -28.1095  -36.2656   24.6278 H   0  0  0  0  0  0
  -27.2302  -37.1443   25.8867 H   0  0  0  0  0  0
  -20.9267  -29.8769   21.6992 H   0  0  0  0  0  0
  -26.0185  -38.2878   24.1429 H   0  0  0  0  0  0
  -27.0633  -17.0724   19.0699 H   0  0  0  0  0  0
  -26.8287  -22.0147   16.1031 H   0  0  0  0  0  0
  -26.5717  -23.3113   17.2205 H   0  0  0  0  0  0
  -27.7684  -23.0374   19.7323 H   0  0  0  0  0  0
  -28.7465  -21.6293   19.9356 H   0  0  0  0  0  0
  -28.3016  -23.8703   15.5271 H   0  0  0  0  0  0
  -29.2492  -22.5224   15.9977 H   0  0  0  0  0  0
  -30.3626  -22.4229   18.3032 H   0  0  0  0  0  0
  -30.0780  -23.6688   19.4660 H   0  0  0  0  0  0
  -29.3416  -20.6729   17.1835 H   0  0  0  0  0  0
  -27.8577  -19.8893   16.7324 H   0  0  0  0  0  0
  -28.5761  -19.6324   18.3261 H   0  0  0  0  0  0
  -31.2050  -23.7921   16.4849 H   0  0  0  0  0  0
  -31.2275  -25.1445   17.5890 H   0  0  0  0  0  0
  -30.4379  -25.2967   16.0261 H   0  0  0  0  0  0
  -22.9876  -18.9389   21.3436 H   0  0  0  0  0  0
  -24.5631  -18.1711   21.3422 H   0  0  0  0  0  0
  -23.4806  -17.9785   19.9645 H   0  0  0  0  0  0
  -29.1843  -20.4929   24.4318 H   0  0  0  0  0  0
  -27.5943  -20.6493   23.6929 H   0  0  0  0  0  0
  -29.0427  -21.0694   22.7726 H   0  0  0  0  0  0
  -26.9746  -25.5268   16.2791 H   0  0  0  0  0  0
  -28.4774  -26.4188   16.0465 H   0  0  0  0  0  0
  -27.2523  -27.0224   17.1300 H   0  0  0  0  0  0
  -26.1866  -18.7078   17.3461 H   0  0  0  0  0  0
  -24.5790  -19.4056   17.3798 H   0  0  0  0  0  0
  -24.9376  -17.9484   18.2811 H   0  0  0  0  0  0
  -30.8537  -17.9828   20.9484 H   0  0  0  0  0  0
  -32.1220  -16.9277   20.4092 H   0  0  0  0  0  0
  -31.4614  -16.7357   22.0278 H   0  0  0  0  0  0
  -29.7820  -17.3842   18.8041 H   0  0  0  0  0  0
  -29.0494  -15.8085   18.5424 H   0  0  0  0  0  0
  -30.7766  -16.0284   18.3513 H   0  0  0  0  0  0
  -28.1058  -15.4792   21.2140 H   0  0  0  0  0  0
  -29.0964  -16.2527   22.3759 H   0  0  0  0  0  0
  -25.3789  -21.4953   17.9851 H   0  0  0  0  0  0
  -25.9603  -21.9010   19.5255 H   0  0  0  0  0  0
  -24.6361  -20.6558   20.8831 H   0  0  0  0  0  0
  -23.6561  -20.4360   19.4674 H   0  0  0  0  0  0
  -28.3072  -18.2410   23.7385 H   0  0  0  0  0  0
  -29.7825  -18.6495   22.8960 H   0  0  0  0  0  0
  -29.3595  -27.2571   18.3879 H   0  0  0  0  0  0
  -30.0173  -25.9318   19.2740 H   0  0  0  0  0  0
  -27.5887  -24.8692   18.5195 H   0  0  0  0  0  0
  1 25  1  0  0  0
  1 30  2  0  0  0
  1 95  1  0  0  0
  2  3  1  0  0  0
  2 25  1  0  0  0
  2 98  1  0  0  0
  2 99  1  0  0  0
  3  4  1  0  0  0
  3100  1  0  0  0
  3101  1  0  0  0
  4  5  1  0  0  0
  4102  1  0  0  0
  4103  1  0  0  0
  5  6  1  0  0  0
  5 26  1  0  0  0
  5104  1  0  0  0
  6 25  1  0  0  0
  6105  1  0  0  0
  6106  1  0  0  0
  7  8  2  0  0  0
  7 26  1  0  0  0
  7 29  1  0  0  0
  8  9  1  0  0  0
  8 22  1  0  0  0
  9 10  1  0  0  0
  9 27  2  0  0  0
 10 11  2  0  0  0
 10 15  1  0  0  0
 11 12  1  0  0  0
 11107  1  0  0  0
 12 13  2  0  0  0
 12108  1  0  0  0
 13 14  1  0  0  0
 13 31  1  0  0  0
 14 15  2  0  0  0
 14109  1  0  0  0
 15110  1  0  0  0
 16 17  2  0  0  0
 16 21  1  0  0  0
 16 31  1  0  0  0
 17 18  1  0  0  0
 17111  1  0  0  0
 18 19  2  0  0  0
 18112  1  0  0  0
 19 20  1  0  0  0
 19 24  1  0  0  0
 20 21  2  0  0  0
 20113  1  0  0  0
 21 23  1  0  0  0
 22 28  1  0  0  0
 22 32  2  0  0  0
 26 27  1  0  0  0
 28114  1  0  0  0
 28115  1  0  0  0
 29116  1  0  0  0
 29117  1  0  0  0
 33 34  1  0  0  0
 33 66  1  0  0  0
 33 70  2  0  0  0
 34 36  1  0  0  0
 34 59  1  0  0  0
 34118  1  0  0  0
 35 44  2  0  0  0
 35 45  1  0  0  0
 35 68  1  0  0  0
 36 56  1  0  0  0
 36119  1  0  0  0
 37 39  1  0  0  0
 37 47  1  0  0  0
 37 66  1  0  0  0
 37120  1  0  0  0
 38 43  2  0  0  0
 38 46  1  0  0  0
 38 47  1  0  0  0
 39 64  1  0  0  0
 39 67  2  0  0  0
 40 52  1  0  0  0
 40 53  2  0  0  0
 40 58  1  0  0  0
 41121  1  0  0  0
 41122  1  0  0  0
 41123  1  0  0  0
 41 48  1  0  0  0
 42 43  1  0  0  0
 42 66  1  0  0  0
 42124  1  0  0  0
 42125  1  0  0  0
 43 44  1  0  0  0
 44126  1  0  0  0
 45 46  2  0  0  0
 45127  1  0  0  0
 46128  1  0  0  0
 47129  1  0  0  0
 47130  1  0  0  0
 48 56  1  0  0  0
 48 65  1  0  0  0
 48131  1  0  0  0
 49 50  1  0  0  0
 49 53  1  0  0  0
 49 64  1  0  0  0
 49132  1  0  0  0
 50 51  1  0  0  0
 50133  1  0  0  0
 50134  1  0  0  0
 51 52  1  0  0  0
 51135  1  0  0  0
 51136  1  0  0  0
 52137  1  0  0  0
 52138  1  0  0  0
 53 54  1  0  0  0
 54 55  2  0  0  0
 54139  1  0  0  0
 55 57  1  0  0  0
 55140  1  0  0  0
 56 69  2  0  0  0
 57 58  2  0  0  0
 57141  1  0  0  0
 58142  1  0  0  0
 59 60  1  0  0  0
 59 61  1  0  0  0
 59 62  1  0  0  0
 60143  1  0  0  0
 60144  1  0  0  0
 60145  1  0  0  0
 61146  1  0  0  0
 61147  1  0  0  0
 61148  1  0  0  0
 62149  1  0  0  0
 62150  1  0  0  0
 62151  1  0  0  0
 63 65  1  0  0  0
 63152  1  0  0  0
 63153  1  0  0  0
 63154  1  0  0  0
 64155  1  0  0  0
 65156  1  0  0  0
 68 92  1  0  0  0
 71 72  1  0  0  0
 71 73  2  0  0  0
 71157  1  0  0  0
 72 94  1  0  0  0
 72 96  2  0  0  0
 73 88  1  0  0  0
 73 97  1  0  0  0
 74 76  1  0  0  0
 74 78  1  0  0  0
 74158  1  0  0  0
 74159  1  0  0  0
 75 77  1  0  0  0
 75 78  1  0  0  0
 75160  1  0  0  0
 75161  1  0  0  0
 76 79  1  0  0  0
 76162  1  0  0  0
 76163  1  0  0  0
 77 79  1  0  0  0
 77164  1  0  0  0
 77165  1  0  0  0
 78 80  1  0  0  0
 78 89  1  0  0  0
 79 81  1  0  0  0
 79 93  1  0  0  0
 80166  1  0  0  0
 80167  1  0  0  0
 80168  1  0  0  0
 81169  1  0  0  0
 81170  1  0  0  0
 81171  1  0  0  0
 82 90  1  0  0  0
 82172  1  0  0  0
 82173  1  0  0  0
 82174  1  0  0  0
 83 91  1  0  0  0
 83175  1  0  0  0
 83176  1  0  0  0
 83177  1  0  0  0
 84178  1  0  0  0
 84179  1  0  0  0
 84180  1  0  0  0
 84 93  1  0  0  0
 85181  1  0  0  0
 85182  1  0  0  0
 85183  1  0  0  0
 85 94  1  0  0  0
 86184  1  0  0  0
 86185  1  0  0  0
 86186  1  0  0  0
 86 95  1  0  0  0
 87 95  1  0  0  0
 87187  1  0  0  0
 87188  1  0  0  0
 87189  1  0  0  0
 88 95  1  0  0  0
 88190  1  0  0  0
 88191  1  0  0  0
 89 94  1  0  0  0
 89192  1  0  0  0
 89193  1  0  0  0
 90 94  1  0  0  0
 90194  1  0  0  0
 90195  1  0  0  0
 91 97  1  0  0  0
 91196  1  0  0  0
 91197  1  0  0  0
 92 93  1  0  0  0
 92198  1  0  0  0
 92199  1  0  0  0
 93200  1  0  0  0
 96 97  1  0  0  0
M  ISO  4   1 100  68 101  92 101  95 100
M  END
> <chiral flag>
0

> <version>
0

> <s_m_source_file>
/data/baiqing/PycharmProjects/Reinvent-master-3.2/result/LINK_invent/BTK/process_docking_weight1_custom_sum_contain_oxygen_bond_distance_aromatic_linkinvent_7_9_3/rearranged_h_0068.sdf

> <i_m_source_file_index>
22

> <r_mmod_Potential_Energy-OPLS-2005>
198.567855834961

> <r_mmod_Stretch_Energy-OPLS-2005>
55.2323112487793

> <r_mmod_Bend_Energy-OPLS-2005>
190.598251342773

> <r_mmod_Torsional_Energy-OPLS-2005>
311.320587158203

> <r_mmod_Improper_Torsional_Energy-OPLS-2005>
9.86774063110352

> <r_mmod_Van_der_Waal_Energy-OPLS-2005>
156.373123168945

> <r_mmod_Electrostatic_Energy-OPLS-2005>
-389.018890380859

> <r_mmod_Solvation_Energy-OPLS-2005>
-162.205596923828

> <b_mmod_Minimization_Converged-OPLS-2005>
0

> <r_mmod_RMS_Derivative-OPLS-2005>
1.81458747386932

$$$$
23
                    3D
 Structure written by MMmdl.
175183  0  0  1  0            999 V2000
  -30.7003  -14.4581   20.5361 C   0  0  0  0  0  0
  -30.4147  -12.2849   19.4254 C   0  0  0  0  0  0
  -29.4903  -12.4871   18.2069 C   0  0  0  0  0  0
  -28.0122  -12.3539   18.6222 C   0  0  0  0  0  0
  -27.6582  -13.2050   19.8711 C   0  0  2  0  0  0
  -28.6994  -13.0051   20.9958 C   0  0  0  0  0  0
  -25.2582  -13.8154   20.5662 C   0  0  0  0  0  0
  -24.1833  -13.0438   20.9181 C   0  0  0  0  0  0
  -24.6388  -11.6908   20.8749 C   0  0  0  0  0  0
  -23.9055  -10.4300   21.0421 C   0  0  0  0  0  0
  -24.3615   -9.4219   21.9193 C   0  0  0  0  0  0
  -23.6298   -8.2250   22.0756 C   0  0  0  0  0  0
  -22.4277   -8.0290   21.3547 C   0  0  0  0  0  0
  -21.9913   -9.0264   20.4644 C   0  0  0  0  0  0
  -22.7234  -10.2146   20.3064 C   0  0  0  0  0  0
  -21.6844   -6.0750   22.5286 C   0  0  0  0  0  0
  -21.3997   -6.5647   23.8221 C   0  0  0  0  0  0
  -21.3660   -5.6801   24.9187 C   0  0  0  0  0  0
  -21.6041   -4.3063   24.7234 C   0  0  0  0  0  0
  -21.8814   -3.8160   23.4352 C   0  0  0  0  0  0
  -21.9190   -4.6977   22.3411 C   0  0  0  0  0  0
  -22.7862  -13.5239   21.1864 C   0  0  0  0  0  0
  -22.1663   -4.2158   21.0991 F   0  0  0  0  0  0
  -21.5645   -3.4547   25.7752 F   0  0  0  0  0  0
  -30.0301  -13.2824   20.4335 N   0  0  0  0  0  0
  -26.3009  -12.9318   20.3357 N   0  0  0  0  0  0
  -25.9307  -11.6478   20.5772 N   0  0  0  0  0  0
  -22.0501  -12.8225   22.0419 N   0  0  0  0  0  0
  -25.4341  -15.1847   20.4035 N   0  0  0  0  0  0
  -31.8497  -14.6206   20.1214 O   0  0  0  0  0  0
  -21.6638   -6.8889   21.4246 O   0  0  0  0  0  0
  -22.3544  -14.5550   20.6731 O   0  0  0  0  0  0
  -24.6128  -31.8682   23.2096 C   0  0  0  0  0  0
  -25.9040  -32.4820   23.8379 C   0  0  1  0  0  0
  -27.2375  -27.4371   20.0934 C   0  0  0  0  0  0
  -25.5908  -33.8619   24.2314 N   0  0  0  0  0  0
  -23.3992  -30.4932   21.5504 C   0  0  2  0  0  0
  -24.8429  -28.9536   20.1181 C   0  0  0  0  0  0
  -22.7382  -29.4701   22.5008 C   0  0  0  0  0  0
  -18.0269  -28.1373   22.8504 C   0  0  0  0  0  0
  -24.1490  -36.7319   23.2640 C   0  0  0  0  0  0
  -25.9273  -30.8348   21.3602 C   0  0  0  0  0  0
  -26.0022  -29.4677   20.7115 C   0  0  0  0  0  0
  -27.1970  -28.7151   20.6988 C   0  0  0  0  0  0
  -26.0524  -26.9285   19.5115 C   0  0  0  0  0  0
  -24.8631  -27.6825   19.5181 C   0  0  0  0  0  0
  -23.6051  -29.8201   20.1667 C   0  0  0  0  0  0
  -25.4111  -36.3111   24.0333 C   0  0  1  0  0  0
  -20.5852  -28.3704   23.1330 C   0  0  2  0  0  0
  -20.6767  -26.9439   22.5455 C   0  0  0  0  0  0
  -19.5764  -26.6424   21.5232 C   0  0  0  0  0  0
  -18.1949  -26.7903   22.1674 C   0  0  0  0  0  0
  -19.1510  -28.8856   23.2900 C   0  0  0  0  0  0
  -18.9431  -30.1467   23.8901 C   0  0  0  0  0  0
  -17.6422  -30.6583   24.0554 C   0  0  0  0  0  0
  -25.9034  -34.9477   23.5115 C   0  0  0  0  0  0
  -16.5324  -29.9072   23.6318 C   0  0  0  0  0  0
  -16.7258  -28.6489   23.0348 C   0  0  0  0  0  0
  -26.4469  -31.6605   25.0712 C   0  0  0  0  0  0
  -25.3751  -31.3708   26.1473 C   0  0  0  0  0  0
  -27.0290  -30.3050   24.6082 C   0  0  0  0  0  0
  -27.6041  -32.4326   25.7485 C   0  0  0  0  0  0
  -27.5580  -37.1815   24.8465 C   0  0  0  0  0  0
  -21.4117  -29.3076   22.3733 N   0  0  0  0  0  0
  -26.4298  -37.3793   23.9401 N   0  0  0  0  0  0
  -24.6649  -31.0797   22.0991 N   0  0  0  0  0  0
  -23.4152  -28.8253   23.3060 O   0  0  0  0  0  0
  -28.4414  -26.7590   20.1005 O   0  0  0  0  0  0
  -26.5604  -34.8927   22.4680 O   0  0  0  0  0  0
  -23.5327  -32.1429   23.7509 O   0  0  0  0  0  0
  -27.5330  -16.7744   23.0691 C   0  0  0  0  0  0
  -28.4659  -17.0064   22.0340 C   0  0  0  0  0  0
  -26.0463  -18.2300   22.0671 C   0  0  0  0  0  0
  -26.9962  -18.5045   21.0399 C   0  0  0  0  0  0
  -22.9634  -20.3726   23.1763 C   0  0  0  0  0  0
  -30.9546  -17.9924   23.5167 C   0  0  0  0  0  0
  -24.6241  -18.7726   22.0748 C   0  0  0  0  0  0
  -26.6975  -19.3770   19.8168 C   0  0  0  0  0  0
  -24.3869  -19.8032   23.1917 C   0  0  0  0  0  0
  -31.0028  -17.1876   22.2091 C   0  0  0  0  0  0
  -26.3834  -20.8812   20.0417 C   0  0  0  0  0  0
  -27.5696  -21.8089   20.3828 C   0  0  0  0  0  0
  -27.2409  -23.2918   20.0719 C   0  0  0  0  0  0
  -28.3477  -24.2948   20.4714 C   0  0  0  0  0  0
  -28.5648  -25.4731   19.4855 C   0  0  0  0  0  0
  -29.7927  -16.2484   21.9897 C   0  0  2  0  0  0
  -26.3263  -17.3828   23.0888 N   0  0  0  0  0  0
  -28.2051  -17.8814   21.0270 N   0  0  0  0  0  0
  -29.9235  -15.5298   20.7247 N   0  0  0  0  0  0
  -31.4623  -12.3716   19.1301 H   0  0  0  0  0  0
  -30.3029  -11.2780   19.8280 H   0  0  0  0  0  0
  -29.7240  -11.7597   17.4276 H   0  0  0  0  0  0
  -29.6624  -13.4727   17.7702 H   0  0  0  0  0  0
  -27.8229  -11.3003   18.8272 H   0  0  0  0  0  0
  -27.3608  -12.6213   17.7897 H   0  0  0  0  0  0
  -27.6968  -14.2497   19.5611 H   0  0  0  0  0  0
  -28.6650  -11.9833   21.3762 H   0  0  0  0  0  0
  -28.4748  -13.6495   21.8467 H   0  0  0  0  0  0
  -25.2761   -9.5694   22.4763 H   0  0  0  0  0  0
  -24.0020   -7.4628   22.7455 H   0  0  0  0  0  0
  -21.0859   -8.8771   19.8931 H   0  0  0  0  0  0
  -22.3695  -10.9696   19.6178 H   0  0  0  0  0  0
  -21.1971   -7.6153   23.9722 H   0  0  0  0  0  0
  -21.1485   -6.0538   25.9086 H   0  0  0  0  0  0
  -22.0588   -2.7620   23.2856 H   0  0  0  0  0  0
  -22.4105  -11.9871   22.4797 H   0  0  0  0  0  0
  -21.1115  -13.1241   22.2624 H   0  0  0  0  0  0
  -24.6848  -15.8466   20.5631 H   0  0  0  0  0  0
  -26.3155  -15.6259   20.1725 H   0  0  0  0  0  0
  -26.7126  -32.5528   23.1154 H   0  0  0  0  0  0
  -25.0058  -33.9781   25.0462 H   0  0  0  0  0  0
  -22.6895  -31.3105   21.4082 H   0  0  0  0  0  0
  -23.3738  -35.9665   23.3312 H   0  0  0  0  0  0
  -24.3588  -36.8922   22.2052 H   0  0  0  0  0  0
  -23.7259  -37.6537   23.6647 H   0  0  0  0  0  0
  -26.0374  -31.5987   20.5883 H   0  0  0  0  0  0
  -26.8168  -30.8907   21.9769 H   0  0  0  0  0  0
  -28.0944  -29.1123   21.1519 H   0  0  0  0  0  0
  -26.0157  -25.9534   19.0518 H   0  0  0  0  0  0
  -23.9679  -27.2785   19.0651 H   0  0  0  0  0  0
  -23.7135  -30.5882   19.4007 H   0  0  0  0  0  0
  -22.7277  -29.2394   19.8754 H   0  0  0  0  0  0
  -25.1290  -36.1973   25.0826 H   0  0  0  0  0  0
  -20.9933  -28.3288   24.1458 H   0  0  0  0  0  0
  -20.5662  -26.2328   23.3657 H   0  0  0  0  0  0
  -21.6635  -26.7470   22.1251 H   0  0  0  0  0  0
  -19.6958  -25.6371   21.1195 H   0  0  0  0  0  0
  -19.6679  -27.3302   20.6806 H   0  0  0  0  0  0
  -17.4210  -26.6578   21.4095 H   0  0  0  0  0  0
  -18.0456  -26.0052   22.9096 H   0  0  0  0  0  0
  -19.7877  -30.7303   24.2281 H   0  0  0  0  0  0
  -17.4951  -31.6274   24.5130 H   0  0  0  0  0  0
  -15.5320  -30.2967   23.7622 H   0  0  0  0  0  0
  -15.8675  -28.0787   22.7072 H   0  0  0  0  0  0
  -24.5911  -30.7068   25.7825 H   0  0  0  0  0  0
  -24.8952  -32.2854   26.4956 H   0  0  0  0  0  0
  -25.8106  -30.8860   27.0214 H   0  0  0  0  0  0
  -26.2816  -29.6834   24.1137 H   0  0  0  0  0  0
  -27.4068  -29.7273   25.4528 H   0  0  0  0  0  0
  -27.8648  -30.4374   23.9209 H   0  0  0  0  0  0
  -27.2649  -33.3602   26.2106 H   0  0  0  0  0  0
  -28.3829  -32.6928   25.0310 H   0  0  0  0  0  0
  -28.0741  -31.8435   26.5372 H   0  0  0  0  0  0
  -28.2606  -38.0102   24.7495 H   0  0  0  0  0  0
  -28.1063  -36.2634   24.6302 H   0  0  0  0  0  0
  -27.2298  -37.1480   25.8869 H   0  0  0  0  0  0
  -20.9309  -29.8756   21.6895 H   0  0  0  0  0  0
  -26.0184  -38.2874   24.1385 H   0  0  0  0  0  0
  -27.7383  -16.0767   23.8670 H   0  0  0  0  0  0
  -22.8030  -21.0406   24.0230 H   0  0  0  0  0  0
  -22.2198  -19.5780   23.2401 H   0  0  0  0  0  0
  -22.7692  -20.9377   22.2640 H   0  0  0  0  0  0
  -30.8729  -17.3338   24.3817 H   0  0  0  0  0  0
  -30.1094  -18.6812   23.5365 H   0  0  0  0  0  0
  -31.8632  -18.5849   23.6354 H   0  0  0  0  0  0
  -23.9475  -17.9262   22.2072 H   0  0  0  0  0  0
  -24.3614  -19.1936   21.1074 H   0  0  0  0  0  0
  -25.8520  -18.9163   19.3043 H   0  0  0  0  0  0
  -27.5230  -19.2944   19.1080 H   0  0  0  0  0  0
  -24.5775  -19.3360   24.1602 H   0  0  0  0  0  0
  -25.1052  -20.6188   23.1057 H   0  0  0  0  0  0
  -31.9237  -16.6029   22.1997 H   0  0  0  0  0  0
  -31.0828  -17.8866   21.3736 H   0  0  0  0  0  0
  -25.5907  -21.0246   20.7731 H   0  0  0  0  0  0
  -25.9614  -21.2354   19.1012 H   0  0  0  0  0  0
  -28.4430  -21.5158   19.7979 H   0  0  0  0  0  0
  -27.8443  -21.6829   21.4310 H   0  0  0  0  0  0
  -26.3109  -23.5786   20.5644 H   0  0  0  0  0  0
  -27.0481  -23.3714   19.0014 H   0  0  0  0  0  0
  -29.2939  -23.7589   20.5536 H   0  0  0  0  0  0
  -28.1509  -24.6747   21.4746 H   0  0  0  0  0  0
  -27.9954  -25.3805   18.5609 H   0  0  0  0  0  0
  -29.6010  -25.4244   19.1492 H   0  0  0  0  0  0
  -29.7827  -15.5131   22.7955 H   0  0  0  0  0  0
  -30.0226  -16.1964   19.9748 H   0  0  0  0  0  0
  1 25  1  0  0  0
  1 30  2  0  0  0
  1 89  1  0  0  0
  2  3  1  0  0  0
  2 25  1  0  0  0
  2 90  1  0  0  0
  2 91  1  0  0  0
  3  4  1  0  0  0
  3 92  1  0  0  0
  3 93  1  0  0  0
  4  5  1  0  0  0
  4 94  1  0  0  0
  4 95  1  0  0  0
  5  6  1  0  0  0
  5 26  1  0  0  0
  5 96  1  0  0  0
  6 25  1  0  0  0
  6 97  1  0  0  0
  6 98  1  0  0  0
  7  8  2  0  0  0
  7 26  1  0  0  0
  7 29  1  0  0  0
  8  9  1  0  0  0
  8 22  1  0  0  0
  9 10  1  0  0  0
  9 27  2  0  0  0
 10 11  2  0  0  0
 10 15  1  0  0  0
 11 12  1  0  0  0
 11 99  1  0  0  0
 12 13  2  0  0  0
 12100  1  0  0  0
 13 14  1  0  0  0
 13 31  1  0  0  0
 14 15  2  0  0  0
 14101  1  0  0  0
 15102  1  0  0  0
 16 17  2  0  0  0
 16 21  1  0  0  0
 16 31  1  0  0  0
 17 18  1  0  0  0
 17103  1  0  0  0
 18 19  2  0  0  0
 18104  1  0  0  0
 19 20  1  0  0  0
 19 24  1  0  0  0
 20 21  2  0  0  0
 20105  1  0  0  0
 21 23  1  0  0  0
 22 28  1  0  0  0
 22 32  2  0  0  0
 26 27  1  0  0  0
 28106  1  0  0  0
 28107  1  0  0  0
 29108  1  0  0  0
 29109  1  0  0  0
 33 34  1  0  0  0
 33 66  1  0  0  0
 33 70  2  0  0  0
 34 36  1  0  0  0
 34 59  1  0  0  0
 34110  1  0  0  0
 35 44  2  0  0  0
 35 45  1  0  0  0
 35 68  1  0  0  0
 36 56  1  0  0  0
 36111  1  0  0  0
 37 39  1  0  0  0
 37 47  1  0  0  0
 37 66  1  0  0  0
 37112  1  0  0  0
 38 43  2  0  0  0
 38 46  1  0  0  0
 38 47  1  0  0  0
 39 64  1  0  0  0
 39 67  2  0  0  0
 40 52  1  0  0  0
 40 53  2  0  0  0
 40 58  1  0  0  0
 41113  1  0  0  0
 41114  1  0  0  0
 41115  1  0  0  0
 41 48  1  0  0  0
 42 43  1  0  0  0
 42 66  1  0  0  0
 42116  1  0  0  0
 42117  1  0  0  0
 43 44  1  0  0  0
 44118  1  0  0  0
 45 46  2  0  0  0
 45119  1  0  0  0
 46120  1  0  0  0
 47121  1  0  0  0
 47122  1  0  0  0
 48 56  1  0  0  0
 48 65  1  0  0  0
 48123  1  0  0  0
 49 50  1  0  0  0
 49 53  1  0  0  0
 49 64  1  0  0  0
 49124  1  0  0  0
 50 51  1  0  0  0
 50125  1  0  0  0
 50126  1  0  0  0
 51 52  1  0  0  0
 51127  1  0  0  0
 51128  1  0  0  0
 52129  1  0  0  0
 52130  1  0  0  0
 53 54  1  0  0  0
 54 55  2  0  0  0
 54131  1  0  0  0
 55 57  1  0  0  0
 55132  1  0  0  0
 56 69  2  0  0  0
 57 58  2  0  0  0
 57133  1  0  0  0
 58134  1  0  0  0
 59 60  1  0  0  0
 59 61  1  0  0  0
 59 62  1  0  0  0
 60135  1  0  0  0
 60136  1  0  0  0
 60137  1  0  0  0
 61138  1  0  0  0
 61139  1  0  0  0
 61140  1  0  0  0
 62141  1  0  0  0
 62142  1  0  0  0
 62143  1  0  0  0
 63 65  1  0  0  0
 63144  1  0  0  0
 63145  1  0  0  0
 63146  1  0  0  0
 64147  1  0  0  0
 65148  1  0  0  0
 68 85  1  0  0  0
 71 72  2  0  0  0
 71 87  1  0  0  0
 71149  1  0  0  0
 72 86  1  0  0  0
 72 88  1  0  0  0
 73 74  1  0  0  0
 73 77  1  0  0  0
 73 87  2  0  0  0
 74 78  1  0  0  0
 74 88  2  0  0  0
 75 79  1  0  0  0
 75150  1  0  0  0
 75151  1  0  0  0
 75152  1  0  0  0
 76 80  1  0  0  0
 76153  1  0  0  0
 76154  1  0  0  0
 76155  1  0  0  0
 77 79  1  0  0  0
 77156  1  0  0  0
 77157  1  0  0  0
 78 81  1  0  0  0
 78158  1  0  0  0
 78159  1  0  0  0
 79160  1  0  0  0
 79161  1  0  0  0
 80162  1  0  0  0
 80163  1  0  0  0
 80 86  1  0  0  0
 81 82  1  0  0  0
 81164  1  0  0  0
 81165  1  0  0  0
 82 83  1  0  0  0
 82166  1  0  0  0
 82167  1  0  0  0
 83 84  1  0  0  0
 83168  1  0  0  0
 83169  1  0  0  0
 84 85  1  0  0  0
 84170  1  0  0  0
 84171  1  0  0  0
 85172  1  0  0  0
 85173  1  0  0  0
 86 89  1  0  0  0
 86174  1  0  0  0
 89175  1  0  0  0
M  ISO  4   1 100  68 101  85 101  89 100
M  END
> <chiral flag>
0

> <version>
0

> <s_m_source_file>
/data/baiqing/PycharmProjects/Reinvent-master-3.2/result/LINK_invent/BTK/process_docking_weight1_custom_sum_contain_oxygen_bond_distance_aromatic_linkinvent_7_9_3/rearranged_h_0068.sdf

> <i_m_source_file_index>
23

> <r_mmod_Potential_Energy-OPLS-2005>
53.4647827148438

> <r_mmod_Stretch_Energy-OPLS-2005>
38.248779296875

> <r_mmod_Bend_Energy-OPLS-2005>
120.803565979004

> <r_mmod_Torsional_Energy-OPLS-2005>
269.370910644531

> <r_mmod_Improper_Torsional_Energy-OPLS-2005>
16.066593170166

> <r_mmod_Van_der_Waal_Energy-OPLS-2005>
137.299911499023

> <r_mmod_Electrostatic_Energy-OPLS-2005>
-349.144287109375

> <r_mmod_Solvation_Energy-OPLS-2005>
-192.871551513672

> <b_mmod_Minimization_Converged-OPLS-2005>
0

> <r_mmod_RMS_Derivative-OPLS-2005>
2.63223838806152

$$$$
24
                    3D
 Structure written by MMmdl.
170178  0  0  1  0            999 V2000
  -30.7391  -14.4683   20.4074 C   0  0  0  0  0  0
  -30.4318  -12.2690   19.4252 C   0  0  0  0  0  0
  -29.5048  -12.4329   18.2049 C   0  0  0  0  0  0
  -28.0328  -12.2995   18.6362 C   0  0  0  0  0  0
  -27.6684  -13.1873   19.8596 C   0  0  2  0  0  0
  -28.7265  -13.0677   20.9828 C   0  0  0  0  0  0
  -25.2680  -13.7892   20.5688 C   0  0  0  0  0  0
  -24.1893  -13.0253   20.9097 C   0  0  0  0  0  0
  -24.6447  -11.6728   20.8672 C   0  0  0  0  0  0
  -23.9044  -10.4194   21.0359 C   0  0  0  0  0  0
  -24.3598   -9.4123   21.9140 C   0  0  0  0  0  0
  -23.6263   -8.2182   22.0744 C   0  0  0  0  0  0
  -22.4248   -8.0215   21.3526 C   0  0  0  0  0  0
  -21.9885   -9.0190   20.4612 C   0  0  0  0  0  0
  -22.7211  -10.2068   20.2993 C   0  0  0  0  0  0
  -21.6839   -6.0662   22.5268 C   0  0  0  0  0  0
  -21.3979   -6.5572   23.8193 C   0  0  0  0  0  0
  -21.3701   -5.6758   24.9176 C   0  0  0  0  0  0
  -21.6101   -4.3027   24.7233 C   0  0  0  0  0  0
  -21.8809   -3.8078   23.4357 C   0  0  0  0  0  0
  -21.9169   -4.6881   22.3397 C   0  0  0  0  0  0
  -22.7929  -13.5111   21.1818 C   0  0  0  0  0  0
  -22.1642   -4.2059   21.0976 F   0  0  0  0  0  0
  -21.5720   -3.4528   25.7764 F   0  0  0  0  0  0
  -30.0497  -13.3049   20.3893 N   0  0  0  0  0  0
  -26.3151  -12.9120   20.3414 N   0  0  0  0  0  0
  -25.9406  -11.6293   20.5790 N   0  0  0  0  0  0
  -22.0612  -12.8121   22.0403 N   0  0  0  0  0  0
  -25.4394  -15.1561   20.4067 N   0  0  0  0  0  0
  -31.9554  -14.5351   20.2418 O   0  0  0  0  0  0
  -21.6595   -6.8822   21.4245 O   0  0  0  0  0  0
  -22.3666  -14.5506   20.6765 O   0  0  0  0  0  0
  -24.6075  -31.8742   23.2197 C   0  0  0  0  0  0
  -25.8994  -32.4881   23.8457 C   0  0  1  0  0  0
  -27.2306  -27.4811   20.0680 C   0  0  0  0  0  0
  -25.5863  -33.8684   24.2371 N   0  0  0  0  0  0
  -23.3927  -30.4960   21.5644 C   0  0  2  0  0  0
  -24.8395  -28.9745   20.1130 C   0  0  0  0  0  0
  -22.7370  -29.4652   22.5092 C   0  0  0  0  0  0
  -18.0249  -28.1381   22.8543 C   0  0  0  0  0  0
  -24.1473  -36.7333   23.2624 C   0  0  0  0  0  0
  -25.9186  -30.8449   21.3725 C   0  0  0  0  0  0
  -25.9969  -29.4832   20.7187 C   0  0  0  0  0  0
  -27.1967  -28.7400   20.7035 C   0  0  0  0  0  0
  -26.0691  -26.9923   19.4371 C   0  0  0  0  0  0
  -24.8683  -27.7259   19.4714 C   0  0  0  0  0  0
  -23.5930  -29.8292   20.1774 C   0  0  0  0  0  0
  -25.4101  -36.3155   24.0331 C   0  0  1  0  0  0
  -20.5815  -28.3629   23.1420 C   0  0  2  0  0  0
  -20.6728  -26.9385   22.5458 C   0  0  0  0  0  0
  -19.5696  -26.6383   21.5268 C   0  0  0  0  0  0
  -18.1874  -26.7931   22.1664 C   0  0  0  0  0  0
  -19.1482  -28.8838   23.2965 C   0  0  0  0  0  0
  -18.9396  -30.1465   23.8933 C   0  0  0  0  0  0
  -17.6401  -30.6613   24.0575 C   0  0  0  0  0  0
  -25.9033  -34.9518   23.5159 C   0  0  0  0  0  0
  -16.5316  -29.9087   23.6359 C   0  0  0  0  0  0
  -16.7242  -28.6505   23.0403 C   0  0  0  0  0  0
  -26.4433  -31.6677   25.0792 C   0  0  0  0  0  0
  -25.3680  -31.3741   26.1519 C   0  0  0  0  0  0
  -27.0316  -30.3148   24.6179 C   0  0  0  0  0  0
  -27.6016  -32.4395   25.7557 C   0  0  0  0  0  0
  -27.5627  -37.1769   24.8429 C   0  0  0  0  0  0
  -21.4094  -29.3008   22.3850 N   0  0  0  0  0  0
  -26.4279  -37.3854   23.9464 N   0  0  0  0  0  0
  -24.6586  -31.0830   22.1120 N   0  0  0  0  0  0
  -23.4183  -28.8192   23.3102 O   0  0  0  0  0  0
  -28.3972  -26.7589   20.0297 O   0  0  0  0  0  0
  -26.5592  -34.8947   22.4722 O   0  0  0  0  0  0
  -23.5287  -32.1498   23.7627 O   0  0  0  0  0  0
  -29.4744  -20.0490   21.4112 C   0  0  0  0  0  0
  -28.0766  -19.9072   21.4916 C   0  0  0  0  0  0
  -27.5708  -18.6419   21.1572 C   0  0  0  0  0  0
  -29.6667  -17.9304   20.5857 C   0  0  0  0  0  0
  -26.0933  -18.3357   21.2100 C   0  0  0  0  0  0
  -31.6154  -16.1446   17.6217 C   0  0  0  0  0  0
  -31.1625  -18.5296   17.9740 C   0  0  0  0  0  0
  -29.2639  -16.9640   17.5423 C   0  0  0  0  0  0
  -27.9225  -24.3950   20.4422 C   0  0  0  0  0  0
  -27.8560  -23.2658   21.4811 C   0  0  0  0  0  0
  -28.4720  -25.7174   21.0009 C   0  0  0  0  0  0
  -27.2367  -22.0038   20.8727 C   0  0  0  0  0  0
  -30.5040  -16.8842   19.8483 C   0  0  2  0  0  0
  -30.6134  -17.1189   18.2798 C   0  0  0  0  0  0
  -30.2646  -19.0531   20.9700 N   0  0  0  0  0  0
  -28.3668  -17.6569   20.7069 N   0  0  0  0  0  0
  -29.9982  -15.5583   20.2187 N   0  0  0  0  0  0
  -27.2336  -20.9395   21.8180 O   0  0  0  0  0  0
  -31.4756  -12.3485   19.1075 H   0  0  0  0  0  0
  -30.3214  -11.2807   19.8739 H   0  0  0  0  0  0
  -29.7449  -11.6765   17.4552 H   0  0  0  0  0  0
  -29.6736  -13.4013   17.7291 H   0  0  0  0  0  0
  -27.8713  -11.2485   18.8872 H   0  0  0  0  0  0
  -27.3736  -12.5074   17.7934 H   0  0  0  0  0  0
  -27.6842  -14.2146   19.5001 H   0  0  0  0  0  0
  -28.7082  -12.0777   21.4412 H   0  0  0  0  0  0
  -28.5274  -13.7826   21.7801 H   0  0  0  0  0  0
  -25.2751   -9.5609   22.4696 H   0  0  0  0  0  0
  -23.9932   -7.4600   22.7524 H   0  0  0  0  0  0
  -21.0807   -8.8706   19.8938 H   0  0  0  0  0  0
  -22.3648  -10.9605   19.6113 H   0  0  0  0  0  0
  -21.1909   -7.6076   23.9654 H   0  0  0  0  0  0
  -21.1613   -6.0503   25.9105 H   0  0  0  0  0  0
  -22.0547   -2.7511   23.2884 H   0  0  0  0  0  0
  -22.4150  -11.9663   22.4625 H   0  0  0  0  0  0
  -21.1313  -13.1239   22.2797 H   0  0  0  0  0  0
  -24.6683  -15.8025   20.5123 H   0  0  0  0  0  0
  -26.3203  -15.6122   20.2060 H   0  0  0  0  0  0
  -26.7084  -32.5613   23.1252 H   0  0  0  0  0  0
  -24.9971  -33.9891   25.0487 H   0  0  0  0  0  0
  -22.6749  -31.3091   21.4339 H   0  0  0  0  0  0
  -23.3818  -35.9573   23.3147 H   0  0  0  0  0  0
  -24.3587  -36.9126   22.2072 H   0  0  0  0  0  0
  -23.7108  -37.6435   23.6754 H   0  0  0  0  0  0
  -26.0185  -31.6133   20.6047 H   0  0  0  0  0  0
  -26.8106  -30.9022   21.9847 H   0  0  0  0  0  0
  -28.0912  -29.1278   21.1701 H   0  0  0  0  0  0
  -26.0860  -26.0649   18.8848 H   0  0  0  0  0  0
  -23.9863  -27.3371   18.9833 H   0  0  0  0  0  0
  -23.6710  -30.6054   19.4155 H   0  0  0  0  0  0
  -22.7203  -29.2322   19.9062 H   0  0  0  0  0  0
  -25.1255  -36.2014   25.0816 H   0  0  0  0  0  0
  -20.9890  -28.3147   24.1543 H   0  0  0  0  0  0
  -20.5705  -26.2212   23.3595 H   0  0  0  0  0  0
  -21.6588  -26.7445   22.1224 H   0  0  0  0  0  0
  -19.6835  -25.6308   21.1287 H   0  0  0  0  0  0
  -19.6645  -27.3204   20.6815 H   0  0  0  0  0  0
  -17.4149  -26.6749   21.4052 H   0  0  0  0  0  0
  -18.0199  -26.0081   22.9042 H   0  0  0  0  0  0
  -19.7872  -30.7301   24.2285 H   0  0  0  0  0  0
  -17.4960  -31.6309   24.5155 H   0  0  0  0  0  0
  -15.5317  -30.3003   23.7675 H   0  0  0  0  0  0
  -15.8640  -28.0856   22.7085 H   0  0  0  0  0  0
  -24.5847  -30.7132   25.7797 H   0  0  0  0  0  0
  -24.8859  -32.2877   26.5004 H   0  0  0  0  0  0
  -25.7982  -30.8847   27.0267 H   0  0  0  0  0  0
  -26.2903  -29.6908   24.1179 H   0  0  0  0  0  0
  -27.4059  -29.7398   25.4664 H   0  0  0  0  0  0
  -27.8729  -30.4540   23.9387 H   0  0  0  0  0  0
  -27.2667  -33.3706   26.2145 H   0  0  0  0  0  0
  -28.3802  -32.6946   25.0357 H   0  0  0  0  0  0
  -28.0712  -31.8519   26.5467 H   0  0  0  0  0  0
  -28.2463  -38.0246   24.7803 H   0  0  0  0  0  0
  -28.1304  -36.2811   24.5857 H   0  0  0  0  0  0
  -27.2382  -37.0931   25.8816 H   0  0  0  0  0  0
  -20.9220  -29.8799   21.7151 H   0  0  0  0  0  0
  -26.0172  -38.2893   24.1662 H   0  0  0  0  0  0
  -29.9620  -20.9784   21.6675 H   0  0  0  0  0  0
  -25.4813  -19.2315   21.1168 H   0  0  0  0  0  0
  -25.8457  -17.8338   22.1449 H   0  0  0  0  0  0
  -25.8336  -17.6896   20.3771 H   0  0  0  0  0  0
  -32.5717  -16.1522   18.1480 H   0  0  0  0  0  0
  -31.8213  -16.4202   16.5850 H   0  0  0  0  0  0
  -31.2491  -15.1178   17.6035 H   0  0  0  0  0  0
  -31.3419  -18.6745   16.9063 H   0  0  0  0  0  0
  -32.1162  -18.6929   18.4823 H   0  0  0  0  0  0
  -30.4732  -19.3158   18.2808 H   0  0  0  0  0  0
  -29.3511  -17.3024   16.5087 H   0  0  0  0  0  0
  -28.4658  -17.5539   17.9935 H   0  0  0  0  0  0
  -28.9295  -15.9270   17.5018 H   0  0  0  0  0  0
  -26.9105  -24.5454   20.0749 H   0  0  0  0  0  0
  -28.5235  -24.0937   19.5810 H   0  0  0  0  0  0
  -27.2399  -23.5780   22.3268 H   0  0  0  0  0  0
  -28.8498  -23.0658   21.8816 H   0  0  0  0  0  0
  -29.5186  -25.5956   21.2818 H   0  0  0  0  0  0
  -27.9375  -25.9973   21.9122 H   0  0  0  0  0  0
  -27.7422  -21.7337   19.9416 H   0  0  0  0  0  0
  -26.2036  -22.2133   20.5920 H   0  0  0  0  0  0
  -31.5110  -16.9829   20.2609 H   0  0  0  0  0  0
  -28.9976  -15.5204   20.3545 H   0  0  0  0  0  0
  1 25  1  0  0  0
  1 30  2  0  0  0
  1 87  1  0  0  0
  2  3  1  0  0  0
  2 25  1  0  0  0
  2 89  1  0  0  0
  2 90  1  0  0  0
  3  4  1  0  0  0
  3 91  1  0  0  0
  3 92  1  0  0  0
  4  5  1  0  0  0
  4 93  1  0  0  0
  4 94  1  0  0  0
  5  6  1  0  0  0
  5 26  1  0  0  0
  5 95  1  0  0  0
  6 25  1  0  0  0
  6 96  1  0  0  0
  6 97  1  0  0  0
  7  8  2  0  0  0
  7 26  1  0  0  0
  7 29  1  0  0  0
  8  9  1  0  0  0
  8 22  1  0  0  0
  9 10  1  0  0  0
  9 27  2  0  0  0
 10 11  2  0  0  0
 10 15  1  0  0  0
 11 12  1  0  0  0
 11 98  1  0  0  0
 12 13  2  0  0  0
 12 99  1  0  0  0
 13 14  1  0  0  0
 13 31  1  0  0  0
 14 15  2  0  0  0
 14100  1  0  0  0
 15101  1  0  0  0
 16 17  2  0  0  0
 16 21  1  0  0  0
 16 31  1  0  0  0
 17 18  1  0  0  0
 17102  1  0  0  0
 18 19  2  0  0  0
 18103  1  0  0  0
 19 20  1  0  0  0
 19 24  1  0  0  0
 20 21  2  0  0  0
 20104  1  0  0  0
 21 23  1  0  0  0
 22 28  1  0  0  0
 22 32  2  0  0  0
 26 27  1  0  0  0
 28105  1  0  0  0
 28106  1  0  0  0
 29107  1  0  0  0
 29108  1  0  0  0
 33 34  1  0  0  0
 33 66  1  0  0  0
 33 70  2  0  0  0
 34 36  1  0  0  0
 34 59  1  0  0  0
 34109  1  0  0  0
 35 44  2  0  0  0
 35 45  1  0  0  0
 35 68  1  0  0  0
 36 56  1  0  0  0
 36110  1  0  0  0
 37 39  1  0  0  0
 37 47  1  0  0  0
 37 66  1  0  0  0
 37111  1  0  0  0
 38 43  2  0  0  0
 38 46  1  0  0  0
 38 47  1  0  0  0
 39 64  1  0  0  0
 39 67  2  0  0  0
 40 52  1  0  0  0
 40 53  2  0  0  0
 40 58  1  0  0  0
 41112  1  0  0  0
 41113  1  0  0  0
 41114  1  0  0  0
 41 48  1  0  0  0
 42 43  1  0  0  0
 42 66  1  0  0  0
 42115  1  0  0  0
 42116  1  0  0  0
 43 44  1  0  0  0
 44117  1  0  0  0
 45 46  2  0  0  0
 45118  1  0  0  0
 46119  1  0  0  0
 47120  1  0  0  0
 47121  1  0  0  0
 48 56  1  0  0  0
 48 65  1  0  0  0
 48122  1  0  0  0
 49 50  1  0  0  0
 49 53  1  0  0  0
 49 64  1  0  0  0
 49123  1  0  0  0
 50 51  1  0  0  0
 50124  1  0  0  0
 50125  1  0  0  0
 51 52  1  0  0  0
 51126  1  0  0  0
 51127  1  0  0  0
 52128  1  0  0  0
 52129  1  0  0  0
 53 54  1  0  0  0
 54 55  2  0  0  0
 54130  1  0  0  0
 55 57  1  0  0  0
 55131  1  0  0  0
 56 69  2  0  0  0
 57 58  2  0  0  0
 57132  1  0  0  0
 58133  1  0  0  0
 59 60  1  0  0  0
 59 61  1  0  0  0
 59 62  1  0  0  0
 60134  1  0  0  0
 60135  1  0  0  0
 60136  1  0  0  0
 61137  1  0  0  0
 61138  1  0  0  0
 61139  1  0  0  0
 62140  1  0  0  0
 62141  1  0  0  0
 62142  1  0  0  0
 63 65  1  0  0  0
 63143  1  0  0  0
 63144  1  0  0  0
 63145  1  0  0  0
 64146  1  0  0  0
 65147  1  0  0  0
 68 81  1  0  0  0
 71 72  2  0  0  0
 71 85  1  0  0  0
 71148  1  0  0  0
 72 73  1  0  0  0
 72 88  1  0  0  0
 73 75  1  0  0  0
 73 86  2  0  0  0
 74 83  1  0  0  0
 74 85  2  0  0  0
 74 86  1  0  0  0
 75149  1  0  0  0
 75150  1  0  0  0
 75151  1  0  0  0
 76152  1  0  0  0
 76153  1  0  0  0
 76154  1  0  0  0
 76 84  1  0  0  0
 77 84  1  0  0  0
 77155  1  0  0  0
 77156  1  0  0  0
 77157  1  0  0  0
 78 84  1  0  0  0
 78158  1  0  0  0
 78159  1  0  0  0
 78160  1  0  0  0
 79 80  1  0  0  0
 79 81  1  0  0  0
 79161  1  0  0  0
 79162  1  0  0  0
 80 82  1  0  0  0
 80163  1  0  0  0
 80164  1  0  0  0
 81165  1  0  0  0
 81166  1  0  0  0
 82 88  1  0  0  0
 82167  1  0  0  0
 82168  1  0  0  0
 83 84  1  0  0  0
 83 87  1  0  0  0
 83169  1  0  0  0
 87170  1  0  0  0
M  ISO  4   1 100  68 101  81 101  87 100
M  END
> <chiral flag>
0

> <version>
0

> <s_m_source_file>
/data/baiqing/PycharmProjects/Reinvent-master-3.2/result/LINK_invent/BTK/process_docking_weight1_custom_sum_contain_oxygen_bond_distance_aromatic_linkinvent_7_9_3/rearranged_h_0068.sdf

> <i_m_source_file_index>
24

> <r_mmod_Potential_Energy-OPLS-2005>
-450.093780517578

> <r_mmod_Stretch_Energy-OPLS-2005>
34.5636978149414

> <r_mmod_Bend_Energy-OPLS-2005>
103.909820556641

> <r_mmod_Torsional_Energy-OPLS-2005>
267.709350585938

> <r_mmod_Improper_Torsional_Energy-OPLS-2005>
11.0156669616699

> <r_mmod_Van_der_Waal_Energy-OPLS-2005>
161.76220703125

> <r_mmod_Electrostatic_Energy-OPLS-2005>
-857.221313476562

> <r_mmod_Solvation_Energy-OPLS-2005>
-201.213226318359

> <b_mmod_Minimization_Converged-OPLS-2005>
0

> <r_mmod_RMS_Derivative-OPLS-2005>
5.58789253234863

$$$$
25
                    3D
 Structure written by MMmdl.
166174  0  0  1  0            999 V2000
  -30.7394  -14.4344   20.6220 C   0  0  0  0  0  0
  -30.4148  -12.3123   19.3928 C   0  0  0  0  0  0
  -29.4786  -12.5261   18.1847 C   0  0  0  0  0  0
  -27.9981  -12.4060   18.6007 C   0  0  0  0  0  0
  -27.6655  -13.2091   19.8866 C   0  0  2  0  0  0
  -28.7158  -12.9430   20.9907 C   0  0  0  0  0  0
  -25.2585  -13.8171   20.5716 C   0  0  0  0  0  0
  -24.1843  -13.0451   20.9169 C   0  0  0  0  0  0
  -24.6410  -11.6907   20.8752 C   0  0  0  0  0  0
  -23.9088  -10.4302   21.0406 C   0  0  0  0  0  0
  -24.3621   -9.4210   21.9180 C   0  0  0  0  0  0
  -23.6286   -8.2246   22.0732 C   0  0  0  0  0  0
  -22.4262   -8.0287   21.3536 C   0  0  0  0  0  0
  -21.9916   -9.0279   20.4651 C   0  0  0  0  0  0
  -22.7263  -10.2145   20.3060 C   0  0  0  0  0  0
  -21.6861   -6.0744   22.5273 C   0  0  0  0  0  0
  -21.4048   -6.5646   23.8216 C   0  0  0  0  0  0
  -21.3648   -5.6785   24.9175 C   0  0  0  0  0  0
  -21.6034   -4.3045   24.7223 C   0  0  0  0  0  0
  -21.8819   -3.8154   23.4339 C   0  0  0  0  0  0
  -21.9200   -4.6976   22.3401 C   0  0  0  0  0  0
  -22.7866  -13.5236   21.1840 C   0  0  0  0  0  0
  -22.1655   -4.2152   21.0987 F   0  0  0  0  0  0
  -21.5599   -3.4530   25.7744 F   0  0  0  0  0  0
  -30.0366  -13.2789   20.4395 N   0  0  0  0  0  0
  -26.3052  -12.9353   20.3473 N   0  0  0  0  0  0
  -25.9341  -11.6496   20.5785 N   0  0  0  0  0  0
  -22.0506  -12.8245   22.0400 N   0  0  0  0  0  0
  -25.4342  -15.1892   20.4190 N   0  0  0  0  0  0
  -31.8282  -14.5958   20.0564 O   0  0  0  0  0  0
  -21.6629   -6.8878   21.4229 O   0  0  0  0  0  0
  -22.3545  -14.5536   20.6677 O   0  0  0  0  0  0
  -24.6145  -31.8677   23.2146 C   0  0  0  0  0  0
  -25.9042  -32.4813   23.8410 C   0  0  1  0  0  0
  -27.2275  -27.4376   20.0512 C   0  0  0  0  0  0
  -25.5914  -33.8608   24.2336 N   0  0  0  0  0  0
  -23.3996  -30.4928   21.5608 C   0  0  2  0  0  0
  -24.8405  -28.9670   20.1178 C   0  0  0  0  0  0
  -22.7407  -29.4634   22.5061 C   0  0  0  0  0  0
  -18.0258  -28.1363   22.8508 C   0  0  0  0  0  0
  -24.1484  -36.7291   23.2640 C   0  0  0  0  0  0
  -25.9326  -30.8244   21.3765 C   0  0  0  0  0  0
  -26.0045  -29.4604   20.7210 C   0  0  0  0  0  0
  -27.1956  -28.6950   20.7010 C   0  0  0  0  0  0
  -26.0370  -26.9646   19.4567 C   0  0  0  0  0  0
  -24.8507  -27.7135   19.4914 C   0  0  0  0  0  0
  -23.6055  -29.8345   20.1733 C   0  0  0  0  0  0
  -25.4104  -36.3093   24.0341 C   0  0  1  0  0  0
  -20.5847  -28.3617   23.1374 C   0  0  2  0  0  0
  -20.6741  -26.9359   22.5437 C   0  0  0  0  0  0
  -19.5723  -26.6380   21.5227 C   0  0  0  0  0  0
  -18.1903  -26.7909   22.1638 C   0  0  0  0  0  0
  -19.1503  -28.8817   23.2931 C   0  0  0  0  0  0
  -18.9427  -30.1437   23.8924 C   0  0  0  0  0  0
  -17.6422  -30.6578   24.0559 C   0  0  0  0  0  0
  -25.9031  -34.9465   23.5126 C   0  0  0  0  0  0
  -16.5320  -29.9069   23.6335 C   0  0  0  0  0  0
  -16.7246  -28.6488   23.0361 C   0  0  0  0  0  0
  -26.4480  -31.6580   25.0721 C   0  0  0  0  0  0
  -25.3758  -31.3693   26.1477 C   0  0  0  0  0  0
  -27.0286  -30.3005   24.6098 C   0  0  0  0  0  0
  -27.6053  -32.4301   25.7501 C   0  0  0  0  0  0
  -27.5571  -37.1802   24.8467 C   0  0  0  0  0  0
  -21.4128  -29.2991   22.3802 N   0  0  0  0  0  0
  -26.4289  -37.3777   23.9414 N   0  0  0  0  0  0
  -24.6670  -31.0768   22.1078 N   0  0  0  0  0  0
  -23.4179  -28.8174   23.3096 O   0  0  0  0  0  0
  -28.3975  -26.7002   20.0175 O   0  0  0  0  0  0
  -26.5591  -34.8919   22.4688 O   0  0  0  0  0  0
  -23.5338  -32.1473   23.7531 O   0  0  0  0  0  0
  -29.2746  -19.6701   22.6372 C   0  0  0  0  0  0
  -30.8510  -19.4820   21.1331 C   0  0  0  0  0  0
  -30.1506  -20.4356   21.8155 C   0  0  0  0  0  0
  -30.6599  -15.4096   22.9474 C   0  0  0  0  0  0
  -27.2937  -23.8417   19.0116 C   0  0  0  0  0  0
  -29.3288  -23.8579   17.6066 C   0  0  0  0  0  0
  -30.2480  -21.9371   21.6860 C   0  0  0  0  0  0
  -29.4441  -22.4118   20.4691 C   0  0  0  0  0  0
  -29.5756  -23.9191   20.1377 C   0  0  0  0  0  0
  -30.7411  -16.9659   20.8831 C   0  0  0  0  0  0
  -28.7137  -25.9657   18.8177 C   0  0  0  0  0  0
  -30.2146  -15.6240   21.4879 C   0  0  2  0  0  0
  -28.7270  -24.4024   18.9219 C   0  0  0  0  0  0
  -29.3992  -18.3646   22.4383 N   0  0  0  0  0  0
  -30.3641  -18.2412   21.4967 N   0  0  0  0  0  0
  -28.8805  -15.6853   21.4293 F   0  0  0  0  0  0
  -31.4514  -12.4168   19.0720 H   0  0  0  0  0  0
  -30.3229  -11.2931   19.7744 H   0  0  0  0  0  0
  -29.7073  -11.8060   17.3968 H   0  0  0  0  0  0
  -29.6528  -13.5120   17.7486 H   0  0  0  0  0  0
  -27.7826  -11.3494   18.7567 H   0  0  0  0  0  0
  -27.3527  -12.7338   17.7838 H   0  0  0  0  0  0
  -27.7208  -14.2650   19.6225 H   0  0  0  0  0  0
  -28.6988  -11.8889   21.2684 H   0  0  0  0  0  0
  -28.4861  -13.4744   21.9131 H   0  0  0  0  0  0
  -25.2759   -9.5662   22.4776 H   0  0  0  0  0  0
  -23.9998   -7.4623   22.7441 H   0  0  0  0  0  0
  -21.0845   -8.8844   19.8961 H   0  0  0  0  0  0
  -22.3746  -10.9702   19.6179 H   0  0  0  0  0  0
  -21.2071   -7.6156   23.9728 H   0  0  0  0  0  0
  -21.1445   -6.0518   25.9077 H   0  0  0  0  0  0
  -22.0607   -2.7618   23.2851 H   0  0  0  0  0  0
  -22.4130  -11.9921   22.4812 H   0  0  0  0  0  0
  -21.1116  -13.1281   22.2603 H   0  0  0  0  0  0
  -24.6801  -15.8560   20.5426 H   0  0  0  0  0  0
  -26.3266  -15.6284   20.2216 H   0  0  0  0  0  0
  -26.7097  -32.5527   23.1159 H   0  0  0  0  0  0
  -25.0060  -33.9778   25.0478 H   0  0  0  0  0  0
  -22.6865  -31.3088   21.4303 H   0  0  0  0  0  0
  -23.3743  -35.9626   23.3309 H   0  0  0  0  0  0
  -24.3571  -36.8889   22.2050 H   0  0  0  0  0  0
  -23.7242  -37.6502   23.6647 H   0  0  0  0  0  0
  -26.0529  -31.5932   20.6126 H   0  0  0  0  0  0
  -26.8177  -30.8688   21.9989 H   0  0  0  0  0  0
  -28.0942  -29.0736   21.1696 H   0  0  0  0  0  0
  -25.9986  -26.0222   18.9470 H   0  0  0  0  0  0
  -23.9574  -27.3281   19.0194 H   0  0  0  0  0  0
  -23.7101  -30.6136   19.4182 H   0  0  0  0  0  0
  -22.7270  -29.2577   19.8779 H   0  0  0  0  0  0
  -25.1283  -36.1944   25.0834 H   0  0  0  0  0  0
  -20.9911  -28.3134   24.1508 H   0  0  0  0  0  0
  -20.5647  -26.2198   23.3595 H   0  0  0  0  0  0
  -21.6610  -26.7413   22.1223 H   0  0  0  0  0  0
  -19.6859  -25.6306   21.1231 H   0  0  0  0  0  0
  -19.6665  -27.3213   20.6780 H   0  0  0  0  0  0
  -17.4166  -26.6667   21.4047 H   0  0  0  0  0  0
  -18.0289  -26.0061   22.9044 H   0  0  0  0  0  0
  -19.7895  -30.7253   24.2295 H   0  0  0  0  0  0
  -17.4973  -31.6265   24.5124 H   0  0  0  0  0  0
  -15.5312  -30.2961   23.7659 H   0  0  0  0  0  0
  -15.8649  -28.0804   22.7069 H   0  0  0  0  0  0
  -24.5937  -30.7015   25.7836 H   0  0  0  0  0  0
  -24.8949  -32.2855   26.4918 H   0  0  0  0  0  0
  -25.8135  -30.8885   27.0236 H   0  0  0  0  0  0
  -26.2813  -29.6808   24.1121 H   0  0  0  0  0  0
  -27.3997  -29.7194   25.4552 H   0  0  0  0  0  0
  -27.8699  -30.4286   23.9277 H   0  0  0  0  0  0
  -27.2637  -33.3581   26.2111 H   0  0  0  0  0  0
  -28.3868  -32.6886   25.0339 H   0  0  0  0  0  0
  -28.0718  -31.8402   26.5409 H   0  0  0  0  0  0
  -28.2600  -38.0082   24.7495 H   0  0  0  0  0  0
  -28.1052  -36.2618   24.6319 H   0  0  0  0  0  0
  -27.2294  -37.1487   25.8870 H   0  0  0  0  0  0
  -20.9271  -29.8729   21.7055 H   0  0  0  0  0  0
  -26.0165  -38.2854   24.1407 H   0  0  0  0  0  0
  -28.5316  -20.0192   23.3393 H   0  0  0  0  0  0
  -31.6221  -19.5836   20.3815 H   0  0  0  0  0  0
  -30.2722  -16.1822   23.6067 H   0  0  0  0  0  0
  -31.7468  -15.4177   23.0311 H   0  0  0  0  0  0
  -30.3067  -14.4528   23.3320 H   0  0  0  0  0  0
  -27.2729  -22.7558   18.9281 H   0  0  0  0  0  0
  -26.6763  -24.1895   18.1849 H   0  0  0  0  0  0
  -26.8161  -24.1132   19.9511 H   0  0  0  0  0  0
  -29.4097  -22.7711   17.6065 H   0  0  0  0  0  0
  -30.3254  -24.2568   17.4106 H   0  0  0  0  0  0
  -28.7080  -24.1258   16.7494 H   0  0  0  0  0  0
  -31.2871  -22.2564   21.5961 H   0  0  0  0  0  0
  -29.8603  -22.4302   22.5768 H   0  0  0  0  0  0
  -28.4045  -22.1546   20.6695 H   0  0  0  0  0  0
  -29.7402  -21.8277   19.5989 H   0  0  0  0  0  0
  -30.6277  -24.1529   19.9564 H   0  0  0  0  0  0
  -29.2914  -24.4823   21.0263 H   0  0  0  0  0  0
  -31.8320  -16.9541   20.8567 H   0  0  0  0  0  0
  -30.4290  -17.0211   19.8400 H   0  0  0  0  0  0
  -28.0885  -26.2744   17.9773 H   0  0  0  0  0  0
  -29.7127  -26.3021   18.5371 H   0  0  0  0  0  0
  1 25  1  0  0  0
  1 30  2  0  0  0
  1 82  1  0  0  0
  2  3  1  0  0  0
  2 25  1  0  0  0
  2 87  1  0  0  0
  2 88  1  0  0  0
  3  4  1  0  0  0
  3 89  1  0  0  0
  3 90  1  0  0  0
  4  5  1  0  0  0
  4 91  1  0  0  0
  4 92  1  0  0  0
  5  6  1  0  0  0
  5 26  1  0  0  0
  5 93  1  0  0  0
  6 25  1  0  0  0
  6 94  1  0  0  0
  6 95  1  0  0  0
  7  8  2  0  0  0
  7 26  1  0  0  0
  7 29  1  0  0  0
  8  9  1  0  0  0
  8 22  1  0  0  0
  9 10  1  0  0  0
  9 27  2  0  0  0
 10 11  2  0  0  0
 10 15  1  0  0  0
 11 12  1  0  0  0
 11 96  1  0  0  0
 12 13  2  0  0  0
 12 97  1  0  0  0
 13 14  1  0  0  0
 13 31  1  0  0  0
 14 15  2  0  0  0
 14 98  1  0  0  0
 15 99  1  0  0  0
 16 17  2  0  0  0
 16 21  1  0  0  0
 16 31  1  0  0  0
 17 18  1  0  0  0
 17100  1  0  0  0
 18 19  2  0  0  0
 18101  1  0  0  0
 19 20  1  0  0  0
 19 24  1  0  0  0
 20 21  2  0  0  0
 20102  1  0  0  0
 21 23  1  0  0  0
 22 28  1  0  0  0
 22 32  2  0  0  0
 26 27  1  0  0  0
 28103  1  0  0  0
 28104  1  0  0  0
 29105  1  0  0  0
 29106  1  0  0  0
 33 34  1  0  0  0
 33 66  1  0  0  0
 33 70  2  0  0  0
 34 36  1  0  0  0
 34 59  1  0  0  0
 34107  1  0  0  0
 35 44  2  0  0  0
 35 45  1  0  0  0
 35 68  1  0  0  0
 36 56  1  0  0  0
 36108  1  0  0  0
 37 39  1  0  0  0
 37 47  1  0  0  0
 37 66  1  0  0  0
 37109  1  0  0  0
 38 43  2  0  0  0
 38 46  1  0  0  0
 38 47  1  0  0  0
 39 64  1  0  0  0
 39 67  2  0  0  0
 40 52  1  0  0  0
 40 53  2  0  0  0
 40 58  1  0  0  0
 41110  1  0  0  0
 41111  1  0  0  0
 41112  1  0  0  0
 41 48  1  0  0  0
 42 43  1  0  0  0
 42 66  1  0  0  0
 42113  1  0  0  0
 42114  1  0  0  0
 43 44  1  0  0  0
 44115  1  0  0  0
 45 46  2  0  0  0
 45116  1  0  0  0
 46117  1  0  0  0
 47118  1  0  0  0
 47119  1  0  0  0
 48 56  1  0  0  0
 48 65  1  0  0  0
 48120  1  0  0  0
 49 50  1  0  0  0
 49 53  1  0  0  0
 49 64  1  0  0  0
 49121  1  0  0  0
 50 51  1  0  0  0
 50122  1  0  0  0
 50123  1  0  0  0
 51 52  1  0  0  0
 51124  1  0  0  0
 51125  1  0  0  0
 52126  1  0  0  0
 52127  1  0  0  0
 53 54  1  0  0  0
 54 55  2  0  0  0
 54128  1  0  0  0
 55 57  1  0  0  0
 55129  1  0  0  0
 56 69  2  0  0  0
 57 58  2  0  0  0
 57130  1  0  0  0
 58131  1  0  0  0
 59 60  1  0  0  0
 59 61  1  0  0  0
 59 62  1  0  0  0
 60132  1  0  0  0
 60133  1  0  0  0
 60134  1  0  0  0
 61135  1  0  0  0
 61136  1  0  0  0
 61137  1  0  0  0
 62138  1  0  0  0
 62139  1  0  0  0
 62140  1  0  0  0
 63 65  1  0  0  0
 63141  1  0  0  0
 63142  1  0  0  0
 63143  1  0  0  0
 64144  1  0  0  0
 65145  1  0  0  0
 68 81  1  0  0  0
 71 73  1  0  0  0
 71 84  2  0  0  0
 71146  1  0  0  0
 72 73  2  0  0  0
 72 85  1  0  0  0
 72147  1  0  0  0
 73 77  1  0  0  0
 74148  1  0  0  0
 74149  1  0  0  0
 74150  1  0  0  0
 74 82  1  0  0  0
 75151  1  0  0  0
 75152  1  0  0  0
 75153  1  0  0  0
 75 83  1  0  0  0
 76 83  1  0  0  0
 76154  1  0  0  0
 76155  1  0  0  0
 76156  1  0  0  0
 77 78  1  0  0  0
 77157  1  0  0  0
 77158  1  0  0  0
 78 79  1  0  0  0
 78159  1  0  0  0
 78160  1  0  0  0
 79 83  1  0  0  0
 79161  1  0  0  0
 79162  1  0  0  0
 80 82  1  0  0  0
 80 85  1  0  0  0
 80163  1  0  0  0
 80164  1  0  0  0
 81 83  1  0  0  0
 81165  1  0  0  0
 81166  1  0  0  0
 82 86  1  0  0  0
 84 85  1  0  0  0
M  ISO  4   1 100  68 101  81 101  82 100
M  END
> <chiral flag>
0

> <version>
0

> <s_m_source_file>
/data/baiqing/PycharmProjects/Reinvent-master-3.2/result/LINK_invent/BTK/process_docking_weight1_custom_sum_contain_oxygen_bond_distance_aromatic_linkinvent_7_9_3/rearranged_h_0068.sdf

> <i_m_source_file_index>
25

> <r_mmod_Potential_Energy-OPLS-2005>
46.1311492919922

> <r_mmod_Stretch_Energy-OPLS-2005>
39.8224945068359

> <r_mmod_Bend_Energy-OPLS-2005>
119.348243713379

> <r_mmod_Torsional_Energy-OPLS-2005>
204.399139404297

> <r_mmod_Improper_Torsional_Energy-OPLS-2005>
2.0475697517395

> <r_mmod_Van_der_Waal_Energy-OPLS-2005>
146.281448364258

> <r_mmod_Electrostatic_Energy-OPLS-2005>
-294.632080078125

> <r_mmod_Solvation_Energy-OPLS-2005>
-182.327529907227

> <b_mmod_Minimization_Converged-OPLS-2005>
0

> <r_mmod_RMS_Derivative-OPLS-2005>
3.96066045761108

$$$$
26
                    3D
 Structure written by MMmdl.
175183  0  0  1  0            999 V2000
  -30.6329  -14.6070   20.5526 C   0  0  0  0  0  0
  -30.4401  -12.3797   19.4608 C   0  0  0  0  0  0
  -29.5176  -12.5332   18.2300 C   0  0  0  0  0  0
  -28.0354  -12.3659   18.6240 C   0  0  0  0  0  0
  -27.6609  -13.2112   19.8694 C   0  0  2  0  0  0
  -28.7011  -13.0254   21.0027 C   0  0  0  0  0  0
  -25.2578  -13.8144   20.5623 C   0  0  0  0  0  0
  -24.1826  -13.0433   20.9134 C   0  0  0  0  0  0
  -24.6379  -11.6897   20.8678 C   0  0  0  0  0  0
  -23.9051  -10.4297   21.0375 C   0  0  0  0  0  0
  -24.3626   -9.4225   21.9154 C   0  0  0  0  0  0
  -23.6338   -8.2242   22.0720 C   0  0  0  0  0  0
  -22.4309   -8.0266   21.3529 C   0  0  0  0  0  0
  -21.9931   -9.0224   20.4606 C   0  0  0  0  0  0
  -22.7228  -10.2118   20.3010 C   0  0  0  0  0  0
  -21.6856   -6.0750   22.5293 C   0  0  0  0  0  0
  -21.4010   -6.5654   23.8233 C   0  0  0  0  0  0
  -21.3643   -5.6798   24.9191 C   0  0  0  0  0  0
  -21.6049   -4.3061   24.7234 C   0  0  0  0  0  0
  -21.8807   -3.8156   23.4358 C   0  0  0  0  0  0
  -21.9184   -4.6983   22.3408 C   0  0  0  0  0  0
  -22.7846  -13.5229   21.1823 C   0  0  0  0  0  0
  -22.1648   -4.2161   21.0988 F   0  0  0  0  0  0
  -21.5651   -3.4532   25.7747 F   0  0  0  0  0  0
  -30.0272  -13.3803   20.4641 N   0  0  0  0  0  0
  -26.3006  -12.9323   20.3283 N   0  0  0  0  0  0
  -25.9306  -11.6470   20.5688 N   0  0  0  0  0  0
  -22.0481  -12.8199   22.0380 N   0  0  0  0  0  0
  -25.4348  -15.1881   20.4039 N   0  0  0  0  0  0
  -31.7405  -14.8214   20.0520 O   0  0  0  0  0  0
  -21.6665   -6.8880   21.4248 O   0  0  0  0  0  0
  -22.3505  -14.5519   20.6676 O   0  0  0  0  0  0
  -24.6201  -31.8584   23.1979 C   0  0  0  0  0  0
  -25.9042  -32.4786   23.8315 C   0  0  1  0  0  0
  -27.2560  -27.3517   20.1218 C   0  0  0  0  0  0
  -25.5890  -33.8581   24.2272 N   0  0  0  0  0  0
  -23.4183  -30.4734   21.5373 C   0  0  2  0  0  0
  -24.8743  -28.9205   20.1197 C   0  0  0  0  0  0
  -22.7444  -29.4601   22.4909 C   0  0  0  0  0  0
  -18.0288  -28.1400   22.8466 C   0  0  0  0  0  0
  -24.1518  -36.7293   23.2636 C   0  0  0  0  0  0
  -25.9522  -30.8014   21.3632 C   0  0  0  0  0  0
  -26.0376  -29.4235   20.7193 C   0  0  0  0  0  0
  -27.2299  -28.6487   20.7122 C   0  0  0  0  0  0
  -26.0701  -26.8813   19.5230 C   0  0  0  0  0  0
  -24.8897  -27.6519   19.5174 C   0  0  0  0  0  0
  -23.6373  -29.7914   20.1609 C   0  0  0  0  0  0
  -25.4141  -36.3084   24.0335 C   0  0  1  0  0  0
  -20.5880  -28.3720   23.1282 C   0  0  2  0  0  0
  -20.6806  -26.9447   22.5422 C   0  0  0  0  0  0
  -19.5784  -26.6409   21.5219 C   0  0  0  0  0  0
  -18.1948  -26.7947   22.1604 C   0  0  0  0  0  0
  -19.1530  -28.8868   23.2870 C   0  0  0  0  0  0
  -18.9454  -30.1474   23.8877 C   0  0  0  0  0  0
  -17.6447  -30.6591   24.0561 C   0  0  0  0  0  0
  -25.9052  -34.9460   23.5103 C   0  0  0  0  0  0
  -16.5346  -29.9103   23.6316 C   0  0  0  0  0  0
  -16.7279  -28.6526   23.0312 C   0  0  0  0  0  0
  -26.4484  -31.6550   25.0629 C   0  0  0  0  0  0
  -25.3769  -31.3615   26.1377 C   0  0  0  0  0  0
  -27.0296  -30.2991   24.5986 C   0  0  0  0  0  0
  -27.6042  -32.4278   25.7398 C   0  0  0  0  0  0
  -27.5594  -37.1802   24.8455 C   0  0  0  0  0  0
  -21.4151  -29.3062   22.3659 N   0  0  0  0  0  0
  -26.4314  -37.3777   23.9387 N   0  0  0  0  0  0
  -24.6814  -31.0615   22.0914 N   0  0  0  0  0  0
  -23.4164  -28.8135   23.2984 O   0  0  0  0  0  0
  -28.4118  -26.5653   20.0969 O   0  0  0  0  0  0
  -26.5602  -34.8924   22.4659 O   0  0  0  0  0  0
  -23.5372  -32.1335   23.7352 O   0  0  0  0  0  0
  -29.6675  -19.9190   22.7124 C   0  0  0  0  0  0
  -30.1145  -19.6151   21.4140 C   0  0  0  0  0  0
  -29.3134  -21.2444   23.0305 C   0  0  0  0  0  0
  -29.7773  -21.8659   20.8632 C   0  0  0  0  0  0
  -28.4294  -24.2977   18.1824 C   0  0  0  0  0  0
  -31.5644  -17.7200   22.3202 C   0  0  0  0  0  0
  -31.7429  -18.3351   19.9455 C   0  0  0  0  0  0
  -28.1976  -23.0726   24.4077 C   0  0  0  0  0  0
  -30.2906  -21.9401   25.2320 C   0  0  0  0  0  0
  -29.9038  -23.0717   19.9016 C   0  0  0  0  0  0
  -29.6714  -17.0654   20.7402 C   0  0  0  0  0  0
  -28.3434  -25.1922   20.6207 C   0  0  0  0  0  0
  -28.5967  -23.9417   19.6712 C   0  0  1  0  0  0
  -30.7345  -18.1857   21.1038 C   0  0  0  0  0  0
  -28.9701  -21.7241   24.4619 C   0  0  0  0  0  0
  -28.0635  -20.7123   25.2313 C   0  0  0  0  0  0
  -30.1020  -20.6140   20.4753 N   0  0  0  0  0  0
  -29.4438  -22.2053   22.0944 N   0  0  0  0  0  0
  -29.8658  -15.6027   21.0783 N   0  0  0  0  0  0
  -28.6833  -19.5630   25.4989 F   0  0  0  0  0  0
  -26.9560  -20.4441   24.5357 F   0  0  0  0  0  0
  -27.6885  -21.2231   26.4068 F   0  0  0  0  0  0
  -31.4845  -12.5052   19.1731 H   0  0  0  0  0  0
  -30.3714  -11.3725   19.8749 H   0  0  0  0  0  0
  -29.7957  -11.8108   17.4641 H   0  0  0  0  0  0
  -29.6631  -13.5175   17.7827 H   0  0  0  0  0  0
  -27.8544  -11.3075   18.8211 H   0  0  0  0  0  0
  -27.3923  -12.6302   17.7831 H   0  0  0  0  0  0
  -27.6940  -14.2548   19.5519 H   0  0  0  0  0  0
  -28.7028  -11.9871   21.3407 H   0  0  0  0  0  0
  -28.4397  -13.6176   21.8795 H   0  0  0  0  0  0
  -25.2775   -9.5768   22.4708 H   0  0  0  0  0  0
  -24.0078   -7.4654   22.7428 H   0  0  0  0  0  0
  -21.0873   -8.8726   19.8902 H   0  0  0  0  0  0
  -22.3682  -10.9653   19.6113 H   0  0  0  0  0  0
  -21.1989   -7.6157   23.9753 H   0  0  0  0  0  0
  -21.1473   -6.0513   25.9100 H   0  0  0  0  0  0
  -22.0591   -2.7617   23.2841 H   0  0  0  0  0  0
  -22.4158  -11.9926   22.4830 H   0  0  0  0  0  0
  -21.1049  -13.1169   22.2488 H   0  0  0  0  0  0
  -24.6784  -15.8540   20.5060 H   0  0  0  0  0  0
  -26.2931  -15.6138   20.0782 H   0  0  0  0  0  0
  -26.7094  -32.5508   23.1058 H   0  0  0  0  0  0
  -25.0117  -33.9746   25.0474 H   0  0  0  0  0  0
  -22.7108  -31.2908   21.3849 H   0  0  0  0  0  0
  -23.3797  -35.9609   23.3292 H   0  0  0  0  0  0
  -24.3603  -36.8911   22.2047 H   0  0  0  0  0  0
  -23.7294  -37.6505   23.6655 H   0  0  0  0  0  0
  -26.0671  -31.5584   20.5872 H   0  0  0  0  0  0
  -26.8379  -30.8681   21.9831 H   0  0  0  0  0  0
  -28.1249  -29.0252   21.1881 H   0  0  0  0  0  0
  -26.0525  -25.9078   19.0605 H   0  0  0  0  0  0
  -23.9981  -27.2521   19.0534 H   0  0  0  0  0  0
  -23.7517  -30.5532   19.3891 H   0  0  0  0  0  0
  -22.7646  -29.2025   19.8694 H   0  0  0  0  0  0
  -25.1355  -36.1926   25.0838 H   0  0  0  0  0  0
  -20.9992  -28.3361   24.1392 H   0  0  0  0  0  0
  -20.5769  -26.2332   23.3632 H   0  0  0  0  0  0
  -21.6674  -26.7549   22.1173 H   0  0  0  0  0  0
  -19.6968  -25.6329   21.1235 H   0  0  0  0  0  0
  -19.6735  -27.3222   20.6751 H   0  0  0  0  0  0
  -17.4249  -26.6703   21.3975 H   0  0  0  0  0  0
  -18.0319  -26.0101   22.9002 H   0  0  0  0  0  0
  -19.7928  -30.7290   24.2232 H   0  0  0  0  0  0
  -17.5011  -31.6251   24.5210 H   0  0  0  0  0  0
  -15.5340  -30.2987   23.7666 H   0  0  0  0  0  0
  -15.8683  -28.0868   22.6993 H   0  0  0  0  0  0
  -24.5984  -30.6923   25.7693 H   0  0  0  0  0  0
  -24.8913  -32.2739   26.4827 H   0  0  0  0  0  0
  -25.8153  -30.8778   27.0114 H   0  0  0  0  0  0
  -26.2778  -29.6738   24.1143 H   0  0  0  0  0  0
  -27.4179  -29.7236   25.4395 H   0  0  0  0  0  0
  -27.8582  -30.4289   23.9023 H   0  0  0  0  0  0
  -27.2646  -33.3598   26.1924 H   0  0  0  0  0  0
  -28.3863  -32.6794   25.0223 H   0  0  0  0  0  0
  -28.0677  -31.8422   26.5346 H   0  0  0  0  0  0
  -28.2610  -38.0100   24.7513 H   0  0  0  0  0  0
  -28.1100  -36.2632   24.6293 H   0  0  0  0  0  0
  -27.2273  -37.1450   25.8843 H   0  0  0  0  0  0
  -20.9316  -29.8756   21.6856 H   0  0  0  0  0  0
  -26.0204  -38.2860   24.1368 H   0  0  0  0  0  0
  -29.6584  -19.1553   23.4714 H   0  0  0  0  0  0
  -28.5438  -23.4183   17.5473 H   0  0  0  0  0  0
  -29.1636  -25.0390   17.8678 H   0  0  0  0  0  0
  -27.4392  -24.6977   17.9791 H   0  0  0  0  0  0
  -32.2631  -18.4970   22.6318 H   0  0  0  0  0  0
  -32.1496  -16.8316   22.0821 H   0  0  0  0  0  0
  -30.9403  -17.4732   23.1790 H   0  0  0  0  0  0
  -32.5056  -19.0797   20.1798 H   0  0  0  0  0  0
  -31.2536  -18.6583   19.0260 H   0  0  0  0  0  0
  -32.2546  -17.3992   19.7301 H   0  0  0  0  0  0
  -28.7808  -23.8599   23.9295 H   0  0  0  0  0  0
  -27.9405  -23.4395   25.4016 H   0  0  0  0  0  0
  -27.2715  -22.9625   23.8446 H   0  0  0  0  0  0
  -30.9161  -22.6912   24.7495 H   0  0  0  0  0  0
  -30.8679  -21.0167   25.2740 H   0  0  0  0  0  0
  -30.1126  -22.2615   26.2582 H   0  0  0  0  0  0
  -30.2505  -22.6565   18.9546 H   0  0  0  0  0  0
  -30.7339  -23.7041   20.2197 H   0  0  0  0  0  0
  -29.3859  -17.1498   19.6900 H   0  0  0  0  0  0
  -28.7659  -17.3364   21.2854 H   0  0  0  0  0  0
  -29.0598  -25.1365   21.4427 H   0  0  0  0  0  0
  -27.3809  -25.0537   21.1184 H   0  0  0  0  0  0
  -27.7868  -23.2394   19.8793 H   0  0  0  0  0  0
  -29.0717  -15.2239   21.5734 H   0  0  0  0  0  0
  1 25  1  0  0  0
  1 30  2  0  0  0
  1 89  1  0  0  0
  2  3  1  0  0  0
  2 25  1  0  0  0
  2 93  1  0  0  0
  2 94  1  0  0  0
  3  4  1  0  0  0
  3 95  1  0  0  0
  3 96  1  0  0  0
  4  5  1  0  0  0
  4 97  1  0  0  0
  4 98  1  0  0  0
  5  6  1  0  0  0
  5 26  1  0  0  0
  5 99  1  0  0  0
  6 25  1  0  0  0
  6100  1  0  0  0
  6101  1  0  0  0
  7  8  2  0  0  0
  7 26  1  0  0  0
  7 29  1  0  0  0
  8  9  1  0  0  0
  8 22  1  0  0  0
  9 10  1  0  0  0
  9 27  2  0  0  0
 10 11  2  0  0  0
 10 15  1  0  0  0
 11 12  1  0  0  0
 11102  1  0  0  0
 12 13  2  0  0  0
 12103  1  0  0  0
 13 14  1  0  0  0
 13 31  1  0  0  0
 14 15  2  0  0  0
 14104  1  0  0  0
 15105  1  0  0  0
 16 17  2  0  0  0
 16 21  1  0  0  0
 16 31  1  0  0  0
 17 18  1  0  0  0
 17106  1  0  0  0
 18 19  2  0  0  0
 18107  1  0  0  0
 19 20  1  0  0  0
 19 24  1  0  0  0
 20 21  2  0  0  0
 20108  1  0  0  0
 21 23  1  0  0  0
 22 28  1  0  0  0
 22 32  2  0  0  0
 26 27  1  0  0  0
 28109  1  0  0  0
 28110  1  0  0  0
 29111  1  0  0  0
 29112  1  0  0  0
 33 34  1  0  0  0
 33 66  1  0  0  0
 33 70  2  0  0  0
 34 36  1  0  0  0
 34 59  1  0  0  0
 34113  1  0  0  0
 35 44  2  0  0  0
 35 45  1  0  0  0
 35 68  1  0  0  0
 36 56  1  0  0  0
 36114  1  0  0  0
 37 39  1  0  0  0
 37 47  1  0  0  0
 37 66  1  0  0  0
 37115  1  0  0  0
 38 43  2  0  0  0
 38 46  1  0  0  0
 38 47  1  0  0  0
 39 64  1  0  0  0
 39 67  2  0  0  0
 40 52  1  0  0  0
 40 53  2  0  0  0
 40 58  1  0  0  0
 41116  1  0  0  0
 41117  1  0  0  0
 41118  1  0  0  0
 41 48  1  0  0  0
 42 43  1  0  0  0
 42 66  1  0  0  0
 42119  1  0  0  0
 42120  1  0  0  0
 43 44  1  0  0  0
 44121  1  0  0  0
 45 46  2  0  0  0
 45122  1  0  0  0
 46123  1  0  0  0
 47124  1  0  0  0
 47125  1  0  0  0
 48 56  1  0  0  0
 48 65  1  0  0  0
 48126  1  0  0  0
 49 50  1  0  0  0
 49 53  1  0  0  0
 49 64  1  0  0  0
 49127  1  0  0  0
 50 51  1  0  0  0
 50128  1  0  0  0
 50129  1  0  0  0
 51 52  1  0  0  0
 51130  1  0  0  0
 51131  1  0  0  0
 52132  1  0  0  0
 52133  1  0  0  0
 53 54  1  0  0  0
 54 55  2  0  0  0
 54134  1  0  0  0
 55 57  1  0  0  0
 55135  1  0  0  0
 56 69  2  0  0  0
 57 58  2  0  0  0
 57136  1  0  0  0
 58137  1  0  0  0
 59 60  1  0  0  0
 59 61  1  0  0  0
 59 62  1  0  0  0
 60138  1  0  0  0
 60139  1  0  0  0
 60140  1  0  0  0
 61141  1  0  0  0
 61142  1  0  0  0
 61143  1  0  0  0
 62144  1  0  0  0
 62145  1  0  0  0
 62146  1  0  0  0
 63 65  1  0  0  0
 63147  1  0  0  0
 63148  1  0  0  0
 63149  1  0  0  0
 64150  1  0  0  0
 65151  1  0  0  0
 68 82  1  0  0  0
 71 72  2  0  0  0
 71 73  1  0  0  0
 71152  1  0  0  0
 72 84  1  0  0  0
 72 87  1  0  0  0
 73 85  1  0  0  0
 73 88  2  0  0  0
 74 80  1  0  0  0
 74 87  2  0  0  0
 74 88  1  0  0  0
 75153  1  0  0  0
 75154  1  0  0  0
 75155  1  0  0  0
 75 83  1  0  0  0
 76156  1  0  0  0
 76157  1  0  0  0
 76158  1  0  0  0
 76 84  1  0  0  0
 77 84  1  0  0  0
 77159  1  0  0  0
 77160  1  0  0  0
 77161  1  0  0  0
 78162  1  0  0  0
 78163  1  0  0  0
 78164  1  0  0  0
 78 85  1  0  0  0
 79 85  1  0  0  0
 79165  1  0  0  0
 79166  1  0  0  0
 79167  1  0  0  0
 80 83  1  0  0  0
 80168  1  0  0  0
 80169  1  0  0  0
 81 84  1  0  0  0
 81 89  1  0  0  0
 81170  1  0  0  0
 81171  1  0  0  0
 82 83  1  0  0  0
 82172  1  0  0  0
 82173  1  0  0  0
 83174  1  0  0  0
 85 86  1  0  0  0
 86 90  1  0  0  0
 86 91  1  0  0  0
 86 92  1  0  0  0
 89175  1  0  0  0
M  ISO  4   1 100  68 101  82 101  89 100
M  END
> <chiral flag>
0

> <version>
0

> <s_m_source_file>
/data/baiqing/PycharmProjects/Reinvent-master-3.2/result/LINK_invent/BTK/process_docking_weight1_custom_sum_contain_oxygen_bond_distance_aromatic_linkinvent_7_9_3/rearranged_h_0068.sdf

> <i_m_source_file_index>
26

> <r_mmod_Potential_Energy-OPLS-2005>
-275.668426513672

> <r_mmod_Stretch_Energy-OPLS-2005>
78.687629699707

> <r_mmod_Bend_Energy-OPLS-2005>
169.392395019531

> <r_mmod_Torsional_Energy-OPLS-2005>
270.278991699219

> <r_mmod_Improper_Torsional_Energy-OPLS-2005>
6.46436929702759

> <r_mmod_Van_der_Waal_Energy-OPLS-2005>
162.594772338867

> <r_mmod_Electrostatic_Energy-OPLS-2005>
-787.208618164062

> <r_mmod_Solvation_Energy-OPLS-2005>
-210.040710449219

> <b_mmod_Minimization_Converged-OPLS-2005>
0

> <r_mmod_RMS_Derivative-OPLS-2005>
4.7696418762207

$$$$
27
                    3D
 Structure written by MMmdl.
164172  0  0  1  0            999 V2000
  -30.5413  -14.8674   20.5238 C   0  0  0  0  0  0
  -30.4654  -12.5586   19.4526 C   0  0  0  0  0  0
  -29.5126  -12.5454   18.2313 C   0  0  0  0  0  0
  -28.0433  -12.3257   18.6507 C   0  0  0  0  0  0
  -27.6479  -13.2036   19.8634 C   0  0  2  0  0  0
  -28.7170  -13.0818   20.9785 C   0  0  0  0  0  0
  -25.2461  -13.8066   20.5593 C   0  0  0  0  0  0
  -24.1775  -13.0345   20.9188 C   0  0  0  0  0  0
  -24.6385  -11.6839   20.8778 C   0  0  0  0  0  0
  -23.9066  -10.4240   21.0432 C   0  0  0  0  0  0
  -24.3625   -9.4162   21.9205 C   0  0  0  0  0  0
  -23.6294   -8.2206   22.0771 C   0  0  0  0  0  0
  -22.4273   -8.0260   21.3560 C   0  0  0  0  0  0
  -21.9911   -9.0233   20.4659 C   0  0  0  0  0  0
  -22.7246  -10.2103   20.3070 C   0  0  0  0  0  0
  -21.6847   -6.0729   22.5295 C   0  0  0  0  0  0
  -21.4010   -6.5637   23.8227 C   0  0  0  0  0  0
  -21.3651   -5.6791   24.9188 C   0  0  0  0  0  0
  -21.6038   -4.3056   24.7237 C   0  0  0  0  0  0
  -21.8821   -3.8147   23.4362 C   0  0  0  0  0  0
  -21.9193   -4.6960   22.3416 C   0  0  0  0  0  0
  -22.7801  -13.5158   21.1846 C   0  0  0  0  0  0
  -22.1660   -4.2146   21.0994 F   0  0  0  0  0  0
  -21.5626   -3.4535   25.7746 F   0  0  0  0  0  0
  -29.9803  -13.5883   20.4163 N   0  0  0  0  0  0
  -26.2958  -12.9262   20.3359 N   0  0  0  0  0  0
  -25.9328  -11.6433   20.5845 N   0  0  0  0  0  0
  -22.0461  -12.8169   22.0431 N   0  0  0  0  0  0
  -25.3935  -15.1769   20.3806 N   0  0  0  0  0  0
  -31.6926  -14.9828   20.0825 O   0  0  0  0  0  0
  -21.6637   -6.8864   21.4254 O   0  0  0  0  0  0
  -22.3474  -14.5458   20.6691 O   0  0  0  0  0  0
  -24.6370  -31.8503   23.1942 C   0  0  0  0  0  0
  -25.9166  -32.4732   23.8312 C   0  0  1  0  0  0
  -27.2333  -27.2135   20.1333 C   0  0  0  0  0  0
  -25.5942  -33.8537   24.2232 N   0  0  0  0  0  0
  -23.4381  -30.4704   21.5395 C   0  0  2  0  0  0
  -24.8890  -28.9097   20.1139 C   0  0  0  0  0  0
  -22.7536  -29.4570   22.4899 C   0  0  0  0  0  0
  -18.0292  -28.1387   22.8474 C   0  0  0  0  0  0
  -24.1493  -36.7272   23.2641 C   0  0  0  0  0  0
  -25.9891  -30.7481   21.3829 C   0  0  0  0  0  0
  -26.0645  -29.3667   20.7230 C   0  0  0  0  0  0
  -27.2383  -28.5348   20.7157 C   0  0  0  0  0  0
  -26.0272  -26.8386   19.4962 C   0  0  0  0  0  0
  -24.8784  -27.6549   19.4888 C   0  0  0  0  0  0
  -23.6619  -29.8024   20.1578 C   0  0  0  0  0  0
  -25.4121  -36.3057   24.0322 C   0  0  1  0  0  0
  -20.5897  -28.3705   23.1253 C   0  0  2  0  0  0
  -20.6778  -26.9413   22.5406 C   0  0  0  0  0  0
  -19.5758  -26.6377   21.5208 C   0  0  0  0  0  0
  -18.1937  -26.7926   22.1619 C   0  0  0  0  0  0
  -19.1545  -28.8864   23.2854 C   0  0  0  0  0  0
  -18.9470  -30.1462   23.8877 C   0  0  0  0  0  0
  -17.6470  -30.6587   24.0555 C   0  0  0  0  0  0
  -25.9064  -34.9429   23.5078 C   0  0  0  0  0  0
  -16.5358  -29.9083   23.6334 C   0  0  0  0  0  0
  -16.7278  -28.6500   23.0352 C   0  0  0  0  0  0
  -26.4504  -31.6577   25.0728 C   0  0  0  0  0  0
  -25.3710  -31.3751   26.1440 C   0  0  0  0  0  0
  -27.0357  -30.2982   24.6261 C   0  0  0  0  0  0
  -27.6050  -32.4330   25.7506 C   0  0  0  0  0  0
  -27.5578  -37.1794   24.8462 C   0  0  0  0  0  0
  -21.4233  -29.3043   22.3642 N   0  0  0  0  0  0
  -26.4291  -37.3764   23.9405 N   0  0  0  0  0  0
  -24.7074  -31.0420   22.0949 N   0  0  0  0  0  0
  -23.4205  -28.8113   23.3025 O   0  0  0  0  0  0
  -28.3228  -26.2878   20.1815 O   0  0  0  0  0  0
  -26.5647  -34.8913   22.4656 O   0  0  0  0  0  0
  -23.5502  -32.1347   23.7201 O   0  0  0  0  0  0
  -29.5682  -19.6370   19.4477 C   0  0  0  0  0  0
  -29.3687  -20.5845   20.5016 C   0  0  0  0  0  0
  -29.6549  -19.9577   21.7463 C   0  0  0  0  0  0
  -30.1193  -17.7786   20.8379 C   0  0  0  0  0  0
  -28.0796  -20.1662   23.7149 C   0  0  0  0  0  0
  -30.0748  -23.8289   21.4829 C   0  0  0  0  0  0
  -28.2797  -16.2086   21.1060 C   0  0  0  0  0  0
  -30.1847  -15.9961   22.7126 C   0  0  0  0  0  0
  -28.5825  -22.0031   20.3088 C   0  0  0  0  0  0
  -29.3955  -20.6380   23.0787 C   0  0  0  0  0  0
  -28.0492  -24.7840   20.1523 C   0  0  0  0  0  0
  -29.1490  -23.5562   20.2929 C   0  0  1  0  0  0
  -29.8215  -16.2031   21.2163 C   0  0  0  0  0  0
  -29.8913  -18.2986   19.6127 N   0  0  0  0  0  0
  -30.0274  -18.6440   21.8718 N   0  0  0  0  0  0
  -31.4845  -12.7529   19.1156 H   0  0  0  0  0  0
  -30.5046  -11.5735   19.9206 H   0  0  0  0  0  0
  -29.8167  -11.7745   17.5227 H   0  0  0  0  0  0
  -29.5976  -13.4950   17.7011 H   0  0  0  0  0  0
  -27.9235  -11.2727   18.9061 H   0  0  0  0  0  0
  -27.3746  -12.5138   17.8092 H   0  0  0  0  0  0
  -27.6415  -14.2182   19.4788 H   0  0  0  0  0  0
  -28.8177  -12.0326   21.2604 H   0  0  0  0  0  0
  -28.4565  -13.5533   21.9200 H   0  0  0  0  0  0
  -25.2778   -9.5626   22.4773 H   0  0  0  0  0  0
  -24.0001   -7.4591   22.7485 H   0  0  0  0  0  0
  -21.0846   -8.8757   19.8959 H   0  0  0  0  0  0
  -22.3725  -10.9647   19.6173 H   0  0  0  0  0  0
  -21.2008   -7.6147   23.9731 H   0  0  0  0  0  0
  -21.1466   -6.0523   25.9089 H   0  0  0  0  0  0
  -22.0610   -2.7611   23.2873 H   0  0  0  0  0  0
  -22.4076  -11.9827   22.4811 H   0  0  0  0  0  0
  -21.1085  -13.1207   22.2650 H   0  0  0  0  0  0
  -24.6177  -15.8204   20.4909 H   0  0  0  0  0  0
  -26.2436  -15.6294   20.0736 H   0  0  0  0  0  0
  -26.7236  -32.5363   23.1053 H   0  0  0  0  0  0
  -25.0069  -33.9664   25.0364 H   0  0  0  0  0  0
  -22.7374  -31.2940   21.3881 H   0  0  0  0  0  0
  -23.3758  -35.9600   23.3298 H   0  0  0  0  0  0
  -24.3573  -36.8908   22.2056 H   0  0  0  0  0  0
  -23.7252  -37.6471   23.6674 H   0  0  0  0  0  0
  -26.1363  -31.5075   20.6136 H   0  0  0  0  0  0
  -26.8621  -30.7959   22.0223 H   0  0  0  0  0  0
  -28.1374  -28.8830   21.2049 H   0  0  0  0  0  0
  -25.9334  -25.8852   19.0013 H   0  0  0  0  0  0
  -23.9792  -27.2976   19.0062 H   0  0  0  0  0  0
  -23.7948  -30.5778   19.4026 H   0  0  0  0  0  0
  -22.7791  -29.2401   19.8490 H   0  0  0  0  0  0
  -25.1308  -36.1894   25.0816 H   0  0  0  0  0  0
  -20.9978  -28.3283   24.1378 H   0  0  0  0  0  0
  -20.5671  -26.2314   23.3615 H   0  0  0  0  0  0
  -21.6649  -26.7429   22.1209 H   0  0  0  0  0  0
  -19.6924  -25.6284   21.1250 H   0  0  0  0  0  0
  -19.6702  -27.3176   20.6730 H   0  0  0  0  0  0
  -17.4206  -26.6657   21.4023 H   0  0  0  0  0  0
  -18.0341  -26.0071   22.9021 H   0  0  0  0  0  0
  -19.7949  -30.7272   24.2242 H   0  0  0  0  0  0
  -17.5029  -31.6267   24.5158 H   0  0  0  0  0  0
  -15.5359  -30.2980   23.7677 H   0  0  0  0  0  0
  -15.8673  -28.0819   22.7080 H   0  0  0  0  0  0
  -24.5885  -30.7099   25.7768 H   0  0  0  0  0  0
  -24.8897  -32.2927   26.4835 H   0  0  0  0  0  0
  -25.8008  -30.8949   27.0241 H   0  0  0  0  0  0
  -26.2958  -29.6727   24.1254 H   0  0  0  0  0  0
  -27.3976  -29.7257   25.4811 H   0  0  0  0  0  0
  -27.8863  -30.4235   23.9558 H   0  0  0  0  0  0
  -27.2651  -33.3642   26.2051 H   0  0  0  0  0  0
  -28.3872  -32.6875   25.0343 H   0  0  0  0  0  0
  -28.0700  -31.8480   26.5451 H   0  0  0  0  0  0
  -28.2591  -38.0095   24.7506 H   0  0  0  0  0  0
  -28.1080  -36.2624   24.6289 H   0  0  0  0  0  0
  -27.2288  -37.1442   25.8863 H   0  0  0  0  0  0
  -20.9433  -29.8776   21.6844 H   0  0  0  0  0  0
  -26.0161  -38.2833   24.1411 H   0  0  0  0  0  0
  -29.3415  -19.9257   18.4317 H   0  0  0  0  0  0
  -27.8992  -20.6713   24.6632 H   0  0  0  0  0  0
  -28.1018  -19.0930   23.9084 H   0  0  0  0  0  0
  -27.2339  -20.3697   23.0580 H   0  0  0  0  0  0
  -30.8339  -23.0528   21.5833 H   0  0  0  0  0  0
  -29.5133  -23.8904   22.4148 H   0  0  0  0  0  0
  -30.5927  -24.7806   21.3582 H   0  0  0  0  0  0
  -27.9728  -16.2747   20.0634 H   0  0  0  0  0  0
  -27.8614  -17.0919   21.5895 H   0  0  0  0  0  0
  -27.7683  -15.4003   21.6041 H   0  0  0  0  0  0
  -29.5779  -16.6170   23.3717 H   0  0  0  0  0  0
  -31.2300  -16.2481   22.8941 H   0  0  0  0  0  0
  -30.0320  -14.9688   23.0439 H   0  0  0  0  0  0
  -27.8065  -21.9852   21.0743 H   0  0  0  0  0  0
  -28.0197  -21.8860   19.3817 H   0  0  0  0  0  0
  -29.3728  -21.7158   22.9594 H   0  0  0  0  0  0
  -30.2291  -20.4298   23.7511 H   0  0  0  0  0  0
  -27.2953  -24.6109   20.9220 H   0  0  0  0  0  0
  -27.5503  -24.5756   19.2073 H   0  0  0  0  0  0
  -29.7813  -23.6255   19.4068 H   0  0  0  0  0  0
  1 25  1  0  0  0
  1 30  2  0  0  0
  1 83  1  0  0  0
  2  3  1  0  0  0
  2 25  1  0  0  0
  2 86  1  0  0  0
  2 87  1  0  0  0
  3  4  1  0  0  0
  3 88  1  0  0  0
  3 89  1  0  0  0
  4  5  1  0  0  0
  4 90  1  0  0  0
  4 91  1  0  0  0
  5  6  1  0  0  0
  5 26  1  0  0  0
  5 92  1  0  0  0
  6 25  1  0  0  0
  6 93  1  0  0  0
  6 94  1  0  0  0
  7  8  2  0  0  0
  7 26  1  0  0  0
  7 29  1  0  0  0
  8  9  1  0  0  0
  8 22  1  0  0  0
  9 10  1  0  0  0
  9 27  2  0  0  0
 10 11  2  0  0  0
 10 15  1  0  0  0
 11 12  1  0  0  0
 11 95  1  0  0  0
 12 13  2  0  0  0
 12 96  1  0  0  0
 13 14  1  0  0  0
 13 31  1  0  0  0
 14 15  2  0  0  0
 14 97  1  0  0  0
 15 98  1  0  0  0
 16 17  2  0  0  0
 16 21  1  0  0  0
 16 31  1  0  0  0
 17 18  1  0  0  0
 17 99  1  0  0  0
 18 19  2  0  0  0
 18100  1  0  0  0
 19 20  1  0  0  0
 19 24  1  0  0  0
 20 21  2  0  0  0
 20101  1  0  0  0
 21 23  1  0  0  0
 22 28  1  0  0  0
 22 32  2  0  0  0
 26 27  1  0  0  0
 28102  1  0  0  0
 28103  1  0  0  0
 29104  1  0  0  0
 29105  1  0  0  0
 33 34  1  0  0  0
 33 66  1  0  0  0
 33 70  2  0  0  0
 34 36  1  0  0  0
 34 59  1  0  0  0
 34106  1  0  0  0
 35 44  2  0  0  0
 35 45  1  0  0  0
 35 68  1  0  0  0
 36 56  1  0  0  0
 36107  1  0  0  0
 37 39  1  0  0  0
 37 47  1  0  0  0
 37 66  1  0  0  0
 37108  1  0  0  0
 38 43  2  0  0  0
 38 46  1  0  0  0
 38 47  1  0  0  0
 39 64  1  0  0  0
 39 67  2  0  0  0
 40 52  1  0  0  0
 40 53  2  0  0  0
 40 58  1  0  0  0
 41109  1  0  0  0
 41110  1  0  0  0
 41111  1  0  0  0
 41 48  1  0  0  0
 42 43  1  0  0  0
 42 66  1  0  0  0
 42112  1  0  0  0
 42113  1  0  0  0
 43 44  1  0  0  0
 44114  1  0  0  0
 45 46  2  0  0  0
 45115  1  0  0  0
 46116  1  0  0  0
 47117  1  0  0  0
 47118  1  0  0  0
 48 56  1  0  0  0
 48 65  1  0  0  0
 48119  1  0  0  0
 49 50  1  0  0  0
 49 53  1  0  0  0
 49 64  1  0  0  0
 49120  1  0  0  0
 50 51  1  0  0  0
 50121  1  0  0  0
 50122  1  0  0  0
 51 52  1  0  0  0
 51123  1  0  0  0
 51124  1  0  0  0
 52125  1  0  0  0
 52126  1  0  0  0
 53 54  1  0  0  0
 54 55  2  0  0  0
 54127  1  0  0  0
 55 57  1  0  0  0
 55128  1  0  0  0
 56 69  2  0  0  0
 57 58  2  0  0  0
 57129  1  0  0  0
 58130  1  0  0  0
 59 60  1  0  0  0
 59 61  1  0  0  0
 59 62  1  0  0  0
 60131  1  0  0  0
 60132  1  0  0  0
 60133  1  0  0  0
 61134  1  0  0  0
 61135  1  0  0  0
 61136  1  0  0  0
 62137  1  0  0  0
 62138  1  0  0  0
 62139  1  0  0  0
 63 65  1  0  0  0
 63140  1  0  0  0
 63141  1  0  0  0
 63142  1  0  0  0
 64143  1  0  0  0
 65144  1  0  0  0
 68 81  1  0  0  0
 71 72  2  0  0  0
 71 84  1  0  0  0
 71145  1  0  0  0
 72 73  1  0  0  0
 72 79  1  0  0  0
 73 80  1  0  0  0
 73 85  2  0  0  0
 74 83  1  0  0  0
 74 84  2  0  0  0
 74 85  1  0  0  0
 75 80  1  0  0  0
 75146  1  0  0  0
 75147  1  0  0  0
 75148  1  0  0  0
 76149  1  0  0  0
 76150  1  0  0  0
 76151  1  0  0  0
 76 82  1  0  0  0
 77152  1  0  0  0
 77153  1  0  0  0
 77154  1  0  0  0
 77 83  1  0  0  0
 78 83  1  0  0  0
 78155  1  0  0  0
 78156  1  0  0  0
 78157  1  0  0  0
 79 82  1  0  0  0
 79158  1  0  0  0
 79159  1  0  0  0
 80160  1  0  0  0
 80161  1  0  0  0
 81 82  1  0  0  0
 81162  1  0  0  0
 81163  1  0  0  0
 82164  1  0  0  0
M  ISO  4   1 100  68 101  81 101  83 100
M  END
> <chiral flag>
0

> <version>
0

> <s_m_source_file>
/data/baiqing/PycharmProjects/Reinvent-master-3.2/result/LINK_invent/BTK/process_docking_weight1_custom_sum_contain_oxygen_bond_distance_aromatic_linkinvent_7_9_3/rearranged_h_0068.sdf

> <i_m_source_file_index>
27

> <r_mmod_Potential_Energy-OPLS-2005>
114.465263366699

> <r_mmod_Stretch_Energy-OPLS-2005>
197.363983154297

> <r_mmod_Bend_Energy-OPLS-2005>
279.269592285156

> <r_mmod_Torsional_Energy-OPLS-2005>
202.047027587891

> <r_mmod_Improper_Torsional_Energy-OPLS-2005>
11.6734313964844

> <r_mmod_Van_der_Waal_Energy-OPLS-2005>
160.048645019531

> <r_mmod_Electrostatic_Energy-OPLS-2005>
-657.305358886719

> <r_mmod_Solvation_Energy-OPLS-2005>
-203.552978515625

> <b_mmod_Minimization_Converged-OPLS-2005>
0

> <r_mmod_RMS_Derivative-OPLS-2005>
0.982315897941589

$$$$
28
                    3D
 Structure written by MMmdl.
158166  0  0  1  0            999 V2000
  -30.6309  -14.5969   20.5706 C   0  0  0  0  0  0
  -30.4419  -12.3838   19.4300 C   0  0  0  0  0  0
  -29.5004  -12.5206   18.2129 C   0  0  0  0  0  0
  -28.0240  -12.3582   18.6293 C   0  0  0  0  0  0
  -27.6600  -13.2083   19.8755 C   0  0  2  0  0  0
  -28.7082  -13.0070   20.9930 C   0  0  0  0  0  0
  -25.2591  -13.8152   20.5696 C   0  0  0  0  0  0
  -24.1842  -13.0431   20.9185 C   0  0  0  0  0  0
  -24.6397  -11.6897   20.8741 C   0  0  0  0  0  0
  -23.9058  -10.4287   21.0408 C   0  0  0  0  0  0
  -24.3611   -9.4201   21.9183 C   0  0  0  0  0  0
  -23.6286   -8.2238   22.0753 C   0  0  0  0  0  0
  -22.4270   -8.0279   21.3542 C   0  0  0  0  0  0
  -21.9905   -9.0253   20.4644 C   0  0  0  0  0  0
  -22.7234  -10.2131   20.3055 C   0  0  0  0  0  0
  -21.6850   -6.0737   22.5280 C   0  0  0  0  0  0
  -21.4012   -6.5641   23.8214 C   0  0  0  0  0  0
  -21.3657   -5.6793   24.9175 C   0  0  0  0  0  0
  -21.6046   -4.3057   24.7226 C   0  0  0  0  0  0
  -21.8819   -3.8149   23.4345 C   0  0  0  0  0  0
  -21.9190   -4.6966   22.3402 C   0  0  0  0  0  0
  -22.7865  -13.5233   21.1848 C   0  0  0  0  0  0
  -22.1661   -4.2153   21.0978 F   0  0  0  0  0  0
  -21.5628   -3.4538   25.7736 F   0  0  0  0  0  0
  -30.0204  -13.3751   20.4393 N   0  0  0  0  0  0
  -26.3025  -12.9320   20.3382 N   0  0  0  0  0  0
  -25.9329  -11.6480   20.5781 N   0  0  0  0  0  0
  -22.0503  -12.8226   22.0402 N   0  0  0  0  0  0
  -25.4308  -15.1870   20.4099 N   0  0  0  0  0  0
  -31.7464  -14.7926   20.0745 O   0  0  0  0  0  0
  -21.6634   -6.8878   21.4241 O   0  0  0  0  0  0
  -22.3553  -14.5541   20.6697 O   0  0  0  0  0  0
  -24.6233  -31.8622   23.2054 C   0  0  0  0  0  0
  -25.9097  -32.4784   23.8366 C   0  0  1  0  0  0
  -27.2240  -27.3479   20.1191 C   0  0  0  0  0  0
  -25.5926  -33.8586   24.2298 N   0  0  0  0  0  0
  -23.4164  -30.4842   21.5473 C   0  0  2  0  0  0
  -24.8638  -28.9421   20.1122 C   0  0  0  0  0  0
  -22.7466  -29.4618   22.4955 C   0  0  0  0  0  0
  -18.0285  -28.1374   22.8480 C   0  0  0  0  0  0
  -24.1495  -36.7294   23.2640 C   0  0  0  0  0  0
  -25.9539  -30.7996   21.3746 C   0  0  0  0  0  0
  -26.0286  -29.4279   20.7214 C   0  0  0  0  0  0
  -27.2142  -28.6398   20.7193 C   0  0  0  0  0  0
  -26.0506  -26.9165   19.4668 C   0  0  0  0  0  0
  -24.8733  -27.6887   19.4786 C   0  0  0  0  0  0
  -23.6307  -29.8202   20.1613 C   0  0  0  0  0  0
  -25.4117  -36.3086   24.0332 C   0  0  1  0  0  0
  -20.5883  -28.3674   23.1292 C   0  0  2  0  0  0
  -20.6786  -26.9406   22.5407 C   0  0  0  0  0  0
  -19.5761  -26.6379   21.5209 C   0  0  0  0  0  0
  -18.1935  -26.7921   22.1612 C   0  0  0  0  0  0
  -19.1537  -28.8843   23.2882 C   0  0  0  0  0  0
  -18.9461  -30.1449   23.8892 C   0  0  0  0  0  0
  -17.6462  -30.6582   24.0553 C   0  0  0  0  0  0
  -25.9048  -34.9453   23.5115 C   0  0  0  0  0  0
  -16.5354  -29.9078   23.6317 C   0  0  0  0  0  0
  -16.7275  -28.6497   23.0338 C   0  0  0  0  0  0
  -26.4499  -31.6579   25.0719 C   0  0  0  0  0  0
  -25.3738  -31.3703   26.1447 C   0  0  0  0  0  0
  -27.0339  -30.3007   24.6148 C   0  0  0  0  0  0
  -27.6070  -32.4309   25.7486 C   0  0  0  0  0  0
  -27.5586  -37.1806   24.8468 C   0  0  0  0  0  0
  -21.4185  -29.3028   22.3687 N   0  0  0  0  0  0
  -26.4299  -37.3775   23.9409 N   0  0  0  0  0  0
  -24.6827  -31.0655   22.0995 N   0  0  0  0  0  0
  -23.4194  -28.8164   23.3037 O   0  0  0  0  0  0
  -28.3494  -26.5203   20.1079 O   0  0  0  0  0  0
  -26.5611  -34.8920   22.4677 O   0  0  0  0  0  0
  -23.5403  -32.1415   23.7398 O   0  0  0  0  0  0
  -29.0965  -17.7727   19.8370 C   0  0  0  0  0  0
  -30.7219  -19.4595   21.1736 C   0  0  0  0  0  0
  -30.0044  -17.2551   20.8019 C   0  0  0  0  0  0
  -29.8070  -19.9757   20.2143 C   0  0  0  0  0  0
  -29.3191  -25.5398   22.0147 C   0  0  0  0  0  0
  -27.0017  -24.8084   21.4378 C   0  0  0  0  0  0
  -29.9103  -15.7819   21.3230 C   0  0  0  0  0  0
  -29.8016  -21.4773   19.7708 C   0  0  0  0  0  0
  -28.9990  -22.5613   20.5951 C   0  0  0  0  0  0
  -28.9569  -24.0341   19.9804 C   0  0  0  0  0  0
  -28.3680  -25.2338   20.8453 C   0  0  0  0  0  0
  -30.8123  -18.1267   21.4738 N   0  0  0  0  0  0
  -28.9927  -19.1076   19.5493 N   0  0  0  0  0  0
  -31.4792  -12.5201   19.1198 H   0  0  0  0  0  0
  -30.3888  -11.3760   19.8447 H   0  0  0  0  0  0
  -29.7574  -11.7832   17.4510 H   0  0  0  0  0  0
  -29.6423  -13.4987   17.7508 H   0  0  0  0  0  0
  -27.8541  -11.3017   18.8413 H   0  0  0  0  0  0
  -27.3667  -12.6087   17.7963 H   0  0  0  0  0  0
  -27.6951  -14.2527   19.5652 H   0  0  0  0  0  0
  -28.7213  -11.9635   21.3113 H   0  0  0  0  0  0
  -28.4547  -13.5670   21.8924 H   0  0  0  0  0  0
  -25.2757   -9.5679   22.4756 H   0  0  0  0  0  0
  -23.9999   -7.4630   22.7470 H   0  0  0  0  0  0
  -21.0838   -8.8768   19.8949 H   0  0  0  0  0  0
  -22.3691  -10.9670   19.6164 H   0  0  0  0  0  0
  -21.2005   -7.6149   23.9718 H   0  0  0  0  0  0
  -21.1482   -6.0523   25.9078 H   0  0  0  0  0  0
  -22.0600   -2.7613   23.2843 H   0  0  0  0  0  0
  -22.4113  -11.9879   22.4783 H   0  0  0  0  0  0
  -21.1126  -13.1261   22.2623 H   0  0  0  0  0  0
  -24.6620  -15.8406   20.5130 H   0  0  0  0  0  0
  -26.2796  -15.6250   20.0771 H   0  0  0  0  0  0
  -26.7165  -32.5472   23.1119 H   0  0  0  0  0  0
  -25.0087  -33.9729   25.0451 H   0  0  0  0  0  0
  -22.7078  -31.3028   21.4058 H   0  0  0  0  0  0
  -23.3752  -35.9630   23.3305 H   0  0  0  0  0  0
  -24.3588  -36.8909   22.2053 H   0  0  0  0  0  0
  -23.7251  -37.6501   23.6654 H   0  0  0  0  0  0
  -26.0816  -31.5629   20.6054 H   0  0  0  0  0  0
  -26.8356  -30.8495   22.0013 H   0  0  0  0  0  0
  -28.1113  -29.0063   21.1982 H   0  0  0  0  0  0
  -26.0395  -25.9630   18.9579 H   0  0  0  0  0  0
  -23.9847  -27.3146   18.9892 H   0  0  0  0  0  0
  -23.7482  -30.5983   19.4057 H   0  0  0  0  0  0
  -22.7515  -29.2485   19.8591 H   0  0  0  0  0  0
  -25.1295  -36.1947   25.0824 H   0  0  0  0  0  0
  -20.9971  -28.3255   24.1413 H   0  0  0  0  0  0
  -20.5707  -26.2282   23.3600 H   0  0  0  0  0  0
  -21.6657  -26.7455   22.1192 H   0  0  0  0  0  0
  -19.6931  -25.6293   21.1233 H   0  0  0  0  0  0
  -19.6708  -27.3193   20.6745 H   0  0  0  0  0  0
  -17.4214  -26.6659   21.4010 H   0  0  0  0  0  0
  -18.0337  -26.0061   22.9007 H   0  0  0  0  0  0
  -19.7943  -30.7255   24.2266 H   0  0  0  0  0  0
  -17.5021  -31.6258   24.5160 H   0  0  0  0  0  0
  -15.5358  -30.2975   23.7655 H   0  0  0  0  0  0
  -15.8671  -28.0823   22.7045 H   0  0  0  0  0  0
  -24.5916  -30.7053   25.7776 H   0  0  0  0  0  0
  -24.8920  -32.2860   26.4886 H   0  0  0  0  0  0
  -25.8064  -30.8871   27.0216 H   0  0  0  0  0  0
  -26.2900  -29.6755   24.1197 H   0  0  0  0  0  0
  -27.4079  -29.7265   25.4636 H   0  0  0  0  0  0
  -27.8752  -30.4304   23.9334 H   0  0  0  0  0  0
  -27.2693  -33.3614   26.2064 H   0  0  0  0  0  0
  -28.3876  -32.6865   25.0307 H   0  0  0  0  0  0
  -28.0738  -31.8429   26.5396 H   0  0  0  0  0  0
  -28.2605  -38.0105   24.7513 H   0  0  0  0  0  0
  -28.1080  -36.2633   24.6293 H   0  0  0  0  0  0
  -27.2298  -37.1458   25.8870 H   0  0  0  0  0  0
  -20.9367  -29.8730   21.6877 H   0  0  0  0  0  0
  -26.0180  -38.2851   24.1405 H   0  0  0  0  0  0
  -28.4015  -17.1180   19.3305 H   0  0  0  0  0  0
  -31.4013  -20.1191   21.6939 H   0  0  0  0  0  0
  -30.3078  -25.8310   21.6576 H   0  0  0  0  0  0
  -29.4483  -24.6800   22.6719 H   0  0  0  0  0  0
  -28.9388  -26.3597   22.6248 H   0  0  0  0  0  0
  -27.1111  -23.9609   22.1141 H   0  0  0  0  0  0
  -26.2981  -24.4987   20.6660 H   0  0  0  0  0  0
  -26.5402  -25.6042   22.0238 H   0  0  0  0  0  0
  -28.8416  -15.5895   21.3730 H   0  0  0  0  0  0
  -30.2575  -15.7572   22.3556 H   0  0  0  0  0  0
  -29.4434  -21.5040   18.7414 H   0  0  0  0  0  0
  -30.8435  -21.7950   19.7111 H   0  0  0  0  0  0
  -29.4247  -22.6034   21.5976 H   0  0  0  0  0  0
  -27.9765  -22.2048   20.7196 H   0  0  0  0  0  0
  -28.3934  -23.9855   19.0482 H   0  0  0  0  0  0
  -29.9699  -24.3051   19.6811 H   0  0  0  0  0  0
  1 25  1  0  0  0
  1 30  2  0  0  0
  1 77  1  0  0  0
  2  3  1  0  0  0
  2 25  1  0  0  0
  2 84  1  0  0  0
  2 85  1  0  0  0
  3  4  1  0  0  0
  3 86  1  0  0  0
  3 87  1  0  0  0
  4  5  1  0  0  0
  4 88  1  0  0  0
  4 89  1  0  0  0
  5  6  1  0  0  0
  5 26  1  0  0  0
  5 90  1  0  0  0
  6 25  1  0  0  0
  6 91  1  0  0  0
  6 92  1  0  0  0
  7  8  2  0  0  0
  7 26  1  0  0  0
  7 29  1  0  0  0
  8  9  1  0  0  0
  8 22  1  0  0  0
  9 10  1  0  0  0
  9 27  2  0  0  0
 10 11  2  0  0  0
 10 15  1  0  0  0
 11 12  1  0  0  0
 11 93  1  0  0  0
 12 13  2  0  0  0
 12 94  1  0  0  0
 13 14  1  0  0  0
 13 31  1  0  0  0
 14 15  2  0  0  0
 14 95  1  0  0  0
 15 96  1  0  0  0
 16 17  2  0  0  0
 16 21  1  0  0  0
 16 31  1  0  0  0
 17 18  1  0  0  0
 17 97  1  0  0  0
 18 19  2  0  0  0
 18 98  1  0  0  0
 19 20  1  0  0  0
 19 24  1  0  0  0
 20 21  2  0  0  0
 20 99  1  0  0  0
 21 23  1  0  0  0
 22 28  1  0  0  0
 22 32  2  0  0  0
 26 27  1  0  0  0
 28100  1  0  0  0
 28101  1  0  0  0
 29102  1  0  0  0
 29103  1  0  0  0
 33 34  1  0  0  0
 33 66  1  0  0  0
 33 70  2  0  0  0
 34 36  1  0  0  0
 34 59  1  0  0  0
 34104  1  0  0  0
 35 44  2  0  0  0
 35 45  1  0  0  0
 35 68  1  0  0  0
 36 56  1  0  0  0
 36105  1  0  0  0
 37 39  1  0  0  0
 37 47  1  0  0  0
 37 66  1  0  0  0
 37106  1  0  0  0
 38 43  2  0  0  0
 38 46  1  0  0  0
 38 47  1  0  0  0
 39 64  1  0  0  0
 39 67  2  0  0  0
 40 52  1  0  0  0
 40 53  2  0  0  0
 40 58  1  0  0  0
 41107  1  0  0  0
 41108  1  0  0  0
 41109  1  0  0  0
 41 48  1  0  0  0
 42 43  1  0  0  0
 42 66  1  0  0  0
 42110  1  0  0  0
 42111  1  0  0  0
 43 44  1  0  0  0
 44112  1  0  0  0
 45 46  2  0  0  0
 45113  1  0  0  0
 46114  1  0  0  0
 47115  1  0  0  0
 47116  1  0  0  0
 48 56  1  0  0  0
 48 65  1  0  0  0
 48117  1  0  0  0
 49 50  1  0  0  0
 49 53  1  0  0  0
 49 64  1  0  0  0
 49118  1  0  0  0
 50 51  1  0  0  0
 50119  1  0  0  0
 50120  1  0  0  0
 51 52  1  0  0  0
 51121  1  0  0  0
 51122  1  0  0  0
 52123  1  0  0  0
 52124  1  0  0  0
 53 54  1  0  0  0
 54 55  2  0  0  0
 54125  1  0  0  0
 55 57  1  0  0  0
 55126  1  0  0  0
 56 69  2  0  0  0
 57 58  2  0  0  0
 57127  1  0  0  0
 58128  1  0  0  0
 59 60  1  0  0  0
 59 61  1  0  0  0
 59 62  1  0  0  0
 60129  1  0  0  0
 60130  1  0  0  0
 60131  1  0  0  0
 61132  1  0  0  0
 61133  1  0  0  0
 61134  1  0  0  0
 62135  1  0  0  0
 62136  1  0  0  0
 62137  1  0  0  0
 63 65  1  0  0  0
 63138  1  0  0  0
 63139  1  0  0  0
 63140  1  0  0  0
 64141  1  0  0  0
 65142  1  0  0  0
 68 81  1  0  0  0
 71 73  2  0  0  0
 71 83  1  0  0  0
 71143  1  0  0  0
 72 74  1  0  0  0
 72 82  2  0  0  0
 72144  1  0  0  0
 73 77  1  0  0  0
 73 82  1  0  0  0
 74 78  1  0  0  0
 74 83  2  0  0  0
 75145  1  0  0  0
 75146  1  0  0  0
 75147  1  0  0  0
 75 81  1  0  0  0
 76 81  1  0  0  0
 76148  1  0  0  0
 76149  1  0  0  0
 76150  1  0  0  0
 77151  1  0  0  0
 77152  1  0  0  0
 78 79  1  0  0  0
 78153  1  0  0  0
 78154  1  0  0  0
 79 80  1  0  0  0
 79155  1  0  0  0
 79156  1  0  0  0
 80 81  1  0  0  0
 80157  1  0  0  0
 80158  1  0  0  0
M  ISO  4   1 100  68 101  77 100  81 101
M  END
> <chiral flag>
0

> <version>
0

> <s_m_source_file>
/data/baiqing/PycharmProjects/Reinvent-master-3.2/result/LINK_invent/BTK/process_docking_weight1_custom_sum_contain_oxygen_bond_distance_aromatic_linkinvent_7_9_3/rearranged_h_0068.sdf

> <i_m_source_file_index>
28

> <r_mmod_Potential_Energy-OPLS-2005>
114.09449005127

> <r_mmod_Stretch_Energy-OPLS-2005>
76.0665893554688

> <r_mmod_Bend_Energy-OPLS-2005>
137.588348388672

> <r_mmod_Torsional_Energy-OPLS-2005>
195.553375244141

> <r_mmod_Improper_Torsional_Energy-OPLS-2005>
3.9522271156311

> <r_mmod_Van_der_Waal_Energy-OPLS-2005>
144.86100769043

> <r_mmod_Electrostatic_Energy-OPLS-2005>
-268.459259033203

> <r_mmod_Solvation_Energy-OPLS-2005>
-209.342559814453

> <b_mmod_Minimization_Converged-OPLS-2005>
0

> <r_mmod_RMS_Derivative-OPLS-2005>
1.02627491950989

$$$$
29
                    3D
 Structure written by MMmdl.
162170  0  0  1  0            999 V2000
  -30.7724  -14.3747   20.5440 C   0  0  0  0  0  0
  -30.4051  -12.2407   19.3864 C   0  0  0  0  0  0
  -29.4871  -12.5011   18.1798 C   0  0  0  0  0  0
  -28.0060  -12.3959   18.5952 C   0  0  0  0  0  0
  -27.6721  -13.2113   19.8748 C   0  0  2  0  0  0
  -28.7221  -12.9646   20.9812 C   0  0  0  0  0  0
  -25.2642  -13.8197   20.5659 C   0  0  0  0  0  0
  -24.1870  -13.0511   20.9140 C   0  0  0  0  0  0
  -24.6399  -11.6969   20.8690 C   0  0  0  0  0  0
  -23.9058  -10.4351   21.0373 C   0  0  0  0  0  0
  -24.3627   -9.4272   21.9158 C   0  0  0  0  0  0
  -23.6329   -8.2295   22.0762 C   0  0  0  0  0  0
  -22.4290   -8.0311   21.3575 C   0  0  0  0  0  0
  -21.9915   -9.0279   20.4669 C   0  0  0  0  0  0
  -22.7229  -10.2170   20.3047 C   0  0  0  0  0  0
  -21.6867   -6.0719   22.5275 C   0  0  0  0  0  0
  -21.3996   -6.5621   23.8208 C   0  0  0  0  0  0
  -21.3666   -5.6774   24.9163 C   0  0  0  0  0  0
  -21.6061   -4.3044   24.7231 C   0  0  0  0  0  0
  -21.8823   -3.8126   23.4363 C   0  0  0  0  0  0
  -21.9219   -4.6933   22.3406 C   0  0  0  0  0  0
  -22.7895  -13.5299   21.1830 C   0  0  0  0  0  0
  -22.1701   -4.2127   21.0995 F   0  0  0  0  0  0
  -21.5654   -3.4527   25.7747 F   0  0  0  0  0  0
  -30.0553  -13.2302   20.4138 N   0  0  0  0  0  0
  -26.3100  -12.9377   20.3377 N   0  0  0  0  0  0
  -25.9328  -11.6538   20.5697 N   0  0  0  0  0  0
  -22.0536  -12.8276   22.0376 N   0  0  0  0  0  0
  -25.4426  -15.1905   20.4058 N   0  0  0  0  0  0
  -31.8976  -14.5254   20.0621 O   0  0  0  0  0  0
  -21.6701   -6.8870   21.4241 O   0  0  0  0  0  0
  -22.3587  -14.5618   20.6687 O   0  0  0  0  0  0
  -24.6126  -31.8654   23.2065 C   0  0  0  0  0  0
  -25.9009  -32.4822   23.8380 C   0  0  1  0  0  0
  -27.2743  -27.4501   20.0946 C   0  0  0  0  0  0
  -25.5862  -33.8622   24.2303 N   0  0  0  0  0  0
  -23.4040  -30.4846   21.5424 C   0  0  2  0  0  0
  -24.8615  -28.9438   20.1169 C   0  0  0  0  0  0
  -22.7390  -29.4658   22.4943 C   0  0  0  0  0  0
  -18.0267  -28.1400   22.8489 C   0  0  0  0  0  0
  -24.1478  -36.7322   23.2641 C   0  0  0  0  0  0
  -25.9293  -30.8369   21.3581 C   0  0  0  0  0  0
  -26.0145  -29.4701   20.7096 C   0  0  0  0  0  0
  -27.2166  -28.7293   20.6961 C   0  0  0  0  0  0
  -26.0996  -26.9294   19.5029 C   0  0  0  0  0  0
  -24.8968  -27.6718   19.5146 C   0  0  0  0  0  0
  -23.6171  -29.8062   20.1618 C   0  0  0  0  0  0
  -25.4101  -36.3112   24.0331 C   0  0  1  0  0  0
  -20.5858  -28.3676   23.1302 C   0  0  2  0  0  0
  -20.6748  -26.9400   22.5413 C   0  0  0  0  0  0
  -19.5745  -26.6391   21.5201 C   0  0  0  0  0  0
  -18.1923  -26.7942   22.1612 C   0  0  0  0  0  0
  -19.1521  -28.8854   23.2905 C   0  0  0  0  0  0
  -18.9446  -30.1460   23.8925 C   0  0  0  0  0  0
  -17.6455  -30.6607   24.0567 C   0  0  0  0  0  0
  -25.9017  -34.9484   23.5118 C   0  0  0  0  0  0
  -16.5343  -29.9115   23.6333 C   0  0  0  0  0  0
  -16.7258  -28.6532   23.0347 C   0  0  0  0  0  0
  -26.4454  -31.6633   25.0725 C   0  0  0  0  0  0
  -25.3718  -31.3761   26.1475 C   0  0  0  0  0  0
  -27.0286  -30.3068   24.6143 C   0  0  0  0  0  0
  -27.6029  -32.4365   25.7483 C   0  0  0  0  0  0
  -27.5580  -37.1800   24.8459 C   0  0  0  0  0  0
  -21.4114  -29.3053   22.3701 N   0  0  0  0  0  0
  -26.4283  -37.3794   23.9415 N   0  0  0  0  0  0
  -24.6657  -31.0774   22.0953 N   0  0  0  0  0  0
  -23.4146  -28.8200   23.2995 O   0  0  0  0  0  0
  -28.4906  -26.7902   20.1074 O   0  0  0  0  0  0
  -26.5594  -34.8941   22.4688 O   0  0  0  0  0  0
  -23.5322  -32.1393   23.7471 O   0  0  0  0  0  0
  -32.2778  -20.4570   21.7014 C   0  0  0  0  0  0
  -30.8235  -20.3315   20.0761 C   0  0  0  0  0  0
  -31.4941  -21.2621   20.8237 C   0  0  0  0  0  0
  -29.0179  -17.9489   19.9505 C   0  0  0  0  0  0
  -31.1709  -17.3089   18.8687 C   0  0  0  0  0  0
  -31.4386  -22.7747   20.7543 C   0  0  0  0  0  0
  -30.0582  -23.3129   20.3032 C   0  0  0  0  0  0
  -29.9446  -24.8559   20.2743 C   0  0  0  0  0  0
  -30.7418  -16.7228   21.3398 C   0  0  0  0  0  0
  -28.5772  -25.3998   19.7819 C   0  0  0  0  0  0
  -30.5296  -17.7692   20.1926 C   0  0  0  0  0  0
  -32.0669  -19.1632   21.5311 N   0  0  0  0  0  0
  -31.0999  -19.0740   20.5850 N   0  0  0  0  0  0
  -30.1445  -15.3982   21.1245 N   0  0  0  0  0  0
  -31.4540  -12.2954   19.0869 H   0  0  0  0  0  0
  -30.2597  -11.2258   19.7632 H   0  0  0  0  0  0
  -29.7016  -11.7956   17.3764 H   0  0  0  0  0  0
  -29.6857  -13.4946   17.7723 H   0  0  0  0  0  0
  -27.7717  -11.3408   18.7483 H   0  0  0  0  0  0
  -27.3723  -12.7337   17.7743 H   0  0  0  0  0  0
  -27.7301  -14.2641   19.5993 H   0  0  0  0  0  0
  -28.6653  -11.9279   21.3158 H   0  0  0  0  0  0
  -28.5175  -13.5639   21.8665 H   0  0  0  0  0  0
  -25.2766   -9.5772   22.4728 H   0  0  0  0  0  0
  -24.0072   -7.4661   22.7437 H   0  0  0  0  0  0
  -21.0865   -8.8756   19.8951 H   0  0  0  0  0  0
  -22.3652  -10.9701   19.6152 H   0  0  0  0  0  0
  -21.1950   -7.6125   23.9689 H   0  0  0  0  0  0
  -21.1498   -6.0515   25.9065 H   0  0  0  0  0  0
  -22.0599   -2.7594   23.2878 H   0  0  0  0  0  0
  -22.4195  -11.9995   22.4842 H   0  0  0  0  0  0
  -21.1139  -13.1281   22.2513 H   0  0  0  0  0  0
  -24.6907  -15.8605   20.5209 H   0  0  0  0  0  0
  -26.3000  -15.6154   20.0789 H   0  0  0  0  0  0
  -26.7091  -32.5555   23.1159 H   0  0  0  0  0  0
  -24.9978  -33.9782   25.0430 H   0  0  0  0  0  0
  -22.6948  -31.3003   21.3932 H   0  0  0  0  0  0
  -23.3731  -35.9660   23.3301 H   0  0  0  0  0  0
  -24.3576  -36.8942   22.2057 H   0  0  0  0  0  0
  -23.7238  -37.6529   23.6661 H   0  0  0  0  0  0
  -26.0362  -31.6041   20.5901 H   0  0  0  0  0  0
  -26.8170  -30.8977   21.9743 H   0  0  0  0  0  0
  -28.1098  -29.1389   21.1460 H   0  0  0  0  0  0
  -26.1022  -25.9609   19.0234 H   0  0  0  0  0  0
  -24.0109  -27.2561   19.0551 H   0  0  0  0  0  0
  -23.7255  -30.5759   19.3955 H   0  0  0  0  0  0
  -22.7452  -29.2189   19.8685 H   0  0  0  0  0  0
  -25.1278  -36.1962   25.0817 H   0  0  0  0  0  0
  -20.9969  -28.3256   24.1417 H   0  0  0  0  0  0
  -20.5630  -26.2281   23.3600 H   0  0  0  0  0  0
  -21.6619  -26.7434   22.1224 H   0  0  0  0  0  0
  -19.6892  -25.6301   21.1257 H   0  0  0  0  0  0
  -19.6710  -27.3182   20.6719 H   0  0  0  0  0  0
  -17.4173  -26.6680   21.4031 H   0  0  0  0  0  0
  -18.0342  -26.0101   22.9029 H   0  0  0  0  0  0
  -19.7927  -30.7267   24.2299 H   0  0  0  0  0  0
  -17.5017  -31.6291   24.5154 H   0  0  0  0  0  0
  -15.5355  -30.3029   23.7648 H   0  0  0  0  0  0
  -15.8647  -28.0872   22.7038 H   0  0  0  0  0  0
  -24.5874  -30.7123   25.7824 H   0  0  0  0  0  0
  -24.8925  -32.2927   26.4932 H   0  0  0  0  0  0
  -25.8067  -30.8932   27.0229 H   0  0  0  0  0  0
  -26.2846  -29.6832   24.1169 H   0  0  0  0  0  0
  -27.3989  -29.7328   25.4647 H   0  0  0  0  0  0
  -27.8708  -30.4370   23.9337 H   0  0  0  0  0  0
  -27.2646  -33.3654   26.2086 H   0  0  0  0  0  0
  -28.3826  -32.6942   25.0302 H   0  0  0  0  0  0
  -28.0708  -31.8472   26.5379 H   0  0  0  0  0  0
  -28.2578  -38.0114   24.7516 H   0  0  0  0  0  0
  -28.1085  -36.2643   24.6251 H   0  0  0  0  0  0
  -27.2303  -37.1419   25.8861 H   0  0  0  0  0  0
  -20.9234  -29.8767   21.6943 H   0  0  0  0  0  0
  -26.0168  -38.2858   24.1450 H   0  0  0  0  0  0
  -32.9812  -20.7608   22.4646 H   0  0  0  0  0  0
  -30.1268  -20.4658   19.2621 H   0  0  0  0  0  0
  -28.5314  -17.0059   19.7121 H   0  0  0  0  0  0
  -28.8204  -18.6185   19.1149 H   0  0  0  0  0  0
  -28.5292  -18.3728   20.8280 H   0  0  0  0  0  0
  -30.6801  -16.4196   18.4676 H   0  0  0  0  0  0
  -32.2268  -17.0708   18.9971 H   0  0  0  0  0  0
  -31.0995  -18.0854   18.1042 H   0  0  0  0  0  0
  -32.2106  -23.1426   20.0785 H   0  0  0  0  0  0
  -31.6894  -23.1939   21.7324 H   0  0  0  0  0  0
  -29.2959  -22.9150   20.9755 H   0  0  0  0  0  0
  -29.8300  -22.9228   19.3088 H   0  0  0  0  0  0
  -30.7431  -25.2658   19.6511 H   0  0  0  0  0  0
  -30.1334  -25.2273   21.2813 H   0  0  0  0  0  0
  -30.3181  -17.1128   22.2668 H   0  0  0  0  0  0
  -31.8075  -16.5921   21.5288 H   0  0  0  0  0  0
  -27.7677  -24.8346   20.2459 H   0  0  0  0  0  0
  -28.4920  -25.2736   18.7002 H   0  0  0  0  0  0
  -29.2198  -15.2232   21.4906 H   0  0  0  0  0  0
  1 25  1  0  0  0
  1 30  2  0  0  0
  1 84  1  0  0  0
  2  3  1  0  0  0
  2 25  1  0  0  0
  2 85  1  0  0  0
  2 86  1  0  0  0
  3  4  1  0  0  0
  3 87  1  0  0  0
  3 88  1  0  0  0
  4  5  1  0  0  0
  4 89  1  0  0  0
  4 90  1  0  0  0
  5  6  1  0  0  0
  5 26  1  0  0  0
  5 91  1  0  0  0
  6 25  1  0  0  0
  6 92  1  0  0  0
  6 93  1  0  0  0
  7  8  2  0  0  0
  7 26  1  0  0  0
  7 29  1  0  0  0
  8  9  1  0  0  0
  8 22  1  0  0  0
  9 10  1  0  0  0
  9 27  2  0  0  0
 10 11  2  0  0  0
 10 15  1  0  0  0
 11 12  1  0  0  0
 11 94  1  0  0  0
 12 13  2  0  0  0
 12 95  1  0  0  0
 13 14  1  0  0  0
 13 31  1  0  0  0
 14 15  2  0  0  0
 14 96  1  0  0  0
 15 97  1  0  0  0
 16 17  2  0  0  0
 16 21  1  0  0  0
 16 31  1  0  0  0
 17 18  1  0  0  0
 17 98  1  0  0  0
 18 19  2  0  0  0
 18 99  1  0  0  0
 19 20  1  0  0  0
 19 24  1  0  0  0
 20 21  2  0  0  0
 20100  1  0  0  0
 21 23  1  0  0  0
 22 28  1  0  0  0
 22 32  2  0  0  0
 26 27  1  0  0  0
 28101  1  0  0  0
 28102  1  0  0  0
 29103  1  0  0  0
 29104  1  0  0  0
 33 34  1  0  0  0
 33 66  1  0  0  0
 33 70  2  0  0  0
 34 36  1  0  0  0
 34 59  1  0  0  0
 34105  1  0  0  0
 35 44  2  0  0  0
 35 45  1  0  0  0
 35 68  1  0  0  0
 36 56  1  0  0  0
 36106  1  0  0  0
 37 39  1  0  0  0
 37 47  1  0  0  0
 37 66  1  0  0  0
 37107  1  0  0  0
 38 43  2  0  0  0
 38 46  1  0  0  0
 38 47  1  0  0  0
 39 64  1  0  0  0
 39 67  2  0  0  0
 40 52  1  0  0  0
 40 53  2  0  0  0
 40 58  1  0  0  0
 41108  1  0  0  0
 41109  1  0  0  0
 41110  1  0  0  0
 41 48  1  0  0  0
 42 43  1  0  0  0
 42 66  1  0  0  0
 42111  1  0  0  0
 42112  1  0  0  0
 43 44  1  0  0  0
 44113  1  0  0  0
 45 46  2  0  0  0
 45114  1  0  0  0
 46115  1  0  0  0
 47116  1  0  0  0
 47117  1  0  0  0
 48 56  1  0  0  0
 48 65  1  0  0  0
 48118  1  0  0  0
 49 50  1  0  0  0
 49 53  1  0  0  0
 49 64  1  0  0  0
 49119  1  0  0  0
 50 51  1  0  0  0
 50120  1  0  0  0
 50121  1  0  0  0
 51 52  1  0  0  0
 51122  1  0  0  0
 51123  1  0  0  0
 52124  1  0  0  0
 52125  1  0  0  0
 53 54  1  0  0  0
 54 55  2  0  0  0
 54126  1  0  0  0
 55 57  1  0  0  0
 55127  1  0  0  0
 56 69  2  0  0  0
 57 58  2  0  0  0
 57128  1  0  0  0
 58129  1  0  0  0
 59 60  1  0  0  0
 59 61  1  0  0  0
 59 62  1  0  0  0
 60130  1  0  0  0
 60131  1  0  0  0
 60132  1  0  0  0
 61133  1  0  0  0
 61134  1  0  0  0
 61135  1  0  0  0
 62136  1  0  0  0
 62137  1  0  0  0
 62138  1  0  0  0
 63 65  1  0  0  0
 63139  1  0  0  0
 63140  1  0  0  0
 63141  1  0  0  0
 64142  1  0  0  0
 65143  1  0  0  0
 68 80  1  0  0  0
 71 73  1  0  0  0
 71 82  2  0  0  0
 71144  1  0  0  0
 72 73  2  0  0  0
 72 83  1  0  0  0
 72145  1  0  0  0
 73 76  1  0  0  0
 74146  1  0  0  0
 74147  1  0  0  0
 74148  1  0  0  0
 74 81  1  0  0  0
 75 81  1  0  0  0
 75149  1  0  0  0
 75150  1  0  0  0
 75151  1  0  0  0
 76 77  1  0  0  0
 76152  1  0  0  0
 76153  1  0  0  0
 77 78  1  0  0  0
 77154  1  0  0  0
 77155  1  0  0  0
 78 80  1  0  0  0
 78156  1  0  0  0
 78157  1  0  0  0
 79 81  1  0  0  0
 79 84  1  0  0  0
 79158  1  0  0  0
 79159  1  0  0  0
 80160  1  0  0  0
 80161  1  0  0  0
 81 83  1  0  0  0
 82 83  1  0  0  0
 84162  1  0  0  0
M  ISO  4   1 100  68 101  80 101  84 100
M  END
> <chiral flag>
0

> <version>
0

> <s_m_source_file>
/data/baiqing/PycharmProjects/Reinvent-master-3.2/result/LINK_invent/BTK/process_docking_weight1_custom_sum_contain_oxygen_bond_distance_aromatic_linkinvent_7_9_3/rearranged_h_0068.sdf

> <i_m_source_file_index>
29

> <r_mmod_Potential_Energy-OPLS-2005>
-112.811653137207

> <r_mmod_Stretch_Energy-OPLS-2005>
36.762092590332

> <r_mmod_Bend_Energy-OPLS-2005>
103.924606323242

> <r_mmod_Torsional_Energy-OPLS-2005>
232.641494750977

> <r_mmod_Improper_Torsional_Energy-OPLS-2005>
2.89652919769287

> <r_mmod_Van_der_Waal_Energy-OPLS-2005>
135.082366943359

> <r_mmod_Electrostatic_Energy-OPLS-2005>
-420.505279541016

> <r_mmod_Solvation_Energy-OPLS-2005>
-217.949417114258

> <b_mmod_Minimization_Converged-OPLS-2005>
0

> <r_mmod_RMS_Derivative-OPLS-2005>
5.15568923950195

$$$$
30
                    3D
 Structure written by MMmdl.
157165  0  0  1  0            999 V2000
  -30.7000  -14.4458   20.5665 C   0  0  0  0  0  0
  -30.4246  -12.2836   19.4134 C   0  0  0  0  0  0
  -29.5013  -12.5067   18.1986 C   0  0  0  0  0  0
  -28.0145  -12.3915   18.5994 C   0  0  0  0  0  0
  -27.6664  -13.2051   19.8771 C   0  0  2  0  0  0
  -28.7084  -12.9615   20.9916 C   0  0  0  0  0  0
  -25.2670  -13.8157   20.5675 C   0  0  0  0  0  0
  -24.1898  -13.0463   20.9141 C   0  0  0  0  0  0
  -24.6408  -11.6915   20.8690 C   0  0  0  0  0  0
  -23.9048  -10.4324   21.0372 C   0  0  0  0  0  0
  -24.3608   -9.4276   21.9171 C   0  0  0  0  0  0
  -23.6308   -8.2303   22.0760 C   0  0  0  0  0  0
  -22.4299   -8.0303   21.3555 C   0  0  0  0  0  0
  -21.9907   -9.0251   20.4655 C   0  0  0  0  0  0
  -22.7205  -10.2140   20.3056 C   0  0  0  0  0  0
  -21.6879   -6.0758   22.5284 C   0  0  0  0  0  0
  -21.4003   -6.5648   23.8208 C   0  0  0  0  0  0
  -21.3670   -5.6797   24.9169 C   0  0  0  0  0  0
  -21.6055   -4.3056   24.7215 C   0  0  0  0  0  0
  -21.8828   -3.8168   23.4328 C   0  0  0  0  0  0
  -21.9193   -4.6988   22.3392 C   0  0  0  0  0  0
  -22.7926  -13.5292   21.1776 C   0  0  0  0  0  0
  -22.1681   -4.2176   21.0974 F   0  0  0  0  0  0
  -21.5632   -3.4552   25.7733 F   0  0  0  0  0  0
  -30.0379  -13.2652   20.4391 N   0  0  0  0  0  0
  -26.3067  -12.9296   20.3358 N   0  0  0  0  0  0
  -25.9329  -11.6465   20.5700 N   0  0  0  0  0  0
  -22.0553  -12.8295   22.0306 N   0  0  0  0  0  0
  -25.4528  -15.1854   20.4121 N   0  0  0  0  0  0
  -31.8379  -14.6298   20.1406 O   0  0  0  0  0  0
  -21.6683   -6.8885   21.4238 O   0  0  0  0  0  0
  -22.3659  -14.5627   20.6622 O   0  0  0  0  0  0
  -24.6160  -31.8685   23.2161 C   0  0  0  0  0  0
  -25.9058  -32.4833   23.8421 C   0  0  1  0  0  0
  -27.2259  -27.4113   20.1043 C   0  0  0  0  0  0
  -25.5934  -33.8629   24.2366 N   0  0  0  0  0  0
  -23.4057  -30.4978   21.5556 C   0  0  2  0  0  0
  -24.8525  -28.9743   20.1158 C   0  0  0  0  0  0
  -22.7434  -29.4651   22.4980 C   0  0  0  0  0  0
  -18.0269  -28.1392   22.8505 C   0  0  0  0  0  0
  -24.1490  -36.7287   23.2639 C   0  0  0  0  0  0
  -25.9431  -30.8273   21.3828 C   0  0  0  0  0  0
  -26.0167  -29.4645   20.7212 C   0  0  0  0  0  0
  -27.2025  -28.6893   20.7181 C   0  0  0  0  0  0
  -26.0357  -26.9529   19.4837 C   0  0  0  0  0  0
  -24.8591  -27.7170   19.4964 C   0  0  0  0  0  0
  -23.6189  -29.8457   20.1658 C   0  0  0  0  0  0
  -25.4115  -36.3115   24.0349 C   0  0  1  0  0  0
  -20.5868  -28.3649   23.1351 C   0  0  2  0  0  0
  -20.6790  -26.9386   22.5437 C   0  0  0  0  0  0
  -19.5740  -26.6387   21.5265 C   0  0  0  0  0  0
  -18.1914  -26.7945   22.1654 C   0  0  0  0  0  0
  -19.1518  -28.8838   23.2929 C   0  0  0  0  0  0
  -18.9447  -30.1467   23.8901 C   0  0  0  0  0  0
  -17.6442  -30.6598   24.0569 C   0  0  0  0  0  0
  -25.9043  -34.9477   23.5151 C   0  0  0  0  0  0
  -16.5333  -29.9091   23.6353 C   0  0  0  0  0  0
  -16.7261  -28.6524   23.0353 C   0  0  0  0  0  0
  -26.4490  -31.6598   25.0732 C   0  0  0  0  0  0
  -25.3776  -31.3676   26.1490 C   0  0  0  0  0  0
  -27.0362  -30.3045   24.6155 C   0  0  0  0  0  0
  -27.6079  -32.4309   25.7470 C   0  0  0  0  0  0
  -27.5588  -37.1804   24.8466 C   0  0  0  0  0  0
  -21.4155  -29.3016   22.3742 N   0  0  0  0  0  0
  -26.4302  -37.3800   23.9411 N   0  0  0  0  0  0
  -24.6721  -31.0780   22.1082 N   0  0  0  0  0  0
  -23.4208  -28.8186   23.3022 O   0  0  0  0  0  0
  -28.3835  -26.6468   20.1426 O   0  0  0  0  0  0
  -26.5575  -34.8917   22.4691 O   0  0  0  0  0  0
  -23.5346  -32.1455   23.7529 O   0  0  0  0  0  0
  -29.1017  -21.0430   20.0346 C   0  0  0  0  0  0
  -31.3345  -21.2432   19.2493 C   0  0  0  0  0  0
  -30.0985  -21.8650   19.4917 C   0  0  0  0  0  0
  -30.4751  -19.2029   19.8785 C   0  0  0  0  0  0
  -29.6889  -17.1845   18.5797 C   0  0  0  0  0  0
  -29.7935  -23.2889   19.0179 C   0  0  0  0  0  0
  -29.4517  -24.3535   20.0938 C   0  0  0  0  0  0
  -30.2874  -16.9013   21.1078 C   0  0  0  0  0  0
  -28.3036  -25.2941   19.6517 C   0  0  0  0  0  0
  -30.5641  -17.6523   19.7594 C   0  0  2  0  0  0
  -29.2949  -19.7228   20.2179 N   0  0  0  0  0  0
  -31.5087  -19.9208   19.4334 N   0  0  0  0  0  0
  -29.9497  -15.4592   21.0312 N   0  0  0  0  0  0
  -31.8144  -17.3326   19.4051 F   0  0  0  0  0  0
  -31.4717  -12.3795   19.1175 H   0  0  0  0  0  0
  -30.3082  -11.2667   19.7926 H   0  0  0  0  0  0
  -29.7309  -11.7932   17.4062 H   0  0  0  0  0  0
  -29.6957  -13.4942   17.7787 H   0  0  0  0  0  0
  -27.7795  -11.3347   18.7428 H   0  0  0  0  0  0
  -27.3878  -12.7271   17.7706 H   0  0  0  0  0  0
  -27.7120  -14.2584   19.6014 H   0  0  0  0  0  0
  -28.6803  -11.9215   21.3126 H   0  0  0  0  0  0
  -28.4774  -13.5423   21.8867 H   0  0  0  0  0  0
  -25.2751   -9.5783   22.4742 H   0  0  0  0  0  0
  -24.0040   -7.4707   22.7467 H   0  0  0  0  0  0
  -21.0856   -8.8722   19.8964 H   0  0  0  0  0  0
  -22.3621  -10.9663   19.6181 H   0  0  0  0  0  0
  -21.1997   -7.6164   23.9697 H   0  0  0  0  0  0
  -21.1484   -6.0550   25.9057 H   0  0  0  0  0  0
  -22.0594   -2.7635   23.2829 H   0  0  0  0  0  0
  -22.4143  -11.9938   22.4706 H   0  0  0  0  0  0
  -21.1170  -13.1344   22.2458 H   0  0  0  0  0  0
  -24.7027  -15.8588   20.5193 H   0  0  0  0  0  0
  -26.3146  -15.6054   20.0880 H   0  0  0  0  0  0
  -26.7126  -32.5545   23.1175 H   0  0  0  0  0  0
  -25.0137  -33.9797   25.0547 H   0  0  0  0  0  0
  -22.6953  -31.3148   21.4219 H   0  0  0  0  0  0
  -23.3783  -35.9590   23.3301 H   0  0  0  0  0  0
  -24.3603  -36.8891   22.2058 H   0  0  0  0  0  0
  -23.7204  -37.6478   23.6640 H   0  0  0  0  0  0
  -26.0786  -31.6022   20.6267 H   0  0  0  0  0  0
  -26.8225  -30.8616   22.0151 H   0  0  0  0  0  0
  -28.0947  -29.0584   21.2062 H   0  0  0  0  0  0
  -25.9706  -25.9985   18.9841 H   0  0  0  0  0  0
  -23.9664  -27.3303   19.0237 H   0  0  0  0  0  0
  -23.7382  -30.6318   19.4185 H   0  0  0  0  0  0
  -22.7428  -29.2737   19.8563 H   0  0  0  0  0  0
  -25.1295  -36.1992   25.0846 H   0  0  0  0  0  0
  -20.9961  -28.3214   24.1475 H   0  0  0  0  0  0
  -20.5813  -26.2211   23.3603 H   0  0  0  0  0  0
  -21.6647  -26.7508   22.1141 H   0  0  0  0  0  0
  -19.6906  -25.6314   21.1264 H   0  0  0  0  0  0
  -19.6720  -27.3237   20.6835 H   0  0  0  0  0  0
  -17.4213  -26.6726   21.4037 H   0  0  0  0  0  0
  -18.0264  -26.0095   22.9040 H   0  0  0  0  0  0
  -19.7916  -30.7308   24.2259 H   0  0  0  0  0  0
  -17.4987  -31.6291   24.5140 H   0  0  0  0  0  0
  -15.5329  -30.2986   23.7699 H   0  0  0  0  0  0
  -15.8663  -28.0874   22.7031 H   0  0  0  0  0  0
  -24.5898  -30.7108   25.7787 H   0  0  0  0  0  0
  -24.9039  -32.2828   26.5049 H   0  0  0  0  0  0
  -25.8127  -30.8719   27.0179 H   0  0  0  0  0  0
  -26.2939  -29.6743   24.1257 H   0  0  0  0  0  0
  -27.4183  -29.7338   25.4630 H   0  0  0  0  0  0
  -27.8740  -30.4358   23.9308 H   0  0  0  0  0  0
  -27.2730  -33.3594   26.2096 H   0  0  0  0  0  0
  -28.3846  -32.6893   25.0262 H   0  0  0  0  0  0
  -28.0806  -31.8409   26.5336 H   0  0  0  0  0  0
  -28.2595  -38.0113   24.7554 H   0  0  0  0  0  0
  -28.1099  -36.2651   24.6259 H   0  0  0  0  0  0
  -27.2299  -37.1400   25.8865 H   0  0  0  0  0  0
  -20.9297  -29.8696   21.6937 H   0  0  0  0  0  0
  -26.0194  -38.2870   24.1456 H   0  0  0  0  0  0
  -28.1150  -21.4281   20.2461 H   0  0  0  0  0  0
  -32.1686  -21.7781   18.8216 H   0  0  0  0  0  0
  -28.6373  -17.4032   18.7651 H   0  0  0  0  0  0
  -29.7961  -16.1179   18.3844 H   0  0  0  0  0  0
  -29.9764  -17.7025   17.6644 H   0  0  0  0  0  0
  -28.9589  -23.1916   18.3213 H   0  0  0  0  0  0
  -30.6251  -23.6481   18.4097 H   0  0  0  0  0  0
  -30.3500  -24.9150   20.3470 H   0  0  0  0  0  0
  -29.1387  -23.8661   21.0162 H   0  0  0  0  0  0
  -29.4315  -17.3796   21.5820 H   0  0  0  0  0  0
  -31.1208  -17.0457   21.7952 H   0  0  0  0  0  0
  -27.3916  -24.8049   19.9972 H   0  0  0  0  0  0
  -28.2448  -25.3394   18.5639 H   0  0  0  0  0  0
  -29.0225  -15.2045   21.3365 H   0  0  0  0  0  0
  1 25  1  0  0  0
  1 30  2  0  0  0
  1 83  1  0  0  0
  2  3  1  0  0  0
  2 25  1  0  0  0
  2 85  1  0  0  0
  2 86  1  0  0  0
  3  4  1  0  0  0
  3 87  1  0  0  0
  3 88  1  0  0  0
  4  5  1  0  0  0
  4 89  1  0  0  0
  4 90  1  0  0  0
  5  6  1  0  0  0
  5 26  1  0  0  0
  5 91  1  0  0  0
  6 25  1  0  0  0
  6 92  1  0  0  0
  6 93  1  0  0  0
  7  8  2  0  0  0
  7 26  1  0  0  0
  7 29  1  0  0  0
  8  9  1  0  0  0
  8 22  1  0  0  0
  9 10  1  0  0  0
  9 27  2  0  0  0
 10 11  2  0  0  0
 10 15  1  0  0  0
 11 12  1  0  0  0
 11 94  1  0  0  0
 12 13  2  0  0  0
 12 95  1  0  0  0
 13 14  1  0  0  0
 13 31  1  0  0  0
 14 15  2  0  0  0
 14 96  1  0  0  0
 15 97  1  0  0  0
 16 17  2  0  0  0
 16 21  1  0  0  0
 16 31  1  0  0  0
 17 18  1  0  0  0
 17 98  1  0  0  0
 18 19  2  0  0  0
 18 99  1  0  0  0
 19 20  1  0  0  0
 19 24  1  0  0  0
 20 21  2  0  0  0
 20100  1  0  0  0
 21 23  1  0  0  0
 22 28  1  0  0  0
 22 32  2  0  0  0
 26 27  1  0  0  0
 28101  1  0  0  0
 28102  1  0  0  0
 29103  1  0  0  0
 29104  1  0  0  0
 33 34  1  0  0  0
 33 66  1  0  0  0
 33 70  2  0  0  0
 34 36  1  0  0  0
 34 59  1  0  0  0
 34105  1  0  0  0
 35 44  2  0  0  0
 35 45  1  0  0  0
 35 68  1  0  0  0
 36 56  1  0  0  0
 36106  1  0  0  0
 37 39  1  0  0  0
 37 47  1  0  0  0
 37 66  1  0  0  0
 37107  1  0  0  0
 38 43  2  0  0  0
 38 46  1  0  0  0
 38 47  1  0  0  0
 39 64  1  0  0  0
 39 67  2  0  0  0
 40 52  1  0  0  0
 40 53  2  0  0  0
 40 58  1  0  0  0
 41108  1  0  0  0
 41109  1  0  0  0
 41110  1  0  0  0
 41 48  1  0  0  0
 42 43  1  0  0  0
 42 66  1  0  0  0
 42111  1  0  0  0
 42112  1  0  0  0
 43 44  1  0  0  0
 44113  1  0  0  0
 45 46  2  0  0  0
 45114  1  0  0  0
 46115  1  0  0  0
 47116  1  0  0  0
 47117  1  0  0  0
 48 56  1  0  0  0
 48 65  1  0  0  0
 48118  1  0  0  0
 49 50  1  0  0  0
 49 53  1  0  0  0
 49 64  1  0  0  0
 49119  1  0  0  0
 50 51  1  0  0  0
 50120  1  0  0  0
 50121  1  0  0  0
 51 52  1  0  0  0
 51122  1  0  0  0
 51123  1  0  0  0
 52124  1  0  0  0
 52125  1  0  0  0
 53 54  1  0  0  0
 54 55  2  0  0  0
 54126  1  0  0  0
 55 57  1  0  0  0
 55127  1  0  0  0
 56 69  2  0  0  0
 57 58  2  0  0  0
 57128  1  0  0  0
 58129  1  0  0  0
 59 60  1  0  0  0
 59 61  1  0  0  0
 59 62  1  0  0  0
 60130  1  0  0  0
 60131  1  0  0  0
 60132  1  0  0  0
 61133  1  0  0  0
 61134  1  0  0  0
 61135  1  0  0  0
 62136  1  0  0  0
 62137  1  0  0  0
 62138  1  0  0  0
 63 65  1  0  0  0
 63139  1  0  0  0
 63140  1  0  0  0
 63141  1  0  0  0
 64142  1  0  0  0
 65143  1  0  0  0
 68 79  1  0  0  0
 71 73  2  0  0  0
 71 81  1  0  0  0
 71144  1  0  0  0
 72 73  1  0  0  0
 72 82  2  0  0  0
 72145  1  0  0  0
 73 76  1  0  0  0
 74 80  1  0  0  0
 74 81  2  0  0  0
 74 82  1  0  0  0
 75146  1  0  0  0
 75147  1  0  0  0
 75148  1  0  0  0
 75 80  1  0  0  0
 76 77  1  0  0  0
 76149  1  0  0  0
 76150  1  0  0  0
 77 79  1  0  0  0
 77151  1  0  0  0
 77152  1  0  0  0
 78 80  1  0  0  0
 78 83  1  0  0  0
 78153  1  0  0  0
 78154  1  0  0  0
 79155  1  0  0  0
 79156  1  0  0  0
 80 84  1  0  0  0
 83157  1  0  0  0
M  ISO  4   1 100  68 101  79 101  83 100
M  END
> <chiral flag>
0

> <version>
0

> <s_m_source_file>
/data/baiqing/PycharmProjects/Reinvent-master-3.2/result/LINK_invent/BTK/process_docking_weight1_custom_sum_contain_oxygen_bond_distance_aromatic_linkinvent_7_9_3/rearranged_h_0068.sdf

> <i_m_source_file_index>
30

> <r_mmod_Potential_Energy-OPLS-2005>
-409.136779785156

> <r_mmod_Stretch_Energy-OPLS-2005>
40.8488121032715

> <r_mmod_Bend_Energy-OPLS-2005>
109.42333984375

> <r_mmod_Torsional_Energy-OPLS-2005>
205.077011108398

> <r_mmod_Improper_Torsional_Energy-OPLS-2005>
6.10353136062622

> <r_mmod_Van_der_Waal_Energy-OPLS-2005>
169.446182250977

> <r_mmod_Electrostatic_Energy-OPLS-2005>
-722.069213867188

> <r_mmod_Solvation_Energy-OPLS-2005>
-233.102554321289

> <b_mmod_Minimization_Converged-OPLS-2005>
0

> <r_mmod_RMS_Derivative-OPLS-2005>
4.55606555938721

$$$$
31
                    3D
 Structure written by MMmdl.
191199  0  0  1  0            999 V2000
  -30.7221  -14.5482   20.5494 C   0  0  0  0  0  0
  -30.4367  -12.3513   19.4397 C   0  0  0  0  0  0
  -29.5004  -12.5251   18.2218 C   0  0  0  0  0  0
  -28.0167  -12.3717   18.6232 C   0  0  0  0  0  0
  -27.6493  -13.1803   19.8952 C   0  0  2  0  0  0
  -28.7207  -12.9790   20.9969 C   0  0  0  0  0  0
  -25.2544  -13.8035   20.5782 C   0  0  0  0  0  0
  -24.1810  -13.0356   20.9288 C   0  0  0  0  0  0
  -24.6351  -11.6816   20.8829 C   0  0  0  0  0  0
  -23.9035  -10.4240   21.0423 C   0  0  0  0  0  0
  -24.3620   -9.4143   21.9162 C   0  0  0  0  0  0
  -23.6305   -8.2188   22.0713 C   0  0  0  0  0  0
  -22.4275   -8.0248   21.3533 C   0  0  0  0  0  0
  -21.9896   -9.0226   20.4650 C   0  0  0  0  0  0
  -22.7216  -10.2103   20.3072 C   0  0  0  0  0  0
  -21.6840   -6.0761   22.5303 C   0  0  0  0  0  0
  -21.4009   -6.5685   23.8229 C   0  0  0  0  0  0
  -21.3597   -5.6825   24.9183 C   0  0  0  0  0  0
  -21.5997   -4.3088   24.7240 C   0  0  0  0  0  0
  -21.8832   -3.8182   23.4363 C   0  0  0  0  0  0
  -21.9198   -4.6987   22.3414 C   0  0  0  0  0  0
  -22.7827  -13.5125   21.1918 C   0  0  0  0  0  0
  -22.1718   -4.2184   21.0994 F   0  0  0  0  0  0
  -21.5561   -3.4557   25.7744 F   0  0  0  0  0  0
  -30.0406  -13.3553   20.4543 N   0  0  0  0  0  0
  -26.2975  -12.9121   20.3569 N   0  0  0  0  0  0
  -25.9269  -11.6311   20.5888 N   0  0  0  0  0  0
  -22.0433  -12.8113   22.0429 N   0  0  0  0  0  0
  -25.4240  -15.1774   20.4138 N   0  0  0  0  0  0
  -31.8793  -14.6221   20.1324 O   0  0  0  0  0  0
  -21.6628   -6.8864   21.4243 O   0  0  0  0  0  0
  -22.3526  -14.5429   20.6728 O   0  0  0  0  0  0
  -24.6163  -31.8651   23.2068 C   0  0  0  0  0  0
  -25.9039  -32.4807   23.8385 C   0  0  1  0  0  0
  -27.2460  -27.4166   20.1181 C   0  0  0  0  0  0
  -25.5894  -33.8605   24.2321 N   0  0  0  0  0  0
  -23.4077  -30.4849   21.5472 C   0  0  2  0  0  0
  -24.8603  -28.9492   20.1168 C   0  0  0  0  0  0
  -22.7422  -29.4644   22.4983 C   0  0  0  0  0  0
  -18.0272  -28.1374   22.8491 C   0  0  0  0  0  0
  -24.1484  -36.7299   23.2639 C   0  0  0  0  0  0
  -25.9367  -30.8306   21.3594 C   0  0  0  0  0  0
  -26.0206  -29.4625   20.7093 C   0  0  0  0  0  0
  -27.2195  -28.7070   20.7009 C   0  0  0  0  0  0
  -26.0707  -26.9277   19.5045 C   0  0  0  0  0  0
  -24.8798  -27.6817   19.5102 C   0  0  0  0  0  0
  -23.6191  -29.8125   20.1639 C   0  0  0  0  0  0
  -25.4099  -36.3107   24.0348 C   0  0  1  0  0  0
  -20.5866  -28.3672   23.1303 C   0  0  2  0  0  0
  -20.6769  -26.9405   22.5410 C   0  0  0  0  0  0
  -19.5752  -26.6386   21.5209 C   0  0  0  0  0  0
  -18.1924  -26.7918   22.1611 C   0  0  0  0  0  0
  -19.1522  -28.8845   23.2887 C   0  0  0  0  0  0
  -18.9449  -30.1451   23.8902 C   0  0  0  0  0  0
  -17.6452  -30.6583   24.0566 C   0  0  0  0  0  0
  -25.9036  -34.9476   23.5132 C   0  0  0  0  0  0
  -16.5345  -29.9082   23.6337 C   0  0  0  0  0  0
  -16.7262  -28.6499   23.0360 C   0  0  0  0  0  0
  -26.4466  -31.6585   25.0706 C   0  0  0  0  0  0
  -25.3728  -31.3671   26.1449 C   0  0  0  0  0  0
  -27.0303  -30.3042   24.6063 C   0  0  0  0  0  0
  -27.6041  -32.4301   25.7467 C   0  0  0  0  0  0
  -27.5591  -37.1780   24.8452 C   0  0  0  0  0  0
  -21.4150  -29.3029   22.3708 N   0  0  0  0  0  0
  -26.4278  -37.3800   23.9441 N   0  0  0  0  0  0
  -24.6718  -31.0745   22.0970 N   0  0  0  0  0  0
  -23.4187  -28.8203   23.3044 O   0  0  0  0  0  0
  -28.3973  -26.6464   20.1412 O   0  0  0  0  0  0
  -26.5607  -34.8927   22.4696 O   0  0  0  0  0  0
  -23.5344  -32.1414   23.7443 O   0  0  0  0  0  0
  -32.4998  -18.5830   22.0822 C   0  0  0  0  0  0
  -31.9425  -19.1450   20.9633 C   0  0  0  0  0  0
  -31.0656  -17.0691   21.2739 C   0  0  0  0  0  0
  -31.2391  -23.5261   23.7335 C   0  0  0  0  0  0
  -33.5512  -21.0299   20.5126 C   0  0  0  0  0  0
  -32.2066  -20.0847   18.7003 C   0  0  0  0  0  0
  -29.4182  -16.3835   19.5265 C   0  0  0  0  0  0
  -28.9492  -15.9433   21.9627 C   0  0  0  0  0  0
  -29.8470  -20.9048   22.5303 C   0  0  0  0  0  0
  -33.6713  -16.8595   24.0604 C   0  0  0  0  0  0
  -32.2376  -14.9819   23.3533 C   0  0  0  0  0  0
  -31.2516  -16.8776   24.6503 C   0  0  0  0  0  0
  -31.6153  -22.7196   22.4877 C   0  0  0  0  0  0
  -29.4824  -24.4106   20.6820 C   0  0  0  0  0  0
  -29.2649  -23.0802   21.4699 C   0  0  0  0  0  0
  -30.9823  -21.5068   20.3340 C   0  0  0  0  0  0
  -28.2469  -25.3574   20.7805 C   0  0  0  0  0  0
  -32.1516  -20.4475   20.2000 C   0  0  0  0  0  0
  -30.0552  -15.9451   20.8890 C   0  0  0  0  0  0
  -30.4525  -22.0656   21.6988 C   0  0  2  0  0  0
  -32.2524  -16.5125   23.5359 C   0  0  0  0  0  0
  -31.9540  -17.3176   22.2898 N   0  0  0  0  0  0
  -31.0602  -18.2008   20.5457 N   0  3  0  0  0  0
  -31.4750  -12.4480   19.1190 H   0  0  0  0  0  0
  -30.3618  -11.3400   19.8413 H   0  0  0  0  0  0
  -29.7560  -11.8047   17.4432 H   0  0  0  0  0  0
  -29.6551  -13.5095   17.7804 H   0  0  0  0  0  0
  -27.8224  -11.3145   18.8036 H   0  0  0  0  0  0
  -27.3732  -12.6606   17.7911 H   0  0  0  0  0  0
  -27.6268  -14.2138   19.6123 H   0  0  0  0  0  0
  -28.7473  -11.9271   21.2824 H   0  0  0  0  0  0
  -28.4674  -13.4752   21.9263 H   0  0  0  0  0  0
  -25.2756   -9.5594   22.4734 H   0  0  0  0  0  0
  -23.9971   -7.4539   22.7439 H   0  0  0  0  0  0
  -21.0832   -8.8753   19.8952 H   0  0  0  0  0  0
  -22.3688  -10.9650   19.6180 H   0  0  0  0  0  0
  -21.2062   -7.6202   23.9756 H   0  0  0  0  0  0
  -21.1345   -6.0546   25.9075 H   0  0  0  0  0  0
  -22.0669   -2.7661   23.2853 H   0  0  0  0  0  0
  -22.4102  -11.9906   22.5035 H   0  0  0  0  0  0
  -21.0952  -13.0988   22.2397 H   0  0  0  0  0  0
  -24.6573  -15.8322   20.5310 H   0  0  0  0  0  0
  -26.2762  -15.6186   20.0953 H   0  0  0  0  0  0
  -26.7112  -32.5551   23.1156 H   0  0  0  0  0  0
  -25.0039  -33.9765   25.0474 H   0  0  0  0  0  0
  -22.6979  -31.3004   21.4005 H   0  0  0  0  0  0
  -23.3770  -35.9603   23.3254 H   0  0  0  0  0  0
  -24.3590  -36.8961   22.2060 H   0  0  0  0  0  0
  -23.7188  -37.6472   23.6677 H   0  0  0  0  0  0
  -26.0438  -31.5940   20.5869 H   0  0  0  0  0  0
  -26.8255  -30.8904   21.9753 H   0  0  0  0  0  0
  -28.1167  -29.1002   21.1613 H   0  0  0  0  0  0
  -26.0682  -25.9612   19.0190 H   0  0  0  0  0  0
  -23.9903  -27.2777   19.0479 H   0  0  0  0  0  0
  -23.7285  -30.5820   19.3982 H   0  0  0  0  0  0
  -22.7464  -29.2251   19.8720 H   0  0  0  0  0  0
  -25.1261  -36.1962   25.0836 H   0  0  0  0  0  0
  -20.9946  -28.3240   24.1431 H   0  0  0  0  0  0
  -20.5668  -26.2283   23.3597 H   0  0  0  0  0  0
  -21.6642  -26.7431   22.1217 H   0  0  0  0  0  0
  -19.6906  -25.6297   21.1246 H   0  0  0  0  0  0
  -19.6682  -27.3197   20.6741 H   0  0  0  0  0  0
  -17.4184  -26.6665   21.4012 H   0  0  0  0  0  0
  -18.0309  -26.0056   22.9000 H   0  0  0  0  0  0
  -19.7937  -30.7259   24.2271 H   0  0  0  0  0  0
  -17.5017  -31.6265   24.5155 H   0  0  0  0  0  0
  -15.5352  -30.2991   23.7653 H   0  0  0  0  0  0
  -15.8661  -28.0820   22.7080 H   0  0  0  0  0  0
  -24.5913  -30.7001   25.7778 H   0  0  0  0  0  0
  -24.8897  -32.2814   26.4914 H   0  0  0  0  0  0
  -25.8086  -30.8831   27.0201 H   0  0  0  0  0  0
  -26.2838  -29.6786   24.1146 H   0  0  0  0  0  0
  -27.4133  -29.7282   25.4500 H   0  0  0  0  0  0
  -27.8649  -30.4383   23.9170 H   0  0  0  0  0  0
  -27.2674  -33.3608   26.2052 H   0  0  0  0  0  0
  -28.3848  -32.6845   25.0279 H   0  0  0  0  0  0
  -28.0714  -31.8412   26.5375 H   0  0  0  0  0  0
  -28.2546  -38.0148   24.7629 H   0  0  0  0  0  0
  -28.1159  -36.2686   24.6119 H   0  0  0  0  0  0
  -27.2334  -37.1239   25.8860 H   0  0  0  0  0  0
  -20.9321  -29.8734   21.6904 H   0  0  0  0  0  0
  -26.0166  -38.2863   24.1516 H   0  0  0  0  0  0
  -33.2326  -19.0274   22.7379 H   0  0  0  0  0  0
  -32.1391  -23.7883   24.2905 H   0  0  0  0  0  0
  -30.5926  -22.9561   24.3980 H   0  0  0  0  0  0
  -30.7390  -24.4576   23.4719 H   0  0  0  0  0  0
  -34.3337  -20.3219   20.2329 H   0  0  0  0  0  0
  -33.7385  -21.2529   21.5579 H   0  0  0  0  0  0
  -33.7332  -21.9429   19.9435 H   0  0  0  0  0  0
  -32.9606  -19.3254   18.4942 H   0  0  0  0  0  0
  -32.4416  -20.9536   18.0870 H   0  0  0  0  0  0
  -31.2537  -19.7025   18.3365 H   0  0  0  0  0  0
  -30.1801  -16.6055   18.7777 H   0  0  0  0  0  0
  -28.7805  -17.2601   19.6378 H   0  0  0  0  0  0
  -28.8155  -15.6423   19.0332 H   0  0  0  0  0  0
  -28.0055  -15.5513   21.5881 H   0  0  0  0  0  0
  -28.7378  -16.9619   22.2953 H   0  0  0  0  0  0
  -29.2226  -15.3781   22.8471 H   0  0  0  0  0  0
  -29.2225  -21.2646   23.3492 H   0  0  0  0  0  0
  -30.6080  -20.2792   22.9911 H   0  0  0  0  0  0
  -29.2164  -20.2603   21.9160 H   0  0  0  0  0  0
  -33.9943  -16.1918   24.8620 H   0  0  0  0  0  0
  -33.7247  -17.8652   24.4775 H   0  0  0  0  0  0
  -34.4073  -16.7925   23.2568 H   0  0  0  0  0  0
  -32.5751  -14.4758   24.2599 H   0  0  0  0  0  0
  -32.9094  -14.6579   22.5587 H   0  0  0  0  0  0
  -31.2404  -14.5900   23.1838 H   0  0  0  0  0  0
  -31.3680  -16.2312   25.5206 H   0  0  0  0  0  0
  -30.2191  -16.7742   24.3238 H   0  0  0  0  0  0
  -31.3842  -17.9057   24.9962 H   0  0  0  0  0  0
  -32.2779  -21.9360   22.8472 H   0  0  0  0  0  0
  -32.2113  -23.3506   21.8250 H   0  0  0  0  0  0
  -29.6677  -24.1838   19.6317 H   0  0  0  0  0  0
  -30.3623  -24.9361   21.0511 H   0  0  0  0  0  0
  -28.4382  -22.5478   20.9936 H   0  0  0  0  0  0
  -28.8770  -23.3597   22.4496 H   0  0  0  0  0  0
  -30.1117  -21.1033   19.8139 H   0  0  0  0  0  0
  -31.2850  -22.3689   19.7395 H   0  0  0  0  0  0
  -28.0246  -25.5416   21.8346 H   0  0  0  0  0  0
  -27.3864  -24.8198   20.3823 H   0  0  0  0  0  0
  -30.4673  -18.3157   19.7328 H   0  0  0  0  0  0
  1 25  1  0  0  0
  1 30  2  0  0  0
  1 89  1  0  0  0
  2  3  1  0  0  0
  2 25  1  0  0  0
  2 94  1  0  0  0
  2 95  1  0  0  0
  3  4  1  0  0  0
  3 96  1  0  0  0
  3 97  1  0  0  0
  4  5  1  0  0  0
  4 98  1  0  0  0
  4 99  1  0  0  0
  5  6  1  0  0  0
  5 26  1  0  0  0
  5100  1  0  0  0
  6 25  1  0  0  0
  6101  1  0  0  0
  6102  1  0  0  0
  7  8  2  0  0  0
  7 26  1  0  0  0
  7 29  1  0  0  0
  8  9  1  0  0  0
  8 22  1  0  0  0
  9 10  1  0  0  0
  9 27  2  0  0  0
 10 11  2  0  0  0
 10 15  1  0  0  0
 11 12  1  0  0  0
 11103  1  0  0  0
 12 13  2  0  0  0
 12104  1  0  0  0
 13 14  1  0  0  0
 13 31  1  0  0  0
 14 15  2  0  0  0
 14105  1  0  0  0
 15106  1  0  0  0
 16 17  2  0  0  0
 16 21  1  0  0  0
 16 31  1  0  0  0
 17 18  1  0  0  0
 17107  1  0  0  0
 18 19  2  0  0  0
 18108  1  0  0  0
 19 20  1  0  0  0
 19 24  1  0  0  0
 20 21  2  0  0  0
 20109  1  0  0  0
 21 23  1  0  0  0
 22 28  1  0  0  0
 22 32  2  0  0  0
 26 27  1  0  0  0
 28110  1  0  0  0
 28111  1  0  0  0
 29112  1  0  0  0
 29113  1  0  0  0
 33 34  1  0  0  0
 33 66  1  0  0  0
 33 70  2  0  0  0
 34 36  1  0  0  0
 34 59  1  0  0  0
 34114  1  0  0  0
 35 44  2  0  0  0
 35 45  1  0  0  0
 35 68  1  0  0  0
 36 56  1  0  0  0
 36115  1  0  0  0
 37 39  1  0  0  0
 37 47  1  0  0  0
 37 66  1  0  0  0
 37116  1  0  0  0
 38 43  2  0  0  0
 38 46  1  0  0  0
 38 47  1  0  0  0
 39 64  1  0  0  0
 39 67  2  0  0  0
 40 52  1  0  0  0
 40 53  2  0  0  0
 40 58  1  0  0  0
 41117  1  0  0  0
 41118  1  0  0  0
 41119  1  0  0  0
 41 48  1  0  0  0
 42 43  1  0  0  0
 42 66  1  0  0  0
 42120  1  0  0  0
 42121  1  0  0  0
 43 44  1  0  0  0
 44122  1  0  0  0
 45 46  2  0  0  0
 45123  1  0  0  0
 46124  1  0  0  0
 47125  1  0  0  0
 47126  1  0  0  0
 48 56  1  0  0  0
 48 65  1  0  0  0
 48127  1  0  0  0
 49 50  1  0  0  0
 49 53  1  0  0  0
 49 64  1  0  0  0
 49128  1  0  0  0
 50 51  1  0  0  0
 50129  1  0  0  0
 50130  1  0  0  0
 51 52  1  0  0  0
 51131  1  0  0  0
 51132  1  0  0  0
 52133  1  0  0  0
 52134  1  0  0  0
 53 54  1  0  0  0
 54 55  2  0  0  0
 54135  1  0  0  0
 55 57  1  0  0  0
 55136  1  0  0  0
 56 69  2  0  0  0
 57 58  2  0  0  0
 57137  1  0  0  0
 58138  1  0  0  0
 59 60  1  0  0  0
 59 61  1  0  0  0
 59 62  1  0  0  0
 60139  1  0  0  0
 60140  1  0  0  0
 60141  1  0  0  0
 61142  1  0  0  0
 61143  1  0  0  0
 61144  1  0  0  0
 62145  1  0  0  0
 62146  1  0  0  0
 62147  1  0  0  0
 63 65  1  0  0  0
 63148  1  0  0  0
 63149  1  0  0  0
 63150  1  0  0  0
 64151  1  0  0  0
 65152  1  0  0  0
 68 87  1  0  0  0
 71 72  2  0  0  0
 71 92  1  0  0  0
 71153  1  0  0  0
 72 88  1  0  0  0
 72 93  1  0  0  0
 73 89  1  0  0  0
 73 92  1  0  0  0
 73 93  2  0  0  0
 74 83  1  0  0  0
 74154  1  0  0  0
 74155  1  0  0  0
 74156  1  0  0  0
 75157  1  0  0  0
 75158  1  0  0  0
 75159  1  0  0  0
 75 88  1  0  0  0
 76 88  1  0  0  0
 76160  1  0  0  0
 76161  1  0  0  0
 76162  1  0  0  0
 77163  1  0  0  0
 77164  1  0  0  0
 77165  1  0  0  0
 77 89  1  0  0  0
 78 89  1  0  0  0
 78166  1  0  0  0
 78167  1  0  0  0
 78168  1  0  0  0
 79169  1  0  0  0
 79170  1  0  0  0
 79171  1  0  0  0
 79 90  1  0  0  0
 80172  1  0  0  0
 80173  1  0  0  0
 80174  1  0  0  0
 80 91  1  0  0  0
 81 91  1  0  0  0
 81175  1  0  0  0
 81176  1  0  0  0
 81177  1  0  0  0
 82 91  1  0  0  0
 82178  1  0  0  0
 82179  1  0  0  0
 82180  1  0  0  0
 83 90  1  0  0  0
 83181  1  0  0  0
 83182  1  0  0  0
 84 85  1  0  0  0
 84 87  1  0  0  0
 84183  1  0  0  0
 84184  1  0  0  0
 85 90  1  0  0  0
 85185  1  0  0  0
 85186  1  0  0  0
 86 88  1  0  0  0
 86 90  1  0  0  0
 86187  1  0  0  0
 86188  1  0  0  0
 87189  1  0  0  0
 87190  1  0  0  0
 91 92  1  0  0  0
 93191  1  0  0  0
M  CHG  1  93   1
M  ISO  4   1 100  68 101  87 101  89 100
M  END
> <chiral flag>
0

> <version>
0

> <s_m_source_file>
/data/baiqing/PycharmProjects/Reinvent-master-3.2/result/LINK_invent/BTK/process_docking_weight1_custom_sum_contain_oxygen_bond_distance_aromatic_linkinvent_7_9_3/rearranged_h_0068.sdf

> <i_m_source_file_index>
31

> <r_mmod_Potential_Energy-OPLS-2005>
200.051040649414

> <r_mmod_Stretch_Energy-OPLS-2005>
72.1291198730469

> <r_mmod_Bend_Energy-OPLS-2005>
204.923461914062

> <r_mmod_Torsional_Energy-OPLS-2005>
305.756774902344

> <r_mmod_Improper_Torsional_Energy-OPLS-2005>
6.88091373443604

> <r_mmod_Van_der_Waal_Energy-OPLS-2005>
158.390762329102

> <r_mmod_Electrostatic_Energy-OPLS-2005>
-224.652725219727

> <r_mmod_Solvation_Energy-OPLS-2005>
-344.571319580078

> <b_mmod_Minimization_Converged-OPLS-2005>
0

> <r_mmod_RMS_Derivative-OPLS-2005>
5.43042755126953

$$$$
32
                    3D
 Structure written by MMmdl.
194202  0  0  1  0            999 V2000
  -30.8212  -14.2314   20.7886 C   0  0  0  0  0  0
  -30.4206  -12.2768   19.3423 C   0  0  0  0  0  0
  -29.4700  -12.5813   18.1722 C   0  0  0  0  0  0
  -27.9992  -12.4161   18.5977 C   0  0  0  0  0  0
  -27.6784  -13.1877   19.9023 C   0  0  2  0  0  0
  -28.7225  -12.8345   20.9888 C   0  0  0  0  0  0
  -25.2653  -13.8141   20.5719 C   0  0  0  0  0  0
  -24.1881  -13.0427   20.9151 C   0  0  0  0  0  0
  -24.6407  -11.6874   20.8743 C   0  0  0  0  0  0
  -23.9070  -10.4285   21.0406 C   0  0  0  0  0  0
  -24.3618   -9.4182   21.9190 C   0  0  0  0  0  0
  -23.6278   -8.2223   22.0761 C   0  0  0  0  0  0
  -22.4256   -8.0280   21.3551 C   0  0  0  0  0  0
  -21.9905   -9.0252   20.4656 C   0  0  0  0  0  0
  -22.7246  -10.2126   20.3051 C   0  0  0  0  0  0
  -21.6842   -6.0724   22.5278 C   0  0  0  0  0  0
  -21.4015   -6.5630   23.8209 C   0  0  0  0  0  0
  -21.3663   -5.6789   24.9177 C   0  0  0  0  0  0
  -21.6043   -4.3047   24.7228 C   0  0  0  0  0  0
  -21.8820   -3.8133   23.4352 C   0  0  0  0  0  0
  -21.9188   -4.6958   22.3394 C   0  0  0  0  0  0
  -22.7915  -13.5228   21.1839 C   0  0  0  0  0  0
  -22.1652   -4.2139   21.0981 F   0  0  0  0  0  0
  -21.5637   -3.4530   25.7744 F   0  0  0  0  0  0
  -30.0673  -13.1506   20.4704 N   0  0  0  0  0  0
  -26.3111  -12.9281   20.3492 N   0  0  0  0  0  0
  -25.9335  -11.6452   20.5803 N   0  0  0  0  0  0
  -22.0538  -12.8215   22.0392 N   0  0  0  0  0  0
  -25.4359  -15.1861   20.4178 N   0  0  0  0  0  0
  -31.7921  -14.5997   20.1178 O   0  0  0  0  0  0
  -21.6631   -6.8868   21.4236 O   0  0  0  0  0  0
  -22.3575  -14.5531   20.6704 O   0  0  0  0  0  0
  -24.6148  -31.8757   23.2288 C   0  0  0  0  0  0
  -25.9055  -32.4900   23.8552 C   0  0  1  0  0  0
  -27.2337  -27.5082   20.0243 C   0  0  0  0  0  0
  -25.5970  -33.8732   24.2487 N   0  0  0  0  0  0
  -23.3953  -30.5170   21.5625 C   0  0  2  0  0  0
  -24.8375  -28.9942   20.1341 C   0  0  0  0  0  0
  -22.7441  -29.4774   22.5032 C   0  0  0  0  0  0
  -18.0273  -28.1406   22.8461 C   0  0  0  0  0  0
  -24.1483  -36.7406   23.2594 C   0  0  0  0  0  0
  -25.9243  -30.8633   21.3681 C   0  0  0  0  0  0
  -26.0049  -29.5015   20.7175 C   0  0  0  0  0  0
  -27.2078  -28.7562   20.6776 C   0  0  0  0  0  0
  -26.0227  -27.0026   19.5016 C   0  0  0  0  0  0
  -24.8306  -27.7298   19.5416 C   0  0  0  0  0  0
  -23.6020  -29.8623   20.1736 C   0  0  0  0  0  0
  -25.4048  -36.3196   24.0370 C   0  0  1  0  0  0
  -20.5868  -28.3817   23.1267 C   0  0  2  0  0  0
  -20.6771  -26.9540   22.5414 C   0  0  0  0  0  0
  -19.5791  -26.6447   21.5190 C   0  0  0  0  0  0
  -18.1941  -26.7980   22.1527 C   0  0  0  0  0  0
  -19.1516  -28.8897   23.2854 C   0  0  0  0  0  0
  -18.9431  -30.1482   23.8971 C   0  0  0  0  0  0
  -17.6425  -30.6605   24.0610 C   0  0  0  0  0  0
  -25.8976  -34.9542   23.5173 C   0  0  0  0  0  0
  -16.5341  -29.9116   23.6318 C   0  0  0  0  0  0
  -16.7260  -28.6503   23.0364 C   0  0  0  0  0  0
  -26.4457  -31.6622   25.0839 C   0  0  0  0  0  0
  -25.3685  -31.3653   26.1541 C   0  0  0  0  0  0
  -27.0316  -30.3115   24.6120 C   0  0  0  0  0  0
  -27.6130  -32.4274   25.7529 C   0  0  0  0  0  0
  -27.5579  -37.1808   24.8453 C   0  0  0  0  0  0
  -21.4166  -29.3192   22.3726 N   0  0  0  0  0  0
  -26.4274  -37.3821   23.9433 N   0  0  0  0  0  0
  -24.6658  -31.0902   22.1194 N   0  0  0  0  0  0
  -23.4203  -28.8206   23.2988 O   0  0  0  0  0  0
  -28.4291  -26.8288   19.8986 O   0  0  0  0  0  0
  -26.5446  -34.8938   22.4689 O   0  0  0  0  0  0
  -23.5319  -32.1510   23.7667 O   0  0  0  0  0  0
  -29.5206  -17.8886   19.0805 C   0  0  0  0  0  0
  -28.8065  -18.7791   18.2621 C   0  0  0  0  0  0
  -27.7086  -19.4716   18.8327 C   0  0  0  0  0  0
  -29.1050  -17.7325   20.4125 C   0  0  0  0  0  0
  -27.2731  -19.0935   20.1308 C   0  0  0  0  0  0
  -29.3121  -19.0549   16.8541 C   0  0  0  0  0  0
  -25.4778  -21.6012   22.4467 C   0  0  0  0  0  0
  -33.4095  -14.2228   24.5708 C   0  0  0  0  0  0
  -27.6835  -24.4137   20.8230 C   0  0  0  0  0  0
  -28.7380  -15.8974   23.3580 C   0  0  0  0  0  0
  -28.2244  -23.4770   16.9712 C   0  0  0  0  0  0
  -26.0585  -23.6407   18.2216 C   0  0  0  0  0  0
  -27.1789  -20.7353   18.1619 C   0  0  0  0  0  0
  -30.0103  -17.1234   21.4476 C   0  0  0  0  0  0
  -26.0889  -19.7064   20.8626 C   0  0  0  0  0  0
  -26.5156  -20.5327   22.0913 C   0  0  0  0  0  0
  -32.3463  -13.8392   23.5314 C   0  0  0  0  0  0
  -27.7799  -21.9430   18.9176 C   0  0  0  0  0  0
  -31.6693  -15.0848   22.9339 C   0  0  0  0  0  0
  -28.5191  -25.8258   18.8688 C   0  0  0  0  0  0
  -28.2803  -24.3782   19.3884 C   0  0  2  0  0  0
  -29.4819  -15.7875   22.0066 C   0  0  1  0  0  0
  -27.5756  -23.3800   18.3736 C   0  0  0  0  0  0
  -27.9579  -18.2287   20.8894 N   0  0  0  0  0  0
  -30.5580  -14.7773   22.0062 N   0  0  0  0  0  0
  -31.4561  -12.4024   19.0215 H   0  0  0  0  0  0
  -30.3317  -11.2315   19.6388 H   0  0  0  0  0  0
  -29.6889  -11.9341   17.3214 H   0  0  0  0  0  0
  -29.6340  -13.6049   17.8283 H   0  0  0  0  0  0
  -27.8026  -11.3531   18.7377 H   0  0  0  0  0  0
  -27.3356  -12.7463   17.7966 H   0  0  0  0  0  0
  -27.7567  -14.2509   19.6764 H   0  0  0  0  0  0
  -28.6758  -11.7661   21.2043 H   0  0  0  0  0  0
  -28.4854  -13.3114   21.9373 H   0  0  0  0  0  0
  -25.2754   -9.5649   22.4763 H   0  0  0  0  0  0
  -23.9985   -7.4612   22.7475 H   0  0  0  0  0  0
  -21.0832   -8.8784   19.8953 H   0  0  0  0  0  0
  -22.3718  -10.9670   19.6162 H   0  0  0  0  0  0
  -21.2002   -7.6133   23.9712 H   0  0  0  0  0  0
  -21.1492   -6.0515   25.9081 H   0  0  0  0  0  0
  -22.0592   -2.7597   23.2854 H   0  0  0  0  0  0
  -22.4144  -11.9858   22.4748 H   0  0  0  0  0  0
  -21.1164  -13.1260   22.2646 H   0  0  0  0  0  0
  -24.6719  -15.8366   20.5533 H   0  0  0  0  0  0
  -26.3104  -15.6457   20.1899 H   0  0  0  0  0  0
  -26.7188  -32.5509   23.1369 H   0  0  0  0  0  0
  -25.0443  -33.9926   25.0847 H   0  0  0  0  0  0
  -22.6848  -31.3355   21.4210 H   0  0  0  0  0  0
  -23.3727  -35.9748   23.3216 H   0  0  0  0  0  0
  -24.3613  -36.9021   22.2017 H   0  0  0  0  0  0
  -23.7276  -37.6634   23.6598 H   0  0  0  0  0  0
  -25.9932  -31.6378   20.6013 H   0  0  0  0  0  0
  -26.8374  -30.9404   21.9458 H   0  0  0  0  0  0
  -28.1193  -29.1501   21.1116 H   0  0  0  0  0  0
  -25.9635  -26.0336   19.0651 H   0  0  0  0  0  0
  -23.9264  -27.3165   19.1179 H   0  0  0  0  0  0
  -23.7280  -30.6432   19.4236 H   0  0  0  0  0  0
  -22.7231  -29.3000   19.8509 H   0  0  0  0  0  0
  -25.1177  -36.2089   25.0869 H   0  0  0  0  0  0
  -20.9911  -28.3410   24.1398 H   0  0  0  0  0  0
  -20.5624  -26.2464   23.3636 H   0  0  0  0  0  0
  -21.6650  -26.7549   22.1266 H   0  0  0  0  0  0
  -19.6988  -25.6340   21.1297 H   0  0  0  0  0  0
  -19.6743  -27.3166   20.6662 H   0  0  0  0  0  0
  -17.4243  -26.6860   21.3880 H   0  0  0  0  0  0
  -18.0245  -26.0045   22.8838 H   0  0  0  0  0  0
  -19.7910  -30.7244   24.2435 H   0  0  0  0  0  0
  -17.5003  -31.6291   24.5268 H   0  0  0  0  0  0
  -15.5348  -30.3066   23.7623 H   0  0  0  0  0  0
  -15.8628  -28.0837   22.7111 H   0  0  0  0  0  0
  -24.6116  -30.6655   25.7972 H   0  0  0  0  0  0
  -24.8428  -32.2656   26.4720 H   0  0  0  0  0  0
  -25.7999  -30.9177   27.0472 H   0  0  0  0  0  0
  -26.2867  -29.6816   24.1240 H   0  0  0  0  0  0
  -27.4294  -29.7387   25.4482 H   0  0  0  0  0  0
  -27.8584  -30.4548   23.9172 H   0  0  0  0  0  0
  -27.2999  -33.3728   26.1947 H   0  0  0  0  0  0
  -28.4005  -32.6507   25.0333 H   0  0  0  0  0  0
  -28.0713  -31.8407   26.5475 H   0  0  0  0  0  0
  -28.2588  -38.0118   24.7536 H   0  0  0  0  0  0
  -28.1090  -36.2643   24.6240 H   0  0  0  0  0  0
  -27.2303  -37.1459   25.8857 H   0  0  0  0  0  0
  -20.9361  -29.9000   21.6992 H   0  0  0  0  0  0
  -26.0194  -38.2911   24.1425 H   0  0  0  0  0  0
  -30.4312  -17.4162   18.7278 H   0  0  0  0  0  0
  -30.0644  -18.3304   16.5466 H   0  0  0  0  0  0
  -29.7617  -20.0461   16.7885 H   0  0  0  0  0  0
  -28.4991  -19.0041   16.1287 H   0  0  0  0  0  0
  -25.8110  -22.2103   23.2861 H   0  0  0  0  0  0
  -24.5260  -21.1411   22.7139 H   0  0  0  0  0  0
  -25.3123  -22.2632   21.5959 H   0  0  0  0  0  0
  -33.8722  -13.3410   25.0157 H   0  0  0  0  0  0
  -32.9762  -14.8080   25.3833 H   0  0  0  0  0  0
  -34.2033  -14.8228   24.1234 H   0  0  0  0  0  0
  -28.3159  -25.0054   21.4902 H   0  0  0  0  0  0
  -27.5976  -23.4376   21.2923 H   0  0  0  0  0  0
  -26.6960  -24.8674   20.8472 H   0  0  0  0  0  0
  -27.8548  -16.5261   23.2452 H   0  0  0  0  0  0
  -29.3377  -16.3524   24.1452 H   0  0  0  0  0  0
  -28.3968  -14.9239   23.7086 H   0  0  0  0  0  0
  -27.8522  -22.7062   16.2975 H   0  0  0  0  0  0
  -29.3066  -23.3589   17.0094 H   0  0  0  0  0  0
  -28.0026  -24.4291   16.4868 H   0  0  0  0  0  0
  -25.5646  -22.8609   17.6449 H   0  0  0  0  0  0
  -25.8573  -24.5641   17.6782 H   0  0  0  0  0  0
  -25.5466  -23.6671   19.1858 H   0  0  0  0  0  0
  -26.0908  -20.7436   18.1655 H   0  0  0  0  0  0
  -27.4649  -20.7597   17.1135 H   0  0  0  0  0  0
  -30.1610  -17.8401   22.2552 H   0  0  0  0  0  0
  -30.9884  -17.0170   20.9769 H   0  0  0  0  0  0
  -25.4254  -18.9032   21.1850 H   0  0  0  0  0  0
  -25.4888  -20.3082   20.1890 H   0  0  0  0  0  0
  -26.7092  -19.8650   22.9322 H   0  0  0  0  0  0
  -27.4659  -21.0281   21.8971 H   0  0  0  0  0  0
  -31.6008  -13.2003   24.0055 H   0  0  0  0  0  0
  -32.8105  -13.2429   22.7467 H   0  0  0  0  0  0
  -28.8500  -21.7615   19.0432 H   0  0  0  0  0  0
  -27.3734  -21.8935   19.9163 H   0  0  0  0  0  0
  -32.4173  -15.6945   22.4257 H   0  0  0  0  0  0
  -31.3291  -15.6999   23.7640 H   0  0  0  0  0  0
  -27.8788  -26.0706   18.0227 H   0  0  0  0  0  0
  -29.5221  -25.8911   18.4407 H   0  0  0  0  0  0
  -29.2848  -23.9758   19.5445 H   0  0  0  0  0  0
  -28.7143  -15.4602   21.3064 H   0  0  0  0  0  0
  1 25  1  0  0  0
  1 30  2  0  0  0
  1 95  1  0  0  0
  2  3  1  0  0  0
  2 25  1  0  0  0
  2 96  1  0  0  0
  2 97  1  0  0  0
  3  4  1  0  0  0
  3 98  1  0  0  0
  3 99  1  0  0  0
  4  5  1  0  0  0
  4100  1  0  0  0
  4101  1  0  0  0
  5  6  1  0  0  0
  5 26  1  0  0  0
  5102  1  0  0  0
  6 25  1  0  0  0
  6103  1  0  0  0
  6104  1  0  0  0
  7  8  2  0  0  0
  7 26  1  0  0  0
  7 29  1  0  0  0
  8  9  1  0  0  0
  8 22  1  0  0  0
  9 10  1  0  0  0
  9 27  2  0  0  0
 10 11  2  0  0  0
 10 15  1  0  0  0
 11 12  1  0  0  0
 11105  1  0  0  0
 12 13  2  0  0  0
 12106  1  0  0  0
 13 14  1  0  0  0
 13 31  1  0  0  0
 14 15  2  0  0  0
 14107  1  0  0  0
 15108  1  0  0  0
 16 17  2  0  0  0
 16 21  1  0  0  0
 16 31  1  0  0  0
 17 18  1  0  0  0
 17109  1  0  0  0
 18 19  2  0  0  0
 18110  1  0  0  0
 19 20  1  0  0  0
 19 24  1  0  0  0
 20 21  2  0  0  0
 20111  1  0  0  0
 21 23  1  0  0  0
 22 28  1  0  0  0
 22 32  2  0  0  0
 26 27  1  0  0  0
 28112  1  0  0  0
 28113  1  0  0  0
 29114  1  0  0  0
 29115  1  0  0  0
 33 34  1  0  0  0
 33 66  1  0  0  0
 33 70  2  0  0  0
 34 36  1  0  0  0
 34 59  1  0  0  0
 34116  1  0  0  0
 35 44  2  0  0  0
 35 45  1  0  0  0
 35 68  1  0  0  0
 36 56  1  0  0  0
 36117  1  0  0  0
 37 39  1  0  0  0
 37 47  1  0  0  0
 37 66  1  0  0  0
 37118  1  0  0  0
 38 43  2  0  0  0
 38 46  1  0  0  0
 38 47  1  0  0  0
 39 64  1  0  0  0
 39 67  2  0  0  0
 40 52  1  0  0  0
 40 53  2  0  0  0
 40 58  1  0  0  0
 41119  1  0  0  0
 41120  1  0  0  0
 41121  1  0  0  0
 41 48  1  0  0  0
 42 43  1  0  0  0
 42 66  1  0  0  0
 42122  1  0  0  0
 42123  1  0  0  0
 43 44  1  0  0  0
 44124  1  0  0  0
 45 46  2  0  0  0
 45125  1  0  0  0
 46126  1  0  0  0
 47127  1  0  0  0
 47128  1  0  0  0
 48 56  1  0  0  0
 48 65  1  0  0  0
 48129  1  0  0  0
 49 50  1  0  0  0
 49 53  1  0  0  0
 49 64  1  0  0  0
 49130  1  0  0  0
 50 51  1  0  0  0
 50131  1  0  0  0
 50132  1  0  0  0
 51 52  1  0  0  0
 51133  1  0  0  0
 51134  1  0  0  0
 52135  1  0  0  0
 52136  1  0  0  0
 53 54  1  0  0  0
 54 55  2  0  0  0
 54137  1  0  0  0
 55 57  1  0  0  0
 55138  1  0  0  0
 56 69  2  0  0  0
 57 58  2  0  0  0
 57139  1  0  0  0
 58140  1  0  0  0
 59 60  1  0  0  0
 59 61  1  0  0  0
 59 62  1  0  0  0
 60141  1  0  0  0
 60142  1  0  0  0
 60143  1  0  0  0
 61144  1  0  0  0
 61145  1  0  0  0
 61146  1  0  0  0
 62147  1  0  0  0
 62148  1  0  0  0
 62149  1  0  0  0
 63 65  1  0  0  0
 63150  1  0  0  0
 63151  1  0  0  0
 63152  1  0  0  0
 64153  1  0  0  0
 65154  1  0  0  0
 68 90  1  0  0  0
 71 72  2  0  0  0
 71 74  1  0  0  0
 71155  1  0  0  0
 72 73  1  0  0  0
 72 76  1  0  0  0
 73 75  2  0  0  0
 73 83  1  0  0  0
 74 84  1  0  0  0
 74 94  2  0  0  0
 75 85  1  0  0  0
 75 94  1  0  0  0
 76156  1  0  0  0
 76157  1  0  0  0
 76158  1  0  0  0
 77 86  1  0  0  0
 77159  1  0  0  0
 77160  1  0  0  0
 77161  1  0  0  0
 78 87  1  0  0  0
 78162  1  0  0  0
 78163  1  0  0  0
 78164  1  0  0  0
 79165  1  0  0  0
 79166  1  0  0  0
 79167  1  0  0  0
 79 91  1  0  0  0
 80168  1  0  0  0
 80169  1  0  0  0
 80170  1  0  0  0
 80 92  1  0  0  0
 81171  1  0  0  0
 81172  1  0  0  0
 81173  1  0  0  0
 81 93  1  0  0  0
 82 93  1  0  0  0
 82174  1  0  0  0
 82175  1  0  0  0
 82176  1  0  0  0
 83 88  1  0  0  0
 83177  1  0  0  0
 83178  1  0  0  0
 84 92  1  0  0  0
 84179  1  0  0  0
 84180  1  0  0  0
 85 86  1  0  0  0
 85181  1  0  0  0
 85182  1  0  0  0
 86183  1  0  0  0
 86184  1  0  0  0
 87 89  1  0  0  0
 87185  1  0  0  0
 87186  1  0  0  0
 88 93  1  0  0  0
 88187  1  0  0  0
 88188  1  0  0  0
 89 95  1  0  0  0
 89189  1  0  0  0
 89190  1  0  0  0
 90 91  1  0  0  0
 90191  1  0  0  0
 90192  1  0  0  0
 91 93  1  0  0  0
 91193  1  0  0  0
 92 95  1  0  0  0
 92194  1  0  0  0
M  ISO  4   1 100  68 101  90 101  95 100
M  END
> <chiral flag>
0

> <version>
0

> <s_m_source_file>
/data/baiqing/PycharmProjects/Reinvent-master-3.2/result/LINK_invent/BTK/process_docking_weight1_custom_sum_contain_oxygen_bond_distance_aromatic_linkinvent_7_9_3/rearranged_h_0068.sdf

> <i_m_source_file_index>
32

> <r_mmod_Potential_Energy-OPLS-2005>
172.1123046875

> <r_mmod_Stretch_Energy-OPLS-2005>
44.6870994567871

> <r_mmod_Bend_Energy-OPLS-2005>
132.764144897461

> <r_mmod_Torsional_Energy-OPLS-2005>
341.926818847656

> <r_mmod_Improper_Torsional_Energy-OPLS-2005>
9.17934513092041

> <r_mmod_Van_der_Waal_Energy-OPLS-2005>
186.535934448242

> <r_mmod_Electrostatic_Energy-OPLS-2005>
-398.283630371094

> <r_mmod_Solvation_Energy-OPLS-2005>
-162.181762695312

> <b_mmod_Minimization_Converged-OPLS-2005>
0

> <r_mmod_RMS_Derivative-OPLS-2005>
7.3591628074646

$$$$
33
                    3D
 Structure written by MMmdl.
170179  0  0  1  0            999 V2000
  -30.7033  -14.4568   20.5451 C   0  0  0  0  0  0
  -30.4143  -12.2875   19.4094 C   0  0  0  0  0  0
  -29.4898  -12.5081   18.1932 C   0  0  0  0  0  0
  -28.0062  -12.3809   18.5983 C   0  0  0  0  0  0
  -27.6568  -13.2056   19.8680 C   0  0  2  0  0  0
  -28.7042  -12.9853   20.9860 C   0  0  0  0  0  0
  -25.2566  -13.8171   20.5659 C   0  0  0  0  0  0
  -24.1812  -13.0449   20.9161 C   0  0  0  0  0  0
  -24.6368  -11.6913   20.8712 C   0  0  0  0  0  0
  -23.9038  -10.4293   21.0380 C   0  0  0  0  0  0
  -24.3590   -9.4235   21.9168 C   0  0  0  0  0  0
  -23.6275   -8.2256   22.0774 C   0  0  0  0  0  0
  -22.4262   -8.0270   21.3554 C   0  0  0  0  0  0
  -21.9884   -9.0245   20.4660 C   0  0  0  0  0  0
  -22.7205  -10.2126   20.3050 C   0  0  0  0  0  0
  -21.6845   -6.0722   22.5285 C   0  0  0  0  0  0
  -21.4003   -6.5638   23.8220 C   0  0  0  0  0  0
  -21.3650   -5.6791   24.9185 C   0  0  0  0  0  0
  -21.6047   -4.3049   24.7231 C   0  0  0  0  0  0
  -21.8806   -3.8142   23.4355 C   0  0  0  0  0  0
  -21.9187   -4.6951   22.3416 C   0  0  0  0  0  0
  -22.7832  -13.5243   21.1827 C   0  0  0  0  0  0
  -22.1649   -4.2140   21.0986 F   0  0  0  0  0  0
  -21.5656   -3.4522   25.7744 F   0  0  0  0  0  0
  -30.0351  -13.2773   20.4285 N   0  0  0  0  0  0
  -26.3004  -12.9318   20.3336 N   0  0  0  0  0  0
  -25.9303  -11.6493   20.5744 N   0  0  0  0  0  0
  -22.0437  -12.8293   22.0391 N   0  0  0  0  0  0
  -25.4314  -15.1881   20.4106 N   0  0  0  0  0  0
  -31.8471  -14.6308   20.1173 O   0  0  0  0  0  0
  -21.6647   -6.8864   21.4237 O   0  0  0  0  0  0
  -22.3536  -14.5551   20.6671 O   0  0  0  0  0  0
  -24.6085  -31.8726   23.2131 C   0  0  0  0  0  0
  -25.8995  -32.4865   23.8412 C   0  0  1  0  0  0
  -27.2411  -27.4715   20.1061 C   0  0  0  0  0  0
  -25.5859  -33.8657   24.2336 N   0  0  0  0  0  0
  -23.3939  -30.4977   21.5535 C   0  0  2  0  0  0
  -24.8428  -28.9720   20.1167 C   0  0  0  0  0  0
  -22.7391  -29.4686   22.5004 C   0  0  0  0  0  0
  -18.0266  -28.1376   22.8512 C   0  0  0  0  0  0
  -24.1480  -36.7320   23.2638 C   0  0  0  0  0  0
  -25.9178  -30.8610   21.3515 C   0  0  0  0  0  0
  -26.0029  -29.5005   20.6967 C   0  0  0  0  0  0
  -27.2108  -28.7698   20.6706 C   0  0  0  0  0  0
  -26.0621  -26.9614   19.5245 C   0  0  0  0  0  0
  -24.8674  -27.7032   19.5190 C   0  0  0  0  0  0
  -23.6014  -29.8323   20.1682 C   0  0  0  0  0  0
  -25.4103  -36.3142   24.0345 C   0  0  1  0  0  0
  -20.5868  -28.3657   23.1334 C   0  0  2  0  0  0
  -20.6778  -26.9405   22.5416 C   0  0  0  0  0  0
  -19.5755  -26.6404   21.5217 C   0  0  0  0  0  0
  -18.1925  -26.7939   22.1622 C   0  0  0  0  0  0
  -19.1524  -28.8825   23.2929 C   0  0  0  0  0  0
  -18.9464  -30.1436   23.8939 C   0  0  0  0  0  0
  -17.6476  -30.6605   24.0577 C   0  0  0  0  0  0
  -25.9024  -34.9512   23.5142 C   0  0  0  0  0  0
  -16.5357  -29.9132   23.6318 C   0  0  0  0  0  0
  -16.7267  -28.6528   23.0364 C   0  0  0  0  0  0
  -26.4444  -31.6625   25.0706 C   0  0  0  0  0  0
  -25.3718  -31.3751   26.1459 C   0  0  0  0  0  0
  -27.0246  -30.3076   24.6024 C   0  0  0  0  0  0
  -27.6038  -32.4319   25.7459 C   0  0  0  0  0  0
  -27.5596  -37.1813   24.8465 C   0  0  0  0  0  0
  -21.4121  -29.3038   22.3755 N   0  0  0  0  0  0
  -26.4300  -37.3811   23.9424 N   0  0  0  0  0  0
  -24.6584  -31.0867   22.1008 N   0  0  0  0  0  0
  -23.4197  -28.8225   23.3015 O   0  0  0  0  0  0
  -28.3141  -26.6077   20.0524 O   0  0  0  0  0  0
  -26.5589  -34.8956   22.4706 O   0  0  0  0  0  0
  -23.5292  -32.1455   23.7569 O   0  0  0  0  0  0
  -27.3437  -21.6635   20.0217 C   0  0  0  0  0  0
  -29.4744  -22.2054   19.7480 C   0  0  0  0  0  0
  -28.9144  -20.2676   20.6941 C   0  0  0  0  0  0
  -30.7209  -17.4281   22.2353 C   0  0  0  0  0  0
  -30.4781  -17.6991   19.7372 C   0  0  0  0  0  0
  -29.8636  -16.1382   22.1570 C   0  0  0  0  0  0
  -29.5483  -16.4677   19.7587 C   0  0  0  0  0  0
  -30.4685  -18.4380   21.0901 C   0  0  0  0  0  0
  -30.3973  -27.8002   19.8809 C   0  0  0  0  0  0
  -29.4914  -27.1339   22.1894 C   0  0  0  0  0  0
  -30.5420  -23.1516   19.1884 C   0  0  0  0  0  0
  -30.2204  -24.6741   19.2168 C   0  0  0  0  0  0
  -30.1956  -25.3449   20.6131 C   0  0  0  0  0  0
  -29.5806  -26.7770   20.6873 C   0  0  0  0  0  0
  -28.2084  -22.5453   19.5419 N   0  0  0  0  0  0
  -27.6178  -20.5131   20.6204 N   0  0  0  0  0  0
  -29.9025  -21.0657   20.2919 N   0  0  0  0  0  0
  -29.9180  -15.5248   20.8248 N   0  0  0  0  0  0
  -29.1937  -19.0709   21.2769 O   0  0  0  0  0  0
  -31.4613  -12.3729   19.1141 H   0  0  0  0  0  0
  -30.2943  -11.2746   19.7996 H   0  0  0  0  0  0
  -29.7247  -11.7906   17.4059 H   0  0  0  0  0  0
  -29.6650  -13.4943   17.7650 H   0  0  0  0  0  0
  -27.7922  -11.3244   18.7655 H   0  0  0  0  0  0
  -27.3668  -12.6885   17.7700 H   0  0  0  0  0  0
  -27.6937  -14.2529   19.5724 H   0  0  0  0  0  0
  -28.6740  -11.9543   21.3423 H   0  0  0  0  0  0
  -28.4791  -13.6046   21.8551 H   0  0  0  0  0  0
  -25.2718   -9.5736   22.4750 H   0  0  0  0  0  0
  -23.9995   -7.4650   22.7497 H   0  0  0  0  0  0
  -21.0823   -8.8742   19.8964 H   0  0  0  0  0  0
  -22.3637  -10.9657   19.6170 H   0  0  0  0  0  0
  -21.1983   -7.6145   23.9720 H   0  0  0  0  0  0
  -21.1492   -6.0526   25.9092 H   0  0  0  0  0  0
  -22.0596   -2.7601   23.2856 H   0  0  0  0  0  0
  -22.3997  -11.9941   22.4796 H   0  0  0  0  0  0
  -21.1068  -13.1377   22.2561 H   0  0  0  0  0  0
  -24.6716  -15.8499   20.5321 H   0  0  0  0  0  0
  -26.3035  -15.6261   20.1421 H   0  0  0  0  0  0
  -26.7064  -32.5600   23.1189 H   0  0  0  0  0  0
  -25.0000  -33.9839   25.0479 H   0  0  0  0  0  0
  -22.6807  -31.3127   21.4157 H   0  0  0  0  0  0
  -23.3767  -35.9623   23.3308 H   0  0  0  0  0  0
  -24.3573  -36.8920   22.2048 H   0  0  0  0  0  0
  -23.7198  -37.6516   23.6636 H   0  0  0  0  0  0
  -26.0113  -31.6345   20.5873 H   0  0  0  0  0  0
  -26.8102  -30.9171   21.9630 H   0  0  0  0  0  0
  -28.0925  -29.2347   21.0771 H   0  0  0  0  0  0
  -26.0726  -25.9744   19.0833 H   0  0  0  0  0  0
  -23.9736  -27.2925   19.0668 H   0  0  0  0  0  0
  -23.7104  -30.6081   19.4093 H   0  0  0  0  0  0
  -22.7272  -29.2489   19.8737 H   0  0  0  0  0  0
  -25.1286  -36.1997   25.0840 H   0  0  0  0  0  0
  -20.9956  -28.3203   24.1452 H   0  0  0  0  0  0
  -20.5671  -26.2272   23.3596 H   0  0  0  0  0  0
  -21.6648  -26.7471   22.1182 H   0  0  0  0  0  0
  -19.6933  -25.6322   21.1220 H   0  0  0  0  0  0
  -19.6699  -27.3239   20.6776 H   0  0  0  0  0  0
  -17.4210  -26.6697   21.4012 H   0  0  0  0  0  0
  -18.0325  -26.0048   22.8988 H   0  0  0  0  0  0
  -19.7948  -30.7232   24.2327 H   0  0  0  0  0  0
  -17.5046  -31.6282   24.5205 H   0  0  0  0  0  0
  -15.5356  -30.3074   23.7612 H   0  0  0  0  0  0
  -15.8656  -28.0873   22.7071 H   0  0  0  0  0  0
  -24.5860  -30.7129   25.7798 H   0  0  0  0  0  0
  -24.8941  -32.2926   26.4910 H   0  0  0  0  0  0
  -25.8053  -30.8906   27.0211 H   0  0  0  0  0  0
  -26.2778  -29.6863   24.1049 H   0  0  0  0  0  0
  -27.4022  -29.7261   25.4443 H   0  0  0  0  0  0
  -27.8604  -30.4416   23.9147 H   0  0  0  0  0  0
  -27.2671  -33.3598   26.2095 H   0  0  0  0  0  0
  -28.3813  -32.6904   25.0256 H   0  0  0  0  0  0
  -28.0733  -31.8401   26.5325 H   0  0  0  0  0  0
  -28.2601  -38.0129   24.7546 H   0  0  0  0  0  0
  -28.1112  -36.2667   24.6247 H   0  0  0  0  0  0
  -27.2327  -37.1391   25.8870 H   0  0  0  0  0  0
  -20.9268  -29.8791   21.7011 H   0  0  0  0  0  0
  -26.0211  -38.2891   24.1444 H   0  0  0  0  0  0
  -26.2980  -21.9043   19.9033 H   0  0  0  0  0  0
  -31.7730  -17.1437   22.2157 H   0  0  0  0  0  0
  -30.5611  -17.9189   23.1957 H   0  0  0  0  0  0
  -30.1876  -18.3734   18.9315 H   0  0  0  0  0  0
  -31.4954  -17.3824   19.5060 H   0  0  0  0  0  0
  -28.8232  -16.3684   22.3868 H   0  0  0  0  0  0
  -30.1932  -15.4268   22.9193 H   0  0  0  0  0  0
  -29.5594  -15.9731   18.7856 H   0  0  0  0  0  0
  -28.5161  -16.7856   19.9210 H   0  0  0  0  0  0
  -31.2731  -19.1738   21.1228 H   0  0  0  0  0  0
  -31.4284  -27.8650   20.2312 H   0  0  0  0  0  0
  -29.9694  -28.7990   19.9460 H   0  0  0  0  0  0
  -30.4207  -27.5362   18.8230 H   0  0  0  0  0  0
  -30.4710  -27.0530   22.6614 H   0  0  0  0  0  0
  -28.8179  -26.4619   22.7225 H   0  0  0  0  0  0
  -29.1649  -28.1479   22.3953 H   0  0  0  0  0  0
  -30.7131  -22.8542   18.1537 H   0  0  0  0  0  0
  -31.4855  -22.9734   19.7046 H   0  0  0  0  0  0
  -29.2793  -24.8332   18.6911 H   0  0  0  0  0  0
  -30.9724  -25.1877   18.6177 H   0  0  0  0  0  0
  -31.2096  -25.3672   21.0150 H   0  0  0  0  0  0
  -29.6264  -24.7000   21.2843 H   0  0  0  0  0  0
  1 25  1  0  0  0
  1 30  2  0  0  0
  1 88  1  0  0  0
  2  3  1  0  0  0
  2 25  1  0  0  0
  2 90  1  0  0  0
  2 91  1  0  0  0
  3  4  1  0  0  0
  3 92  1  0  0  0
  3 93  1  0  0  0
  4  5  1  0  0  0
  4 94  1  0  0  0
  4 95  1  0  0  0
  5  6  1  0  0  0
  5 26  1  0  0  0
  5 96  1  0  0  0
  6 25  1  0  0  0
  6 97  1  0  0  0
  6 98  1  0  0  0
  7  8  2  0  0  0
  7 26  1  0  0  0
  7 29  1  0  0  0
  8  9  1  0  0  0
  8 22  1  0  0  0
  9 10  1  0  0  0
  9 27  2  0  0  0
 10 11  2  0  0  0
 10 15  1  0  0  0
 11 12  1  0  0  0
 11 99  1  0  0  0
 12 13  2  0  0  0
 12100  1  0  0  0
 13 14  1  0  0  0
 13 31  1  0  0  0
 14 15  2  0  0  0
 14101  1  0  0  0
 15102  1  0  0  0
 16 17  2  0  0  0
 16 21  1  0  0  0
 16 31  1  0  0  0
 17 18  1  0  0  0
 17103  1  0  0  0
 18 19  2  0  0  0
 18104  1  0  0  0
 19 20  1  0  0  0
 19 24  1  0  0  0
 20 21  2  0  0  0
 20105  1  0  0  0
 21 23  1  0  0  0
 22 28  1  0  0  0
 22 32  2  0  0  0
 26 27  1  0  0  0
 28106  1  0  0  0
 28107  1  0  0  0
 29108  1  0  0  0
 29109  1  0  0  0
 33 34  1  0  0  0
 33 66  1  0  0  0
 33 70  2  0  0  0
 34 36  1  0  0  0
 34 59  1  0  0  0
 34110  1  0  0  0
 35 44  2  0  0  0
 35 45  1  0  0  0
 35 68  1  0  0  0
 36 56  1  0  0  0
 36111  1  0  0  0
 37 39  1  0  0  0
 37 47  1  0  0  0
 37 66  1  0  0  0
 37112  1  0  0  0
 38 43  2  0  0  0
 38 46  1  0  0  0
 38 47  1  0  0  0
 39 64  1  0  0  0
 39 67  2  0  0  0
 40 52  1  0  0  0
 40 53  2  0  0  0
 40 58  1  0  0  0
 41113  1  0  0  0
 41114  1  0  0  0
 41115  1  0  0  0
 41 48  1  0  0  0
 42 43  1  0  0  0
 42 66  1  0  0  0
 42116  1  0  0  0
 42117  1  0  0  0
 43 44  1  0  0  0
 44118  1  0  0  0
 45 46  2  0  0  0
 45119  1  0  0  0
 46120  1  0  0  0
 47121  1  0  0  0
 47122  1  0  0  0
 48 56  1  0  0  0
 48 65  1  0  0  0
 48123  1  0  0  0
 49 50  1  0  0  0
 49 53  1  0  0  0
 49 64  1  0  0  0
 49124  1  0  0  0
 50 51  1  0  0  0
 50125  1  0  0  0
 50126  1  0  0  0
 51 52  1  0  0  0
 51127  1  0  0  0
 51128  1  0  0  0
 52129  1  0  0  0
 52130  1  0  0  0
 53 54  1  0  0  0
 54 55  2  0  0  0
 54131  1  0  0  0
 55 57  1  0  0  0
 55132  1  0  0  0
 56 69  2  0  0  0
 57 58  2  0  0  0
 57133  1  0  0  0
 58134  1  0  0  0
 59 60  1  0  0  0
 59 61  1  0  0  0
 59 62  1  0  0  0
 60135  1  0  0  0
 60136  1  0  0  0
 60137  1  0  0  0
 61138  1  0  0  0
 61139  1  0  0  0
 61140  1  0  0  0
 62141  1  0  0  0
 62142  1  0  0  0
 62143  1  0  0  0
 63 65  1  0  0  0
 63144  1  0  0  0
 63145  1  0  0  0
 63146  1  0  0  0
 64147  1  0  0  0
 65148  1  0  0  0
 68 84  1  0  0  0
 71 85  2  0  0  0
 71 86  1  0  0  0
 71149  1  0  0  0
 72 81  1  0  0  0
 72 85  1  0  0  0
 72 87  2  0  0  0
 73 86  2  0  0  0
 73 87  1  0  0  0
 73 89  1  0  0  0
 74 76  1  0  0  0
 74 78  1  0  0  0
 74150  1  0  0  0
 74151  1  0  0  0
 75 77  1  0  0  0
 75 78  1  0  0  0
 75152  1  0  0  0
 75153  1  0  0  0
 76 88  1  0  0  0
 76154  1  0  0  0
 76155  1  0  0  0
 77 88  1  0  0  0
 77156  1  0  0  0
 77157  1  0  0  0
 78 89  1  0  0  0
 78158  1  0  0  0
 79159  1  0  0  0
 79160  1  0  0  0
 79161  1  0  0  0
 79 84  1  0  0  0
 80 84  1  0  0  0
 80162  1  0  0  0
 80163  1  0  0  0
 80164  1  0  0  0
 81 82  1  0  0  0
 81165  1  0  0  0
 81166  1  0  0  0
 82 83  1  0  0  0
 82167  1  0  0  0
 82168  1  0  0  0
 83 84  1  0  0  0
 83169  1  0  0  0
 83170  1  0  0  0
M  ISO  4   1 100  68 101  84 101  88 100
M  END
> <chiral flag>
0

> <version>
0

> <s_m_source_file>
/data/baiqing/PycharmProjects/Reinvent-master-3.2/result/LINK_invent/BTK/process_docking_weight1_custom_sum_contain_oxygen_bond_distance_aromatic_linkinvent_7_9_3/rearranged_h_0068.sdf

> <i_m_source_file_index>
33

> <r_mmod_Potential_Energy-OPLS-2005>
-462.982116699219

> <r_mmod_Stretch_Energy-OPLS-2005>
38.4246101379395

> <r_mmod_Bend_Energy-OPLS-2005>
145.752548217773

> <r_mmod_Torsional_Energy-OPLS-2005>
326.953094482422

> <r_mmod_Improper_Torsional_Energy-OPLS-2005>
11.2363338470459

> <r_mmod_Van_der_Waal_Energy-OPLS-2005>
176.118560791016

> <r_mmod_Electrostatic_Energy-OPLS-2005>
-966.757690429688

> <r_mmod_Solvation_Energy-OPLS-2005>
-207.94596862793

> <b_mmod_Minimization_Converged-OPLS-2005>
0

> <r_mmod_RMS_Derivative-OPLS-2005>
3.49166297912598

$$$$
34
                    3D
 Structure written by MMmdl.
173181  0  0  1  0            999 V2000
  -30.8140  -14.2932   20.8898 C   0  0  0  0  0  0
  -30.4259  -12.3417   19.4073 C   0  0  0  0  0  0
  -29.4944  -12.5683   18.2070 C   0  0  0  0  0  0
  -28.0244  -12.3848   18.6211 C   0  0  0  0  0  0
  -27.6704  -13.1994   19.8886 C   0  0  2  0  0  0
  -28.6933  -12.9312   21.0090 C   0  0  0  0  0  0
  -25.2645  -13.8151   20.5711 C   0  0  0  0  0  0
  -24.1835  -13.0447   20.9150 C   0  0  0  0  0  0
  -24.6356  -11.6931   20.8695 C   0  0  0  0  0  0
  -23.8998  -10.4323   21.0368 C   0  0  0  0  0  0
  -24.3580   -9.4262   21.9135 C   0  0  0  0  0  0
  -23.6298   -8.2275   22.0702 C   0  0  0  0  0  0
  -22.4291   -8.0266   21.3499 C   0  0  0  0  0  0
  -21.9893   -9.0229   20.4617 C   0  0  0  0  0  0
  -22.7178  -10.2126   20.3030 C   0  0  0  0  0  0
  -21.6857   -6.0698   22.5266 C   0  0  0  0  0  0
  -21.4016   -6.5597   23.8198 C   0  0  0  0  0  0
  -21.3709   -5.6742   24.9158 C   0  0  0  0  0  0
  -21.6064   -4.3006   24.7223 C   0  0  0  0  0  0
  -21.8820   -3.8104   23.4351 C   0  0  0  0  0  0
  -21.9203   -4.6920   22.3411 C   0  0  0  0  0  0
  -22.7883  -13.5295   21.1823 C   0  0  0  0  0  0
  -22.1665   -4.2106   21.0986 F   0  0  0  0  0  0
  -21.5674   -3.4511   25.7757 F   0  0  0  0  0  0
  -30.0395  -13.2426   20.5075 N   0  0  0  0  0  0
  -26.3056  -12.9291   20.3364 N   0  0  0  0  0  0
  -25.9279  -11.6469   20.5704 N   0  0  0  0  0  0
  -22.0507  -12.8298   22.0408 N   0  0  0  0  0  0
  -25.4460  -15.1854   20.4290 N   0  0  0  0  0  0
  -31.7156  -14.7098   20.1529 O   0  0  0  0  0  0
  -21.6652   -6.8865   21.4237 O   0  0  0  0  0  0
  -22.3598  -14.5587   20.6654 O   0  0  0  0  0  0
  -24.6138  -31.8737   23.2106 C   0  0  0  0  0  0
  -25.9033  -32.4877   23.8416 C   0  0  1  0  0  0
  -27.2435  -27.4592   20.0538 C   0  0  0  0  0  0
  -25.5931  -33.8690   24.2338 N   0  0  0  0  0  0
  -23.4029  -30.4972   21.5496 C   0  0  2  0  0  0
  -24.8448  -28.9572   20.1266 C   0  0  0  0  0  0
  -22.7422  -29.4724   22.4956 C   0  0  0  0  0  0
  -18.0297  -28.1456   22.8426 C   0  0  0  0  0  0
  -24.1503  -36.7299   23.2607 C   0  0  0  0  0  0
  -25.9300  -30.8413   21.3641 C   0  0  0  0  0  0
  -26.0052  -29.4740   20.7115 C   0  0  0  0  0  0
  -27.2033  -28.7285   20.6800 C   0  0  0  0  0  0
  -26.0431  -26.9392   19.5063 C   0  0  0  0  0  0
  -24.8530  -27.6839   19.5362 C   0  0  0  0  0  0
  -23.6097  -29.8269   20.1680 C   0  0  0  0  0  0
  -25.4142  -36.3145   24.0297 C   0  0  1  0  0  0
  -20.5875  -28.3712   23.1231 C   0  0  2  0  0  0
  -20.6779  -26.9466   22.5271 C   0  0  0  0  0  0
  -19.5733  -26.6494   21.5074 C   0  0  0  0  0  0
  -18.1931  -26.8026   22.1513 C   0  0  0  0  0  0
  -19.1543  -28.8892   23.2866 C   0  0  0  0  0  0
  -18.9471  -30.1483   23.8913 C   0  0  0  0  0  0
  -17.6466  -30.6586   24.0648 C   0  0  0  0  0  0
  -25.9069  -34.9511   23.5110 C   0  0  0  0  0  0
  -16.5362  -29.9110   23.6375 C   0  0  0  0  0  0
  -16.7286  -28.6581   23.0296 C   0  0  0  0  0  0
  -26.4466  -31.6648   25.0747 C   0  0  0  0  0  0
  -25.3710  -31.3701   26.1448 C   0  0  0  0  0  0
  -27.0250  -30.3081   24.6132 C   0  0  0  0  0  0
  -27.6103  -32.4324   25.7475 C   0  0  0  0  0  0
  -27.5584  -37.1804   24.8447 C   0  0  0  0  0  0
  -21.4151  -29.3086   22.3639 N   0  0  0  0  0  0
  -26.4303  -37.3843   23.9384 N   0  0  0  0  0  0
  -24.6675  -31.0852   22.0996 N   0  0  0  0  0  0
  -23.4188  -28.8328   23.3057 O   0  0  0  0  0  0
  -28.4629  -26.8139   19.9767 O   0  0  0  0  0  0
  -26.5593  -34.8934   22.4657 O   0  0  0  0  0  0
  -23.5319  -32.1425   23.7502 O   0  0  0  0  0  0
  -28.9309  -16.5535   21.3545 C   0  0  0  0  0  0
  -28.7802  -16.1023   23.6792 C   0  0  0  0  0  0
  -29.4313  -15.8424   22.4572 C   0  0  0  0  0  0
  -27.3342  -17.5400   22.6551 C   0  0  0  0  0  0
  -30.6851  -13.7852   23.4012 C   0  0  0  0  0  0
  -31.8949  -15.8121   22.6706 C   0  0  0  0  0  0
  -28.8999  -22.5871   18.6010 C   0  0  0  0  0  0
  -26.1978  -18.5478   22.7403 C   0  0  0  0  0  0
  -26.7078  -20.0057   22.7604 C   0  0  0  0  0  0
  -25.8748  -20.9933   21.9158 C   0  0  0  0  0  0
  -26.6140  -22.3135   21.6440 C   0  0  0  0  0  0
  -27.8592  -22.0904   20.7502 C   0  0  0  0  0  0
  -28.5018  -24.4140   20.2540 C   0  0  0  0  0  0
  -28.5884  -25.5819   19.2501 C   0  0  0  0  0  0
  -30.6659  -14.9234   22.3366 C   0  0  0  0  0  0
  -27.8821  -17.3867   21.4568 N   0  0  0  0  0  0
  -27.7454  -16.9603   23.7726 N   0  0  0  0  0  0
  -28.0387  -23.1153   19.6898 N   0  3  1  0  0  0
  -31.4668  -12.4772   19.1111 H   0  0  0  0  0  0
  -30.3509  -11.3091   19.7518 H   0  0  0  0  0  0
  -29.7430  -11.8737   17.4069 H   0  0  0  0  0  0
  -29.6479  -13.5693   17.7994 H   0  0  0  0  0  0
  -27.8549  -11.3225   18.8070 H   0  0  0  0  0  0
  -27.3624  -12.6608   17.8009 H   0  0  0  0  0  0
  -27.7357  -14.2555   19.6303 H   0  0  0  0  0  0
  -28.6612  -11.8890   21.3290 H   0  0  0  0  0  0
  -28.3974  -13.5256   21.8689 H   0  0  0  0  0  0
  -25.2752   -9.5738   22.4638 H   0  0  0  0  0  0
  -24.0028   -7.4686   22.7398 H   0  0  0  0  0  0
  -21.0826   -8.8738   19.8949 H   0  0  0  0  0  0
  -22.3634  -10.9621   19.6110 H   0  0  0  0  0  0
  -21.1959   -7.6095   23.9694 H   0  0  0  0  0  0
  -21.1546   -6.0461   25.9047 H   0  0  0  0  0  0
  -22.0563   -2.7560   23.2856 H   0  0  0  0  0  0
  -22.4122  -11.9973   22.4820 H   0  0  0  0  0  0
  -21.1105  -13.1292   22.2579 H   0  0  0  0  0  0
  -24.6827  -15.8474   20.5146 H   0  0  0  0  0  0
  -26.3286  -15.6320   20.2066 H   0  0  0  0  0  0
  -26.7152  -32.5583   23.1224 H   0  0  0  0  0  0
  -25.0187  -33.9900   25.0549 H   0  0  0  0  0  0
  -22.6900  -31.3134   21.4127 H   0  0  0  0  0  0
  -23.3796  -35.9600   23.3285 H   0  0  0  0  0  0
  -24.3540  -36.8921   22.2013 H   0  0  0  0  0  0
  -23.7239  -37.6485   23.6622 H   0  0  0  0  0  0
  -26.0315  -31.6131   20.5996 H   0  0  0  0  0  0
  -26.8196  -30.8947   21.9794 H   0  0  0  0  0  0
  -28.1079  -29.1368   21.1056 H   0  0  0  0  0  0
  -25.9884  -25.9689   19.0422 H   0  0  0  0  0  0
  -23.9510  -27.2792   19.1006 H   0  0  0  0  0  0
  -23.7190  -30.5989   19.4056 H   0  0  0  0  0  0
  -22.7383  -29.2394   19.8680 H   0  0  0  0  0  0
  -25.1346  -36.2003   25.0787 H   0  0  0  0  0  0
  -20.9994  -28.3304   24.1328 H   0  0  0  0  0  0
  -20.5778  -26.2285   23.3417 H   0  0  0  0  0  0
  -21.6651  -26.7560   22.0997 H   0  0  0  0  0  0
  -19.6878  -25.6460   21.0976 H   0  0  0  0  0  0
  -19.6651  -27.3408   20.6704 H   0  0  0  0  0  0
  -17.4181  -26.6827   21.3908 H   0  0  0  0  0  0
  -18.0340  -26.0141   22.8899 H   0  0  0  0  0  0
  -19.7958  -30.7330   24.2246 H   0  0  0  0  0  0
  -17.5020  -31.6237   24.5342 H   0  0  0  0  0  0
  -15.5361  -30.3002   23.7714 H   0  0  0  0  0  0
  -15.8707  -28.0963   22.6858 H   0  0  0  0  0  0
  -24.5906  -30.7099   25.7655 H   0  0  0  0  0  0
  -24.8866  -32.2815   26.4940 H   0  0  0  0  0  0
  -25.7981  -30.8751   27.0179 H   0  0  0  0  0  0
  -26.2762  -29.6914   24.1157 H   0  0  0  0  0  0
  -27.3936  -29.7279   25.4598 H   0  0  0  0  0  0
  -27.8659  -30.4335   23.9316 H   0  0  0  0  0  0
  -27.2812  -33.3629   26.2095 H   0  0  0  0  0  0
  -28.3844  -32.6893   25.0238 H   0  0  0  0  0  0
  -28.0857  -31.8441   26.5311 H   0  0  0  0  0  0
  -28.2639  -38.0086   24.7561 H   0  0  0  0  0  0
  -28.1074  -36.2621   24.6256 H   0  0  0  0  0  0
  -27.2264  -37.1450   25.8845 H   0  0  0  0  0  0
  -20.9303  -29.8698   21.6754 H   0  0  0  0  0  0
  -26.0190  -38.2899   24.1487 H   0  0  0  0  0  0
  -29.3753  -16.4795   20.3721 H   0  0  0  0  0  0
  -29.1030  -15.6496   24.6045 H   0  0  0  0  0  0
  -30.8097  -14.1699   24.4130 H   0  0  0  0  0  0
  -31.5145  -13.0950   23.2367 H   0  0  0  0  0  0
  -29.7781  -13.1880   23.4333 H   0  0  0  0  0  0
  -31.9025  -16.7407   22.0963 H   0  0  0  0  0  0
  -32.8362  -15.2933   22.4862 H   0  0  0  0  0  0
  -31.9014  -16.0991   23.7219 H   0  0  0  0  0  0
  -28.9735  -23.2594   17.7498 H   0  0  0  0  0  0
  -28.4928  -21.6559   18.2009 H   0  0  0  0  0  0
  -29.9083  -22.3868   18.9613 H   0  0  0  0  0  0
  -25.5851  -18.3500   23.6201 H   0  0  0  0  0  0
  -25.5402  -18.3778   21.8873 H   0  0  0  0  0  0
  -27.7337  -19.9997   22.3925 H   0  0  0  0  0  0
  -26.7783  -20.3681   23.7862 H   0  0  0  0  0  0
  -24.9310  -21.1966   22.4170 H   0  0  0  0  0  0
  -25.6052  -20.5491   20.9542 H   0  0  0  0  0  0
  -26.9107  -22.7723   22.5881 H   0  0  0  0  0  0
  -25.9207  -23.0209   21.1847 H   0  0  0  0  0  0
  -27.7753  -21.1169   20.2658 H   0  0  0  0  0  0
  -28.7624  -22.0267   21.3601 H   0  0  0  0  0  0
  -27.8353  -24.7093   21.0610 H   0  0  0  0  0  0
  -29.4774  -24.2771   20.7155 H   0  0  0  0  0  0
  -27.8904  -25.4943   18.4168 H   0  0  0  0  0  0
  -29.5675  -25.5666   18.7703 H   0  0  0  0  0  0
  -27.1285  -23.2462   19.2737 H   0  0  0  0  0  0
  1 25  1  0  0  0
  1 30  2  0  0  0
  1 85  1  0  0  0
  2  3  1  0  0  0
  2 25  1  0  0  0
  2 89  1  0  0  0
  2 90  1  0  0  0
  3  4  1  0  0  0
  3 91  1  0  0  0
  3 92  1  0  0  0
  4  5  1  0  0  0
  4 93  1  0  0  0
  4 94  1  0  0  0
  5  6  1  0  0  0
  5 26  1  0  0  0
  5 95  1  0  0  0
  6 25  1  0  0  0
  6 96  1  0  0  0
  6 97  1  0  0  0
  7  8  2  0  0  0
  7 26  1  0  0  0
  7 29  1  0  0  0
  8  9  1  0  0  0
  8 22  1  0  0  0
  9 10  1  0  0  0
  9 27  2  0  0  0
 10 11  2  0  0  0
 10 15  1  0  0  0
 11 12  1  0  0  0
 11 98  1  0  0  0
 12 13  2  0  0  0
 12 99  1  0  0  0
 13 14  1  0  0  0
 13 31  1  0  0  0
 14 15  2  0  0  0
 14100  1  0  0  0
 15101  1  0  0  0
 16 17  2  0  0  0
 16 21  1  0  0  0
 16 31  1  0  0  0
 17 18  1  0  0  0
 17102  1  0  0  0
 18 19  2  0  0  0
 18103  1  0  0  0
 19 20  1  0  0  0
 19 24  1  0  0  0
 20 21  2  0  0  0
 20104  1  0  0  0
 21 23  1  0  0  0
 22 28  1  0  0  0
 22 32  2  0  0  0
 26 27  1  0  0  0
 28105  1  0  0  0
 28106  1  0  0  0
 29107  1  0  0  0
 29108  1  0  0  0
 33 34  1  0  0  0
 33 66  1  0  0  0
 33 70  2  0  0  0
 34 36  1  0  0  0
 34 59  1  0  0  0
 34109  1  0  0  0
 35 44  2  0  0  0
 35 45  1  0  0  0
 35 68  1  0  0  0
 36 56  1  0  0  0
 36110  1  0  0  0
 37 39  1  0  0  0
 37 47  1  0  0  0
 37 66  1  0  0  0
 37111  1  0  0  0
 38 43  2  0  0  0
 38 46  1  0  0  0
 38 47  1  0  0  0
 39 64  1  0  0  0
 39 67  2  0  0  0
 40 52  1  0  0  0
 40 53  2  0  0  0
 40 58  1  0  0  0
 41112  1  0  0  0
 41113  1  0  0  0
 41114  1  0  0  0
 41 48  1  0  0  0
 42 43  1  0  0  0
 42 66  1  0  0  0
 42115  1  0  0  0
 42116  1  0  0  0
 43 44  1  0  0  0
 44117  1  0  0  0
 45 46  2  0  0  0
 45118  1  0  0  0
 46119  1  0  0  0
 47120  1  0  0  0
 47121  1  0  0  0
 48 56  1  0  0  0
 48 65  1  0  0  0
 48122  1  0  0  0
 49 50  1  0  0  0
 49 53  1  0  0  0
 49 64  1  0  0  0
 49123  1  0  0  0
 50 51  1  0  0  0
 50124  1  0  0  0
 50125  1  0  0  0
 51 52  1  0  0  0
 51126  1  0  0  0
 51127  1  0  0  0
 52128  1  0  0  0
 52129  1  0  0  0
 53 54  1  0  0  0
 54 55  2  0  0  0
 54130  1  0  0  0
 55 57  1  0  0  0
 55131  1  0  0  0
 56 69  2  0  0  0
 57 58  2  0  0  0
 57132  1  0  0  0
 58133  1  0  0  0
 59 60  1  0  0  0
 59 61  1  0  0  0
 59 62  1  0  0  0
 60134  1  0  0  0
 60135  1  0  0  0
 60136  1  0  0  0
 61137  1  0  0  0
 61138  1  0  0  0
 61139  1  0  0  0
 62140  1  0  0  0
 62141  1  0  0  0
 62142  1  0  0  0
 63 65  1  0  0  0
 63143  1  0  0  0
 63144  1  0  0  0
 63145  1  0  0  0
 64146  1  0  0  0
 65147  1  0  0  0
 68 84  1  0  0  0
 71 73  2  0  0  0
 71 86  1  0  0  0
 71148  1  0  0  0
 72 73  1  0  0  0
 72 87  2  0  0  0
 72149  1  0  0  0
 73 85  1  0  0  0
 74 78  1  0  0  0
 74 86  2  0  0  0
 74 87  1  0  0  0
 75150  1  0  0  0
 75151  1  0  0  0
 75152  1  0  0  0
 75 85  1  0  0  0
 76 85  1  0  0  0
 76153  1  0  0  0
 76154  1  0  0  0
 76155  1  0  0  0
 77156  1  0  0  0
 77157  1  0  0  0
 77158  1  0  0  0
 77 88  1  0  0  0
 78 79  1  0  0  0
 78159  1  0  0  0
 78160  1  0  0  0
 79 80  1  0  0  0
 79161  1  0  0  0
 79162  1  0  0  0
 80 81  1  0  0  0
 80163  1  0  0  0
 80164  1  0  0  0
 81 82  1  0  0  0
 81165  1  0  0  0
 81166  1  0  0  0
 82 88  1  0  0  0
 82167  1  0  0  0
 82168  1  0  0  0
 83 84  1  0  0  0
 83 88  1  0  0  0
 83169  1  0  0  0
 83170  1  0  0  0
 84171  1  0  0  0
 84172  1  0  0  0
 88173  1  0  0  0
M  CHG  1  88   1
M  ISO  4   1 100  68 101  84 101  85 100
M  END
> <chiral flag>
0

> <version>
0

> <s_m_source_file>
/data/baiqing/PycharmProjects/Reinvent-master-3.2/result/LINK_invent/BTK/process_docking_weight1_custom_sum_contain_oxygen_bond_distance_aromatic_linkinvent_7_9_3/rearranged_h_0068.sdf

> <i_m_source_file_index>
34

> <r_mmod_Potential_Energy-OPLS-2005>
-450.124267578125

> <r_mmod_Stretch_Energy-OPLS-2005>
41.1563186645508

> <r_mmod_Bend_Energy-OPLS-2005>
116.324989318848

> <r_mmod_Torsional_Energy-OPLS-2005>
205.485824584961

> <r_mmod_Improper_Torsional_Energy-OPLS-2005>
2.27643537521362

> <r_mmod_Van_der_Waal_Energy-OPLS-2005>
169.917861938477

> <r_mmod_Electrostatic_Energy-OPLS-2005>
-599.728637695312

> <r_mmod_Solvation_Energy-OPLS-2005>
-403.207885742188

> <b_mmod_Minimization_Converged-OPLS-2005>
0

> <r_mmod_RMS_Derivative-OPLS-2005>
7.23424863815308

$$$$
35
                    3D
 Structure written by MMmdl.
189197  0  0  1  0            999 V2000
  -30.7034  -14.5626   20.6149 C   0  0  0  0  0  0
  -30.4241  -12.3797   19.4445 C   0  0  0  0  0  0
  -29.4915  -12.5168   18.2247 C   0  0  0  0  0  0
  -28.0217  -12.3464   18.6427 C   0  0  0  0  0  0
  -27.6544  -13.2159   19.8708 C   0  0  2  0  0  0
  -28.6946  -13.0602   21.0038 C   0  0  0  0  0  0
  -25.2432  -13.8106   20.5455 C   0  0  0  0  0  0
  -24.1803  -13.0400   20.9189 C   0  0  0  0  0  0
  -24.6413  -11.6884   20.8811 C   0  0  0  0  0  0
  -23.9097  -10.4282   21.0448 C   0  0  0  0  0  0
  -24.3645   -9.4193   21.9223 C   0  0  0  0  0  0
  -23.6319   -8.2236   22.0774 C   0  0  0  0  0  0
  -22.4305   -8.0277   21.3543 C   0  0  0  0  0  0
  -21.9949   -9.0260   20.4653 C   0  0  0  0  0  0
  -22.7282  -10.2136   20.3080 C   0  0  0  0  0  0
  -21.6855   -6.0743   22.5275 C   0  0  0  0  0  0
  -21.4010   -6.5654   23.8210 C   0  0  0  0  0  0
  -21.3656   -5.6802   24.9172 C   0  0  0  0  0  0
  -21.6042   -4.3059   24.7209 C   0  0  0  0  0  0
  -21.8818   -3.8164   23.4332 C   0  0  0  0  0  0
  -21.9203   -4.6984   22.3399 C   0  0  0  0  0  0
  -22.7815  -13.5181   21.1846 C   0  0  0  0  0  0
  -22.1673   -4.2180   21.0965 F   0  0  0  0  0  0
  -21.5640   -3.4538   25.7715 F   0  0  0  0  0  0
  -30.0246  -13.3823   20.4547 N   0  0  0  0  0  0
  -26.2987  -12.9360   20.3351 N   0  0  0  0  0  0
  -25.9354  -11.6521   20.5881 N   0  0  0  0  0  0
  -22.0498  -12.8190   22.0413 N   0  0  0  0  0  0
  -25.3804  -15.1780   20.3298 N   0  0  0  0  0  0
  -31.7801  -14.7685   20.0409 O   0  0  0  0  0  0
  -21.6650   -6.8885   21.4236 O   0  0  0  0  0  0
  -22.3489  -14.5500   20.6689 O   0  0  0  0  0  0
  -24.6162  -31.8669   23.2145 C   0  0  0  0  0  0
  -25.9067  -32.4786   23.8420 C   0  0  1  0  0  0
  -27.1816  -27.3667   20.1004 C   0  0  0  0  0  0
  -25.5913  -33.8602   24.2281 N   0  0  0  0  0  0
  -23.4050  -30.4972   21.5523 C   0  0  2  0  0  0
  -24.8467  -28.9804   20.0946 C   0  0  0  0  0  0
  -22.7480  -29.4589   22.4909 C   0  0  0  0  0  0
  -18.0294  -28.1360   22.8449 C   0  0  0  0  0  0
  -24.1469  -36.7294   23.2636 C   0  0  0  0  0  0
  -25.9463  -30.8042   21.3930 C   0  0  0  0  0  0
  -26.0114  -29.4438   20.7222 C   0  0  0  0  0  0
  -27.1811  -28.6390   20.7336 C   0  0  0  0  0  0
  -26.0306  -26.9924   19.3768 C   0  0  0  0  0  0
  -24.8538  -27.7535   19.4163 C   0  0  0  0  0  0
  -23.6216  -29.8626   20.1546 C   0  0  0  0  0  0
  -25.4096  -36.3061   24.0299 C   0  0  1  0  0  0
  -20.5900  -28.3625   23.1254 C   0  0  2  0  0  0
  -20.6768  -26.9342   22.5374 C   0  0  0  0  0  0
  -19.5739  -26.6356   21.5174 C   0  0  0  0  0  0
  -18.1919  -26.7905   22.1591 C   0  0  0  0  0  0
  -19.1557  -28.8826   23.2841 C   0  0  0  0  0  0
  -18.9517  -30.1439   23.8853 C   0  0  0  0  0  0
  -17.6532  -30.6569   24.0561 C   0  0  0  0  0  0
  -25.9052  -34.9436   23.5077 C   0  0  0  0  0  0
  -16.5401  -29.9086   23.6313 C   0  0  0  0  0  0
  -16.7301  -28.6513   23.0298 C   0  0  0  0  0  0
  -26.4474  -31.6636   25.0815 C   0  0  0  0  0  0
  -25.3704  -31.3827   26.1569 C   0  0  0  0  0  0
  -27.0332  -30.3067   24.6268 C   0  0  0  0  0  0
  -27.6030  -32.4438   25.7528 C   0  0  0  0  0  0
  -27.5534  -37.1770   24.8457 C   0  0  0  0  0  0
  -21.4213  -29.2999   22.3695 N   0  0  0  0  0  0
  -26.4259  -37.3765   23.9401 N   0  0  0  0  0  0
  -24.6721  -31.0737   22.1082 N   0  0  0  0  0  0
  -23.4256  -28.8082   23.2898 O   0  0  0  0  0  0
  -28.2514  -26.4877   20.2281 O   0  0  0  0  0  0
  -26.5632  -34.8873   22.4648 O   0  0  0  0  0  0
  -23.5359  -32.1488   23.7504 O   0  0  0  0  0  0
  -30.6474  -19.8580   22.3511 C   0  0  0  0  0  0
  -30.3778  -20.3671   21.0845 C   0  0  0  0  0  0
  -30.1156  -18.1380   21.0940 C   0  0  0  0  0  0
  -28.0401  -16.8558   21.3862 C   0  0  0  0  0  0
  -28.3456  -18.9323   18.4529 C   0  0  0  0  0  0
  -30.8583  -18.4856   18.0429 C   0  0  0  0  0  0
  -26.6858  -24.5525   20.8791 C   0  0  0  0  0  0
  -30.7449  -21.9404   23.8842 C   0  0  0  0  0  0
  -32.6068  -20.3357   23.8569 C   0  0  0  0  0  0
  -30.3632  -19.7220   24.8421 C   0  0  0  0  0  0
  -29.1302  -24.3532   22.3254 C   0  0  0  0  0  0
  -30.5384  -24.8862   20.3124 C   0  0  0  0  0  0
  -30.4820  -15.5175   22.8097 C   0  0  0  0  0  0
  -30.4978  -21.8052   20.5622 C   0  0  0  0  0  0
  -29.2127  -22.6830   20.3308 C   0  0  0  0  0  0
  -29.4700  -16.7656   20.8215 C   0  0  2  0  0  0
  -29.7998  -19.2797   18.8324 C   0  0  0  0  0  0
  -28.0113  -25.0277   20.1845 C   0  0  2  0  0  0
  -31.0867  -20.4599   23.6910 C   0  0  0  0  0  0
  -29.2295  -24.2152   20.7853 C   0  0  0  0  0  0
  -30.5468  -18.4722   22.2978 N   0  0  0  0  0  0
  -30.0765  -19.2356   20.2765 N   0  0  0  0  0  0
  -30.1295  -15.5309   21.3847 N   0  0  0  0  0  0
  -31.4639  -12.4947   19.1325 H   0  0  0  0  0  0
  -30.3550  -11.3775   19.8692 H   0  0  0  0  0  0
  -29.7483  -11.7736   17.4700 H   0  0  0  0  0  0
  -29.6334  -13.4915   17.7547 H   0  0  0  0  0  0
  -27.8612  -11.2921   18.8713 H   0  0  0  0  0  0
  -27.3616  -12.5778   17.8038 H   0  0  0  0  0  0
  -27.6801  -14.2532   19.5385 H   0  0  0  0  0  0
  -28.6943  -12.0435   21.3983 H   0  0  0  0  0  0
  -28.4247  -13.6954   21.8462 H   0  0  0  0  0  0
  -25.2762   -9.5685   22.4817 H   0  0  0  0  0  0
  -24.0018   -7.4623   22.7492 H   0  0  0  0  0  0
  -21.0895   -8.8789   19.8939 H   0  0  0  0  0  0
  -22.3747  -10.9693   19.6214 H   0  0  0  0  0  0
  -21.1988   -7.6155   23.9722 H   0  0  0  0  0  0
  -21.1483   -6.0522   25.9074 H   0  0  0  0  0  0
  -22.0604   -2.7625   23.2814 H   0  0  0  0  0  0
  -22.4120  -11.9836   22.4763 H   0  0  0  0  0  0
  -21.1125  -13.1223   22.2650 H   0  0  0  0  0  0
  -24.5692  -15.7852   20.3399 H   0  0  0  0  0  0
  -26.1753  -15.5889   19.8594 H   0  0  0  0  0  0
  -26.7114  -32.5439   23.1149 H   0  0  0  0  0  0
  -25.0001  -33.9814   25.0380 H   0  0  0  0  0  0
  -22.6888  -31.3117   21.4231 H   0  0  0  0  0  0
  -23.3733  -35.9632   23.3332 H   0  0  0  0  0  0
  -24.3541  -36.8941   22.2044 H   0  0  0  0  0  0
  -23.7251  -37.6492   23.6715 H   0  0  0  0  0  0
  -26.0890  -31.5813   20.6431 H   0  0  0  0  0  0
  -26.8194  -30.8324   22.0308 H   0  0  0  0  0  0
  -28.0606  -28.9684   21.2695 H   0  0  0  0  0  0
  -26.0084  -26.0866   18.7926 H   0  0  0  0  0  0
  -23.9719  -27.4082   18.8924 H   0  0  0  0  0  0
  -23.7575  -30.6632   19.4245 H   0  0  0  0  0  0
  -22.7379  -29.3131   19.8217 H   0  0  0  0  0  0
  -25.1270  -36.1876   25.0792 H   0  0  0  0  0  0
  -20.9947  -28.3192   24.1386 H   0  0  0  0  0  0
  -20.5618  -26.2253   23.3586 H   0  0  0  0  0  0
  -21.6635  -26.7321   22.1171 H   0  0  0  0  0  0
  -19.6878  -25.6276   21.1180 H   0  0  0  0  0  0
  -19.6673  -27.3185   20.6722 H   0  0  0  0  0  0
  -17.4166  -26.6646   21.4014 H   0  0  0  0  0  0
  -18.0329  -26.0036   22.8982 H   0  0  0  0  0  0
  -19.8015  -30.7243   24.2157 H   0  0  0  0  0  0
  -17.5117  -31.6233   24.5200 H   0  0  0  0  0  0
  -15.5406  -30.3002   23.7702 H   0  0  0  0  0  0
  -15.8684  -28.0903   22.6937 H   0  0  0  0  0  0
  -24.5862  -30.7161   25.7975 H   0  0  0  0  0  0
  -24.8913  -32.3024   26.4937 H   0  0  0  0  0  0
  -25.8027  -30.9082   27.0381 H   0  0  0  0  0  0
  -26.2913  -29.6828   24.1269 H   0  0  0  0  0  0
  -27.4049  -29.7319   25.4762 H   0  0  0  0  0  0
  -27.8776  -30.4425   23.9499 H   0  0  0  0  0  0
  -27.2613  -33.3782   26.1991 H   0  0  0  0  0  0
  -28.3811  -32.6943   25.0305 H   0  0  0  0  0  0
  -28.0706  -31.8669   26.5506 H   0  0  0  0  0  0
  -28.2508  -38.0091   24.7503 H   0  0  0  0  0  0
  -28.1041  -36.2609   24.6286 H   0  0  0  0  0  0
  -27.2252  -37.1444   25.8859 H   0  0  0  0  0  0
  -20.9412  -29.8858   21.7005 H   0  0  0  0  0  0
  -26.0110  -38.2794   24.1573 H   0  0  0  0  0  0
  -27.4302  -17.5747   20.8398 H   0  0  0  0  0  0
  -28.0506  -17.2025   22.4196 H   0  0  0  0  0  0
  -27.5359  -15.9001   21.3865 H   0  0  0  0  0  0
  -28.1797  -19.1000   17.3883 H   0  0  0  0  0  0
  -27.6325  -19.5549   18.9945 H   0  0  0  0  0  0
  -28.0769  -17.8964   18.6370 H   0  0  0  0  0  0
  -30.7286  -18.6239   16.9686 H   0  0  0  0  0  0
  -30.8267  -17.4159   18.2469 H   0  0  0  0  0  0
  -31.8632  -18.8319   18.2949 H   0  0  0  0  0  0
  -26.7305  -23.5216   21.2281 H   0  0  0  0  0  0
  -25.8336  -24.5563   20.2031 H   0  0  0  0  0  0
  -26.4255  -25.1608   21.7479 H   0  0  0  0  0  0
  -31.2599  -22.5842   23.1820 H   0  0  0  0  0  0
  -31.0637  -22.3010   24.8624 H   0  0  0  0  0  0
  -29.6709  -22.0946   23.8224 H   0  0  0  0  0  0
  -33.1302  -20.9303   23.1082 H   0  0  0  0  0  0
  -32.9406  -19.3038   23.7610 H   0  0  0  0  0  0
  -32.9181  -20.6964   24.8376 H   0  0  0  0  0  0
  -29.2790  -19.7995   24.7432 H   0  0  0  0  0  0
  -30.6389  -20.1246   25.8177 H   0  0  0  0  0  0
  -30.6113  -18.6616   24.8618 H   0  0  0  0  0  0
  -30.0971  -24.3888   22.8209 H   0  0  0  0  0  0
  -28.5361  -23.5529   22.7671 H   0  0  0  0  0  0
  -28.6312  -25.2800   22.6101 H   0  0  0  0  0  0
  -31.4317  -24.3958   20.6992 H   0  0  0  0  0  0
  -30.5913  -25.9187   20.6588 H   0  0  0  0  0  0
  -30.6124  -24.8888   19.2261 H   0  0  0  0  0  0
  -29.8339  -16.1575   23.4067 H   0  0  0  0  0  0
  -31.5099  -15.8550   22.9564 H   0  0  0  0  0  0
  -30.3953  -14.5119   23.2283 H   0  0  0  0  0  0
  -31.0432  -21.7828   19.6190 H   0  0  0  0  0  0
  -31.1967  -22.3318   21.1908 H   0  0  0  0  0  0
  -28.3466  -22.1623   20.7454 H   0  0  0  0  0  0
  -29.0258  -22.6594   19.2558 H   0  0  0  0  0  0
  -29.3961  -16.6170   19.7456 H   0  0  0  0  0  0
  -29.9282  -20.3111   18.5066 H   0  0  0  0  0  0
  -27.9505  -24.7622   19.1286 H   0  0  0  0  0  0
  1 25  1  0  0  0
  1 30  2  0  0  0
  1 93  1  0  0  0
  2  3  1  0  0  0
  2 25  1  0  0  0
  2 94  1  0  0  0
  2 95  1  0  0  0
  3  4  1  0  0  0
  3 96  1  0  0  0
  3 97  1  0  0  0
  4  5  1  0  0  0
  4 98  1  0  0  0
  4 99  1  0  0  0
  5  6  1  0  0  0
  5 26  1  0  0  0
  5100  1  0  0  0
  6 25  1  0  0  0
  6101  1  0  0  0
  6102  1  0  0  0
  7  8  2  0  0  0
  7 26  1  0  0  0
  7 29  1  0  0  0
  8  9  1  0  0  0
  8 22  1  0  0  0
  9 10  1  0  0  0
  9 27  2  0  0  0
 10 11  2  0  0  0
 10 15  1  0  0  0
 11 12  1  0  0  0
 11103  1  0  0  0
 12 13  2  0  0  0
 12104  1  0  0  0
 13 14  1  0  0  0
 13 31  1  0  0  0
 14 15  2  0  0  0
 14105  1  0  0  0
 15106  1  0  0  0
 16 17  2  0  0  0
 16 21  1  0  0  0
 16 31  1  0  0  0
 17 18  1  0  0  0
 17107  1  0  0  0
 18 19  2  0  0  0
 18108  1  0  0  0
 19 20  1  0  0  0
 19 24  1  0  0  0
 20 21  2  0  0  0
 20109  1  0  0  0
 21 23  1  0  0  0
 22 28  1  0  0  0
 22 32  2  0  0  0
 26 27  1  0  0  0
 28110  1  0  0  0
 28111  1  0  0  0
 29112  1  0  0  0
 29113  1  0  0  0
 33 34  1  0  0  0
 33 66  1  0  0  0
 33 70  2  0  0  0
 34 36  1  0  0  0
 34 59  1  0  0  0
 34114  1  0  0  0
 35 44  2  0  0  0
 35 45  1  0  0  0
 35 68  1  0  0  0
 36 56  1  0  0  0
 36115  1  0  0  0
 37 39  1  0  0  0
 37 47  1  0  0  0
 37 66  1  0  0  0
 37116  1  0  0  0
 38 43  2  0  0  0
 38 46  1  0  0  0
 38 47  1  0  0  0
 39 64  1  0  0  0
 39 67  2  0  0  0
 40 52  1  0  0  0
 40 53  2  0  0  0
 40 58  1  0  0  0
 41117  1  0  0  0
 41118  1  0  0  0
 41119  1  0  0  0
 41 48  1  0  0  0
 42 43  1  0  0  0
 42 66  1  0  0  0
 42120  1  0  0  0
 42121  1  0  0  0
 43 44  1  0  0  0
 44122  1  0  0  0
 45 46  2  0  0  0
 45123  1  0  0  0
 46124  1  0  0  0
 47125  1  0  0  0
 47126  1  0  0  0
 48 56  1  0  0  0
 48 65  1  0  0  0
 48127  1  0  0  0
 49 50  1  0  0  0
 49 53  1  0  0  0
 49 64  1  0  0  0
 49128  1  0  0  0
 50 51  1  0  0  0
 50129  1  0  0  0
 50130  1  0  0  0
 51 52  1  0  0  0
 51131  1  0  0  0
 51132  1  0  0  0
 52133  1  0  0  0
 52134  1  0  0  0
 53 54  1  0  0  0
 54 55  2  0  0  0
 54135  1  0  0  0
 55 57  1  0  0  0
 55136  1  0  0  0
 56 69  2  0  0  0
 57 58  2  0  0  0
 57137  1  0  0  0
 58138  1  0  0  0
 59 60  1  0  0  0
 59 61  1  0  0  0
 59 62  1  0  0  0
 60139  1  0  0  0
 60140  1  0  0  0
 60141  1  0  0  0
 61142  1  0  0  0
 61143  1  0  0  0
 61144  1  0  0  0
 62145  1  0  0  0
 62146  1  0  0  0
 62147  1  0  0  0
 63 65  1  0  0  0
 63148  1  0  0  0
 63149  1  0  0  0
 63150  1  0  0  0
 64151  1  0  0  0
 65152  1  0  0  0
 68 88  1  0  0  0
 71 72  2  0  0  0
 71 89  1  0  0  0
 71 91  1  0  0  0
 72 84  1  0  0  0
 72 92  1  0  0  0
 73 86  1  0  0  0
 73 91  2  0  0  0
 73 92  1  0  0  0
 74153  1  0  0  0
 74154  1  0  0  0
 74155  1  0  0  0
 74 86  1  0  0  0
 75156  1  0  0  0
 75157  1  0  0  0
 75158  1  0  0  0
 75 87  1  0  0  0
 76 87  1  0  0  0
 76159  1  0  0  0
 76160  1  0  0  0
 76161  1  0  0  0
 77162  1  0  0  0
 77163  1  0  0  0
 77164  1  0  0  0
 77 88  1  0  0  0
 78165  1  0  0  0
 78166  1  0  0  0
 78167  1  0  0  0
 78 89  1  0  0  0
 79 89  1  0  0  0
 79168  1  0  0  0
 79169  1  0  0  0
 79170  1  0  0  0
 80 89  1  0  0  0
 80171  1  0  0  0
 80172  1  0  0  0
 80173  1  0  0  0
 81174  1  0  0  0
 81175  1  0  0  0
 81176  1  0  0  0
 81 90  1  0  0  0
 82 90  1  0  0  0
 82177  1  0  0  0
 82178  1  0  0  0
 82179  1  0  0  0
 83 93  1  0  0  0
 83180  1  0  0  0
 83181  1  0  0  0
 83182  1  0  0  0
 84 85  1  0  0  0
 84183  1  0  0  0
 84184  1  0  0  0
 85 90  1  0  0  0
 85185  1  0  0  0
 85186  1  0  0  0
 86 93  1  0  0  0
 86187  1  0  0  0
 87 92  1  0  0  0
 87188  1  0  0  0
 88 90  1  0  0  0
 88189  1  0  0  0
M  ISO  4   1 100  68 101  88 101  93 100
M  END
> <chiral flag>
0

> <version>
0

> <s_m_source_file>
/data/baiqing/PycharmProjects/Reinvent-master-3.2/result/LINK_invent/BTK/process_docking_weight1_custom_sum_contain_oxygen_bond_distance_aromatic_linkinvent_7_9_3/rearranged_h_0068.sdf

> <i_m_source_file_index>
35

> <r_mmod_Potential_Energy-OPLS-2005>
211.519958496094

> <r_mmod_Stretch_Energy-OPLS-2005>
76.7476654052734

> <r_mmod_Bend_Energy-OPLS-2005>
169.178085327148

> <r_mmod_Torsional_Energy-OPLS-2005>
366.238372802734

> <r_mmod_Improper_Torsional_Energy-OPLS-2005>
6.00967025756836

> <r_mmod_Van_der_Waal_Energy-OPLS-2005>
153.562911987305

> <r_mmod_Electrostatic_Energy-OPLS-2005>
-426.681365966797

> <r_mmod_Solvation_Energy-OPLS-2005>
-175.716567993164

> <b_mmod_Minimization_Converged-OPLS-2005>
0

> <r_mmod_RMS_Derivative-OPLS-2005>
6.11179685592651

$$$$
36
                    3D
 Structure written by MMmdl.
176184  0  0  1  0            999 V2000
  -30.7224  -14.4129   20.5771 C   0  0  0  0  0  0
  -30.4103  -12.2744   19.4060 C   0  0  0  0  0  0
  -29.4902  -12.5140   18.1919 C   0  0  0  0  0  0
  -28.0096  -12.3890   18.6042 C   0  0  0  0  0  0
  -27.6619  -13.2116   19.8722 C   0  0  2  0  0  0
  -28.7001  -12.9725   20.9906 C   0  0  0  0  0  0
  -25.2577  -13.8173   20.5685 C   0  0  0  0  0  0
  -24.1847  -13.0446   20.9174 C   0  0  0  0  0  0
  -24.6409  -11.6903   20.8732 C   0  0  0  0  0  0
  -23.9088  -10.4301   21.0422 C   0  0  0  0  0  0
  -24.3631   -9.4222   21.9203 C   0  0  0  0  0  0
  -23.6299   -8.2259   22.0769 C   0  0  0  0  0  0
  -22.4289   -8.0297   21.3546 C   0  0  0  0  0  0
  -21.9940   -9.0278   20.4655 C   0  0  0  0  0  0
  -22.7262  -10.2152   20.3071 C   0  0  0  0  0  0
  -21.6849   -6.0747   22.5286 C   0  0  0  0  0  0
  -21.4011   -6.5648   23.8226 C   0  0  0  0  0  0
  -21.3659   -5.6799   24.9188 C   0  0  0  0  0  0
  -21.6030   -4.3061   24.7249 C   0  0  0  0  0  0
  -21.8812   -3.8153   23.4376 C   0  0  0  0  0  0
  -21.9199   -4.6969   22.3423 C   0  0  0  0  0  0
  -22.7870  -13.5240   21.1839 C   0  0  0  0  0  0
  -22.1671   -4.2148   21.1006 F   0  0  0  0  0  0
  -21.5630   -3.4549   25.7774 F   0  0  0  0  0  0
  -30.0374  -13.2488   20.4415 N   0  0  0  0  0  0
  -26.3023  -12.9363   20.3328 N   0  0  0  0  0  0
  -25.9323  -11.6518   20.5712 N   0  0  0  0  0  0
  -22.0522  -12.8228   22.0382 N   0  0  0  0  0  0
  -25.4306  -15.1893   20.4099 N   0  0  0  0  0  0
  -31.8400  -14.5955   20.0885 O   0  0  0  0  0  0
  -21.6631   -6.8901   21.4256 O   0  0  0  0  0  0
  -22.3559  -14.5558   20.6695 O   0  0  0  0  0  0
  -24.6089  -31.8711   23.2143 C   0  0  0  0  0  0
  -25.9003  -32.4848   23.8406 C   0  0  1  0  0  0
  -27.2328  -27.4669   20.0933 C   0  0  0  0  0  0
  -25.5871  -33.8643   24.2330 N   0  0  0  0  0  0
  -23.3934  -30.4975   21.5531 C   0  0  2  0  0  0
  -24.8384  -28.9605   20.1212 C   0  0  0  0  0  0
  -22.7353  -29.4681   22.4992 C   0  0  0  0  0  0
  -18.0255  -28.1398   22.8490 C   0  0  0  0  0  0
  -24.1487  -36.7319   23.2644 C   0  0  0  0  0  0
  -25.9189  -30.8465   21.3611 C   0  0  0  0  0  0
  -25.9946  -29.4816   20.7131 C   0  0  0  0  0  0
  -27.1923  -28.7404   20.6955 C   0  0  0  0  0  0
  -26.0580  -26.9434   19.5070 C   0  0  0  0  0  0
  -24.8616  -27.6877   19.5226 C   0  0  0  0  0  0
  -23.6030  -29.8312   20.1659 C   0  0  0  0  0  0
  -25.4113  -36.3126   24.0334 C   0  0  1  0  0  0
  -20.5837  -28.3664   23.1345 C   0  0  2  0  0  0
  -20.6754  -26.9407   22.5435 C   0  0  0  0  0  0
  -19.5738  -26.6399   21.5224 C   0  0  0  0  0  0
  -18.1911  -26.7951   22.1620 C   0  0  0  0  0  0
  -19.1503  -28.8850   23.2920 C   0  0  0  0  0  0
  -18.9438  -30.1461   23.8928 C   0  0  0  0  0  0
  -17.6442  -30.6607   24.0589 C   0  0  0  0  0  0
  -25.9034  -34.9486   23.5132 C   0  0  0  0  0  0
  -16.5332  -29.9121   23.6329 C   0  0  0  0  0  0
  -16.7246  -28.6545   23.0330 C   0  0  0  0  0  0
  -26.4456  -31.6620   25.0713 C   0  0  0  0  0  0
  -25.3735  -31.3697   26.1463 C   0  0  0  0  0  0
  -27.0300  -30.3079   24.6066 C   0  0  0  0  0  0
  -27.6046  -32.4331   25.7470 C   0  0  0  0  0  0
  -27.5587  -37.1813   24.8461 C   0  0  0  0  0  0
  -21.4085  -29.3034   22.3740 N   0  0  0  0  0  0
  -26.4299  -37.3809   23.9407 N   0  0  0  0  0  0
  -24.6587  -31.0848   22.1032 N   0  0  0  0  0  0
  -23.4155  -28.8213   23.2999 O   0  0  0  0  0  0
  -28.4436  -26.8209   20.0665 O   0  0  0  0  0  0
  -26.5601  -34.8937   22.4693 O   0  0  0  0  0  0
  -23.5294  -32.1430   23.7581 O   0  0  0  0  0  0
  -32.1288  -21.2045   19.1864 C   0  0  0  0  0  0
  -30.7420  -21.2973   19.3498 C   0  0  0  0  0  0
  -32.7027  -19.9668   19.4839 C   0  0  0  0  0  0
  -30.6505  -19.0856   19.9858 C   0  0  0  0  0  0
  -37.2714  -17.2835   17.9118 C   0  0  0  0  0  0
  -29.7415  -17.1032   18.7376 C   0  0  0  0  0  0
  -28.4170  -18.0729   20.6496 C   0  0  0  0  0  0
  -30.0358  -22.6311   19.1611 C   0  0  0  0  0  0
  -35.9388  -18.0212   18.0661 C   0  0  0  0  0  0
  -30.4245  -23.6506   20.2517 C   0  0  0  0  0  0
  -36.1195  -19.5292   18.3113 C   0  0  0  0  0  0
  -29.9965  -25.0946   19.9470 C   0  0  0  0  0  0
  -30.5142  -16.8171   21.1867 C   0  0  0  0  0  0
  -28.4960  -25.4008   20.0625 C   0  0  0  0  0  0
  -34.7808  -20.2785   18.3914 C   0  0  0  0  0  0
  -29.8424  -17.7716   20.1314 C   0  0  0  0  0  0
  -30.0073  -20.2287   19.7239 N   0  0  0  0  0  0
  -31.9635  -18.9319   19.8786 N   0  0  0  0  0  0
  -30.0458  -15.4194   21.1511 N   0  0  0  0  0  0
  -34.0378  -19.6772   19.4347 O   0  0  0  0  0  0
  -31.4562  -12.3540   19.1028 H   0  0  0  0  0  0
  -30.2863  -11.2580   19.7870 H   0  0  0  0  0  0
  -29.7222  -11.8052   17.3955 H   0  0  0  0  0  0
  -29.6712  -13.5050   17.7717 H   0  0  0  0  0  0
  -27.8028  -11.3346   18.7824 H   0  0  0  0  0  0
  -27.3672  -12.6896   17.7772 H   0  0  0  0  0  0
  -27.7134  -14.2621   19.5839 H   0  0  0  0  0  0
  -28.6576  -11.9362   21.3292 H   0  0  0  0  0  0
  -28.4684  -13.5781   21.8662 H   0  0  0  0  0  0
  -25.2783   -9.5669   22.4775 H   0  0  0  0  0  0
  -23.9998   -7.4643   22.7472 H   0  0  0  0  0  0
  -21.0883   -8.8818   19.8943 H   0  0  0  0  0  0
  -22.3751  -10.9713   19.6188 H   0  0  0  0  0  0
  -21.1993   -7.6154   23.9739 H   0  0  0  0  0  0
  -21.1477   -6.0531   25.9094 H   0  0  0  0  0  0
  -22.0590   -2.7614   23.2887 H   0  0  0  0  0  0
  -22.4119  -11.9875   22.4746 H   0  0  0  0  0  0
  -21.1145  -13.1266   22.2586 H   0  0  0  0  0  0
  -24.6619  -15.8439   20.5031 H   0  0  0  0  0  0
  -26.2794  -15.6242   20.0728 H   0  0  0  0  0  0
  -26.7066  -32.5581   23.1168 H   0  0  0  0  0  0
  -25.0019  -33.9813   25.0476 H   0  0  0  0  0  0
  -22.6810  -31.3131   21.4160 H   0  0  0  0  0  0
  -23.3755  -35.9645   23.3313 H   0  0  0  0  0  0
  -24.3583  -36.8932   22.2056 H   0  0  0  0  0  0
  -23.7225  -37.6519   23.6658 H   0  0  0  0  0  0
  -26.0218  -31.6139   20.5928 H   0  0  0  0  0  0
  -26.8110  -30.9043   21.9731 H   0  0  0  0  0  0
  -28.0895  -29.1456   21.1425 H   0  0  0  0  0  0
  -26.0569  -25.9831   19.0140 H   0  0  0  0  0  0
  -23.9689  -27.2810   19.0667 H   0  0  0  0  0  0
  -23.7255  -30.6111   19.4132 H   0  0  0  0  0  0
  -22.7244  -29.2602   19.8590 H   0  0  0  0  0  0
  -25.1296  -36.1997   25.0832 H   0  0  0  0  0  0
  -20.9929  -28.3235   24.1466 H   0  0  0  0  0  0
  -20.5674  -26.2255   23.3607 H   0  0  0  0  0  0
  -21.6627  -26.7479   22.1221 H   0  0  0  0  0  0
  -19.6910  -25.6314   21.1252 H   0  0  0  0  0  0
  -19.6714  -27.3216   20.6760 H   0  0  0  0  0  0
  -17.4183  -26.6688   21.4026 H   0  0  0  0  0  0
  -18.0324  -26.0103   22.9028 H   0  0  0  0  0  0
  -19.7916  -30.7277   24.2302 H   0  0  0  0  0  0
  -17.5006  -31.6292   24.5184 H   0  0  0  0  0  0
  -15.5342  -30.3046   23.7661 H   0  0  0  0  0  0
  -15.8634  -28.0919   22.6990 H   0  0  0  0  0  0
  -24.5878  -30.7102   25.7762 H   0  0  0  0  0  0
  -24.8971  -32.2856   26.4977 H   0  0  0  0  0  0
  -25.8090  -30.8782   27.0170 H   0  0  0  0  0  0
  -26.2841  -29.6822   24.1156 H   0  0  0  0  0  0
  -27.4127  -29.7336   25.4511 H   0  0  0  0  0  0
  -27.8644  -30.4421   23.9176 H   0  0  0  0  0  0
  -27.2666  -33.3594   26.2122 H   0  0  0  0  0  0
  -28.3815  -32.6941   25.0276 H   0  0  0  0  0  0
  -28.0753  -31.8402   26.5320 H   0  0  0  0  0  0
  -28.2601  -38.0113   24.7531 H   0  0  0  0  0  0
  -28.1079  -36.2647   24.6267 H   0  0  0  0  0  0
  -27.2295  -37.1443   25.8858 H   0  0  0  0  0  0
  -20.9218  -29.8748   21.6976 H   0  0  0  0  0  0
  -26.0188  -38.2882   24.1432 H   0  0  0  0  0  0
  -32.7183  -22.0583   18.8789 H   0  0  0  0  0  0
  -37.1110  -16.2103   17.8013 H   0  0  0  0  0  0
  -37.9126  -17.4348   18.7803 H   0  0  0  0  0  0
  -37.8143  -17.6320   17.0322 H   0  0  0  0  0  0
  -29.3190  -17.7870   17.9977 H   0  0  0  0  0  0
  -29.1080  -16.2174   18.7538 H   0  0  0  0  0  0
  -30.7215  -16.7929   18.3750 H   0  0  0  0  0  0
  -27.8548  -18.6859   19.9454 H   0  0  0  0  0  0
  -28.4450  -18.6191   21.5933 H   0  0  0  0  0  0
  -27.8429  -17.1615   20.8031 H   0  0  0  0  0  0
  -28.9542  -22.4882   19.1501 H   0  0  0  0  0  0
  -30.3059  -23.0129   18.1757 H   0  0  0  0  0  0
  -35.3888  -17.5765   18.8967 H   0  0  0  0  0  0
  -35.3260  -17.8608   17.1789 H   0  0  0  0  0  0
  -31.5132  -23.6689   20.3287 H   0  0  0  0  0  0
  -30.0746  -23.3304   21.2346 H   0  0  0  0  0  0
  -36.7265  -19.9665   17.5180 H   0  0  0  0  0  0
  -36.6680  -19.6819   19.2410 H   0  0  0  0  0  0
  -30.3377  -25.3692   18.9472 H   0  0  0  0  0  0
  -30.5301  -25.7531   20.6346 H   0  0  0  0  0  0
  -30.3693  -17.2097   22.1937 H   0  0  0  0  0  0
  -31.5963  -16.8073   21.0613 H   0  0  0  0  0  0
  -28.0797  -25.0094   20.9942 H   0  0  0  0  0  0
  -27.9592  -24.9539   19.2259 H   0  0  0  0  0  0
  -34.2475  -20.2058   17.4414 H   0  0  0  0  0  0
  -34.9417  -21.3341   18.6078 H   0  0  0  0  0  0
  -29.1285  -15.2140   21.5189 H   0  0  0  0  0  0
  1 25  1  0  0  0
  1 30  2  0  0  0
  1 89  1  0  0  0
  2  3  1  0  0  0
  2 25  1  0  0  0
  2 91  1  0  0  0
  2 92  1  0  0  0
  3  4  1  0  0  0
  3 93  1  0  0  0
  3 94  1  0  0  0
  4  5  1  0  0  0
  4 95  1  0  0  0
  4 96  1  0  0  0
  5  6  1  0  0  0
  5 26  1  0  0  0
  5 97  1  0  0  0
  6 25  1  0  0  0
  6 98  1  0  0  0
  6 99  1  0  0  0
  7  8  2  0  0  0
  7 26  1  0  0  0
  7 29  1  0  0  0
  8  9  1  0  0  0
  8 22  1  0  0  0
  9 10  1  0  0  0
  9 27  2  0  0  0
 10 11  2  0  0  0
 10 15  1  0  0  0
 11 12  1  0  0  0
 11100  1  0  0  0
 12 13  2  0  0  0
 12101  1  0  0  0
 13 14  1  0  0  0
 13 31  1  0  0  0
 14 15  2  0  0  0
 14102  1  0  0  0
 15103  1  0  0  0
 16 17  2  0  0  0
 16 21  1  0  0  0
 16 31  1  0  0  0
 17 18  1  0  0  0
 17104  1  0  0  0
 18 19  2  0  0  0
 18105  1  0  0  0
 19 20  1  0  0  0
 19 24  1  0  0  0
 20 21  2  0  0  0
 20106  1  0  0  0
 21 23  1  0  0  0
 22 28  1  0  0  0
 22 32  2  0  0  0
 26 27  1  0  0  0
 28107  1  0  0  0
 28108  1  0  0  0
 29109  1  0  0  0
 29110  1  0  0  0
 33 34  1  0  0  0
 33 66  1  0  0  0
 33 70  2  0  0  0
 34 36  1  0  0  0
 34 59  1  0  0  0
 34111  1  0  0  0
 35 44  2  0  0  0
 35 45  1  0  0  0
 35 68  1  0  0  0
 36 56  1  0  0  0
 36112  1  0  0  0
 37 39  1  0  0  0
 37 47  1  0  0  0
 37 66  1  0  0  0
 37113  1  0  0  0
 38 43  2  0  0  0
 38 46  1  0  0  0
 38 47  1  0  0  0
 39 64  1  0  0  0
 39 67  2  0  0  0
 40 52  1  0  0  0
 40 53  2  0  0  0
 40 58  1  0  0  0
 41114  1  0  0  0
 41115  1  0  0  0
 41116  1  0  0  0
 41 48  1  0  0  0
 42 43  1  0  0  0
 42 66  1  0  0  0
 42117  1  0  0  0
 42118  1  0  0  0
 43 44  1  0  0  0
 44119  1  0  0  0
 45 46  2  0  0  0
 45120  1  0  0  0
 46121  1  0  0  0
 47122  1  0  0  0
 47123  1  0  0  0
 48 56  1  0  0  0
 48 65  1  0  0  0
 48124  1  0  0  0
 49 50  1  0  0  0
 49 53  1  0  0  0
 49 64  1  0  0  0
 49125  1  0  0  0
 50 51  1  0  0  0
 50126  1  0  0  0
 50127  1  0  0  0
 51 52  1  0  0  0
 51128  1  0  0  0
 51129  1  0  0  0
 52130  1  0  0  0
 52131  1  0  0  0
 53 54  1  0  0  0
 54 55  2  0  0  0
 54132  1  0  0  0
 55 57  1  0  0  0
 55133  1  0  0  0
 56 69  2  0  0  0
 57 58  2  0  0  0
 57134  1  0  0  0
 58135  1  0  0  0
 59 60  1  0  0  0
 59 61  1  0  0  0
 59 62  1  0  0  0
 60136  1  0  0  0
 60137  1  0  0  0
 60138  1  0  0  0
 61139  1  0  0  0
 61140  1  0  0  0
 61141  1  0  0  0
 62142  1  0  0  0
 62143  1  0  0  0
 62144  1  0  0  0
 63 65  1  0  0  0
 63145  1  0  0  0
 63146  1  0  0  0
 63147  1  0  0  0
 64148  1  0  0  0
 65149  1  0  0  0
 68 84  1  0  0  0
 71 72  2  0  0  0
 71 73  1  0  0  0
 71150  1  0  0  0
 72 78  1  0  0  0
 72 87  1  0  0  0
 73 88  2  0  0  0
 73 90  1  0  0  0
 74 86  1  0  0  0
 74 87  2  0  0  0
 74 88  1  0  0  0
 75 79  1  0  0  0
 75151  1  0  0  0
 75152  1  0  0  0
 75153  1  0  0  0
 76154  1  0  0  0
 76155  1  0  0  0
 76156  1  0  0  0
 76 86  1  0  0  0
 77 86  1  0  0  0
 77157  1  0  0  0
 77158  1  0  0  0
 77159  1  0  0  0
 78 80  1  0  0  0
 78160  1  0  0  0
 78161  1  0  0  0
 79 81  1  0  0  0
 79162  1  0  0  0
 79163  1  0  0  0
 80 82  1  0  0  0
 80164  1  0  0  0
 80165  1  0  0  0
 81 85  1  0  0  0
 81166  1  0  0  0
 81167  1  0  0  0
 82 84  1  0  0  0
 82168  1  0  0  0
 82169  1  0  0  0
 83 86  1  0  0  0
 83 89  1  0  0  0
 83170  1  0  0  0
 83171  1  0  0  0
 84172  1  0  0  0
 84173  1  0  0  0
 85 90  1  0  0  0
 85174  1  0  0  0
 85175  1  0  0  0
 89176  1  0  0  0
M  ISO  4   1 100  68 101  84 101  89 100
M  END
> <chiral flag>
0

> <version>
0

> <s_m_source_file>
/data/baiqing/PycharmProjects/Reinvent-master-3.2/result/LINK_invent/BTK/process_docking_weight1_custom_sum_contain_oxygen_bond_distance_aromatic_linkinvent_7_9_3/rearranged_h_0068.sdf

> <i_m_source_file_index>
36

> <r_mmod_Potential_Energy-OPLS-2005>
-516.957946777344

> <r_mmod_Stretch_Energy-OPLS-2005>
35.8914489746094

> <r_mmod_Bend_Energy-OPLS-2005>
116.858978271484

> <r_mmod_Torsional_Energy-OPLS-2005>
213.453048706055

> <r_mmod_Improper_Torsional_Energy-OPLS-2005>
5.3429799079895

> <r_mmod_Van_der_Waal_Energy-OPLS-2005>
170.152526855469

> <r_mmod_Electrostatic_Energy-OPLS-2005>
-842.984619140625

> <r_mmod_Solvation_Energy-OPLS-2005>
-225.519836425781

> <b_mmod_Minimization_Converged-OPLS-2005>
0

> <r_mmod_RMS_Derivative-OPLS-2005>
3.67648410797119

$$$$
37
                    3D
 Structure written by MMmdl.
165173  0  0  1  0            999 V2000
  -30.6218  -14.7119   20.5037 C   0  0  0  0  0  0
  -30.4359  -12.4481   19.4580 C   0  0  0  0  0  0
  -29.5061  -12.5372   18.2256 C   0  0  0  0  0  0
  -28.0248  -12.3728   18.6247 C   0  0  0  0  0  0
  -27.6473  -13.2183   19.8694 C   0  0  2  0  0  0
  -28.6984  -13.0534   20.9849 C   0  0  0  0  0  0
  -25.2536  -13.8157   20.5688 C   0  0  0  0  0  0
  -24.1813  -13.0423   20.9188 C   0  0  0  0  0  0
  -24.6388  -11.6890   20.8752 C   0  0  0  0  0  0
  -23.9063  -10.4275   21.0435 C   0  0  0  0  0  0
  -24.3613   -9.4176   21.9204 C   0  0  0  0  0  0
  -23.6274   -8.2215   22.0757 C   0  0  0  0  0  0
  -22.4248   -8.0268   21.3548 C   0  0  0  0  0  0
  -21.9905   -9.0250   20.4649 C   0  0  0  0  0  0
  -22.7246  -10.2123   20.3068 C   0  0  0  0  0  0
  -21.6831   -6.0722   22.5281 C   0  0  0  0  0  0
  -21.4006   -6.5638   23.8213 C   0  0  0  0  0  0
  -21.3666   -5.6795   24.9183 C   0  0  0  0  0  0
  -21.6047   -4.3054   24.7231 C   0  0  0  0  0  0
  -21.8819   -3.8141   23.4356 C   0  0  0  0  0  0
  -21.9186   -4.6954   22.3408 C   0  0  0  0  0  0
  -22.7844  -13.5207   21.1868 C   0  0  0  0  0  0
  -22.1655   -4.2141   21.0986 F   0  0  0  0  0  0
  -21.5647   -3.4540   25.7747 F   0  0  0  0  0  0
  -29.9933  -13.4790   20.4339 N   0  0  0  0  0  0
  -26.2959  -12.9333   20.3357 N   0  0  0  0  0  0
  -25.9313  -11.6484   20.5768 N   0  0  0  0  0  0
  -22.0504  -12.8177   22.0415 N   0  0  0  0  0  0
  -25.4293  -15.1876   20.4085 N   0  0  0  0  0  0
  -31.7880  -14.7611   20.0921 O   0  0  0  0  0  0
  -21.6611   -6.8863   21.4236 O   0  0  0  0  0  0
  -22.3526  -14.5528   20.6730 O   0  0  0  0  0  0
  -24.6250  -31.8593   23.1995 C   0  0  0  0  0  0
  -25.9091  -32.4777   23.8339 C   0  0  1  0  0  0
  -27.2271  -27.3107   20.1305 C   0  0  0  0  0  0
  -25.5906  -33.8586   24.2245 N   0  0  0  0  0  0
  -23.4209  -30.4772   21.5431 C   0  0  2  0  0  0
  -24.8688  -28.9230   20.1176 C   0  0  0  0  0  0
  -22.7458  -29.4615   22.4952 C   0  0  0  0  0  0
  -18.0279  -28.1383   22.8482 C   0  0  0  0  0  0
  -24.1491  -36.7319   23.2634 C   0  0  0  0  0  0
  -25.9609  -30.7853   21.3745 C   0  0  0  0  0  0
  -26.0369  -29.4100   20.7200 C   0  0  0  0  0  0
  -27.2224  -28.6169   20.7099 C   0  0  0  0  0  0
  -26.0376  -26.8650   19.5197 C   0  0  0  0  0  0
  -24.8704  -27.6551   19.5100 C   0  0  0  0  0  0
  -23.6362  -29.8034   20.1621 C   0  0  0  0  0  0
  -25.4124  -36.3089   24.0308 C   0  0  1  0  0  0
  -20.5872  -28.3691   23.1296 C   0  0  2  0  0  0
  -20.6778  -26.9424   22.5414 C   0  0  0  0  0  0
  -19.5760  -26.6384   21.5212 C   0  0  0  0  0  0
  -18.1935  -26.7929   22.1611 C   0  0  0  0  0  0
  -19.1527  -28.8850   23.2877 C   0  0  0  0  0  0
  -18.9455  -30.1448   23.8903 C   0  0  0  0  0  0
  -17.6461  -30.6592   24.0558 C   0  0  0  0  0  0
  -25.9056  -34.9459   23.5074 C   0  0  0  0  0  0
  -16.5348  -29.9095   23.6331 C   0  0  0  0  0  0
  -16.7267  -28.6501   23.0366 C   0  0  0  0  0  0
  -26.4478  -31.6611   25.0726 C   0  0  0  0  0  0
  -25.3684  -31.3800   26.1431 C   0  0  0  0  0  0
  -27.0342  -30.3023   24.6229 C   0  0  0  0  0  0
  -27.5997  -32.4387   25.7528 C   0  0  0  0  0  0
  -27.5591  -37.1811   24.8448 C   0  0  0  0  0  0
  -21.4172  -29.3045   22.3688 N   0  0  0  0  0  0
  -26.4304  -37.3778   23.9388 N   0  0  0  0  0  0
  -24.6877  -31.0578   22.0960 N   0  0  0  0  0  0
  -23.4172  -28.8165   23.3046 O   0  0  0  0  0  0
  -28.3529  -26.4775   20.1170 O   0  0  0  0  0  0
  -26.5637  -34.8920   22.4649 O   0  0  0  0  0  0
  -23.5405  -32.1427   23.7294 O   0  0  0  0  0  0
  -28.4039  -17.2685   17.9828 C   0  0  0  0  0  0
  -29.1414  -18.3682   19.6046 C   0  0  0  0  0  0
  -27.7098  -16.9235   16.7113 C   0  0  0  0  0  0
  -30.0129  -24.1780   19.0547 C   0  0  0  0  0  0
  -31.1313  -16.9437   21.6301 C   0  0  0  0  0  0
  -28.8784  -16.0346   22.0235 C   0  0  0  0  0  0
  -29.3496  -19.6460   20.4748 C   0  0  0  0  0  0
  -28.9741  -21.0605   19.7813 C   0  0  0  0  0  0
  -28.9183  -22.4375   20.6017 C   0  0  0  0  0  0
  -28.2407  -25.1028   20.6664 C   0  0  0  0  0  0
  -28.7216  -23.8317   19.8138 C   0  0  1  0  0  0
  -29.9830  -16.1527   20.9531 C   0  0  0  0  0  0
  -28.5234  -18.5398   18.4330 N   0  0  0  0  0  0
  -28.9163  -16.3345   18.7674 N   0  0  0  0  0  0
  -29.4334  -17.0179   19.8272 N   0  0  0  0  0  0
  -31.4719  -12.5810   19.1418 H   0  0  0  0  0  0
  -30.3992  -11.4521   19.9023 H   0  0  0  0  0  0
  -29.7824  -11.7855   17.4847 H   0  0  0  0  0  0
  -29.6431  -13.5075   17.7450 H   0  0  0  0  0  0
  -27.8480  -11.3159   18.8266 H   0  0  0  0  0  0
  -27.3774  -12.6378   17.7875 H   0  0  0  0  0  0
  -27.6596  -14.2562   19.5527 H   0  0  0  0  0  0
  -28.7487  -12.0050   21.2862 H   0  0  0  0  0  0
  -28.4223  -13.5648   21.8992 H   0  0  0  0  0  0
  -25.2764   -9.5619   22.4786 H   0  0  0  0  0  0
  -23.9972   -7.4582   22.7456 H   0  0  0  0  0  0
  -21.0844   -8.8771   19.8938 H   0  0  0  0  0  0
  -22.3723  -10.9666   19.6172 H   0  0  0  0  0  0
  -21.1989   -7.6146   23.9713 H   0  0  0  0  0  0
  -21.1505   -6.0532   25.9088 H   0  0  0  0  0  0
  -22.0595   -2.7602   23.2853 H   0  0  0  0  0  0
  -22.4121  -11.9799   22.4726 H   0  0  0  0  0  0
  -21.1158  -13.1225   22.2718 H   0  0  0  0  0  0
  -24.6736  -15.8544   20.5200 H   0  0  0  0  0  0
  -26.2892  -15.6087   20.0807 H   0  0  0  0  0  0
  -26.7149  -32.5440   23.1084 H   0  0  0  0  0  0
  -24.9988  -33.9748   25.0341 H   0  0  0  0  0  0
  -22.7131  -31.2952   21.3956 H   0  0  0  0  0  0
  -23.3746  -35.9657   23.3293 H   0  0  0  0  0  0
  -24.3549  -36.8969   22.2043 H   0  0  0  0  0  0
  -23.7256  -37.6516   23.6684 H   0  0  0  0  0  0
  -26.0897  -31.5464   20.6043 H   0  0  0  0  0  0
  -26.8406  -30.8344   22.0059 H   0  0  0  0  0  0
  -28.1249  -28.9874   21.1770 H   0  0  0  0  0  0
  -26.0088  -25.8886   19.0562 H   0  0  0  0  0  0
  -23.9730  -27.2732   19.0433 H   0  0  0  0  0  0
  -23.7546  -30.5764   19.4025 H   0  0  0  0  0  0
  -22.7570  -29.2288   19.8634 H   0  0  0  0  0  0
  -25.1313  -36.1939   25.0803 H   0  0  0  0  0  0
  -20.9930  -28.3271   24.1429 H   0  0  0  0  0  0
  -20.5700  -26.2303   23.3609 H   0  0  0  0  0  0
  -21.6652  -26.7490   22.1201 H   0  0  0  0  0  0
  -19.6939  -25.6291   21.1261 H   0  0  0  0  0  0
  -19.6708  -27.3167   20.6718 H   0  0  0  0  0  0
  -17.4215  -26.6664   21.4006 H   0  0  0  0  0  0
  -18.0331  -26.0080   22.9008 H   0  0  0  0  0  0
  -19.7935  -30.7243   24.2286 H   0  0  0  0  0  0
  -17.5032  -31.6275   24.5147 H   0  0  0  0  0  0
  -15.5349  -30.3002   23.7659 H   0  0  0  0  0  0
  -15.8663  -28.0810   22.7113 H   0  0  0  0  0  0
  -24.5804  -30.7229   25.7743 H   0  0  0  0  0  0
  -24.8944  -32.3005   26.4850 H   0  0  0  0  0  0
  -25.7953  -30.8946   27.0215 H   0  0  0  0  0  0
  -26.2962  -29.6771   24.1187 H   0  0  0  0  0  0
  -27.3945  -29.7277   25.4778 H   0  0  0  0  0  0
  -27.8864  -30.4297   23.9547 H   0  0  0  0  0  0
  -27.2543  -33.3661   26.2119 H   0  0  0  0  0  0
  -28.3807  -32.7010   25.0380 H   0  0  0  0  0  0
  -28.0680  -31.8537   26.5454 H   0  0  0  0  0  0
  -28.2581  -38.0135   24.7510 H   0  0  0  0  0  0
  -28.1120  -36.2659   24.6268 H   0  0  0  0  0  0
  -27.2301  -37.1442   25.8848 H   0  0  0  0  0  0
  -20.9341  -29.8743   21.6884 H   0  0  0  0  0  0
  -26.0192  -38.2856   24.1385 H   0  0  0  0  0  0
  -27.3832  -17.8252   16.1934 H   0  0  0  0  0  0
  -26.8327  -16.3089   16.9130 H   0  0  0  0  0  0
  -28.3755  -16.3739   16.0472 H   0  0  0  0  0  0
  -30.3087  -23.3770   18.3769 H   0  0  0  0  0  0
  -30.8426  -24.3560   19.7383 H   0  0  0  0  0  0
  -29.8868  -25.0786   18.4521 H   0  0  0  0  0  0
  -30.7747  -17.8373   22.1391 H   0  0  0  0  0  0
  -31.8839  -17.2622   20.9079 H   0  0  0  0  0  0
  -31.6353  -16.3404   22.3863 H   0  0  0  0  0  0
  -28.6383  -17.0073   22.4545 H   0  0  0  0  0  0
  -29.1846  -15.3988   22.8536 H   0  0  0  0  0  0
  -27.9443  -15.6619   21.6083 H   0  0  0  0  0  0
  -30.3937  -19.6800   20.7840 H   0  0  0  0  0  0
  -28.7641  -19.5198   21.3855 H   0  0  0  0  0  0
  -27.9837  -20.9545   19.3393 H   0  0  0  0  0  0
  -29.6451  -21.1924   18.9332 H   0  0  0  0  0  0
  -29.8277  -22.5119   21.1993 H   0  0  0  0  0  0
  -28.1108  -22.3479   21.3279 H   0  0  0  0  0  0
  -28.8336  -25.1204   21.5812 H   0  0  0  0  0  0
  -27.2210  -24.9213   21.0090 H   0  0  0  0  0  0
  -27.9492  -23.6705   19.0609 H   0  0  0  0  0  0
  1 25  1  0  0  0
  1 30  2  0  0  0
  1 82  1  0  0  0
  2  3  1  0  0  0
  2 25  1  0  0  0
  2 86  1  0  0  0
  2 87  1  0  0  0
  3  4  1  0  0  0
  3 88  1  0  0  0
  3 89  1  0  0  0
  4  5  1  0  0  0
  4 90  1  0  0  0
  4 91  1  0  0  0
  5  6  1  0  0  0
  5 26  1  0  0  0
  5 92  1  0  0  0
  6 25  1  0  0  0
  6 93  1  0  0  0
  6 94  1  0  0  0
  7  8  2  0  0  0
  7 26  1  0  0  0
  7 29  1  0  0  0
  8  9  1  0  0  0
  8 22  1  0  0  0
  9 10  1  0  0  0
  9 27  2  0  0  0
 10 11  2  0  0  0
 10 15  1  0  0  0
 11 12  1  0  0  0
 11 95  1  0  0  0
 12 13  2  0  0  0
 12 96  1  0  0  0
 13 14  1  0  0  0
 13 31  1  0  0  0
 14 15  2  0  0  0
 14 97  1  0  0  0
 15 98  1  0  0  0
 16 17  2  0  0  0
 16 21  1  0  0  0
 16 31  1  0  0  0
 17 18  1  0  0  0
 17 99  1  0  0  0
 18 19  2  0  0  0
 18100  1  0  0  0
 19 20  1  0  0  0
 19 24  1  0  0  0
 20 21  2  0  0  0
 20101  1  0  0  0
 21 23  1  0  0  0
 22 28  1  0  0  0
 22 32  2  0  0  0
 26 27  1  0  0  0
 28102  1  0  0  0
 28103  1  0  0  0
 29104  1  0  0  0
 29105  1  0  0  0
 33 34  1  0  0  0
 33 66  1  0  0  0
 33 70  2  0  0  0
 34 36  1  0  0  0
 34 59  1  0  0  0
 34106  1  0  0  0
 35 44  2  0  0  0
 35 45  1  0  0  0
 35 68  1  0  0  0
 36 56  1  0  0  0
 36107  1  0  0  0
 37 39  1  0  0  0
 37 47  1  0  0  0
 37 66  1  0  0  0
 37108  1  0  0  0
 38 43  2  0  0  0
 38 46  1  0  0  0
 38 47  1  0  0  0
 39 64  1  0  0  0
 39 67  2  0  0  0
 40 52  1  0  0  0
 40 53  2  0  0  0
 40 58  1  0  0  0
 41109  1  0  0  0
 41110  1  0  0  0
 41111  1  0  0  0
 41 48  1  0  0  0
 42 43  1  0  0  0
 42 66  1  0  0  0
 42112  1  0  0  0
 42113  1  0  0  0
 43 44  1  0  0  0
 44114  1  0  0  0
 45 46  2  0  0  0
 45115  1  0  0  0
 46116  1  0  0  0
 47117  1  0  0  0
 47118  1  0  0  0
 48 56  1  0  0  0
 48 65  1  0  0  0
 48119  1  0  0  0
 49 50  1  0  0  0
 49 53  1  0  0  0
 49 64  1  0  0  0
 49120  1  0  0  0
 50 51  1  0  0  0
 50121  1  0  0  0
 50122  1  0  0  0
 51 52  1  0  0  0
 51123  1  0  0  0
 51124  1  0  0  0
 52125  1  0  0  0
 52126  1  0  0  0
 53 54  1  0  0  0
 54 55  2  0  0  0
 54127  1  0  0  0
 55 57  1  0  0  0
 55128  1  0  0  0
 56 69  2  0  0  0
 57 58  2  0  0  0
 57129  1  0  0  0
 58130  1  0  0  0
 59 60  1  0  0  0
 59 61  1  0  0  0
 59 62  1  0  0  0
 60131  1  0  0  0
 60132  1  0  0  0
 60133  1  0  0  0
 61134  1  0  0  0
 61135  1  0  0  0
 61136  1  0  0  0
 62137  1  0  0  0
 62138  1  0  0  0
 62139  1  0  0  0
 63 65  1  0  0  0
 63140  1  0  0  0
 63141  1  0  0  0
 63142  1  0  0  0
 64143  1  0  0  0
 65144  1  0  0  0
 68 80  1  0  0  0
 71 73  1  0  0  0
 71 83  1  0  0  0
 71 84  2  0  0  0
 72 77  1  0  0  0
 72 83  2  0  0  0
 72 85  1  0  0  0
 73145  1  0  0  0
 73146  1  0  0  0
 73147  1  0  0  0
 74148  1  0  0  0
 74149  1  0  0  0
 74150  1  0  0  0
 74 81  1  0  0  0
 75151  1  0  0  0
 75152  1  0  0  0
 75153  1  0  0  0
 75 82  1  0  0  0
 76 82  1  0  0  0
 76154  1  0  0  0
 76155  1  0  0  0
 76156  1  0  0  0
 77 78  1  0  0  0
 77157  1  0  0  0
 77158  1  0  0  0
 78 79  1  0  0  0
 78159  1  0  0  0
 78160  1  0  0  0
 79 81  1  0  0  0
 79161  1  0  0  0
 79162  1  0  0  0
 80 81  1  0  0  0
 80163  1  0  0  0
 80164  1  0  0  0
 81165  1  0  0  0
 82 85  1  0  0  0
 84 85  1  0  0  0
M  ISO  4   1 100  68 101  80 101  82 100
M  END
> <chiral flag>
0

> <version>
0

> <s_m_source_file>
/data/baiqing/PycharmProjects/Reinvent-master-3.2/result/LINK_invent/BTK/process_docking_weight1_custom_sum_contain_oxygen_bond_distance_aromatic_linkinvent_7_9_3/rearranged_h_0068.sdf

> <i_m_source_file_index>
37

> <r_mmod_Potential_Energy-OPLS-2005>
230.811477661133

> <r_mmod_Stretch_Energy-OPLS-2005>
118.192161560059

> <r_mmod_Bend_Energy-OPLS-2005>
192.421020507812

> <r_mmod_Torsional_Energy-OPLS-2005>
251.032272338867

> <r_mmod_Improper_Torsional_Energy-OPLS-2005>
3.16056728363037

> <r_mmod_Van_der_Waal_Energy-OPLS-2005>
118.968162536621

> <r_mmod_Electrostatic_Energy-OPLS-2005>
-318.054046630859

> <r_mmod_Solvation_Energy-OPLS-2005>
-191.083877563477

> <b_mmod_Minimization_Converged-OPLS-2005>
0

> <r_mmod_RMS_Derivative-OPLS-2005>
2.16197752952576

$$$$
38
                    3D
 Structure written by MMmdl.
168176  0  0  1  0            999 V2000
  -30.7308  -14.5235   20.5598 C   0  0  0  0  0  0
  -30.4155  -12.3393   19.4366 C   0  0  0  0  0  0
  -29.4935  -12.5139   18.2120 C   0  0  0  0  0  0
  -28.0134  -12.3750   18.6153 C   0  0  0  0  0  0
  -27.6542  -13.2215   19.8642 C   0  0  2  0  0  0
  -28.6951  -13.0307   20.9847 C   0  0  0  0  0  0
  -25.2544  -13.8203   20.5694 C   0  0  0  0  0  0
  -24.1803  -13.0453   20.9177 C   0  0  0  0  0  0
  -24.6392  -11.6929   20.8731 C   0  0  0  0  0  0
  -23.9074  -10.4302   21.0409 C   0  0  0  0  0  0
  -24.3620   -9.4216   21.9184 C   0  0  0  0  0  0
  -23.6298   -8.2255   22.0756 C   0  0  0  0  0  0
  -22.4278   -8.0287   21.3551 C   0  0  0  0  0  0
  -21.9914   -9.0260   20.4649 C   0  0  0  0  0  0
  -22.7253  -10.2140   20.3058 C   0  0  0  0  0  0
  -21.6852   -6.0743   22.5291 C   0  0  0  0  0  0
  -21.4016   -6.5640   23.8226 C   0  0  0  0  0  0
  -21.3663   -5.6788   24.9183 C   0  0  0  0  0  0
  -21.6040   -4.3053   24.7230 C   0  0  0  0  0  0
  -21.8817   -3.8149   23.4353 C   0  0  0  0  0  0
  -21.9189   -4.6967   22.3412 C   0  0  0  0  0  0
  -22.7820  -13.5234   21.1860 C   0  0  0  0  0  0
  -22.1653   -4.2154   21.0992 F   0  0  0  0  0  0
  -21.5629   -3.4538   25.7744 F   0  0  0  0  0  0
  -30.0253  -13.3536   20.4380 N   0  0  0  0  0  0
  -26.2991  -12.9399   20.3334 N   0  0  0  0  0  0
  -25.9323  -11.6546   20.5749 N   0  0  0  0  0  0
  -22.0475  -12.8217   22.0419 N   0  0  0  0  0  0
  -25.4256  -15.1932   20.4148 N   0  0  0  0  0  0
  -31.8503  -14.6437   20.0557 O   0  0  0  0  0  0
  -21.6642   -6.8886   21.4255 O   0  0  0  0  0  0
  -22.3499  -14.5549   20.6729 O   0  0  0  0  0  0
  -24.6201  -31.8659   23.2117 C   0  0  0  0  0  0
  -25.9080  -32.4821   23.8389 C   0  0  1  0  0  0
  -27.2106  -27.3727   20.0960 C   0  0  0  0  0  0
  -25.5939  -33.8613   24.2319 N   0  0  0  0  0  0
  -23.4085  -30.4957   21.5569 C   0  0  2  0  0  0
  -24.8507  -28.9729   20.1043 C   0  0  0  0  0  0
  -22.7434  -29.4651   22.4987 C   0  0  0  0  0  0
  -18.0293  -28.1391   22.8506 C   0  0  0  0  0  0
  -24.1490  -36.7300   23.2632 C   0  0  0  0  0  0
  -25.9458  -30.8122   21.3775 C   0  0  0  0  0  0
  -26.0175  -29.4458   20.7182 C   0  0  0  0  0  0
  -27.1987  -28.6553   20.7116 C   0  0  0  0  0  0
  -26.0355  -26.9742   19.4188 C   0  0  0  0  0  0
  -24.8616  -27.7388   19.4457 C   0  0  0  0  0  0
  -23.6179  -29.8462   20.1657 C   0  0  0  0  0  0
  -25.4119  -36.3116   24.0329 C   0  0  1  0  0  0
  -20.5882  -28.3675   23.1316 C   0  0  2  0  0  0
  -20.6815  -26.9412   22.5415 C   0  0  0  0  0  0
  -19.5779  -26.6388   21.5234 C   0  0  0  0  0  0
  -18.1947  -26.7936   22.1640 C   0  0  0  0  0  0
  -19.1546  -28.8848   23.2927 C   0  0  0  0  0  0
  -18.9492  -30.1470   23.8920 C   0  0  0  0  0  0
  -17.6508  -30.6610   24.0579 C   0  0  0  0  0  0
  -25.9029  -34.9474   23.5111 C   0  0  0  0  0  0
  -16.5371  -29.9122   23.6348 C   0  0  0  0  0  0
  -16.7283  -28.6546   23.0345 C   0  0  0  0  0  0
  -26.4495  -31.6614   25.0746 C   0  0  0  0  0  0
  -25.3738  -31.3686   26.1488 C   0  0  0  0  0  0
  -27.0304  -30.3060   24.6108 C   0  0  0  0  0  0
  -27.6094  -32.4293   25.7512 C   0  0  0  0  0  0
  -27.5586  -37.1809   24.8474 C   0  0  0  0  0  0
  -21.4153  -29.3045   22.3728 N   0  0  0  0  0  0
  -26.4308  -37.3809   23.9409 N   0  0  0  0  0  0
  -24.6769  -31.0714   22.1071 N   0  0  0  0  0  0
  -23.4184  -28.8150   23.3024 O   0  0  0  0  0  0
  -28.3474  -26.5646   20.1801 O   0  0  0  0  0  0
  -26.5565  -34.8940   22.4647 O   0  0  0  0  0  0
  -23.5364  -32.1459   23.7448 O   0  0  0  0  0  0
  -29.3213  -21.0506   22.2311 C   0  0  0  0  0  0
  -29.2275  -22.4044   22.4049 C   0  0  0  0  0  0
  -29.7089  -20.8827   20.8742 C   0  0  0  0  0  0
  -30.8876  -24.7988   20.0992 C   0  0  0  0  0  0
  -29.7904  -25.2759   22.2581 C   0  0  0  0  0  0
  -28.2824  -24.6224   18.7070 C   0  0  0  0  0  0
  -27.0516  -24.5152   20.9427 C   0  0  0  0  0  0
  -29.6839  -15.7670   22.3945 C   0  0  0  0  0  0
  -29.9399  -19.5721   20.1126 C   0  0  0  0  0  0
  -29.9339  -18.2818   20.9960 C   0  0  0  0  0  0
  -30.1794  -16.9344   20.2255 C   0  0  0  0  0  0
  -29.6035  -24.5134   20.9163 C   0  0  0  0  0  0
  -28.2944  -25.0846   20.1862 C   0  0  0  0  0  0
  -29.8438  -22.0728   20.2764 N   0  0  0  0  0  0
  -29.5620  -23.0340   21.2146 N   0  0  0  0  0  0
  -30.0631  -15.6427   20.9831 N   0  0  0  0  0  0
  -31.4618  -12.4167   19.1333 H   0  0  0  0  0  0
  -30.3111  -11.3362   19.8552 H   0  0  0  0  0  0
  -29.7399  -11.7814   17.4428 H   0  0  0  0  0  0
  -29.6606  -13.4960   17.7656 H   0  0  0  0  0  0
  -27.8190  -11.3198   18.8142 H   0  0  0  0  0  0
  -27.3670  -12.6486   17.7816 H   0  0  0  0  0  0
  -27.6883  -14.2672   19.5573 H   0  0  0  0  0  0
  -28.6855  -11.9998   21.3438 H   0  0  0  0  0  0
  -28.4141  -13.6312   21.8438 H   0  0  0  0  0  0
  -25.2765   -9.5690   22.4757 H   0  0  0  0  0  0
  -24.0006   -7.4646   22.7469 H   0  0  0  0  0  0
  -21.0847   -8.8780   19.8950 H   0  0  0  0  0  0
  -22.3712  -10.9674   19.6157 H   0  0  0  0  0  0
  -21.2014   -7.6144   23.9737 H   0  0  0  0  0  0
  -21.1481   -6.0515   25.9090 H   0  0  0  0  0  0
  -22.0593   -2.7615   23.2856 H   0  0  0  0  0  0
  -22.4061  -11.9847   22.4775 H   0  0  0  0  0  0
  -21.1109  -13.1257   22.2681 H   0  0  0  0  0  0
  -24.6652  -15.8531   20.5398 H   0  0  0  0  0  0
  -26.2929  -15.6380   20.1399 H   0  0  0  0  0  0
  -26.7129  -32.5550   23.1124 H   0  0  0  0  0  0
  -25.0234  -33.9776   25.0564 H   0  0  0  0  0  0
  -22.6993  -31.3168   21.4210 H   0  0  0  0  0  0
  -23.3789  -35.9614   23.3324 H   0  0  0  0  0  0
  -24.3547  -36.8862   22.2038 H   0  0  0  0  0  0
  -23.7207  -37.6494   23.6610 H   0  0  0  0  0  0
  -26.0613  -31.5759   20.6081 H   0  0  0  0  0  0
  -26.8308  -30.8642   21.9978 H   0  0  0  0  0  0
  -28.0892  -29.0099   21.2114 H   0  0  0  0  0  0
  -25.9672  -26.0573   18.8674 H   0  0  0  0  0  0
  -23.9788  -27.3740   18.9396 H   0  0  0  0  0  0
  -23.7337  -30.6330   19.4187 H   0  0  0  0  0  0
  -22.7355  -29.2825   19.8616 H   0  0  0  0  0  0
  -25.1295  -36.1988   25.0824 H   0  0  0  0  0  0
  -20.9992  -28.3261   24.1421 H   0  0  0  0  0  0
  -20.5751  -26.2289   23.3593 H   0  0  0  0  0  0
  -21.6684  -26.7461   22.1175 H   0  0  0  0  0  0
  -19.6940  -25.6297   21.1271 H   0  0  0  0  0  0
  -19.6759  -27.3209   20.6762 H   0  0  0  0  0  0
  -17.4232  -26.6718   21.4029 H   0  0  0  0  0  0
  -18.0318  -26.0062   22.9006 H   0  0  0  0  0  0
  -19.7972  -30.7301   24.2253 H   0  0  0  0  0  0
  -17.5063  -31.6276   24.5220 H   0  0  0  0  0  0
  -15.5387  -30.3046   23.7658 H   0  0  0  0  0  0
  -15.8683  -28.0897   22.6998 H   0  0  0  0  0  0
  -24.6015  -30.6903   25.7856 H   0  0  0  0  0  0
  -24.8830  -32.2820   26.4842 H   0  0  0  0  0  0
  -25.8121  -30.8956   27.0287 H   0  0  0  0  0  0
  -26.2823  -29.6875   24.1156 H   0  0  0  0  0  0
  -27.4092  -29.7245   25.4524 H   0  0  0  0  0  0
  -27.8657  -30.4415   23.9241 H   0  0  0  0  0  0
  -27.2761  -33.3648   26.2020 H   0  0  0  0  0  0
  -28.3945  -32.6745   25.0344 H   0  0  0  0  0  0
  -28.0718  -31.8431   26.5472 H   0  0  0  0  0  0
  -28.2614  -38.0097   24.7518 H   0  0  0  0  0  0
  -28.1053  -36.2626   24.6305 H   0  0  0  0  0  0
  -27.2265  -37.1415   25.8863 H   0  0  0  0  0  0
  -20.9279  -29.8858   21.7053 H   0  0  0  0  0  0
  -26.0205  -38.2874   24.1492 H   0  0  0  0  0  0
  -29.1314  -20.2884   22.9747 H   0  0  0  0  0  0
  -28.9600  -22.9557   23.2940 H   0  0  0  0  0  0
  -30.9956  -25.8641   19.8902 H   0  0  0  0  0  0
  -30.9073  -24.2696   19.1478 H   0  0  0  0  0  0
  -31.7735  -24.4778   20.6491 H   0  0  0  0  0  0
  -30.6942  -24.9580   22.7752 H   0  0  0  0  0  0
  -28.9563  -25.1412   22.9465 H   0  0  0  0  0  0
  -29.8837  -26.3500   22.1020 H   0  0  0  0  0  0
  -29.0321  -25.1593   18.1265 H   0  0  0  0  0  0
  -27.3350  -24.7540   18.1966 H   0  0  0  0  0  0
  -28.5061  -23.5608   18.6168 H   0  0  0  0  0  0
  -27.0590  -23.4252   20.9722 H   0  0  0  0  0  0
  -26.0908  -24.7416   20.4942 H   0  0  0  0  0  0
  -27.0032  -24.8705   21.9704 H   0  0  0  0  0  0
  -28.6402  -16.0749   22.4713 H   0  0  0  0  0  0
  -30.3063  -16.4969   22.9101 H   0  0  0  0  0  0
  -29.8055  -14.8386   22.9538 H   0  0  0  0  0  0
  -30.8883  -19.6286   19.5768 H   0  0  0  0  0  0
  -29.1747  -19.4694   19.3444 H   0  0  0  0  0  0
  -28.9773  -18.2379   21.5169 H   0  0  0  0  0  0
  -30.7002  -18.4033   21.7613 H   0  0  0  0  0  0
  -31.1614  -17.0082   19.7553 H   0  0  0  0  0  0
  -29.4722  -16.8755   19.3979 H   0  0  0  0  0  0
  1 25  1  0  0  0
  1 30  2  0  0  0
  1 86  1  0  0  0
  2  3  1  0  0  0
  2 25  1  0  0  0
  2 87  1  0  0  0
  2 88  1  0  0  0
  3  4  1  0  0  0
  3 89  1  0  0  0
  3 90  1  0  0  0
  4  5  1  0  0  0
  4 91  1  0  0  0
  4 92  1  0  0  0
  5  6  1  0  0  0
  5 26  1  0  0  0
  5 93  1  0  0  0
  6 25  1  0  0  0
  6 94  1  0  0  0
  6 95  1  0  0  0
  7  8  2  0  0  0
  7 26  1  0  0  0
  7 29  1  0  0  0
  8  9  1  0  0  0
  8 22  1  0  0  0
  9 10  1  0  0  0
  9 27  2  0  0  0
 10 11  2  0  0  0
 10 15  1  0  0  0
 11 12  1  0  0  0
 11 96  1  0  0  0
 12 13  2  0  0  0
 12 97  1  0  0  0
 13 14  1  0  0  0
 13 31  1  0  0  0
 14 15  2  0  0  0
 14 98  1  0  0  0
 15 99  1  0  0  0
 16 17  2  0  0  0
 16 21  1  0  0  0
 16 31  1  0  0  0
 17 18  1  0  0  0
 17100  1  0  0  0
 18 19  2  0  0  0
 18101  1  0  0  0
 19 20  1  0  0  0
 19 24  1  0  0  0
 20 21  2  0  0  0
 20102  1  0  0  0
 21 23  1  0  0  0
 22 28  1  0  0  0
 22 32  2  0  0  0
 26 27  1  0  0  0
 28103  1  0  0  0
 28104  1  0  0  0
 29105  1  0  0  0
 29106  1  0  0  0
 33 34  1  0  0  0
 33 66  1  0  0  0
 33 70  2  0  0  0
 34 36  1  0  0  0
 34 59  1  0  0  0
 34107  1  0  0  0
 35 44  2  0  0  0
 35 45  1  0  0  0
 35 68  1  0  0  0
 36 56  1  0  0  0
 36108  1  0  0  0
 37 39  1  0  0  0
 37 47  1  0  0  0
 37 66  1  0  0  0
 37109  1  0  0  0
 38 43  2  0  0  0
 38 46  1  0  0  0
 38 47  1  0  0  0
 39 64  1  0  0  0
 39 67  2  0  0  0
 40 52  1  0  0  0
 40 53  2  0  0  0
 40 58  1  0  0  0
 41110  1  0  0  0
 41111  1  0  0  0
 41112  1  0  0  0
 41 48  1  0  0  0
 42 43  1  0  0  0
 42 66  1  0  0  0
 42113  1  0  0  0
 42114  1  0  0  0
 43 44  1  0  0  0
 44115  1  0  0  0
 45 46  2  0  0  0
 45116  1  0  0  0
 46117  1  0  0  0
 47118  1  0  0  0
 47119  1  0  0  0
 48 56  1  0  0  0
 48 65  1  0  0  0
 48120  1  0  0  0
 49 50  1  0  0  0
 49 53  1  0  0  0
 49 64  1  0  0  0
 49121  1  0  0  0
 50 51  1  0  0  0
 50122  1  0  0  0
 50123  1  0  0  0
 51 52  1  0  0  0
 51124  1  0  0  0
 51125  1  0  0  0
 52126  1  0  0  0
 52127  1  0  0  0
 53 54  1  0  0  0
 54 55  2  0  0  0
 54128  1  0  0  0
 55 57  1  0  0  0
 55129  1  0  0  0
 56 69  2  0  0  0
 57 58  2  0  0  0
 57130  1  0  0  0
 58131  1  0  0  0
 59 60  1  0  0  0
 59 61  1  0  0  0
 59 62  1  0  0  0
 60132  1  0  0  0
 60133  1  0  0  0
 60134  1  0  0  0
 61135  1  0  0  0
 61136  1  0  0  0
 61137  1  0  0  0
 62138  1  0  0  0
 62139  1  0  0  0
 62140  1  0  0  0
 63 65  1  0  0  0
 63141  1  0  0  0
 63142  1  0  0  0
 63143  1  0  0  0
 64144  1  0  0  0
 65145  1  0  0  0
 68 83  1  0  0  0
 71 72  2  0  0  0
 71 73  1  0  0  0
 71146  1  0  0  0
 72 85  1  0  0  0
 72147  1  0  0  0
 73 79  1  0  0  0
 73 84  2  0  0  0
 74148  1  0  0  0
 74149  1  0  0  0
 74150  1  0  0  0
 74 82  1  0  0  0
 75 82  1  0  0  0
 75151  1  0  0  0
 75152  1  0  0  0
 75153  1  0  0  0
 76154  1  0  0  0
 76155  1  0  0  0
 76156  1  0  0  0
 76 83  1  0  0  0
 77 83  1  0  0  0
 77157  1  0  0  0
 77158  1  0  0  0
 77159  1  0  0  0
 78 86  1  0  0  0
 78160  1  0  0  0
 78161  1  0  0  0
 78162  1  0  0  0
 79 80  1  0  0  0
 79163  1  0  0  0
 79164  1  0  0  0
 80 81  1  0  0  0
 80165  1  0  0  0
 80166  1  0  0  0
 81 86  1  0  0  0
 81167  1  0  0  0
 81168  1  0  0  0
 82 83  1  0  0  0
 82 85  1  0  0  0
 84 85  1  0  0  0
M  ISO  4   1 100  68 101  83 101  86 100
M  END
> <chiral flag>
0

> <version>
0

> <s_m_source_file>
/data/baiqing/PycharmProjects/Reinvent-master-3.2/result/LINK_invent/BTK/process_docking_weight1_custom_sum_contain_oxygen_bond_distance_aromatic_linkinvent_7_9_3/rearranged_h_0068.sdf

> <i_m_source_file_index>
38

> <r_mmod_Potential_Energy-OPLS-2005>
183.580108642578

> <r_mmod_Stretch_Energy-OPLS-2005>
69.859489440918

> <r_mmod_Bend_Energy-OPLS-2005>
136.197021484375

> <r_mmod_Torsional_Energy-OPLS-2005>
313.693298339844

> <r_mmod_Improper_Torsional_Energy-OPLS-2005>
8.30498695373535

> <r_mmod_Van_der_Waal_Energy-OPLS-2005>
161.26594543457

> <r_mmod_Electrostatic_Energy-OPLS-2005>
-340.663787841797

> <r_mmod_Solvation_Energy-OPLS-2005>
-191.919189453125

> <b_mmod_Minimization_Converged-OPLS-2005>
0

> <r_mmod_RMS_Derivative-OPLS-2005>
3.91177153587341

$$$$
40
                    3D
 Structure written by MMmdl.
176184  0  0  1  0            999 V2000
  -30.7532  -14.4222   20.7147 C   0  0  0  0  0  0
  -30.4279  -12.3382   19.4046 C   0  0  0  0  0  0
  -29.4931  -12.5537   18.1958 C   0  0  0  0  0  0
  -28.0109  -12.4032   18.5964 C   0  0  0  0  0  0
  -27.6675  -13.1984   19.8826 C   0  0  2  0  0  0
  -28.7051  -12.8720   20.9736 C   0  0  0  0  0  0
  -25.2618  -13.8144   20.5663 C   0  0  0  0  0  0
  -24.1855  -13.0432   20.9159 C   0  0  0  0  0  0
  -24.6394  -11.6896   20.8705 C   0  0  0  0  0  0
  -23.9055  -10.4287   21.0396 C   0  0  0  0  0  0
  -24.3614   -9.4204   21.9171 C   0  0  0  0  0  0
  -23.6288   -8.2242   22.0748 C   0  0  0  0  0  0
  -22.4267   -8.0283   21.3545 C   0  0  0  0  0  0
  -21.9903   -9.0253   20.4641 C   0  0  0  0  0  0
  -22.7232  -10.2126   20.3049 C   0  0  0  0  0  0
  -21.6849   -6.0737   22.5283 C   0  0  0  0  0  0
  -21.4011   -6.5640   23.8218 C   0  0  0  0  0  0
  -21.3655   -5.6789   24.9178 C   0  0  0  0  0  0
  -21.6051   -4.3054   24.7226 C   0  0  0  0  0  0
  -21.8822   -3.8149   23.4348 C   0  0  0  0  0  0
  -21.9189   -4.6965   22.3405 C   0  0  0  0  0  0
  -22.7883  -13.5237   21.1846 C   0  0  0  0  0  0
  -22.1665   -4.2151   21.0983 F   0  0  0  0  0  0
  -21.5624   -3.4537   25.7739 F   0  0  0  0  0  0
  -30.0330  -13.2761   20.4793 N   0  0  0  0  0  0
  -26.3047  -12.9293   20.3360 N   0  0  0  0  0  0
  -25.9308  -11.6454   20.5709 N   0  0  0  0  0  0
  -22.0522  -12.8221   22.0404 N   0  0  0  0  0  0
  -25.4372  -15.1859   20.4093 N   0  0  0  0  0  0
  -31.7810  -14.6295   20.0554 O   0  0  0  0  0  0
  -21.6634   -6.8882   21.4248 O   0  0  0  0  0  0
  -22.3566  -14.5546   20.6700 O   0  0  0  0  0  0
  -24.6139  -31.8692   23.2107 C   0  0  0  0  0  0
  -25.9038  -32.4825   23.8397 C   0  0  1  0  0  0
  -27.2363  -27.4442   20.0886 C   0  0  0  0  0  0
  -25.5899  -33.8620   24.2329 N   0  0  0  0  0  0
  -23.4012  -30.4932   21.5518 C   0  0  2  0  0  0
  -24.8464  -28.9586   20.1182 C   0  0  0  0  0  0
  -22.7404  -29.4672   22.4998 C   0  0  0  0  0  0
  -18.0274  -28.1380   22.8491 C   0  0  0  0  0  0
  -24.1487  -36.7317   23.2639 C   0  0  0  0  0  0
  -25.9299  -30.8360   21.3632 C   0  0  0  0  0  0
  -26.0078  -29.4712   20.7102 C   0  0  0  0  0  0
  -27.2066  -28.7223   20.6905 C   0  0  0  0  0  0
  -26.0572  -26.9482   19.4865 C   0  0  0  0  0  0
  -24.8654  -27.6950   19.5049 C   0  0  0  0  0  0
  -23.6091  -29.8249   20.1670 C   0  0  0  0  0  0
  -25.4108  -36.3112   24.0339 C   0  0  1  0  0  0
  -20.5862  -28.3666   23.1321 C   0  0  2  0  0  0
  -20.6764  -26.9404   22.5417 C   0  0  0  0  0  0
  -19.5742  -26.6391   21.5214 C   0  0  0  0  0  0
  -18.1922  -26.7930   22.1627 C   0  0  0  0  0  0
  -19.1521  -28.8842   23.2905 C   0  0  0  0  0  0
  -18.9451  -30.1450   23.8913 C   0  0  0  0  0  0
  -17.6451  -30.6585   24.0572 C   0  0  0  0  0  0
  -25.9034  -34.9476   23.5131 C   0  0  0  0  0  0
  -16.5346  -29.9088   23.6330 C   0  0  0  0  0  0
  -16.7263  -28.6510   23.0348 C   0  0  0  0  0  0
  -26.4466  -31.6600   25.0719 C   0  0  0  0  0  0
  -25.3741  -31.3708   26.1476 C   0  0  0  0  0  0
  -27.0293  -30.3044   24.6090 C   0  0  0  0  0  0
  -27.6048  -32.4317   25.7473 C   0  0  0  0  0  0
  -27.5581  -37.1813   24.8466 C   0  0  0  0  0  0
  -21.4135  -29.3039   22.3732 N   0  0  0  0  0  0
  -26.4297  -37.3794   23.9406 N   0  0  0  0  0  0
  -24.6667  -31.0797   22.1005 N   0  0  0  0  0  0
  -23.4175  -28.8219   23.3045 O   0  0  0  0  0  0
  -28.4065  -26.7141   20.0749 O   0  0  0  0  0  0
  -26.5596  -34.8926   22.4690 O   0  0  0  0  0  0
  -23.5334  -32.1439   23.7507 O   0  0  0  0  0  0
  -29.5686  -18.3413   19.5063 C   0  0  0  0  0  0
  -30.9711  -18.0714   21.7922 C   0  0  0  0  0  0
  -30.1306  -19.4663   20.1576 C   0  0  0  0  0  0
  -30.4079  -16.9328   21.1523 C   0  0  0  0  0  0
  -32.3137  -21.3857   17.1683 C   0  0  0  0  0  0
  -31.8195  -23.6885   16.3519 C   0  0  0  0  0  0
  -31.5984  -15.4041   22.8375 C   0  0  0  0  0  0
  -29.1365  -15.4279   22.6182 C   0  0  0  0  0  0
  -32.4297  -23.8816   19.2897 C   0  0  0  0  0  0
  -29.8908  -20.8831   19.6378 C   0  0  0  0  0  0
  -31.0924  -21.8473   19.8114 C   0  0  0  0  0  0
  -29.5932  -24.5435   20.4112 C   0  0  0  0  0  0
  -28.2841  -25.3569   20.5258 C   0  0  0  0  0  0
  -31.3681  -22.5974   17.3505 C   0  0  0  0  0  0
  -30.4446  -15.5252   21.8067 C   0  0  0  0  0  0
  -31.1800  -23.0807   18.8479 C   0  0  2  0  0  0
  -29.9100  -24.0096   18.9876 C   0  0  0  0  0  0
  -30.8181  -19.3313   21.3168 N   0  0  0  0  0  0
  -29.6828  -17.0865   20.0092 N   0  0  0  0  0  0
  -30.0442  -25.0937   18.2260 F   0  0  0  0  0  0
  -28.8387  -23.3455   18.5512 F   0  0  0  0  0  0
  -31.4673  -12.4529   19.0934 H   0  0  0  0  0  0
  -30.3598  -11.3084   19.7583 H   0  0  0  0  0  0
  -29.7381  -11.8516   17.3976 H   0  0  0  0  0  0
  -29.6605  -13.5517   17.7871 H   0  0  0  0  0  0
  -27.8109  -11.3424   18.7516 H   0  0  0  0  0  0
  -27.3645  -12.7144   17.7750 H   0  0  0  0  0  0
  -27.7402  -14.2612   19.6499 H   0  0  0  0  0  0
  -28.7063  -11.7942   21.1441 H   0  0  0  0  0  0
  -28.3986  -13.2407   21.9369 H   0  0  0  0  0  0
  -25.2766   -9.5671   22.4734 H   0  0  0  0  0  0
  -23.9998   -7.4633   22.7464 H   0  0  0  0  0  0
  -21.0833   -8.8779   19.8946 H   0  0  0  0  0  0
  -22.3707  -10.9666   19.6154 H   0  0  0  0  0  0
  -21.2010   -7.6148   23.9722 H   0  0  0  0  0  0
  -21.1476   -6.0519   25.9080 H   0  0  0  0  0  0
  -22.0603   -2.7611   23.2847 H   0  0  0  0  0  0
  -22.4127  -11.9867   22.4769 H   0  0  0  0  0  0
  -21.1149  -13.1258   22.2636 H   0  0  0  0  0  0
  -24.6765  -15.8473   20.5237 H   0  0  0  0  0  0
  -26.3031  -15.6224   20.1169 H   0  0  0  0  0  0
  -26.7108  -32.5544   23.1163 H   0  0  0  0  0  0
  -25.0048  -33.9782   25.0474 H   0  0  0  0  0  0
  -22.6903  -31.3103   21.4129 H   0  0  0  0  0  0
  -23.3735  -35.9666   23.3327 H   0  0  0  0  0  0
  -24.3580  -36.8901   22.2048 H   0  0  0  0  0  0
  -23.7255  -37.6539   23.6632 H   0  0  0  0  0  0
  -26.0427  -31.6019   20.5946 H   0  0  0  0  0  0
  -26.8182  -30.8882   21.9812 H   0  0  0  0  0  0
  -28.1048  -29.1164   21.1459 H   0  0  0  0  0  0
  -26.0496  -25.9935   18.9819 H   0  0  0  0  0  0
  -23.9744  -27.2970   19.0386 H   0  0  0  0  0  0
  -23.7184  -30.5992   19.4069 H   0  0  0  0  0  0
  -22.7326  -29.2452   19.8713 H   0  0  0  0  0  0
  -25.1283  -36.1981   25.0833 H   0  0  0  0  0  0
  -20.9959  -28.3234   24.1442 H   0  0  0  0  0  0
  -20.5676  -26.2274   23.3602 H   0  0  0  0  0  0
  -21.6635  -26.7457   22.1208 H   0  0  0  0  0  0
  -19.6904  -25.6309   21.1233 H   0  0  0  0  0  0
  -19.6679  -27.3213   20.6753 H   0  0  0  0  0  0
  -17.4193  -26.6684   21.4028 H   0  0  0  0  0  0
  -18.0321  -26.0067   22.9018 H   0  0  0  0  0  0
  -19.7927  -30.7265   24.2283 H   0  0  0  0  0  0
  -17.5009  -31.6266   24.5171 H   0  0  0  0  0  0
  -15.5346  -30.2997   23.7643 H   0  0  0  0  0  0
  -15.8667  -28.0838   22.7043 H   0  0  0  0  0  0
  -24.5904  -30.7061   25.7820 H   0  0  0  0  0  0
  -24.8941  -32.2864   26.4941 H   0  0  0  0  0  0
  -25.8101  -30.8867   27.0223 H   0  0  0  0  0  0
  -26.2832  -29.6807   24.1151 H   0  0  0  0  0  0
  -27.4073  -29.7276   25.4541 H   0  0  0  0  0  0
  -27.8663  -30.4362   23.9228 H   0  0  0  0  0  0
  -27.2670  -33.3602   26.2089 H   0  0  0  0  0  0
  -28.3831  -32.6904   25.0281 H   0  0  0  0  0  0
  -28.0747  -31.8421   26.5355 H   0  0  0  0  0  0
  -28.2615  -38.0094   24.7497 H   0  0  0  0  0  0
  -28.1058  -36.2625   24.6310 H   0  0  0  0  0  0
  -27.2299  -37.1490   25.8871 H   0  0  0  0  0  0
  -20.9292  -29.8749   21.6944 H   0  0  0  0  0  0
  -26.0186  -38.2877   24.1393 H   0  0  0  0  0  0
  -28.9936  -18.4518   18.5977 H   0  0  0  0  0  0
  -31.5113  -18.0005   22.7233 H   0  0  0  0  0  0
  -32.4496  -21.1457   16.1135 H   0  0  0  0  0  0
  -31.9202  -20.4798   17.6282 H   0  0  0  0  0  0
  -33.3036  -21.5720   17.5843 H   0  0  0  0  0  0
  -31.8902  -23.2820   15.3426 H   0  0  0  0  0  0
  -32.8041  -24.0871   16.5969 H   0  0  0  0  0  0
  -31.1251  -24.5224   16.2860 H   0  0  0  0  0  0
  -31.4488  -16.0420   23.7085 H   0  0  0  0  0  0
  -32.5648  -15.6601   22.4004 H   0  0  0  0  0  0
  -31.6773  -14.3846   23.2184 H   0  0  0  0  0  0
  -28.2534  -15.4128   21.9794 H   0  0  0  0  0  0
  -29.0213  -16.3022   23.2587 H   0  0  0  0  0  0
  -29.1352  -14.5789   23.3011 H   0  0  0  0  0  0
  -33.3524  -23.3364   19.0939 H   0  0  0  0  0  0
  -32.4165  -24.0979   20.3575 H   0  0  0  0  0  0
  -32.5013  -24.8406   18.7771 H   0  0  0  0  0  0
  -29.0104  -21.2921   20.1336 H   0  0  0  0  0  0
  -29.6273  -20.7988   18.5843 H   0  0  0  0  0  0
  -32.0128  -21.2724   19.7197 H   0  0  0  0  0  0
  -31.1132  -22.1728   20.8512 H   0  0  0  0  0  0
  -29.4973  -23.6980   21.0899 H   0  0  0  0  0  0
  -30.4169  -25.1444   20.7943 H   0  0  0  0  0  0
  -27.9913  -25.3914   21.5763 H   0  0  0  0  0  0
  -27.4936  -24.8122   20.0131 H   0  0  0  0  0  0
  -30.3943  -22.2621   16.9940 H   0  0  0  0  0  0
  1 25  1  0  0  0
  1 30  2  0  0  0
  1 85  1  0  0  0
  2  3  1  0  0  0
  2 25  1  0  0  0
  2 92  1  0  0  0
  2 93  1  0  0  0
  3  4  1  0  0  0
  3 94  1  0  0  0
  3 95  1  0  0  0
  4  5  1  0  0  0
  4 96  1  0  0  0
  4 97  1  0  0  0
  5  6  1  0  0  0
  5 26  1  0  0  0
  5 98  1  0  0  0
  6 25  1  0  0  0
  6 99  1  0  0  0
  6100  1  0  0  0
  7  8  2  0  0  0
  7 26  1  0  0  0
  7 29  1  0  0  0
  8  9  1  0  0  0
  8 22  1  0  0  0
  9 10  1  0  0  0
  9 27  2  0  0  0
 10 11  2  0  0  0
 10 15  1  0  0  0
 11 12  1  0  0  0
 11101  1  0  0  0
 12 13  2  0  0  0
 12102  1  0  0  0
 13 14  1  0  0  0
 13 31  1  0  0  0
 14 15  2  0  0  0
 14103  1  0  0  0
 15104  1  0  0  0
 16 17  2  0  0  0
 16 21  1  0  0  0
 16 31  1  0  0  0
 17 18  1  0  0  0
 17105  1  0  0  0
 18 19  2  0  0  0
 18106  1  0  0  0
 19 20  1  0  0  0
 19 24  1  0  0  0
 20 21  2  0  0  0
 20107  1  0  0  0
 21 23  1  0  0  0
 22 28  1  0  0  0
 22 32  2  0  0  0
 26 27  1  0  0  0
 28108  1  0  0  0
 28109  1  0  0  0
 29110  1  0  0  0
 29111  1  0  0  0
 33 34  1  0  0  0
 33 66  1  0  0  0
 33 70  2  0  0  0
 34 36  1  0  0  0
 34 59  1  0  0  0
 34112  1  0  0  0
 35 44  2  0  0  0
 35 45  1  0  0  0
 35 68  1  0  0  0
 36 56  1  0  0  0
 36113  1  0  0  0
 37 39  1  0  0  0
 37 47  1  0  0  0
 37 66  1  0  0  0
 37114  1  0  0  0
 38 43  2  0  0  0
 38 46  1  0  0  0
 38 47  1  0  0  0
 39 64  1  0  0  0
 39 67  2  0  0  0
 40 52  1  0  0  0
 40 53  2  0  0  0
 40 58  1  0  0  0
 41115  1  0  0  0
 41116  1  0  0  0
 41117  1  0  0  0
 41 48  1  0  0  0
 42 43  1  0  0  0
 42 66  1  0  0  0
 42118  1  0  0  0
 42119  1  0  0  0
 43 44  1  0  0  0
 44120  1  0  0  0
 45 46  2  0  0  0
 45121  1  0  0  0
 46122  1  0  0  0
 47123  1  0  0  0
 47124  1  0  0  0
 48 56  1  0  0  0
 48 65  1  0  0  0
 48125  1  0  0  0
 49 50  1  0  0  0
 49 53  1  0  0  0
 49 64  1  0  0  0
 49126  1  0  0  0
 50 51  1  0  0  0
 50127  1  0  0  0
 50128  1  0  0  0
 51 52  1  0  0  0
 51129  1  0  0  0
 51130  1  0  0  0
 52131  1  0  0  0
 52132  1  0  0  0
 53 54  1  0  0  0
 54 55  2  0  0  0
 54133  1  0  0  0
 55 57  1  0  0  0
 55134  1  0  0  0
 56 69  2  0  0  0
 57 58  2  0  0  0
 57135  1  0  0  0
 58136  1  0  0  0
 59 60  1  0  0  0
 59 61  1  0  0  0
 59 62  1  0  0  0
 60137  1  0  0  0
 60138  1  0  0  0
 60139  1  0  0  0
 61140  1  0  0  0
 61141  1  0  0  0
 61142  1  0  0  0
 62143  1  0  0  0
 62144  1  0  0  0
 62145  1  0  0  0
 63 65  1  0  0  0
 63146  1  0  0  0
 63147  1  0  0  0
 63148  1  0  0  0
 64149  1  0  0  0
 65150  1  0  0  0
 68 83  1  0  0  0
 71 73  2  0  0  0
 71 89  1  0  0  0
 71151  1  0  0  0
 72 74  1  0  0  0
 72 88  2  0  0  0
 72152  1  0  0  0
 73 80  1  0  0  0
 73 88  1  0  0  0
 74 85  1  0  0  0
 74 89  2  0  0  0
 75153  1  0  0  0
 75154  1  0  0  0
 75155  1  0  0  0
 75 84  1  0  0  0
 76 84  1  0  0  0
 76156  1  0  0  0
 76157  1  0  0  0
 76158  1  0  0  0
 77159  1  0  0  0
 77160  1  0  0  0
 77161  1  0  0  0
 77 85  1  0  0  0
 78 85  1  0  0  0
 78162  1  0  0  0
 78163  1  0  0  0
 78164  1  0  0  0
 79165  1  0  0  0
 79166  1  0  0  0
 79167  1  0  0  0
 79 86  1  0  0  0
 80 81  1  0  0  0
 80168  1  0  0  0
 80169  1  0  0  0
 81 86  1  0  0  0
 81170  1  0  0  0
 81171  1  0  0  0
 82 83  1  0  0  0
 82 87  1  0  0  0
 82172  1  0  0  0
 82173  1  0  0  0
 83174  1  0  0  0
 83175  1  0  0  0
 84 86  1  0  0  0
 84176  1  0  0  0
 86 87  1  0  0  0
 87 90  1  0  0  0
 87 91  1  0  0  0
M  ISO  4   1 100  68 101  83 101  85 100
M  END
> <chiral flag>
0

> <version>
0

> <s_m_source_file>
/data/baiqing/PycharmProjects/Reinvent-master-3.2/result/LINK_invent/BTK/process_docking_weight1_custom_sum_contain_oxygen_bond_distance_aromatic_linkinvent_7_9_3/rearranged_h_0068.sdf

> <i_m_source_file_index>
39

> <r_mmod_Potential_Energy-OPLS-2005>
201.567291259766

> <r_mmod_Stretch_Energy-OPLS-2005>
56.28076171875

> <r_mmod_Bend_Energy-OPLS-2005>
148.600997924805

> <r_mmod_Torsional_Energy-OPLS-2005>
230.349014282227

> <r_mmod_Improper_Torsional_Energy-OPLS-2005>
2.46872448921204

> <r_mmod_Van_der_Waal_Energy-OPLS-2005>
192.478820800781

> <r_mmod_Electrostatic_Energy-OPLS-2005>
-255.099487304688

> <r_mmod_Solvation_Energy-OPLS-2005>
-183.970901489258

> <b_mmod_Minimization_Converged-OPLS-2005>
0

> <r_mmod_RMS_Derivative-OPLS-2005>
1.02039480209351

$$$$
41
                    3D
 Structure written by MMmdl.
203211  0  0  1  0            999 V2000
  -30.6495  -14.5487   20.3558 C   0  0  0  0  0  0
  -30.4198  -12.3048   19.4459 C   0  0  0  0  0  0
  -29.4962  -12.4740   18.2207 C   0  0  0  0  0  0
  -28.0106  -12.3566   18.6276 C   0  0  0  0  0  0
  -27.6387  -13.1870   19.8888 C   0  0  2  0  0  0
  -28.7081  -13.0609   21.0009 C   0  0  0  0  0  0
  -25.2263  -13.7920   20.5588 C   0  0  0  0  0  0
  -24.1617  -13.0259   20.9204 C   0  0  0  0  0  0
  -24.6244  -11.6778   20.8845 C   0  0  0  0  0  0
  -23.8954  -10.4185   21.0447 C   0  0  0  0  0  0
  -24.3526   -9.4122   21.9221 C   0  0  0  0  0  0
  -23.6213   -8.2158   22.0797 C   0  0  0  0  0  0
  -22.4205   -8.0218   21.3534 C   0  0  0  0  0  0
  -21.9829   -9.0190   20.4660 C   0  0  0  0  0  0
  -22.7142  -10.2065   20.3067 C   0  0  0  0  0  0
  -21.6823   -6.0658   22.5267 C   0  0  0  0  0  0
  -21.3983   -6.5590   23.8194 C   0  0  0  0  0  0
  -21.3678   -5.6747   24.9180 C   0  0  0  0  0  0
  -21.6062   -4.3021   24.7213 C   0  0  0  0  0  0
  -21.8813   -3.8088   23.4342 C   0  0  0  0  0  0
  -21.9188   -4.6904   22.3392 C   0  0  0  0  0  0
  -22.7661  -13.5094   21.1825 C   0  0  0  0  0  0
  -22.1646   -4.2098   21.0961 F   0  0  0  0  0  0
  -21.5689   -3.4490   25.7719 F   0  0  0  0  0  0
  -30.0333  -13.3375   20.4105 N   0  0  0  0  0  0
  -26.2839  -12.9149   20.3524 N   0  0  0  0  0  0
  -25.9197  -11.6351   20.6032 N   0  0  0  0  0  0
  -22.0296  -12.8192   22.0457 N   0  0  0  0  0  0
  -25.3579  -15.1579   20.3544 N   0  0  0  0  0  0
  -31.8443  -14.6975   20.0799 O   0  0  0  0  0  0
  -21.6597   -6.8798   21.4230 O   0  0  0  0  0  0
  -22.3374  -14.5367   20.6604 O   0  0  0  0  0  0
  -24.6176  -31.8627   23.2065 C   0  0  0  0  0  0
  -25.9068  -32.4774   23.8368 C   0  0  1  0  0  0
  -27.2364  -27.4557   20.0970 C   0  0  0  0  0  0
  -25.5924  -33.8586   24.2308 N   0  0  0  0  0  0
  -23.4047  -30.4887   21.5414 C   0  0  2  0  0  0
  -24.8515  -28.9596   20.0978 C   0  0  0  0  0  0
  -22.7427  -29.4692   22.4945 C   0  0  0  0  0  0
  -18.0274  -28.1387   22.8489 C   0  0  0  0  0  0
  -24.1498  -36.7346   23.2635 C   0  0  0  0  0  0
  -25.9276  -30.8380   21.3507 C   0  0  0  0  0  0
  -26.0059  -29.4736   20.7036 C   0  0  0  0  0  0
  -27.2012  -28.7247   20.7126 C   0  0  0  0  0  0
  -26.0751  -26.9487   19.4804 C   0  0  0  0  0  0
  -24.8812  -27.6953   19.4790 C   0  0  0  0  0  0
  -23.6081  -29.8189   20.1529 C   0  0  0  0  0  0
  -25.4093  -36.3082   24.0325 C   0  0  1  0  0  0
  -20.5875  -28.3677   23.1305 C   0  0  2  0  0  0
  -20.6780  -26.9405   22.5410 C   0  0  0  0  0  0
  -19.5760  -26.6382   21.5208 C   0  0  0  0  0  0
  -18.1943  -26.7935   22.1613 C   0  0  0  0  0  0
  -19.1533  -28.8848   23.2894 C   0  0  0  0  0  0
  -18.9458  -30.1462   23.8881 C   0  0  0  0  0  0
  -17.6458  -30.6574   24.0601 C   0  0  0  0  0  0
  -25.9020  -34.9456   23.5107 C   0  0  0  0  0  0
  -16.5355  -29.9085   23.6332 C   0  0  0  0  0  0
  -16.7273  -28.6530   23.0314 C   0  0  0  0  0  0
  -26.4471  -31.6552   25.0701 C   0  0  0  0  0  0
  -25.3795  -31.3660   26.1497 C   0  0  0  0  0  0
  -27.0289  -30.3009   24.6028 C   0  0  0  0  0  0
  -27.6036  -32.4258   25.7486 C   0  0  0  0  0  0
  -27.5569  -37.1817   24.8451 C   0  0  0  0  0  0
  -21.4153  -29.3036   22.3701 N   0  0  0  0  0  0
  -26.4271  -37.3770   23.9403 N   0  0  0  0  0  0
  -24.6672  -31.0805   22.0920 N   0  0  0  0  0  0
  -23.4232  -28.8236   23.2958 O   0  0  0  0  0  0
  -28.3568  -26.6638   20.1398 O   0  0  0  0  0  0
  -26.5583  -34.8914   22.4665 O   0  0  0  0  0  0
  -23.5389  -32.1348   23.7514 O   0  0  0  0  0  0
  -31.1437  -19.8190   20.9774 C   0  0  0  0  0  0
  -30.5969  -17.9102   20.3241 C   0  0  0  0  0  0
  -33.7458  -24.9591   16.0389 C   0  0  0  0  0  0
  -31.5224  -19.8131   15.4635 C   0  0  0  0  0  0
  -33.2141  -18.1259   16.2953 C   0  0  0  0  0  0
  -31.2951  -24.1281   23.5966 C   0  0  0  0  0  0
  -27.9299  -16.2688   17.9351 C   0  0  0  0  0  0
  -28.2292  -18.6346   18.3804 C   0  0  0  0  0  0
  -27.5090  -17.2998   20.2758 C   0  0  0  0  0  0
  -33.7374  -19.7138   18.7316 C   0  0  0  0  0  0
  -31.3888  -21.2917   20.9949 C   0  0  0  0  0  0
  -33.1805  -24.0584   17.1483 C   0  0  0  0  0  0
  -30.7957  -22.0557   22.1901 C   0  0  0  0  0  0
  -33.2654  -22.5428   16.8534 C   0  0  0  0  0  0
  -29.0248  -24.7268   21.5123 C   0  0  0  0  0  0
  -30.5035  -24.4369   21.1788 C   0  0  0  0  0  0
  -32.4267  -21.7077   17.8533 C   0  0  0  0  0  0
  -31.1821  -19.5293   18.4224 C   0  0  0  0  0  0
  -28.6556  -26.2232   21.4680 C   0  0  0  0  0  0
  -29.9003  -16.8448   19.4802 C   0  0  2  0  0  0
  -32.7381  -19.5934   16.3917 C   0  0  0  0  0  0
  -31.2615  -23.5287   22.1843 C   0  0  1  0  0  0
  -28.4290  -17.2495   19.0297 C   0  0  0  0  0  0
  -32.5271  -20.1313   17.8592 C   0  0  2  0  0  0
  -31.0222  -19.0879   22.0891 N   0  0  0  0  0  0
  -30.6430  -17.8433   21.6635 N   0  0  0  0  0  0
  -31.0532  -19.0985   19.8333 N   0  0  0  0  0  0
  -29.7848  -15.5662   20.2340 N   0  0  0  0  0  0
  -31.4706  -12.3846   19.1526 H   0  0  0  0  0  0
  -30.3058  -11.3173   19.8939 H   0  0  0  0  0  0
  -29.7432  -11.7358   17.4555 H   0  0  0  0  0  0
  -29.6693  -13.4510   17.7684 H   0  0  0  0  0  0
  -27.8146  -11.2988   18.8093 H   0  0  0  0  0  0
  -27.3665  -12.6456   17.7976 H   0  0  0  0  0  0
  -27.6186  -14.2254   19.6037 H   0  0  0  0  0  0
  -28.6975  -12.0619   21.4384 H   0  0  0  0  0  0
  -28.4842  -13.7499   21.8199 H   0  0  0  0  0  0
  -25.2681   -9.5637   22.4756 H   0  0  0  0  0  0
  -23.9958   -7.4541   22.7487 H   0  0  0  0  0  0
  -21.0806   -8.8686   19.8898 H   0  0  0  0  0  0
  -22.3644  -10.9608   19.6157 H   0  0  0  0  0  0
  -21.1926   -7.6088   23.9676 H   0  0  0  0  0  0
  -21.1543   -6.0485   25.9081 H   0  0  0  0  0  0
  -22.0572   -2.7543   23.2850 H   0  0  0  0  0  0
  -22.3871  -11.9888   22.4974 H   0  0  0  0  0  0
  -21.0913  -13.1299   22.2592 H   0  0  0  0  0  0
  -24.5620  -15.7806   20.4378 H   0  0  0  0  0  0
  -26.1718  -15.6181   19.9698 H   0  0  0  0  0  0
  -26.7204  -32.5471   23.1198 H   0  0  0  0  0  0
  -25.0148  -33.9722   25.0514 H   0  0  0  0  0  0
  -22.6962  -31.3055   21.4045 H   0  0  0  0  0  0
  -23.3697  -35.9746   23.3286 H   0  0  0  0  0  0
  -24.3625  -36.8971   22.2055 H   0  0  0  0  0  0
  -23.7318  -37.6584   23.6658 H   0  0  0  0  0  0
  -26.0340  -31.5936   20.5701 H   0  0  0  0  0  0
  -26.8224  -30.9006   21.9583 H   0  0  0  0  0  0
  -28.0853  -29.1110   21.1977 H   0  0  0  0  0  0
  -26.0921  -25.9636   19.0331 H   0  0  0  0  0  0
  -24.0000  -27.2921   18.9979 H   0  0  0  0  0  0
  -23.7190  -30.5930   19.3923 H   0  0  0  0  0  0
  -22.7305  -29.2385   19.8597 H   0  0  0  0  0  0
  -25.1278  -36.1928   25.0819 H   0  0  0  0  0  0
  -21.0016  -28.3231   24.1401 H   0  0  0  0  0  0
  -20.5703  -26.2272   23.3585 H   0  0  0  0  0  0
  -21.6648  -26.7436   22.1188 H   0  0  0  0  0  0
  -19.6919  -25.6298   21.1223 H   0  0  0  0  0  0
  -19.6708  -27.3194   20.6744 H   0  0  0  0  0  0
  -17.4211  -26.6703   21.4008 H   0  0  0  0  0  0
  -18.0341  -26.0059   22.8992 H   0  0  0  0  0  0
  -19.7931  -30.7314   24.2229 H   0  0  0  0  0  0
  -17.4989  -31.6241   24.5214 H   0  0  0  0  0  0
  -15.5362  -30.2985   23.7619 H   0  0  0  0  0  0
  -15.8685  -28.0868   22.6956 H   0  0  0  0  0  0
  -24.5956  -30.6979   25.7903 H   0  0  0  0  0  0
  -24.9019  -32.2831   26.4972 H   0  0  0  0  0  0
  -25.8209  -30.8858   27.0242 H   0  0  0  0  0  0
  -26.2811  -29.6776   24.1106 H   0  0  0  0  0  0
  -27.4131  -29.7206   25.4427 H   0  0  0  0  0  0
  -27.8621  -30.4359   23.9120 H   0  0  0  0  0  0
  -27.2625  -33.3535   26.2099 H   0  0  0  0  0  0
  -28.3843  -32.6824   25.0322 H   0  0  0  0  0  0
  -28.0708  -31.8363   26.5390 H   0  0  0  0  0  0
  -28.2554  -38.0143   24.7473 H   0  0  0  0  0  0
  -28.1082  -36.2655   24.6267 H   0  0  0  0  0  0
  -27.2317  -37.1482   25.8870 H   0  0  0  0  0  0
  -20.9296  -29.8783   21.6955 H   0  0  0  0  0  0
  -26.0137  -38.2852   24.1370 H   0  0  0  0  0  0
  -33.8352  -25.9870   16.3917 H   0  0  0  0  0  0
  -33.0906  -24.9835   15.1677 H   0  0  0  0  0  0
  -34.7373  -24.6403   15.7144 H   0  0  0  0  0  0
  -31.7694  -19.5751   14.4274 H   0  0  0  0  0  0
  -31.1798  -20.8469   15.4767 H   0  0  0  0  0  0
  -30.6652  -19.1891   15.7125 H   0  0  0  0  0  0
  -33.2577  -17.7928   15.2579 H   0  0  0  0  0  0
  -32.5673  -17.4302   16.8274 H   0  0  0  0  0  0
  -34.2266  -18.0009   16.6822 H   0  0  0  0  0  0
  -32.0002  -23.5962   24.2372 H   0  0  0  0  0  0
  -30.3225  -24.0864   24.0817 H   0  0  0  0  0  0
  -31.6233  -25.1662   23.5630 H   0  0  0  0  0  0
  -26.8390  -16.2104   17.8975 H   0  0  0  0  0  0
  -28.3452  -15.2671   18.0144 H   0  0  0  0  0  0
  -28.2513  -16.5930   16.9427 H   0  0  0  0  0  0
  -27.1792  -18.7979   18.1391 H   0  0  0  0  0  0
  -28.7706  -18.7399   17.4417 H   0  0  0  0  0  0
  -28.4888  -19.4494   19.0534 H   0  0  0  0  0  0
  -27.8176  -18.0899   20.9614 H   0  0  0  0  0  0
  -27.5247  -16.3949   20.8780 H   0  0  0  0  0  0
  -26.4716  -17.5218   20.0157 H   0  0  0  0  0  0
  -33.6710  -20.0745   19.7505 H   0  0  0  0  0  0
  -34.6720  -20.1074   18.3359 H   0  0  0  0  0  0
  -33.8517  -18.6328   18.8145 H   0  0  0  0  0  0
  -30.9484  -21.7175   20.0964 H   0  0  0  0  0  0
  -32.4621  -21.4484   20.9582 H   0  0  0  0  0  0
  -32.1427  -24.3498   17.3268 H   0  0  0  0  0  0
  -33.7205  -24.2686   18.0736 H   0  0  0  0  0  0
  -31.1364  -21.5713   23.1089 H   0  0  0  0  0  0
  -29.7052  -21.9831   22.1884 H   0  0  0  0  0  0
  -34.3087  -22.2248   16.8636 H   0  0  0  0  0  0
  -32.8969  -22.3672   15.8421 H   0  0  0  0  0  0
  -28.7913  -24.3514   22.5071 H   0  0  0  0  0  0
  -28.3670  -24.1596   20.8500 H   0  0  0  0  0  0
  -31.0454  -25.3815   21.1265 H   0  0  0  0  0  0
  -30.5607  -24.0327   20.1665 H   0  0  0  0  0  0
  -31.3918  -22.0066   17.6889 H   0  0  0  0  0  0
  -32.6869  -22.0887   18.8398 H   0  0  0  0  0  0
  -30.9453  -18.6527   17.8294 H   0  0  0  0  0  0
  -30.3710  -20.2208   18.2061 H   0  0  0  0  0  0
  -29.4525  -26.8322   21.8933 H   0  0  0  0  0  0
  -27.7948  -26.3753   22.1253 H   0  0  0  0  0  0
  -30.5154  -16.6548   18.5959 H   0  0  0  0  0  0
  -33.5619  -20.1485   15.9461 H   0  0  0  0  0  0
  -32.3063  -23.5285   21.8575 H   0  0  0  0  0  0
  -28.8384  -15.3126   20.4598 H   0  0  0  0  0  0
  1 25  1  0  0  0
  1 30  2  0  0  0
  1 98  1  0  0  0
  2  3  1  0  0  0
  2 25  1  0  0  0
  2 99  1  0  0  0
  2100  1  0  0  0
  3  4  1  0  0  0
  3101  1  0  0  0
  3102  1  0  0  0
  4  5  1  0  0  0
  4103  1  0  0  0
  4104  1  0  0  0
  5  6  1  0  0  0
  5 26  1  0  0  0
  5105  1  0  0  0
  6 25  1  0  0  0
  6106  1  0  0  0
  6107  1  0  0  0
  7  8  2  0  0  0
  7 26  1  0  0  0
  7 29  1  0  0  0
  8  9  1  0  0  0
  8 22  1  0  0  0
  9 10  1  0  0  0
  9 27  2  0  0  0
 10 11  2  0  0  0
 10 15  1  0  0  0
 11 12  1  0  0  0
 11108  1  0  0  0
 12 13  2  0  0  0
 12109  1  0  0  0
 13 14  1  0  0  0
 13 31  1  0  0  0
 14 15  2  0  0  0
 14110  1  0  0  0
 15111  1  0  0  0
 16 17  2  0  0  0
 16 21  1  0  0  0
 16 31  1  0  0  0
 17 18  1  0  0  0
 17112  1  0  0  0
 18 19  2  0  0  0
 18113  1  0  0  0
 19 20  1  0  0  0
 19 24  1  0  0  0
 20 21  2  0  0  0
 20114  1  0  0  0
 21 23  1  0  0  0
 22 28  1  0  0  0
 22 32  2  0  0  0
 26 27  1  0  0  0
 28115  1  0  0  0
 28116  1  0  0  0
 29117  1  0  0  0
 29118  1  0  0  0
 33 34  1  0  0  0
 33 66  1  0  0  0
 33 70  2  0  0  0
 34 36  1  0  0  0
 34 59  1  0  0  0
 34119  1  0  0  0
 35 44  2  0  0  0
 35 45  1  0  0  0
 35 68  1  0  0  0
 36 56  1  0  0  0
 36120  1  0  0  0
 37 39  1  0  0  0
 37 47  1  0  0  0
 37 66  1  0  0  0
 37121  1  0  0  0
 38 43  2  0  0  0
 38 46  1  0  0  0
 38 47  1  0  0  0
 39 64  1  0  0  0
 39 67  2  0  0  0
 40 52  1  0  0  0
 40 53  2  0  0  0
 40 58  1  0  0  0
 41122  1  0  0  0
 41123  1  0  0  0
 41124  1  0  0  0
 41 48  1  0  0  0
 42 43  1  0  0  0
 42 66  1  0  0  0
 42125  1  0  0  0
 42126  1  0  0  0
 43 44  1  0  0  0
 44127  1  0  0  0
 45 46  2  0  0  0
 45128  1  0  0  0
 46129  1  0  0  0
 47130  1  0  0  0
 47131  1  0  0  0
 48 56  1  0  0  0
 48 65  1  0  0  0
 48132  1  0  0  0
 49 50  1  0  0  0
 49 53  1  0  0  0
 49 64  1  0  0  0
 49133  1  0  0  0
 50 51  1  0  0  0
 50134  1  0  0  0
 50135  1  0  0  0
 51 52  1  0  0  0
 51136  1  0  0  0
 51137  1  0  0  0
 52138  1  0  0  0
 52139  1  0  0  0
 53 54  1  0  0  0
 54 55  2  0  0  0
 54140  1  0  0  0
 55 57  1  0  0  0
 55141  1  0  0  0
 56 69  2  0  0  0
 57 58  2  0  0  0
 57142  1  0  0  0
 58143  1  0  0  0
 59 60  1  0  0  0
 59 61  1  0  0  0
 59 62  1  0  0  0
 60144  1  0  0  0
 60145  1  0  0  0
 60146  1  0  0  0
 61147  1  0  0  0
 61148  1  0  0  0
 61149  1  0  0  0
 62150  1  0  0  0
 62151  1  0  0  0
 62152  1  0  0  0
 63 65  1  0  0  0
 63153  1  0  0  0
 63154  1  0  0  0
 63155  1  0  0  0
 64156  1  0  0  0
 65157  1  0  0  0
 68 89  1  0  0  0
 71 81  1  0  0  0
 71 95  2  0  0  0
 71 97  1  0  0  0
 72 90  1  0  0  0
 72 96  2  0  0  0
 72 97  1  0  0  0
 73 82  1  0  0  0
 73158  1  0  0  0
 73159  1  0  0  0
 73160  1  0  0  0
 74161  1  0  0  0
 74162  1  0  0  0
 74163  1  0  0  0
 74 91  1  0  0  0
 75 91  1  0  0  0
 75164  1  0  0  0
 75165  1  0  0  0
 75166  1  0  0  0
 76167  1  0  0  0
 76168  1  0  0  0
 76169  1  0  0  0
 76 92  1  0  0  0
 77170  1  0  0  0
 77171  1  0  0  0
 77172  1  0  0  0
 77 93  1  0  0  0
 78 93  1  0  0  0
 78173  1  0  0  0
 78174  1  0  0  0
 78175  1  0  0  0
 79 93  1  0  0  0
 79176  1  0  0  0
 79177  1  0  0  0
 79178  1  0  0  0
 80179  1  0  0  0
 80180  1  0  0  0
 80181  1  0  0  0
 80 94  1  0  0  0
 81 83  1  0  0  0
 81182  1  0  0  0
 81183  1  0  0  0
 82 84  1  0  0  0
 82184  1  0  0  0
 82185  1  0  0  0
 83 92  1  0  0  0
 83186  1  0  0  0
 83187  1  0  0  0
 84 87  1  0  0  0
 84188  1  0  0  0
 84189  1  0  0  0
 85 86  1  0  0  0
 85 89  1  0  0  0
 85190  1  0  0  0
 85191  1  0  0  0
 86 92  1  0  0  0
 86192  1  0  0  0
 86193  1  0  0  0
 87 94  1  0  0  0
 87194  1  0  0  0
 87195  1  0  0  0
 88 94  1  0  0  0
 88 97  1  0  0  0
 88196  1  0  0  0
 88197  1  0  0  0
 89198  1  0  0  0
 89199  1  0  0  0
 90 93  1  0  0  0
 90 98  1  0  0  0
 90200  1  0  0  0
 91 94  1  0  0  0
 91201  1  0  0  0
 92202  1  0  0  0
 95 96  1  0  0  0
 98203  1  0  0  0
M  ISO  4   1 100  68 101  89 101  98 100
M  END
> <chiral flag>
0

> <version>
0

> <s_m_source_file>
/data/baiqing/PycharmProjects/Reinvent-master-3.2/result/LINK_invent/BTK/process_docking_weight1_custom_sum_contain_oxygen_bond_distance_aromatic_linkinvent_7_9_3/rearranged_h_0068.sdf

> <i_m_source_file_index>
40

> <r_mmod_Potential_Energy-OPLS-2005>
68.4481735229492

> <r_mmod_Stretch_Energy-OPLS-2005>
54.5956268310547

> <r_mmod_Bend_Energy-OPLS-2005>
168.935775756836

> <r_mmod_Torsional_Energy-OPLS-2005>
338.468902587891

> <r_mmod_Improper_Torsional_Energy-OPLS-2005>
14.6294813156128

> <r_mmod_Van_der_Waal_Energy-OPLS-2005>
154.711853027344

> <r_mmod_Electrostatic_Energy-OPLS-2005>
-481.930969238281

> <r_mmod_Solvation_Energy-OPLS-2005>
-210.907104492188

> <b_mmod_Minimization_Converged-OPLS-2005>
0

> <r_mmod_RMS_Derivative-OPLS-2005>
6.83580541610718

$$$$
43
                    3D
 Structure written by MMmdl.
185193  0  0  1  0            999 V2000
  -29.7965  -16.9479   20.5044 C   0  0  0  0  0  0
  -30.2789  -14.0799   19.6847 C   0  0  0  0  0  0
  -29.6028  -13.1562   18.5500 C   0  0  0  0  0  0
  -28.3108  -12.4799   19.0072 C   0  0  0  0  0  0
  -27.5877  -13.5032   19.8858 C   0  0  2  0  0  0
  -28.4602  -14.2948   20.9650 C   0  0  0  0  0  0
  -25.2115  -13.8625   20.5965 C   0  0  0  0  0  0
  -24.1666  -13.0535   20.9283 C   0  0  0  0  0  0
  -24.6628  -11.7131   20.8727 C   0  0  0  0  0  0
  -23.9356  -10.4390   21.0336 C   0  0  0  0  0  0
  -24.3791   -9.4309   21.9181 C   0  0  0  0  0  0
  -23.6388   -8.2385   22.0795 C   0  0  0  0  0  0
  -22.4389   -8.0405   21.3560 C   0  0  0  0  0  0
  -22.0072   -9.0406   20.4670 C   0  0  0  0  0  0
  -22.7487  -10.2231   20.3032 C   0  0  0  0  0  0
  -21.6919   -6.0799   22.5249 C   0  0  0  0  0  0
  -21.4090   -6.5686   23.8188 C   0  0  0  0  0  0
  -21.3655   -5.6820   24.9137 C   0  0  0  0  0  0
  -21.6014   -4.3078   24.7181 C   0  0  0  0  0  0
  -21.8845   -3.8187   23.4308 C   0  0  0  0  0  0
  -21.9225   -4.7016   22.3368 C   0  0  0  0  0  0
  -22.7634  -13.5134   21.1868 C   0  0  0  0  0  0
  -22.1680   -4.2194   21.0945 F   0  0  0  0  0  0
  -21.5582   -3.4554   25.7688 F   0  0  0  0  0  0
  -29.4599  -15.3313   20.3680 N   0  0  0  0  0  0
  -26.2888  -13.0362   20.3700 N   0  0  0  0  0  0
  -25.9689  -11.7208   20.5769 N   0  0  0  0  0  0
  -22.0354  -12.8080   22.0413 N   0  0  0  0  0  0
  -25.3364  -15.2411   20.4352 N   0  0  0  0  0  0
  -31.0237  -16.6675   20.2583 O   0  0  0  0  0  0
  -21.6753   -6.8982   21.4232 O   0  0  0  0  0  0
  -22.3235  -14.5407   20.6718 O   0  0  0  0  0  0
  -24.7946  -31.5931   23.3659 C   0  0  0  0  0  0
  -25.9892  -32.4056   23.9151 C   0  0  1  0  0  0
  -27.0527  -25.4549   19.4211 C   0  0  0  0  0  0
  -25.5793  -33.8076   24.1918 N   0  0  0  0  0  0
  -23.6211  -30.0710   21.6965 C   0  0  2  0  0  0
  -25.5224  -28.5016   19.5771 C   0  0  0  0  0  0
  -22.6096  -29.4526   22.6466 C   0  0  0  0  0  0
  -17.9555  -28.1483   22.8489 C   0  0  0  0  0  0
  -24.1478  -36.7018   23.2540 C   0  0  0  0  0  0
  -26.6818  -29.7929   22.3105 C   0  0  0  0  0  0
  -27.0377  -28.6997   20.8387 C   0  0  0  0  0  0
  -28.0496  -27.1571   21.0990 C   0  0  0  0  0  0
  -25.7289  -25.9472   18.6561 C   0  0  0  0  0  0
  -25.0933  -27.3303   18.7396 C   0  0  0  0  0  0
  -23.8150  -29.1956   20.0444 C   0  0  0  0  0  0
  -25.4141  -36.2731   24.0139 C   0  0  1  0  0  0
  -20.4939  -28.3335   23.0725 C   0  0  2  0  0  0
  -20.5175  -26.8979   22.4953 C   0  0  0  0  0  0
  -19.4219  -26.6332   21.4901 C   0  0  0  0  0  0
  -18.0782  -26.7947   22.1757 C   0  0  0  0  0  0
  -19.0941  -28.8858   23.2581 C   0  0  0  0  0  0
  -18.9240  -30.1467   23.8663 C   0  0  0  0  0  0
  -17.6352  -30.6739   24.0570 C   0  0  0  0  0  0
  -25.9101  -34.9039   23.4900 C   0  0  0  0  0  0
  -16.5082  -29.9395   23.6530 C   0  0  0  0  0  0
  -16.6692  -28.6781   23.0563 C   0  0  0  0  0  0
  -26.5176  -31.7540   25.2457 C   0  0  0  0  0  0
  -25.3989  -31.4884   26.2750 C   0  0  0  0  0  0
  -27.2219  -30.4125   25.0848 C   0  0  0  0  0  0
  -27.6061  -32.6485   25.8616 C   0  0  0  0  0  0
  -27.5543  -37.1620   24.8418 C   0  0  0  0  0  0
  -21.3462  -29.2338   22.2935 N   0  0  0  0  0  0
  -26.4265  -37.3537   23.9328 N   0  0  0  0  0  0
  -25.0100  -30.3985   22.6912 N   0  0  0  0  0  0
  -23.0420  -29.0478   23.7205 O   0  0  0  0  0  0
  -27.7349  -24.6742   18.5495 O   0  0  0  0  0  0
  -26.5966  -34.8551   22.4663 O   0  0  0  0  0  0
  -23.6629  -32.0629   23.5923 O   0  0  0  0  0  0
  -29.1876  -26.4087   19.2230 C   0  0  0  0  0  0
  -27.6797  -27.4406   18.9901 C   0  0  0  0  0  0
  -26.0047  -26.5939   20.9320 C   0  0  0  0  0  0
  -28.2290  -24.0123   21.0467 C   0  0  0  0  0  0
  -23.8172  -26.9914   21.7033 C   0  0  0  0  0  0
  -25.6112  -30.5931   20.4484 C   0  0  0  0  0  0
  -25.4873  -27.5838   23.2831 C   0  0  0  0  0  0
  -29.2750  -21.9146   22.6006 C   0  0  0  0  0  0
  -30.1721  -21.9769   20.1864 C   0  0  0  0  0  0
  -27.6440  -18.8895   21.4833 C   0  0  0  0  0  0
  -30.1838  -19.0754   21.9712 C   0  0  0  0  0  0
  -28.4953  -25.0604   15.0530 C   0  0  0  0  0  0
  -26.0800  -25.3868   15.2251 C   0  0  0  0  0  0
  -27.6281  -28.1126   17.5913 C   0  0  0  0  0  0
  -27.6887  -27.0806   16.3670 C   0  0  0  0  0  0
  -27.3400  -24.4083   17.1896 C   0  0  0  0  0  0
  -25.0777  -27.9890   21.7639 C   0  0  0  0  0  0
  -28.9429  -21.7549   21.0946 C   0  0  0  0  0  0
  -29.0450  -19.1895   20.9135 C   0  0  0  0  0  0
  -27.4038  -25.5262   16.0472 C   0  0  0  0  0  0
  -29.2872  -25.0294   20.2644 N   0  0  0  0  0  0
  -26.8485  -25.0242   21.6405 N   0  0  0  0  0  0
  -31.1636  -14.5054   19.2110 H   0  0  0  0  0  0
  -30.7049  -13.4461   20.4676 H   0  0  0  0  0  0
  -30.3163  -12.4086   18.2102 H   0  0  0  0  0  0
  -29.3905  -13.7776   17.6788 H   0  0  0  0  0  0
  -28.5597  -11.5990   19.6032 H   0  0  0  0  0  0
  -27.7013  -12.1528   18.1622 H   0  0  0  0  0  0
  -27.3253  -14.2758   19.1599 H   0  0  0  0  0  0
  -28.9254  -13.6183   21.6869 H   0  0  0  0  0  0
  -27.7828  -14.8780   21.5891 H   0  0  0  0  0  0
  -25.2896   -9.5800   22.4824 H   0  0  0  0  0  0
  -24.0057   -7.4809   22.7572 H   0  0  0  0  0  0
  -21.0998   -8.8990   19.8977 H   0  0  0  0  0  0
  -22.3962  -10.9789   19.6156 H   0  0  0  0  0  0
  -21.2162   -7.6208   23.9700 H   0  0  0  0  0  0
  -21.1407   -6.0544   25.9023 H   0  0  0  0  0  0
  -22.0617   -2.7653   23.2795 H   0  0  0  0  0  0
  -22.4010  -11.9733   22.4757 H   0  0  0  0  0  0
  -21.0972  -13.1085   22.2632 H   0  0  0  0  0  0
  -24.5579  -15.8833   20.5530 H   0  0  0  0  0  0
  -26.1825  -15.6963   20.1191 H   0  0  0  0  0  0
  -26.7843  -32.4350   23.1727 H   0  0  0  0  0  0
  -24.9580  -33.9363   24.9749 H   0  0  0  0  0  0
  -23.1415  -31.0146   21.4308 H   0  0  0  0  0  0
  -23.3822  -35.9267   23.3105 H   0  0  0  0  0  0
  -24.3519  -36.8834   22.1976 H   0  0  0  0  0  0
  -23.7157  -37.6100   23.6744 H   0  0  0  0  0  0
  -27.3666  -30.6412   22.2434 H   0  0  0  0  0  0
  -27.2033  -29.2209   23.0490 H   0  0  0  0  0  0
  -28.8918  -27.0490   21.7723 H   0  0  0  0  0  0
  -25.1889  -25.2959   17.9942 H   0  0  0  0  0  0
  -24.1743  -27.4396   18.1837 H   0  0  0  0  0  0
  -23.5532  -29.9194   19.2672 H   0  0  0  0  0  0
  -22.9779  -28.5393   19.8348 H   0  0  0  0  0  0
  -25.1360  -36.1518   25.0634 H   0  0  0  0  0  0
  -20.8571  -28.2519   24.0995 H   0  0  0  0  0  0
  -20.4184  -26.1855   23.3170 H   0  0  0  0  0  0
  -21.3951  -26.6188   21.9525 H   0  0  0  0  0  0
  -19.5188  -25.6281   21.0777 H   0  0  0  0  0  0
  -19.5050  -27.3335   20.6565 H   0  0  0  0  0  0
  -17.2747  -26.6623   21.4491 H   0  0  0  0  0  0
  -17.9445  -26.0178   22.9298 H   0  0  0  0  0  0
  -19.7906  -30.7122   24.1821 H   0  0  0  0  0  0
  -17.5151  -31.6430   24.5224 H   0  0  0  0  0  0
  -15.5154  -30.3451   23.8023 H   0  0  0  0  0  0
  -15.7940  -28.1211   22.7473 H   0  0  0  0  0  0
  -24.6888  -30.7305   25.9443 H   0  0  0  0  0  0
  -24.8339  -32.3902   26.5115 H   0  0  0  0  0  0
  -25.8236  -31.1282   27.2120 H   0  0  0  0  0  0
  -26.5203  -29.6193   24.8883 H   0  0  0  0  0  0
  -27.6651  -30.0992   26.0299 H   0  0  0  0  0  0
  -28.0675  -30.4703   24.4022 H   0  0  0  0  0  0
  -27.2243  -33.6252   26.1631 H   0  0  0  0  0  0
  -28.4191  -32.8332   25.1577 H   0  0  0  0  0  0
  -28.0452  -32.2149   26.7617 H   0  0  0  0  0  0
  -28.2498  -37.9988   24.7609 H   0  0  0  0  0  0
  -28.1133  -36.2526   24.6171 H   0  0  0  0  0  0
  -27.2215  -37.1110   25.8797 H   0  0  0  0  0  0
  -21.0089  -29.5494   21.3954 H   0  0  0  0  0  0
  -26.0101  -38.2577   24.1371 H   0  0  0  0  0  0
  -30.0616  -26.5786   18.6140 H   0  0  0  0  0  0
  -24.0812  -25.9435   21.8590 H   0  0  0  0  0  0
  -23.2649  -26.8651   20.7818 H   0  0  0  0  0  0
  -23.1905  -27.0409   22.5762 H   0  0  0  0  0  0
  -25.4127  -30.7577   19.3809 H   0  0  0  0  0  0
  -26.6443  -30.9432   20.3132 H   0  0  0  0  0  0
  -25.1601  -31.5486   20.7320 H   0  0  0  0  0  0
  -25.0662  -26.6385   23.6304 H   0  0  0  0  0  0
  -25.1999  -28.2747   24.0636 H   0  0  0  0  0  0
  -26.5452  -27.3545   23.4001 H   0  0  0  0  0  0
  -30.3290  -22.1367   22.7778 H   0  0  0  0  0  0
  -28.9675  -21.0600   23.1999 H   0  0  0  0  0  0
  -28.7158  -22.7307   23.0535 H   0  0  0  0  0  0
  -30.8664  -22.7139   20.5930 H   0  0  0  0  0  0
  -29.8583  -22.3649   19.2154 H   0  0  0  0  0  0
  -30.7347  -21.0634   20.0044 H   0  0  0  0  0  0
  -27.5339  -19.2846   22.4943 H   0  0  0  0  0  0
  -27.4430  -17.8196   21.5316 H   0  0  0  0  0  0
  -26.8610  -19.3471   20.8778 H   0  0  0  0  0  0
  -30.5536  -19.9675   22.4405 H   0  0  0  0  0  0
  -31.1145  -18.7644   21.4983 H   0  0  0  0  0  0
  -29.9416  -18.3655   22.7651 H   0  0  0  0  0  0
  -28.5236  -25.6993   14.1695 H   0  0  0  0  0  0
  -28.3095  -24.0400   14.7016 H   0  0  0  0  0  0
  -29.4902  -25.0613   15.5055 H   0  0  0  0  0  0
  -25.1986  -25.6544   15.8073 H   0  0  0  0  0  0
  -25.9140  -24.3612   14.8905 H   0  0  0  0  0  0
  -26.0766  -26.0162   14.3331 H   0  0  0  0  0  0
  -28.5303  -28.7217   17.5368 H   0  0  0  0  0  0
  -26.8333  -28.8488   17.4668 H   0  0  0  0  0  0
  -26.6767  -27.0062   16.7063 H   0  0  0  0  0  0
  -28.6333  -26.7509   16.7926 H   0  0  0  0  0  0
  -28.0023  -23.5830   16.9101 H   0  0  0  0  0  0
  -26.3852  -23.8791   17.1902 H   0  0  0  0  0  0
  1 25  1  0  0  0
  1 30  2  0  0  0
  1 89  1  0  0  0
  2  3  1  0  0  0
  2 25  1  0  0  0
  2 93  1  0  0  0
  2 94  1  0  0  0
  3  4  1  0  0  0
  3 95  1  0  0  0
  3 96  1  0  0  0
  4  5  1  0  0  0
  4 97  1  0  0  0
  4 98  1  0  0  0
  5  6  1  0  0  0
  5 26  1  0  0  0
  5 99  1  0  0  0
  6 25  1  0  0  0
  6100  1  0  0  0
  6101  1  0  0  0
  7  8  2  0  0  0
  7 26  1  0  0  0
  7 29  1  0  0  0
  8  9  1  0  0  0
  8 22  1  0  0  0
  9 10  1  0  0  0
  9 27  2  0  0  0
 10 11  2  0  0  0
 10 15  1  0  0  0
 11 12  1  0  0  0
 11102  1  0  0  0
 12 13  2  0  0  0
 12103  1  0  0  0
 13 14  1  0  0  0
 13 31  1  0  0  0
 14 15  2  0  0  0
 14104  1  0  0  0
 15105  1  0  0  0
 16 17  2  0  0  0
 16 21  1  0  0  0
 16 31  1  0  0  0
 17 18  1  0  0  0
 17106  1  0  0  0
 18 19  2  0  0  0
 18107  1  0  0  0
 19 20  1  0  0  0
 19 24  1  0  0  0
 20 21  2  0  0  0
 20108  1  0  0  0
 21 23  1  0  0  0
 22 28  1  0  0  0
 22 32  2  0  0  0
 26 27  1  0  0  0
 28109  1  0  0  0
 28110  1  0  0  0
 29111  1  0  0  0
 29112  1  0  0  0
 33 34  1  0  0  0
 33 66  1  0  0  0
 33 70  2  0  0  0
 34 36  1  0  0  0
 34 59  1  0  0  0
 34113  1  0  0  0
 35 44  2  0  0  0
 35 45  1  0  0  0
 35 68  1  0  0  0
 36 56  1  0  0  0
 36114  1  0  0  0
 37 39  1  0  0  0
 37 47  1  0  0  0
 37 66  1  0  0  0
 37115  1  0  0  0
 38 43  2  0  0  0
 38 46  1  0  0  0
 38 47  1  0  0  0
 39 64  1  0  0  0
 39 67  2  0  0  0
 40 52  1  0  0  0
 40 53  2  0  0  0
 40 58  1  0  0  0
 41116  1  0  0  0
 41117  1  0  0  0
 41118  1  0  0  0
 41 48  1  0  0  0
 42 43  1  0  0  0
 42 66  1  0  0  0
 42119  1  0  0  0
 42120  1  0  0  0
 43 44  1  0  0  0
 44121  1  0  0  0
 45 46  2  0  0  0
 45122  1  0  0  0
 46123  1  0  0  0
 47124  1  0  0  0
 47125  1  0  0  0
 48 56  1  0  0  0
 48 65  1  0  0  0
 48126  1  0  0  0
 49 50  1  0  0  0
 49 53  1  0  0  0
 49 64  1  0  0  0
 49127  1  0  0  0
 50 51  1  0  0  0
 50128  1  0  0  0
 50129  1  0  0  0
 51 52  1  0  0  0
 51130  1  0  0  0
 51131  1  0  0  0
 52132  1  0  0  0
 52133  1  0  0  0
 53 54  1  0  0  0
 54 55  2  0  0  0
 54134  1  0  0  0
 55 57  1  0  0  0
 55135  1  0  0  0
 56 69  2  0  0  0
 57 58  2  0  0  0
 57136  1  0  0  0
 58137  1  0  0  0
 59 60  1  0  0  0
 59 61  1  0  0  0
 59 62  1  0  0  0
 60138  1  0  0  0
 60139  1  0  0  0
 60140  1  0  0  0
 61141  1  0  0  0
 61142  1  0  0  0
 61143  1  0  0  0
 62144  1  0  0  0
 62145  1  0  0  0
 62146  1  0  0  0
 63 65  1  0  0  0
 63147  1  0  0  0
 63148  1  0  0  0
 63149  1  0  0  0
 64150  1  0  0  0
 65151  1  0  0  0
 68 86  1  0  0  0
 71 72  2  0  0  0
 71 91  1  0  0  0
 71152  1  0  0  0
 72 73  1  0  0  0
 72 84  1  0  0  0
 73 87  1  0  0  0
 73 92  2  0  0  0
 74 88  1  0  0  0
 74 91  2  0  0  0
 74 92  1  0  0  0
 75153  1  0  0  0
 75154  1  0  0  0
 75155  1  0  0  0
 75 87  1  0  0  0
 76 87  1  0  0  0
 76156  1  0  0  0
 76157  1  0  0  0
 76158  1  0  0  0
 77 87  1  0  0  0
 77159  1  0  0  0
 77160  1  0  0  0
 77161  1  0  0  0
 78162  1  0  0  0
 78163  1  0  0  0
 78164  1  0  0  0
 78 88  1  0  0  0
 79 88  1  0  0  0
 79165  1  0  0  0
 79166  1  0  0  0
 79167  1  0  0  0
 80168  1  0  0  0
 80169  1  0  0  0
 80170  1  0  0  0
 80 89  1  0  0  0
 81 89  1  0  0  0
 81171  1  0  0  0
 81172  1  0  0  0
 81173  1  0  0  0
 82174  1  0  0  0
 82175  1  0  0  0
 82176  1  0  0  0
 82 90  1  0  0  0
 83 90  1  0  0  0
 83177  1  0  0  0
 83178  1  0  0  0
 83179  1  0  0  0
 84 85  1  0  0  0
 84180  1  0  0  0
 84181  1  0  0  0
 85 90  1  0  0  0
 85182  1  0  0  0
 85183  1  0  0  0
 86 90  1  0  0  0
 86184  1  0  0  0
 86185  1  0  0  0
 88 89  1  0  0  0
M  ISO  4   1 100  68 101  86 101  89 100
M  END
> <chiral flag>
0

> <version>
0

> <s_m_source_file>
/data/baiqing/PycharmProjects/Reinvent-master-3.2/result/LINK_invent/BTK/process_docking_weight1_custom_sum_contain_oxygen_bond_distance_aromatic_linkinvent_7_9_3/rearranged_h_0068.sdf

> <i_m_source_file_index>
41

> <r_mmod_Potential_Energy-OPLS-2005>
28687.62890625

> <r_mmod_Stretch_Energy-OPLS-2005>
16333.8779296875

> <r_mmod_Bend_Energy-OPLS-2005>
2106.95385742188

> <r_mmod_Torsional_Energy-OPLS-2005>
522.796203613281

> <r_mmod_Improper_Torsional_Energy-OPLS-2005>
60.9495544433594

> <r_mmod_Van_der_Waal_Energy-OPLS-2005>
5593.009765625

> <r_mmod_Electrostatic_Energy-OPLS-2005>
-646.888061523438

> <r_mmod_Solvation_Energy-OPLS-2005>
-219.875961303711

> <b_mmod_Minimization_Converged-OPLS-2005>
0

> <r_mmod_RMS_Derivative-OPLS-2005>
14.5342578887939

$$$$
44
                    3D
 Structure written by MMmdl.
183191  0  0  1  0            999 V2000
  -30.9685  -14.4215   20.1352 C   0  0  0  0  0  0
  -30.3716  -12.2234   19.3010 C   0  0  0  0  0  0
  -29.3702  -12.2538   18.1410 C   0  0  0  0  0  0
  -27.9449  -12.1708   18.6752 C   0  0  0  0  0  0
  -27.6498  -13.1618   19.8288 C   0  0  2  0  0  0
  -28.8086  -13.2057   20.8757 C   0  0  0  0  0  0
  -25.2731  -13.8110   20.5894 C   0  0  0  0  0  0
  -24.1901  -13.0438   20.9343 C   0  0  0  0  0  0
  -24.6400  -11.6894   20.8969 C   0  0  0  0  0  0
  -23.9034  -10.4296   21.0514 C   0  0  0  0  0  0
  -24.3583   -9.4173   21.9237 C   0  0  0  0  0  0
  -23.6265   -8.2205   22.0755 C   0  0  0  0  0  0
  -22.4259   -8.0273   21.3526 C   0  0  0  0  0  0
  -21.9907   -9.0273   20.4650 C   0  0  0  0  0  0
  -22.7242  -10.2160   20.3105 C   0  0  0  0  0  0
  -21.6838   -6.0732   22.5271 C   0  0  0  0  0  0
  -21.4016   -6.5636   23.8207 C   0  0  0  0  0  0
  -21.3631   -5.6778   24.9162 C   0  0  0  0  0  0
  -21.6043   -4.3054   24.7217 C   0  0  0  0  0  0
  -21.8830   -3.8146   23.4340 C   0  0  0  0  0  0
  -21.9210   -4.6957   22.3401 C   0  0  0  0  0  0
  -22.7907  -13.5258   21.1870 C   0  0  0  0  0  0
  -22.1669   -4.2151   21.0969 F   0  0  0  0  0  0
  -21.5614   -3.4533   25.7723 F   0  0  0  0  0  0
  -30.0781  -13.3836   20.1229 N   0  0  0  0  0  0
  -26.3152  -12.9189   20.3744 N   0  0  0  0  0  0
  -25.9356  -11.6424   20.6272 N   0  0  0  0  0  0
  -22.0460  -12.8221   22.0341 N   0  0  0  0  0  0
  -25.4526  -15.1788   20.4120 N   0  0  0  0  0  0
  -31.7539  -14.5153   21.0427 O   0  0  0  0  0  0
  -21.6610   -6.8875   21.4232 O   0  0  0  0  0  0
  -22.3640  -14.5569   20.6707 O   0  0  0  0  0  0
  -24.6115  -31.8741   23.2130 C   0  0  0  0  0  0
  -25.9010  -32.4861   23.8396 C   0  0  1  0  0  0
  -27.2308  -27.4656   20.0918 C   0  0  0  0  0  0
  -25.5884  -33.8644   24.2370 N   0  0  0  0  0  0
  -23.3966  -30.4967   21.5582 C   0  0  2  0  0  0
  -24.8403  -28.9680   20.1268 C   0  0  0  0  0  0
  -22.7390  -29.4694   22.5060 C   0  0  0  0  0  0
  -18.0259  -28.1413   22.8495 C   0  0  0  0  0  0
  -24.1501  -36.7279   23.2652 C   0  0  0  0  0  0
  -25.9201  -30.8482   21.3594 C   0  0  0  0  0  0
  -26.0000  -29.4816   20.7201 C   0  0  0  0  0  0
  -27.2007  -28.7354   20.7062 C   0  0  0  0  0  0
  -26.0557  -26.9742   19.4804 C   0  0  0  0  0  0
  -24.8596  -27.7087   19.5089 C   0  0  0  0  0  0
  -23.5995  -29.8280   20.1749 C   0  0  0  0  0  0
  -25.4110  -36.3106   24.0361 C   0  0  1  0  0  0
  -20.5843  -28.3673   23.1337 C   0  0  2  0  0  0
  -20.6779  -26.9422   22.5415 C   0  0  0  0  0  0
  -19.5754  -26.6399   21.5224 C   0  0  0  0  0  0
  -18.1919  -26.7958   22.1630 C   0  0  0  0  0  0
  -19.1506  -28.8854   23.2920 C   0  0  0  0  0  0
  -18.9469  -30.1462   23.8927 C   0  0  0  0  0  0
  -17.6483  -30.6627   24.0560 C   0  0  0  0  0  0
  -25.9030  -34.9489   23.5162 C   0  0  0  0  0  0
  -16.5361  -29.9107   23.6365 C   0  0  0  0  0  0
  -16.7255  -28.6526   23.0367 C   0  0  0  0  0  0
  -26.4473  -31.6624   25.0688 C   0  0  0  0  0  0
  -25.3735  -31.3656   26.1423 C   0  0  0  0  0  0
  -27.0365  -30.3108   24.5974 C   0  0  0  0  0  0
  -27.6091  -32.4330   25.7435 C   0  0  0  0  0  0
  -27.5586  -37.1769   24.8473 C   0  0  0  0  0  0
  -21.4116  -29.3046   22.3763 N   0  0  0  0  0  0
  -26.4282  -37.3786   23.9437 N   0  0  0  0  0  0
  -24.6615  -31.0860   22.1044 N   0  0  0  0  0  0
  -23.4166  -28.8238   23.3105 O   0  0  0  0  0  0
  -28.4209  -26.7843   19.9997 O   0  0  0  0  0  0
  -26.5602  -34.8933   22.4721 O   0  0  0  0  0  0
  -23.5314  -32.1494   23.7531 O   0  0  0  0  0  0
  -30.5667  -19.5064   22.0568 C   0  0  0  0  0  0
  -31.6142  -18.5898   21.8943 C   0  0  0  0  0  0
  -29.5027  -19.4010   21.1728 C   0  0  0  0  0  0
  -30.4631  -17.5802   20.1584 C   0  0  0  0  0  0
  -33.1674  -17.3014   23.4271 C   0  0  0  0  0  0
  -32.8110  -19.7230   23.8426 C   0  0  0  0  0  0
  -34.0813  -19.0208   21.8120 C   0  0  0  0  0  0
  -30.7205  -17.5874   17.6702 C   0  0  0  0  0  0
  -28.9308  -16.2328   18.7376 C   0  0  0  0  0  0
  -32.8680  -15.7338   19.0194 C   0  0  0  0  0  0
  -31.3792  -14.6976   17.4961 C   0  0  0  0  0  0
  -28.2359  -22.9981   20.2762 C   0  0  0  0  0  0
  -27.6786  -24.4008   20.0428 C   0  0  0  0  0  0
  -27.1709  -21.9215   20.0094 C   0  0  0  0  0  0
  -28.5321  -25.5236   20.6577 C   0  0  0  0  0  0
  -27.7592  -20.5135   19.9873 C   0  0  0  0  0  0
  -32.9030  -18.6522   22.7324 C   0  0  0  0  0  0
  -30.4084  -16.6779   18.8917 C   0  0  0  0  0  0
  -31.3359  -15.3741   18.9077 C   0  0  0  0  0  0
  -31.5545  -17.6635   20.9152 N   0  0  0  0  0  0
  -29.4503  -18.4331   20.2536 N   0  0  0  0  0  0
  -28.4946  -20.3322   21.1942 O   0  0  0  0  0  0
  -31.4058  -12.1926   18.9592 H   0  0  0  0  0  0
  -30.2451  -11.3102   19.8847 H   0  0  0  0  0  0
  -29.5640  -11.4273   17.4569 H   0  0  0  0  0  0
  -29.4071  -13.1432   17.5398 H   0  0  0  0  0  0
  -27.8091  -11.1465   19.0254 H   0  0  0  0  0  0
  -27.2276  -12.3058   17.8646 H   0  0  0  0  0  0
  -27.5810  -14.1196   19.3384 H   0  0  0  0  0  0
  -28.8404  -12.2882   21.4654 H   0  0  0  0  0  0
  -28.6632  -14.0297   21.5748 H   0  0  0  0  0  0
  -25.2729   -9.5623   22.4820 H   0  0  0  0  0  0
  -23.9985   -7.4564   22.7425 H   0  0  0  0  0  0
  -21.0867   -8.8810   19.8913 H   0  0  0  0  0  0
  -22.3728  -10.9718   19.6225 H   0  0  0  0  0  0
  -21.2003   -7.6145   23.9712 H   0  0  0  0  0  0
  -21.1424   -6.0503   25.9060 H   0  0  0  0  0  0
  -22.0642   -2.7615   23.2841 H   0  0  0  0  0  0
  -22.3996  -11.9829   22.4677 H   0  0  0  0  0  0
  -21.1051  -13.1250   22.2431 H   0  0  0  0  0  0
  -24.6981  -15.8495   20.5130 H   0  0  0  0  0  0
  -26.3247  -15.6072   20.1258 H   0  0  0  0  0  0
  -26.7078  -32.5626   23.1167 H   0  0  0  0  0  0
  -25.0023  -33.9840   25.0497 H   0  0  0  0  0  0
  -22.6832  -31.3129   21.4221 H   0  0  0  0  0  0
  -23.3793  -35.9582   23.3314 H   0  0  0  0  0  0
  -24.3572  -36.8880   22.2057 H   0  0  0  0  0  0
  -23.7223  -37.6454   23.6674 H   0  0  0  0  0  0
  -26.0100  -31.6079   20.5809 H   0  0  0  0  0  0
  -26.8170  -30.9220   21.9632 H   0  0  0  0  0  0
  -28.1019  -29.1330   21.1549 H   0  0  0  0  0  0
  -26.0537  -26.0443   18.9410 H   0  0  0  0  0  0
  -23.9717  -27.3143   19.0344 H   0  0  0  0  0  0
  -23.6937  -30.6014   19.4125 H   0  0  0  0  0  0
  -22.7279  -29.2369   19.8873 H   0  0  0  0  0  0
  -25.1294  -36.1961   25.0850 H   0  0  0  0  0  0
  -20.9938  -28.3260   24.1462 H   0  0  0  0  0  0
  -20.5765  -26.2278   23.3590 H   0  0  0  0  0  0
  -21.6648  -26.7545   22.1191 H   0  0  0  0  0  0
  -19.6943  -25.6317   21.1251 H   0  0  0  0  0  0
  -19.6713  -27.3226   20.6768 H   0  0  0  0  0  0
  -17.4212  -26.6704   21.4021 H   0  0  0  0  0  0
  -18.0311  -26.0104   22.9031 H   0  0  0  0  0  0
  -19.7952  -30.7222   24.2355 H   0  0  0  0  0  0
  -17.5057  -31.6327   24.5113 H   0  0  0  0  0  0
  -15.5374  -30.3016   23.7713 H   0  0  0  0  0  0
  -15.8642  -28.0844   22.7109 H   0  0  0  0  0  0
  -24.5957  -30.6981   25.7679 H   0  0  0  0  0  0
  -24.8853  -32.2782   26.4863 H   0  0  0  0  0  0
  -25.8061  -30.8796   27.0185 H   0  0  0  0  0  0
  -26.2906  -29.6749   24.1181 H   0  0  0  0  0  0
  -27.4410  -29.7408   25.4350 H   0  0  0  0  0  0
  -27.8588  -30.4504   23.8948 H   0  0  0  0  0  0
  -27.2793  -33.3670   26.1989 H   0  0  0  0  0  0
  -28.3885  -32.6813   25.0224 H   0  0  0  0  0  0
  -28.0764  -31.8447   26.5334 H   0  0  0  0  0  0
  -28.2612  -38.0078   24.7602 H   0  0  0  0  0  0
  -28.1115  -36.2623   24.6265 H   0  0  0  0  0  0
  -27.2301  -37.1327   25.8872 H   0  0  0  0  0  0
  -20.9292  -29.8684   21.6897 H   0  0  0  0  0  0
  -26.0200  -38.2863   24.1454 H   0  0  0  0  0  0
  -30.5749  -20.3104   22.7779 H   0  0  0  0  0  0
  -32.3384  -17.0290   24.0819 H   0  0  0  0  0  0
  -34.0716  -17.3413   24.0374 H   0  0  0  0  0  0
  -33.2959  -16.4957   22.7033 H   0  0  0  0  0  0
  -31.9672  -19.5295   24.5058 H   0  0  0  0  0  0
  -32.6909  -20.7241   23.4300 H   0  0  0  0  0  0
  -33.7086  -19.7369   24.4601 H   0  0  0  0  0  0
  -34.2872  -18.2284   21.0923 H   0  0  0  0  0  0
  -34.9984  -19.1997   22.3745 H   0  0  0  0  0  0
  -33.8607  -19.9252   21.2440 H   0  0  0  0  0  0
  -30.0030  -18.4073   17.6132 H   0  0  0  0  0  0
  -30.6436  -17.0655   16.7176 H   0  0  0  0  0  0
  -31.7045  -18.0456   17.7393 H   0  0  0  0  0  0
  -28.2804  -17.0543   18.4387 H   0  0  0  0  0  0
  -28.5605  -15.9020   19.7062 H   0  0  0  0  0  0
  -28.7732  -15.4486   18.0032 H   0  0  0  0  0  0
  -33.1875  -16.4639   18.2778 H   0  0  0  0  0  0
  -33.4842  -14.8464   18.8641 H   0  0  0  0  0  0
  -33.1928  -16.1303   19.9781 H   0  0  0  0  0  0
  -32.0624  -15.2170   16.8210 H   0  0  0  0  0  0
  -30.4482  -14.7373   16.9429 H   0  0  0  0  0  0
  -31.7556  -13.6794   17.5146 H   0  0  0  0  0  0
  -28.6070  -22.9086   21.2986 H   0  0  0  0  0  0
  -29.0983  -22.8448   19.6243 H   0  0  0  0  0  0
  -26.6721  -24.4552   20.4585 H   0  0  0  0  0  0
  -27.6016  -24.5395   18.9647 H   0  0  0  0  0  0
  -26.6773  -22.1058   19.0531 H   0  0  0  0  0  0
  -26.3963  -21.9801   20.7744 H   0  0  0  0  0  0
  -29.5846  -25.2502   20.5840 H   0  0  0  0  0  0
  -28.3268  -25.6264   21.7246 H   0  0  0  0  0  0
  -28.3916  -20.4160   19.1006 H   0  0  0  0  0  0
  -26.9722  -19.7630   19.9143 H   0  0  0  0  0  0
  1 25  1  0  0  0
  1 30  2  0  0  0
  1 89  1  0  0  0
  2  3  1  0  0  0
  2 25  1  0  0  0
  2 93  1  0  0  0
  2 94  1  0  0  0
  3  4  1  0  0  0
  3 95  1  0  0  0
  3 96  1  0  0  0
  4  5  1  0  0  0
  4 97  1  0  0  0
  4 98  1  0  0  0
  5  6  1  0  0  0
  5 26  1  0  0  0
  5 99  1  0  0  0
  6 25  1  0  0  0
  6100  1  0  0  0
  6101  1  0  0  0
  7  8  2  0  0  0
  7 26  1  0  0  0
  7 29  1  0  0  0
  8  9  1  0  0  0
  8 22  1  0  0  0
  9 10  1  0  0  0
  9 27  2  0  0  0
 10 11  2  0  0  0
 10 15  1  0  0  0
 11 12  1  0  0  0
 11102  1  0  0  0
 12 13  2  0  0  0
 12103  1  0  0  0
 13 14  1  0  0  0
 13 31  1  0  0  0
 14 15  2  0  0  0
 14104  1  0  0  0
 15105  1  0  0  0
 16 17  2  0  0  0
 16 21  1  0  0  0
 16 31  1  0  0  0
 17 18  1  0  0  0
 17106  1  0  0  0
 18 19  2  0  0  0
 18107  1  0  0  0
 19 20  1  0  0  0
 19 24  1  0  0  0
 20 21  2  0  0  0
 20108  1  0  0  0
 21 23  1  0  0  0
 22 28  1  0  0  0
 22 32  2  0  0  0
 26 27  1  0  0  0
 28109  1  0  0  0
 28110  1  0  0  0
 29111  1  0  0  0
 29112  1  0  0  0
 33 34  1  0  0  0
 33 66  1  0  0  0
 33 70  2  0  0  0
 34 36  1  0  0  0
 34 59  1  0  0  0
 34113  1  0  0  0
 35 44  2  0  0  0
 35 45  1  0  0  0
 35 68  1  0  0  0
 36 56  1  0  0  0
 36114  1  0  0  0
 37 39  1  0  0  0
 37 47  1  0  0  0
 37 66  1  0  0  0
 37115  1  0  0  0
 38 43  2  0  0  0
 38 46  1  0  0  0
 38 47  1  0  0  0
 39 64  1  0  0  0
 39 67  2  0  0  0
 40 52  1  0  0  0
 40 53  2  0  0  0
 40 58  1  0  0  0
 41116  1  0  0  0
 41117  1  0  0  0
 41118  1  0  0  0
 41 48  1  0  0  0
 42 43  1  0  0  0
 42 66  1  0  0  0
 42119  1  0  0  0
 42120  1  0  0  0
 43 44  1  0  0  0
 44121  1  0  0  0
 45 46  2  0  0  0
 45122  1  0  0  0
 46123  1  0  0  0
 47124  1  0  0  0
 47125  1  0  0  0
 48 56  1  0  0  0
 48 65  1  0  0  0
 48126  1  0  0  0
 49 50  1  0  0  0
 49 53  1  0  0  0
 49 64  1  0  0  0
 49127  1  0  0  0
 50 51  1  0  0  0
 50128  1  0  0  0
 50129  1  0  0  0
 51 52  1  0  0  0
 51130  1  0  0  0
 51131  1  0  0  0
 52132  1  0  0  0
 52133  1  0  0  0
 53 54  1  0  0  0
 54 55  2  0  0  0
 54134  1  0  0  0
 55 57  1  0  0  0
 55135  1  0  0  0
 56 69  2  0  0  0
 57 58  2  0  0  0
 57136  1  0  0  0
 58137  1  0  0  0
 59 60  1  0  0  0
 59 61  1  0  0  0
 59 62  1  0  0  0
 60138  1  0  0  0
 60139  1  0  0  0
 60140  1  0  0  0
 61141  1  0  0  0
 61142  1  0  0  0
 61143  1  0  0  0
 62144  1  0  0  0
 62145  1  0  0  0
 62146  1  0  0  0
 63 65  1  0  0  0
 63147  1  0  0  0
 63148  1  0  0  0
 63149  1  0  0  0
 64150  1  0  0  0
 65151  1  0  0  0
 68 85  1  0  0  0
 71 72  2  0  0  0
 71 73  1  0  0  0
 71152  1  0  0  0
 72 87  1  0  0  0
 72 90  1  0  0  0
 73 91  2  0  0  0
 73 92  1  0  0  0
 74 88  1  0  0  0
 74 90  2  0  0  0
 74 91  1  0  0  0
 75153  1  0  0  0
 75154  1  0  0  0
 75155  1  0  0  0
 75 87  1  0  0  0
 76 87  1  0  0  0
 76156  1  0  0  0
 76157  1  0  0  0
 76158  1  0  0  0
 77 87  1  0  0  0
 77159  1  0  0  0
 77160  1  0  0  0
 77161  1  0  0  0
 78162  1  0  0  0
 78163  1  0  0  0
 78164  1  0  0  0
 78 88  1  0  0  0
 79 88  1  0  0  0
 79165  1  0  0  0
 79166  1  0  0  0
 79167  1  0  0  0
 80168  1  0  0  0
 80169  1  0  0  0
 80170  1  0  0  0
 80 89  1  0  0  0
 81 89  1  0  0  0
 81171  1  0  0  0
 81172  1  0  0  0
 81173  1  0  0  0
 82 83  1  0  0  0
 82 84  1  0  0  0
 82174  1  0  0  0
 82175  1  0  0  0
 83 85  1  0  0  0
 83176  1  0  0  0
 83177  1  0  0  0
 84 86  1  0  0  0
 84178  1  0  0  0
 84179  1  0  0  0
 85180  1  0  0  0
 85181  1  0  0  0
 86 92  1  0  0  0
 86182  1  0  0  0
 86183  1  0  0  0
 88 89  1  0  0  0
M  ISO  4   1 100  68 101  85 101  89 100
M  END
> <chiral flag>
0

> <version>
0

> <s_m_source_file>
/data/baiqing/PycharmProjects/Reinvent-master-3.2/result/LINK_invent/BTK/process_docking_weight1_custom_sum_contain_oxygen_bond_distance_aromatic_linkinvent_7_9_3/rearranged_h_0068.sdf

> <i_m_source_file_index>
42

> <r_mmod_Potential_Energy-OPLS-2005>
-156.967025756836

> <r_mmod_Stretch_Energy-OPLS-2005>
56.507926940918

> <r_mmod_Bend_Energy-OPLS-2005>
173.948287963867

> <r_mmod_Torsional_Energy-OPLS-2005>
268.795684814453

> <r_mmod_Improper_Torsional_Energy-OPLS-2005>
9.05637264251709

> <r_mmod_Van_der_Waal_Energy-OPLS-2005>
226.326522827148

> <r_mmod_Electrostatic_Energy-OPLS-2005>
-890.187438964844

> <r_mmod_Solvation_Energy-OPLS-2005>
-182.905517578125

> <b_mmod_Minimization_Converged-OPLS-2005>
0

> <r_mmod_RMS_Derivative-OPLS-2005>
4.19337177276611

$$$$
45
                    3D
 Structure written by MMmdl.
170179  0  0  1  0            999 V2000
  -30.7390  -14.4980   20.6201 C   0  0  0  0  0  0
  -30.4205  -12.3451   19.4284 C   0  0  0  0  0  0
  -29.4926  -12.4880   18.2008 C   0  0  0  0  0  0
  -28.0142  -12.3323   18.6019 C   0  0  0  0  0  0
  -27.6475  -13.1912   19.8352 C   0  0  2  0  0  0
  -28.6848  -13.0184   20.9615 C   0  0  0  0  0  0
  -25.2519  -13.8063   20.5416 C   0  0  0  0  0  0
  -24.1840  -13.0373   20.9149 C   0  0  0  0  0  0
  -24.6406  -11.6867   20.8746 C   0  0  0  0  0  0
  -23.9058  -10.4277   21.0421 C   0  0  0  0  0  0
  -24.3604   -9.4205   21.9204 C   0  0  0  0  0  0
  -23.6289   -8.2241   22.0765 C   0  0  0  0  0  0
  -22.4282   -8.0273   21.3541 C   0  0  0  0  0  0
  -21.9889   -9.0262   20.4657 C   0  0  0  0  0  0
  -22.7221  -10.2150   20.3071 C   0  0  0  0  0  0
  -21.6859   -6.0724   22.5289 C   0  0  0  0  0  0
  -21.4031   -6.5630   23.8220 C   0  0  0  0  0  0
  -21.3658   -5.6783   24.9178 C   0  0  0  0  0  0
  -21.6030   -4.3045   24.7235 C   0  0  0  0  0  0
  -21.8835   -3.8138   23.4361 C   0  0  0  0  0  0
  -21.9208   -4.6953   22.3411 C   0  0  0  0  0  0
  -22.7917  -13.5251   21.1824 C   0  0  0  0  0  0
  -22.1671   -4.2114   21.0993 F   0  0  0  0  0  0
  -21.5603   -3.4537   25.7757 F   0  0  0  0  0  0
  -30.0197  -13.3457   20.4448 N   0  0  0  0  0  0
  -26.2951  -12.9216   20.3133 N   0  0  0  0  0  0
  -25.9313  -11.6419   20.5741 N   0  0  0  0  0  0
  -22.0579  -12.8255   22.0410 N   0  0  0  0  0  0
  -25.4027  -15.1708   20.3426 N   0  0  0  0  0  0
  -31.8981  -14.5477   20.1997 O   0  0  0  0  0  0
  -21.6665   -6.8856   21.4245 O   0  0  0  0  0  0
  -22.3638  -14.5579   20.6702 O   0  0  0  0  0  0
  -24.6121  -31.8697   23.2117 C   0  0  0  0  0  0
  -25.9015  -32.4827   23.8391 C   0  0  1  0  0  0
  -27.2470  -27.4681   20.0818 C   0  0  0  0  0  0
  -25.5876  -33.8627   24.2305 N   0  0  0  0  0  0
  -23.3969  -30.4929   21.5547 C   0  0  2  0  0  0
  -24.8407  -28.9590   20.1155 C   0  0  0  0  0  0
  -22.7419  -29.4672   22.5034 C   0  0  0  0  0  0
  -18.0258  -28.1401   22.8474 C   0  0  0  0  0  0
  -24.1501  -36.7349   23.2628 C   0  0  0  0  0  0
  -25.9194  -30.8408   21.3583 C   0  0  0  0  0  0
  -25.9955  -29.4770   20.7110 C   0  0  0  0  0  0
  -27.1965  -28.7412   20.6991 C   0  0  0  0  0  0
  -26.0735  -26.9553   19.4942 C   0  0  0  0  0  0
  -24.8713  -27.6920   19.5058 C   0  0  0  0  0  0
  -23.6016  -29.8261   20.1678 C   0  0  0  0  0  0
  -25.4108  -36.3108   24.0325 C   0  0  1  0  0  0
  -20.5855  -28.3663   23.1334 C   0  0  2  0  0  0
  -20.6767  -26.9406   22.5439 C   0  0  0  0  0  0
  -19.5750  -26.6403   21.5225 C   0  0  0  0  0  0
  -18.1922  -26.7941   22.1619 C   0  0  0  0  0  0
  -19.1513  -28.8856   23.2888 C   0  0  0  0  0  0
  -18.9437  -30.1464   23.8894 C   0  0  0  0  0  0
  -17.6441  -30.6604   24.0572 C   0  0  0  0  0  0
  -25.9015  -34.9472   23.5112 C   0  0  0  0  0  0
  -16.5332  -29.9102   23.6343 C   0  0  0  0  0  0
  -16.7249  -28.6536   23.0329 C   0  0  0  0  0  0
  -26.4423  -31.6588   25.0718 C   0  0  0  0  0  0
  -25.3699  -31.3710   26.1493 C   0  0  0  0  0  0
  -27.0240  -30.3037   24.6044 C   0  0  0  0  0  0
  -27.5999  -32.4310   25.7488 C   0  0  0  0  0  0
  -27.5562  -37.1841   24.8464 C   0  0  0  0  0  0
  -21.4150  -29.3015   22.3762 N   0  0  0  0  0  0
  -26.4288  -37.3784   23.9378 N   0  0  0  0  0  0
  -24.6617  -31.0846   22.0999 N   0  0  0  0  0  0
  -23.4229  -28.8238   23.3065 O   0  0  0  0  0  0
  -28.3842  -26.6904   19.9944 O   0  0  0  0  0  0
  -26.5610  -34.8922   22.4688 O   0  0  0  0  0  0
  -23.5341  -32.1421   23.7569 O   0  0  0  0  0  0
  -27.7965  -18.9521   21.3763 C   0  0  0  0  0  0
  -27.6354  -20.3430   21.4905 C   0  0  0  0  0  0
  -27.7235  -18.8211   23.7795 C   0  0  0  0  0  0
  -29.2709  -24.6246   24.1533 C   0  0  0  0  0  0
  -27.8524  -18.1615   22.5406 C   0  0  0  0  0  0
  -27.5051  -20.9117   22.7687 C   0  0  0  0  0  0
  -29.6739  -24.3809   21.9886 C   0  0  0  0  0  0
  -28.1354  -23.1407   22.9836 C   0  0  0  0  0  0
  -31.2970  -16.9054   21.2519 C   0  0  0  0  0  0
  -29.3728  -16.4125   19.7839 C   0  0  0  0  0  0
  -27.9324  -16.6296   22.4580 C   0  0  0  0  0  0
  -30.5226  -24.6869   20.7634 C   0  0  0  0  0  0
  -29.3518  -15.9876   22.4232 C   0  0  0  0  0  0
  -30.7239  -26.1785   20.4319 C   0  0  0  0  0  0
  -29.5427  -27.1225   20.6929 C   0  0  0  0  0  0
  -30.1268  -15.8967   21.0444 C   0  0  0  0  0  0
  -27.5366  -20.1577   23.8950 N   0  0  0  0  0  0
  -30.0211  -24.9813   23.1197 N   0  0  0  0  0  0
  -28.3034  -23.7188   24.1651 N   0  0  0  0  0  0
  -28.7332  -23.4579   21.8407 N   0  0  0  0  0  0
  -27.1408  -22.2309   22.9335 O   0  0  0  0  0  0
  -31.4585  -12.4436   19.1053 H   0  0  0  0  0  0
  -30.3466  -11.3390   19.8439 H   0  0  0  0  0  0
  -29.7458  -11.7377   17.4507 H   0  0  0  0  0  0
  -29.6453  -13.4579   17.7235 H   0  0  0  0  0  0
  -27.8368  -11.2780   18.8144 H   0  0  0  0  0  0
  -27.3657  -12.5828   17.7614 H   0  0  0  0  0  0
  -27.6639  -14.2191   19.4895 H   0  0  0  0  0  0
  -28.6885  -11.9828   21.3070 H   0  0  0  0  0  0
  -28.3777  -13.5943   21.8230 H   0  0  0  0  0  0
  -25.2732   -9.5707   22.4779 H   0  0  0  0  0  0
  -24.0002   -7.4649   22.7482 H   0  0  0  0  0  0
  -21.0808   -8.8808   19.8960 H   0  0  0  0  0  0
  -22.3680  -10.9712   19.6194 H   0  0  0  0  0  0
  -21.2059   -7.6138   23.9722 H   0  0  0  0  0  0
  -21.1435   -6.0498   25.9071 H   0  0  0  0  0  0
  -22.0618   -2.7589   23.2889 H   0  0  0  0  0  0
  -22.4215  -11.9882   22.4699 H   0  0  0  0  0  0
  -21.1250  -13.1355   22.2714 H   0  0  0  0  0  0
  -24.5943  -15.7812   20.3456 H   0  0  0  0  0  0
  -26.1911  -15.5611   19.8465 H   0  0  0  0  0  0
  -26.7106  -32.5538   23.1171 H   0  0  0  0  0  0
  -24.9989  -33.9771   25.0430 H   0  0  0  0  0  0
  -22.6753  -31.3025   21.4216 H   0  0  0  0  0  0
  -23.3721  -35.9729   23.3337 H   0  0  0  0  0  0
  -24.3559  -36.8950   22.2026 H   0  0  0  0  0  0
  -23.7312  -37.6577   23.6647 H   0  0  0  0  0  0
  -26.0189  -31.6051   20.5854 H   0  0  0  0  0  0
  -26.8122  -30.9044   21.9694 H   0  0  0  0  0  0
  -28.0715  -29.1770   21.1537 H   0  0  0  0  0  0
  -26.0965  -25.9842   19.0201 H   0  0  0  0  0  0
  -23.9863  -27.2848   19.0342 H   0  0  0  0  0  0
  -23.7025  -30.6022   19.4073 H   0  0  0  0  0  0
  -22.7235  -29.2482   19.8785 H   0  0  0  0  0  0
  -25.1307  -36.1954   25.0824 H   0  0  0  0  0  0
  -20.9876  -28.3224   24.1474 H   0  0  0  0  0  0
  -20.5677  -26.2266   23.3608 H   0  0  0  0  0  0
  -21.6639  -26.7489   22.1214 H   0  0  0  0  0  0
  -19.6914  -25.6316   21.1244 H   0  0  0  0  0  0
  -19.6706  -27.3233   20.6761 H   0  0  0  0  0  0
  -17.4192  -26.6656   21.4032 H   0  0  0  0  0  0
  -18.0325  -26.0102   22.9026 H   0  0  0  0  0  0
  -19.7915  -30.7288   24.2264 H   0  0  0  0  0  0
  -17.4995  -31.6278   24.5179 H   0  0  0  0  0  0
  -15.5331  -30.2999   23.7695 H   0  0  0  0  0  0
  -15.8635  -28.0882   22.7004 H   0  0  0  0  0  0
  -24.5828  -30.7081   25.7868 H   0  0  0  0  0  0
  -24.8938  -32.2891   26.4970 H   0  0  0  0  0  0
  -25.8059  -30.8865   27.0240 H   0  0  0  0  0  0
  -26.2786  -29.6852   24.1024 H   0  0  0  0  0  0
  -27.3939  -29.7186   25.4469 H   0  0  0  0  0  0
  -27.8650  -30.4374   23.9226 H   0  0  0  0  0  0
  -27.2570  -33.3568   26.2123 H   0  0  0  0  0  0
  -28.3772  -32.6945   25.0303 H   0  0  0  0  0  0
  -28.0694  -31.8404   26.5363 H   0  0  0  0  0  0
  -28.2652  -38.0063   24.7406 H   0  0  0  0  0  0
  -28.0992  -36.2589   24.6452 H   0  0  0  0  0  0
  -27.2265  -37.1710   25.8865 H   0  0  0  0  0  0
  -20.9312  -29.8688   21.6941 H   0  0  0  0  0  0
  -26.0194  -38.2889   24.1296 H   0  0  0  0  0  0
  -27.8373  -18.5093   20.3971 H   0  0  0  0  0  0
  -27.5676  -20.9622   20.6059 H   0  0  0  0  0  0
  -27.7351  -18.2694   24.7084 H   0  0  0  0  0  0
  -29.4824  -25.1130   25.0920 H   0  0  0  0  0  0
  -30.9415  -17.8576   21.6556 H   0  0  0  0  0  0
  -31.8243  -17.1286   20.3244 H   0  0  0  0  0  0
  -32.0295  -16.5185   21.9616 H   0  0  0  0  0  0
  -29.4981  -17.4852   19.6466 H   0  0  0  0  0  0
  -28.3089  -16.2006   19.7762 H   0  0  0  0  0  0
  -29.7730  -15.9780   18.8632 H   0  0  0  0  0  0
  -27.3260  -16.2850   21.6295 H   0  0  0  0  0  0
  -27.4061  -16.2469   23.3316 H   0  0  0  0  0  0
  -30.0689  -24.2038   19.8976 H   0  0  0  0  0  0
  -31.4944  -24.2076   20.8798 H   0  0  0  0  0  0
  -29.3152  -15.0090   22.8930 H   0  0  0  0  0  0
  -29.9330  -16.5283   23.1740 H   0  0  0  0  0  0
  -31.0542  -26.2580   19.3977 H   0  0  0  0  0  0
  -31.5568  -26.5435   21.0344 H   0  0  0  0  0  0
  -29.3291  -27.1875   21.7617 H   0  0  0  0  0  0
  -29.8356  -28.1174   20.3511 H   0  0  0  0  0  0
  1 25  1  0  0  0
  1 30  2  0  0  0
  1 86  1  0  0  0
  2  3  1  0  0  0
  2 25  1  0  0  0
  2 92  1  0  0  0
  2 93  1  0  0  0
  3  4  1  0  0  0
  3 94  1  0  0  0
  3 95  1  0  0  0
  4  5  1  0  0  0
  4 96  1  0  0  0
  4 97  1  0  0  0
  5  6  1  0  0  0
  5 26  1  0  0  0
  5 98  1  0  0  0
  6 25  1  0  0  0
  6 99  1  0  0  0
  6100  1  0  0  0
  7  8  2  0  0  0
  7 26  1  0  0  0
  7 29  1  0  0  0
  8  9  1  0  0  0
  8 22  1  0  0  0
  9 10  1  0  0  0
  9 27  2  0  0  0
 10 11  2  0  0  0
 10 15  1  0  0  0
 11 12  1  0  0  0
 11101  1  0  0  0
 12 13  2  0  0  0
 12102  1  0  0  0
 13 14  1  0  0  0
 13 31  1  0  0  0
 14 15  2  0  0  0
 14103  1  0  0  0
 15104  1  0  0  0
 16 17  2  0  0  0
 16 21  1  0  0  0
 16 31  1  0  0  0
 17 18  1  0  0  0
 17105  1  0  0  0
 18 19  2  0  0  0
 18106  1  0  0  0
 19 20  1  0  0  0
 19 24  1  0  0  0
 20 21  2  0  0  0
 20107  1  0  0  0
 21 23  1  0  0  0
 22 28  1  0  0  0
 22 32  2  0  0  0
 26 27  1  0  0  0
 28108  1  0  0  0
 28109  1  0  0  0
 29110  1  0  0  0
 29111  1  0  0  0
 33 34  1  0  0  0
 33 66  1  0  0  0
 33 70  2  0  0  0
 34 36  1  0  0  0
 34 59  1  0  0  0
 34112  1  0  0  0
 35 44  2  0  0  0
 35 45  1  0  0  0
 35 68  1  0  0  0
 36 56  1  0  0  0
 36113  1  0  0  0
 37 39  1  0  0  0
 37 47  1  0  0  0
 37 66  1  0  0  0
 37114  1  0  0  0
 38 43  2  0  0  0
 38 46  1  0  0  0
 38 47  1  0  0  0
 39 64  1  0  0  0
 39 67  2  0  0  0
 40 52  1  0  0  0
 40 53  2  0  0  0
 40 58  1  0  0  0
 41115  1  0  0  0
 41116  1  0  0  0
 41117  1  0  0  0
 41 48  1  0  0  0
 42 43  1  0  0  0
 42 66  1  0  0  0
 42118  1  0  0  0
 42119  1  0  0  0
 43 44  1  0  0  0
 44120  1  0  0  0
 45 46  2  0  0  0
 45121  1  0  0  0
 46122  1  0  0  0
 47123  1  0  0  0
 47124  1  0  0  0
 48 56  1  0  0  0
 48 65  1  0  0  0
 48125  1  0  0  0
 49 50  1  0  0  0
 49 53  1  0  0  0
 49 64  1  0  0  0
 49126  1  0  0  0
 50 51  1  0  0  0
 50127  1  0  0  0
 50128  1  0  0  0
 51 52  1  0  0  0
 51129  1  0  0  0
 51130  1  0  0  0
 52131  1  0  0  0
 52132  1  0  0  0
 53 54  1  0  0  0
 54 55  2  0  0  0
 54133  1  0  0  0
 55 57  1  0  0  0
 55134  1  0  0  0
 56 69  2  0  0  0
 57 58  2  0  0  0
 57135  1  0  0  0
 58136  1  0  0  0
 59 60  1  0  0  0
 59 61  1  0  0  0
 59 62  1  0  0  0
 60137  1  0  0  0
 60138  1  0  0  0
 60139  1  0  0  0
 61140  1  0  0  0
 61141  1  0  0  0
 61142  1  0  0  0
 62143  1  0  0  0
 62144  1  0  0  0
 62145  1  0  0  0
 63 65  1  0  0  0
 63146  1  0  0  0
 63147  1  0  0  0
 63148  1  0  0  0
 64149  1  0  0  0
 65150  1  0  0  0
 68 85  1  0  0  0
 71 72  2  0  0  0
 71 75  1  0  0  0
 71151  1  0  0  0
 72 76  1  0  0  0
 72152  1  0  0  0
 73 75  2  0  0  0
 73 87  1  0  0  0
 73153  1  0  0  0
 74 88  2  0  0  0
 74 89  1  0  0  0
 74154  1  0  0  0
 75 81  1  0  0  0
 76 87  2  0  0  0
 76 91  1  0  0  0
 77 82  1  0  0  0
 77 88  1  0  0  0
 77 90  2  0  0  0
 78 89  2  0  0  0
 78 90  1  0  0  0
 78 91  1  0  0  0
 79155  1  0  0  0
 79156  1  0  0  0
 79157  1  0  0  0
 79 86  1  0  0  0
 80 86  1  0  0  0
 80158  1  0  0  0
 80159  1  0  0  0
 80160  1  0  0  0
 81 83  1  0  0  0
 81161  1  0  0  0
 81162  1  0  0  0
 82 84  1  0  0  0
 82163  1  0  0  0
 82164  1  0  0  0
 83 86  1  0  0  0
 83165  1  0  0  0
 83166  1  0  0  0
 84 85  1  0  0  0
 84167  1  0  0  0
 84168  1  0  0  0
 85169  1  0  0  0
 85170  1  0  0  0
M  ISO  4   1 100  68 101  85 101  86 100
M  END
> <chiral flag>
0

> <version>
0

> <s_m_source_file>
/data/baiqing/PycharmProjects/Reinvent-master-3.2/result/LINK_invent/BTK/process_docking_weight1_custom_sum_contain_oxygen_bond_distance_aromatic_linkinvent_7_9_3/rearranged_h_0068.sdf

> <i_m_source_file_index>
43

> <r_mmod_Potential_Energy-OPLS-2005>
-582.504211425781

> <r_mmod_Stretch_Energy-OPLS-2005>
45.0432319641113

> <r_mmod_Bend_Energy-OPLS-2005>
143.76042175293

> <r_mmod_Torsional_Energy-OPLS-2005>
251.860931396484

> <r_mmod_Improper_Torsional_Energy-OPLS-2005>
9.82608509063721

> <r_mmod_Van_der_Waal_Energy-OPLS-2005>
210.482803344727

> <r_mmod_Electrostatic_Energy-OPLS-2005>
-1044.20263671875

> <r_mmod_Solvation_Energy-OPLS-2005>
-217.813415527344

> <b_mmod_Minimization_Converged-OPLS-2005>
0

> <r_mmod_RMS_Derivative-OPLS-2005>
5.32283163070679

$$$$
46
                    3D
 Structure written by MMmdl.
191199  0  0  1  0            999 V2000
  -30.7084  -14.3943   20.6004 C   0  0  0  0  0  0
  -30.4207  -12.2564   19.4134 C   0  0  0  0  0  0
  -29.5057  -12.5240   18.2032 C   0  0  0  0  0  0
  -28.0194  -12.4095   18.6009 C   0  0  0  0  0  0
  -27.6741  -13.2001   19.8946 C   0  0  2  0  0  0
  -28.7118  -12.9074   21.0047 C   0  0  0  0  0  0
  -25.2631  -13.8114   20.5661 C   0  0  0  0  0  0
  -24.1854  -13.0401   20.9156 C   0  0  0  0  0  0
  -24.6400  -11.6894   20.8705 C   0  0  0  0  0  0
  -23.9050  -10.4281   21.0381 C   0  0  0  0  0  0
  -24.3607   -9.4205   21.9158 C   0  0  0  0  0  0
  -23.6290   -8.2236   22.0756 C   0  0  0  0  0  0
  -22.4261   -8.0264   21.3564 C   0  0  0  0  0  0
  -21.9902   -9.0232   20.4665 C   0  0  0  0  0  0
  -22.7226  -10.2109   20.3048 C   0  0  0  0  0  0
  -21.6864   -6.0716   22.5283 C   0  0  0  0  0  0
  -21.4022   -6.5622   23.8212 C   0  0  0  0  0  0
  -21.3663   -5.6781   24.9182 C   0  0  0  0  0  0
  -21.6044   -4.3044   24.7236 C   0  0  0  0  0  0
  -21.8812   -3.8133   23.4360 C   0  0  0  0  0  0
  -21.9195   -4.6944   22.3417 C   0  0  0  0  0  0
  -22.7886  -13.5228   21.1816 C   0  0  0  0  0  0
  -22.1650   -4.2127   21.0993 F   0  0  0  0  0  0
  -21.5622   -3.4528   25.7749 F   0  0  0  0  0  0
  -30.0552  -13.2083   20.4728 N   0  0  0  0  0  0
  -26.3084  -12.9283   20.3415 N   0  0  0  0  0  0
  -25.9340  -11.6443   20.5761 N   0  0  0  0  0  0
  -22.0497  -12.8254   22.0385 N   0  0  0  0  0  0
  -25.4332  -15.1819   20.4086 N   0  0  0  0  0  0
  -31.7532  -14.6559   20.0051 O   0  0  0  0  0  0
  -21.6635   -6.8858   21.4246 O   0  0  0  0  0  0
  -22.3603  -14.5531   20.6663 O   0  0  0  0  0  0
  -24.6114  -31.8668   23.2077 C   0  0  0  0  0  0
  -25.9024  -32.4795   23.8366 C   0  0  1  0  0  0
  -27.2184  -27.4469   20.1093 C   0  0  0  0  0  0
  -25.5899  -33.8602   24.2289 N   0  0  0  0  0  0
  -23.3980  -30.4938   21.5433 C   0  0  2  0  0  0
  -24.8453  -28.9588   20.1113 C   0  0  0  0  0  0
  -22.7378  -29.4673   22.4917 C   0  0  0  0  0  0
  -18.0288  -28.1392   22.8485 C   0  0  0  0  0  0
  -24.1480  -36.7351   23.2629 C   0  0  0  0  0  0
  -25.9215  -30.8393   21.3584 C   0  0  0  0  0  0
  -25.9985  -29.4678   20.7244 C   0  0  0  0  0  0
  -27.1912  -28.7106   20.7363 C   0  0  0  0  0  0
  -26.0628  -26.9530   19.4815 C   0  0  0  0  0  0
  -24.8688  -27.6975   19.4898 C   0  0  0  0  0  0
  -23.6080  -29.8269   20.1558 C   0  0  0  0  0  0
  -25.4095  -36.3103   24.0327 C   0  0  1  0  0  0
  -20.5851  -28.3696   23.1281 C   0  0  2  0  0  0
  -20.6763  -26.9429   22.5396 C   0  0  0  0  0  0
  -19.5766  -26.6402   21.5180 C   0  0  0  0  0  0
  -18.1949  -26.7940   22.1610 C   0  0  0  0  0  0
  -19.1514  -28.8860   23.2893 C   0  0  0  0  0  0
  -18.9466  -30.1456   23.8931 C   0  0  0  0  0  0
  -17.6462  -30.6588   24.0580 C   0  0  0  0  0  0
  -25.9034  -34.9461   23.5109 C   0  0  0  0  0  0
  -16.5359  -29.9102   23.6313 C   0  0  0  0  0  0
  -16.7273  -28.6514   23.0344 C   0  0  0  0  0  0
  -26.4483  -31.6531   25.0649 C   0  0  0  0  0  0
  -25.3781  -31.3642   26.1409 C   0  0  0  0  0  0
  -27.0240  -30.2946   24.5979 C   0  0  0  0  0  0
  -27.6042  -32.4222   25.7463 C   0  0  0  0  0  0
  -27.5572  -37.1815   24.8455 C   0  0  0  0  0  0
  -21.4104  -29.3065   22.3658 N   0  0  0  0  0  0
  -26.4268  -37.3792   23.9418 N   0  0  0  0  0  0
  -24.6613  -31.0808   22.0971 N   0  0  0  0  0  0
  -23.4145  -28.8209   23.2957 O   0  0  0  0  0  0
  -28.3456  -26.6672   20.0596 O   0  0  0  0  0  0
  -26.5582  -34.8908   22.4652 O   0  0  0  0  0  0
  -23.5314  -32.1434   23.7482 O   0  0  0  0  0  0
  -29.6720  -19.1102   20.9050 C   0  0  0  0  0  0
  -28.9676  -21.0660   21.0708 C   0  0  0  0  0  0
  -31.5814  -17.8960   19.8447 C   0  0  0  0  0  0
  -31.2759  -17.8193   22.3430 C   0  0  0  0  0  0
  -24.3033  -19.9089   19.0589 C   0  0  0  0  0  0
  -26.1492  -18.5160   18.2788 C   0  0  0  0  0  0
  -25.5996  -18.6090   20.7235 C   0  0  0  0  0  0
  -27.2564  -24.4292   24.4079 C   0  0  0  0  0  0
  -29.6237  -24.7875   23.7666 C   0  0  0  0  0  0
  -25.9687  -21.8005   20.4437 C   0  0  0  0  0  0
  -27.1612  -21.3060   18.2984 C   0  0  0  0  0  0
  -28.9547  -22.5372   21.4173 C   0  0  0  0  0  0
  -28.2920  -22.8518   22.7823 C   0  0  0  0  0  0
  -27.7114  -25.2959   22.0846 C   0  0  0  0  0  0
  -29.6155  -16.6069   20.8499 C   0  0  0  0  0  0
  -28.7830  -26.1033   21.2971 C   0  0  0  0  0  0
  -30.5430  -17.8595   20.9837 C   0  0  0  0  0  0
  -25.7448  -19.4647   19.4406 C   0  0  0  0  0  0
  -28.2416  -24.3506   23.2207 C   0  0  0  0  0  0
  -26.7501  -20.7076   19.6597 C   0  0  0  0  0  0
  -30.0017  -20.3128   21.4533 N   0  0  0  0  0  0
  -28.5940  -19.1489   20.1288 N   0  0  0  0  0  0
  -28.0316  -20.3643   20.3659 N   0  0  0  0  0  0
  -30.0718  -15.3016   21.3497 N   0  0  0  0  0  0
  -31.4728  -12.3190   19.1246 H   0  0  0  0  0  0
  -30.2741  -11.2352   19.7666 H   0  0  0  0  0  0
  -29.7281  -11.8184   17.4025 H   0  0  0  0  0  0
  -29.7114  -13.5201   17.8069 H   0  0  0  0  0  0
  -27.7970  -11.3531   18.7415 H   0  0  0  0  0  0
  -27.3869  -12.7352   17.7706 H   0  0  0  0  0  0
  -27.7382  -14.2608   19.6618 H   0  0  0  0  0  0
  -28.6661  -11.8533   21.2855 H   0  0  0  0  0  0
  -28.4781  -13.4551   21.9180 H   0  0  0  0  0  0
  -25.2737   -9.5678   22.4740 H   0  0  0  0  0  0
  -24.0007   -7.4622   22.7475 H   0  0  0  0  0  0
  -21.0828   -8.8736   19.8981 H   0  0  0  0  0  0
  -22.3667  -10.9639   19.6158 H   0  0  0  0  0  0
  -21.2002   -7.6124   23.9720 H   0  0  0  0  0  0
  -21.1505   -6.0504   25.9087 H   0  0  0  0  0  0
  -22.0597   -2.7598   23.2859 H   0  0  0  0  0  0
  -22.4096  -11.9954   22.4842 H   0  0  0  0  0  0
  -21.1121  -13.1325   22.2543 H   0  0  0  0  0  0
  -24.6588  -15.8300   20.5073 H   0  0  0  0  0  0
  -26.2826  -15.6299   20.0904 H   0  0  0  0  0  0
  -26.7082  -32.5542   23.1128 H   0  0  0  0  0  0
  -24.9979  -33.9755   25.0389 H   0  0  0  0  0  0
  -22.6904  -31.3129   21.4035 H   0  0  0  0  0  0
  -23.3676  -35.9749   23.3295 H   0  0  0  0  0  0
  -24.3586  -36.8972   22.2042 H   0  0  0  0  0  0
  -23.7287  -37.6590   23.6635 H   0  0  0  0  0  0
  -26.0160  -31.5998   20.5791 H   0  0  0  0  0  0
  -26.8170  -30.9080   21.9637 H   0  0  0  0  0  0
  -28.0762  -29.0974   21.2217 H   0  0  0  0  0  0
  -26.0898  -25.9902   18.9921 H   0  0  0  0  0  0
  -23.9891  -27.3033   18.9987 H   0  0  0  0  0  0
  -23.7190  -30.6032   19.3983 H   0  0  0  0  0  0
  -22.7344  -29.2472   19.8497 H   0  0  0  0  0  0
  -25.1260  -36.1978   25.0820 H   0  0  0  0  0  0
  -21.0000  -28.3303   24.1379 H   0  0  0  0  0  0
  -20.5654  -26.2328   23.3595 H   0  0  0  0  0  0
  -21.6644  -26.7460   22.1212 H   0  0  0  0  0  0
  -19.6926  -25.6313   21.1214 H   0  0  0  0  0  0
  -19.6690  -27.3208   20.6694 H   0  0  0  0  0  0
  -17.4198  -26.6679   21.4026 H   0  0  0  0  0  0
  -18.0390  -26.0086   22.9018 H   0  0  0  0  0  0
  -19.7950  -30.7250   24.2314 H   0  0  0  0  0  0
  -17.5040  -31.6276   24.5186 H   0  0  0  0  0  0
  -15.5367  -30.3033   23.7601 H   0  0  0  0  0  0
  -15.8686  -28.0841   22.7033 H   0  0  0  0  0  0
  -24.6011  -30.6894   25.7803 H   0  0  0  0  0  0
  -24.8896  -32.2781   26.4788 H   0  0  0  0  0  0
  -25.8199  -30.8921   27.0191 H   0  0  0  0  0  0
  -26.2726  -29.6775   24.1022 H   0  0  0  0  0  0
  -27.3967  -29.7119   25.4417 H   0  0  0  0  0  0
  -27.8606  -30.4191   23.9094 H   0  0  0  0  0  0
  -27.2627  -33.3519   26.2027 H   0  0  0  0  0  0
  -28.3902  -32.6768   25.0338 H   0  0  0  0  0  0
  -28.0619  -31.8319   26.5412 H   0  0  0  0  0  0
  -28.2561  -38.0131   24.7473 H   0  0  0  0  0  0
  -28.1077  -36.2648   24.6283 H   0  0  0  0  0  0
  -27.2291  -37.1493   25.8858 H   0  0  0  0  0  0
  -20.9245  -29.8833   21.6935 H   0  0  0  0  0  0
  -26.0151  -38.2866   24.1433 H   0  0  0  0  0  0
  -31.1034  -17.8927   18.8657 H   0  0  0  0  0  0
  -32.2588  -17.0470   19.8827 H   0  0  0  0  0  0
  -32.1978  -18.7915   19.9011 H   0  0  0  0  0  0
  -30.5735  -17.7487   23.1719 H   0  0  0  0  0  0
  -31.8748  -18.7203   22.4870 H   0  0  0  0  0  0
  -31.9607  -16.9746   22.4141 H   0  0  0  0  0  0
  -23.6974  -19.0580   18.7442 H   0  0  0  0  0  0
  -24.2886  -20.6257   18.2374 H   0  0  0  0  0  0
  -23.7675  -20.3490   19.9006 H   0  0  0  0  0  0
  -25.5158  -17.6283   18.2668 H   0  0  0  0  0  0
  -27.1725  -18.1566   18.3289 H   0  0  0  0  0  0
  -26.0295  -18.9892   17.3054 H   0  0  0  0  0  0
  -24.7364  -17.9453   20.6671 H   0  0  0  0  0  0
  -25.4706  -19.2173   21.6181 H   0  0  0  0  0  0
  -26.4612  -17.9653   20.8920 H   0  0  0  0  0  0
  -27.5760  -23.7874   25.2322 H   0  0  0  0  0  0
  -26.2535  -24.1161   24.1172 H   0  0  0  0  0  0
  -27.1748  -25.4412   24.8029 H   0  0  0  0  0  0
  -30.4392  -24.5896   23.0672 H   0  0  0  0  0  0
  -29.8665  -24.2622   24.6918 H   0  0  0  0  0  0
  -29.6498  -25.8504   24.0097 H   0  0  0  0  0  0
  -25.0906  -22.1437   19.8983 H   0  0  0  0  0  0
  -26.5260  -22.7133   20.5887 H   0  0  0  0  0  0
  -25.6391  -21.4590   21.4245 H   0  0  0  0  0  0
  -26.2998  -21.6328   17.7142 H   0  0  0  0  0  0
  -27.7162  -20.5865   17.6957 H   0  0  0  0  0  0
  -27.8192  -22.1640   18.4362 H   0  0  0  0  0  0
  -29.9875  -22.8821   21.4605 H   0  0  0  0  0  0
  -28.5476  -23.1082   20.5864 H   0  0  0  0  0  0
  -28.8193  -22.2806   23.5513 H   0  0  0  0  0  0
  -27.2825  -22.4393   22.7805 H   0  0  0  0  0  0
  -27.1002  -24.7229   21.3880 H   0  0  0  0  0  0
  -27.0068  -26.0147   22.5013 H   0  0  0  0  0  0
  -29.2805  -16.5062   19.8146 H   0  0  0  0  0  0
  -28.7061  -16.7920   21.4208 H   0  0  0  0  0  0
  -29.6134  -25.4451   21.0396 H   0  0  0  0  0  0
  -29.1903  -26.9020   21.9168 H   0  0  0  0  0  0
  -29.4217  -14.8855   22.0002 H   0  0  0  0  0  0
  1 25  1  0  0  0
  1 30  2  0  0  0
  1 94  1  0  0  0
  2  3  1  0  0  0
  2 25  1  0  0  0
  2 95  1  0  0  0
  2 96  1  0  0  0
  3  4  1  0  0  0
  3 97  1  0  0  0
  3 98  1  0  0  0
  4  5  1  0  0  0
  4 99  1  0  0  0
  4100  1  0  0  0
  5  6  1  0  0  0
  5 26  1  0  0  0
  5101  1  0  0  0
  6 25  1  0  0  0
  6102  1  0  0  0
  6103  1  0  0  0
  7  8  2  0  0  0
  7 26  1  0  0  0
  7 29  1  0  0  0
  8  9  1  0  0  0
  8 22  1  0  0  0
  9 10  1  0  0  0
  9 27  2  0  0  0
 10 11  2  0  0  0
 10 15  1  0  0  0
 11 12  1  0  0  0
 11104  1  0  0  0
 12 13  2  0  0  0
 12105  1  0  0  0
 13 14  1  0  0  0
 13 31  1  0  0  0
 14 15  2  0  0  0
 14106  1  0  0  0
 15107  1  0  0  0
 16 17  2  0  0  0
 16 21  1  0  0  0
 16 31  1  0  0  0
 17 18  1  0  0  0
 17108  1  0  0  0
 18 19  2  0  0  0
 18109  1  0  0  0
 19 20  1  0  0  0
 19 24  1  0  0  0
 20 21  2  0  0  0
 20110  1  0  0  0
 21 23  1  0  0  0
 22 28  1  0  0  0
 22 32  2  0  0  0
 26 27  1  0  0  0
 28111  1  0  0  0
 28112  1  0  0  0
 29113  1  0  0  0
 29114  1  0  0  0
 33 34  1  0  0  0
 33 66  1  0  0  0
 33 70  2  0  0  0
 34 36  1  0  0  0
 34 59  1  0  0  0
 34115  1  0  0  0
 35 44  2  0  0  0
 35 45  1  0  0  0
 35 68  1  0  0  0
 36 56  1  0  0  0
 36116  1  0  0  0
 37 39  1  0  0  0
 37 47  1  0  0  0
 37 66  1  0  0  0
 37117  1  0  0  0
 38 43  2  0  0  0
 38 46  1  0  0  0
 38 47  1  0  0  0
 39 64  1  0  0  0
 39 67  2  0  0  0
 40 52  1  0  0  0
 40 53  2  0  0  0
 40 58  1  0  0  0
 41118  1  0  0  0
 41119  1  0  0  0
 41120  1  0  0  0
 41 48  1  0  0  0
 42 43  1  0  0  0
 42 66  1  0  0  0
 42121  1  0  0  0
 42122  1  0  0  0
 43 44  1  0  0  0
 44123  1  0  0  0
 45 46  2  0  0  0
 45124  1  0  0  0
 46125  1  0  0  0
 47126  1  0  0  0
 47127  1  0  0  0
 48 56  1  0  0  0
 48 65  1  0  0  0
 48128  1  0  0  0
 49 50  1  0  0  0
 49 53  1  0  0  0
 49 64  1  0  0  0
 49129  1  0  0  0
 50 51  1  0  0  0
 50130  1  0  0  0
 50131  1  0  0  0
 51 52  1  0  0  0
 51132  1  0  0  0
 51133  1  0  0  0
 52134  1  0  0  0
 52135  1  0  0  0
 53 54  1  0  0  0
 54 55  2  0  0  0
 54136  1  0  0  0
 55 57  1  0  0  0
 55137  1  0  0  0
 56 69  2  0  0  0
 57 58  2  0  0  0
 57138  1  0  0  0
 58139  1  0  0  0
 59 60  1  0  0  0
 59 61  1  0  0  0
 59 62  1  0  0  0
 60140  1  0  0  0
 60141  1  0  0  0
 60142  1  0  0  0
 61143  1  0  0  0
 61144  1  0  0  0
 61145  1  0  0  0
 62146  1  0  0  0
 62147  1  0  0  0
 62148  1  0  0  0
 63 65  1  0  0  0
 63149  1  0  0  0
 63150  1  0  0  0
 63151  1  0  0  0
 64152  1  0  0  0
 65153  1  0  0  0
 68 86  1  0  0  0
 71 87  1  0  0  0
 71 91  1  0  0  0
 71 92  2  0  0  0
 72 82  1  0  0  0
 72 91  2  0  0  0
 72 93  1  0  0  0
 73154  1  0  0  0
 73155  1  0  0  0
 73156  1  0  0  0
 73 87  1  0  0  0
 74 87  1  0  0  0
 74157  1  0  0  0
 74158  1  0  0  0
 74159  1  0  0  0
 75160  1  0  0  0
 75161  1  0  0  0
 75162  1  0  0  0
 75 88  1  0  0  0
 76 88  1  0  0  0
 76163  1  0  0  0
 76164  1  0  0  0
 76165  1  0  0  0
 77 88  1  0  0  0
 77166  1  0  0  0
 77167  1  0  0  0
 77168  1  0  0  0
 78169  1  0  0  0
 78170  1  0  0  0
 78171  1  0  0  0
 78 89  1  0  0  0
 79 89  1  0  0  0
 79172  1  0  0  0
 79173  1  0  0  0
 79174  1  0  0  0
 80175  1  0  0  0
 80176  1  0  0  0
 80177  1  0  0  0
 80 90  1  0  0  0
 81 90  1  0  0  0
 81178  1  0  0  0
 81179  1  0  0  0
 81180  1  0  0  0
 82 83  1  0  0  0
 82181  1  0  0  0
 82182  1  0  0  0
 83 89  1  0  0  0
 83183  1  0  0  0
 83184  1  0  0  0
 84 86  1  0  0  0
 84 89  1  0  0  0
 84185  1  0  0  0
 84186  1  0  0  0
 85 87  1  0  0  0
 85 94  1  0  0  0
 85187  1  0  0  0
 85188  1  0  0  0
 86189  1  0  0  0
 86190  1  0  0  0
 88 90  1  0  0  0
 90 93  1  0  0  0
 92 93  1  0  0  0
 94191  1  0  0  0
M  ISO  4   1 100  68 101  86 101  94 100
M  END
> <chiral flag>
0

> <version>
0

> <s_m_source_file>
/data/baiqing/PycharmProjects/Reinvent-master-3.2/result/LINK_invent/BTK/process_docking_weight1_custom_sum_contain_oxygen_bond_distance_aromatic_linkinvent_7_9_3/rearranged_h_0068.sdf

> <i_m_source_file_index>
44

> <r_mmod_Potential_Energy-OPLS-2005>
64.8505783081055

> <r_mmod_Stretch_Energy-OPLS-2005>
56.6832618713379

> <r_mmod_Bend_Energy-OPLS-2005>
161.999877929688

> <r_mmod_Torsional_Energy-OPLS-2005>
318.977081298828

> <r_mmod_Improper_Torsional_Energy-OPLS-2005>
7.82380819320679

> <r_mmod_Van_der_Waal_Energy-OPLS-2005>
147.571807861328

> <r_mmod_Electrostatic_Energy-OPLS-2005>
-449.338500976562

> <r_mmod_Solvation_Energy-OPLS-2005>
-188.071166992188

> <b_mmod_Minimization_Converged-OPLS-2005>
0

> <r_mmod_RMS_Derivative-OPLS-2005>
5.38691711425781

$$$$
47
                    3D
 Structure written by MMmdl.
158166  0  0  1  0            999 V2000
  -30.7089  -14.5103   20.5593 C   0  0  0  0  0  0
  -30.4246  -12.3317   19.4326 C   0  0  0  0  0  0
  -29.5043  -12.5100   18.2080 C   0  0  0  0  0  0
  -28.0234  -12.3644   18.6139 C   0  0  0  0  0  0
  -27.6611  -13.2145   19.8635 C   0  0  2  0  0  0
  -28.7020  -13.0320   20.9909 C   0  0  0  0  0  0
  -25.2591  -13.8180   20.5639 C   0  0  0  0  0  0
  -24.1831  -13.0482   20.9160 C   0  0  0  0  0  0
  -24.6380  -11.6943   20.8722 C   0  0  0  0  0  0
  -23.9060  -10.4317   21.0399 C   0  0  0  0  0  0
  -24.3622   -9.4229   21.9178 C   0  0  0  0  0  0
  -23.6302   -8.2262   22.0760 C   0  0  0  0  0  0
  -22.4279   -8.0295   21.3560 C   0  0  0  0  0  0
  -21.9905   -9.0266   20.4662 C   0  0  0  0  0  0
  -22.7233  -10.2142   20.3055 C   0  0  0  0  0  0
  -21.6834   -6.0740   22.5275 C   0  0  0  0  0  0
  -21.4007   -6.5644   23.8211 C   0  0  0  0  0  0
  -21.3663   -5.6793   24.9179 C   0  0  0  0  0  0
  -21.6043   -4.3054   24.7221 C   0  0  0  0  0  0
  -21.8830   -3.8156   23.4339 C   0  0  0  0  0  0
  -21.9186   -4.6976   22.3395 C   0  0  0  0  0  0
  -22.7850  -13.5307   21.1794 C   0  0  0  0  0  0
  -22.1658   -4.2177   21.0974 F   0  0  0  0  0  0
  -21.5624   -3.4538   25.7729 F   0  0  0  0  0  0
  -30.0272  -13.3374   20.4313 N   0  0  0  0  0  0
  -26.3031  -12.9360   20.3298 N   0  0  0  0  0  0
  -25.9320  -11.6524   20.5743 N   0  0  0  0  0  0
  -22.0454  -12.8342   22.0357 N   0  0  0  0  0  0
  -25.4366  -15.1888   20.4019 N   0  0  0  0  0  0
  -31.8520  -14.6564   20.1211 O   0  0  0  0  0  0
  -21.6648   -6.8883   21.4239 O   0  0  0  0  0  0
  -22.3550  -14.5598   20.6622 O   0  0  0  0  0  0
  -24.6189  -31.8653   23.2064 C   0  0  0  0  0  0
  -25.9064  -32.4807   23.8374 C   0  0  1  0  0  0
  -27.2393  -27.3960   20.1094 C   0  0  0  0  0  0
  -25.5916  -33.8606   24.2315 N   0  0  0  0  0  0
  -23.4092  -30.4882   21.5461 C   0  0  2  0  0  0
  -24.8585  -28.9484   20.1124 C   0  0  0  0  0  0
  -22.7431  -29.4650   22.4948 C   0  0  0  0  0  0
  -18.0276  -28.1402   22.8477 C   0  0  0  0  0  0
  -24.1481  -36.7298   23.2638 C   0  0  0  0  0  0
  -25.9418  -30.8210   21.3643 C   0  0  0  0  0  0
  -26.0186  -29.4522   20.7112 C   0  0  0  0  0  0
  -27.2116  -28.6858   20.7004 C   0  0  0  0  0  0
  -26.0556  -26.9161   19.5028 C   0  0  0  0  0  0
  -24.8740  -27.6830   19.5040 C   0  0  0  0  0  0
  -23.6211  -29.8193   20.1608 C   0  0  0  0  0  0
  -25.4105  -36.3099   24.0336 C   0  0  1  0  0  0
  -20.5873  -28.3688   23.1298 C   0  0  2  0  0  0
  -20.6767  -26.9415   22.5411 C   0  0  0  0  0  0
  -19.5743  -26.6399   21.5212 C   0  0  0  0  0  0
  -18.1924  -26.7939   22.1624 C   0  0  0  0  0  0
  -19.1526  -28.8860   23.2887 C   0  0  0  0  0  0
  -18.9461  -30.1461   23.8904 C   0  0  0  0  0  0
  -17.6471  -30.6606   24.0561 C   0  0  0  0  0  0
  -25.9044  -34.9463   23.5120 C   0  0  0  0  0  0
  -16.5352  -29.9115   23.6335 C   0  0  0  0  0  0
  -16.7263  -28.6528   23.0343 C   0  0  0  0  0  0
  -26.4480  -31.6606   25.0723 C   0  0  0  0  0  0
  -25.3747  -31.3724   26.1478 C   0  0  0  0  0  0
  -27.0314  -30.3046   24.6134 C   0  0  0  0  0  0
  -27.6050  -32.4328   25.7485 C   0  0  0  0  0  0
  -27.5569  -37.1803   24.8463 C   0  0  0  0  0  0
  -21.4149  -29.3043   22.3687 N   0  0  0  0  0  0
  -26.4283  -37.3788   23.9407 N   0  0  0  0  0  0
  -24.6740  -31.0735   22.0966 N   0  0  0  0  0  0
  -23.4182  -28.8192   23.3004 O   0  0  0  0  0  0
  -28.4038  -26.6396   20.1418 O   0  0  0  0  0  0
  -26.5589  -34.8917   22.4684 O   0  0  0  0  0  0
  -23.5363  -32.1403   23.7444 O   0  0  0  0  0  0
  -30.0831  -21.9313   20.1661 C   0  0  0  0  0  0
  -29.8456  -20.8422   20.9722 C   0  0  0  0  0  0
  -28.3701  -18.1608   21.5553 C   0  0  0  0  0  0
  -29.4038  -17.9248   19.2829 C   0  0  0  0  0  0
  -30.5258  -19.4667   20.9664 C   0  0  0  0  0  0
  -29.5758  -24.4573   20.5450 C   0  0  0  0  0  0
  -30.5696  -16.9215   21.2988 C   0  0  0  0  0  0
  -28.2768  -25.1924   20.1049 C   0  0  0  0  0  0
  -29.7036  -18.1283   20.7810 C   0  0  0  0  0  0
  -29.0409  -21.2907   22.0260 N   0  0  0  0  0  0
  -28.8033  -22.5661   21.8995 N   0  0  0  0  0  0
  -29.4564  -23.0044   20.7955 N   0  0  0  0  0  0
  -30.0263  -15.5582   21.0748 N   0  0  0  0  0  0
  -31.4721  -12.4249   19.1392 H   0  0  0  0  0  0
  -30.3209  -11.3293   19.8499 H   0  0  0  0  0  0
  -29.7592  -11.7835   17.4374 H   0  0  0  0  0  0
  -29.6685  -13.4954   17.7669 H   0  0  0  0  0  0
  -27.8367  -11.3091   18.8135 H   0  0  0  0  0  0
  -27.3774  -12.6314   17.7750 H   0  0  0  0  0  0
  -27.6989  -14.2588   19.5515 H   0  0  0  0  0  0
  -28.6859  -12.0077   21.3643 H   0  0  0  0  0  0
  -28.4607  -13.6612   21.8499 H   0  0  0  0  0  0
  -25.2774   -9.5710   22.4750 H   0  0  0  0  0  0
  -24.0008   -7.4658   22.7492 H   0  0  0  0  0  0
  -21.0820   -8.8780   19.8980 H   0  0  0  0  0  0
  -22.3680  -10.9678   19.6158 H   0  0  0  0  0  0
  -21.2001   -7.6160   23.9729 H   0  0  0  0  0  0
  -21.1461   -6.0517   25.9076 H   0  0  0  0  0  0
  -22.0601   -2.7625   23.2826 H   0  0  0  0  0  0
  -22.4052  -12.0054   22.4846 H   0  0  0  0  0  0
  -21.1062  -13.1379   22.2488 H   0  0  0  0  0  0
  -24.6751  -15.8499   20.5085 H   0  0  0  0  0  0
  -26.2945  -15.6202   20.0824 H   0  0  0  0  0  0
  -26.7135  -32.5496   23.1124 H   0  0  0  0  0  0
  -25.0048  -33.9766   25.0448 H   0  0  0  0  0  0
  -22.6977  -31.3041   21.4027 H   0  0  0  0  0  0
  -23.3740  -35.9636   23.3323 H   0  0  0  0  0  0
  -24.3559  -36.8904   22.2049 H   0  0  0  0  0  0
  -23.7256  -37.6517   23.6644 H   0  0  0  0  0  0
  -26.0610  -31.5855   20.5951 H   0  0  0  0  0  0
  -26.8266  -30.8721   21.9869 H   0  0  0  0  0  0
  -28.1056  -29.0711   21.1687 H   0  0  0  0  0  0
  -26.0262  -25.9474   19.0255 H   0  0  0  0  0  0
  -23.9806  -27.2905   19.0370 H   0  0  0  0  0  0
  -23.7279  -30.5927   19.3987 H   0  0  0  0  0  0
  -22.7457  -29.2391   19.8643 H   0  0  0  0  0  0
  -25.1289  -36.1940   25.0829 H   0  0  0  0  0  0
  -20.9961  -28.3275   24.1424 H   0  0  0  0  0  0
  -20.5688  -26.2292   23.3607 H   0  0  0  0  0  0
  -21.6639  -26.7462   22.1196 H   0  0  0  0  0  0
  -19.6902  -25.6318   21.1236 H   0  0  0  0  0  0
  -19.6699  -27.3213   20.6749 H   0  0  0  0  0  0
  -17.4190  -26.6670   21.4034 H   0  0  0  0  0  0
  -18.0330  -26.0107   22.9046 H   0  0  0  0  0  0
  -19.7941  -30.7258   24.2292 H   0  0  0  0  0  0
  -17.5035  -31.6284   24.5161 H   0  0  0  0  0  0
  -15.5360  -30.3018   23.7678 H   0  0  0  0  0  0
  -15.8652  -28.0861   22.7065 H   0  0  0  0  0  0
  -24.5905  -30.7088   25.7826 H   0  0  0  0  0  0
  -24.8947  -32.2879   26.4942 H   0  0  0  0  0  0
  -25.8106  -30.8882   27.0226 H   0  0  0  0  0  0
  -26.2870  -29.6807   24.1175 H   0  0  0  0  0  0
  -27.4059  -29.7294   25.4613 H   0  0  0  0  0  0
  -27.8709  -30.4360   23.9303 H   0  0  0  0  0  0
  -27.2675  -33.3619   26.2086 H   0  0  0  0  0  0
  -28.3845  -32.6918   25.0310 H   0  0  0  0  0  0
  -28.0730  -31.8439   26.5384 H   0  0  0  0  0  0
  -28.2598  -38.0083   24.7494 H   0  0  0  0  0  0
  -28.1049  -36.2621   24.6306 H   0  0  0  0  0  0
  -27.2269  -37.1481   25.8858 H   0  0  0  0  0  0
  -20.9326  -29.8753   21.6888 H   0  0  0  0  0  0
  -26.0161  -38.2855   24.1439 H   0  0  0  0  0  0
  -30.7108  -22.0447   19.2896 H   0  0  0  0  0  0
  -27.7177  -18.9565   21.1944 H   0  0  0  0  0  0
  -28.5348  -18.3278   22.6202 H   0  0  0  0  0  0
  -27.8209  -17.2238   21.4603 H   0  0  0  0  0  0
  -28.8730  -18.7817   18.8645 H   0  0  0  0  0  0
  -28.7857  -17.0431   19.1038 H   0  0  0  0  0  0
  -30.3248  -17.7955   18.7123 H   0  0  0  0  0  0
  -31.0575  -19.3877   21.9142 H   0  0  0  0  0  0
  -31.3287  -19.4783   20.2255 H   0  0  0  0  0  0
  -29.9378  -24.9156   21.4668 H   0  0  0  0  0  0
  -30.3644  -24.6183   19.8099 H   0  0  0  0  0  0
  -30.7270  -17.0223   22.3742 H   0  0  0  0  0  0
  -31.5681  -17.0011   20.8641 H   0  0  0  0  0  0
  -27.4614  -24.8823   20.7598 H   0  0  0  0  0  0
  -28.0222  -24.8727   19.0944 H   0  0  0  0  0  0
  -29.0762  -15.3808   21.3649 H   0  0  0  0  0  0
  1 25  1  0  0  0
  1 30  2  0  0  0
  1 83  1  0  0  0
  2  3  1  0  0  0
  2 25  1  0  0  0
  2 84  1  0  0  0
  2 85  1  0  0  0
  3  4  1  0  0  0
  3 86  1  0  0  0
  3 87  1  0  0  0
  4  5  1  0  0  0
  4 88  1  0  0  0
  4 89  1  0  0  0
  5  6  1  0  0  0
  5 26  1  0  0  0
  5 90  1  0  0  0
  6 25  1  0  0  0
  6 91  1  0  0  0
  6 92  1  0  0  0
  7  8  2  0  0  0
  7 26  1  0  0  0
  7 29  1  0  0  0
  8  9  1  0  0  0
  8 22  1  0  0  0
  9 10  1  0  0  0
  9 27  2  0  0  0
 10 11  2  0  0  0
 10 15  1  0  0  0
 11 12  1  0  0  0
 11 93  1  0  0  0
 12 13  2  0  0  0
 12 94  1  0  0  0
 13 14  1  0  0  0
 13 31  1  0  0  0
 14 15  2  0  0  0
 14 95  1  0  0  0
 15 96  1  0  0  0
 16 17  2  0  0  0
 16 21  1  0  0  0
 16 31  1  0  0  0
 17 18  1  0  0  0
 17 97  1  0  0  0
 18 19  2  0  0  0
 18 98  1  0  0  0
 19 20  1  0  0  0
 19 24  1  0  0  0
 20 21  2  0  0  0
 20 99  1  0  0  0
 21 23  1  0  0  0
 22 28  1  0  0  0
 22 32  2  0  0  0
 26 27  1  0  0  0
 28100  1  0  0  0
 28101  1  0  0  0
 29102  1  0  0  0
 29103  1  0  0  0
 33 34  1  0  0  0
 33 66  1  0  0  0
 33 70  2  0  0  0
 34 36  1  0  0  0
 34 59  1  0  0  0
 34104  1  0  0  0
 35 44  2  0  0  0
 35 45  1  0  0  0
 35 68  1  0  0  0
 36 56  1  0  0  0
 36105  1  0  0  0
 37 39  1  0  0  0
 37 47  1  0  0  0
 37 66  1  0  0  0
 37106  1  0  0  0
 38 43  2  0  0  0
 38 46  1  0  0  0
 38 47  1  0  0  0
 39 64  1  0  0  0
 39 67  2  0  0  0
 40 52  1  0  0  0
 40 53  2  0  0  0
 40 58  1  0  0  0
 41107  1  0  0  0
 41108  1  0  0  0
 41109  1  0  0  0
 41 48  1  0  0  0
 42 43  1  0  0  0
 42 66  1  0  0  0
 42110  1  0  0  0
 42111  1  0  0  0
 43 44  1  0  0  0
 44112  1  0  0  0
 45 46  2  0  0  0
 45113  1  0  0  0
 46114  1  0  0  0
 47115  1  0  0  0
 47116  1  0  0  0
 48 56  1  0  0  0
 48 65  1  0  0  0
 48117  1  0  0  0
 49 50  1  0  0  0
 49 53  1  0  0  0
 49 64  1  0  0  0
 49118  1  0  0  0
 50 51  1  0  0  0
 50119  1  0  0  0
 50120  1  0  0  0
 51 52  1  0  0  0
 51121  1  0  0  0
 51122  1  0  0  0
 52123  1  0  0  0
 52124  1  0  0  0
 53 54  1  0  0  0
 54 55  2  0  0  0
 54125  1  0  0  0
 55 57  1  0  0  0
 55126  1  0  0  0
 56 69  2  0  0  0
 57 58  2  0  0  0
 57127  1  0  0  0
 58128  1  0  0  0
 59 60  1  0  0  0
 59 61  1  0  0  0
 59 62  1  0  0  0
 60129  1  0  0  0
 60130  1  0  0  0
 60131  1  0  0  0
 61132  1  0  0  0
 61133  1  0  0  0
 61134  1  0  0  0
 62135  1  0  0  0
 62136  1  0  0  0
 62137  1  0  0  0
 63 65  1  0  0  0
 63138  1  0  0  0
 63139  1  0  0  0
 63140  1  0  0  0
 64141  1  0  0  0
 65142  1  0  0  0
 68 78  1  0  0  0
 71 72  2  0  0  0
 71 82  1  0  0  0
 71143  1  0  0  0
 72 75  1  0  0  0
 72 80  1  0  0  0
 73144  1  0  0  0
 73145  1  0  0  0
 73146  1  0  0  0
 73 79  1  0  0  0
 74 79  1  0  0  0
 74147  1  0  0  0
 74148  1  0  0  0
 74149  1  0  0  0
 75 79  1  0  0  0
 75150  1  0  0  0
 75151  1  0  0  0
 76 78  1  0  0  0
 76 82  1  0  0  0
 76152  1  0  0  0
 76153  1  0  0  0
 77 79  1  0  0  0
 77 83  1  0  0  0
 77154  1  0  0  0
 77155  1  0  0  0
 78156  1  0  0  0
 78157  1  0  0  0
 80 81  2  0  0  0
 81 82  1  0  0  0
 83158  1  0  0  0
M  ISO  4   1 100  68 101  78 101  83 100
M  END
> <chiral flag>
0

> <version>
0

> <s_m_source_file>
/data/baiqing/PycharmProjects/Reinvent-master-3.2/result/LINK_invent/BTK/process_docking_weight1_custom_sum_contain_oxygen_bond_distance_aromatic_linkinvent_7_9_3/rearranged_h_0068.sdf

> <i_m_source_file_index>
45

> <r_mmod_Potential_Energy-OPLS-2005>
-97.9535827636719

> <r_mmod_Stretch_Energy-OPLS-2005>
47.9037780761719

> <r_mmod_Bend_Energy-OPLS-2005>
114.732620239258

> <r_mmod_Torsional_Energy-OPLS-2005>
218.37336730957

> <r_mmod_Improper_Torsional_Energy-OPLS-2005>
5.04540395736694

> <r_mmod_Van_der_Waal_Energy-OPLS-2005>
124.871475219727

> <r_mmod_Electrostatic_Energy-OPLS-2005>
-410.157012939453

> <r_mmod_Solvation_Energy-OPLS-2005>
-218.526748657227

> <b_mmod_Minimization_Converged-OPLS-2005>
0

> <r_mmod_RMS_Derivative-OPLS-2005>
3.18882489204407

$$$$
48
                    3D
 Structure written by MMmdl.
168176  0  0  1  0            999 V2000
  -30.7085  -14.4726   20.6562 C   0  0  0  0  0  0
  -30.4063  -12.3404   19.4133 C   0  0  0  0  0  0
  -29.4806  -12.5105   18.1918 C   0  0  0  0  0  0
  -27.9962  -12.3769   18.5856 C   0  0  0  0  0  0
  -27.6392  -13.2112   19.8414 C   0  0  2  0  0  0
  -28.6683  -13.0047   20.9719 C   0  0  0  0  0  0
  -25.2463  -13.8274   20.5569 C   0  0  0  0  0  0
  -24.1740  -13.0484   20.9110 C   0  0  0  0  0  0
  -24.6357  -11.6980   20.8662 C   0  0  0  0  0  0
  -23.9098  -10.4338   21.0397 C   0  0  0  0  0  0
  -24.3677   -9.4279   21.9215 C   0  0  0  0  0  0
  -23.6401   -8.2286   22.0859 C   0  0  0  0  0  0
  -22.4382   -8.0308   21.3614 C   0  0  0  0  0  0
  -21.9954   -9.0252   20.4708 C   0  0  0  0  0  0
  -22.7253  -10.2139   20.3074 C   0  0  0  0  0  0
  -21.6869   -6.0779   22.5336 C   0  0  0  0  0  0
  -21.3954   -6.5683   23.8255 C   0  0  0  0  0  0
  -21.3556   -5.6826   24.9218 C   0  0  0  0  0  0
  -21.6005   -4.3081   24.7262 C   0  0  0  0  0  0
  -21.8789   -3.8179   23.4386 C   0  0  0  0  0  0
  -21.9229   -4.7009   22.3451 C   0  0  0  0  0  0
  -22.7777  -13.5285   21.1848 C   0  0  0  0  0  0
  -22.1688   -4.2200   21.1016 F   0  0  0  0  0  0
  -21.5574   -3.4540   25.7750 F   0  0  0  0  0  0
  -30.0093  -13.3156   20.4498 N   0  0  0  0  0  0
  -26.2875  -12.9405   20.3154 N   0  0  0  0  0  0
  -25.9283  -11.6579   20.5672 N   0  0  0  0  0  0
  -22.0540  -12.8210   22.0494 N   0  0  0  0  0  0
  -25.4119  -15.1978   20.4137 N   0  0  0  0  0  0
  -31.7890  -14.6840   20.0913 O   0  0  0  0  0  0
  -21.6740   -6.8913   21.4285 O   0  0  0  0  0  0
  -22.3369  -14.5548   20.6694 O   0  0  0  0  0  0
  -24.6098  -31.8654   23.2094 C   0  0  0  0  0  0
  -25.9006  -32.4782   23.8367 C   0  0  1  0  0  0
  -27.2201  -27.4288   20.0645 C   0  0  0  0  0  0
  -25.5870  -33.8589   24.2264 N   0  0  0  0  0  0
  -23.3935  -30.4822   21.5579 C   0  0  2  0  0  0
  -24.8315  -28.9415   20.1285 C   0  0  0  0  0  0
  -22.7366  -29.4627   22.5115 C   0  0  0  0  0  0
  -18.0253  -28.1341   22.8499 C   0  0  0  0  0  0
  -24.1489  -36.7289   23.2638 C   0  0  0  0  0  0
  -25.9265  -30.8135   21.3716 C   0  0  0  0  0  0
  -25.9962  -29.4512   20.7155 C   0  0  0  0  0  0
  -27.1886  -28.6952   20.6895 C   0  0  0  0  0  0
  -26.0286  -26.9276   19.4909 C   0  0  0  0  0  0
  -24.8377  -27.6717   19.5303 C   0  0  0  0  0  0
  -23.5921  -29.7971   20.1815 C   0  0  0  0  0  0
  -25.4116  -36.3075   24.0313 C   0  0  1  0  0  0
  -20.5836  -28.3596   23.1375 C   0  0  2  0  0  0
  -20.6772  -26.9349   22.5448 C   0  0  0  0  0  0
  -19.5756  -26.6365   21.5225 C   0  0  0  0  0  0
  -18.1927  -26.7886   22.1636 C   0  0  0  0  0  0
  -19.1501  -28.8796   23.2918 C   0  0  0  0  0  0
  -18.9441  -30.1428   23.8877 C   0  0  0  0  0  0
  -17.6446  -30.6574   24.0539 C   0  0  0  0  0  0
  -25.9059  -34.9446   23.5099 C   0  0  0  0  0  0
  -16.5335  -29.9058   23.6347 C   0  0  0  0  0  0
  -16.7244  -28.6473   23.0367 C   0  0  0  0  0  0
  -26.4419  -31.6601   25.0727 C   0  0  0  0  0  0
  -25.3727  -31.3740   26.1518 C   0  0  0  0  0  0
  -27.0234  -30.3017   24.6179 C   0  0  0  0  0  0
  -27.5971  -32.4356   25.7500 C   0  0  0  0  0  0
  -27.5562  -37.1807   24.8466 C   0  0  0  0  0  0
  -21.4117  -29.2948   22.3803 N   0  0  0  0  0  0
  -26.4282  -37.3773   23.9401 N   0  0  0  0  0  0
  -24.6613  -31.0728   22.1013 N   0  0  0  0  0  0
  -23.4147  -28.8210   23.3174 O   0  0  0  0  0  0
  -28.4153  -26.7361   20.0416 O   0  0  0  0  0  0
  -26.5675  -34.8897   22.4689 O   0  0  0  0  0  0
  -23.5307  -32.1429   23.7506 O   0  0  0  0  0  0
  -27.1465  -17.8881   22.3601 C   0  0  0  0  0  0
  -26.3541  -18.6526   23.2599 C   0  0  0  0  0  0
  -27.3570  -18.7015   21.2825 C   0  0  0  0  0  0
  -30.1393  -15.4429   22.8285 C   0  0  0  0  0  0
  -28.1311  -18.4569   20.0160 C   0  0  0  0  0  0
  -28.7524  -17.0459   19.9309 C   0  0  0  0  0  0
  -28.3618  -22.9151   19.8835 C   0  0  0  0  0  0
  -28.0662  -21.8373   20.9416 C   0  0  0  0  0  0
  -27.9019  -24.3195   20.3184 C   0  0  0  0  0  0
  -26.7146  -21.1236   20.7780 C   0  0  0  0  0  0
  -30.0084  -16.8491   20.8161 C   0  0  0  0  0  0
  -28.4801  -25.4422   19.4244 C   0  0  0  0  0  0
  -25.8716  -18.2214   24.6356 C   0  0  0  0  0  0
  -26.0944  -19.8681   22.7677 N   0  0  0  0  0  0
  -26.7106  -19.8959   21.5610 N   0  0  0  0  0  0
  -30.0845  -15.4654   21.3570 N   0  0  0  0  0  0
  -26.5820  -18.8391   25.5817 F   0  0  0  0  0  0
  -24.5793  -18.4984   24.8115 F   0  0  0  0  0  0
  -26.0399  -16.9038   24.7759 F   0  0  0  0  0  0
  -31.4448  -12.4634   19.1014 H   0  0  0  0  0  0
  -30.3362  -11.3249   19.8007 H   0  0  0  0  0  0
  -29.7233  -11.7605   17.4381 H   0  0  0  0  0  0
  -29.6512  -13.4836   17.7257 H   0  0  0  0  0  0
  -27.7807  -11.3218   18.7531 H   0  0  0  0  0  0
  -27.3552  -12.6758   17.7536 H   0  0  0  0  0  0
  -27.6702  -14.2540   19.5333 H   0  0  0  0  0  0
  -28.6389  -11.9745   21.3247 H   0  0  0  0  0  0
  -28.3838  -13.6105   21.8268 H   0  0  0  0  0  0
  -25.2826   -9.5801   22.4781 H   0  0  0  0  0  0
  -24.0119   -7.4741   22.7667 H   0  0  0  0  0  0
  -21.0838   -8.8733   19.9106 H   0  0  0  0  0  0
  -22.3640  -10.9660   19.6207 H   0  0  0  0  0  0
  -21.1914   -7.6185   23.9735 H   0  0  0  0  0  0
  -21.1283   -6.0560   25.9098 H   0  0  0  0  0  0
  -22.0595   -2.7647   23.2912 H   0  0  0  0  0  0
  -22.4324  -12.0016   22.5002 H   0  0  0  0  0  0
  -21.1078  -13.0916   22.2659 H   0  0  0  0  0  0
  -24.6336  -15.8413   20.5214 H   0  0  0  0  0  0
  -26.2929  -15.6714   20.2634 H   0  0  0  0  0  0
  -26.7061  -32.5454   23.1108 H   0  0  0  0  0  0
  -24.9851  -33.9758   25.0286 H   0  0  0  0  0  0
  -22.6783  -31.2945   21.4118 H   0  0  0  0  0  0
  -23.3726  -35.9653   23.3349 H   0  0  0  0  0  0
  -24.3548  -36.8874   22.2043 H   0  0  0  0  0  0
  -23.7290  -37.6515   23.6645 H   0  0  0  0  0  0
  -26.0623  -31.5737   20.6034 H   0  0  0  0  0  0
  -26.8106  -30.8536   21.9986 H   0  0  0  0  0  0
  -28.0867  -29.0783   21.1503 H   0  0  0  0  0  0
  -25.9841  -25.9591   19.0134 H   0  0  0  0  0  0
  -23.9337  -27.2592   19.1022 H   0  0  0  0  0  0
  -23.6741  -30.5487   19.3965 H   0  0  0  0  0  0
  -22.7262  -29.1855   19.9182 H   0  0  0  0  0  0
  -25.1314  -36.1896   25.0807 H   0  0  0  0  0  0
  -20.9876  -28.3141   24.1516 H   0  0  0  0  0  0
  -20.5719  -26.2168   23.3605 H   0  0  0  0  0  0
  -21.6645  -26.7457   22.1210 H   0  0  0  0  0  0
  -19.6938  -25.6297   21.1209 H   0  0  0  0  0  0
  -19.6714  -27.3219   20.6791 H   0  0  0  0  0  0
  -17.4219  -26.6593   21.4040 H   0  0  0  0  0  0
  -18.0353  -26.0026   22.9034 H   0  0  0  0  0  0
  -19.7925  -30.7249   24.2209 H   0  0  0  0  0  0
  -17.5016  -31.6256   24.5138 H   0  0  0  0  0  0
  -15.5344  -30.2958   23.7695 H   0  0  0  0  0  0
  -15.8633  -28.0789   22.7103 H   0  0  0  0  0  0
  -24.5854  -30.7110   25.7902 H   0  0  0  0  0  0
  -24.8981  -32.2926   26.5000 H   0  0  0  0  0  0
  -25.8124  -30.8898   27.0257 H   0  0  0  0  0  0
  -26.2821  -29.6867   24.1068 H   0  0  0  0  0  0
  -27.3741  -29.7156   25.4686 H   0  0  0  0  0  0
  -27.8771  -30.4254   23.9512 H   0  0  0  0  0  0
  -27.2507  -33.3600   26.2135 H   0  0  0  0  0  0
  -28.3747  -32.7040   25.0339 H   0  0  0  0  0  0
  -28.0690  -31.8487   26.5393 H   0  0  0  0  0  0
  -28.2619  -38.0063   24.7476 H   0  0  0  0  0  0
  -28.1023  -36.2604   24.6350 H   0  0  0  0  0  0
  -27.2286  -37.1531   25.8870 H   0  0  0  0  0  0
  -20.9309  -29.8469   21.6849 H   0  0  0  0  0  0
  -26.0147  -38.2842   24.1392 H   0  0  0  0  0  0
  -27.5198  -16.8835   22.5063 H   0  0  0  0  0  0
  -29.6777  -16.3193   23.2888 H   0  0  0  0  0  0
  -31.1747  -15.4102   23.1772 H   0  0  0  0  0  0
  -29.6298  -14.5841   23.2557 H   0  0  0  0  0  0
  -28.9342  -19.1855   19.8988 H   0  0  0  0  0  0
  -27.4603  -18.6220   19.1698 H   0  0  0  0  0  0
  -29.0095  -16.8306   18.8903 H   0  0  0  0  0  0
  -27.9896  -16.3243   20.2014 H   0  0  0  0  0  0
  -27.9289  -22.6421   18.9184 H   0  0  0  0  0  0
  -29.4420  -22.9253   19.7144 H   0  0  0  0  0  0
  -28.1279  -22.2356   21.9553 H   0  0  0  0  0  0
  -28.8632  -21.0999   20.8916 H   0  0  0  0  0  0
  -28.2318  -24.4941   21.3432 H   0  0  0  0  0  0
  -26.8100  -24.3469   20.3394 H   0  0  0  0  0  0
  -26.5204  -20.8726   19.7341 H   0  0  0  0  0  0
  -25.9014  -21.7698   21.1132 H   0  0  0  0  0  0
  -29.9955  -17.6039   21.6107 H   0  0  0  0  0  0
  -30.9018  -17.0968   20.2398 H   0  0  0  0  0  0
  -28.0301  -25.4302   18.4301 H   0  0  0  0  0  0
  -29.5366  -25.2387   19.2565 H   0  0  0  0  0  0
  1 25  1  0  0  0
  1 30  2  0  0  0
  1 86  1  0  0  0
  2  3  1  0  0  0
  2 25  1  0  0  0
  2 90  1  0  0  0
  2 91  1  0  0  0
  3  4  1  0  0  0
  3 92  1  0  0  0
  3 93  1  0  0  0
  4  5  1  0  0  0
  4 94  1  0  0  0
  4 95  1  0  0  0
  5  6  1  0  0  0
  5 26  1  0  0  0
  5 96  1  0  0  0
  6 25  1  0  0  0
  6 97  1  0  0  0
  6 98  1  0  0  0
  7  8  2  0  0  0
  7 26  1  0  0  0
  7 29  1  0  0  0
  8  9  1  0  0  0
  8 22  1  0  0  0
  9 10  1  0  0  0
  9 27  2  0  0  0
 10 11  2  0  0  0
 10 15  1  0  0  0
 11 12  1  0  0  0
 11 99  1  0  0  0
 12 13  2  0  0  0
 12100  1  0  0  0
 13 14  1  0  0  0
 13 31  1  0  0  0
 14 15  2  0  0  0
 14101  1  0  0  0
 15102  1  0  0  0
 16 17  2  0  0  0
 16 21  1  0  0  0
 16 31  1  0  0  0
 17 18  1  0  0  0
 17103  1  0  0  0
 18 19  2  0  0  0
 18104  1  0  0  0
 19 20  1  0  0  0
 19 24  1  0  0  0
 20 21  2  0  0  0
 20105  1  0  0  0
 21 23  1  0  0  0
 22 28  1  0  0  0
 22 32  2  0  0  0
 26 27  1  0  0  0
 28106  1  0  0  0
 28107  1  0  0  0
 29108  1  0  0  0
 29109  1  0  0  0
 33 34  1  0  0  0
 33 66  1  0  0  0
 33 70  2  0  0  0
 34 36  1  0  0  0
 34 59  1  0  0  0
 34110  1  0  0  0
 35 44  2  0  0  0
 35 45  1  0  0  0
 35 68  1  0  0  0
 36 56  1  0  0  0
 36111  1  0  0  0
 37 39  1  0  0  0
 37 47  1  0  0  0
 37 66  1  0  0  0
 37112  1  0  0  0
 38 43  2  0  0  0
 38 46  1  0  0  0
 38 47  1  0  0  0
 39 64  1  0  0  0
 39 67  2  0  0  0
 40 52  1  0  0  0
 40 53  2  0  0  0
 40 58  1  0  0  0
 41113  1  0  0  0
 41114  1  0  0  0
 41115  1  0  0  0
 41 48  1  0  0  0
 42 43  1  0  0  0
 42 66  1  0  0  0
 42116  1  0  0  0
 42117  1  0  0  0
 43 44  1  0  0  0
 44118  1  0  0  0
 45 46  2  0  0  0
 45119  1  0  0  0
 46120  1  0  0  0
 47121  1  0  0  0
 47122  1  0  0  0
 48 56  1  0  0  0
 48 65  1  0  0  0
 48123  1  0  0  0
 49 50  1  0  0  0
 49 53  1  0  0  0
 49 64  1  0  0  0
 49124  1  0  0  0
 50 51  1  0  0  0
 50125  1  0  0  0
 50126  1  0  0  0
 51 52  1  0  0  0
 51127  1  0  0  0
 51128  1  0  0  0
 52129  1  0  0  0
 52130  1  0  0  0
 53 54  1  0  0  0
 54 55  2  0  0  0
 54131  1  0  0  0
 55 57  1  0  0  0
 55132  1  0  0  0
 56 69  2  0  0  0
 57 58  2  0  0  0
 57133  1  0  0  0
 58134  1  0  0  0
 59 60  1  0  0  0
 59 61  1  0  0  0
 59 62  1  0  0  0
 60135  1  0  0  0
 60136  1  0  0  0
 60137  1  0  0  0
 61138  1  0  0  0
 61139  1  0  0  0
 61140  1  0  0  0
 62141  1  0  0  0
 62142  1  0  0  0
 62143  1  0  0  0
 63 65  1  0  0  0
 63144  1  0  0  0
 63145  1  0  0  0
 63146  1  0  0  0
 64147  1  0  0  0
 65148  1  0  0  0
 68 82  1  0  0  0
 71 72  1  0  0  0
 71 73  2  0  0  0
 71149  1  0  0  0
 72 83  1  0  0  0
 72 84  2  0  0  0
 73 75  1  0  0  0
 73 85  1  0  0  0
 74 86  1  0  0  0
 74150  1  0  0  0
 74151  1  0  0  0
 74152  1  0  0  0
 75 76  1  0  0  0
 75153  1  0  0  0
 75154  1  0  0  0
 76 81  1  0  0  0
 76155  1  0  0  0
 76156  1  0  0  0
 77 78  1  0  0  0
 77 79  1  0  0  0
 77157  1  0  0  0
 77158  1  0  0  0
 78 80  1  0  0  0
 78159  1  0  0  0
 78160  1  0  0  0
 79 82  1  0  0  0
 79161  1  0  0  0
 79162  1  0  0  0
 80 85  1  0  0  0
 80163  1  0  0  0
 80164  1  0  0  0
 81 86  1  0  0  0
 81165  1  0  0  0
 81166  1  0  0  0
 82167  1  0  0  0
 82168  1  0  0  0
 83 87  1  0  0  0
 83 88  1  0  0  0
 83 89  1  0  0  0
 84 85  1  0  0  0
M  ISO  4   1 100  68 101  82 101  86 100
M  END
> <chiral flag>
0

> <version>
0

> <s_m_source_file>
/data/baiqing/PycharmProjects/Reinvent-master-3.2/result/LINK_invent/BTK/process_docking_weight1_custom_sum_contain_oxygen_bond_distance_aromatic_linkinvent_7_9_3/rearranged_h_0068.sdf

> <i_m_source_file_index>
46

> <r_mmod_Potential_Energy-OPLS-2005>
197.114196777344

> <r_mmod_Stretch_Energy-OPLS-2005>
39.6684265136719

> <r_mmod_Bend_Energy-OPLS-2005>
104.484336853027

> <r_mmod_Torsional_Energy-OPLS-2005>
292.130004882812

> <r_mmod_Improper_Torsional_Energy-OPLS-2005>
6.47746610641479

> <r_mmod_Van_der_Waal_Energy-OPLS-2005>
126.655563354492

> <r_mmod_Electrostatic_Energy-OPLS-2005>
-193.290756225586

> <r_mmod_Solvation_Energy-OPLS-2005>
-193.179244995117

> <b_mmod_Minimization_Converged-OPLS-2005>
0

> <r_mmod_RMS_Derivative-OPLS-2005>
7.47489213943481

$$$$
49
                    3D
 Structure written by MMmdl.
166174  0  0  1  0            999 V2000
  -30.7031  -14.5357   20.4982 C   0  0  0  0  0  0
  -30.4164  -12.3289   19.4411 C   0  0  0  0  0  0
  -29.4896  -12.4949   18.2187 C   0  0  0  0  0  0
  -28.0123  -12.3527   18.6342 C   0  0  0  0  0  0
  -27.6536  -13.2137   19.8769 C   0  0  2  0  0  0
  -28.7042  -13.0379   20.9951 C   0  0  0  0  0  0
  -25.2555  -13.8166   20.5735 C   0  0  0  0  0  0
  -24.1808  -13.0443   20.9200 C   0  0  0  0  0  0
  -24.6386  -11.6910   20.8775 C   0  0  0  0  0  0
  -23.9063  -10.4293   21.0425 C   0  0  0  0  0  0
  -24.3615   -9.4193   21.9196 C   0  0  0  0  0  0
  -23.6282   -8.2230   22.0760 C   0  0  0  0  0  0
  -22.4270   -8.0279   21.3543 C   0  0  0  0  0  0
  -21.9911   -9.0249   20.4643 C   0  0  0  0  0  0
  -22.7241  -10.2128   20.3074 C   0  0  0  0  0  0
  -21.6846   -6.0743   22.5280 C   0  0  0  0  0  0
  -21.4012   -6.5648   23.8211 C   0  0  0  0  0  0
  -21.3660   -5.6799   24.9172 C   0  0  0  0  0  0
  -21.6039   -4.3064   24.7217 C   0  0  0  0  0  0
  -21.8818   -3.8154   23.4335 C   0  0  0  0  0  0
  -21.9191   -4.6972   22.3391 C   0  0  0  0  0  0
  -22.7830  -13.5228   21.1856 C   0  0  0  0  0  0
  -22.1663   -4.2166   21.0964 F   0  0  0  0  0  0
  -21.5624   -3.4540   25.7720 F   0  0  0  0  0  0
  -30.0177  -13.3574   20.4170 N   0  0  0  0  0  0
  -26.2997  -12.9348   20.3459 N   0  0  0  0  0  0
  -25.9316  -11.6510   20.5853 N   0  0  0  0  0  0
  -22.0496  -12.8197   22.0414 N   0  0  0  0  0  0
  -25.4292  -15.1875   20.4099 N   0  0  0  0  0  0
  -31.8996  -14.5889   20.2060 O   0  0  0  0  0  0
  -21.6629   -6.8882   21.4244 O   0  0  0  0  0  0
  -22.3517  -14.5543   20.6723 O   0  0  0  0  0  0
  -24.6180  -31.8651   23.2084 C   0  0  0  0  0  0
  -25.9064  -32.4803   23.8377 C   0  0  1  0  0  0
  -27.2306  -27.3993   20.1037 C   0  0  0  0  0  0
  -25.5912  -33.8604   24.2302 N   0  0  0  0  0  0
  -23.4081  -30.4883   21.5503 C   0  0  2  0  0  0
  -24.8579  -28.9558   20.1116 C   0  0  0  0  0  0
  -22.7428  -29.4629   22.4971 C   0  0  0  0  0  0
  -18.0270  -28.1366   22.8480 C   0  0  0  0  0  0
  -24.1494  -36.7311   23.2637 C   0  0  0  0  0  0
  -25.9429  -30.8203   21.3701 C   0  0  0  0  0  0
  -26.0226  -29.4552   20.7106 C   0  0  0  0  0  0
  -27.2152  -28.6859   20.7019 C   0  0  0  0  0  0
  -26.0521  -26.9348   19.4809 C   0  0  0  0  0  0
  -24.8702  -27.6962   19.4918 C   0  0  0  0  0  0
  -23.6200  -29.8255   20.1642 C   0  0  0  0  0  0
  -25.4116  -36.3097   24.0326 C   0  0  1  0  0  0
  -20.5862  -28.3657   23.1305 C   0  0  2  0  0  0
  -20.6765  -26.9388   22.5416 C   0  0  0  0  0  0
  -19.5750  -26.6375   21.5201 C   0  0  0  0  0  0
  -18.1925  -26.7917   22.1609 C   0  0  0  0  0  0
  -19.1523  -28.8827   23.2887 C   0  0  0  0  0  0
  -18.9454  -30.1433   23.8895 C   0  0  0  0  0  0
  -17.6458  -30.6579   24.0548 C   0  0  0  0  0  0
  -25.9047  -34.9462   23.5101 C   0  0  0  0  0  0
  -16.5348  -29.9074   23.6332 C   0  0  0  0  0  0
  -16.7262  -28.6490   23.0344 C   0  0  0  0  0  0
  -26.4485  -31.6587   25.0713 C   0  0  0  0  0  0
  -25.3742  -31.3705   26.1445 C   0  0  0  0  0  0
  -27.0330  -30.3019   24.6135 C   0  0  0  0  0  0
  -27.6046  -32.4315   25.7495 C   0  0  0  0  0  0
  -27.5584  -37.1812   24.8457 C   0  0  0  0  0  0
  -21.4148  -29.3020   22.3705 N   0  0  0  0  0  0
  -26.4298  -37.3784   23.9397 N   0  0  0  0  0  0
  -24.6741  -31.0723   22.1011 N   0  0  0  0  0  0
  -23.4177  -28.8167   23.3024 O   0  0  0  0  0  0
  -28.3442  -26.5735   20.1420 O   0  0  0  0  0  0
  -26.5600  -34.8917   22.4665 O   0  0  0  0  0  0
  -23.5368  -32.1426   23.7460 O   0  0  0  0  0  0
  -28.4230  -19.8995   21.7066 C   0  0  0  0  0  0
  -29.4820  -19.0486   21.3020 C   0  0  0  0  0  0
  -29.2009  -21.6224   20.3530 C   0  0  0  0  0  0
  -30.2640  -20.7656   19.9308 C   0  0  0  0  0  0
  -31.1007  -20.6964   17.5299 C   0  0  0  0  0  0
  -30.2471  -16.4444   19.0635 C   0  0  0  0  0  0
  -28.9439  -23.0513   19.8163 C   0  0  0  0  0  0
  -31.3552  -21.1930   18.9597 C   0  0  0  0  0  0
  -29.1785  -24.2122   20.8358 C   0  0  0  0  0  0
  -29.1060  -16.3888   21.2401 C   0  0  0  0  0  0
  -28.1065  -25.3483   20.8835 C   0  0  0  0  0  0
  -29.6803  -17.6610   21.9695 C   0  0  1  0  0  0
  -31.0692  -17.4876   22.6256 C   0  0  0  0  0  0
  -28.2749  -21.1649   21.2353 N   0  0  0  0  0  0
  -30.3841  -19.4862   20.3847 N   0  0  0  0  0  0
  -29.9623  -15.6624   20.2723 N   0  0  0  0  0  0
  -31.0719  -16.3748   23.3622 F   0  0  0  0  0  0
  -32.0514  -17.3961   21.7287 F   0  0  0  0  0  0
  -31.3260  -18.5169   23.4351 F   0  0  0  0  0  0
  -31.4620  -12.4126   19.1341 H   0  0  0  0  0  0
  -30.3094  -11.3338   19.8751 H   0  0  0  0  0  0
  -29.7367  -11.7604   17.4497 H   0  0  0  0  0  0
  -29.6439  -13.4777   17.7723 H   0  0  0  0  0  0
  -27.8315  -11.2982   18.8449 H   0  0  0  0  0  0
  -27.3558  -12.6087   17.8011 H   0  0  0  0  0  0
  -27.6795  -14.2551   19.5568 H   0  0  0  0  0  0
  -28.7032  -12.0074   21.3502 H   0  0  0  0  0  0
  -28.4721  -13.6360   21.8734 H   0  0  0  0  0  0
  -25.2763   -9.5653   22.4761 H   0  0  0  0  0  0
  -23.9993   -7.4614   22.7467 H   0  0  0  0  0  0
  -21.0861   -8.8762   19.8919 H   0  0  0  0  0  0
  -22.3714  -10.9667   19.6184 H   0  0  0  0  0  0
  -21.2014   -7.6156   23.9713 H   0  0  0  0  0  0
  -21.1488   -6.0537   25.9077 H   0  0  0  0  0  0
  -22.0601   -2.7617   23.2822 H   0  0  0  0  0  0
  -22.4154  -11.9833   22.4715 H   0  0  0  0  0  0
  -21.1128  -13.1192   22.2705 H   0  0  0  0  0  0
  -24.6554  -15.8376   20.4849 H   0  0  0  0  0  0
  -26.2715  -15.6102   20.0434 H   0  0  0  0  0  0
  -26.7130  -32.5508   23.1135 H   0  0  0  0  0  0
  -25.0034  -33.9760   25.0421 H   0  0  0  0  0  0
  -22.6977  -31.3053   21.4121 H   0  0  0  0  0  0
  -23.3742  -35.9655   23.3301 H   0  0  0  0  0  0
  -24.3584  -36.8935   22.2051 H   0  0  0  0  0  0
  -23.7268  -37.6521   23.6663 H   0  0  0  0  0  0
  -26.0647  -31.5908   20.6073 H   0  0  0  0  0  0
  -26.8249  -30.8671   21.9964 H   0  0  0  0  0  0
  -28.1089  -29.0618   21.1806 H   0  0  0  0  0  0
  -26.0384  -25.9682   18.9981 H   0  0  0  0  0  0
  -23.9775  -27.3034   19.0242 H   0  0  0  0  0  0
  -23.7299  -30.6038   19.4090 H   0  0  0  0  0  0
  -22.7433  -29.2503   19.8636 H   0  0  0  0  0  0
  -25.1299  -36.1953   25.0822 H   0  0  0  0  0  0
  -20.9948  -28.3228   24.1427 H   0  0  0  0  0  0
  -20.5670  -26.2256   23.3597 H   0  0  0  0  0  0
  -21.6639  -26.7427   22.1215 H   0  0  0  0  0  0
  -19.6915  -25.6288   21.1227 H   0  0  0  0  0  0
  -19.6703  -27.3182   20.6729 H   0  0  0  0  0  0
  -17.4199  -26.6642   21.4013 H   0  0  0  0  0  0
  -18.0329  -26.0053   22.9005 H   0  0  0  0  0  0
  -19.7927  -30.7238   24.2276 H   0  0  0  0  0  0
  -17.5017  -31.6266   24.5131 H   0  0  0  0  0  0
  -15.5350  -30.2971   23.7669 H   0  0  0  0  0  0
  -15.8659  -28.0818   22.7062 H   0  0  0  0  0  0
  -24.5906  -30.7071   25.7768 H   0  0  0  0  0  0
  -24.8947  -32.2873   26.4887 H   0  0  0  0  0  0
  -25.8078  -30.8864   27.0201 H   0  0  0  0  0  0
  -26.2898  -29.6764   24.1181 H   0  0  0  0  0  0
  -27.4065  -29.7271   25.4619 H   0  0  0  0  0  0
  -27.8743  -30.4300   23.9317 H   0  0  0  0  0  0
  -27.2640  -33.3598   26.2086 H   0  0  0  0  0  0
  -28.3856  -32.6903   25.0337 H   0  0  0  0  0  0
  -28.0705  -31.8432   26.5409 H   0  0  0  0  0  0
  -28.2590  -38.0122   24.7510 H   0  0  0  0  0  0
  -28.1098  -36.2651   24.6280 H   0  0  0  0  0  0
  -27.2293  -37.1448   25.8858 H   0  0  0  0  0  0
  -20.9303  -29.8760   21.6942 H   0  0  0  0  0  0
  -26.0179  -38.2855   24.1411 H   0  0  0  0  0  0
  -27.6944  -19.5739   22.4356 H   0  0  0  0  0  0
  -31.9049  -21.0050   16.8606 H   0  0  0  0  0  0
  -30.1669  -21.0924   17.1304 H   0  0  0  0  0  0
  -31.0442  -19.6073   17.5030 H   0  0  0  0  0  0
  -29.4427  -17.1390   18.8237 H   0  0  0  0  0  0
  -30.3802  -15.7937   18.1964 H   0  0  0  0  0  0
  -31.1641  -17.0217   19.1862 H   0  0  0  0  0  0
  -27.9061  -23.0658   19.4833 H   0  0  0  0  0  0
  -29.5172  -23.2409   18.9100 H   0  0  0  0  0  0
  -32.3031  -20.7816   19.3121 H   0  0  0  0  0  0
  -31.4894  -22.2732   18.9792 H   0  0  0  0  0  0
  -30.1867  -24.6174   20.7522 H   0  0  0  0  0  0
  -29.1479  -23.7517   21.8240 H   0  0  0  0  0  0
  -28.1503  -16.6285   20.7749 H   0  0  0  0  0  0
  -28.8597  -15.6949   22.0392 H   0  0  0  0  0  0
  -28.0201  -25.6622   21.9257 H   0  0  0  0  0  0
  -27.1386  -24.9060   20.6517 H   0  0  0  0  0  0
  -29.0255  -17.7431   22.8369 H   0  0  0  0  0  0
  1 25  1  0  0  0
  1 30  2  0  0  0
  1 86  1  0  0  0
  2  3  1  0  0  0
  2 25  1  0  0  0
  2 90  1  0  0  0
  2 91  1  0  0  0
  3  4  1  0  0  0
  3 92  1  0  0  0
  3 93  1  0  0  0
  4  5  1  0  0  0
  4 94  1  0  0  0
  4 95  1  0  0  0
  5  6  1  0  0  0
  5 26  1  0  0  0
  5 96  1  0  0  0
  6 25  1  0  0  0
  6 97  1  0  0  0
  6 98  1  0  0  0
  7  8  2  0  0  0
  7 26  1  0  0  0
  7 29  1  0  0  0
  8  9  1  0  0  0
  8 22  1  0  0  0
  9 10  1  0  0  0
  9 27  2  0  0  0
 10 11  2  0  0  0
 10 15  1  0  0  0
 11 12  1  0  0  0
 11 99  1  0  0  0
 12 13  2  0  0  0
 12100  1  0  0  0
 13 14  1  0  0  0
 13 31  1  0  0  0
 14 15  2  0  0  0
 14101  1  0  0  0
 15102  1  0  0  0
 16 17  2  0  0  0
 16 21  1  0  0  0
 16 31  1  0  0  0
 17 18  1  0  0  0
 17103  1  0  0  0
 18 19  2  0  0  0
 18104  1  0  0  0
 19 20  1  0  0  0
 19 24  1  0  0  0
 20 21  2  0  0  0
 20105  1  0  0  0
 21 23  1  0  0  0
 22 28  1  0  0  0
 22 32  2  0  0  0
 26 27  1  0  0  0
 28106  1  0  0  0
 28107  1  0  0  0
 29108  1  0  0  0
 29109  1  0  0  0
 33 34  1  0  0  0
 33 66  1  0  0  0
 33 70  2  0  0  0
 34 36  1  0  0  0
 34 59  1  0  0  0
 34110  1  0  0  0
 35 44  2  0  0  0
 35 45  1  0  0  0
 35 68  1  0  0  0
 36 56  1  0  0  0
 36111  1  0  0  0
 37 39  1  0  0  0
 37 47  1  0  0  0
 37 66  1  0  0  0
 37112  1  0  0  0
 38 43  2  0  0  0
 38 46  1  0  0  0
 38 47  1  0  0  0
 39 64  1  0  0  0
 39 67  2  0  0  0
 40 52  1  0  0  0
 40 53  2  0  0  0
 40 58  1  0  0  0
 41113  1  0  0  0
 41114  1  0  0  0
 41115  1  0  0  0
 41 48  1  0  0  0
 42 43  1  0  0  0
 42 66  1  0  0  0
 42116  1  0  0  0
 42117  1  0  0  0
 43 44  1  0  0  0
 44118  1  0  0  0
 45 46  2  0  0  0
 45119  1  0  0  0
 46120  1  0  0  0
 47121  1  0  0  0
 47122  1  0  0  0
 48 56  1  0  0  0
 48 65  1  0  0  0
 48123  1  0  0  0
 49 50  1  0  0  0
 49 53  1  0  0  0
 49 64  1  0  0  0
 49124  1  0  0  0
 50 51  1  0  0  0
 50125  1  0  0  0
 50126  1  0  0  0
 51 52  1  0  0  0
 51127  1  0  0  0
 51128  1  0  0  0
 52129  1  0  0  0
 52130  1  0  0  0
 53 54  1  0  0  0
 54 55  2  0  0  0
 54131  1  0  0  0
 55 57  1  0  0  0
 55132  1  0  0  0
 56 69  2  0  0  0
 57 58  2  0  0  0
 57133  1  0  0  0
 58134  1  0  0  0
 59 60  1  0  0  0
 59 61  1  0  0  0
 59 62  1  0  0  0
 60135  1  0  0  0
 60136  1  0  0  0
 60137  1  0  0  0
 61138  1  0  0  0
 61139  1  0  0  0
 61140  1  0  0  0
 62141  1  0  0  0
 62142  1  0  0  0
 62143  1  0  0  0
 63 65  1  0  0  0
 63144  1  0  0  0
 63145  1  0  0  0
 63146  1  0  0  0
 64147  1  0  0  0
 65148  1  0  0  0
 68 81  1  0  0  0
 71 72  2  0  0  0
 71 84  1  0  0  0
 71149  1  0  0  0
 72 82  1  0  0  0
 72 85  1  0  0  0
 73 74  1  0  0  0
 73 77  1  0  0  0
 73 84  2  0  0  0
 74 78  1  0  0  0
 74 85  2  0  0  0
 75 78  1  0  0  0
 75150  1  0  0  0
 75151  1  0  0  0
 75152  1  0  0  0
 76 86  1  0  0  0
 76153  1  0  0  0
 76154  1  0  0  0
 76155  1  0  0  0
 77 79  1  0  0  0
 77156  1  0  0  0
 77157  1  0  0  0
 78158  1  0  0  0
 78159  1  0  0  0
 79 81  1  0  0  0
 79160  1  0  0  0
 79161  1  0  0  0
 80 86  1  0  0  0
 80162  1  0  0  0
 80163  1  0  0  0
 80 82  1  0  0  0
 81164  1  0  0  0
 81165  1  0  0  0
 82 83  1  0  0  0
 82166  1  0  0  0
 83 87  1  0  0  0
 83 88  1  0  0  0
 83 89  1  0  0  0
M  ISO  4   1 100  68 101  81 101  86 100
M  END
> <chiral flag>
0

> <version>
0

> <s_m_source_file>
/data/baiqing/PycharmProjects/Reinvent-master-3.2/result/LINK_invent/BTK/process_docking_weight1_custom_sum_contain_oxygen_bond_distance_aromatic_linkinvent_7_9_3/rearranged_h_0068.sdf

> <i_m_source_file_index>
47

> <r_mmod_Potential_Energy-OPLS-2005>
277.894775390625

> <r_mmod_Stretch_Energy-OPLS-2005>
53.3782043457031

> <r_mmod_Bend_Energy-OPLS-2005>
137.887786865234

> <r_mmod_Torsional_Energy-OPLS-2005>
318.149658203125

> <r_mmod_Improper_Torsional_Energy-OPLS-2005>
23.767749786377

> <r_mmod_Van_der_Waal_Energy-OPLS-2005>
144.397872924805

> <r_mmod_Electrostatic_Energy-OPLS-2005>
-226.927261352539

> <r_mmod_Solvation_Energy-OPLS-2005>
-201.285110473633

> <b_mmod_Minimization_Converged-OPLS-2005>
0

> <r_mmod_RMS_Derivative-OPLS-2005>
2.56509637832642

$$$$
50
                    3D
 Structure written by MMmdl.
178186  0  0  1  0            999 V2000
  -30.0915  -14.6983   20.1154 C   0  0  0  0  0  0
  -30.4938  -12.2813   19.6451 C   0  0  0  0  0  0
  -29.5582  -12.0659   18.4523 C   0  0  0  0  0  0
  -28.1026  -12.0086   18.9432 C   0  0  0  0  0  0
  -27.6717  -12.8866   20.1134 C   0  0  2  0  0  0
  -28.7763  -12.9620   21.2130 C   0  0  0  0  0  0
  -25.3418  -13.7843   20.9805 C   0  0  0  0  0  0
  -24.1876  -13.0430   21.0241 C   0  0  0  0  0  0
  -24.5833  -11.6740   20.9137 C   0  0  0  0  0  0
  -23.8577  -10.4173   21.0486 C   0  0  0  0  0  0
  -24.3964   -9.3749   21.8311 C   0  0  0  0  0  0
  -23.6608   -8.1821   21.9999 C   0  0  0  0  0  0
  -22.4040   -8.0562   21.3400 C   0  0  0  0  0  0
  -21.9339   -9.0686   20.4986 C   0  0  0  0  0  0
  -22.6769  -10.2353   20.3172 C   0  0  0  0  0  0
  -21.6862   -6.0952   22.5193 C   0  0  0  0  0  0
  -21.3965   -6.5805   23.8331 C   0  0  0  0  0  0
  -21.3606   -5.6740   24.9172 C   0  0  0  0  0  0
  -21.6058   -4.3142   24.6979 C   0  0  0  0  0  0
  -21.8789   -3.8335   23.4266 C   0  0  0  0  0  0
  -21.9290   -4.7138   22.3347 C   0  0  0  0  0  0
  -22.7622  -13.5834   21.1510 C   0  0  0  0  0  0
  -22.1676   -4.2454   21.0862 F   0  0  0  0  0  0
  -21.5747   -3.4503   25.7623 F   0  0  0  0  0  0
  -29.9276  -13.3810   20.4407 N   0  0  0  0  0  0
  -26.2975  -12.8144   20.5804 N   0  0  0  0  0  0
  -25.8748  -11.5598   20.6612 N   0  0  0  0  0  0
  -21.9835  -12.9283   22.0156 N   0  0  0  0  0  0
  -25.5434  -15.1508   21.2544 N   0  0  0  0  0  0
  -31.2442  -15.1088   19.9355 O   0  0  0  0  0  0
  -21.6479   -6.9066   21.4395 O   0  0  0  0  0  0
  -22.3539  -14.5629   20.5689 O   0  0  0  0  0  0
  -24.6306  -31.8618   23.2133 C   0  0  0  0  0  0
  -25.9176  -32.4744   23.8377 C   0  0  1  0  0  0
  -27.1136  -27.2832   20.0658 C   0  0  0  0  0  0
  -25.6020  -33.8554   24.2286 N   0  0  0  0  0  0
  -23.4190  -30.5058   21.5534 C   0  0  2  0  0  0
  -24.8325  -28.9799   20.0918 C   0  0  0  0  0  0
  -22.7489  -29.4677   22.4915 C   0  0  0  0  0  0
  -18.0297  -28.1395   22.8470 C   0  0  0  0  0  0
  -24.1482  -36.7250   23.2638 C   0  0  0  0  0  0
  -25.9742  -30.7602   21.4124 C   0  0  0  0  0  0
  -26.0140  -29.4062   20.7199 C   0  0  0  0  0  0
  -27.1676  -28.5612   20.7138 C   0  0  0  0  0  0
  -25.9393  -26.9528   19.3680 C   0  0  0  0  0  0
  -24.8015  -27.7622   19.4033 C   0  0  0  0  0  0
  -23.6227  -29.8868   20.1546 C   0  0  0  0  0  0
  -25.4123  -36.3076   24.0322 C   0  0  1  0  0  0
  -20.5882  -28.3706   23.1249 C   0  0  2  0  0  0
  -20.6787  -26.9434   22.5390 C   0  0  0  0  0  0
  -19.5761  -26.6381   21.5207 C   0  0  0  0  0  0
  -18.1945  -26.7933   22.1619 C   0  0  0  0  0  0
  -19.1541  -28.8875   23.2851 C   0  0  0  0  0  0
  -18.9473  -30.1479   23.8873 C   0  0  0  0  0  0
  -17.6473  -30.6595   24.0565 C   0  0  0  0  0  0
  -25.9089  -34.9443   23.5096 C   0  0  0  0  0  0
  -16.5366  -29.9090   23.6343 C   0  0  0  0  0  0
  -16.7287  -28.6508   23.0360 C   0  0  0  0  0  0
  -26.4519  -31.6611   25.0820 C   0  0  0  0  0  0
  -25.3688  -31.3827   26.1511 C   0  0  0  0  0  0
  -27.0387  -30.2982   24.6489 C   0  0  0  0  0  0
  -27.6081  -32.4379   25.7576 C   0  0  0  0  0  0
  -27.5584  -37.1789   24.8468 C   0  0  0  0  0  0
  -21.4198  -29.3052   22.3620 N   0  0  0  0  0  0
  -26.4294  -37.3785   23.9418 N   0  0  0  0  0  0
  -24.6932  -31.0608   22.1133 N   0  0  0  0  0  0
  -23.4214  -28.8157   23.2977 O   0  0  0  0  0  0
  -28.0888  -26.2919   20.1448 O   0  0  0  0  0  0
  -26.5648  -34.8911   22.4666 O   0  0  0  0  0  0
  -23.5469  -32.1475   23.7455 O   0  0  0  0  0  0
  -25.9320  -19.5080   17.5580 C   0  0  0  0  0  0
  -27.2567  -19.9606   17.7795 C   0  0  0  0  0  0
  -28.2083  -18.9787   17.4292 C   0  0  0  0  0  0
  -26.6924  -17.3074   17.0548 C   0  0  0  0  0  0
  -29.5755  -19.0063   18.0577 C   0  0  0  0  0  0
  -25.2000  -16.1886   18.6567 C   0  0  0  0  0  0
  -26.4931  -13.1944   16.4813 C   0  0  0  0  0  0
  -25.6376  -15.1219   15.5184 C   0  0  0  0  0  0
  -24.4839  -13.8840   17.4428 C   0  0  0  0  0  0
  -28.5507  -16.2798   21.2377 C   0  0  0  0  0  0
  -27.6546  -21.4616   18.0859 C   0  0  0  0  0  0
  -27.1532  -22.3384   19.3052 C   0  0  0  0  0  0
  -27.8595  -23.7922   19.3109 C   0  0  0  0  0  0
  -27.8932  -15.9934   18.8660 C   0  0  0  0  0  0
  -27.5809  -24.9126   20.3923 C   0  0  0  0  0  0
  -26.5039  -15.8469   17.8296 C   0  0  2  0  0  0
  -25.8450  -14.5416   16.9179 C   0  0  0  0  0  0
  -25.6903  -18.2229   17.1822 N   0  0  0  0  0  0
  -27.9290  -17.7772   16.8764 N   0  0  0  0  0  0
  -28.8664  -15.4766   20.0163 N   0  0  0  0  0  0
  -31.5268  -12.5149   19.3437 H   0  0  0  0  0  0
  -30.5716  -11.3321   20.2251 H   0  0  0  0  0  0
  -29.8450  -11.1062   18.0327 H   0  0  0  0  0  0
  -29.7286  -12.8553   17.7169 H   0  0  0  0  0  0
  -27.7056  -10.9897   19.0091 H   0  0  0  0  0  0
  -27.7195  -12.5302   18.1680 H   0  0  0  0  0  0
  -27.5027  -13.7685   19.5643 H   0  0  0  0  0  0
  -28.9572  -12.0503   21.7489 H   0  0  0  0  0  0
  -28.6062  -13.6892   22.0096 H   0  0  0  0  0  0
  -25.3767   -9.4756   22.2555 H   0  0  0  0  0  0
  -24.0766   -7.3899   22.5703 H   0  0  0  0  0  0
  -20.9890   -8.9326   19.9933 H   0  0  0  0  0  0
  -22.3317  -11.0051   19.6333 H   0  0  0  0  0  0
  -21.1729   -7.6218   23.9799 H   0  0  0  0  0  0
  -21.1386   -6.0516   25.9094 H   0  0  0  0  0  0
  -22.0600   -2.7818   23.2505 H   0  0  0  0  0  0
  -22.3412  -12.0455   22.3615 H   0  0  0  0  0  0
  -21.0283  -13.1774   22.2244 H   0  0  0  0  0  0
  -26.4331  -15.6350   21.1400 H   0  0  0  0  0  0
  -24.9145  -15.6059   21.8683 H   0  0  0  0  0  0
  -26.7251  -32.5303   23.1088 H   0  0  0  0  0  0
  -25.0145  -33.9689   25.0422 H   0  0  0  0  0  0
  -22.7144  -31.3303   21.4395 H   0  0  0  0  0  0
  -23.3791  -35.9536   23.3290 H   0  0  0  0  0  0
  -24.3564  -36.8893   22.2057 H   0  0  0  0  0  0
  -23.7178  -37.6417   23.6673 H   0  0  0  0  0  0
  -26.1718  -31.5404   20.6737 H   0  0  0  0  0  0
  -26.8266  -30.7422   22.0781 H   0  0  0  0  0  0
  -28.0570  -28.8517   21.2515 H   0  0  0  0  0  0
  -25.8594  -26.0375   18.8025 H   0  0  0  0  0  0
  -23.9031  -27.4544   18.8839 H   0  0  0  0  0  0
  -23.7780  -30.6848   19.4350 H   0  0  0  0  0  0
  -22.7316  -29.3571   19.8254 H   0  0  0  0  0  0
  -25.1302  -36.1920   25.0812 H   0  0  0  0  0  0
  -20.9991  -28.3315   24.1365 H   0  0  0  0  0  0
  -20.5702  -26.2347   23.3606 H   0  0  0  0  0  0
  -21.6658  -26.7467   22.1183 H   0  0  0  0  0  0
  -19.6925  -25.6282   21.1267 H   0  0  0  0  0  0
  -19.6691  -27.3158   20.6710 H   0  0  0  0  0  0
  -17.4210  -26.6674   21.4034 H   0  0  0  0  0  0
  -18.0357  -26.0088   22.9025 H   0  0  0  0  0  0
  -19.7958  -30.7299   24.2226 H   0  0  0  0  0  0
  -17.5038  -31.6270   24.5174 H   0  0  0  0  0  0
  -15.5370  -30.2985   23.7691 H   0  0  0  0  0  0
  -15.8687  -28.0823   22.7090 H   0  0  0  0  0  0
  -24.5889  -30.7150   25.7834 H   0  0  0  0  0  0
  -24.8837  -32.3014   26.4821 H   0  0  0  0  0  0
  -25.7930  -30.9081   27.0363 H   0  0  0  0  0  0
  -26.3022  -29.6690   24.1482 H   0  0  0  0  0  0
  -27.3906  -29.7329   25.5130 H   0  0  0  0  0  0
  -27.8985  -30.4168   23.9890 H   0  0  0  0  0  0
  -27.2705  -33.3709   26.2098 H   0  0  0  0  0  0
  -28.3897  -32.6895   25.0396 H   0  0  0  0  0  0
  -28.0748  -31.8551   26.5529 H   0  0  0  0  0  0
  -28.2607  -38.0086   24.7561 H   0  0  0  0  0  0
  -28.1078  -36.2629   24.6249 H   0  0  0  0  0  0
  -27.2302  -37.1382   25.8869 H   0  0  0  0  0  0
  -20.9388  -29.8800   21.6825 H   0  0  0  0  0  0
  -26.0171  -38.2852   24.1450 H   0  0  0  0  0  0
  -25.0677  -20.0648   17.8266 H   0  0  0  0  0  0
  -30.3692  -19.1868   17.3233 H   0  0  0  0  0  0
  -29.5933  -19.7487   18.8659 H   0  0  0  0  0  0
  -29.7617  -18.0560   18.5947 H   0  0  0  0  0  0
  -25.3244  -16.9507   19.4265 H   0  0  0  0  0  0
  -24.7204  -15.3791   19.1535 H   0  0  0  0  0  0
  -24.3930  -16.5060   18.0303 H   0  0  0  0  0  0
  -25.9487  -12.7002   15.6653 H   0  0  0  0  0  0
  -26.2542  -12.3328   17.0839 H   0  0  0  0  0  0
  -27.5442  -13.2422   16.1931 H   0  0  0  0  0  0
  -25.3020  -14.4108   14.7655 H   0  0  0  0  0  0
  -26.6233  -15.4328   15.1430 H   0  0  0  0  0  0
  -24.9611  -15.9676   15.5136 H   0  0  0  0  0  0
  -24.0577  -13.1028   16.8052 H   0  0  0  0  0  0
  -23.6323  -14.5531   17.5556 H   0  0  0  0  0  0
  -24.5968  -13.3438   18.3839 H   0  0  0  0  0  0
  -29.4424  -16.5520   21.8098 H   0  0  0  0  0  0
  -27.8498  -15.7569   21.8841 H   0  0  0  0  0  0
  -27.9872  -17.1995   21.0917 H   0  0  0  0  0  0
  -27.4913  -22.0388   17.1719 H   0  0  0  0  0  0
  -28.7402  -21.5317   18.1875 H   0  0  0  0  0  0
  -27.3893  -21.8217   20.2404 H   0  0  0  0  0  0
  -26.0770  -22.4701   19.3247 H   0  0  0  0  0  0
  -27.6624  -24.2334   18.3337 H   0  0  0  0  0  0
  -28.9320  -23.6120   19.3254 H   0  0  0  0  0  0
  -27.1392  -15.7753   19.6082 H   0  0  0  0  0  0
  -27.9180  -17.0797   19.0299 H   0  0  0  0  0  0
  -27.9933  -24.5804   21.3391 H   0  0  0  0  0  0
  -26.5030  -24.8985   20.5839 H   0  0  0  0  0  0
  1 25  1  0  0  0
  1 30  2  0  0  0
  1 90  1  0  0  0
  2  3  1  0  0  0
  2 25  1  0  0  0
  2 91  1  0  0  0
  2 92  1  0  0  0
  3  4  1  0  0  0
  3 93  1  0  0  0
  3 94  1  0  0  0
  4  5  1  0  0  0
  4 95  1  0  0  0
  4 96  1  0  0  0
  5  6  1  0  0  0
  5 26  1  0  0  0
  5 97  1  0  0  0
  6 25  1  0  0  0
  6 98  1  0  0  0
  6 99  1  0  0  0
  7  8  2  0  0  0
  7 26  1  0  0  0
  7 29  1  0  0  0
  8  9  1  0  0  0
  8 22  1  0  0  0
  9 10  1  0  0  0
  9 27  2  0  0  0
 10 11  2  0  0  0
 10 15  1  0  0  0
 11 12  1  0  0  0
 11100  1  0  0  0
 12 13  2  0  0  0
 12101  1  0  0  0
 13 14  1  0  0  0
 13 31  1  0  0  0
 14 15  2  0  0  0
 14102  1  0  0  0
 15103  1  0  0  0
 16 17  2  0  0  0
 16 21  1  0  0  0
 16 31  1  0  0  0
 17 18  1  0  0  0
 17104  1  0  0  0
 18 19  2  0  0  0
 18105  1  0  0  0
 19 20  1  0  0  0
 19 24  1  0  0  0
 20 21  2  0  0  0
 20106  1  0  0  0
 21 23  1  0  0  0
 22 28  1  0  0  0
 22 32  2  0  0  0
 26 27  1  0  0  0
 28107  1  0  0  0
 28108  1  0  0  0
 29109  1  0  0  0
 29110  1  0  0  0
 33 34  1  0  0  0
 33 66  1  0  0  0
 33 70  2  0  0  0
 34 36  1  0  0  0
 34 59  1  0  0  0
 34111  1  0  0  0
 35 44  2  0  0  0
 35 45  1  0  0  0
 35 68  1  0  0  0
 36 56  1  0  0  0
 36112  1  0  0  0
 37 39  1  0  0  0
 37 47  1  0  0  0
 37 66  1  0  0  0
 37113  1  0  0  0
 38 43  2  0  0  0
 38 46  1  0  0  0
 38 47  1  0  0  0
 39 64  1  0  0  0
 39 67  2  0  0  0
 40 52  1  0  0  0
 40 53  2  0  0  0
 40 58  1  0  0  0
 41114  1  0  0  0
 41115  1  0  0  0
 41116  1  0  0  0
 41 48  1  0  0  0
 42 43  1  0  0  0
 42 66  1  0  0  0
 42117  1  0  0  0
 42118  1  0  0  0
 43 44  1  0  0  0
 44119  1  0  0  0
 45 46  2  0  0  0
 45120  1  0  0  0
 46121  1  0  0  0
 47122  1  0  0  0
 47123  1  0  0  0
 48 56  1  0  0  0
 48 65  1  0  0  0
 48124  1  0  0  0
 49 50  1  0  0  0
 49 53  1  0  0  0
 49 64  1  0  0  0
 49125  1  0  0  0
 50 51  1  0  0  0
 50126  1  0  0  0
 50127  1  0  0  0
 51 52  1  0  0  0
 51128  1  0  0  0
 51129  1  0  0  0
 52130  1  0  0  0
 52131  1  0  0  0
 53 54  1  0  0  0
 54 55  2  0  0  0
 54132  1  0  0  0
 55 57  1  0  0  0
 55133  1  0  0  0
 56 69  2  0  0  0
 57 58  2  0  0  0
 57134  1  0  0  0
 58135  1  0  0  0
 59 60  1  0  0  0
 59 61  1  0  0  0
 59 62  1  0  0  0
 60136  1  0  0  0
 60137  1  0  0  0
 60138  1  0  0  0
 61139  1  0  0  0
 61140  1  0  0  0
 61141  1  0  0  0
 62142  1  0  0  0
 62143  1  0  0  0
 62144  1  0  0  0
 63 65  1  0  0  0
 63145  1  0  0  0
 63146  1  0  0  0
 63147  1  0  0  0
 64148  1  0  0  0
 65149  1  0  0  0
 68 85  1  0  0  0
 71 72  2  0  0  0
 71 88  1  0  0  0
 71150  1  0  0  0
 72 73  1  0  0  0
 72 81  1  0  0  0
 73 75  1  0  0  0
 73 89  2  0  0  0
 74 86  1  0  0  0
 74 88  2  0  0  0
 74 89  1  0  0  0
 75151  1  0  0  0
 75152  1  0  0  0
 75153  1  0  0  0
 76154  1  0  0  0
 76155  1  0  0  0
 76156  1  0  0  0
 76 86  1  0  0  0
 77157  1  0  0  0
 77158  1  0  0  0
 77159  1  0  0  0
 77 87  1  0  0  0
 78 87  1  0  0  0
 78160  1  0  0  0
 78161  1  0  0  0
 78162  1  0  0  0
 79 87  1  0  0  0
 79163  1  0  0  0
 79164  1  0  0  0
 79165  1  0  0  0
 80 90  1  0  0  0
 80166  1  0  0  0
 80167  1  0  0  0
 80168  1  0  0  0
 81 82  1  0  0  0
 81169  1  0  0  0
 81170  1  0  0  0
 82 83  1  0  0  0
 82171  1  0  0  0
 82172  1  0  0  0
 83 85  1  0  0  0
 83173  1  0  0  0
 83174  1  0  0  0
 84 86  1  0  0  0
 84 90  1  0  0  0
 84175  1  0  0  0
 84176  1  0  0  0
 85177  1  0  0  0
 85178  1  0  0  0
 86 87  1  0  0  0
M  ISO  4   1 100  68 101  85 101  90 100
M  END
> <chiral flag>
0

> <version>
0

> <s_m_source_file>
/data/baiqing/PycharmProjects/Reinvent-master-3.2/result/LINK_invent/BTK/process_docking_weight1_custom_sum_contain_oxygen_bond_distance_aromatic_linkinvent_7_9_3/rearranged_h_0068.sdf

> <i_m_source_file_index>
48

> <r_mmod_Potential_Energy-OPLS-2005>
1500.17785644531

> <r_mmod_Stretch_Energy-OPLS-2005>
293.625183105469

> <r_mmod_Bend_Energy-OPLS-2005>
732.435607910156

> <r_mmod_Torsional_Energy-OPLS-2005>
491.338256835938

> <r_mmod_Improper_Torsional_Energy-OPLS-2005>
19.0663414001465

> <r_mmod_Van_der_Waal_Energy-OPLS-2005>
414.257354736328

> <r_mmod_Electrostatic_Energy-OPLS-2005>
-634.774536132812

> <r_mmod_Solvation_Energy-OPLS-2005>
-210.201736450195

> <b_mmod_Minimization_Converged-OPLS-2005>
0

> <r_mmod_RMS_Derivative-OPLS-2005>
55.2643280029297

$$$$
51
                    3D
 Structure written by MMmdl.
171180  0  0  1  0            999 V2000
  -30.3018  -15.7540   20.3442 C   0  0  0  0  0  0
  -30.4341  -13.1596   19.5823 C   0  0  0  0  0  0
  -29.5692  -12.7007   18.3657 C   0  0  0  0  0  0
  -28.1482  -12.3240   18.8020 C   0  0  0  0  0  0
  -27.6076  -13.3317   19.8386 C   0  0  2  0  0  0
  -28.6188  -13.6959   20.9613 C   0  0  0  0  0  0
  -25.2336  -13.8342   20.5876 C   0  0  0  0  0  0
  -24.1724  -13.0459   20.9314 C   0  0  0  0  0  0
  -24.6448  -11.6981   20.8778 C   0  0  0  0  0  0
  -23.9144  -10.4312   21.0410 C   0  0  0  0  0  0
  -24.3658   -9.4219   21.9198 C   0  0  0  0  0  0
  -23.6317   -8.2258   22.0770 C   0  0  0  0  0  0
  -22.4311   -8.0285   21.3549 C   0  0  0  0  0  0
  -21.9960   -9.0271   20.4652 C   0  0  0  0  0  0
  -22.7309  -10.2148   20.3068 C   0  0  0  0  0  0
  -21.6859   -6.0751   22.5277 C   0  0  0  0  0  0
  -21.4012   -6.5646   23.8207 C   0  0  0  0  0  0
  -21.3665   -5.6806   24.9171 C   0  0  0  0  0  0
  -21.6067   -4.3070   24.7234 C   0  0  0  0  0  0
  -21.8798   -3.8149   23.4350 C   0  0  0  0  0  0
  -21.9183   -4.6971   22.3403 C   0  0  0  0  0  0
  -22.7714  -13.5167   21.1892 C   0  0  0  0  0  0
  -22.1653   -4.2152   21.0981 F   0  0  0  0  0  0
  -21.5636   -3.4553   25.7743 F   0  0  0  0  0  0
  -29.7974  -14.3563   20.3319 N   0  0  0  0  0  0
  -26.2845  -12.9729   20.3388 N   0  0  0  0  0  0
  -25.9422  -11.6770   20.5771 N   0  0  0  0  0  0
  -22.0364  -12.8165   22.0452 N   0  0  0  0  0  0
  -25.3909  -15.2093   20.4335 N   0  0  0  0  0  0
  -31.5076  -15.6825   20.0318 O   0  0  0  0  0  0
  -21.6660   -6.8900   21.4245 O   0  0  0  0  0  0
  -22.3408  -14.5472   20.6719 O   0  0  0  0  0  0
  -24.6959  -31.7906   23.1610 C   0  0  0  0  0  0
  -25.9518  -32.4408   23.8119 C   0  0  1  0  0  0
  -27.1772  -26.5264   20.1839 C   0  0  0  0  0  0
  -25.6076  -33.8245   24.1958 N   0  0  0  0  0  0
  -23.5326  -30.3981   21.5157 C   0  0  2  0  0  0
  -25.0109  -28.7636   20.1036 C   0  0  0  0  0  0
  -22.7845  -29.4259   22.4681 C   0  0  0  0  0  0
  -18.0375  -28.1429   22.8434 C   0  0  0  0  0  0
  -24.1511  -36.7111   23.2640 C   0  0  0  0  0  0
  -26.1228  -30.4330   21.5036 C   0  0  0  0  0  0
  -26.1714  -28.9892   20.8502 C   0  0  0  0  0  0
  -27.2049  -27.8770   20.9279 C   0  0  0  0  0  0
  -26.1869  -26.7981   19.1705 C   0  0  0  0  0  0
  -25.0721  -27.6824   19.2341 C   0  0  0  0  0  0
  -23.8041  -29.7199   20.1448 C   0  0  0  0  0  0
  -25.4169  -36.2852   24.0260 C   0  0  1  0  0  0
  -20.6029  -28.3828   23.1103 C   0  0  2  0  0  0
  -20.6869  -26.9474   22.5396 C   0  0  0  0  0  0
  -19.5839  -26.6368   21.5225 C   0  0  0  0  0  0
  -18.2020  -26.7953   22.1620 C   0  0  0  0  0  0
  -19.1636  -28.8947   23.2753 C   0  0  0  0  0  0
  -18.9535  -30.1530   23.8798 C   0  0  0  0  0  0
  -17.6523  -30.6607   24.0556 C   0  0  0  0  0  0
  -25.9155  -34.9253   23.4946 C   0  0  0  0  0  0
  -16.5419  -29.9085   23.6347 C   0  0  0  0  0  0
  -16.7359  -28.6513   23.0350 C   0  0  0  0  0  0
  -26.4644  -31.6496   25.0802 C   0  0  0  0  0  0
  -25.3617  -31.3898   26.1347 C   0  0  0  0  0  0
  -27.0634  -30.2778   24.6950 C   0  0  0  0  0  0
  -27.6082  -32.4390   25.7578 C   0  0  0  0  0  0
  -27.5565  -37.1717   24.8464 C   0  0  0  0  0  0
  -21.4480  -29.3055   22.3401 N   0  0  0  0  0  0
  -26.4287  -37.3629   23.9370 N   0  0  0  0  0  0
  -24.8066  -30.9130   22.1059 N   0  0  0  0  0  0
  -23.4205  -28.7825   23.3067 O   0  0  0  0  0  0
  -27.7295  -24.9357   20.3506 O   0  0  0  0  0  0
  -26.5800  -34.8836   22.4556 O   0  0  0  0  0  0
  -23.5943  -32.1146   23.6396 O   0  0  0  0  0  0
  -26.2361  -23.9873   19.1206 C   0  0  0  0  0  0
  -23.0356  -23.6678   19.7910 C   0  0  0  0  0  0
  -27.7473  -23.1195   19.0649 C   0  0  0  0  0  0
  -23.7532  -22.4573   19.7378 C   0  0  0  0  0  0
  -26.6644  -24.1680   22.0540 C   0  0  0  0  0  0
  -23.3191  -23.6575   22.1204 C   0  0  0  0  0  0
  -25.6360  -24.5491   20.6910 C   0  0  0  0  0  0
  -23.2850  -24.4348   20.9487 C   0  0  0  0  0  0
  -28.5764  -22.5733   20.4464 C   0  0  0  0  0  0
  -24.6035  -22.2299   20.8611 C   0  0  0  0  0  0
  -29.9697  -20.7811   22.0579 C   0  0  0  0  0  0
  -30.7728  -21.1541   19.8123 C   0  0  0  0  0  0
  -26.2415  -21.0973   19.6028 C   0  0  0  0  0  0
  -26.4571  -21.2714   21.9410 C   0  0  0  0  0  0
  -29.2470  -18.9144   20.1280 C   0  0  0  0  0  0
  -29.4753  -20.8553   20.5912 C   0  0  0  0  0  0
  -26.2393  -22.3240   20.7052 C   0  0  0  0  0  0
  -28.0735  -23.2966   21.8270 N   0  0  0  0  0  0
  -24.1079  -22.5640   22.0937 N   0  0  0  0  0  0
  -29.5646  -17.1482   20.5459 N   0  0  0  0  0  0
  -24.4126  -25.2220   20.8348 O   0  0  0  0  0  0
  -31.4255  -13.4212   19.2095 H   0  0  0  0  0  0
  -30.6118  -12.3232   20.2617 H   0  0  0  0  0  0
  -30.0399  -11.8580   17.8565 H   0  0  0  0  0  0
  -29.5206  -13.5156   17.6419 H   0  0  0  0  0  0
  -28.1886  -11.3302   19.2493 H   0  0  0  0  0  0
  -27.4813  -12.2501   17.9421 H   0  0  0  0  0  0
  -27.4654  -14.2470   19.2634 H   0  0  0  0  0  0
  -28.8952  -12.8209   21.5519 H   0  0  0  0  0  0
  -28.1653  -14.3976   21.6622 H   0  0  0  0  0  0
  -25.2787   -9.5698   22.4821 H   0  0  0  0  0  0
  -23.9999   -7.4670   22.7518 H   0  0  0  0  0  0
  -21.0882   -8.8808   19.8966 H   0  0  0  0  0  0
  -22.3758  -10.9695   19.6193 H   0  0  0  0  0  0
  -21.2000   -7.6156   23.9711 H   0  0  0  0  0  0
  -21.1523   -6.0546   25.9086 H   0  0  0  0  0  0
  -22.0570   -2.7614   23.2849 H   0  0  0  0  0  0
  -22.3969  -11.9844   22.4880 H   0  0  0  0  0  0
  -21.0972  -13.1179   22.2617 H   0  0  0  0  0  0
  -24.6212  -15.8559   20.5635 H   0  0  0  0  0  0
  -26.2313  -15.6569   20.0905 H   0  0  0  0  0  0
  -26.7607  -32.4814   23.0821 H   0  0  0  0  0  0
  -25.0120  -33.9295   25.0038 H   0  0  0  0  0  0
  -22.8676  -31.2441   21.3292 H   0  0  0  0  0  0
  -23.3795  -35.9421   23.3259 H   0  0  0  0  0  0
  -24.3575  -36.8816   22.2063 H   0  0  0  0  0  0
  -23.7266  -37.6264   23.6765 H   0  0  0  0  0  0
  -26.3729  -31.1439   20.7157 H   0  0  0  0  0  0
  -26.9596  -30.4956   22.1809 H   0  0  0  0  0  0
  -27.9783  -28.0002   21.6729 H   0  0  0  0  0  0
  -26.1103  -26.1628   18.3100 H   0  0  0  0  0  0
  -24.2742  -27.5555   18.5138 H   0  0  0  0  0  0
  -23.9822  -30.4966   19.3990 H   0  0  0  0  0  0
  -22.9110  -29.1931   19.8050 H   0  0  0  0  0  0
  -25.1387  -36.1612   25.0755 H   0  0  0  0  0  0
  -21.0112  -28.3474   24.1228 H   0  0  0  0  0  0
  -20.5775  -26.2449   23.3666 H   0  0  0  0  0  0
  -21.6734  -26.7434   22.1199 H   0  0  0  0  0  0
  -19.7027  -25.6256   21.1303 H   0  0  0  0  0  0
  -19.6787  -27.3136   20.6717 H   0  0  0  0  0  0
  -17.4300  -26.6685   21.4018 H   0  0  0  0  0  0
  -18.0412  -26.0127   22.9040 H   0  0  0  0  0  0
  -19.8009  -30.7386   24.2123 H   0  0  0  0  0  0
  -17.5068  -31.6275   24.5180 H   0  0  0  0  0  0
  -15.5415  -30.2959   23.7719 H   0  0  0  0  0  0
  -15.8767  -28.0813   22.7096 H   0  0  0  0  0  0
  -24.5891  -30.7164   25.7624 H   0  0  0  0  0  0
  -24.8715  -32.3150   26.4390 H   0  0  0  0  0  0
  -25.7709  -30.9308   27.0356 H   0  0  0  0  0  0
  -26.3455  -29.6274   24.1961 H   0  0  0  0  0  0
  -27.3930  -29.7362   25.5826 H   0  0  0  0  0  0
  -27.9499  -30.3806   24.0684 H   0  0  0  0  0  0
  -27.2655  -33.3822   26.1840 H   0  0  0  0  0  0
  -28.4034  -32.6713   25.0477 H   0  0  0  0  0  0
  -28.0606  -31.8713   26.5722 H   0  0  0  0  0  0
  -28.2561  -38.0034   24.7507 H   0  0  0  0  0  0
  -28.1093  -36.2552   24.6331 H   0  0  0  0  0  0
  -27.2264  -37.1394   25.8866 H   0  0  0  0  0  0
  -20.9826  -29.8697   21.6437 H   0  0  0  0  0  0
  -26.0101  -38.2669   24.1361 H   0  0  0  0  0  0
  -25.6522  -24.1262   18.2203 H   0  0  0  0  0  0
  -22.7805  -24.1385   18.8525 H   0  0  0  0  0  0
  -28.0214  -22.6869   18.1154 H   0  0  0  0  0  0
  -23.9574  -22.0887   18.7437 H   0  0  0  0  0  0
  -26.4227  -24.4842   23.0556 H   0  0  0  0  0  0
  -23.3271  -24.1341   23.0883 H   0  0  0  0  0  0
  -30.4794  -21.6977   22.3544 H   0  0  0  0  0  0
  -30.6703  -19.9586   22.1975 H   0  0  0  0  0  0
  -29.1754  -20.6311   22.7811 H   0  0  0  0  0  0
  -31.2700  -22.0534   20.1809 H   0  0  0  0  0  0
  -30.5768  -21.3098   18.7536 H   0  0  0  0  0  0
  -31.4897  -20.3390   19.9019 H   0  0  0  0  0  0
  -25.6124  -20.2453   19.8727 H   0  0  0  0  0  0
  -27.2138  -20.6581   19.4183 H   0  0  0  0  0  0
  -25.9063  -21.3857   18.6070 H   0  0  0  0  0  0
  -25.6891  -20.4966   22.0150 H   0  0  0  0  0  0
  -26.4644  -21.7282   22.9328 H   0  0  0  0  0  0
  -27.3387  -20.6652   21.8520 H   0  0  0  0  0  0
  -29.3963  -18.9108   19.0485 H   0  0  0  0  0  0
  -28.1640  -18.8418   20.2208 H   0  0  0  0  0  0
  -28.7078  -16.8565   20.9938 H   0  0  0  0  0  0
  1 25  1  0  0  0
  1 30  2  0  0  0
  1 90  1  0  0  0
  2  3  1  0  0  0
  2 25  1  0  0  0
  2 92  1  0  0  0
  2 93  1  0  0  0
  3  4  1  0  0  0
  3 94  1  0  0  0
  3 95  1  0  0  0
  4  5  1  0  0  0
  4 96  1  0  0  0
  4 97  1  0  0  0
  5  6  1  0  0  0
  5 26  1  0  0  0
  5 98  1  0  0  0
  6 25  1  0  0  0
  6 99  1  0  0  0
  6100  1  0  0  0
  7  8  2  0  0  0
  7 26  1  0  0  0
  7 29  1  0  0  0
  8  9  1  0  0  0
  8 22  1  0  0  0
  9 10  1  0  0  0
  9 27  2  0  0  0
 10 11  2  0  0  0
 10 15  1  0  0  0
 11 12  1  0  0  0
 11101  1  0  0  0
 12 13  2  0  0  0
 12102  1  0  0  0
 13 14  1  0  0  0
 13 31  1  0  0  0
 14 15  2  0  0  0
 14103  1  0  0  0
 15104  1  0  0  0
 16 17  2  0  0  0
 16 21  1  0  0  0
 16 31  1  0  0  0
 17 18  1  0  0  0
 17105  1  0  0  0
 18 19  2  0  0  0
 18106  1  0  0  0
 19 20  1  0  0  0
 19 24  1  0  0  0
 20 21  2  0  0  0
 20107  1  0  0  0
 21 23  1  0  0  0
 22 28  1  0  0  0
 22 32  2  0  0  0
 26 27  1  0  0  0
 28108  1  0  0  0
 28109  1  0  0  0
 29110  1  0  0  0
 29111  1  0  0  0
 33 34  1  0  0  0
 33 66  1  0  0  0
 33 70  2  0  0  0
 34 36  1  0  0  0
 34 59  1  0  0  0
 34112  1  0  0  0
 35 44  2  0  0  0
 35 45  1  0  0  0
 35 68  1  0  0  0
 36 56  1  0  0  0
 36113  1  0  0  0
 37 39  1  0  0  0
 37 47  1  0  0  0
 37 66  1  0  0  0
 37114  1  0  0  0
 38 43  2  0  0  0
 38 46  1  0  0  0
 38 47  1  0  0  0
 39 64  1  0  0  0
 39 67  2  0  0  0
 40 52  1  0  0  0
 40 53  2  0  0  0
 40 58  1  0  0  0
 41115  1  0  0  0
 41116  1  0  0  0
 41117  1  0  0  0
 41 48  1  0  0  0
 42 43  1  0  0  0
 42 66  1  0  0  0
 42118  1  0  0  0
 42119  1  0  0  0
 43 44  1  0  0  0
 44120  1  0  0  0
 45 46  2  0  0  0
 45121  1  0  0  0
 46122  1  0  0  0
 47123  1  0  0  0
 47124  1  0  0  0
 48 56  1  0  0  0
 48 65  1  0  0  0
 48125  1  0  0  0
 49 50  1  0  0  0
 49 53  1  0  0  0
 49 64  1  0  0  0
 49126  1  0  0  0
 50 51  1  0  0  0
 50127  1  0  0  0
 50128  1  0  0  0
 51 52  1  0  0  0
 51129  1  0  0  0
 51130  1  0  0  0
 52131  1  0  0  0
 52132  1  0  0  0
 53 54  1  0  0  0
 54 55  2  0  0  0
 54133  1  0  0  0
 55 57  1  0  0  0
 55134  1  0  0  0
 56 69  2  0  0  0
 57 58  2  0  0  0
 57135  1  0  0  0
 58136  1  0  0  0
 59 60  1  0  0  0
 59 61  1  0  0  0
 59 62  1  0  0  0
 60137  1  0  0  0
 60138  1  0  0  0
 60139  1  0  0  0
 61140  1  0  0  0
 61141  1  0  0  0
 61142  1  0  0  0
 62143  1  0  0  0
 62144  1  0  0  0
 62145  1  0  0  0
 63 65  1  0  0  0
 63146  1  0  0  0
 63147  1  0  0  0
 63148  1  0  0  0
 64149  1  0  0  0
 65150  1  0  0  0
 68 87  1  0  0  0
 71 73  2  0  0  0
 71 77  1  0  0  0
 71151  1  0  0  0
 72 74  2  0  0  0
 72 78  1  0  0  0
 72152  1  0  0  0
 73 79  1  0  0  0
 73153  1  0  0  0
 74 80  1  0  0  0
 74154  1  0  0  0
 75 77  2  0  0  0
 75 88  1  0  0  0
 75155  1  0  0  0
 76 78  2  0  0  0
 76 89  1  0  0  0
 76156  1  0  0  0
 77 91  1  0  0  0
 78 91  1  0  0  0
 79 86  1  0  0  0
 79 88  2  0  0  0
 80 87  1  0  0  0
 80 89  2  0  0  0
 81157  1  0  0  0
 81158  1  0  0  0
 81159  1  0  0  0
 81 86  1  0  0  0
 82 86  1  0  0  0
 82160  1  0  0  0
 82161  1  0  0  0
 82162  1  0  0  0
 83163  1  0  0  0
 83164  1  0  0  0
 83165  1  0  0  0
 83 87  1  0  0  0
 84 87  1  0  0  0
 84166  1  0  0  0
 84167  1  0  0  0
 84168  1  0  0  0
 85 86  1  0  0  0
 85 90  1  0  0  0
 85169  1  0  0  0
 85170  1  0  0  0
 90171  1  0  0  0
M  ISO  4   1 100  68 101  87 101  90 100
M  END
> <chiral flag>
0

> <version>
0

> <s_m_source_file>
/data/baiqing/PycharmProjects/Reinvent-master-3.2/result/LINK_invent/BTK/process_docking_weight1_custom_sum_contain_oxygen_bond_distance_aromatic_linkinvent_7_9_3/rearranged_h_0068.sdf

> <i_m_source_file_index>
49

> <r_mmod_Potential_Energy-OPLS-2005>
10367.87109375

> <r_mmod_Stretch_Energy-OPLS-2005>
6138.111328125

> <r_mmod_Bend_Energy-OPLS-2005>
918.691101074219

> <r_mmod_Torsional_Energy-OPLS-2005>
630.416687011719

> <r_mmod_Improper_Torsional_Energy-OPLS-2005>
48.7472381591797

> <r_mmod_Van_der_Waal_Energy-OPLS-2005>
2149.17651367188

> <r_mmod_Electrostatic_Energy-OPLS-2005>
-572.631958007812

> <r_mmod_Solvation_Energy-OPLS-2005>
-256.457824707031

> <b_mmod_Minimization_Converged-OPLS-2005>
0

> <r_mmod_RMS_Derivative-OPLS-2005>
5.6547703742981

$$$$
52
                    3D
 Structure written by MMmdl.
156164  0  0  1  0            999 V2000
  -30.6063  -14.6566   20.5974 C   0  0  0  0  0  0
  -30.4536  -12.4388   19.4202 C   0  0  0  0  0  0
  -29.5023  -12.5313   18.2054 C   0  0  0  0  0  0
  -28.0273  -12.3521   18.6231 C   0  0  0  0  0  0
  -27.6567  -13.1983   19.8678 C   0  0  2  0  0  0
  -28.7089  -12.9844   20.9771 C   0  0  0  0  0  0
  -25.2604  -13.8111   20.5702 C   0  0  0  0  0  0
  -24.1843  -13.0412   20.9180 C   0  0  0  0  0  0
  -24.6391  -11.6877   20.8735 C   0  0  0  0  0  0
  -23.9053  -10.4279   21.0413 C   0  0  0  0  0  0
  -24.3619   -9.4196   21.9184 C   0  0  0  0  0  0
  -23.6296   -8.2229   22.0747 C   0  0  0  0  0  0
  -22.4270   -8.0281   21.3545 C   0  0  0  0  0  0
  -21.9912   -9.0253   20.4639 C   0  0  0  0  0  0
  -22.7238  -10.2129   20.3053 C   0  0  0  0  0  0
  -21.6850   -6.0748   22.5284 C   0  0  0  0  0  0
  -21.4005   -6.5651   23.8219 C   0  0  0  0  0  0
  -21.3647   -5.6799   24.9179 C   0  0  0  0  0  0
  -21.6044   -4.3065   24.7226 C   0  0  0  0  0  0
  -21.8820   -3.8161   23.4347 C   0  0  0  0  0  0
  -21.9193   -4.6977   22.3407 C   0  0  0  0  0  0
  -22.7868  -13.5225   21.1847 C   0  0  0  0  0  0
  -22.1666   -4.2164   21.0983 F   0  0  0  0  0  0
  -21.5625   -3.4544   25.7738 F   0  0  0  0  0  0
  -30.0051  -13.4229   20.4317 N   0  0  0  0  0  0
  -26.3016  -12.9254   20.3353 N   0  0  0  0  0  0
  -25.9313  -11.6426   20.5758 N   0  0  0  0  0  0
  -22.0505  -12.8229   22.0406 N   0  0  0  0  0  0
  -25.4372  -15.1825   20.4165 N   0  0  0  0  0  0
  -31.7282  -14.8260   20.0958 O   0  0  0  0  0  0
  -21.6625   -6.8892   21.4251 O   0  0  0  0  0  0
  -22.3567  -14.5544   20.6706 O   0  0  0  0  0  0
  -24.6262  -31.8589   23.2007 C   0  0  0  0  0  0
  -25.9115  -32.4767   23.8342 C   0  0  1  0  0  0
  -27.2284  -27.3255   20.1175 C   0  0  0  0  0  0
  -25.5938  -33.8573   24.2262 N   0  0  0  0  0  0
  -23.4203  -30.4832   21.5413 C   0  0  2  0  0  0
  -24.8663  -28.9344   20.1111 C   0  0  0  0  0  0
  -22.7487  -29.4649   22.4920 C   0  0  0  0  0  0
  -18.0308  -28.1410   22.8505 C   0  0  0  0  0  0
  -24.1500  -36.7308   23.2642 C   0  0  0  0  0  0
  -25.9615  -30.7903   21.3728 C   0  0  0  0  0  0
  -26.0346  -29.4167   20.7189 C   0  0  0  0  0  0
  -27.2201  -28.6249   20.7082 C   0  0  0  0  0  0
  -26.0430  -26.8950   19.4830 C   0  0  0  0  0  0
  -24.8737  -27.6789   19.4835 C   0  0  0  0  0  0
  -23.6353  -29.8147   20.1576 C   0  0  0  0  0  0
  -25.4123  -36.3086   24.0322 C   0  0  1  0  0  0
  -20.5911  -28.3718   23.1289 C   0  0  2  0  0  0
  -20.6808  -26.9434   22.5418 C   0  0  0  0  0  0
  -19.5768  -26.6404   21.5245 C   0  0  0  0  0  0
  -18.1949  -26.7957   22.1643 C   0  0  0  0  0  0
  -19.1557  -28.8883   23.2892 C   0  0  0  0  0  0
  -18.9471  -30.1489   23.8902 C   0  0  0  0  0  0
  -17.6462  -30.6596   24.0593 C   0  0  0  0  0  0
  -25.9063  -34.9458   23.5090 C   0  0  0  0  0  0
  -16.5361  -29.9098   23.6338 C   0  0  0  0  0  0
  -16.7288  -28.6524   23.0345 C   0  0  0  0  0  0
  -26.4501  -31.6577   25.0720 C   0  0  0  0  0  0
  -25.3723  -31.3712   26.1438 C   0  0  0  0  0  0
  -27.0333  -30.2999   24.6167 C   0  0  0  0  0  0
  -27.6074  -32.4314   25.7479 C   0  0  0  0  0  0
  -27.5570  -37.1800   24.8449 C   0  0  0  0  0  0
  -21.4192  -29.3064   22.3671 N   0  0  0  0  0  0
  -26.4285  -37.3801   23.9405 N   0  0  0  0  0  0
  -24.6884  -31.0620   22.0946 N   0  0  0  0  0  0
  -23.4212  -28.8209   23.2998 O   0  0  0  0  0  0
  -28.3537  -26.4928   20.1190 O   0  0  0  0  0  0
  -26.5634  -34.8937   22.4659 O   0  0  0  0  0  0
  -23.5428  -32.1387   23.7343 O   0  0  0  0  0  0
  -29.2415  -19.5879   21.3766 C   0  0  0  0  0  0
  -29.7370  -20.0884   20.1553 C   0  0  0  0  0  0
  -30.3521  -19.0757   19.3685 C   0  0  0  0  0  0
  -29.9790  -17.3839   20.9498 C   0  0  0  0  0  0
  -30.9152  -19.4114   18.0028 C   0  0  0  0  0  0
  -29.0337  -23.9405   19.8615 C   0  0  0  0  0  0
  -28.1778  -25.0881   20.5530 C   0  0  0  0  0  0
  -28.9422  -22.4675   20.4688 C   0  0  0  0  0  0
  -29.9052  -15.8529   21.4259 C   0  0  2  0  0  0
  -30.3814  -15.6928   22.9081 C   0  0  0  0  0  0
  -29.3504  -18.2824   21.7330 N   0  0  0  0  0  0
  -30.4637  -17.7677   19.7547 N   0  0  0  0  0  0
  -29.6590  -21.4304   19.7173 O   0  0  0  0  0  0
  -28.5814  -15.6648   21.4065 F   0  0  0  0  0  0
  -29.6553  -16.4119   23.7704 F   0  0  0  0  0  0
  -30.3055  -14.4223   23.3216 F   0  0  0  0  0  0
  -31.6572  -16.0664   23.0387 F   0  0  0  0  0  0
  -31.4810  -12.6119   19.0956 H   0  0  0  0  0  0
  -30.4489  -11.4312   19.8401 H   0  0  0  0  0  0
  -29.7731  -11.7821   17.4602 H   0  0  0  0  0  0
  -29.6239  -13.5001   17.7187 H   0  0  0  0  0  0
  -27.8699  -11.2937   18.8378 H   0  0  0  0  0  0
  -27.3666  -12.5968   17.7905 H   0  0  0  0  0  0
  -27.6888  -14.2406   19.5521 H   0  0  0  0  0  0
  -28.7560  -11.9263   21.2396 H   0  0  0  0  0  0
  -28.4327  -13.4710   21.9105 H   0  0  0  0  0  0
  -25.2768   -9.5671   22.4753 H   0  0  0  0  0  0
  -24.0014   -7.4614   22.7451 H   0  0  0  0  0  0
  -21.0847   -8.8772   19.8938 H   0  0  0  0  0  0
  -22.3704  -10.9674   19.6159 H   0  0  0  0  0  0
  -21.1987   -7.6156   23.9731 H   0  0  0  0  0  0
  -21.1460   -6.0522   25.9080 H   0  0  0  0  0  0
  -22.0608   -2.7622   23.2838 H   0  0  0  0  0  0
  -22.4127  -11.9909   22.4824 H   0  0  0  0  0  0
  -21.1103  -13.1236   22.2567 H   0  0  0  0  0  0
  -24.6869  -15.8492   20.5576 H   0  0  0  0  0  0
  -26.3206  -15.6205   20.1911 H   0  0  0  0  0  0
  -26.7197  -32.5430   23.1103 H   0  0  0  0  0  0
  -25.0075  -33.9721   25.0399 H   0  0  0  0  0  0
  -22.7151  -31.3046   21.3937 H   0  0  0  0  0  0
  -23.3770  -35.9632   23.3300 H   0  0  0  0  0  0
  -24.3597  -36.8929   22.2059 H   0  0  0  0  0  0
  -23.7266  -37.6514   23.6671 H   0  0  0  0  0  0
  -26.0942  -31.5500   20.6013 H   0  0  0  0  0  0
  -26.8444  -30.8384   21.9983 H   0  0  0  0  0  0
  -28.1199  -28.9938   21.1819 H   0  0  0  0  0  0
  -26.0160  -25.9413   18.9756 H   0  0  0  0  0  0
  -23.9822  -27.3125   18.9901 H   0  0  0  0  0  0
  -23.7616  -30.5889   19.3998 H   0  0  0  0  0  0
  -22.7549  -29.2418   19.8559 H   0  0  0  0  0  0
  -25.1317  -36.1931   25.0811 H   0  0  0  0  0  0
  -21.0009  -28.3300   24.1409 H   0  0  0  0  0  0
  -20.5774  -26.2324   23.3618 H   0  0  0  0  0  0
  -21.6666  -26.7489   22.1161 H   0  0  0  0  0  0
  -19.6929  -25.6317   21.1261 H   0  0  0  0  0  0
  -19.6713  -27.3242   20.6794 H   0  0  0  0  0  0
  -17.4226  -26.6747   21.4026 H   0  0  0  0  0  0
  -18.0306  -26.0095   22.9021 H   0  0  0  0  0  0
  -19.7934  -30.7330   24.2254 H   0  0  0  0  0  0
  -17.5004  -31.6269   24.5204 H   0  0  0  0  0  0
  -15.5360  -30.2999   23.7653 H   0  0  0  0  0  0
  -15.8698  -28.0857   22.7021 H   0  0  0  0  0  0
  -24.5897  -30.7062   25.7754 H   0  0  0  0  0  0
  -24.8908  -32.2882   26.4829 H   0  0  0  0  0  0
  -25.8018  -30.8896   27.0223 H   0  0  0  0  0  0
  -26.2882  -29.6758   24.1216 H   0  0  0  0  0  0
  -27.4081  -29.7254   25.4643 H   0  0  0  0  0  0
  -27.8746  -30.4310   23.9363 H   0  0  0  0  0  0
  -27.2687  -33.3628   26.2033 H   0  0  0  0  0  0
  -28.3882  -32.6834   25.0283 H   0  0  0  0  0  0
  -28.0767  -31.8459   26.5386 H   0  0  0  0  0  0
  -28.2583  -38.0107   24.7523 H   0  0  0  0  0  0
  -28.1067  -36.2638   24.6235 H   0  0  0  0  0  0
  -27.2287  -37.1399   25.8851 H   0  0  0  0  0  0
  -20.9368  -29.8730   21.6844 H   0  0  0  0  0  0
  -26.0155  -38.2863   24.1417 H   0  0  0  0  0  0
  -28.7437  -20.2312   22.0881 H   0  0  0  0  0  0
  -30.1399  -19.8458   17.3717 H   0  0  0  0  0  0
  -31.3088  -18.5285   17.4977 H   0  0  0  0  0  0
  -31.7185  -20.1405   18.0974 H   0  0  0  0  0  0
  -30.0806  -24.2427   19.8630 H   0  0  0  0  0  0
  -28.7468  -23.8939   18.8115 H   0  0  0  0  0  0
  -28.4114  -25.0748   21.6180 H   0  0  0  0  0  0
  -27.1327  -24.7840   20.5028 H   0  0  0  0  0  0
  -27.8931  -22.1750   20.5314 H   0  0  0  0  0  0
  -29.3198  -22.4905   21.4913 H   0  0  0  0  0  0
  1 25  1  0  0  0
  1 30  2  0  0  0
  1 79  1  0  0  0
  2  3  1  0  0  0
  2 25  1  0  0  0
  2 88  1  0  0  0
  2 89  1  0  0  0
  3  4  1  0  0  0
  3 90  1  0  0  0
  3 91  1  0  0  0
  4  5  1  0  0  0
  4 92  1  0  0  0
  4 93  1  0  0  0
  5  6  1  0  0  0
  5 26  1  0  0  0
  5 94  1  0  0  0
  6 25  1  0  0  0
  6 95  1  0  0  0
  6 96  1  0  0  0
  7  8  2  0  0  0
  7 26  1  0  0  0
  7 29  1  0  0  0
  8  9  1  0  0  0
  8 22  1  0  0  0
  9 10  1  0  0  0
  9 27  2  0  0  0
 10 11  2  0  0  0
 10 15  1  0  0  0
 11 12  1  0  0  0
 11 97  1  0  0  0
 12 13  2  0  0  0
 12 98  1  0  0  0
 13 14  1  0  0  0
 13 31  1  0  0  0
 14 15  2  0  0  0
 14 99  1  0  0  0
 15100  1  0  0  0
 16 17  2  0  0  0
 16 21  1  0  0  0
 16 31  1  0  0  0
 17 18  1  0  0  0
 17101  1  0  0  0
 18 19  2  0  0  0
 18102  1  0  0  0
 19 20  1  0  0  0
 19 24  1  0  0  0
 20 21  2  0  0  0
 20103  1  0  0  0
 21 23  1  0  0  0
 22 28  1  0  0  0
 22 32  2  0  0  0
 26 27  1  0  0  0
 28104  1  0  0  0
 28105  1  0  0  0
 29106  1  0  0  0
 29107  1  0  0  0
 33 34  1  0  0  0
 33 66  1  0  0  0
 33 70  2  0  0  0
 34 36  1  0  0  0
 34 59  1  0  0  0
 34108  1  0  0  0
 35 44  2  0  0  0
 35 45  1  0  0  0
 35 68  1  0  0  0
 36 56  1  0  0  0
 36109  1  0  0  0
 37 39  1  0  0  0
 37 47  1  0  0  0
 37 66  1  0  0  0
 37110  1  0  0  0
 38 43  2  0  0  0
 38 46  1  0  0  0
 38 47  1  0  0  0
 39 64  1  0  0  0
 39 67  2  0  0  0
 40 52  1  0  0  0
 40 53  2  0  0  0
 40 58  1  0  0  0
 41111  1  0  0  0
 41112  1  0  0  0
 41113  1  0  0  0
 41 48  1  0  0  0
 42 43  1  0  0  0
 42 66  1  0  0  0
 42114  1  0  0  0
 42115  1  0  0  0
 43 44  1  0  0  0
 44116  1  0  0  0
 45 46  2  0  0  0
 45117  1  0  0  0
 46118  1  0  0  0
 47119  1  0  0  0
 47120  1  0  0  0
 48 56  1  0  0  0
 48 65  1  0  0  0
 48121  1  0  0  0
 49 50  1  0  0  0
 49 53  1  0  0  0
 49 64  1  0  0  0
 49122  1  0  0  0
 50 51  1  0  0  0
 50123  1  0  0  0
 50124  1  0  0  0
 51 52  1  0  0  0
 51125  1  0  0  0
 51126  1  0  0  0
 52127  1  0  0  0
 52128  1  0  0  0
 53 54  1  0  0  0
 54 55  2  0  0  0
 54129  1  0  0  0
 55 57  1  0  0  0
 55130  1  0  0  0
 56 69  2  0  0  0
 57 58  2  0  0  0
 57131  1  0  0  0
 58132  1  0  0  0
 59 60  1  0  0  0
 59 61  1  0  0  0
 59 62  1  0  0  0
 60133  1  0  0  0
 60134  1  0  0  0
 60135  1  0  0  0
 61136  1  0  0  0
 61137  1  0  0  0
 61138  1  0  0  0
 62139  1  0  0  0
 62140  1  0  0  0
 62141  1  0  0  0
 63 65  1  0  0  0
 63142  1  0  0  0
 63143  1  0  0  0
 63144  1  0  0  0
 64145  1  0  0  0
 65146  1  0  0  0
 68 77  1  0  0  0
 71 72  2  0  0  0
 71 81  1  0  0  0
 71147  1  0  0  0
 72 73  1  0  0  0
 72 83  1  0  0  0
 73 75  1  0  0  0
 73 82  2  0  0  0
 74 79  1  0  0  0
 74 81  2  0  0  0
 74 82  1  0  0  0
 75148  1  0  0  0
 75149  1  0  0  0
 75150  1  0  0  0
 76 77  1  0  0  0
 76 78  1  0  0  0
 76151  1  0  0  0
 76152  1  0  0  0
 77153  1  0  0  0
 77154  1  0  0  0
 78 83  1  0  0  0
 78155  1  0  0  0
 78156  1  0  0  0
 79 80  1  0  0  0
 79 84  1  0  0  0
 80 85  1  0  0  0
 80 86  1  0  0  0
 80 87  1  0  0  0
M  ISO  4   1 100  68 101  77 101  79 100
M  END
> <chiral flag>
0

> <version>
0

> <s_m_source_file>
/data/baiqing/PycharmProjects/Reinvent-master-3.2/result/LINK_invent/BTK/process_docking_weight1_custom_sum_contain_oxygen_bond_distance_aromatic_linkinvent_7_9_3/rearranged_h_0068.sdf

> <i_m_source_file_index>
50

> <r_mmod_Potential_Energy-OPLS-2005>
78.2070159912109

> <r_mmod_Stretch_Energy-OPLS-2005>
94.8698959350586

> <r_mmod_Bend_Energy-OPLS-2005>
168.348556518555

> <r_mmod_Torsional_Energy-OPLS-2005>
159.021072387695

> <r_mmod_Improper_Torsional_Energy-OPLS-2005>
2.52096796035767

> <r_mmod_Van_der_Waal_Energy-OPLS-2005>
159.957321166992

> <r_mmod_Electrostatic_Energy-OPLS-2005>
-362.087799072266

> <r_mmod_Solvation_Energy-OPLS-2005>
-190.507446289062

> <b_mmod_Minimization_Converged-OPLS-2005>
0

> <r_mmod_RMS_Derivative-OPLS-2005>
2.48840236663818

$$$$
53
                    3D
 Structure written by MMmdl.
161169  0  0  1  0            999 V2000
  -30.8425  -14.3554   20.7098 C   0  0  0  0  0  0
  -30.4016  -12.2875   19.4231 C   0  0  0  0  0  0
  -29.4871  -12.5207   18.2049 C   0  0  0  0  0  0
  -28.0145  -12.3574   18.6073 C   0  0  0  0  0  0
  -27.6573  -13.2073   19.8500 C   0  0  2  0  0  0
  -28.6847  -13.0083   20.9831 C   0  0  0  0  0  0
  -25.2566  -13.8157   20.5609 C   0  0  0  0  0  0
  -24.1842  -13.0435   20.9136 C   0  0  0  0  0  0
  -24.6398  -11.6893   20.8693 C   0  0  0  0  0  0
  -23.9070  -10.4282   21.0383 C   0  0  0  0  0  0
  -24.3614   -9.4196   21.9168 C   0  0  0  0  0  0
  -23.6286   -8.2232   22.0754 C   0  0  0  0  0  0
  -22.4270   -8.0270   21.3537 C   0  0  0  0  0  0
  -21.9905   -9.0239   20.4631 C   0  0  0  0  0  0
  -22.7239  -10.2113   20.3029 C   0  0  0  0  0  0
  -21.6851   -6.0722   22.5280 C   0  0  0  0  0  0
  -21.4024   -6.5633   23.8215 C   0  0  0  0  0  0
  -21.3661   -5.6788   24.9178 C   0  0  0  0  0  0
  -21.6039   -4.3052   24.7235 C   0  0  0  0  0  0
  -21.8824   -3.8138   23.4361 C   0  0  0  0  0  0
  -21.9196   -4.6948   22.3408 C   0  0  0  0  0  0
  -22.7866  -13.5218   21.1835 C   0  0  0  0  0  0
  -22.1660   -4.2129   21.0989 F   0  0  0  0  0  0
  -21.5619   -3.4538   25.7752 F   0  0  0  0  0  0
  -30.0555  -13.2569   20.4831 N   0  0  0  0  0  0
  -26.2984  -12.9335   20.3166 N   0  0  0  0  0  0
  -25.9306  -11.6492   20.5625 N   0  0  0  0  0  0
  -22.0532  -12.8203   22.0393 N   0  0  0  0  0  0
  -25.4317  -15.1884   20.4061 N   0  0  0  0  0  0
  -31.8037  -14.6185   19.9796 O   0  0  0  0  0  0
  -21.6635   -6.8862   21.4243 O   0  0  0  0  0  0
  -22.3528  -14.5519   20.6684 O   0  0  0  0  0  0
  -24.6069  -31.8739   23.2144 C   0  0  0  0  0  0
  -25.9025  -32.4840   23.8430 C   0  0  1  0  0  0
  -27.2423  -27.4964   20.1085 C   0  0  0  0  0  0
  -25.5887  -33.8634   24.2327 N   0  0  0  0  0  0
  -23.3912  -30.4977   21.5523 C   0  0  2  0  0  0
  -24.8395  -28.9742   20.1051 C   0  0  0  0  0  0
  -22.7369  -29.4704   22.5010 C   0  0  0  0  0  0
  -18.0282  -28.1348   22.8520 C   0  0  0  0  0  0
  -24.1476  -36.7338   23.2635 C   0  0  0  0  0  0
  -25.9088  -30.8632   21.3547 C   0  0  0  0  0  0
  -25.9893  -29.5015   20.7062 C   0  0  0  0  0  0
  -27.1900  -28.7728   20.7092 C   0  0  0  0  0  0
  -26.0854  -26.9740   19.4951 C   0  0  0  0  0  0
  -24.8822  -27.7085   19.4896 C   0  0  0  0  0  0
  -23.5925  -29.8288   20.1642 C   0  0  0  0  0  0
  -25.4096  -36.3094   24.0304 C   0  0  1  0  0  0
  -20.5844  -28.3648   23.1331 C   0  0  2  0  0  0
  -20.6751  -26.9384   22.5417 C   0  0  0  0  0  0
  -19.5730  -26.6374   21.5212 C   0  0  0  0  0  0
  -18.1913  -26.7906   22.1626 C   0  0  0  0  0  0
  -19.1515  -28.8820   23.2927 C   0  0  0  0  0  0
  -18.9452  -30.1424   23.8929 C   0  0  0  0  0  0
  -17.6459  -30.6567   24.0556 C   0  0  0  0  0  0
  -25.9022  -34.9464   23.5096 C   0  0  0  0  0  0
  -16.5351  -29.9066   23.6303 C   0  0  0  0  0  0
  -16.7277  -28.6469   23.0351 C   0  0  0  0  0  0
  -26.4476  -31.6611   25.0749 C   0  0  0  0  0  0
  -25.3721  -31.3694   26.1483 C   0  0  0  0  0  0
  -27.0341  -30.3056   24.6109 C   0  0  0  0  0  0
  -27.6068  -32.4328   25.7482 C   0  0  0  0  0  0
  -27.5571  -37.1794   24.8452 C   0  0  0  0  0  0
  -21.4101  -29.3022   22.3724 N   0  0  0  0  0  0
  -26.4282  -37.3776   23.9389 N   0  0  0  0  0  0
  -24.6533  -31.0901   22.1008 N   0  0  0  0  0  0
  -23.4175  -28.8270   23.3051 O   0  0  0  0  0  0
  -28.3897  -26.7457   20.1212 O   0  0  0  0  0  0
  -26.5599  -34.8927   22.4676 O   0  0  0  0  0  0
  -23.5282  -32.1503   23.7554 O   0  0  0  0  0  0
  -31.3534  -21.3943   21.3633 C   0  0  0  0  0  0
  -29.6678  -21.1287   23.0161 C   0  0  0  0  0  0
  -30.7968  -20.5879   22.3808 C   0  0  0  0  0  0
  -29.6970  -22.9405   21.6378 C   0  0  0  0  0  0
  -30.1223  -14.8375   23.0609 C   0  0  0  0  0  0
  -29.0409  -24.2268   21.1866 C   0  0  0  0  0  0
  -29.8881  -25.4666   21.5077 C   0  0  0  0  0  0
  -32.1075  -17.1789   22.1730 C   0  0  0  0  0  0
  -30.7771  -16.6718   21.5527 C   0  0  0  0  0  0
  -29.0691  -26.7470   21.3789 C   0  0  0  0  0  0
  -32.2677  -18.7026   22.0163 C   0  0  0  0  0  0
  -30.7906  -22.5590   20.9892 N   0  0  0  0  0  0
  -29.1234  -22.3023   22.6470 N   0  0  0  0  0  0
  -30.5119  -15.2258   21.7001 N   0  0  0  0  0  0
  -31.2447  -19.3427   22.7743 O   0  0  0  0  0  0
  -31.4481  -12.3432   19.1182 H   0  0  0  0  0  0
  -30.2684  -11.2733   19.7997 H   0  0  0  0  0  0
  -29.7329  -11.8165   17.4082 H   0  0  0  0  0  0
  -29.6543  -13.5191   17.7956 H   0  0  0  0  0  0
  -27.8381  -11.3010   18.8141 H   0  0  0  0  0  0
  -27.3628  -12.6131   17.7710 H   0  0  0  0  0  0
  -27.7007  -14.2514   19.5388 H   0  0  0  0  0  0
  -28.6237  -11.9973   21.3852 H   0  0  0  0  0  0
  -28.3702  -13.6667   21.7847 H   0  0  0  0  0  0
  -25.2764   -9.5666   22.4738 H   0  0  0  0  0  0
  -23.9981   -7.4637   22.7495 H   0  0  0  0  0  0
  -21.0825   -8.8751   19.8956 H   0  0  0  0  0  0
  -22.3699  -10.9633   19.6119 H   0  0  0  0  0  0
  -21.2032   -7.6147   23.9711 H   0  0  0  0  0  0
  -21.1476   -6.0523   25.9074 H   0  0  0  0  0  0
  -22.0609   -2.7599   23.2872 H   0  0  0  0  0  0
  -22.4150  -11.9834   22.4751 H   0  0  0  0  0  0
  -21.1141  -13.1197   22.2618 H   0  0  0  0  0  0
  -24.6726  -15.8514   20.5211 H   0  0  0  0  0  0
  -26.2985  -15.6247   20.1195 H   0  0  0  0  0  0
  -26.7133  -32.5562   23.1239 H   0  0  0  0  0  0
  -24.9985  -33.9792   25.0435 H   0  0  0  0  0  0
  -22.6764  -31.3105   21.4174 H   0  0  0  0  0  0
  -23.3699  -35.9714   23.3286 H   0  0  0  0  0  0
  -24.3570  -36.8994   22.2063 H   0  0  0  0  0  0
  -23.7317  -37.6560   23.6693 H   0  0  0  0  0  0
  -26.0032  -31.6281   20.5830 H   0  0  0  0  0  0
  -26.8001  -30.9234   21.9651 H   0  0  0  0  0  0
  -28.0707  -29.1961   21.1713 H   0  0  0  0  0  0
  -26.1115  -25.9960   19.0378 H   0  0  0  0  0  0
  -23.9976  -27.2984   19.0207 H   0  0  0  0  0  0
  -23.6752  -30.6026   19.4001 H   0  0  0  0  0  0
  -22.7174  -29.2370   19.8858 H   0  0  0  0  0  0
  -25.1273  -36.1933   25.0793 H   0  0  0  0  0  0
  -20.9985  -28.3224   24.1431 H   0  0  0  0  0  0
  -20.5662  -26.2261   23.3598 H   0  0  0  0  0  0
  -21.6629  -26.7424   22.1206 H   0  0  0  0  0  0
  -19.6878  -25.6290   21.1219 H   0  0  0  0  0  0
  -19.6647  -27.3188   20.6731 H   0  0  0  0  0  0
  -17.4183  -26.6685   21.4007 H   0  0  0  0  0  0
  -18.0284  -26.0010   22.8976 H   0  0  0  0  0  0
  -19.7930  -30.7210   24.2316 H   0  0  0  0  0  0
  -17.5023  -31.6251   24.5152 H   0  0  0  0  0  0
  -15.5343  -30.2987   23.7620 H   0  0  0  0  0  0
  -15.8664  -28.0805   22.7058 H   0  0  0  0  0  0
  -24.5924  -30.7007   25.7815 H   0  0  0  0  0  0
  -24.8860  -32.2825   26.4904 H   0  0  0  0  0  0
  -25.8074  -30.8909   27.0262 H   0  0  0  0  0  0
  -26.2897  -29.6739   24.1243 H   0  0  0  0  0  0
  -27.4217  -29.7367   25.4575 H   0  0  0  0  0  0
  -27.8669  -30.4379   23.9198 H   0  0  0  0  0  0
  -27.2745  -33.3661   26.2022 H   0  0  0  0  0  0
  -28.3898  -32.6820   25.0309 H   0  0  0  0  0  0
  -28.0715  -31.8478   26.5411 H   0  0  0  0  0  0
  -28.2564  -38.0112   24.7508 H   0  0  0  0  0  0
  -28.1091  -36.2634   24.6261 H   0  0  0  0  0  0
  -27.2280  -37.1451   25.8856 H   0  0  0  0  0  0
  -20.9249  -29.8779   21.6971 H   0  0  0  0  0  0
  -26.0142  -38.2836   24.1410 H   0  0  0  0  0  0
  -32.2425  -21.1162   20.8194 H   0  0  0  0  0  0
  -29.1698  -20.5951   23.8116 H   0  0  0  0  0  0
  -29.0857  -15.1260   23.2462 H   0  0  0  0  0  0
  -30.7281  -15.3381   23.8161 H   0  0  0  0  0  0
  -30.2241  -13.7635   23.2339 H   0  0  0  0  0  0
  -28.0637  -24.3177   21.6674 H   0  0  0  0  0  0
  -28.8392  -24.1711   20.1154 H   0  0  0  0  0  0
  -30.7607  -25.4988   20.8566 H   0  0  0  0  0  0
  -30.2677  -25.4035   22.5286 H   0  0  0  0  0  0
  -32.9591  -16.6886   21.6987 H   0  0  0  0  0  0
  -32.1715  -16.9336   23.2330 H   0  0  0  0  0  0
  -30.7780  -16.9350   20.4927 H   0  0  0  0  0  0
  -29.9358  -17.2178   21.9789 H   0  0  0  0  0  0
  -29.7120  -27.6216   21.4783 H   0  0  0  0  0  0
  -28.3548  -26.7773   22.2073 H   0  0  0  0  0  0
  -32.2297  -18.9462   20.9540 H   0  0  0  0  0  0
  -33.2352  -19.0278   22.4031 H   0  0  0  0  0  0
  1 25  1  0  0  0
  1 30  2  0  0  0
  1 84  1  0  0  0
  2  3  1  0  0  0
  2 25  1  0  0  0
  2 86  1  0  0  0
  2 87  1  0  0  0
  3  4  1  0  0  0
  3 88  1  0  0  0
  3 89  1  0  0  0
  4  5  1  0  0  0
  4 90  1  0  0  0
  4 91  1  0  0  0
  5  6  1  0  0  0
  5 26  1  0  0  0
  5 92  1  0  0  0
  6 25  1  0  0  0
  6 93  1  0  0  0
  6 94  1  0  0  0
  7  8  2  0  0  0
  7 26  1  0  0  0
  7 29  1  0  0  0
  8  9  1  0  0  0
  8 22  1  0  0  0
  9 10  1  0  0  0
  9 27  2  0  0  0
 10 11  2  0  0  0
 10 15  1  0  0  0
 11 12  1  0  0  0
 11 95  1  0  0  0
 12 13  2  0  0  0
 12 96  1  0  0  0
 13 14  1  0  0  0
 13 31  1  0  0  0
 14 15  2  0  0  0
 14 97  1  0  0  0
 15 98  1  0  0  0
 16 17  2  0  0  0
 16 21  1  0  0  0
 16 31  1  0  0  0
 17 18  1  0  0  0
 17 99  1  0  0  0
 18 19  2  0  0  0
 18100  1  0  0  0
 19 20  1  0  0  0
 19 24  1  0  0  0
 20 21  2  0  0  0
 20101  1  0  0  0
 21 23  1  0  0  0
 22 28  1  0  0  0
 22 32  2  0  0  0
 26 27  1  0  0  0
 28102  1  0  0  0
 28103  1  0  0  0
 29104  1  0  0  0
 29105  1  0  0  0
 33 34  1  0  0  0
 33 66  1  0  0  0
 33 70  2  0  0  0
 34 36  1  0  0  0
 34 59  1  0  0  0
 34106  1  0  0  0
 35 44  2  0  0  0
 35 45  1  0  0  0
 35 68  1  0  0  0
 36 56  1  0  0  0
 36107  1  0  0  0
 37 39  1  0  0  0
 37 47  1  0  0  0
 37 66  1  0  0  0
 37108  1  0  0  0
 38 43  2  0  0  0
 38 46  1  0  0  0
 38 47  1  0  0  0
 39 64  1  0  0  0
 39 67  2  0  0  0
 40 52  1  0  0  0
 40 53  2  0  0  0
 40 58  1  0  0  0
 41109  1  0  0  0
 41110  1  0  0  0
 41111  1  0  0  0
 41 48  1  0  0  0
 42 43  1  0  0  0
 42 66  1  0  0  0
 42112  1  0  0  0
 42113  1  0  0  0
 43 44  1  0  0  0
 44114  1  0  0  0
 45 46  2  0  0  0
 45115  1  0  0  0
 46116  1  0  0  0
 47117  1  0  0  0
 47118  1  0  0  0
 48 56  1  0  0  0
 48 65  1  0  0  0
 48119  1  0  0  0
 49 50  1  0  0  0
 49 53  1  0  0  0
 49 64  1  0  0  0
 49120  1  0  0  0
 50 51  1  0  0  0
 50121  1  0  0  0
 50122  1  0  0  0
 51 52  1  0  0  0
 51123  1  0  0  0
 51124  1  0  0  0
 52125  1  0  0  0
 52126  1  0  0  0
 53 54  1  0  0  0
 54 55  2  0  0  0
 54127  1  0  0  0
 55 57  1  0  0  0
 55128  1  0  0  0
 56 69  2  0  0  0
 57 58  2  0  0  0
 57129  1  0  0  0
 58130  1  0  0  0
 59 60  1  0  0  0
 59 61  1  0  0  0
 59 62  1  0  0  0
 60131  1  0  0  0
 60132  1  0  0  0
 60133  1  0  0  0
 61134  1  0  0  0
 61135  1  0  0  0
 61136  1  0  0  0
 62137  1  0  0  0
 62138  1  0  0  0
 62139  1  0  0  0
 63 65  1  0  0  0
 63140  1  0  0  0
 63141  1  0  0  0
 63142  1  0  0  0
 64143  1  0  0  0
 65144  1  0  0  0
 68 80  1  0  0  0
 71 73  2  0  0  0
 71 82  1  0  0  0
 71145  1  0  0  0
 72 73  1  0  0  0
 72 83  2  0  0  0
 72146  1  0  0  0
 73 85  1  0  0  0
 74 76  1  0  0  0
 74 82  2  0  0  0
 74 83  1  0  0  0
 75 84  1  0  0  0
 75147  1  0  0  0
 75148  1  0  0  0
 75149  1  0  0  0
 76 77  1  0  0  0
 76150  1  0  0  0
 76151  1  0  0  0
 77 80  1  0  0  0
 77152  1  0  0  0
 77153  1  0  0  0
 78 79  1  0  0  0
 78 81  1  0  0  0
 78154  1  0  0  0
 78155  1  0  0  0
 79 84  1  0  0  0
 79156  1  0  0  0
 79157  1  0  0  0
 80158  1  0  0  0
 80159  1  0  0  0
 81 85  1  0  0  0
 81160  1  0  0  0
 81161  1  0  0  0
M  ISO  4   1 100  68 101  80 101  84 100
M  END
> <chiral flag>
0

> <version>
0

> <s_m_source_file>
/data/baiqing/PycharmProjects/Reinvent-master-3.2/result/LINK_invent/BTK/process_docking_weight1_custom_sum_contain_oxygen_bond_distance_aromatic_linkinvent_7_9_3/rearranged_h_0068.sdf

> <i_m_source_file_index>
51

> <r_mmod_Potential_Energy-OPLS-2005>
-291.470550537109

> <r_mmod_Stretch_Energy-OPLS-2005>
36.0205841064453

> <r_mmod_Bend_Energy-OPLS-2005>
110.124778747559

> <r_mmod_Torsional_Energy-OPLS-2005>
266.441314697266

> <r_mmod_Improper_Torsional_Energy-OPLS-2005>
2.5719211101532

> <r_mmod_Van_der_Waal_Energy-OPLS-2005>
176.571365356445

> <r_mmod_Electrostatic_Energy-OPLS-2005>
-675.191589355469

> <r_mmod_Solvation_Energy-OPLS-2005>
-217.732162475586

> <b_mmod_Minimization_Converged-OPLS-2005>
0

> <r_mmod_RMS_Derivative-OPLS-2005>
4.1155743598938

$$$$
54
                    3D
 Structure written by MMmdl.
166174  0  0  1  0            999 V2000
  -30.6655  -14.7297   20.5297 C   0  0  0  0  0  0
  -30.4272  -12.4615   19.4793 C   0  0  0  0  0  0
  -29.5076  -12.5239   18.2408 C   0  0  0  0  0  0
  -28.0336  -12.3419   18.6485 C   0  0  0  0  0  0
  -27.6382  -13.2373   19.8524 C   0  0  2  0  0  0
  -28.6846  -13.1693   20.9906 C   0  0  0  0  0  0
  -25.2283  -13.8112   20.5517 C   0  0  0  0  0  0
  -24.1687  -13.0324   20.9189 C   0  0  0  0  0  0
  -24.6379  -11.6860   20.8771 C   0  0  0  0  0  0
  -23.9082  -10.4245   21.0421 C   0  0  0  0  0  0
  -24.3638   -9.4162   21.9197 C   0  0  0  0  0  0
  -23.6289   -8.2210   22.0762 C   0  0  0  0  0  0
  -22.4268   -8.0281   21.3544 C   0  0  0  0  0  0
  -21.9910   -9.0251   20.4638 C   0  0  0  0  0  0
  -22.7258  -10.2108   20.3052 C   0  0  0  0  0  0
  -21.6858   -6.0737   22.5276 C   0  0  0  0  0  0
  -21.4018   -6.5636   23.8212 C   0  0  0  0  0  0
  -21.3638   -5.6786   24.9168 C   0  0  0  0  0  0
  -21.6034   -4.3044   24.7211 C   0  0  0  0  0  0
  -21.8816   -3.8142   23.4333 C   0  0  0  0  0  0
  -21.9194   -4.6970   22.3395 C   0  0  0  0  0  0
  -22.7707  -13.5096   21.1864 C   0  0  0  0  0  0
  -22.1659   -4.2153   21.0971 F   0  0  0  0  0  0
  -21.5628   -3.4521   25.7720 F   0  0  0  0  0  0
  -29.9987  -13.5213   20.4276 N   0  0  0  0  0  0
  -26.2871  -12.9437   20.3275 N   0  0  0  0  0  0
  -25.9330  -11.6563   20.5824 N   0  0  0  0  0  0
  -22.0398  -12.8105   22.0465 N   0  0  0  0  0  0
  -25.3450  -15.1803   20.3639 N   0  0  0  0  0  0
  -31.8004  -14.8362   20.0556 O   0  0  0  0  0  0
  -21.6621   -6.8884   21.4241 O   0  0  0  0  0  0
  -22.3366  -14.5395   20.6721 O   0  0  0  0  0  0
  -24.6315  -31.8559   23.1990 C   0  0  0  0  0  0
  -25.9141  -32.4760   23.8333 C   0  0  1  0  0  0
  -27.2295  -27.2685   20.1238 C   0  0  0  0  0  0
  -25.5937  -33.8564   24.2257 N   0  0  0  0  0  0
  -23.4285  -30.4768   21.5430 C   0  0  2  0  0  0
  -24.8781  -28.9263   20.1110 C   0  0  0  0  0  0
  -22.7513  -29.4592   22.4930 C   0  0  0  0  0  0
  -18.0296  -28.1389   22.8485 C   0  0  0  0  0  0
  -24.1492  -36.7278   23.2639 C   0  0  0  0  0  0
  -25.9752  -30.7691   21.3814 C   0  0  0  0  0  0
  -26.0495  -29.3935   20.7199 C   0  0  0  0  0  0
  -27.2265  -28.5777   20.7158 C   0  0  0  0  0  0
  -26.0316  -26.8718   19.4826 C   0  0  0  0  0  0
  -24.8738  -27.6722   19.4833 C   0  0  0  0  0  0
  -23.6463  -29.8087   20.1608 C   0  0  0  0  0  0
  -25.4121  -36.3071   24.0327 C   0  0  1  0  0  0
  -20.5900  -28.3693   23.1278 C   0  0  2  0  0  0
  -20.6795  -26.9413   22.5411 C   0  0  0  0  0  0
  -19.5767  -26.6381   21.5221 C   0  0  0  0  0  0
  -18.1942  -26.7931   22.1625 C   0  0  0  0  0  0
  -19.1549  -28.8860   23.2870 C   0  0  0  0  0  0
  -18.9473  -30.1465   23.8878 C   0  0  0  0  0  0
  -17.6468  -30.6589   24.0559 C   0  0  0  0  0  0
  -25.9061  -34.9441   23.5091 C   0  0  0  0  0  0
  -16.5358  -29.9078   23.6339 C   0  0  0  0  0  0
  -16.7283  -28.6499   23.0354 C   0  0  0  0  0  0
  -26.4507  -31.6584   25.0726 C   0  0  0  0  0  0
  -25.3713  -31.3749   26.1434 C   0  0  0  0  0  0
  -27.0378  -30.2996   24.6243 C   0  0  0  0  0  0
  -27.6053  -32.4342   25.7493 C   0  0  0  0  0  0
  -27.5586  -37.1792   24.8462 C   0  0  0  0  0  0
  -21.4222  -29.3037   22.3668 N   0  0  0  0  0  0
  -26.4295  -37.3771   23.9413 N   0  0  0  0  0  0
  -24.6969  -31.0513   22.0969 N   0  0  0  0  0  0
  -23.4218  -28.8140   23.3029 O   0  0  0  0  0  0
  -28.3286  -26.3763   20.1900 O   0  0  0  0  0  0
  -26.5633  -34.8918   22.4661 O   0  0  0  0  0  0
  -23.5467  -32.1381   23.7282 O   0  0  0  0  0  0
  -30.7627  -21.1209   21.3222 C   0  0  0  0  0  0
  -31.4518  -19.9663   21.7376 C   0  0  0  0  0  0
  -29.6117  -20.9590   20.5413 C   0  0  0  0  0  0
  -29.9459  -18.5802   20.6853 C   0  0  0  0  0  0
  -33.9905  -19.8122   21.8851 C   0  0  0  0  0  0
  -29.4997  -16.8915   18.8348 C   0  0  0  0  0  0
  -27.9552  -17.0604   20.7875 C   0  0  0  0  0  0
  -30.2425  -15.9848   22.5246 C   0  0  0  0  0  0
  -32.6738  -20.0628   22.6332 C   0  0  0  0  0  0
  -28.7573  -22.2062   20.0373 C   0  0  0  0  0  0
  -29.1275  -23.7434   20.4003 C   0  0  0  0  0  0
  -28.1010  -24.9096   19.9494 C   0  0  0  0  0  0
  -29.4366  -17.0900   20.3694 C   0  0  0  0  0  0
  -31.0543  -18.7209   21.4023 N   0  0  0  0  0  0
  -29.2330  -19.6638   20.2380 N   0  0  0  0  0  0
  -30.0282  -15.8397   21.0777 N   0  0  0  0  0  0
  -31.4696  -12.5681   19.1757 H   0  0  0  0  0  0
  -30.3625  -11.4818   19.9540 H   0  0  0  0  0  0
  -29.7959  -11.7612   17.5158 H   0  0  0  0  0  0
  -29.6312  -13.4839   17.7369 H   0  0  0  0  0  0
  -27.8872  -11.2912   18.9003 H   0  0  0  0  0  0
  -27.3786  -12.5448   17.7998 H   0  0  0  0  0  0
  -27.6285  -14.2550   19.4669 H   0  0  0  0  0  0
  -28.7156  -12.1712   21.4306 H   0  0  0  0  0  0
  -28.3979  -13.8424   21.7981 H   0  0  0  0  0  0
  -25.2794   -9.5638   22.4755 H   0  0  0  0  0  0
  -23.9992   -7.4594   22.7483 H   0  0  0  0  0  0
  -21.0842   -8.8789   19.8929 H   0  0  0  0  0  0
  -22.3756  -10.9657   19.6154 H   0  0  0  0  0  0
  -21.2020   -7.6148   23.9717 H   0  0  0  0  0  0
  -21.1464   -6.0514   25.9076 H   0  0  0  0  0  0
  -22.0614   -2.7606   23.2829 H   0  0  0  0  0  0
  -22.4043  -11.9793   22.4890 H   0  0  0  0  0  0
  -21.1021  -13.1123   22.2697 H   0  0  0  0  0  0
  -24.5468  -15.7953   20.4744 H   0  0  0  0  0  0
  -26.1649  -15.6559   20.0126 H   0  0  0  0  0  0
  -26.7204  -32.5414   23.1077 H   0  0  0  0  0  0
  -25.0069  -33.9695   25.0394 H   0  0  0  0  0  0
  -22.7239  -31.2982   21.3960 H   0  0  0  0  0  0
  -23.3763  -35.9598   23.3291 H   0  0  0  0  0  0
  -24.3573  -36.8915   22.2054 H   0  0  0  0  0  0
  -23.7236  -37.6470   23.6674 H   0  0  0  0  0  0
  -26.1208  -31.5342   20.6177 H   0  0  0  0  0  0
  -26.8490  -30.8115   22.0205 H   0  0  0  0  0  0
  -28.1215  -28.9301   21.2093 H   0  0  0  0  0  0
  -25.9552  -25.9155   18.9877 H   0  0  0  0  0  0
  -23.9764  -27.3081   19.0027 H   0  0  0  0  0  0
  -23.7672  -30.5823   19.4025 H   0  0  0  0  0  0
  -22.7674  -29.2372   19.8575 H   0  0  0  0  0  0
  -25.1306  -36.1910   25.0819 H   0  0  0  0  0  0
  -20.9981  -28.3267   24.1404 H   0  0  0  0  0  0
  -20.5724  -26.2295   23.3609 H   0  0  0  0  0  0
  -21.6659  -26.7461   22.1186 H   0  0  0  0  0  0
  -19.6928  -25.6291   21.1252 H   0  0  0  0  0  0
  -19.6702  -27.3191   20.6751 H   0  0  0  0  0  0
  -17.4216  -26.6687   21.4017 H   0  0  0  0  0  0
  -18.0329  -26.0073   22.9019 H   0  0  0  0  0  0
  -19.7942  -30.7300   24.2230 H   0  0  0  0  0  0
  -17.5016  -31.6267   24.5164 H   0  0  0  0  0  0
  -15.5355  -30.2972   23.7685 H   0  0  0  0  0  0
  -15.8682  -28.0819   22.7076 H   0  0  0  0  0  0
  -24.5858  -30.7146   25.7736 H   0  0  0  0  0  0
  -24.8946  -32.2933   26.4870 H   0  0  0  0  0  0
  -25.8003  -30.8885   27.0205 H   0  0  0  0  0  0
  -26.2985  -29.6712   24.1261 H   0  0  0  0  0  0
  -27.4039  -29.7297   25.4796 H   0  0  0  0  0  0
  -27.8869  -30.4267   23.9522 H   0  0  0  0  0  0
  -27.2645  -33.3637   26.2071 H   0  0  0  0  0  0
  -28.3853  -32.6919   25.0313 H   0  0  0  0  0  0
  -28.0734  -31.8473   26.5408 H   0  0  0  0  0  0
  -28.2592  -38.0102   24.7536 H   0  0  0  0  0  0
  -28.1098  -36.2637   24.6260 H   0  0  0  0  0  0
  -27.2302  -37.1403   25.8862 H   0  0  0  0  0  0
  -20.9423  -29.8723   21.6832 H   0  0  0  0  0  0
  -26.0172  -38.2843   24.1414 H   0  0  0  0  0  0
  -31.1068  -22.1049   21.6108 H   0  0  0  0  0  0
  -34.8399  -19.8713   22.5656 H   0  0  0  0  0  0
  -34.1372  -20.5493   21.0959 H   0  0  0  0  0  0
  -34.0019  -18.8232   21.4282 H   0  0  0  0  0  0
  -28.9392  -17.6683   18.3151 H   0  0  0  0  0  0
  -29.0757  -15.9391   18.5161 H   0  0  0  0  0  0
  -30.5271  -16.9475   18.4746 H   0  0  0  0  0  0
  -27.3286  -17.6736   20.1390 H   0  0  0  0  0  0
  -27.8121  -17.4274   21.8038 H   0  0  0  0  0  0
  -27.5888  -16.0440   20.7722 H   0  0  0  0  0  0
  -31.3044  -16.1043   22.7455 H   0  0  0  0  0  0
  -29.8812  -15.1108   23.0686 H   0  0  0  0  0  0
  -29.7304  -16.8515   22.9417 H   0  0  0  0  0  0
  -32.5666  -19.3445   23.4471 H   0  0  0  0  0  0
  -32.6986  -21.0463   23.1040 H   0  0  0  0  0  0
  -27.7344  -22.0325   20.3692 H   0  0  0  0  0  0
  -28.7137  -22.1312   18.9509 H   0  0  0  0  0  0
  -30.1069  -23.9647   19.9759 H   0  0  0  0  0  0
  -29.2492  -23.8100   21.4805 H   0  0  0  0  0  0
  -27.1511  -24.6446   20.4169 H   0  0  0  0  0  0
  -27.9487  -24.7956   18.8749 H   0  0  0  0  0  0
  1 25  1  0  0  0
  1 30  2  0  0  0
  1 86  1  0  0  0
  2  3  1  0  0  0
  2 25  1  0  0  0
  2 87  1  0  0  0
  2 88  1  0  0  0
  3  4  1  0  0  0
  3 89  1  0  0  0
  3 90  1  0  0  0
  4  5  1  0  0  0
  4 91  1  0  0  0
  4 92  1  0  0  0
  5  6  1  0  0  0
  5 26  1  0  0  0
  5 93  1  0  0  0
  6 25  1  0  0  0
  6 94  1  0  0  0
  6 95  1  0  0  0
  7  8  2  0  0  0
  7 26  1  0  0  0
  7 29  1  0  0  0
  8  9  1  0  0  0
  8 22  1  0  0  0
  9 10  1  0  0  0
  9 27  2  0  0  0
 10 11  2  0  0  0
 10 15  1  0  0  0
 11 12  1  0  0  0
 11 96  1  0  0  0
 12 13  2  0  0  0
 12 97  1  0  0  0
 13 14  1  0  0  0
 13 31  1  0  0  0
 14 15  2  0  0  0
 14 98  1  0  0  0
 15 99  1  0  0  0
 16 17  2  0  0  0
 16 21  1  0  0  0
 16 31  1  0  0  0
 17 18  1  0  0  0
 17100  1  0  0  0
 18 19  2  0  0  0
 18101  1  0  0  0
 19 20  1  0  0  0
 19 24  1  0  0  0
 20 21  2  0  0  0
 20102  1  0  0  0
 21 23  1  0  0  0
 22 28  1  0  0  0
 22 32  2  0  0  0
 26 27  1  0  0  0
 28103  1  0  0  0
 28104  1  0  0  0
 29105  1  0  0  0
 29106  1  0  0  0
 33 34  1  0  0  0
 33 66  1  0  0  0
 33 70  2  0  0  0
 34 36  1  0  0  0
 34 59  1  0  0  0
 34107  1  0  0  0
 35 44  2  0  0  0
 35 45  1  0  0  0
 35 68  1  0  0  0
 36 56  1  0  0  0
 36108  1  0  0  0
 37 39  1  0  0  0
 37 47  1  0  0  0
 37 66  1  0  0  0
 37109  1  0  0  0
 38 43  2  0  0  0
 38 46  1  0  0  0
 38 47  1  0  0  0
 39 64  1  0  0  0
 39 67  2  0  0  0
 40 52  1  0  0  0
 40 53  2  0  0  0
 40 58  1  0  0  0
 41110  1  0  0  0
 41111  1  0  0  0
 41112  1  0  0  0
 41 48  1  0  0  0
 42 43  1  0  0  0
 42 66  1  0  0  0
 42113  1  0  0  0
 42114  1  0  0  0
 43 44  1  0  0  0
 44115  1  0  0  0
 45 46  2  0  0  0
 45116  1  0  0  0
 46117  1  0  0  0
 47118  1  0  0  0
 47119  1  0  0  0
 48 56  1  0  0  0
 48 65  1  0  0  0
 48120  1  0  0  0
 49 50  1  0  0  0
 49 53  1  0  0  0
 49 64  1  0  0  0
 49121  1  0  0  0
 50 51  1  0  0  0
 50122  1  0  0  0
 50123  1  0  0  0
 51 52  1  0  0  0
 51124  1  0  0  0
 51125  1  0  0  0
 52126  1  0  0  0
 52127  1  0  0  0
 53 54  1  0  0  0
 54 55  2  0  0  0
 54128  1  0  0  0
 55 57  1  0  0  0
 55129  1  0  0  0
 56 69  2  0  0  0
 57 58  2  0  0  0
 57130  1  0  0  0
 58131  1  0  0  0
 59 60  1  0  0  0
 59 61  1  0  0  0
 59 62  1  0  0  0
 60132  1  0  0  0
 60133  1  0  0  0
 60134  1  0  0  0
 61135  1  0  0  0
 61136  1  0  0  0
 61137  1  0  0  0
 62138  1  0  0  0
 62139  1  0  0  0
 62140  1  0  0  0
 63 65  1  0  0  0
 63141  1  0  0  0
 63142  1  0  0  0
 63143  1  0  0  0
 64144  1  0  0  0
 65145  1  0  0  0
 68 82  1  0  0  0
 71 72  2  0  0  0
 71 73  1  0  0  0
 71146  1  0  0  0
 72 79  1  0  0  0
 72 84  1  0  0  0
 73 80  1  0  0  0
 73 85  2  0  0  0
 74 83  1  0  0  0
 74 84  2  0  0  0
 74 85  1  0  0  0
 75 79  1  0  0  0
 75147  1  0  0  0
 75148  1  0  0  0
 75149  1  0  0  0
 76150  1  0  0  0
 76151  1  0  0  0
 76152  1  0  0  0
 76 83  1  0  0  0
 77 83  1  0  0  0
 77153  1  0  0  0
 77154  1  0  0  0
 77155  1  0  0  0
 78 86  1  0  0  0
 78156  1  0  0  0
 78157  1  0  0  0
 78158  1  0  0  0
 79159  1  0  0  0
 79160  1  0  0  0
 80 81  1  0  0  0
 80161  1  0  0  0
 80162  1  0  0  0
 81 82  1  0  0  0
 81163  1  0  0  0
 81164  1  0  0  0
 82165  1  0  0  0
 82166  1  0  0  0
 83 86  1  0  0  0
M  ISO  4   1 100  68 101  82 101  86 100
M  END
> <chiral flag>
0

> <version>
0

> <s_m_source_file>
/data/baiqing/PycharmProjects/Reinvent-master-3.2/result/LINK_invent/BTK/process_docking_weight1_custom_sum_contain_oxygen_bond_distance_aromatic_linkinvent_7_9_3/rearranged_h_0068.sdf

> <i_m_source_file_index>
52

> <r_mmod_Potential_Energy-OPLS-2005>
-236.284484863281

> <r_mmod_Stretch_Energy-OPLS-2005>
129.942825317383

> <r_mmod_Bend_Energy-OPLS-2005>
181.730438232422

> <r_mmod_Torsional_Energy-OPLS-2005>
264.850738525391

> <r_mmod_Improper_Torsional_Energy-OPLS-2005>
3.07396483421326

> <r_mmod_Van_der_Waal_Energy-OPLS-2005>
151.264602661133

> <r_mmod_Electrostatic_Energy-OPLS-2005>
-835.700805664062

> <r_mmod_Solvation_Energy-OPLS-2005>
-210.920913696289

> <b_mmod_Minimization_Converged-OPLS-2005>
0

> <r_mmod_RMS_Derivative-OPLS-2005>
2.10552763938904

$$$$
57
                    3D
 Structure written by MMmdl.
178186  0  0  1  0            999 V2000
  -30.7633  -14.5933   20.4052 C   0  0  0  0  0  0
  -30.4012  -12.3564   19.4480 C   0  0  0  0  0  0
  -29.4786  -12.4376   18.2160 C   0  0  0  0  0  0
  -28.0157  -12.2430   18.6541 C   0  0  0  0  0  0
  -27.6207  -13.1731   19.8255 C   0  0  2  0  0  0
  -28.6867  -13.2119   20.9506 C   0  0  0  0  0  0
  -25.2515  -13.8011   20.5713 C   0  0  0  0  0  0
  -24.1771  -13.0353   20.9239 C   0  0  0  0  0  0
  -24.6291  -11.6789   20.8835 C   0  0  0  0  0  0
  -23.8967  -10.4205   21.0469 C   0  0  0  0  0  0
  -24.3521   -9.4117   21.9250 C   0  0  0  0  0  0
  -23.6208   -8.2146   22.0765 C   0  0  0  0  0  0
  -22.4209   -8.0191   21.3528 C   0  0  0  0  0  0
  -21.9848   -9.0173   20.4642 C   0  0  0  0  0  0
  -22.7154  -10.2063   20.3091 C   0  0  0  0  0  0
  -21.6798   -6.0652   22.5255 C   0  0  0  0  0  0
  -21.3965   -6.5571   23.8184 C   0  0  0  0  0  0
  -21.3685   -5.6750   24.9166 C   0  0  0  0  0  0
  -21.6074   -4.3009   24.7225 C   0  0  0  0  0  0
  -21.8825   -3.8076   23.4352 C   0  0  0  0  0  0
  -21.9168   -4.6879   22.3399 C   0  0  0  0  0  0
  -22.7802  -13.5182   21.1853 C   0  0  0  0  0  0
  -22.1643   -4.2061   21.0979 F   0  0  0  0  0  0
  -21.5697   -3.4519   25.7761 F   0  0  0  0  0  0
  -30.0066  -13.4525   20.3566 N   0  0  0  0  0  0
  -26.2859  -12.9082   20.3317 N   0  0  0  0  0  0
  -25.9210  -11.6316   20.5901 N   0  0  0  0  0  0
  -22.0405  -12.8201   22.0383 N   0  0  0  0  0  0
  -25.4264  -15.1729   20.4039 N   0  0  0  0  0  0
  -31.9865  -14.4789   20.3124 O   0  0  0  0  0  0
  -21.6577   -6.8775   21.4201 O   0  0  0  0  0  0
  -22.3534  -14.5512   20.6686 O   0  0  0  0  0  0
  -24.6180  -31.8668   23.2124 C   0  0  0  0  0  0
  -25.9070  -32.4817   23.8399 C   0  0  1  0  0  0
  -27.2326  -27.4310   20.0613 C   0  0  0  0  0  0
  -25.5915  -33.8608   24.2332 N   0  0  0  0  0  0
  -23.4032  -30.4909   21.5582 C   0  0  2  0  0  0
  -24.8451  -28.9682   20.1061 C   0  0  0  0  0  0
  -22.7451  -29.4602   22.5044 C   0  0  0  0  0  0
  -18.0284  -28.1316   22.8461 C   0  0  0  0  0  0
  -24.1471  -36.7290   23.2618 C   0  0  0  0  0  0
  -25.9350  -30.8356   21.3594 C   0  0  0  0  0  0
  -26.0122  -29.4742   20.6944 C   0  0  0  0  0  0
  -27.2060  -28.7126   20.6669 C   0  0  0  0  0  0
  -26.0304  -26.9344   19.5114 C   0  0  0  0  0  0
  -24.8522  -27.6987   19.5085 C   0  0  0  0  0  0
  -23.6057  -29.8305   20.1685 C   0  0  0  0  0  0
  -25.4094  -36.3081   24.0312 C   0  0  1  0  0  0
  -20.5883  -28.3586   23.1310 C   0  0  2  0  0  0
  -20.6753  -26.9333   22.5369 C   0  0  0  0  0  0
  -19.5742  -26.6359   21.5140 C   0  0  0  0  0  0
  -18.1914  -26.7876   22.1551 C   0  0  0  0  0  0
  -19.1541  -28.8774   23.2874 C   0  0  0  0  0  0
  -18.9451  -30.1393   23.8864 C   0  0  0  0  0  0
  -17.6453  -30.6513   24.0545 C   0  0  0  0  0  0
  -25.9038  -34.9453   23.5127 C   0  0  0  0  0  0
  -16.5339  -29.9016   23.6302 C   0  0  0  0  0  0
  -16.7272  -28.6436   23.0301 C   0  0  0  0  0  0
  -26.4499  -31.6585   25.0719 C   0  0  0  0  0  0
  -25.3771  -31.3595   26.1454 C   0  0  0  0  0  0
  -27.0371  -30.3067   24.6024 C   0  0  0  0  0  0
  -27.6046  -32.4331   25.7496 C   0  0  0  0  0  0
  -27.5571  -37.1789   24.8448 C   0  0  0  0  0  0
  -21.4176  -29.2991   22.3774 N   0  0  0  0  0  0
  -26.4259  -37.3791   23.9429 N   0  0  0  0  0  0
  -24.6723  -31.0768   22.1032 N   0  0  0  0  0  0
  -23.4240  -28.8125   23.3043 O   0  0  0  0  0  0
  -28.3684  -26.6491   20.1898 O   0  0  0  0  0  0
  -26.5580  -34.8899   22.4678 O   0  0  0  0  0  0
  -23.5370  -32.1412   23.7529 O   0  0  0  0  0  0
  -29.8290  -16.5992   22.7969 C   0  0  0  0  0  0
  -29.6514  -17.8051   23.4295 C   0  0  0  0  0  0
  -30.0321  -16.9411   21.4280 C   0  0  0  0  0  0
  -28.6430  -20.6548   23.7866 C   0  0  0  0  0  0
  -31.3171  -16.7876   19.2911 C   0  0  0  0  0  0
  -28.9287  -16.1689   19.3545 C   0  0  0  0  0  0
  -30.5599  -25.4198   21.1385 C   0  0  0  0  0  0
  -31.0301  -24.2613   18.9591 C   0  0  0  0  0  0
  -28.1113  -25.2453   18.0729 C   0  0  0  0  0  0
  -29.8834  -26.9544   18.4014 C   0  0  0  0  0  0
  -29.6868  -22.6018   21.4202 C   0  0  0  0  0  0
  -29.3060  -21.0937   21.3508 C   0  0  0  0  0  0
  -29.0571  -23.5305   20.3311 C   0  0  0  0  0  0
  -29.6287  -20.2829   22.6528 C   0  0  2  0  0  0
  -30.2300  -16.0805   20.1715 C   0  0  0  0  0  0
  -29.9015  -24.7860   19.8851 C   0  0  0  0  0  0
  -29.0252  -25.8964   19.1390 C   0  0  0  0  0  0
  -29.9210  -18.2648   21.2648 N   0  0  0  0  0  0
  -29.6802  -18.8122   22.4749 N   0  0  0  0  0  0
  -31.4445  -12.4109   19.1312 H   0  0  0  0  0  0
  -30.2911  -11.3935   19.9482 H   0  0  0  0  0  0
  -29.7509  -11.6699   17.4912 H   0  0  0  0  0  0
  -29.6042  -13.3957   17.7067 H   0  0  0  0  0  0
  -27.9062  -11.2016   18.9624 H   0  0  0  0  0  0
  -27.3376  -12.3785   17.8112 H   0  0  0  0  0  0
  -27.5336  -14.1304   19.3486 H   0  0  0  0  0  0
  -28.7064  -12.2686   21.4996 H   0  0  0  0  0  0
  -28.4515  -13.9893   21.6773 H   0  0  0  0  0  0
  -25.2659   -9.5581   22.4849 H   0  0  0  0  0  0
  -23.9903   -7.4525   22.7495 H   0  0  0  0  0  0
  -21.0791   -8.8672   19.8945 H   0  0  0  0  0  0
  -22.3609  -10.9606   19.6202 H   0  0  0  0  0  0
  -21.1898   -7.6068   23.9633 H   0  0  0  0  0  0
  -21.1559   -6.0503   25.9077 H   0  0  0  0  0  0
  -22.0596   -2.7536   23.2875 H   0  0  0  0  0  0
  -22.3994  -11.9815   22.4729 H   0  0  0  0  0  0
  -21.1042  -13.1262   22.2615 H   0  0  0  0  0  0
  -24.6603  -15.8291   20.5096 H   0  0  0  0  0  0
  -26.2771  -15.6063   20.0722 H   0  0  0  0  0  0
  -26.7146  -32.5541   23.1155 H   0  0  0  0  0  0
  -25.0058  -33.9766   25.0465 H   0  0  0  0  0  0
  -22.6875  -31.3048   21.4288 H   0  0  0  0  0  0
  -23.3742  -35.9608   23.3199 H   0  0  0  0  0  0
  -24.3545  -36.9035   22.2054 H   0  0  0  0  0  0
  -23.7221  -37.6445   23.6727 H   0  0  0  0  0  0
  -26.0380  -31.6059   20.5951 H   0  0  0  0  0  0
  -26.8303  -30.8950   21.9668 H   0  0  0  0  0  0
  -28.1064  -29.0935   21.1302 H   0  0  0  0  0  0
  -25.9518  -25.9322   19.1320 H   0  0  0  0  0  0
  -23.9490  -27.2905   19.0755 H   0  0  0  0  0  0
  -23.7038  -30.6086   19.4116 H   0  0  0  0  0  0
  -22.7326  -29.2453   19.8750 H   0  0  0  0  0  0
  -25.1270  -36.1910   25.0801 H   0  0  0  0  0  0
  -20.9918  -28.3108   24.1457 H   0  0  0  0  0  0
  -20.5608  -26.2177   23.3536 H   0  0  0  0  0  0
  -21.6628  -26.7324   22.1208 H   0  0  0  0  0  0
  -19.6854  -25.6290   21.1132 H   0  0  0  0  0  0
  -19.6642  -27.3183   20.6698 H   0  0  0  0  0  0
  -17.4179  -26.6616   21.3954 H   0  0  0  0  0  0
  -18.0288  -26.0003   22.8931 H   0  0  0  0  0  0
  -19.7935  -30.7209   24.2184 H   0  0  0  0  0  0
  -17.5005  -31.6182   24.5164 H   0  0  0  0  0  0
  -15.5331  -30.2881   23.7648 H   0  0  0  0  0  0
  -15.8680  -28.0763   22.6973 H   0  0  0  0  0  0
  -24.6016  -30.6857   25.7778 H   0  0  0  0  0  0
  -24.8826  -32.2692   26.4873 H   0  0  0  0  0  0
  -25.8164  -30.8802   27.0217 H   0  0  0  0  0  0
  -26.2891  -29.6785   24.1168 H   0  0  0  0  0  0
  -27.4336  -29.7321   25.4407 H   0  0  0  0  0  0
  -27.8629  -30.4443   23.9036 H   0  0  0  0  0  0
  -27.2681  -33.3740   26.1837 H   0  0  0  0  0  0
  -28.3953  -32.6713   25.0377 H   0  0  0  0  0  0
  -28.0559  -31.8591   26.5594 H   0  0  0  0  0  0
  -28.2498  -38.0176   24.7646 H   0  0  0  0  0  0
  -28.1176  -36.2721   24.6113 H   0  0  0  0  0  0
  -27.2288  -37.1245   25.8841 H   0  0  0  0  0  0
  -20.9347  -29.8805   21.7064 H   0  0  0  0  0  0
  -26.0113  -38.2830   24.1531 H   0  0  0  0  0  0
  -29.8144  -15.6229   23.2622 H   0  0  0  0  0  0
  -29.5037  -18.0207   24.4807 H   0  0  0  0  0  0
  -28.5928  -21.7285   23.9651 H   0  0  0  0  0  0
  -28.9329  -20.2107   24.7387 H   0  0  0  0  0  0
  -27.6290  -20.3193   23.5624 H   0  0  0  0  0  0
  -31.0005  -17.7654   18.9269 H   0  0  0  0  0  0
  -31.5736  -16.2002   18.4063 H   0  0  0  0  0  0
  -32.2362  -16.9563   19.8556 H   0  0  0  0  0  0
  -28.7895  -17.1638   18.9263 H   0  0  0  0  0  0
  -28.0705  -16.0196   20.0053 H   0  0  0  0  0  0
  -28.9191  -15.4738   18.5161 H   0  0  0  0  0  0
  -31.3502  -24.7982   21.5641 H   0  0  0  0  0  0
  -29.8225  -25.5856   21.9247 H   0  0  0  0  0  0
  -31.0127  -26.3843   20.9185 H   0  0  0  0  0  0
  -31.5816  -23.4362   19.4096 H   0  0  0  0  0  0
  -31.7663  -25.0295   18.7251 H   0  0  0  0  0  0
  -30.6424  -23.8901   18.0106 H   0  0  0  0  0  0
  -28.6947  -24.6903   17.3394 H   0  0  0  0  0  0
  -27.5595  -25.9925   17.5018 H   0  0  0  0  0  0
  -27.4011  -24.5416   18.5025 H   0  0  0  0  0  0
  -30.4501  -26.5189   17.5782 H   0  0  0  0  0  0
  -30.5856  -27.4613   19.0612 H   0  0  0  0  0  0
  -29.2543  -27.7292   17.9626 H   0  0  0  0  0  0
  -30.7741  -22.6567   21.3794 H   0  0  0  0  0  0
  -29.4119  -23.0158   22.3900 H   0  0  0  0  0  0
  -29.8552  -20.6802   20.5044 H   0  0  0  0  0  0
  -28.2513  -20.9747   21.1054 H   0  0  0  0  0  0
  -28.0884  -23.8694   20.7022 H   0  0  0  0  0  0
  -28.8259  -22.9257   19.4516 H   0  0  0  0  0  0
  -30.6299  -20.5774   22.9754 H   0  0  0  0  0  0
  1 25  1  0  0  0
  1 30  2  0  0  0
  1 85  1  0  0  0
  2  3  1  0  0  0
  2 25  1  0  0  0
  2 90  1  0  0  0
  2 91  1  0  0  0
  3  4  1  0  0  0
  3 92  1  0  0  0
  3 93  1  0  0  0
  4  5  1  0  0  0
  4 94  1  0  0  0
  4 95  1  0  0  0
  5  6  1  0  0  0
  5 26  1  0  0  0
  5 96  1  0  0  0
  6 25  1  0  0  0
  6 97  1  0  0  0
  6 98  1  0  0  0
  7  8  2  0  0  0
  7 26  1  0  0  0
  7 29  1  0  0  0
  8  9  1  0  0  0
  8 22  1  0  0  0
  9 10  1  0  0  0
  9 27  2  0  0  0
 10 11  2  0  0  0
 10 15  1  0  0  0
 11 12  1  0  0  0
 11 99  1  0  0  0
 12 13  2  0  0  0
 12100  1  0  0  0
 13 14  1  0  0  0
 13 31  1  0  0  0
 14 15  2  0  0  0
 14101  1  0  0  0
 15102  1  0  0  0
 16 17  2  0  0  0
 16 21  1  0  0  0
 16 31  1  0  0  0
 17 18  1  0  0  0
 17103  1  0  0  0
 18 19  2  0  0  0
 18104  1  0  0  0
 19 20  1  0  0  0
 19 24  1  0  0  0
 20 21  2  0  0  0
 20105  1  0  0  0
 21 23  1  0  0  0
 22 28  1  0  0  0
 22 32  2  0  0  0
 26 27  1  0  0  0
 28106  1  0  0  0
 28107  1  0  0  0
 29108  1  0  0  0
 29109  1  0  0  0
 33 34  1  0  0  0
 33 66  1  0  0  0
 33 70  2  0  0  0
 34 36  1  0  0  0
 34 59  1  0  0  0
 34110  1  0  0  0
 35 44  2  0  0  0
 35 45  1  0  0  0
 35 68  1  0  0  0
 36 56  1  0  0  0
 36111  1  0  0  0
 37 39  1  0  0  0
 37 47  1  0  0  0
 37 66  1  0  0  0
 37112  1  0  0  0
 38 43  2  0  0  0
 38 46  1  0  0  0
 38 47  1  0  0  0
 39 64  1  0  0  0
 39 67  2  0  0  0
 40 52  1  0  0  0
 40 53  2  0  0  0
 40 58  1  0  0  0
 41113  1  0  0  0
 41114  1  0  0  0
 41115  1  0  0  0
 41 48  1  0  0  0
 42 43  1  0  0  0
 42 66  1  0  0  0
 42116  1  0  0  0
 42117  1  0  0  0
 43 44  1  0  0  0
 44118  1  0  0  0
 45 46  2  0  0  0
 45119  1  0  0  0
 46120  1  0  0  0
 47121  1  0  0  0
 47122  1  0  0  0
 48 56  1  0  0  0
 48 65  1  0  0  0
 48123  1  0  0  0
 49 50  1  0  0  0
 49 53  1  0  0  0
 49 64  1  0  0  0
 49124  1  0  0  0
 50 51  1  0  0  0
 50125  1  0  0  0
 50126  1  0  0  0
 51 52  1  0  0  0
 51127  1  0  0  0
 51128  1  0  0  0
 52129  1  0  0  0
 52130  1  0  0  0
 53 54  1  0  0  0
 54 55  2  0  0  0
 54131  1  0  0  0
 55 57  1  0  0  0
 55132  1  0  0  0
 56 69  2  0  0  0
 57 58  2  0  0  0
 57133  1  0  0  0
 58134  1  0  0  0
 59 60  1  0  0  0
 59 61  1  0  0  0
 59 62  1  0  0  0
 60135  1  0  0  0
 60136  1  0  0  0
 60137  1  0  0  0
 61138  1  0  0  0
 61139  1  0  0  0
 61140  1  0  0  0
 62141  1  0  0  0
 62142  1  0  0  0
 62143  1  0  0  0
 63 65  1  0  0  0
 63144  1  0  0  0
 63145  1  0  0  0
 63146  1  0  0  0
 64147  1  0  0  0
 65148  1  0  0  0
 68 87  1  0  0  0
 71 72  2  0  0  0
 71 73  1  0  0  0
 71149  1  0  0  0
 72 89  1  0  0  0
 72150  1  0  0  0
 73 85  1  0  0  0
 73 88  2  0  0  0
 74151  1  0  0  0
 74152  1  0  0  0
 74153  1  0  0  0
 74 84  1  0  0  0
 75154  1  0  0  0
 75155  1  0  0  0
 75156  1  0  0  0
 75 85  1  0  0  0
 76 85  1  0  0  0
 76157  1  0  0  0
 76158  1  0  0  0
 76159  1  0  0  0
 77160  1  0  0  0
 77161  1  0  0  0
 77162  1  0  0  0
 77 86  1  0  0  0
 78 86  1  0  0  0
 78163  1  0  0  0
 78164  1  0  0  0
 78165  1  0  0  0
 79166  1  0  0  0
 79167  1  0  0  0
 79168  1  0  0  0
 79 87  1  0  0  0
 80 87  1  0  0  0
 80169  1  0  0  0
 80170  1  0  0  0
 80171  1  0  0  0
 81 82  1  0  0  0
 81 83  1  0  0  0
 81172  1  0  0  0
 81173  1  0  0  0
 82 84  1  0  0  0
 82174  1  0  0  0
 82175  1  0  0  0
 83 86  1  0  0  0
 83176  1  0  0  0
 83177  1  0  0  0
 84 89  1  0  0  0
 84178  1  0  0  0
 86 87  1  0  0  0
 88 89  1  0  0  0
M  ISO  4   1 100  68 101  85 100  87 101
M  END
> <chiral flag>
0

> <version>
0

> <s_m_source_file>
/data/baiqing/PycharmProjects/Reinvent-master-3.2/result/LINK_invent/BTK/process_docking_weight1_custom_sum_contain_oxygen_bond_distance_aromatic_linkinvent_7_9_3/rearranged_h_0068.sdf

> <i_m_source_file_index>
53

> <r_mmod_Potential_Energy-OPLS-2005>
210.203079223633

> <r_mmod_Stretch_Energy-OPLS-2005>
62.1194190979004

> <r_mmod_Bend_Energy-OPLS-2005>
170.130584716797

> <r_mmod_Torsional_Energy-OPLS-2005>
272.163848876953

> <r_mmod_Improper_Torsional_Energy-OPLS-2005>
10.8386583328247

> <r_mmod_Van_der_Waal_Energy-OPLS-2005>
165.572448730469

> <r_mmod_Electrostatic_Energy-OPLS-2005>
-357.347900390625

> <r_mmod_Solvation_Energy-OPLS-2005>
-172.633560180664

> <b_mmod_Minimization_Converged-OPLS-2005>
0

> <r_mmod_RMS_Derivative-OPLS-2005>
4.48862409591675

$$$$
58
                    3D
 Structure written by MMmdl.
166174  0  0  1  0            999 V2000
  -30.7070  -14.4909   20.5585 C   0  0  0  0  0  0
  -30.4257  -12.3139   19.4294 C   0  0  0  0  0  0
  -29.5037  -12.5069   18.2084 C   0  0  0  0  0  0
  -28.0246  -12.3548   18.6176 C   0  0  0  0  0  0
  -27.6594  -13.2033   19.8651 C   0  0  2  0  0  0
  -28.7032  -13.0104   20.9908 C   0  0  0  0  0  0
  -25.2514  -13.8084   20.5598 C   0  0  0  0  0  0
  -24.1805  -13.0368   20.9171 C   0  0  0  0  0  0
  -24.6394  -11.6859   20.8726 C   0  0  0  0  0  0
  -23.9063  -10.4260   21.0401 C   0  0  0  0  0  0
  -24.3616   -9.4194   21.9192 C   0  0  0  0  0  0
  -23.6287   -8.2234   22.0762 C   0  0  0  0  0  0
  -22.4266   -8.0276   21.3557 C   0  0  0  0  0  0
  -21.9903   -9.0249   20.4652 C   0  0  0  0  0  0
  -22.7231  -10.2123   20.3055 C   0  0  0  0  0  0
  -21.6850   -6.0730   22.5291 C   0  0  0  0  0  0
  -21.4011   -6.5636   23.8227 C   0  0  0  0  0  0
  -21.3654   -5.6793   24.9188 C   0  0  0  0  0  0
  -21.6041   -4.3054   24.7232 C   0  0  0  0  0  0
  -21.8822   -3.8144   23.4349 C   0  0  0  0  0  0
  -21.9195   -4.6963   22.3406 C   0  0  0  0  0  0
  -22.7843  -13.5203   21.1830 C   0  0  0  0  0  0
  -22.1657   -4.2151   21.0984 F   0  0  0  0  0  0
  -21.5629   -3.4535   25.7740 F   0  0  0  0  0  0
  -30.0376  -13.3094   20.4404 N   0  0  0  0  0  0
  -26.3000  -12.9291   20.3295 N   0  0  0  0  0  0
  -25.9332  -11.6452   20.5754 N   0  0  0  0  0  0
  -22.0458  -12.8241   22.0396 N   0  0  0  0  0  0
  -25.4013  -15.1778   20.3897 N   0  0  0  0  0  0
  -31.8295  -14.6789   20.0854 O   0  0  0  0  0  0
  -21.6637   -6.8871   21.4248 O   0  0  0  0  0  0
  -22.3546  -14.5516   20.6681 O   0  0  0  0  0  0
  -24.6133  -31.8670   23.2098 C   0  0  0  0  0  0
  -25.9019  -32.4817   23.8391 C   0  0  1  0  0  0
  -27.2411  -27.4484   20.0955 C   0  0  0  0  0  0
  -25.5874  -33.8616   24.2328 N   0  0  0  0  0  0
  -23.4023  -30.4893   21.5486 C   0  0  2  0  0  0
  -24.8518  -28.9524   20.1166 C   0  0  0  0  0  0
  -22.7412  -29.4652   22.4977 C   0  0  0  0  0  0
  -18.0275  -28.1387   22.8489 C   0  0  0  0  0  0
  -24.1487  -36.7319   23.2642 C   0  0  0  0  0  0
  -25.9302  -30.8352   21.3631 C   0  0  0  0  0  0
  -26.0095  -29.4694   20.7136 C   0  0  0  0  0  0
  -27.2091  -28.7232   20.7034 C   0  0  0  0  0  0
  -26.0722  -26.9401   19.4949 C   0  0  0  0  0  0
  -24.8761  -27.6846   19.5063 C   0  0  0  0  0  0
  -23.6126  -29.8181   20.1640 C   0  0  0  0  0  0
  -25.4102  -36.3105   24.0339 C   0  0  1  0  0  0
  -20.5860  -28.3669   23.1314 C   0  0  2  0  0  0
  -20.6755  -26.9401   22.5419 C   0  0  0  0  0  0
  -19.5730  -26.6382   21.5216 C   0  0  0  0  0  0
  -18.1910  -26.7930   22.1623 C   0  0  0  0  0  0
  -19.1523  -28.8845   23.2903 C   0  0  0  0  0  0
  -18.9455  -30.1448   23.8914 C   0  0  0  0  0  0
  -17.6456  -30.6589   24.0575 C   0  0  0  0  0  0
  -25.9028  -34.9471   23.5136 C   0  0  0  0  0  0
  -16.5350  -29.9099   23.6324 C   0  0  0  0  0  0
  -16.7264  -28.6517   23.0335 C   0  0  0  0  0  0
  -26.4457  -31.6595   25.0719 C   0  0  0  0  0  0
  -25.3748  -31.3698   26.1489 C   0  0  0  0  0  0
  -27.0288  -30.3037   24.6078 C   0  0  0  0  0  0
  -27.6027  -32.4327   25.7476 C   0  0  0  0  0  0
  -27.5582  -37.1809   24.8461 C   0  0  0  0  0  0
  -21.4140  -29.3038   22.3726 N   0  0  0  0  0  0
  -26.4288  -37.3782   23.9414 N   0  0  0  0  0  0
  -24.6665  -31.0789   22.0987 N   0  0  0  0  0  0
  -23.4183  -28.8192   23.3011 O   0  0  0  0  0  0
  -28.3877  -26.6895   20.0800 O   0  0  0  0  0  0
  -26.5596  -34.8918   22.4700 O   0  0  0  0  0  0
  -23.5319  -32.1418   23.7485 O   0  0  0  0  0  0
  -28.4659  -20.1278   21.0163 C   0  0  0  0  0  0
  -29.4371  -19.3263   20.3525 C   0  0  0  0  0  0
  -29.5795  -22.0758   20.4420 C   0  0  0  0  0  0
  -30.5850  -21.2830   19.8166 C   0  0  0  0  0  0
  -31.5904  -22.0349   17.6081 C   0  0  0  0  0  0
  -29.4790  -17.4096   18.7000 C   0  0  0  0  0  0
  -27.8515  -17.3518   20.5573 C   0  0  0  0  0  0
  -29.6513  -23.6151   20.4986 C   0  0  0  0  0  0
  -31.7932  -21.8944   19.1234 C   0  0  0  0  0  0
  -28.3665  -24.3539   20.9648 C   0  0  0  0  0  0
  -30.2942  -16.9581   21.0596 C   0  0  0  0  0  0
  -28.5538  -25.8671   21.2422 C   0  0  0  0  0  0
  -29.2864  -17.7831   20.1875 C   0  0  0  0  0  0
  -28.5370  -21.4801   21.0686 N   0  0  0  0  0  0
  -30.5168  -19.9229   19.7807 N   0  0  0  0  0  0
  -29.9959  -15.5025   21.0886 N   0  0  0  0  0  0
  -31.4722  -12.4047   19.1359 H   0  0  0  0  0  0
  -30.3155  -11.3063   19.8347 H   0  0  0  0  0  0
  -29.7572  -11.7826   17.4339 H   0  0  0  0  0  0
  -29.6685  -13.4922   17.7698 H   0  0  0  0  0  0
  -27.8489  -11.2985   18.8238 H   0  0  0  0  0  0
  -27.3745  -12.6124   17.7811 H   0  0  0  0  0  0
  -27.6937  -14.2417   19.5444 H   0  0  0  0  0  0
  -28.6787  -11.9831   21.3535 H   0  0  0  0  0  0
  -28.4610  -13.6295   21.8555 H   0  0  0  0  0  0
  -25.2761   -9.5693   22.4765 H   0  0  0  0  0  0
  -24.0002   -7.4636   22.7489 H   0  0  0  0  0  0
  -21.0833   -8.8771   19.8968 H   0  0  0  0  0  0
  -22.3688  -10.9668   19.6166 H   0  0  0  0  0  0
  -21.1990   -7.6147   23.9733 H   0  0  0  0  0  0
  -21.1474   -6.0513   25.9093 H   0  0  0  0  0  0
  -22.0601   -2.7603   23.2856 H   0  0  0  0  0  0
  -22.4032  -11.9910   22.4829 H   0  0  0  0  0  0
  -21.1091  -13.1339   22.2573 H   0  0  0  0  0  0
  -24.6209  -15.8177   20.4902 H   0  0  0  0  0  0
  -26.2378  -15.6262   20.0417 H   0  0  0  0  0  0
  -26.7094  -32.5527   23.1162 H   0  0  0  0  0  0
  -25.0024  -33.9777   25.0470 H   0  0  0  0  0  0
  -22.6911  -31.3059   21.4065 H   0  0  0  0  0  0
  -23.3727  -35.9674   23.3303 H   0  0  0  0  0  0
  -24.3604  -36.8933   22.2060 H   0  0  0  0  0  0
  -23.7252  -37.6530   23.6659 H   0  0  0  0  0  0
  -26.0465  -31.5996   20.5927 H   0  0  0  0  0  0
  -26.8175  -30.8902   21.9817 H   0  0  0  0  0  0
  -28.1029  -29.1217   21.1629 H   0  0  0  0  0  0
  -26.0887  -25.9669   19.0240 H   0  0  0  0  0  0
  -23.9859  -27.2790   19.0444 H   0  0  0  0  0  0
  -23.7250  -30.5916   19.4033 H   0  0  0  0  0  0
  -22.7375  -29.2373   19.8669 H   0  0  0  0  0  0
  -25.1280  -36.1969   25.0831 H   0  0  0  0  0  0
  -20.9971  -28.3231   24.1424 H   0  0  0  0  0  0
  -20.5650  -26.2283   23.3606 H   0  0  0  0  0  0
  -21.6632  -26.7434   22.1220 H   0  0  0  0  0  0
  -19.6895  -25.6293   21.1241 H   0  0  0  0  0  0
  -19.6674  -27.3202   20.6746 H   0  0  0  0  0  0
  -17.4187  -26.6680   21.4022 H   0  0  0  0  0  0
  -18.0316  -26.0078   22.9023 H   0  0  0  0  0  0
  -19.7934  -30.7259   24.2292 H   0  0  0  0  0  0
  -17.5015  -31.6268   24.5179 H   0  0  0  0  0  0
  -15.5351  -30.3008   23.7636 H   0  0  0  0  0  0
  -15.8661  -28.0851   22.7023 H   0  0  0  0  0  0
  -24.5888  -30.7077   25.7841 H   0  0  0  0  0  0
  -24.8984  -32.2864   26.4984 H   0  0  0  0  0  0
  -25.8129  -30.8832   27.0219 H   0  0  0  0  0  0
  -26.2829  -29.6792   24.1144 H   0  0  0  0  0  0
  -27.4089  -29.7268   25.4521 H   0  0  0  0  0  0
  -27.8653  -30.4367   23.9210 H   0  0  0  0  0  0
  -27.2623  -33.3598   26.2102 H   0  0  0  0  0  0
  -28.3803  -32.6940   25.0288 H   0  0  0  0  0  0
  -28.0738  -31.8434   26.5354 H   0  0  0  0  0  0
  -28.2588  -38.0114   24.7514 H   0  0  0  0  0  0
  -28.1091  -36.2649   24.6274 H   0  0  0  0  0  0
  -27.2323  -37.1449   25.8870 H   0  0  0  0  0  0
  -20.9286  -29.8796   21.6985 H   0  0  0  0  0  0
  -26.0169  -38.2863   24.1406 H   0  0  0  0  0  0
  -27.5951  -19.7074   21.4940 H   0  0  0  0  0  0
  -32.4645  -22.4883   17.1422 H   0  0  0  0  0  0
  -30.7291  -22.6632   17.3775 H   0  0  0  0  0  0
  -31.4300  -21.0633   17.1389 H   0  0  0  0  0  0
  -28.7819  -17.9512   18.0607 H   0  0  0  0  0  0
  -29.3262  -16.3459   18.5223 H   0  0  0  0  0  0
  -30.4861  -17.6452   18.3568 H   0  0  0  0  0  0
  -27.1046  -17.8936   19.9748 H   0  0  0  0  0  0
  -27.6323  -17.5024   21.6154 H   0  0  0  0  0  0
  -27.6993  -16.3001   20.3524 H   0  0  0  0  0  0
  -29.9198  -23.9923   19.5116 H   0  0  0  0  0  0
  -30.4760  -23.8774   21.1614 H   0  0  0  0  0  0
  -32.6638  -21.2649   19.3152 H   0  0  0  0  0  0
  -32.0351  -22.8623   19.5608 H   0  0  0  0  0  0
  -28.0494  -23.9056   21.9070 H   0  0  0  0  0  0
  -27.5464  -24.1902   20.2648 H   0  0  0  0  0  0
  -30.2515  -17.3140   22.0897 H   0  0  0  0  0  0
  -31.3170  -17.1422   20.7250 H   0  0  0  0  0  0
  -29.5433  -26.0518   21.6619 H   0  0  0  0  0  0
  -27.8529  -26.1664   22.0254 H   0  0  0  0  0  0
  -29.0839  -15.2461   21.4319 H   0  0  0  0  0  0
  1 25  1  0  0  0
  1 30  2  0  0  0
  1 86  1  0  0  0
  2  3  1  0  0  0
  2 25  1  0  0  0
  2 87  1  0  0  0
  2 88  1  0  0  0
  3  4  1  0  0  0
  3 89  1  0  0  0
  3 90  1  0  0  0
  4  5  1  0  0  0
  4 91  1  0  0  0
  4 92  1  0  0  0
  5  6  1  0  0  0
  5 26  1  0  0  0
  5 93  1  0  0  0
  6 25  1  0  0  0
  6 94  1  0  0  0
  6 95  1  0  0  0
  7  8  2  0  0  0
  7 26  1  0  0  0
  7 29  1  0  0  0
  8  9  1  0  0  0
  8 22  1  0  0  0
  9 10  1  0  0  0
  9 27  2  0  0  0
 10 11  2  0  0  0
 10 15  1  0  0  0
 11 12  1  0  0  0
 11 96  1  0  0  0
 12 13  2  0  0  0
 12 97  1  0  0  0
 13 14  1  0  0  0
 13 31  1  0  0  0
 14 15  2  0  0  0
 14 98  1  0  0  0
 15 99  1  0  0  0
 16 17  2  0  0  0
 16 21  1  0  0  0
 16 31  1  0  0  0
 17 18  1  0  0  0
 17100  1  0  0  0
 18 19  2  0  0  0
 18101  1  0  0  0
 19 20  1  0  0  0
 19 24  1  0  0  0
 20 21  2  0  0  0
 20102  1  0  0  0
 21 23  1  0  0  0
 22 28  1  0  0  0
 22 32  2  0  0  0
 26 27  1  0  0  0
 28103  1  0  0  0
 28104  1  0  0  0
 29105  1  0  0  0
 29106  1  0  0  0
 33 34  1  0  0  0
 33 66  1  0  0  0
 33 70  2  0  0  0
 34 36  1  0  0  0
 34 59  1  0  0  0
 34107  1  0  0  0
 35 44  2  0  0  0
 35 45  1  0  0  0
 35 68  1  0  0  0
 36 56  1  0  0  0
 36108  1  0  0  0
 37 39  1  0  0  0
 37 47  1  0  0  0
 37 66  1  0  0  0
 37109  1  0  0  0
 38 43  2  0  0  0
 38 46  1  0  0  0
 38 47  1  0  0  0
 39 64  1  0  0  0
 39 67  2  0  0  0
 40 52  1  0  0  0
 40 53  2  0  0  0
 40 58  1  0  0  0
 41110  1  0  0  0
 41111  1  0  0  0
 41112  1  0  0  0
 41 48  1  0  0  0
 42 43  1  0  0  0
 42 66  1  0  0  0
 42113  1  0  0  0
 42114  1  0  0  0
 43 44  1  0  0  0
 44115  1  0  0  0
 45 46  2  0  0  0
 45116  1  0  0  0
 46117  1  0  0  0
 47118  1  0  0  0
 47119  1  0  0  0
 48 56  1  0  0  0
 48 65  1  0  0  0
 48120  1  0  0  0
 49 50  1  0  0  0
 49 53  1  0  0  0
 49 64  1  0  0  0
 49121  1  0  0  0
 50 51  1  0  0  0
 50122  1  0  0  0
 50123  1  0  0  0
 51 52  1  0  0  0
 51124  1  0  0  0
 51125  1  0  0  0
 52126  1  0  0  0
 52127  1  0  0  0
 53 54  1  0  0  0
 54 55  2  0  0  0
 54128  1  0  0  0
 55 57  1  0  0  0
 55129  1  0  0  0
 56 69  2  0  0  0
 57 58  2  0  0  0
 57130  1  0  0  0
 58131  1  0  0  0
 59 60  1  0  0  0
 59 61  1  0  0  0
 59 62  1  0  0  0
 60132  1  0  0  0
 60133  1  0  0  0
 60134  1  0  0  0
 61135  1  0  0  0
 61136  1  0  0  0
 61137  1  0  0  0
 62138  1  0  0  0
 62139  1  0  0  0
 62140  1  0  0  0
 63 65  1  0  0  0
 63141  1  0  0  0
 63142  1  0  0  0
 63143  1  0  0  0
 64144  1  0  0  0
 65145  1  0  0  0
 68 82  1  0  0  0
 71 72  2  0  0  0
 71 84  1  0  0  0
 71146  1  0  0  0
 72 83  1  0  0  0
 72 85  1  0  0  0
 73 74  1  0  0  0
 73 78  1  0  0  0
 73 84  2  0  0  0
 74 79  1  0  0  0
 74 85  2  0  0  0
 75 79  1  0  0  0
 75147  1  0  0  0
 75148  1  0  0  0
 75149  1  0  0  0
 76150  1  0  0  0
 76151  1  0  0  0
 76152  1  0  0  0
 76 83  1  0  0  0
 77 83  1  0  0  0
 77153  1  0  0  0
 77154  1  0  0  0
 77155  1  0  0  0
 78 80  1  0  0  0
 78156  1  0  0  0
 78157  1  0  0  0
 79158  1  0  0  0
 79159  1  0  0  0
 80 82  1  0  0  0
 80160  1  0  0  0
 80161  1  0  0  0
 81 83  1  0  0  0
 81 86  1  0  0  0
 81162  1  0  0  0
 81163  1  0  0  0
 82164  1  0  0  0
 82165  1  0  0  0
 86166  1  0  0  0
M  ISO  4   1 100  68 101  82 101  86 100
M  END
> <chiral flag>
0

> <version>
0

> <s_m_source_file>
/data/baiqing/PycharmProjects/Reinvent-master-3.2/result/LINK_invent/BTK/process_docking_weight1_custom_sum_contain_oxygen_bond_distance_aromatic_linkinvent_7_9_3/rearranged_h_0068.sdf

> <i_m_source_file_index>
54

> <r_mmod_Potential_Energy-OPLS-2005>
-39.2462692260742

> <r_mmod_Stretch_Energy-OPLS-2005>
45.8899421691895

> <r_mmod_Bend_Energy-OPLS-2005>
102.827835083008

> <r_mmod_Torsional_Energy-OPLS-2005>
227.162078857422

> <r_mmod_Improper_Torsional_Energy-OPLS-2005>
4.00405979156494

> <r_mmod_Van_der_Waal_Energy-OPLS-2005>
161.211486816406

> <r_mmod_Electrostatic_Energy-OPLS-2005>
-379.581604003906

> <r_mmod_Solvation_Energy-OPLS-2005>
-213.917755126953

> <b_mmod_Minimization_Converged-OPLS-2005>
0

> <r_mmod_RMS_Derivative-OPLS-2005>
2.0469172000885

$$$$
59
                    3D
 Structure written by MMmdl.
174182  0  0  1  0            999 V2000
  -29.3915  -15.8298   20.5217 C   0  0  0  0  0  0
  -30.2850  -13.3524   19.6313 C   0  0  0  0  0  0
  -29.5202  -12.7633   18.3927 C   0  0  0  0  0  0
  -28.1040  -12.2769   18.7636 C   0  0  0  0  0  0
  -27.5040  -13.2178   19.8224 C   0  0  2  0  0  0
  -28.4368  -13.4164   21.0071 C   0  0  0  0  0  0
  -25.1535  -13.7650   20.5209 C   0  0  0  0  0  0
  -24.1149  -12.9984   20.9226 C   0  0  0  0  0  0
  -24.5965  -11.6554   20.8853 C   0  0  0  0  0  0
  -23.8808  -10.4029   21.0514 C   0  0  0  0  0  0
  -24.3487   -9.4015   21.9255 C   0  0  0  0  0  0
  -23.6209   -8.2050   22.0776 C   0  0  0  0  0  0
  -22.4193   -8.0127   21.3540 C   0  0  0  0  0  0
  -21.9777   -9.0067   20.4635 C   0  0  0  0  0  0
  -22.7051  -10.1944   20.3081 C   0  0  0  0  0  0
  -21.6810   -6.0671   22.5289 C   0  0  0  0  0  0
  -21.3970   -6.5602   23.8210 C   0  0  0  0  0  0
  -21.3626   -5.6764   24.9175 C   0  0  0  0  0  0
  -21.6037   -4.3028   24.7230 C   0  0  0  0  0  0
  -21.8832   -3.8111   23.4356 C   0  0  0  0  0  0
  -21.9189   -4.6916   22.3411 C   0  0  0  0  0  0
  -22.7269  -13.4894   21.1999 C   0  0  0  0  0  0
  -22.1669   -4.2118   21.0985 F   0  0  0  0  0  0
  -21.5636   -3.4514   25.7744 F   0  0  0  0  0  0
  -29.4119  -14.3433   20.4595 N   0  0  0  0  0  0
  -26.1948  -12.8928   20.2825 N   0  0  0  0  0  0
  -25.8823  -11.6129   20.5697 N   0  0  0  0  0  0
  -22.0015  -12.7978   22.0686 N   0  0  0  0  0  0
  -25.2479  -15.1217   20.3014 N   0  0  0  0  0  0
  -30.6202  -16.0526   20.2864 O   0  0  0  0  0  0
  -21.6554   -6.8764   21.4238 O   0  0  0  0  0  0
  -22.3041  -14.5273   20.6891 O   0  0  0  0  0  0
  -24.6408  -31.9066   23.2229 C   0  0  0  0  0  0
  -25.9290  -32.5000   23.8584 C   0  0  1  0  0  0
  -27.1629  -27.4373   20.0528 C   0  0  0  0  0  0
  -25.6144  -33.8766   24.2505 N   0  0  0  0  0  0
  -23.4567  -30.5361   21.5768 C   0  0  2  0  0  0
  -24.8649  -29.0651   20.0688 C   0  0  0  0  0  0
  -22.9577  -29.4361   22.5215 C   0  0  0  0  0  0
  -18.3282  -27.8097   22.3171 C   0  0  0  0  0  0
  -24.1501  -36.7348   23.2612 C   0  0  0  0  0  0
  -25.9787  -30.8353   21.4137 C   0  0  0  0  0  0
  -26.0187  -29.4792   20.7463 C   0  0  0  0  0  0
  -27.1679  -28.6494   20.7814 C   0  0  0  0  0  0
  -26.0932  -27.2043   19.1892 C   0  0  0  0  0  0
  -24.8991  -27.9215   19.2712 C   0  0  0  0  0  0
  -23.6510  -29.9572   20.1538 C   0  0  0  0  0  0
  -25.4121  -36.3178   24.0327 C   0  0  1  0  0  0
  -21.0516  -28.0368   23.1192 C   0  0  2  0  0  0
  -21.5992  -26.1513   23.5346 C   0  0  0  0  0  0
  -19.7301  -24.7847   22.6306 C   0  0  0  0  0  0
  -18.4741  -26.1013   21.8702 C   0  0  0  0  0  0
  -19.4663  -28.6358   22.8652 C   0  0  0  0  0  0
  -19.1496  -29.8700   23.5618 C   0  0  0  0  0  0
  -17.8379  -30.3519   23.7926 C   0  0  0  0  0  0
  -25.9083  -34.9562   23.5158 C   0  0  0  0  0  0
  -16.7622  -29.5732   23.3428 C   0  0  0  0  0  0
  -17.0153  -28.3497   22.6480 C   0  0  0  0  0  0
  -26.4557  -31.6662   25.0883 C   0  0  0  0  0  0
  -25.3765  -31.3768   26.1552 C   0  0  0  0  0  0
  -27.0361  -30.3075   24.6312 C   0  0  0  0  0  0
  -27.6111  -32.4323   25.7722 C   0  0  0  0  0  0
  -27.5591  -37.1844   24.8463 C   0  0  0  0  0  0
  -21.7301  -29.0308   22.3302 N   0  0  0  0  0  0
  -26.4298  -37.3855   23.9417 N   0  0  0  0  0  0
  -24.7089  -31.1306   22.1102 N   0  0  0  0  0  0
  -23.6660  -28.9085   23.3769 O   0  0  0  0  0  0
  -28.1413  -26.4766   20.1611 O   0  0  0  0  0  0
  -26.5546  -34.8958   22.4650 O   0  0  0  0  0  0
  -23.5559  -32.1747   23.7590 O   0  0  0  0  0  0
  -24.2906  -21.9924   21.3585 C   0  0  0  0  0  0
  -22.5203  -24.1195   21.5227 C   0  0  0  0  0  0
  -22.2874  -26.7586   20.8097 C   0  0  0  0  0  0
  -19.4999  -26.4571   23.9949 C   0  0  0  0  0  0
  -20.5076  -25.5174   20.0255 C   0  0  0  0  0  0
  -27.1653  -16.6623   21.9462 C   0  0  0  0  0  0
  -27.2184  -17.1064   19.3173 C   0  0  0  0  0  0
  -25.4173  -20.3920   20.8212 C   0  0  0  0  0  0
  -27.1102  -19.1488   21.0253 C   0  0  0  0  0  0
  -25.2654  -24.2413   19.1248 C   0  0  0  0  0  0
  -26.3273  -24.4796   20.2740 C   0  0  0  0  0  0
  -23.9341  -23.4833   19.3567 C   0  0  0  0  0  0
  -27.7491  -25.0887   19.8670 C   0  0  0  0  0  0
  -21.2494  -25.7744   21.4038 C   0  0  0  0  0  0
  -27.8845  -17.2138   20.7046 C   0  0  0  0  0  0
  -23.6292  -22.1548   22.5492 N   0  0  0  0  0  0
  -22.6716  -23.3219   22.6386 N   0  0  0  0  0  0
  -23.5810  -23.2420   20.7332 N   0  0  0  0  0  0
  -31.1768  -13.8639   19.2666 H   0  0  0  0  0  0
  -30.6785  -12.5502   20.2576 H   0  0  0  0  0  0
  -30.0968  -11.9661   17.9244 H   0  0  0  0  0  0
  -29.4258  -13.5524   17.6436 H   0  0  0  0  0  0
  -28.1739  -11.2688   19.1759 H   0  0  0  0  0  0
  -27.4673  -12.2116   17.8815 H   0  0  0  0  0  0
  -27.3710  -14.1552   19.2944 H   0  0  0  0  0  0
  -28.8455  -12.4656   21.3510 H   0  0  0  0  0  0
  -27.9507  -13.8154   21.8878 H   0  0  0  0  0  0
  -25.2651   -9.5546   22.4795 H   0  0  0  0  0  0
  -23.9932   -7.4438   22.7497 H   0  0  0  0  0  0
  -21.0706   -8.8565   19.8947 H   0  0  0  0  0  0
  -22.3530  -10.9496   19.6188 H   0  0  0  0  0  0
  -21.1932   -7.6108   23.9693 H   0  0  0  0  0  0
  -21.1445   -6.0497   25.9074 H   0  0  0  0  0  0
  -22.0652   -2.7584   23.2848 H   0  0  0  0  0  0
  -22.3744  -11.9666   22.5038 H   0  0  0  0  0  0
  -21.0666  -13.0981   22.3095 H   0  0  0  0  0  0
  -24.4234  -15.7046   20.3901 H   0  0  0  0  0  0
  -26.0526  -15.6253   19.9518 H   0  0  0  0  0  0
  -26.7403  -32.5686   23.1388 H   0  0  0  0  0  0
  -25.0384  -33.9962   25.0710 H   0  0  0  0  0  0
  -22.6915  -31.3133   21.5178 H   0  0  0  0  0  0
  -23.3757  -35.9688   23.3289 H   0  0  0  0  0  0
  -24.3594  -36.8942   22.2021 H   0  0  0  0  0  0
  -23.7246  -37.6558   23.6604 H   0  0  0  0  0  0
  -26.1378  -31.5997   20.6526 H   0  0  0  0  0  0
  -26.8524  -30.8527   22.0530 H   0  0  0  0  0  0
  -28.0243  -28.9186   21.3826 H   0  0  0  0  0  0
  -26.2193  -26.4814   18.4043 H   0  0  0  0  0  0
  -24.0653  -27.6769   18.6297 H   0  0  0  0  0  0
  -23.8006  -30.7816   19.4564 H   0  0  0  0  0  0
  -22.7548  -29.4566   19.7958 H   0  0  0  0  0  0
  -25.1267  -36.2047   25.0814 H   0  0  0  0  0  0
  -21.2603  -28.4635   24.1053 H   0  0  0  0  0  0
  -21.7305  -26.0160   24.6140 H   0  0  0  0  0  0
  -22.6414  -25.9342   23.2825 H   0  0  0  0  0  0
  -19.2254  -24.1889   23.4005 H   0  0  0  0  0  0
  -19.9527  -23.9166   22.0016 H   0  0  0  0  0  0
  -18.2738  -26.0033   20.8088 H   0  0  0  0  0  0
  -17.5162  -25.7025   22.2051 H   0  0  0  0  0  0
  -19.9655  -30.4365   23.9908 H   0  0  0  0  0  0
  -17.6715  -31.2731   24.3339 H   0  0  0  0  0  0
  -15.7459  -29.8885   23.5378 H   0  0  0  0  0  0
  -16.1534  -27.7538   22.3820 H   0  0  0  0  0  0
  -24.5920  -30.7175   25.7812 H   0  0  0  0  0  0
  -24.9005  -32.2939   26.5044 H   0  0  0  0  0  0
  -25.8062  -30.8850   27.0297 H   0  0  0  0  0  0
  -26.2957  -29.6912   24.1201 H   0  0  0  0  0  0
  -27.3873  -29.7235   25.4835 H   0  0  0  0  0  0
  -27.8935  -30.4308   23.9688 H   0  0  0  0  0  0
  -27.2717  -33.3592   26.2364 H   0  0  0  0  0  0
  -28.3963  -32.6934   25.0614 H   0  0  0  0  0  0
  -28.0744  -31.8397   26.5624 H   0  0  0  0  0  0
  -28.2592  -38.0155   24.7533 H   0  0  0  0  0  0
  -28.1102  -36.2685   24.6257 H   0  0  0  0  0  0
  -27.2318  -37.1462   25.8868 H   0  0  0  0  0  0
  -21.1787  -29.4852   21.6154 H   0  0  0  0  0  0
  -26.0181  -38.2926   24.1446 H   0  0  0  0  0  0
  -21.8163  -27.6266   20.3609 H   0  0  0  0  0  0
  -22.8484  -26.2920   20.0032 H   0  0  0  0  0  0
  -23.0854  -27.0257   21.4948 H   0  0  0  0  0  0
  -19.7171  -27.2132   24.7641 H   0  0  0  0  0  0
  -19.6572  -25.6894   24.7742 H   0  0  0  0  0  0
  -18.4170  -26.2997   24.1219 H   0  0  0  0  0  0
  -21.1909  -25.2543   19.2203 H   0  0  0  0  0  0
  -19.9797  -26.4011   19.6688 H   0  0  0  0  0  0
  -19.8189  -24.6734   20.0300 H   0  0  0  0  0  0
  -26.1658  -17.0809   22.0788 H   0  0  0  0  0  0
  -27.7397  -16.9200   22.8373 H   0  0  0  0  0  0
  -27.0497  -15.5938   21.9606 H   0  0  0  0  0  0
  -27.6371  -17.8691   18.6584 H   0  0  0  0  0  0
  -26.1518  -17.3198   19.3662 H   0  0  0  0  0  0
  -27.3734  -16.1676   18.7961 H   0  0  0  0  0  0
  -24.6544  -19.6170   20.8832 H   0  0  0  0  0  0
  -25.4682  -20.5648   19.7465 H   0  0  0  0  0  0
  -27.2964  -19.2685   22.0931 H   0  0  0  0  0  0
  -27.8893  -19.7719   20.5850 H   0  0  0  0  0  0
  -24.8448  -25.1705   18.7791 H   0  0  0  0  0  0
  -25.7583  -23.8099   18.2507 H   0  0  0  0  0  0
  -26.5254  -23.5020   20.7126 H   0  0  0  0  0  0
  -25.8846  -25.0640   21.0826 H   0  0  0  0  0  0
  -23.9851  -22.5142   18.8614 H   0  0  0  0  0  0
  -23.1044  -23.9996   18.8727 H   0  0  0  0  0  0
  -27.9597  -24.8808   18.8158 H   0  0  0  0  0  0
  -28.4923  -24.5007   20.4094 H   0  0  0  0  0  0
  1 25  1  0  0  0
  1 30  2  0  0  0
  1 85  1  0  0  0
  2  3  1  0  0  0
  2 25  1  0  0  0
  2 89  1  0  0  0
  2 90  1  0  0  0
  3  4  1  0  0  0
  3 91  1  0  0  0
  3 92  1  0  0  0
  4  5  1  0  0  0
  4 93  1  0  0  0
  4 94  1  0  0  0
  5  6  1  0  0  0
  5 26  1  0  0  0
  5 95  1  0  0  0
  6 25  1  0  0  0
  6 96  1  0  0  0
  6 97  1  0  0  0
  7  8  2  0  0  0
  7 26  1  0  0  0
  7 29  1  0  0  0
  8  9  1  0  0  0
  8 22  1  0  0  0
  9 10  1  0  0  0
  9 27  2  0  0  0
 10 11  2  0  0  0
 10 15  1  0  0  0
 11 12  1  0  0  0
 11 98  1  0  0  0
 12 13  2  0  0  0
 12 99  1  0  0  0
 13 14  1  0  0  0
 13 31  1  0  0  0
 14 15  2  0  0  0
 14100  1  0  0  0
 15101  1  0  0  0
 16 17  2  0  0  0
 16 21  1  0  0  0
 16 31  1  0  0  0
 17 18  1  0  0  0
 17102  1  0  0  0
 18 19  2  0  0  0
 18103  1  0  0  0
 19 20  1  0  0  0
 19 24  1  0  0  0
 20 21  2  0  0  0
 20104  1  0  0  0
 21 23  1  0  0  0
 22 28  1  0  0  0
 22 32  2  0  0  0
 26 27  1  0  0  0
 28105  1  0  0  0
 28106  1  0  0  0
 29107  1  0  0  0
 29108  1  0  0  0
 33 34  1  0  0  0
 33 66  1  0  0  0
 33 70  2  0  0  0
 34 36  1  0  0  0
 34 59  1  0  0  0
 34109  1  0  0  0
 35 44  2  0  0  0
 35 45  1  0  0  0
 35 68  1  0  0  0
 36 56  1  0  0  0
 36110  1  0  0  0
 37 39  1  0  0  0
 37 47  1  0  0  0
 37 66  1  0  0  0
 37111  1  0  0  0
 38 43  2  0  0  0
 38 46  1  0  0  0
 38 47  1  0  0  0
 39 64  1  0  0  0
 39 67  2  0  0  0
 40 52  1  0  0  0
 40 53  2  0  0  0
 40 58  1  0  0  0
 41112  1  0  0  0
 41113  1  0  0  0
 41114  1  0  0  0
 41 48  1  0  0  0
 42 43  1  0  0  0
 42 66  1  0  0  0
 42115  1  0  0  0
 42116  1  0  0  0
 43 44  1  0  0  0
 44117  1  0  0  0
 45 46  2  0  0  0
 45118  1  0  0  0
 46119  1  0  0  0
 47120  1  0  0  0
 47121  1  0  0  0
 48 56  1  0  0  0
 48 65  1  0  0  0
 48122  1  0  0  0
 49 50  1  0  0  0
 49 53  1  0  0  0
 49 64  1  0  0  0
 49123  1  0  0  0
 50 51  1  0  0  0
 50124  1  0  0  0
 50125  1  0  0  0
 51 52  1  0  0  0
 51126  1  0  0  0
 51127  1  0  0  0
 52128  1  0  0  0
 52129  1  0  0  0
 53 54  1  0  0  0
 54 55  2  0  0  0
 54130  1  0  0  0
 55 57  1  0  0  0
 55131  1  0  0  0
 56 69  2  0  0  0
 57 58  2  0  0  0
 57132  1  0  0  0
 58133  1  0  0  0
 59 60  1  0  0  0
 59 61  1  0  0  0
 59 62  1  0  0  0
 60134  1  0  0  0
 60135  1  0  0  0
 60136  1  0  0  0
 61137  1  0  0  0
 61138  1  0  0  0
 61139  1  0  0  0
 62140  1  0  0  0
 62141  1  0  0  0
 62142  1  0  0  0
 63 65  1  0  0  0
 63143  1  0  0  0
 63144  1  0  0  0
 63145  1  0  0  0
 64146  1  0  0  0
 65147  1  0  0  0
 68 83  1  0  0  0
 71 78  1  0  0  0
 71 86  2  0  0  0
 71 88  1  0  0  0
 72 84  1  0  0  0
 72 87  2  0  0  0
 72 88  1  0  0  0
 73148  1  0  0  0
 73149  1  0  0  0
 73150  1  0  0  0
 73 84  1  0  0  0
 74 84  1  0  0  0
 74151  1  0  0  0
 74152  1  0  0  0
 74153  1  0  0  0
 75 84  1  0  0  0
 75154  1  0  0  0
 75155  1  0  0  0
 75156  1  0  0  0
 76157  1  0  0  0
 76158  1  0  0  0
 76159  1  0  0  0
 76 85  1  0  0  0
 77 85  1  0  0  0
 77160  1  0  0  0
 77161  1  0  0  0
 77162  1  0  0  0
 78 79  1  0  0  0
 78163  1  0  0  0
 78164  1  0  0  0
 79 85  1  0  0  0
 79165  1  0  0  0
 79166  1  0  0  0
 80 81  1  0  0  0
 80 82  1  0  0  0
 80167  1  0  0  0
 80168  1  0  0  0
 81 83  1  0  0  0
 81169  1  0  0  0
 81170  1  0  0  0
 82 88  1  0  0  0
 82171  1  0  0  0
 82172  1  0  0  0
 83173  1  0  0  0
 83174  1  0  0  0
 86 87  1  0  0  0
M  ISO  4   1 100  68 101  83 101  85 100
M  END
> <chiral flag>
0

> <version>
0

> <s_m_source_file>
/data/baiqing/PycharmProjects/Reinvent-master-3.2/result/LINK_invent/BTK/process_docking_weight1_custom_sum_contain_oxygen_bond_distance_aromatic_linkinvent_7_9_3/rearranged_h_0068.sdf

> <i_m_source_file_index>
55

> <r_mmod_Potential_Energy-OPLS-2005>
12424.935546875

> <r_mmod_Stretch_Energy-OPLS-2005>
7116.2333984375

> <r_mmod_Bend_Energy-OPLS-2005>
1356.42932128906

> <r_mmod_Torsional_Energy-OPLS-2005>
331.394409179688

> <r_mmod_Improper_Torsional_Energy-OPLS-2005>
13.1039438247681

> <r_mmod_Van_der_Waal_Energy-OPLS-2005>
1967.24682617188

> <r_mmod_Electrostatic_Energy-OPLS-2005>
-332.669097900391

> <r_mmod_Solvation_Energy-OPLS-2005>
-215.889923095703

> <b_mmod_Minimization_Converged-OPLS-2005>
0

> <r_mmod_RMS_Derivative-OPLS-2005>
7.02845239639282

$$$$
60
                    3D
 Structure written by MMmdl.
175183  0  0  1  0            999 V2000
  -30.6870  -14.6328   20.5463 C   0  0  0  0  0  0
  -30.4014  -12.3954   19.4948 C   0  0  0  0  0  0
  -29.5041  -12.5182   18.2522 C   0  0  0  0  0  0
  -28.0239  -12.3703   18.6509 C   0  0  0  0  0  0
  -27.6416  -13.2367   19.8708 C   0  0  2  0  0  0
  -28.6697  -13.1230   21.0171 C   0  0  0  0  0  0
  -25.2265  -13.8066   20.5067 C   0  0  0  0  0  0
  -24.1718  -13.0403   20.9112 C   0  0  0  0  0  0
  -24.6386  -11.6942   20.8833 C   0  0  0  0  0  0
  -23.9074  -10.4307   21.0484 C   0  0  0  0  0  0
  -24.3641   -9.4175   21.9207 C   0  0  0  0  0  0
  -23.6305   -8.2214   22.0748 C   0  0  0  0  0  0
  -22.4262   -8.0285   21.3566 C   0  0  0  0  0  0
  -21.9945   -9.0242   20.4628 C   0  0  0  0  0  0
  -22.7286  -10.2115   20.3051 C   0  0  0  0  0  0
  -21.6824   -6.0726   22.5279 C   0  0  0  0  0  0
  -21.4011   -6.5632   23.8221 C   0  0  0  0  0  0
  -21.3676   -5.6785   24.9181 C   0  0  0  0  0  0
  -21.6023   -4.3048   24.7232 C   0  0  0  0  0  0
  -21.8825   -3.8143   23.4360 C   0  0  0  0  0  0
  -21.9196   -4.6956   22.3408 C   0  0  0  0  0  0
  -22.7767  -13.5170   21.1885 C   0  0  0  0  0  0
  -22.1641   -4.2155   21.0983 F   0  0  0  0  0  0
  -21.5650   -3.4521   25.7746 F   0  0  0  0  0  0
  -29.9829  -13.4563   20.4542 N   0  0  0  0  0  0
  -26.2899  -12.9386   20.3316 N   0  0  0  0  0  0
  -25.9357  -11.6581   20.6103 N   0  0  0  0  0  0
  -22.0428  -12.8106   22.0427 N   0  0  0  0  0  0
  -25.3695  -15.1614   20.2365 N   0  0  0  0  0  0
  -31.8139  -14.6437   20.0216 O   0  0  0  0  0  0
  -21.6620   -6.8879   21.4248 O   0  0  0  0  0  0
  -22.3412  -14.5484   20.6782 O   0  0  0  0  0  0
  -24.6199  -31.8577   23.2097 C   0  0  0  0  0  0
  -25.9078  -32.4748   23.8318 C   0  0  1  0  0  0
  -27.1698  -27.3672   20.0889 C   0  0  0  0  0  0
  -25.5980  -33.8565   24.2304 N   0  0  0  0  0  0
  -23.3952  -30.4972   21.5566 C   0  0  2  0  0  0
  -24.8274  -28.9663   20.1110 C   0  0  0  0  0  0
  -22.7340  -29.4745   22.5042 C   0  0  0  0  0  0
  -18.0386  -28.1209   22.8429 C   0  0  0  0  0  0
  -24.1514  -36.7284   23.2634 C   0  0  0  0  0  0
  -25.9312  -30.8069   21.3688 C   0  0  0  0  0  0
  -25.9957  -29.4395   20.7168 C   0  0  0  0  0  0
  -27.1752  -28.6507   20.6933 C   0  0  0  0  0  0
  -25.9810  -26.9267   19.4688 C   0  0  0  0  0  0
  -24.8201  -27.7127   19.4759 C   0  0  0  0  0  0
  -23.5943  -29.8374   20.1714 C   0  0  0  0  0  0
  -25.4126  -36.3054   24.0338 C   0  0  1  0  0  0
  -20.5924  -28.3642   23.1380 C   0  0  2  0  0  0
  -20.7025  -26.9425   22.5427 C   0  0  0  0  0  0
  -19.6069  -26.6283   21.5269 C   0  0  0  0  0  0
  -18.2004  -26.7985   22.1226 C   0  0  0  0  0  0
  -19.1571  -28.8689   23.2934 C   0  0  0  0  0  0
  -18.9423  -30.1387   23.8835 C   0  0  0  0  0  0
  -17.6348  -30.6379   24.0433 C   0  0  0  0  0  0
  -25.9089  -34.9393   23.5042 C   0  0  0  0  0  0
  -16.5221  -29.8850   23.6168 C   0  0  0  0  0  0
  -16.7377  -28.6204   23.0293 C   0  0  0  0  0  0
  -26.4467  -31.6537   25.0654 C   0  0  0  0  0  0
  -25.3739  -31.3648   26.1443 C   0  0  0  0  0  0
  -27.0363  -30.2958   24.6090 C   0  0  0  0  0  0
  -27.6035  -32.4303   25.7439 C   0  0  0  0  0  0
  -27.5587  -37.1783   24.8468 C   0  0  0  0  0  0
  -21.4090  -29.3059   22.3768 N   0  0  0  0  0  0
  -26.4289  -37.3765   23.9431 N   0  0  0  0  0  0
  -24.6696  -31.0695   22.1014 N   0  0  0  0  0  0
  -23.3996  -28.8309   23.3095 O   0  0  0  0  0  0
  -28.3066  -26.5746   20.1174 O   0  0  0  0  0  0
  -26.5650  -34.8827   22.4596 O   0  0  0  0  0  0
  -23.5434  -32.1486   23.7453 O   0  0  0  0  0  0
  -28.7172  -19.9057   21.8889 C   0  0  0  0  0  0
  -27.8342  -18.8517   21.8573 C   0  0  0  0  0  0
  -26.8854  -20.7468   20.9307 C   0  0  0  0  0  0
  -24.1358  -19.3399   21.8138 C   0  0  0  0  0  0
  -24.6346  -21.5293   19.7070 C   0  0  0  0  0  0
  -26.9910  -16.6253   22.9060 C   0  0  0  0  0  0
  -29.0605  -17.5641   23.6504 C   0  0  0  0  0  0
  -31.3788  -16.7168   21.5519 C   0  0  0  0  0  0
  -27.6432  -24.0798   20.4877 C   0  0  0  0  0  0
  -26.4594  -23.2757   19.8471 C   0  0  0  0  0  0
  -25.3653  -18.7953   21.0214 C   0  0  0  0  0  0
  -28.8643  -16.3991   21.2395 C   0  0  0  0  0  0
  -28.2450  -25.2226   19.5908 C   0  0  0  0  0  0
  -26.1578  -21.7108   19.9524 C   0  0  1  0  0  0
  -28.2046  -17.3960   22.3481 C   0  0  0  0  0  0
  -26.6671  -19.4445   21.2916 N   0  0  0  0  0  0
  -28.1113  -21.0110   21.3672 N   0  3  0  0  0  0
  -30.2620  -15.7644   21.2306 N   0  0  0  0  0  0
  -31.4550  -12.4677   19.1985 H   0  0  0  0  0  0
  -30.3100  -11.4116   19.9567 H   0  0  0  0  0  0
  -29.7670  -11.7667   17.5081 H   0  0  0  0  0  0
  -29.6637  -13.4923   17.7807 H   0  0  0  0  0  0
  -27.8371  -11.3186   18.8754 H   0  0  0  0  0  0
  -27.3818  -12.6145   17.8106 H   0  0  0  0  0  0
  -27.6629  -14.2721   19.5249 H   0  0  0  0  0  0
  -28.6981  -12.1199   21.4293 H   0  0  0  0  0  0
  -28.4055  -13.7706   21.8500 H   0  0  0  0  0  0
  -25.2773   -9.5644   22.4815 H   0  0  0  0  0  0
  -23.9996   -7.4587   22.7461 H   0  0  0  0  0  0
  -21.0880   -8.8756   19.8918 H   0  0  0  0  0  0
  -22.3744  -10.9659   19.6168 H   0  0  0  0  0  0
  -21.1969   -7.6134   23.9744 H   0  0  0  0  0  0
  -21.1495   -6.0492   25.9093 H   0  0  0  0  0  0
  -22.0592   -2.7609   23.2839 H   0  0  0  0  0  0
  -22.3974  -11.9677   22.4737 H   0  0  0  0  0  0
  -21.1111  -13.1240   22.2762 H   0  0  0  0  0  0
  -24.6170  -15.8315   20.3470 H   0  0  0  0  0  0
  -26.2374  -15.5760   19.9304 H   0  0  0  0  0  0
  -26.7108  -32.5315   23.1030 H   0  0  0  0  0  0
  -25.0047  -33.9752   25.0396 H   0  0  0  0  0  0
  -22.6841  -31.3154   21.4415 H   0  0  0  0  0  0
  -23.3756  -35.9641   23.3298 H   0  0  0  0  0  0
  -24.3614  -36.8912   22.2056 H   0  0  0  0  0  0
  -23.7277  -37.6471   23.6663 H   0  0  0  0  0  0
  -26.0647  -31.5723   20.6054 H   0  0  0  0  0  0
  -26.8126  -30.8400   21.9952 H   0  0  0  0  0  0
  -28.0685  -29.0247   21.1676 H   0  0  0  0  0  0
  -25.9087  -25.9774   18.9677 H   0  0  0  0  0  0
  -23.9128  -27.3521   19.0015 H   0  0  0  0  0  0
  -23.6757  -30.6144   19.4174 H   0  0  0  0  0  0
  -22.7152  -29.2564   19.8861 H   0  0  0  0  0  0
  -25.1302  -36.1888   25.0855 H   0  0  0  0  0  0
  -20.9949  -28.3044   24.1503 H   0  0  0  0  0  0
  -21.7007  -26.7921   22.1299 H   0  0  0  0  0  0
  -20.6367  -26.2169   23.3534 H   0  0  0  0  0  0
  -19.7145  -25.6153   21.1236 H   0  0  0  0  0  0
  -19.7115  -27.3047   20.6817 H   0  0  0  0  0  0
  -17.4548  -26.7537   21.3359 H   0  0  0  0  0  0
  -17.9596  -25.9974   22.8189 H   0  0  0  0  0  0
  -19.7849  -30.7407   24.1905 H   0  0  0  0  0  0
  -17.4904  -31.6242   24.4745 H   0  0  0  0  0  0
  -15.5177  -30.2795   23.7269 H   0  0  0  0  0  0
  -15.8843  -28.0655   22.6913 H   0  0  0  0  0  0
  -24.5890  -30.7051   25.7732 H   0  0  0  0  0  0
  -24.8984  -32.2849   26.4881 H   0  0  0  0  0  0
  -25.8120  -30.8748   27.0181 H   0  0  0  0  0  0
  -26.2955  -29.6677   24.1151 H   0  0  0  0  0  0
  -27.4163  -29.7219   25.4568 H   0  0  0  0  0  0
  -27.8759  -30.4275   23.9261 H   0  0  0  0  0  0
  -27.2583  -33.3605   26.1993 H   0  0  0  0  0  0
  -28.3809  -32.6918   25.0234 H   0  0  0  0  0  0
  -28.0730  -31.8443   26.5377 H   0  0  0  0  0  0
  -28.2574  -38.0112   24.7511 H   0  0  0  0  0  0
  -28.1107  -36.2619   24.6280 H   0  0  0  0  0  0
  -27.2301  -37.1407   25.8870 H   0  0  0  0  0  0
  -20.9447  -29.8435   21.6636 H   0  0  0  0  0  0
  -26.0158  -38.2850   24.1380 H   0  0  0  0  0  0
  -29.7455  -19.9223   22.2183 H   0  0  0  0  0  0
  -24.3063  -20.2801   22.3518 H   0  0  0  0  0  0
  -23.8072  -18.6405   22.5834 H   0  0  0  0  0  0
  -23.2691  -19.5024   21.1584 H   0  0  0  0  0  0
  -24.0426  -21.7153   20.6086 H   0  0  0  0  0  0
  -24.3578  -20.5763   19.2533 H   0  0  0  0  0  0
  -24.2712  -22.2451   18.9718 H   0  0  0  0  0  0
  -26.3106  -17.2313   23.5039 H   0  0  0  0  0  0
  -27.3312  -15.8096   23.5409 H   0  0  0  0  0  0
  -26.4208  -16.1534   22.1296 H   0  0  0  0  0  0
  -28.4456  -18.0255   24.4296 H   0  0  0  0  0  0
  -29.8998  -18.2449   23.5634 H   0  0  0  0  0  0
  -29.4577  -16.6202   24.0435 H   0  0  0  0  0  0
  -32.3609  -16.2333   21.6152 H   0  0  0  0  0  0
  -31.4442  -17.5191   20.8146 H   0  0  0  0  0  0
  -31.2730  -17.1916   22.5178 H   0  0  0  0  0  0
  -28.4592  -23.4080   20.7179 H   0  0  0  0  0  0
  -27.3033  -24.4950   21.4418 H   0  0  0  0  0  0
  -26.4992  -23.4359   18.7653 H   0  0  0  0  0  0
  -25.5488  -23.8072   20.1245 H   0  0  0  0  0  0
  -25.1974  -18.8764   19.9623 H   0  0  0  0  0  0
  -25.4928  -17.7316   21.1290 H   0  0  0  0  0  0
  -29.0410  -15.7701   22.1071 H   0  0  0  0  0  0
  -29.3434  -17.2175   20.7111 H   0  0  0  0  0  0
  -27.8461  -25.2215   18.5802 H   0  0  0  0  0  0
  -29.2844  -24.9632   19.4286 H   0  0  0  0  0  0
  -26.6057  -21.3229   19.0373 H   0  0  0  0  0  0
  -28.5627  -21.9099   21.2556 H   0  0  0  0  0  0
  1 25  1  0  0  0
  1 30  2  0  0  0
  1 88  1  0  0  0
  2  3  1  0  0  0
  2 25  1  0  0  0
  2 89  1  0  0  0
  2 90  1  0  0  0
  3  4  1  0  0  0
  3 91  1  0  0  0
  3 92  1  0  0  0
  4  5  1  0  0  0
  4 93  1  0  0  0
  4 94  1  0  0  0
  5  6  1  0  0  0
  5 26  1  0  0  0
  5 95  1  0  0  0
  6 25  1  0  0  0
  6 96  1  0  0  0
  6 97  1  0  0  0
  7  8  2  0  0  0
  7 26  1  0  0  0
  7 29  1  0  0  0
  8  9  1  0  0  0
  8 22  1  0  0  0
  9 10  1  0  0  0
  9 27  2  0  0  0
 10 11  2  0  0  0
 10 15  1  0  0  0
 11 12  1  0  0  0
 11 98  1  0  0  0
 12 13  2  0  0  0
 12 99  1  0  0  0
 13 14  1  0  0  0
 13 31  1  0  0  0
 14 15  2  0  0  0
 14100  1  0  0  0
 15101  1  0  0  0
 16 17  2  0  0  0
 16 21  1  0  0  0
 16 31  1  0  0  0
 17 18  1  0  0  0
 17102  1  0  0  0
 18 19  2  0  0  0
 18103  1  0  0  0
 19 20  1  0  0  0
 19 24  1  0  0  0
 20 21  2  0  0  0
 20104  1  0  0  0
 21 23  1  0  0  0
 22 28  1  0  0  0
 22 32  2  0  0  0
 26 27  1  0  0  0
 28105  1  0  0  0
 28106  1  0  0  0
 29107  1  0  0  0
 29108  1  0  0  0
 33 34  1  0  0  0
 33 66  1  0  0  0
 33 70  2  0  0  0
 34 36  1  0  0  0
 34 59  1  0  0  0
 34109  1  0  0  0
 35 44  2  0  0  0
 35 45  1  0  0  0
 35 68  1  0  0  0
 36 56  1  0  0  0
 36110  1  0  0  0
 37 39  1  0  0  0
 37 47  1  0  0  0
 37 66  1  0  0  0
 37111  1  0  0  0
 38 43  2  0  0  0
 38 46  1  0  0  0
 38 47  1  0  0  0
 39 64  1  0  0  0
 39 67  2  0  0  0
 40 52  1  0  0  0
 40 53  2  0  0  0
 40 58  1  0  0  0
 41112  1  0  0  0
 41113  1  0  0  0
 41114  1  0  0  0
 41 48  1  0  0  0
 42 43  1  0  0  0
 42 66  1  0  0  0
 42115  1  0  0  0
 42116  1  0  0  0
 43 44  1  0  0  0
 44117  1  0  0  0
 45 46  2  0  0  0
 45118  1  0  0  0
 46119  1  0  0  0
 47120  1  0  0  0
 47121  1  0  0  0
 48 56  1  0  0  0
 48 65  1  0  0  0
 48122  1  0  0  0
 49 50  1  0  0  0
 49 53  1  0  0  0
 49 64  1  0  0  0
 49123  1  0  0  0
 50 51  1  0  0  0
 50124  1  0  0  0
 50125  1  0  0  0
 51 52  1  0  0  0
 51126  1  0  0  0
 51127  1  0  0  0
 52128  1  0  0  0
 52129  1  0  0  0
 53 54  1  0  0  0
 54 55  2  0  0  0
 54130  1  0  0  0
 55 57  1  0  0  0
 55131  1  0  0  0
 56 69  2  0  0  0
 57 58  2  0  0  0
 57132  1  0  0  0
 58133  1  0  0  0
 59 60  1  0  0  0
 59 61  1  0  0  0
 59 62  1  0  0  0
 60134  1  0  0  0
 60135  1  0  0  0
 60136  1  0  0  0
 61137  1  0  0  0
 61138  1  0  0  0
 61139  1  0  0  0
 62140  1  0  0  0
 62141  1  0  0  0
 62142  1  0  0  0
 63 65  1  0  0  0
 63143  1  0  0  0
 63144  1  0  0  0
 63145  1  0  0  0
 64146  1  0  0  0
 65147  1  0  0  0
 68 83  1  0  0  0
 71 72  2  0  0  0
 71 87  1  0  0  0
 71148  1  0  0  0
 72 85  1  0  0  0
 72 86  1  0  0  0
 73 84  1  0  0  0
 73 86  1  0  0  0
 73 87  2  0  0  0
 74 81  1  0  0  0
 74149  1  0  0  0
 74150  1  0  0  0
 74151  1  0  0  0
 75152  1  0  0  0
 75153  1  0  0  0
 75154  1  0  0  0
 75 84  1  0  0  0
 76155  1  0  0  0
 76156  1  0  0  0
 76157  1  0  0  0
 76 85  1  0  0  0
 77 85  1  0  0  0
 77158  1  0  0  0
 77159  1  0  0  0
 77160  1  0  0  0
 78 88  1  0  0  0
 78161  1  0  0  0
 78162  1  0  0  0
 78163  1  0  0  0
 79 80  1  0  0  0
 79 83  1  0  0  0
 79164  1  0  0  0
 79165  1  0  0  0
 80 84  1  0  0  0
 80166  1  0  0  0
 80167  1  0  0  0
 81 86  1  0  0  0
 81168  1  0  0  0
 81169  1  0  0  0
 82 85  1  0  0  0
 82 88  1  0  0  0
 82170  1  0  0  0
 82171  1  0  0  0
 83172  1  0  0  0
 83173  1  0  0  0
 84174  1  0  0  0
 87175  1  0  0  0
M  CHG  1  87   1
M  ISO  4   1 100  68 101  83 101  88 100
M  END
> <chiral flag>
0

> <version>
0

> <s_m_source_file>
/data/baiqing/PycharmProjects/Reinvent-master-3.2/result/LINK_invent/BTK/process_docking_weight1_custom_sum_contain_oxygen_bond_distance_aromatic_linkinvent_7_9_3/rearranged_h_0068.sdf

> <i_m_source_file_index>
56

> <r_mmod_Potential_Energy-OPLS-2005>
629.942504882812

> <r_mmod_Stretch_Energy-OPLS-2005>
107.522796630859

> <r_mmod_Bend_Energy-OPLS-2005>
478.586273193359

> <r_mmod_Torsional_Energy-OPLS-2005>
357.474517822266

> <r_mmod_Improper_Torsional_Energy-OPLS-2005>
5.43006896972656

> <r_mmod_Van_der_Waal_Energy-OPLS-2005>
198.962951660156

> <r_mmod_Electrostatic_Energy-OPLS-2005>
-162.081359863281

> <r_mmod_Solvation_Energy-OPLS-2005>
-402.396118164062

> <b_mmod_Minimization_Converged-OPLS-2005>
0

> <r_mmod_RMS_Derivative-OPLS-2005>
18.205150604248

$$$$
61
                    3D
 Structure written by MMmdl.
187195  0  0  1  0            999 V2000
  -30.7012  -14.4991   20.6233 C   0  0  0  0  0  0
  -30.4325  -12.3427   19.4255 C   0  0  0  0  0  0
  -29.5011  -12.5290   18.2053 C   0  0  0  0  0  0
  -28.0211  -12.3724   18.6066 C   0  0  0  0  0  0
  -27.6578  -13.2076   19.8612 C   0  0  2  0  0  0
  -28.6981  -12.9959   20.9797 C   0  0  0  0  0  0
  -25.2568  -13.8192   20.5661 C   0  0  0  0  0  0
  -24.1829  -13.0434   20.9174 C   0  0  0  0  0  0
  -24.6404  -11.6917   20.8733 C   0  0  0  0  0  0
  -23.9078  -10.4289   21.0401 C   0  0  0  0  0  0
  -24.3634   -9.4207   21.9188 C   0  0  0  0  0  0
  -23.6308   -8.2241   22.0749 C   0  0  0  0  0  0
  -22.4292   -8.0292   21.3539 C   0  0  0  0  0  0
  -21.9931   -9.0258   20.4643 C   0  0  0  0  0  0
  -22.7250  -10.2137   20.3054 C   0  0  0  0  0  0
  -21.6867   -6.0734   22.5274 C   0  0  0  0  0  0
  -21.4006   -6.5632   23.8208 C   0  0  0  0  0  0
  -21.3662   -5.6779   24.9161 C   0  0  0  0  0  0
  -21.6052   -4.3042   24.7207 C   0  0  0  0  0  0
  -21.8824   -3.8140   23.4326 C   0  0  0  0  0  0
  -21.9190   -4.6965   22.3374 C   0  0  0  0  0  0
  -22.7844  -13.5239   21.1832 C   0  0  0  0  0  0
  -22.1665   -4.2144   21.0955 F   0  0  0  0  0  0
  -21.5644   -3.4543   25.7722 F   0  0  0  0  0  0
  -30.0291  -13.3229   20.4475 N   0  0  0  0  0  0
  -26.3002  -12.9349   20.3290 N   0  0  0  0  0  0
  -25.9327  -11.6510   20.5727 N   0  0  0  0  0  0
  -22.0468  -12.8242   22.0391 N   0  0  0  0  0  0
  -25.4255  -15.1897   20.4087 N   0  0  0  0  0  0
  -31.8138  -14.6620   20.1104 O   0  0  0  0  0  0
  -21.6654   -6.8888   21.4239 O   0  0  0  0  0  0
  -22.3501  -14.5502   20.6641 O   0  0  0  0  0  0
  -24.6125  -31.8679   23.2083 C   0  0  0  0  0  0
  -25.9027  -32.4813   23.8374 C   0  0  1  0  0  0
  -27.2406  -27.4390   20.1003 C   0  0  0  0  0  0
  -25.5894  -33.8615   24.2319 N   0  0  0  0  0  0
  -23.3999  -30.4921   21.5482 C   0  0  2  0  0  0
  -24.8491  -28.9517   20.1184 C   0  0  0  0  0  0
  -22.7381  -29.4681   22.4983 C   0  0  0  0  0  0
  -18.0273  -28.1371   22.8510 C   0  0  0  0  0  0
  -24.1485  -36.7301   23.2640 C   0  0  0  0  0  0
  -25.9289  -30.8367   21.3602 C   0  0  0  0  0  0
  -26.0089  -29.4715   20.7074 C   0  0  0  0  0  0
  -27.2087  -28.7245   20.6900 C   0  0  0  0  0  0
  -26.0644  -26.9281   19.5119 C   0  0  0  0  0  0
  -24.8707  -27.6777   19.5215 C   0  0  0  0  0  0
  -23.6072  -29.8152   20.1663 C   0  0  0  0  0  0
  -25.4102  -36.3109   24.0348 C   0  0  1  0  0  0
  -20.5862  -28.3654   23.1323 C   0  0  2  0  0  0
  -20.6771  -26.9398   22.5420 C   0  0  0  0  0  0
  -19.5738  -26.6386   21.5223 C   0  0  0  0  0  0
  -18.1915  -26.7929   22.1636 C   0  0  0  0  0  0
  -19.1529  -28.8833   23.2917 C   0  0  0  0  0  0
  -18.9456  -30.1447   23.8908 C   0  0  0  0  0  0
  -17.6458  -30.6589   24.0571 C   0  0  0  0  0  0
  -25.9026  -34.9474   23.5121 C   0  0  0  0  0  0
  -16.5345  -29.9092   23.6336 C   0  0  0  0  0  0
  -16.7262  -28.6510   23.0351 C   0  0  0  0  0  0
  -26.4459  -31.6600   25.0710 C   0  0  0  0  0  0
  -25.3719  -31.3730   26.1456 C   0  0  0  0  0  0
  -27.0295  -30.3039   24.6099 C   0  0  0  0  0  0
  -27.6037  -32.4333   25.7461 C   0  0  0  0  0  0
  -27.5585  -37.1790   24.8463 C   0  0  0  0  0  0
  -21.4113  -29.3035   22.3723 N   0  0  0  0  0  0
  -26.4291  -37.3793   23.9428 N   0  0  0  0  0  0
  -24.6653  -31.0802   22.0970 N   0  0  0  0  0  0
  -23.4163  -28.8229   23.3037 O   0  0  0  0  0  0
  -28.4131  -26.7149   20.0669 O   0  0  0  0  0  0
  -26.5589  -34.8920   22.4685 O   0  0  0  0  0  0
  -23.5321  -32.1421   23.7488 O   0  0  0  0  0  0
  -31.3271  -18.9913   20.2765 C   0  0  0  0  0  0
  -32.1337  -18.5683   21.3569 C   0  0  0  0  0  0
  -30.3530  -18.0464   20.1103 C   0  0  0  0  0  0
  -29.9020  -15.4932   22.8942 C   0  0  0  0  0  0
  -34.6232  -18.4924   21.4557 C   0  0  0  0  0  0
  -33.3515  -19.3084   23.4597 C   0  0  0  0  0  0
  -33.4464  -20.7140   21.4194 C   0  0  0  0  0  0
  -27.8611  -17.7246   19.5552 C   0  0  0  0  0  0
  -29.6419  -16.9899   18.0005 C   0  0  0  0  0  0
  -28.6123  -21.7138   17.3355 C   0  0  0  0  0  0
  -27.1339  -20.7357   19.0845 C   0  0  0  0  0  0
  -28.8377  -22.8839   20.4370 C   0  0  0  0  0  0
  -28.7667  -24.2576   19.7090 C   0  0  0  0  0  0
  -29.4304  -21.6257   19.7132 C   0  0  0  0  0  0
  -29.2204  -19.4466   18.1945 C   0  0  0  0  0  0
  -28.3735  -25.4096   20.6712 C   0  0  0  0  0  0
  -30.0174  -15.7085   21.3555 C   0  0  1  0  0  0
  -33.3733  -19.2554   21.9200 C   0  0  0  0  0  0
  -29.2683  -18.0842   19.0306 C   0  0  0  0  0  0
  -28.6027  -20.8555   18.6303 C   0  0  0  0  0  0
  -31.7358  -17.3851   21.7907 N   0  0  0  0  0  0
  -30.6430  -17.0293   21.0491 N   0  0  0  0  0  0
  -31.4765  -12.4520   19.1250 H   0  0  0  0  0  0
  -30.3504  -11.3330   19.8329 H   0  0  0  0  0  0
  -29.7516  -11.8205   17.4144 H   0  0  0  0  0  0
  -29.6564  -13.5223   17.7827 H   0  0  0  0  0  0
  -27.8368  -11.3157   18.7983 H   0  0  0  0  0  0
  -27.3714  -12.6433   17.7714 H   0  0  0  0  0  0
  -27.7025  -14.2528   19.5642 H   0  0  0  0  0  0
  -28.6875  -11.9585   21.3149 H   0  0  0  0  0  0
  -28.4263  -13.5794   21.8519 H   0  0  0  0  0  0
  -25.2789   -9.5695   22.4763 H   0  0  0  0  0  0
  -24.0030   -7.4630   22.7458 H   0  0  0  0  0  0
  -21.0868   -8.8763   19.8963 H   0  0  0  0  0  0
  -22.3709  -10.9664   19.6161 H   0  0  0  0  0  0
  -21.1993   -7.6142   23.9707 H   0  0  0  0  0  0
  -21.1496   -6.0506   25.9063 H   0  0  0  0  0  0
  -22.0607   -2.7614   23.2813 H   0  0  0  0  0  0
  -22.4098  -11.9931   22.4818 H   0  0  0  0  0  0
  -21.1078  -13.1267   22.2558 H   0  0  0  0  0  0
  -24.6591  -15.8461   20.5196 H   0  0  0  0  0  0
  -26.2715  -15.6303   20.0757 H   0  0  0  0  0  0
  -26.7095  -32.5526   23.1133 H   0  0  0  0  0  0
  -25.0071  -33.9779   25.0475 H   0  0  0  0  0  0
  -22.6885  -31.3097   21.4058 H   0  0  0  0  0  0
  -23.3762  -35.9622   23.3299 H   0  0  0  0  0  0
  -24.3597  -36.8906   22.2061 H   0  0  0  0  0  0
  -23.7216  -37.6496   23.6645 H   0  0  0  0  0  0
  -26.0409  -31.6057   20.5961 H   0  0  0  0  0  0
  -26.8174  -30.8871   21.9789 H   0  0  0  0  0  0
  -28.1083  -29.1277   21.1345 H   0  0  0  0  0  0
  -26.0772  -25.9540   19.0429 H   0  0  0  0  0  0
  -23.9788  -27.2697   19.0667 H   0  0  0  0  0  0
  -23.7025  -30.5841   19.3986 H   0  0  0  0  0  0
  -22.7328  -29.2260   19.8820 H   0  0  0  0  0  0
  -25.1276  -36.1974   25.0845 H   0  0  0  0  0  0
  -20.9968  -28.3235   24.1435 H   0  0  0  0  0  0
  -20.5677  -26.2268   23.3603 H   0  0  0  0  0  0
  -21.6639  -26.7452   22.1199 H   0  0  0  0  0  0
  -19.6896  -25.6300   21.1242 H   0  0  0  0  0  0
  -19.6680  -27.3213   20.6761 H   0  0  0  0  0  0
  -17.4189  -26.6689   21.4038 H   0  0  0  0  0  0
  -18.0313  -26.0069   22.9023 H   0  0  0  0  0  0
  -19.7929  -30.7274   24.2272 H   0  0  0  0  0  0
  -17.5007  -31.6275   24.5162 H   0  0  0  0  0  0
  -15.5338  -30.2987   23.7662 H   0  0  0  0  0  0
  -15.8658  -28.0826   22.7043 H   0  0  0  0  0  0
  -24.5883  -30.7089   25.7793 H   0  0  0  0  0  0
  -24.8925  -32.2904   26.4892 H   0  0  0  0  0  0
  -25.8071  -30.8899   27.0210 H   0  0  0  0  0  0
  -26.2849  -29.6802   24.1138 H   0  0  0  0  0  0
  -27.4042  -29.7283   25.4573 H   0  0  0  0  0  0
  -27.8690  -30.4366   23.9266 H   0  0  0  0  0  0
  -27.2659  -33.3634   26.2050 H   0  0  0  0  0  0
  -28.3836  -32.6892   25.0276 H   0  0  0  0  0  0
  -28.0706  -31.8440   26.5363 H   0  0  0  0  0  0
  -28.2579  -38.0102   24.7543 H   0  0  0  0  0  0
  -28.1094  -36.2642   24.6245 H   0  0  0  0  0  0
  -27.2310  -37.1390   25.8859 H   0  0  0  0  0  0
  -20.9248  -29.8731   21.6929 H   0  0  0  0  0  0
  -26.0179  -38.2867   24.1433 H   0  0  0  0  0  0
  -31.4531  -19.8849   19.6900 H   0  0  0  0  0  0
  -30.0925  -16.4049   23.4608 H   0  0  0  0  0  0
  -30.5910  -14.7318   23.2620 H   0  0  0  0  0  0
  -28.8891  -15.2046   23.1814 H   0  0  0  0  0  0
  -34.6313  -17.4768   21.8574 H   0  0  0  0  0  0
  -35.5363  -18.9858   21.7916 H   0  0  0  0  0  0
  -34.6652  -18.4231   20.3692 H   0  0  0  0  0  0
  -33.3122  -18.3099   23.8937 H   0  0  0  0  0  0
  -32.4921  -19.8633   23.8321 H   0  0  0  0  0  0
  -34.2478  -19.7938   23.8498 H   0  0  0  0  0  0
  -33.5095  -20.7741   20.3342 H   0  0  0  0  0  0
  -34.3204  -21.2302   21.8155 H   0  0  0  0  0  0
  -32.5651  -21.2806   21.7278 H   0  0  0  0  0  0
  -27.7301  -16.6582   19.7002 H   0  0  0  0  0  0
  -27.0819  -17.9801   18.8372 H   0  0  0  0  0  0
  -27.6419  -18.2122   20.5048 H   0  0  0  0  0  0
  -29.6624  -15.9923   18.4372 H   0  0  0  0  0  0
  -30.6327  -17.1646   17.5812 H   0  0  0  0  0  0
  -28.9375  -16.9531   17.1686 H   0  0  0  0  0  0
  -28.1106  -22.6706   17.4572 H   0  0  0  0  0  0
  -28.0998  -21.2121   16.5129 H   0  0  0  0  0  0
  -29.6270  -21.9253   16.9931 H   0  0  0  0  0  0
  -26.6434  -21.7089   19.1264 H   0  0  0  0  0  0
  -27.0592  -20.3145   20.0848 H   0  0  0  0  0  0
  -26.5446  -20.1203   18.4057 H   0  0  0  0  0  0
  -27.8576  -22.6613   20.8577 H   0  0  0  0  0  0
  -29.4798  -23.0379   21.3063 H   0  0  0  0  0  0
  -28.0240  -24.2298   18.9143 H   0  0  0  0  0  0
  -29.7290  -24.4786   19.2481 H   0  0  0  0  0  0
  -29.6098  -20.9177   20.5195 H   0  0  0  0  0  0
  -30.4177  -21.8719   19.3219 H   0  0  0  0  0  0
  -28.6491  -19.1836   17.3019 H   0  0  0  0  0  0
  -30.2215  -19.6306   17.8034 H   0  0  0  0  0  0
  -29.0711  -25.4346   21.5097 H   0  0  0  0  0  0
  -27.4009  -25.1944   21.1158 H   0  0  0  0  0  0
  -28.9988  -15.7520   20.9961 H   0  0  0  0  0  0
  1 25  1  0  0  0
  1 30  2  0  0  0
  1 87  1  0  0  0
  2  3  1  0  0  0
  2 25  1  0  0  0
  2 93  1  0  0  0
  2 94  1  0  0  0
  3  4  1  0  0  0
  3 95  1  0  0  0
  3 96  1  0  0  0
  4  5  1  0  0  0
  4 97  1  0  0  0
  4 98  1  0  0  0
  5  6  1  0  0  0
  5 26  1  0  0  0
  5 99  1  0  0  0
  6 25  1  0  0  0
  6100  1  0  0  0
  6101  1  0  0  0
  7  8  2  0  0  0
  7 26  1  0  0  0
  7 29  1  0  0  0
  8  9  1  0  0  0
  8 22  1  0  0  0
  9 10  1  0  0  0
  9 27  2  0  0  0
 10 11  2  0  0  0
 10 15  1  0  0  0
 11 12  1  0  0  0
 11102  1  0  0  0
 12 13  2  0  0  0
 12103  1  0  0  0
 13 14  1  0  0  0
 13 31  1  0  0  0
 14 15  2  0  0  0
 14104  1  0  0  0
 15105  1  0  0  0
 16 17  2  0  0  0
 16 21  1  0  0  0
 16 31  1  0  0  0
 17 18  1  0  0  0
 17106  1  0  0  0
 18 19  2  0  0  0
 18107  1  0  0  0
 19 20  1  0  0  0
 19 24  1  0  0  0
 20 21  2  0  0  0
 20108  1  0  0  0
 21 23  1  0  0  0
 22 28  1  0  0  0
 22 32  2  0  0  0
 26 27  1  0  0  0
 28109  1  0  0  0
 28110  1  0  0  0
 29111  1  0  0  0
 29112  1  0  0  0
 33 34  1  0  0  0
 33 66  1  0  0  0
 33 70  2  0  0  0
 34 36  1  0  0  0
 34 59  1  0  0  0
 34113  1  0  0  0
 35 44  2  0  0  0
 35 45  1  0  0  0
 35 68  1  0  0  0
 36 56  1  0  0  0
 36114  1  0  0  0
 37 39  1  0  0  0
 37 47  1  0  0  0
 37 66  1  0  0  0
 37115  1  0  0  0
 38 43  2  0  0  0
 38 46  1  0  0  0
 38 47  1  0  0  0
 39 64  1  0  0  0
 39 67  2  0  0  0
 40 52  1  0  0  0
 40 53  2  0  0  0
 40 58  1  0  0  0
 41116  1  0  0  0
 41117  1  0  0  0
 41118  1  0  0  0
 41 48  1  0  0  0
 42 43  1  0  0  0
 42 66  1  0  0  0
 42119  1  0  0  0
 42120  1  0  0  0
 43 44  1  0  0  0
 44121  1  0  0  0
 45 46  2  0  0  0
 45122  1  0  0  0
 46123  1  0  0  0
 47124  1  0  0  0
 47125  1  0  0  0
 48 56  1  0  0  0
 48 65  1  0  0  0
 48126  1  0  0  0
 49 50  1  0  0  0
 49 53  1  0  0  0
 49 64  1  0  0  0
 49127  1  0  0  0
 50 51  1  0  0  0
 50128  1  0  0  0
 50129  1  0  0  0
 51 52  1  0  0  0
 51130  1  0  0  0
 51131  1  0  0  0
 52132  1  0  0  0
 52133  1  0  0  0
 53 54  1  0  0  0
 54 55  2  0  0  0
 54134  1  0  0  0
 55 57  1  0  0  0
 55135  1  0  0  0
 56 69  2  0  0  0
 57 58  2  0  0  0
 57136  1  0  0  0
 58137  1  0  0  0
 59 60  1  0  0  0
 59 61  1  0  0  0
 59 62  1  0  0  0
 60138  1  0  0  0
 60139  1  0  0  0
 60140  1  0  0  0
 61141  1  0  0  0
 61142  1  0  0  0
 61143  1  0  0  0
 62144  1  0  0  0
 62145  1  0  0  0
 62146  1  0  0  0
 63 65  1  0  0  0
 63147  1  0  0  0
 63148  1  0  0  0
 63149  1  0  0  0
 64150  1  0  0  0
 65151  1  0  0  0
 68 86  1  0  0  0
 71 72  1  0  0  0
 71 73  2  0  0  0
 71152  1  0  0  0
 72 88  1  0  0  0
 72 91  2  0  0  0
 73 89  1  0  0  0
 73 92  1  0  0  0
 74153  1  0  0  0
 74154  1  0  0  0
 74155  1  0  0  0
 74 87  1  0  0  0
 75156  1  0  0  0
 75157  1  0  0  0
 75158  1  0  0  0
 75 88  1  0  0  0
 76 88  1  0  0  0
 76159  1  0  0  0
 76160  1  0  0  0
 76161  1  0  0  0
 77 88  1  0  0  0
 77162  1  0  0  0
 77163  1  0  0  0
 77164  1  0  0  0
 78165  1  0  0  0
 78166  1  0  0  0
 78167  1  0  0  0
 78 89  1  0  0  0
 79 89  1  0  0  0
 79168  1  0  0  0
 79169  1  0  0  0
 79170  1  0  0  0
 80171  1  0  0  0
 80172  1  0  0  0
 80173  1  0  0  0
 80 90  1  0  0  0
 81 90  1  0  0  0
 81174  1  0  0  0
 81175  1  0  0  0
 81176  1  0  0  0
 82 83  1  0  0  0
 82 84  1  0  0  0
 82177  1  0  0  0
 82178  1  0  0  0
 83 86  1  0  0  0
 83179  1  0  0  0
 83180  1  0  0  0
 84 90  1  0  0  0
 84181  1  0  0  0
 84182  1  0  0  0
 85 89  1  0  0  0
 85 90  1  0  0  0
 85183  1  0  0  0
 85184  1  0  0  0
 86185  1  0  0  0
 86186  1  0  0  0
 87 92  1  0  0  0
 87187  1  0  0  0
 91 92  1  0  0  0
M  ISO  4   1 100  68 101  86 101  87 100
M  END
> <chiral flag>
0

> <version>
0

> <s_m_source_file>
/data/baiqing/PycharmProjects/Reinvent-master-3.2/result/LINK_invent/BTK/process_docking_weight1_custom_sum_contain_oxygen_bond_distance_aromatic_linkinvent_7_9_3/rearranged_h_0068.sdf

> <i_m_source_file_index>
57

> <r_mmod_Potential_Energy-OPLS-2005>
105.98021697998

> <r_mmod_Stretch_Energy-OPLS-2005>
62.6161842346191

> <r_mmod_Bend_Energy-OPLS-2005>
173.237899780273

> <r_mmod_Torsional_Energy-OPLS-2005>
242.744262695312

> <r_mmod_Improper_Torsional_Energy-OPLS-2005>
3.20854330062866

> <r_mmod_Van_der_Waal_Energy-OPLS-2005>
132.104690551758

> <r_mmod_Electrostatic_Energy-OPLS-2005>
-340.384674072266

> <r_mmod_Solvation_Energy-OPLS-2005>
-180.540451049805

> <b_mmod_Minimization_Converged-OPLS-2005>
0

> <r_mmod_RMS_Derivative-OPLS-2005>
4.21988916397095

$$$$
62
                    3D
 Structure written by MMmdl.
163171  0  0  1  0            999 V2000
  -30.7560  -14.4058   20.6454 C   0  0  0  0  0  0
  -30.4193  -12.2950   19.4128 C   0  0  0  0  0  0
  -29.4898  -12.5204   18.2044 C   0  0  0  0  0  0
  -28.0144  -12.3689   18.6196 C   0  0  0  0  0  0
  -27.6647  -13.2062   19.8781 C   0  0  2  0  0  0
  -28.7047  -12.9770   20.9994 C   0  0  0  0  0  0
  -25.2553  -13.8136   20.5595 C   0  0  0  0  0  0
  -24.1831  -13.0425   20.9176 C   0  0  0  0  0  0
  -24.6403  -11.6904   20.8763 C   0  0  0  0  0  0
  -23.9069  -10.4292   21.0418 C   0  0  0  0  0  0
  -24.3625   -9.4203   21.9188 C   0  0  0  0  0  0
  -23.6301   -8.2240   22.0755 C   0  0  0  0  0  0
  -22.4280   -8.0284   21.3546 C   0  0  0  0  0  0
  -21.9915   -9.0252   20.4640 C   0  0  0  0  0  0
  -22.7246  -10.2129   20.3052 C   0  0  0  0  0  0
  -21.6851   -6.0750   22.5288 C   0  0  0  0  0  0
  -21.4013   -6.5655   23.8221 C   0  0  0  0  0  0
  -21.3648   -5.6800   24.9187 C   0  0  0  0  0  0
  -21.6043   -4.3067   24.7229 C   0  0  0  0  0  0
  -21.8814   -3.8161   23.4351 C   0  0  0  0  0  0
  -21.9190   -4.6980   22.3406 C   0  0  0  0  0  0
  -22.7859  -13.5224   21.1831 C   0  0  0  0  0  0
  -22.1662   -4.2172   21.0981 F   0  0  0  0  0  0
  -21.5617   -3.4541   25.7737 F   0  0  0  0  0  0
  -30.0461  -13.2610   20.4571 N   0  0  0  0  0  0
  -26.3040  -12.9329   20.3372 N   0  0  0  0  0  0
  -25.9338  -11.6488   20.5806 N   0  0  0  0  0  0
  -22.0507  -12.8224   22.0398 N   0  0  0  0  0  0
  -25.4173  -15.1822   20.3776 N   0  0  0  0  0  0
  -31.8164  -14.6492   20.0571 O   0  0  0  0  0  0
  -21.6637   -6.8897   21.4250 O   0  0  0  0  0  0
  -22.3539  -14.5530   20.6679 O   0  0  0  0  0  0
  -24.6080  -31.8705   23.2131 C   0  0  0  0  0  0
  -25.8968  -32.4857   23.8418 C   0  0  1  0  0  0
  -27.2377  -27.4723   20.0873 C   0  0  0  0  0  0
  -25.5837  -33.8653   24.2335 N   0  0  0  0  0  0
  -23.3970  -30.4868   21.5567 C   0  0  2  0  0  0
  -24.8446  -28.9536   20.1193 C   0  0  0  0  0  0
  -22.7386  -29.4622   22.5060 C   0  0  0  0  0  0
  -18.0235  -28.1353   22.8464 C   0  0  0  0  0  0
  -24.1509  -36.7361   23.2639 C   0  0  0  0  0  0
  -25.9203  -30.8437   21.3610 C   0  0  0  0  0  0
  -25.9999  -29.4766   20.7160 C   0  0  0  0  0  0
  -27.1994  -28.7373   20.7075 C   0  0  0  0  0  0
  -26.0744  -26.9530   19.4862 C   0  0  0  0  0  0
  -24.8713  -27.6861   19.5090 C   0  0  0  0  0  0
  -23.6024  -29.8122   20.1734 C   0  0  0  0  0  0
  -25.4120  -36.3155   24.0334 C   0  0  1  0  0  0
  -20.5829  -28.3618   23.1350 C   0  0  2  0  0  0
  -20.6747  -26.9364   22.5431 C   0  0  0  0  0  0
  -19.5730  -26.6351   21.5222 C   0  0  0  0  0  0
  -18.1896  -26.7894   22.1607 C   0  0  0  0  0  0
  -19.1491  -28.8805   23.2890 C   0  0  0  0  0  0
  -18.9439  -30.1419   23.8889 C   0  0  0  0  0  0
  -17.6456  -30.6581   24.0555 C   0  0  0  0  0  0
  -25.9031  -34.9505   23.5146 C   0  0  0  0  0  0
  -16.5329  -29.9090   23.6337 C   0  0  0  0  0  0
  -16.7234  -28.6507   23.0331 C   0  0  0  0  0  0
  -26.4420  -31.6616   25.0724 C   0  0  0  0  0  0
  -25.3699  -31.3676   26.1487 C   0  0  0  0  0  0
  -27.0233  -30.3073   24.6016 C   0  0  0  0  0  0
  -27.6015  -32.4331   25.7468 C   0  0  0  0  0  0
  -27.5604  -37.1830   24.8447 C   0  0  0  0  0  0
  -21.4121  -29.2999   22.3808 N   0  0  0  0  0  0
  -26.4313  -37.3821   23.9398 N   0  0  0  0  0  0
  -24.6605  -31.0812   22.1026 N   0  0  0  0  0  0
  -23.4174  -28.8179   23.3095 O   0  0  0  0  0  0
  -28.4027  -26.7539   20.0540 O   0  0  0  0  0  0
  -26.5618  -34.8934   22.4734 O   0  0  0  0  0  0
  -23.5280  -32.1422   23.7504 O   0  0  0  0  0  0
  -29.1563  -20.2371   20.4959 C   0  0  0  0  0  0
  -28.0293  -19.5354   20.9845 C   0  0  0  0  0  0
  -27.4001  -21.3876   22.2098 C   0  0  0  0  0  0
  -28.5242  -22.0987   21.7086 C   0  0  0  0  0  0
  -26.3658  -22.0256   23.1190 C   0  0  0  0  0  0
  -30.7445  -15.4561   22.8032 C   0  0  0  0  0  0
  -27.7031  -18.1227   20.5288 C   0  0  0  0  0  0
  -28.7929  -23.5598   22.0416 C   0  0  0  0  0  0
  -28.3737  -17.0104   21.3566 C   0  0  0  0  0  0
  -28.3960  -24.4965   20.8899 C   0  0  0  0  0  0
  -29.7885  -16.6247   20.8847 C   0  0  0  0  0  0
  -28.6265  -25.9725   21.2229 C   0  0  0  0  0  0
  -29.4083  -21.5159   20.8628 N   0  0  0  0  0  0
  -27.1611  -20.1020   21.8562 N   0  0  0  0  0  0
  -30.1930  -15.3295   21.4546 N   0  0  0  0  0  0
  -31.4646  -12.3876   19.1112 H   0  0  0  0  0  0
  -30.3127  -11.2804   19.7990 H   0  0  0  0  0  0
  -29.7305  -11.8197   17.4033 H   0  0  0  0  0  0
  -29.6521  -13.5208   17.7996 H   0  0  0  0  0  0
  -27.8271  -11.3109   18.8118 H   0  0  0  0  0  0
  -27.3601  -12.6446   17.7922 H   0  0  0  0  0  0
  -27.7131  -14.2545   19.5837 H   0  0  0  0  0  0
  -28.6719  -11.9429   21.3427 H   0  0  0  0  0  0
  -28.4599  -13.5808   21.8745 H   0  0  0  0  0  0
  -25.2773   -9.5685   22.4761 H   0  0  0  0  0  0
  -24.0018   -7.4626   22.7469 H   0  0  0  0  0  0
  -21.0852   -8.8765   19.8943 H   0  0  0  0  0  0
  -22.3706  -10.9673   19.6156 H   0  0  0  0  0  0
  -21.2010   -7.6164   23.9740 H   0  0  0  0  0  0
  -21.1472   -6.0530   25.9091 H   0  0  0  0  0  0
  -22.0602   -2.7627   23.2839 H   0  0  0  0  0  0
  -22.4128  -11.9877   22.4771 H   0  0  0  0  0  0
  -21.1125  -13.1241   22.2597 H   0  0  0  0  0  0
  -24.6401  -15.8303   20.4458 H   0  0  0  0  0  0
  -26.2542  -15.6011   19.9967 H   0  0  0  0  0  0
  -26.7033  -32.5595   23.1190 H   0  0  0  0  0  0
  -24.9925  -33.9808   25.0431 H   0  0  0  0  0  0
  -22.6837  -31.3013   21.4174 H   0  0  0  0  0  0
  -23.3752  -35.9716   23.3313 H   0  0  0  0  0  0
  -24.3580  -36.8981   22.2050 H   0  0  0  0  0  0
  -23.7280  -37.6574   23.6655 H   0  0  0  0  0  0
  -26.0164  -31.6074   20.5883 H   0  0  0  0  0  0
  -26.8137  -30.9046   21.9719 H   0  0  0  0  0  0
  -28.0951  -29.1318   21.1648 H   0  0  0  0  0  0
  -26.0989  -25.9848   19.0044 H   0  0  0  0  0  0
  -23.9813  -27.2754   19.0527 H   0  0  0  0  0  0
  -23.7045  -30.5845   19.4107 H   0  0  0  0  0  0
  -22.7293  -29.2240   19.8837 H   0  0  0  0  0  0
  -25.1305  -36.2052   25.0825 H   0  0  0  0  0  0
  -20.9848  -28.3165   24.1498 H   0  0  0  0  0  0
  -20.5667  -26.2209   23.3604 H   0  0  0  0  0  0
  -21.6622  -26.7454   22.1216 H   0  0  0  0  0  0
  -19.6924  -25.6269   21.1234 H   0  0  0  0  0  0
  -19.6700  -27.3180   20.6780 H   0  0  0  0  0  0
  -17.4181  -26.6612   21.4000 H   0  0  0  0  0  0
  -18.0286  -26.0052   22.9015 H   0  0  0  0  0  0
  -19.7940  -30.7201   24.2252 H   0  0  0  0  0  0
  -17.5046  -31.6264   24.5145 H   0  0  0  0  0  0
  -15.5341  -30.3005   23.7711 H   0  0  0  0  0  0
  -15.8603  -28.0870   22.7040 H   0  0  0  0  0  0
  -24.5869  -30.7036   25.7807 H   0  0  0  0  0  0
  -24.8861  -32.2816   26.4967 H   0  0  0  0  0  0
  -25.8056  -30.8820   27.0226 H   0  0  0  0  0  0
  -26.2724  -29.6831   24.1155 H   0  0  0  0  0  0
  -27.4135  -29.7314   25.4404 H   0  0  0  0  0  0
  -27.8524  -30.4423   23.9061 H   0  0  0  0  0  0
  -27.2645  -33.3626   26.2067 H   0  0  0  0  0  0
  -28.3801  -32.6876   25.0274 H   0  0  0  0  0  0
  -28.0697  -31.8426   26.5351 H   0  0  0  0  0  0
  -28.2621  -38.0126   24.7514 H   0  0  0  0  0  0
  -28.1102  -36.2658   24.6284 H   0  0  0  0  0  0
  -27.2286  -37.1490   25.8831 H   0  0  0  0  0  0
  -20.9294  -29.8751   21.7054 H   0  0  0  0  0  0
  -26.0234  -38.2917   24.1375 H   0  0  0  0  0  0
  -29.8494  -19.7762   19.8059 H   0  0  0  0  0  0
  -25.8167  -22.7939   22.5727 H   0  0  0  0  0  0
  -26.8265  -22.4783   23.9953 H   0  0  0  0  0  0
  -25.6415  -21.2954   23.4805 H   0  0  0  0  0  0
  -30.1246  -16.1029   23.4240 H   0  0  0  0  0  0
  -31.7497  -15.8809   22.7713 H   0  0  0  0  0  0
  -30.7996  -14.4848   23.2982 H   0  0  0  0  0  0
  -27.9121  -18.0125   19.4636 H   0  0  0  0  0  0
  -26.6235  -17.9979   20.6179 H   0  0  0  0  0  0
  -29.8549  -23.6750   22.2617 H   0  0  0  0  0  0
  -28.2667  -23.8515   22.9493 H   0  0  0  0  0  0
  -27.7524  -16.1223   21.2690 H   0  0  0  0  0  0
  -28.3596  -17.2691   22.4161 H   0  0  0  0  0  0
  -27.3487  -24.3395   20.6289 H   0  0  0  0  0  0
  -28.9757  -24.2379   20.0038 H   0  0  0  0  0  0
  -30.5099  -17.3990   21.1515 H   0  0  0  0  0  0
  -29.7988  -16.5732   19.7914 H   0  0  0  0  0  0
  -29.6527  -26.1327   21.5515 H   0  0  0  0  0  0
  -27.9830  -26.2667   22.0562 H   0  0  0  0  0  0
  1 25  1  0  0  0
  1 30  2  0  0  0
  1 85  1  0  0  0
  2  3  1  0  0  0
  2 25  1  0  0  0
  2 86  1  0  0  0
  2 87  1  0  0  0
  3  4  1  0  0  0
  3 88  1  0  0  0
  3 89  1  0  0  0
  4  5  1  0  0  0
  4 90  1  0  0  0
  4 91  1  0  0  0
  5  6  1  0  0  0
  5 26  1  0  0  0
  5 92  1  0  0  0
  6 25  1  0  0  0
  6 93  1  0  0  0
  6 94  1  0  0  0
  7  8  2  0  0  0
  7 26  1  0  0  0
  7 29  1  0  0  0
  8  9  1  0  0  0
  8 22  1  0  0  0
  9 10  1  0  0  0
  9 27  2  0  0  0
 10 11  2  0  0  0
 10 15  1  0  0  0
 11 12  1  0  0  0
 11 95  1  0  0  0
 12 13  2  0  0  0
 12 96  1  0  0  0
 13 14  1  0  0  0
 13 31  1  0  0  0
 14 15  2  0  0  0
 14 97  1  0  0  0
 15 98  1  0  0  0
 16 17  2  0  0  0
 16 21  1  0  0  0
 16 31  1  0  0  0
 17 18  1  0  0  0
 17 99  1  0  0  0
 18 19  2  0  0  0
 18100  1  0  0  0
 19 20  1  0  0  0
 19 24  1  0  0  0
 20 21  2  0  0  0
 20101  1  0  0  0
 21 23  1  0  0  0
 22 28  1  0  0  0
 22 32  2  0  0  0
 26 27  1  0  0  0
 28102  1  0  0  0
 28103  1  0  0  0
 29104  1  0  0  0
 29105  1  0  0  0
 33 34  1  0  0  0
 33 66  1  0  0  0
 33 70  2  0  0  0
 34 36  1  0  0  0
 34 59  1  0  0  0
 34106  1  0  0  0
 35 44  2  0  0  0
 35 45  1  0  0  0
 35 68  1  0  0  0
 36 56  1  0  0  0
 36107  1  0  0  0
 37 39  1  0  0  0
 37 47  1  0  0  0
 37 66  1  0  0  0
 37108  1  0  0  0
 38 43  2  0  0  0
 38 46  1  0  0  0
 38 47  1  0  0  0
 39 64  1  0  0  0
 39 67  2  0  0  0
 40 52  1  0  0  0
 40 53  2  0  0  0
 40 58  1  0  0  0
 41109  1  0  0  0
 41110  1  0  0  0
 41111  1  0  0  0
 41 48  1  0  0  0
 42 43  1  0  0  0
 42 66  1  0  0  0
 42112  1  0  0  0
 42113  1  0  0  0
 43 44  1  0  0  0
 44114  1  0  0  0
 45 46  2  0  0  0
 45115  1  0  0  0
 46116  1  0  0  0
 47117  1  0  0  0
 47118  1  0  0  0
 48 56  1  0  0  0
 48 65  1  0  0  0
 48119  1  0  0  0
 49 50  1  0  0  0
 49 53  1  0  0  0
 49 64  1  0  0  0
 49120  1  0  0  0
 50 51  1  0  0  0
 50121  1  0  0  0
 50122  1  0  0  0
 51 52  1  0  0  0
 51123  1  0  0  0
 51124  1  0  0  0
 52125  1  0  0  0
 52126  1  0  0  0
 53 54  1  0  0  0
 54 55  2  0  0  0
 54127  1  0  0  0
 55 57  1  0  0  0
 55128  1  0  0  0
 56 69  2  0  0  0
 57 58  2  0  0  0
 57129  1  0  0  0
 58130  1  0  0  0
 59 60  1  0  0  0
 59 61  1  0  0  0
 59 62  1  0  0  0
 60131  1  0  0  0
 60132  1  0  0  0
 60133  1  0  0  0
 61134  1  0  0  0
 61135  1  0  0  0
 61136  1  0  0  0
 62137  1  0  0  0
 62138  1  0  0  0
 62139  1  0  0  0
 63 65  1  0  0  0
 63140  1  0  0  0
 63141  1  0  0  0
 63142  1  0  0  0
 64143  1  0  0  0
 65144  1  0  0  0
 68 82  1  0  0  0
 71 72  2  0  0  0
 71 83  1  0  0  0
 71145  1  0  0  0
 72 77  1  0  0  0
 72 84  1  0  0  0
 73 74  1  0  0  0
 73 75  1  0  0  0
 73 84  2  0  0  0
 74 78  1  0  0  0
 74 83  2  0  0  0
 75146  1  0  0  0
 75147  1  0  0  0
 75148  1  0  0  0
 76 85  1  0  0  0
 76149  1  0  0  0
 76150  1  0  0  0
 76151  1  0  0  0
 77 79  1  0  0  0
 77152  1  0  0  0
 77153  1  0  0  0
 78 80  1  0  0  0
 78154  1  0  0  0
 78155  1  0  0  0
 79 81  1  0  0  0
 79156  1  0  0  0
 79157  1  0  0  0
 80 82  1  0  0  0
 80158  1  0  0  0
 80159  1  0  0  0
 81 85  1  0  0  0
 81160  1  0  0  0
 81161  1  0  0  0
 82162  1  0  0  0
 82163  1  0  0  0
M  ISO  4   1 100  68 101  82 101  85 100
M  END
> <chiral flag>
0

> <version>
0

> <s_m_source_file>
/data/baiqing/PycharmProjects/Reinvent-master-3.2/result/LINK_invent/BTK/process_docking_weight1_custom_sum_contain_oxygen_bond_distance_aromatic_linkinvent_7_9_3/rearranged_h_0068.sdf

> <i_m_source_file_index>
58

> <r_mmod_Potential_Energy-OPLS-2005>
113.579162597656

> <r_mmod_Stretch_Energy-OPLS-2005>
34.1982269287109

> <r_mmod_Bend_Energy-OPLS-2005>
90.6173400878906

> <r_mmod_Torsional_Energy-OPLS-2005>
295.028137207031

> <r_mmod_Improper_Torsional_Energy-OPLS-2005>
6.05130100250244

> <r_mmod_Van_der_Waal_Energy-OPLS-2005>
148.495376586914

> <r_mmod_Electrostatic_Energy-OPLS-2005>
-264.372894287109

> <r_mmod_Solvation_Energy-OPLS-2005>
-203.582672119141

> <b_mmod_Minimization_Converged-OPLS-2005>
0

> <r_mmod_RMS_Derivative-OPLS-2005>
3.29962468147278

$$$$
63
                    3D
 Structure written by MMmdl.
166174  0  0  1  0            999 V2000
  -30.7720  -14.5307   20.5459 C   0  0  0  0  0  0
  -30.3874  -12.3392   19.4664 C   0  0  0  0  0  0
  -29.4897  -12.4943   18.2239 C   0  0  0  0  0  0
  -28.0109  -12.3455   18.6223 C   0  0  0  0  0  0
  -27.6407  -13.2210   19.8454 C   0  0  2  0  0  0
  -28.6781  -13.0827   20.9785 C   0  0  0  0  0  0
  -25.2496  -13.8168   20.5624 C   0  0  0  0  0  0
  -24.1800  -13.0442   20.9187 C   0  0  0  0  0  0
  -24.6374  -11.6915   20.8748 C   0  0  0  0  0  0
  -23.9048  -10.4301   21.0413 C   0  0  0  0  0  0
  -24.3598   -9.4210   21.9178 C   0  0  0  0  0  0
  -23.6273   -8.2249   22.0754 C   0  0  0  0  0  0
  -22.4251   -8.0294   21.3550 C   0  0  0  0  0  0
  -21.9891   -9.0263   20.4644 C   0  0  0  0  0  0
  -22.7226  -10.2143   20.3062 C   0  0  0  0  0  0
  -21.6851   -6.0735   22.5278 C   0  0  0  0  0  0
  -21.4019   -6.5636   23.8215 C   0  0  0  0  0  0
  -21.3656   -5.6794   24.9172 C   0  0  0  0  0  0
  -21.6040   -4.3057   24.7233 C   0  0  0  0  0  0
  -21.8822   -3.8153   23.4354 C   0  0  0  0  0  0
  -21.9189   -4.6960   22.3407 C   0  0  0  0  0  0
  -22.7826  -13.5214   21.1877 C   0  0  0  0  0  0
  -22.1655   -4.2146   21.0980 F   0  0  0  0  0  0
  -21.5621   -3.4546   25.7736 F   0  0  0  0  0  0
  -30.0058  -13.3948   20.4380 N   0  0  0  0  0  0
  -26.2911  -12.9371   20.3213 N   0  0  0  0  0  0
  -25.9289  -11.6519   20.5724 N   0  0  0  0  0  0
  -22.0508  -12.8183   22.0438 N   0  0  0  0  0  0
  -25.4223  -15.1873   20.3916 N   0  0  0  0  0  0
  -31.9211  -14.4775   20.0999 O   0  0  0  0  0  0
  -21.6632   -6.8880   21.4236 O   0  0  0  0  0  0
  -22.3483  -14.5527   20.6747 O   0  0  0  0  0  0
  -24.6165  -31.8658   23.2096 C   0  0  0  0  0  0
  -25.9074  -32.4778   23.8393 C   0  0  1  0  0  0
  -27.2199  -27.4235   20.1012 C   0  0  0  0  0  0
  -25.5944  -33.8576   24.2325 N   0  0  0  0  0  0
  -23.4031  -30.4931   21.5485 C   0  0  2  0  0  0
  -24.8466  -28.9554   20.1133 C   0  0  0  0  0  0
  -22.7388  -29.4672   22.4954 C   0  0  0  0  0  0
  -18.0261  -28.1400   22.8463 C   0  0  0  0  0  0
  -24.1501  -36.7311   23.2642 C   0  0  0  0  0  0
  -25.9355  -30.8247   21.3682 C   0  0  0  0  0  0
  -26.0080  -29.4617   20.7111 C   0  0  0  0  0  0
  -27.2014  -28.7045   20.6977 C   0  0  0  0  0  0
  -26.0443  -26.9288   19.5014 C   0  0  0  0  0  0
  -24.8602  -27.6884   19.5034 C   0  0  0  0  0  0
  -23.6120  -29.8270   20.1625 C   0  0  0  0  0  0
  -25.4106  -36.3068   24.0339 C   0  0  1  0  0  0
  -20.5843  -28.3702   23.1276 C   0  0  2  0  0  0
  -20.6748  -26.9430   22.5400 C   0  0  0  0  0  0
  -19.5749  -26.6378   21.5198 C   0  0  0  0  0  0
  -18.1933  -26.7934   22.1613 C   0  0  0  0  0  0
  -19.1514  -28.8857   23.2865 C   0  0  0  0  0  0
  -18.9469  -30.1450   23.8886 C   0  0  0  0  0  0
  -17.6487  -30.6604   24.0573 C   0  0  0  0  0  0
  -25.9037  -34.9440   23.5118 C   0  0  0  0  0  0
  -16.5360  -29.9120   23.6355 C   0  0  0  0  0  0
  -16.7256  -28.6537   23.0358 C   0  0  0  0  0  0
  -26.4527  -31.6551   25.0716 C   0  0  0  0  0  0
  -25.3834  -31.3646   26.1493 C   0  0  0  0  0  0
  -27.0374  -30.2983   24.6113 C   0  0  0  0  0  0
  -27.6088  -32.4288   25.7483 C   0  0  0  0  0  0
  -27.5573  -37.1800   24.8463 C   0  0  0  0  0  0
  -21.4111  -29.3073   22.3696 N   0  0  0  0  0  0
  -26.4284  -37.3762   23.9410 N   0  0  0  0  0  0
  -24.6699  -31.0758   22.1002 N   0  0  0  0  0  0
  -23.4143  -28.8205   23.3013 O   0  0  0  0  0  0
  -28.3735  -26.6720   20.0845 O   0  0  0  0  0  0
  -26.5580  -34.8898   22.4671 O   0  0  0  0  0  0
  -23.5363  -32.1411   23.7505 O   0  0  0  0  0  0
  -27.7115  -18.3094   20.3706 C   0  0  0  0  0  0
  -28.5450  -17.8671   21.4253 C   0  0  0  0  0  0
  -27.9828  -20.4723   21.0870 C   0  0  0  0  0  0
  -28.7196  -15.9324   23.0668 C   0  0  0  0  0  0
  -29.4562  -25.4046   21.7415 C   0  0  0  0  0  0
  -31.4582  -16.3956   22.0857 C   0  0  0  0  0  0
  -30.6644  -16.9202   19.7896 C   0  0  0  0  0  0
  -27.6756  -21.9751   20.9231 C   0  0  0  0  0  0
  -28.7825  -22.7861   20.1951 C   0  0  0  0  0  0
  -28.4325  -24.2255   19.6865 C   0  0  0  0  0  0
  -28.9611  -16.3735   21.6018 C   0  0  2  0  0  0
  -28.3105  -25.3805   20.7234 C   0  0  2  0  0  0
  -30.3916  -16.0038   21.0259 C   0  0  0  0  0  0
  -27.4383  -19.6281   20.1994 N   0  0  0  0  0  0
  -29.0703  -18.7982   22.2715 N   0  0  0  0  0  0
  -28.7804  -20.1033   22.1068 N   0  0  0  0  0  0
  -31.4352  -12.3642   19.1657 H   0  0  0  0  0  0
  -30.2488  -11.3513   19.9074 H   0  0  0  0  0  0
  -29.7503  -11.7505   17.4711 H   0  0  0  0  0  0
  -29.6548  -13.4691   17.7648 H   0  0  0  0  0  0
  -27.8376  -11.2935   18.8502 H   0  0  0  0  0  0
  -27.3624  -12.5850   17.7789 H   0  0  0  0  0  0
  -27.6575  -14.2498   19.4886 H   0  0  0  0  0  0
  -28.6679  -12.0649   21.3683 H   0  0  0  0  0  0
  -28.4011  -13.6979   21.8210 H   0  0  0  0  0  0
  -25.2747   -9.5675   22.4750 H   0  0  0  0  0  0
  -23.9996   -7.4623   22.7451 H   0  0  0  0  0  0
  -21.0851   -8.8772   19.8919 H   0  0  0  0  0  0
  -22.3695  -10.9675   19.6179 H   0  0  0  0  0  0
  -21.2032   -7.6154   23.9704 H   0  0  0  0  0  0
  -21.1463   -6.0537   25.9065 H   0  0  0  0  0  0
  -22.0608   -2.7617   23.2860 H   0  0  0  0  0  0
  -22.4146  -11.9821   22.4768 H   0  0  0  0  0  0
  -21.1158  -13.1212   22.2748 H   0  0  0  0  0  0
  -24.6375  -15.8279   20.4402 H   0  0  0  0  0  0
  -26.2237  -15.5761   19.9181 H   0  0  0  0  0  0
  -26.7139  -32.5455   23.1145 H   0  0  0  0  0  0
  -25.0142  -33.9753   25.0501 H   0  0  0  0  0  0
  -22.6944  -31.3108   21.4075 H   0  0  0  0  0  0
  -23.3730  -35.9681   23.3302 H   0  0  0  0  0  0
  -24.3614  -36.8930   22.2062 H   0  0  0  0  0  0
  -23.7308  -37.6537   23.6671 H   0  0  0  0  0  0
  -26.0612  -31.5906   20.6018 H   0  0  0  0  0  0
  -26.8188  -30.8625   21.9944 H   0  0  0  0  0  0
  -28.1015  -29.0868   21.1580 H   0  0  0  0  0  0
  -26.0394  -25.9563   19.0319 H   0  0  0  0  0  0
  -23.9685  -27.2922   19.0365 H   0  0  0  0  0  0
  -23.7308  -30.6041   19.4059 H   0  0  0  0  0  0
  -22.7333  -29.2546   19.8575 H   0  0  0  0  0  0
  -25.1283  -36.1920   25.0834 H   0  0  0  0  0  0
  -20.9904  -28.3286   24.1409 H   0  0  0  0  0  0
  -20.5631  -26.2327   23.3608 H   0  0  0  0  0  0
  -21.6621  -26.7465   22.1217 H   0  0  0  0  0  0
  -19.6921  -25.6271   21.1265 H   0  0  0  0  0  0
  -19.6717  -27.3152   20.6699 H   0  0  0  0  0  0
  -17.4193  -26.6621   21.4047 H   0  0  0  0  0  0
  -18.0369  -26.0096   22.9034 H   0  0  0  0  0  0
  -19.7967  -30.7245   24.2239 H   0  0  0  0  0  0
  -17.5088  -31.6278   24.5201 H   0  0  0  0  0  0
  -15.5380  -30.3050   23.7736 H   0  0  0  0  0  0
  -15.8627  -28.0893   22.7093 H   0  0  0  0  0  0
  -24.6050  -30.6914   25.7892 H   0  0  0  0  0  0
  -24.8986  -32.2786   26.4929 H   0  0  0  0  0  0
  -25.8262  -30.8887   27.0248 H   0  0  0  0  0  0
  -26.2920  -29.6677   24.1247 H   0  0  0  0  0  0
  -27.4233  -29.7271   25.4565 H   0  0  0  0  0  0
  -27.8714  -30.4280   23.9208 H   0  0  0  0  0  0
  -27.2701  -33.3583   26.2058 H   0  0  0  0  0  0
  -28.3911  -32.6838   25.0331 H   0  0  0  0  0  0
  -28.0733  -31.8414   26.5416 H   0  0  0  0  0  0
  -28.2561  -38.0110   24.7469 H   0  0  0  0  0  0
  -28.1077  -36.2634   24.6306 H   0  0  0  0  0  0
  -27.2283  -37.1458   25.8859 H   0  0  0  0  0  0
  -20.9270  -29.8845   21.6967 H   0  0  0  0  0  0
  -26.0151  -38.2839   24.1382 H   0  0  0  0  0  0
  -27.2933  -17.6180   19.6526 H   0  0  0  0  0  0
  -27.6524  -15.9080   23.2897 H   0  0  0  0  0  0
  -29.1802  -16.6198   23.7775 H   0  0  0  0  0  0
  -29.1403  -14.9552   23.2944 H   0  0  0  0  0  0
  -30.4242  -25.4647   21.2441 H   0  0  0  0  0  0
  -29.4506  -24.5173   22.3733 H   0  0  0  0  0  0
  -29.3722  -26.2691   22.4014 H   0  0  0  0  0  0
  -31.3261  -17.4183   22.4356 H   0  0  0  0  0  0
  -32.4726  -16.3460   21.6893 H   0  0  0  0  0  0
  -31.4242  -15.7422   22.9573 H   0  0  0  0  0  0
  -29.8973  -16.7945   19.0250 H   0  0  0  0  0  0
  -31.6241  -16.7326   19.3071 H   0  0  0  0  0  0
  -30.6998  -17.9769   20.0505 H   0  0  0  0  0  0
  -27.4887  -22.4053   21.9071 H   0  0  0  0  0  0
  -26.7399  -22.0735   20.3705 H   0  0  0  0  0  0
  -29.0562  -22.2050   19.3147 H   0  0  0  0  0  0
  -29.6830  -22.8049   20.8095 H   0  0  0  0  0  0
  -27.5183  -24.1807   19.0966 H   0  0  0  0  0  0
  -29.2111  -24.5093   18.9764 H   0  0  0  0  0  0
  -28.2432  -15.8275   20.9966 H   0  0  0  0  0  0
  -27.3776  -25.2624   21.2791 H   0  0  0  0  0  0
  1 25  1  0  0  0
  1 30  2  0  0  0
  1 83  1  0  0  0
  2  3  1  0  0  0
  2 25  1  0  0  0
  2 87  1  0  0  0
  2 88  1  0  0  0
  3  4  1  0  0  0
  3 89  1  0  0  0
  3 90  1  0  0  0
  4  5  1  0  0  0
  4 91  1  0  0  0
  4 92  1  0  0  0
  5  6  1  0  0  0
  5 26  1  0  0  0
  5 93  1  0  0  0
  6 25  1  0  0  0
  6 94  1  0  0  0
  6 95  1  0  0  0
  7  8  2  0  0  0
  7 26  1  0  0  0
  7 29  1  0  0  0
  8  9  1  0  0  0
  8 22  1  0  0  0
  9 10  1  0  0  0
  9 27  2  0  0  0
 10 11  2  0  0  0
 10 15  1  0  0  0
 11 12  1  0  0  0
 11 96  1  0  0  0
 12 13  2  0  0  0
 12 97  1  0  0  0
 13 14  1  0  0  0
 13 31  1  0  0  0
 14 15  2  0  0  0
 14 98  1  0  0  0
 15 99  1  0  0  0
 16 17  2  0  0  0
 16 21  1  0  0  0
 16 31  1  0  0  0
 17 18  1  0  0  0
 17100  1  0  0  0
 18 19  2  0  0  0
 18101  1  0  0  0
 19 20  1  0  0  0
 19 24  1  0  0  0
 20 21  2  0  0  0
 20102  1  0  0  0
 21 23  1  0  0  0
 22 28  1  0  0  0
 22 32  2  0  0  0
 26 27  1  0  0  0
 28103  1  0  0  0
 28104  1  0  0  0
 29105  1  0  0  0
 29106  1  0  0  0
 33 34  1  0  0  0
 33 66  1  0  0  0
 33 70  2  0  0  0
 34 36  1  0  0  0
 34 59  1  0  0  0
 34107  1  0  0  0
 35 44  2  0  0  0
 35 45  1  0  0  0
 35 68  1  0  0  0
 36 56  1  0  0  0
 36108  1  0  0  0
 37 39  1  0  0  0
 37 47  1  0  0  0
 37 66  1  0  0  0
 37109  1  0  0  0
 38 43  2  0  0  0
 38 46  1  0  0  0
 38 47  1  0  0  0
 39 64  1  0  0  0
 39 67  2  0  0  0
 40 52  1  0  0  0
 40 53  2  0  0  0
 40 58  1  0  0  0
 41110  1  0  0  0
 41111  1  0  0  0
 41112  1  0  0  0
 41 48  1  0  0  0
 42 43  1  0  0  0
 42 66  1  0  0  0
 42113  1  0  0  0
 42114  1  0  0  0
 43 44  1  0  0  0
 44115  1  0  0  0
 45 46  2  0  0  0
 45116  1  0  0  0
 46117  1  0  0  0
 47118  1  0  0  0
 47119  1  0  0  0
 48 56  1  0  0  0
 48 65  1  0  0  0
 48120  1  0  0  0
 49 50  1  0  0  0
 49 53  1  0  0  0
 49 64  1  0  0  0
 49121  1  0  0  0
 50 51  1  0  0  0
 50122  1  0  0  0
 50123  1  0  0  0
 51 52  1  0  0  0
 51124  1  0  0  0
 51125  1  0  0  0
 52126  1  0  0  0
 52127  1  0  0  0
 53 54  1  0  0  0
 54 55  2  0  0  0
 54128  1  0  0  0
 55 57  1  0  0  0
 55129  1  0  0  0
 56 69  2  0  0  0
 57 58  2  0  0  0
 57130  1  0  0  0
 58131  1  0  0  0
 59 60  1  0  0  0
 59 61  1  0  0  0
 59 62  1  0  0  0
 60132  1  0  0  0
 60133  1  0  0  0
 60134  1  0  0  0
 61135  1  0  0  0
 61136  1  0  0  0
 61137  1  0  0  0
 62138  1  0  0  0
 62139  1  0  0  0
 62140  1  0  0  0
 63 65  1  0  0  0
 63141  1  0  0  0
 63142  1  0  0  0
 63143  1  0  0  0
 64144  1  0  0  0
 65145  1  0  0  0
 68 82  1  0  0  0
 71 72  2  0  0  0
 71 84  1  0  0  0
 71146  1  0  0  0
 72 81  1  0  0  0
 72 85  1  0  0  0
 73 78  1  0  0  0
 73 84  2  0  0  0
 73 86  1  0  0  0
 74147  1  0  0  0
 74148  1  0  0  0
 74149  1  0  0  0
 74 81  1  0  0  0
 75150  1  0  0  0
 75151  1  0  0  0
 75152  1  0  0  0
 75 82  1  0  0  0
 76153  1  0  0  0
 76154  1  0  0  0
 76155  1  0  0  0
 76 83  1  0  0  0
 77 83  1  0  0  0
 77156  1  0  0  0
 77157  1  0  0  0
 77158  1  0  0  0
 78 79  1  0  0  0
 78159  1  0  0  0
 78160  1  0  0  0
 79 80  1  0  0  0
 79161  1  0  0  0
 79162  1  0  0  0
 80 82  1  0  0  0
 80163  1  0  0  0
 80164  1  0  0  0
 81 83  1  0  0  0
 81165  1  0  0  0
 82166  1  0  0  0
 85 86  2  0  0  0
M  ISO  4   1 100  68 101  82 101  83 100
M  END
> <chiral flag>
0

> <version>
0

> <s_m_source_file>
/data/baiqing/PycharmProjects/Reinvent-master-3.2/result/LINK_invent/BTK/process_docking_weight1_custom_sum_contain_oxygen_bond_distance_aromatic_linkinvent_7_9_3/rearranged_h_0068.sdf

> <i_m_source_file_index>
59

> <r_mmod_Potential_Energy-OPLS-2005>
83.2145614624023

> <r_mmod_Stretch_Energy-OPLS-2005>
59.4265670776367

> <r_mmod_Bend_Energy-OPLS-2005>
165.372833251953

> <r_mmod_Torsional_Energy-OPLS-2005>
191.445007324219

> <r_mmod_Improper_Torsional_Energy-OPLS-2005>
4.02631950378418

> <r_mmod_Van_der_Waal_Energy-OPLS-2005>
168.998428344727

> <r_mmod_Electrostatic_Energy-OPLS-2005>
-327.296966552734

> <r_mmod_Solvation_Energy-OPLS-2005>
-205.749588012695

> <b_mmod_Minimization_Converged-OPLS-2005>
0

> <r_mmod_RMS_Derivative-OPLS-2005>
2.9263973236084

$$$$
65
                    3D
 Structure written by MMmdl.
181189  0  0  1  0            999 V2000
  -29.5484  -15.4808   20.6205 C   0  0  0  0  0  0
  -30.3166  -13.0677   19.6716 C   0  0  0  0  0  0
  -29.5229  -12.6942   18.3808 C   0  0  0  0  0  0
  -28.0704  -12.2963   18.7105 C   0  0  0  0  0  0
  -27.5165  -13.2120   19.8215 C   0  0  2  0  0  0
  -28.4213  -13.2784   21.0453 C   0  0  0  0  0  0
  -25.1941  -13.8080   20.5519 C   0  0  0  0  0  0
  -24.1375  -13.0354   20.9230 C   0  0  0  0  0  0
  -24.5965  -11.6822   20.8740 C   0  0  0  0  0  0
  -23.8784  -10.4233   21.0481 C   0  0  0  0  0  0
  -24.3485   -9.4191   21.9213 C   0  0  0  0  0  0
  -23.6232   -8.2195   22.0744 C   0  0  0  0  0  0
  -22.4206   -8.0219   21.3543 C   0  0  0  0  0  0
  -21.9780   -9.0149   20.4649 C   0  0  0  0  0  0
  -22.7022  -10.2051   20.3079 C   0  0  0  0  0  0
  -21.6843   -6.0692   22.5282 C   0  0  0  0  0  0
  -21.4014   -6.5627   23.8212 C   0  0  0  0  0  0
  -21.3631   -5.6789   24.9180 C   0  0  0  0  0  0
  -21.6024   -4.3049   24.7229 C   0  0  0  0  0  0
  -21.8835   -3.8128   23.4360 C   0  0  0  0  0  0
  -21.9202   -4.6930   22.3413 C   0  0  0  0  0  0
  -22.7507  -13.5195   21.1984 C   0  0  0  0  0  0
  -22.1682   -4.2128   21.0991 F   0  0  0  0  0  0
  -21.5602   -3.4537   25.7744 F   0  0  0  0  0  0
  -29.5120  -14.0470   20.5395 N   0  0  0  0  0  0
  -26.2002  -12.9101   20.2658 N   0  0  0  0  0  0
  -25.8744  -11.6307   20.5397 N   0  0  0  0  0  0
  -22.0225  -12.8184   22.0574 N   0  0  0  0  0  0
  -25.3758  -15.1821   20.4025 N   0  0  0  0  0  0
  -30.7326  -15.7893   20.2992 O   0  0  0  0  0  0
  -21.6622   -6.8796   21.4220 O   0  0  0  0  0  0
  -22.3247  -14.5518   20.6831 O   0  0  0  0  0  0
  -24.6571  -31.9269   23.2040 C   0  0  0  0  0  0
  -25.9423  -32.5058   23.8525 C   0  0  1  0  0  0
  -27.0576  -27.4289   20.2059 C   0  0  0  0  0  0
  -25.6266  -33.8798   24.2536 N   0  0  0  0  0  0
  -23.4663  -30.6254   21.5097 C   0  0  2  0  0  0
  -24.8475  -29.0829   20.0226 C   0  0  0  0  0  0
  -22.9058  -29.6016   22.4807 C   0  0  0  0  0  0
  -18.3261  -27.3898   23.2193 C   0  0  0  0  0  0
  -24.1504  -36.7364   23.2613 C   0  0  0  0  0  0
  -25.9766  -30.9023   21.3407 C   0  0  0  0  0  0
  -26.0099  -29.5498   20.6565 C   0  0  0  0  0  0
  -27.1484  -28.7281   20.7307 C   0  0  0  0  0  0
  -25.9719  -27.0259   19.4110 C   0  0  0  0  0  0
  -24.8340  -27.8412   19.3601 C   0  0  0  0  0  0
  -23.6376  -29.9756   20.1085 C   0  0  0  0  0  0
  -25.4122  -36.3199   24.0339 C   0  0  1  0  0  0
  -21.1234  -28.1882   22.8567 C   0  0  2  0  0  0
  -21.6256  -26.9877   21.2381 C   0  0  0  0  0  0
  -20.0412  -25.6124   20.8646 C   0  0  0  0  0  0
  -18.5252  -25.8915   22.1725 C   0  0  0  0  0  0
  -19.4929  -28.3605   23.5417 C   0  0  0  0  0  0
  -19.1525  -29.7055   23.9714 C   0  0  0  0  0  0
  -17.8402  -30.2376   24.0210 C   0  0  0  0  0  0
  -25.9105  -34.9590   23.5157 C   0  0  0  0  0  0
  -16.7762  -29.4186   23.6189 C   0  0  0  0  0  0
  -17.0270  -28.0632   23.2328 C   0  0  0  0  0  0
  -26.4567  -31.6618   25.0800 C   0  0  0  0  0  0
  -25.3719  -31.3710   26.1435 C   0  0  0  0  0  0
  -27.0300  -30.3049   24.6066 C   0  0  0  0  0  0
  -27.6146  -32.4186   25.7708 C   0  0  0  0  0  0
  -27.5599  -37.1877   24.8465 C   0  0  0  0  0  0
  -21.6034  -29.4530   22.4424 N   0  0  0  0  0  0
  -26.4306  -37.3875   23.9416 N   0  0  0  0  0  0
  -24.7215  -31.1805   22.0660 N   0  0  0  0  0  0
  -23.6342  -28.9524   23.2348 O   0  0  0  0  0  0
  -27.7074  -26.4484   20.8649 O   0  0  0  0  0  0
  -26.5498  -34.9013   22.4618 O   0  0  0  0  0  0
  -23.5731  -32.1929   23.7467 O   0  0  0  0  0  0
  -22.7557  -23.2335   21.5892 C   0  0  0  0  0  0
  -21.7909  -24.0112   22.5072 C   0  0  0  0  0  0
  -22.7317  -21.8220   23.1769 C   0  0  0  0  0  0
  -19.5345  -27.7677   21.1999 C   0  0  0  0  0  0
  -20.2995  -25.5187   24.4104 C   0  0  0  0  0  0
  -23.7798  -19.6349   24.0135 C   0  0  0  0  0  0
  -21.3095  -19.9337   23.9431 C   0  0  0  0  0  0
  -22.7005  -21.1878   25.6036 C   0  0  0  0  0  0
  -24.0889  -25.5509   22.7262 C   0  0  0  0  0  0
  -25.4432  -26.4136   22.5465 C   0  0  0  0  0  0
  -22.6378  -25.9556   23.4917 C   0  0  0  0  0  0
  -25.8873  -19.0750   21.5722 C   0  0  0  0  0  0
  -24.8477  -20.7819   21.3367 C   0  0  0  0  0  0
  -27.4564  -18.0370   20.8714 C   0  0  0  0  0  0
  -26.7107  -25.7257   21.7490 C   0  0  0  0  0  0
  -20.9278  -25.7460   22.9711 C   0  0  0  0  0  0
  -22.6529  -20.6623   24.1560 C   0  0  0  0  0  0
  -23.4731  -21.9171   22.0135 N   0  0  0  0  0  0
  -21.8920  -22.9315   23.4136 N   0  3  0  0  0  0
  -28.2840  -16.4083   20.9330 N   0  0  0  0  0  0
  -31.2751  -13.5121   19.3974 H   0  0  0  0  0  0
  -30.5679  -12.1741   20.2433 H   0  0  0  0  0  0
  -30.0264  -11.9048   17.8212 H   0  0  0  0  0  0
  -29.5039  -13.5689   17.7303 H   0  0  0  0  0  0
  -28.0532  -11.2591   19.0393 H   0  0  0  0  0  0
  -27.4443  -12.3498   17.8177 H   0  0  0  0  0  0
  -27.4429  -14.1903   19.3424 H   0  0  0  0  0  0
  -28.7040  -12.2919   21.4172 H   0  0  0  0  0  0
  -27.9379  -13.7947   21.8767 H   0  0  0  0  0  0
  -25.2641   -9.5737   22.4754 H   0  0  0  0  0  0
  -24.0002   -7.4586   22.7444 H   0  0  0  0  0  0
  -21.0721   -8.8613   19.8966 H   0  0  0  0  0  0
  -22.3463  -10.9590   19.6196 H   0  0  0  0  0  0
  -21.2035   -7.6150   23.9693 H   0  0  0  0  0  0
  -21.1418   -6.0541   25.9070 H   0  0  0  0  0  0
  -22.0640   -2.7592   23.2877 H   0  0  0  0  0  0
  -22.3899  -11.9833   22.4907 H   0  0  0  0  0  0
  -21.0847  -13.1173   22.2865 H   0  0  0  0  0  0
  -24.5689  -15.7938   20.4610 H   0  0  0  0  0  0
  -26.1248  -15.5799   19.8522 H   0  0  0  0  0  0
  -26.7604  -32.5748   23.1400 H   0  0  0  0  0  0
  -25.0567  -33.9929   25.0789 H   0  0  0  0  0  0
  -22.7454  -31.4398   21.4069 H   0  0  0  0  0  0
  -23.3777  -35.9686   23.3275 H   0  0  0  0  0  0
  -24.3623  -36.8971   22.2033 H   0  0  0  0  0  0
  -23.7243  -37.6571   23.6606 H   0  0  0  0  0  0
  -26.1219  -31.6817   20.5915 H   0  0  0  0  0  0
  -26.8556  -30.9191   21.9742 H   0  0  0  0  0  0
  -27.9855  -29.0062   21.3550 H   0  0  0  0  0  0
  -25.9124  -26.0185   19.0207 H   0  0  0  0  0  0
  -23.9429  -27.4942   18.8542 H   0  0  0  0  0  0
  -23.7766  -30.7682   19.3727 H   0  0  0  0  0  0
  -22.7369  -29.4546   19.7891 H   0  0  0  0  0  0
  -25.1281  -36.2069   25.0828 H   0  0  0  0  0  0
  -21.5377  -28.0594   23.8449 H   0  0  0  0  0  0
  -22.6202  -26.6119   21.1510 H   0  0  0  0  0  0
  -21.7810  -27.6086   20.3532 H   0  0  0  0  0  0
  -20.3066  -24.5683   20.7471 H   0  0  0  0  0  0
  -19.6700  -25.7591   19.8443 H   0  0  0  0  0  0
  -17.6216  -25.8642   21.5592 H   0  0  0  0  0  0
  -18.3407  -24.9761   22.7265 H   0  0  0  0  0  0
  -19.9612  -30.3929   24.1887 H   0  0  0  0  0  0
  -17.6691  -31.2651   24.3119 H   0  0  0  0  0  0
  -15.7683  -29.8119   23.5924 H   0  0  0  0  0  0
  -16.1767  -27.4947   22.8797 H   0  0  0  0  0  0
  -24.5859  -30.7184   25.7628 H   0  0  0  0  0  0
  -24.8987  -32.2873   26.4963 H   0  0  0  0  0  0
  -25.7964  -30.8727   27.0156 H   0  0  0  0  0  0
  -26.2833  -29.6965   24.0954 H   0  0  0  0  0  0
  -27.3911  -29.7141   25.4492 H   0  0  0  0  0  0
  -27.8762  -30.4370   23.9325 H   0  0  0  0  0  0
  -27.2798  -33.3453   26.2375 H   0  0  0  0  0  0
  -28.4016  -32.6758   25.0615 H   0  0  0  0  0  0
  -28.0705  -31.8177   26.5579 H   0  0  0  0  0  0
  -28.2597  -38.0192   24.7539 H   0  0  0  0  0  0
  -28.1116  -36.2729   24.6249 H   0  0  0  0  0  0
  -27.2326  -37.1487   25.8869 H   0  0  0  0  0  0
  -21.0258  -30.0349   21.8522 H   0  0  0  0  0  0
  -26.0192  -38.2946   24.1442 H   0  0  0  0  0  0
  -23.0766  -23.6166   20.6309 H   0  0  0  0  0  0
  -18.4957  -27.6821   20.8511 H   0  0  0  0  0  0
  -19.8339  -27.8667   20.1444 H   0  0  0  0  0  0
  -19.5231  -28.8576   21.3225 H   0  0  0  0  0  0
  -19.3258  -25.0474   24.4541 H   0  0  0  0  0  0
  -20.2384  -26.4363   24.9864 H   0  0  0  0  0  0
  -20.8912  -24.8511   25.0325 H   0  0  0  0  0  0
  -23.7071  -19.0995   23.0710 H   0  0  0  0  0  0
  -23.7289  -18.8782   24.7968 H   0  0  0  0  0  0
  -24.7572  -20.1069   24.0943 H   0  0  0  0  0  0
  -21.2306  -19.5365   22.9290 H   0  0  0  0  0  0
  -20.4612  -20.6003   24.0984 H   0  0  0  0  0  0
  -21.1936  -19.0968   24.6352 H   0  0  0  0  0  0
  -23.5925  -21.7919   25.7712 H   0  0  0  0  0  0
  -22.7179  -20.3639   26.3183 H   0  0  0  0  0  0
  -21.8313  -21.7935   25.8517 H   0  0  0  0  0  0
  -24.4326  -24.6295   23.1978 H   0  0  0  0  0  0
  -23.9466  -25.2838   21.6926 H   0  0  0  0  0  0
  -25.7878  -26.7667   23.5199 H   0  0  0  0  0  0
  -25.1426  -27.3184   22.0343 H   0  0  0  0  0  0
  -22.9047  -26.8029   24.1011 H   0  0  0  0  0  0
  -22.7470  -25.2733   24.3323 H   0  0  0  0  0  0
  -26.1413  -19.1160   22.6305 H   0  0  0  0  0  0
  -25.0923  -18.3296   21.5220 H   0  0  0  0  0  0
  -24.5100  -20.6693   20.3047 H   0  0  0  0  0  0
  -25.6610  -21.5007   21.2425 H   0  0  0  0  0  0
  -28.2988  -18.7062   21.0476 H   0  0  0  0  0  0
  -27.2915  -18.1128   19.7952 H   0  0  0  0  0  0
  -26.3040  -24.9188   21.1373 H   0  0  0  0  0  0
  -27.3038  -25.1996   22.4956 H   0  0  0  0  0  0
  -21.3521  -22.9497   24.2686 H   0  0  0  0  0  0
  -27.5763  -15.7567   21.2576 H   0  0  0  0  0  0
  1 25  1  0  0  0
  1 30  2  0  0  0
  1 90  1  0  0  0
  2  3  1  0  0  0
  2 25  1  0  0  0
  2 91  1  0  0  0
  2 92  1  0  0  0
  3  4  1  0  0  0
  3 93  1  0  0  0
  3 94  1  0  0  0
  4  5  1  0  0  0
  4 95  1  0  0  0
  4 96  1  0  0  0
  5  6  1  0  0  0
  5 26  1  0  0  0
  5 97  1  0  0  0
  6 25  1  0  0  0
  6 98  1  0  0  0
  6 99  1  0  0  0
  7  8  2  0  0  0
  7 26  1  0  0  0
  7 29  1  0  0  0
  8  9  1  0  0  0
  8 22  1  0  0  0
  9 10  1  0  0  0
  9 27  2  0  0  0
 10 11  2  0  0  0
 10 15  1  0  0  0
 11 12  1  0  0  0
 11100  1  0  0  0
 12 13  2  0  0  0
 12101  1  0  0  0
 13 14  1  0  0  0
 13 31  1  0  0  0
 14 15  2  0  0  0
 14102  1  0  0  0
 15103  1  0  0  0
 16 17  2  0  0  0
 16 21  1  0  0  0
 16 31  1  0  0  0
 17 18  1  0  0  0
 17104  1  0  0  0
 18 19  2  0  0  0
 18105  1  0  0  0
 19 20  1  0  0  0
 19 24  1  0  0  0
 20 21  2  0  0  0
 20106  1  0  0  0
 21 23  1  0  0  0
 22 28  1  0  0  0
 22 32  2  0  0  0
 26 27  1  0  0  0
 28107  1  0  0  0
 28108  1  0  0  0
 29109  1  0  0  0
 29110  1  0  0  0
 33 34  1  0  0  0
 33 66  1  0  0  0
 33 70  2  0  0  0
 34 36  1  0  0  0
 34 59  1  0  0  0
 34111  1  0  0  0
 35 44  2  0  0  0
 35 45  1  0  0  0
 35 68  1  0  0  0
 36 56  1  0  0  0
 36112  1  0  0  0
 37 39  1  0  0  0
 37 47  1  0  0  0
 37 66  1  0  0  0
 37113  1  0  0  0
 38 43  2  0  0  0
 38 46  1  0  0  0
 38 47  1  0  0  0
 39 64  1  0  0  0
 39 67  2  0  0  0
 40 52  1  0  0  0
 40 53  2  0  0  0
 40 58  1  0  0  0
 41114  1  0  0  0
 41115  1  0  0  0
 41116  1  0  0  0
 41 48  1  0  0  0
 42 43  1  0  0  0
 42 66  1  0  0  0
 42117  1  0  0  0
 42118  1  0  0  0
 43 44  1  0  0  0
 44119  1  0  0  0
 45 46  2  0  0  0
 45120  1  0  0  0
 46121  1  0  0  0
 47122  1  0  0  0
 47123  1  0  0  0
 48 56  1  0  0  0
 48 65  1  0  0  0
 48124  1  0  0  0
 49 50  1  0  0  0
 49 53  1  0  0  0
 49 64  1  0  0  0
 49125  1  0  0  0
 50 51  1  0  0  0
 50126  1  0  0  0
 50127  1  0  0  0
 51 52  1  0  0  0
 51128  1  0  0  0
 51129  1  0  0  0
 52130  1  0  0  0
 52131  1  0  0  0
 53 54  1  0  0  0
 54 55  2  0  0  0
 54132  1  0  0  0
 55 57  1  0  0  0
 55133  1  0  0  0
 56 69  2  0  0  0
 57 58  2  0  0  0
 57134  1  0  0  0
 58135  1  0  0  0
 59 60  1  0  0  0
 59 61  1  0  0  0
 59 62  1  0  0  0
 60136  1  0  0  0
 60137  1  0  0  0
 60138  1  0  0  0
 61139  1  0  0  0
 61140  1  0  0  0
 61141  1  0  0  0
 62142  1  0  0  0
 62143  1  0  0  0
 62144  1  0  0  0
 63 65  1  0  0  0
 63145  1  0  0  0
 63146  1  0  0  0
 63147  1  0  0  0
 64148  1  0  0  0
 65149  1  0  0  0
 68 85  1  0  0  0
 71 72  2  0  0  0
 71 88  1  0  0  0
 71150  1  0  0  0
 72 86  1  0  0  0
 72 89  1  0  0  0
 73 87  1  0  0  0
 73 88  1  0  0  0
 73 89  2  0  0  0
 74151  1  0  0  0
 74152  1  0  0  0
 74153  1  0  0  0
 74 86  1  0  0  0
 75 86  1  0  0  0
 75154  1  0  0  0
 75155  1  0  0  0
 75156  1  0  0  0
 76157  1  0  0  0
 76158  1  0  0  0
 76159  1  0  0  0
 76 87  1  0  0  0
 77 87  1  0  0  0
 77160  1  0  0  0
 77161  1  0  0  0
 77162  1  0  0  0
 78 87  1  0  0  0
 78163  1  0  0  0
 78164  1  0  0  0
 78165  1  0  0  0
 79 80  1  0  0  0
 79 81  1  0  0  0
 79166  1  0  0  0
 79167  1  0  0  0
 80 85  1  0  0  0
 80168  1  0  0  0
 80169  1  0  0  0
 81 86  1  0  0  0
 81170  1  0  0  0
 81171  1  0  0  0
 82 83  1  0  0  0
 82 84  1  0  0  0
 82172  1  0  0  0
 82173  1  0  0  0
 83 88  1  0  0  0
 83174  1  0  0  0
 83175  1  0  0  0
 84 90  1  0  0  0
 84176  1  0  0  0
 84177  1  0  0  0
 85178  1  0  0  0
 85179  1  0  0  0
 89180  1  0  0  0
 90181  1  0  0  0
M  CHG  1  89   1
M  ISO  4   1 100  68 101  85 101  90 100
M  END
> <chiral flag>
0

> <version>
0

> <s_m_source_file>
/data/baiqing/PycharmProjects/Reinvent-master-3.2/result/LINK_invent/BTK/process_docking_weight1_custom_sum_contain_oxygen_bond_distance_aromatic_linkinvent_7_9_3/rearranged_h_0068.sdf

> <i_m_source_file_index>
60

> <r_mmod_Potential_Energy-OPLS-2005>
10170.67578125

> <r_mmod_Stretch_Energy-OPLS-2005>
5631.71484375

> <r_mmod_Bend_Energy-OPLS-2005>
1211.28344726562

> <r_mmod_Torsional_Energy-OPLS-2005>
418.583770751953

> <r_mmod_Improper_Torsional_Energy-OPLS-2005>
26.1328239440918

> <r_mmod_Van_der_Waal_Energy-OPLS-2005>
1810.57458496094

> <r_mmod_Electrostatic_Energy-OPLS-2005>
-252.600204467773

> <r_mmod_Solvation_Energy-OPLS-2005>
-386.273559570312

> <b_mmod_Minimization_Converged-OPLS-2005>
0

> <r_mmod_RMS_Derivative-OPLS-2005>
6.64156436920166

$$$$
66
                    3D
 Structure written by MMmdl.
174183  0  0  1  0            999 V2000
  -30.7778  -14.4385   20.1769 C   0  0  0  0  0  0
  -30.3556  -12.1760   19.3948 C   0  0  0  0  0  0
  -29.4149  -12.3008   18.1804 C   0  0  0  0  0  0
  -27.9522  -12.2780   18.6273 C   0  0  0  0  0  0
  -27.6482  -13.2125   19.8279 C   0  0  2  0  0  0
  -28.7337  -13.1229   20.9266 C   0  0  0  0  0  0
  -25.2578  -13.8162   20.5687 C   0  0  0  0  0  0
  -24.1844  -13.0421   20.9297 C   0  0  0  0  0  0
  -24.6435  -11.6925   20.8876 C   0  0  0  0  0  0
  -23.9128  -10.4278   21.0498 C   0  0  0  0  0  0
  -24.3647   -9.4157   21.9253 C   0  0  0  0  0  0
  -23.6300   -8.2200   22.0790 C   0  0  0  0  0  0
  -22.4296   -8.0257   21.3545 C   0  0  0  0  0  0
  -21.9967   -9.0253   20.4655 C   0  0  0  0  0  0
  -22.7321  -10.2118   20.3124 C   0  0  0  0  0  0
  -21.6848   -6.0741   22.5274 C   0  0  0  0  0  0
  -21.4020   -6.5639   23.8215 C   0  0  0  0  0  0
  -21.3670   -5.6799   24.9176 C   0  0  0  0  0  0
  -21.6048   -4.3062   24.7219 C   0  0  0  0  0  0
  -21.8824   -3.8165   23.4342 C   0  0  0  0  0  0
  -21.9179   -4.6980   22.3392 C   0  0  0  0  0  0
  -22.7830  -13.5254   21.1845 C   0  0  0  0  0  0
  -22.1650   -4.2173   21.0961 F   0  0  0  0  0  0
  -21.5654   -3.4527   25.7731 F   0  0  0  0  0  0
  -30.0625  -13.2858   20.3037 N   0  0  0  0  0  0
  -26.3040  -12.9387   20.3414 N   0  0  0  0  0  0
  -25.9364  -11.6557   20.5966 N   0  0  0  0  0  0
  -22.0431  -12.8267   22.0392 N   0  0  0  0  0  0
  -25.4137  -15.1814   20.3750 N   0  0  0  0  0  0
  -31.9422  -14.5421   20.5336 O   0  0  0  0  0  0
  -21.6626   -6.8867   21.4249 O   0  0  0  0  0  0
  -22.3479  -14.5512   20.6640 O   0  0  0  0  0  0
  -24.6061  -31.8732   23.2204 C   0  0  0  0  0  0
  -25.9007  -32.4842   23.8457 C   0  0  1  0  0  0
  -27.2621  -27.5227   20.0749 C   0  0  0  0  0  0
  -25.5907  -33.8650   24.2380 N   0  0  0  0  0  0
  -23.3867  -30.4972   21.5550 C   0  0  2  0  0  0
  -24.8411  -28.9660   20.1275 C   0  0  0  0  0  0
  -22.7312  -29.4741   22.5044 C   0  0  0  0  0  0
  -18.0250  -28.1385   22.8495 C   0  0  0  0  0  0
  -24.1470  -36.7331   23.2612 C   0  0  0  0  0  0
  -25.9062  -30.8615   21.3641 C   0  0  0  0  0  0
  -25.9915  -29.4996   20.7185 C   0  0  0  0  0  0
  -27.2051  -28.7882   20.6965 C   0  0  0  0  0  0
  -26.0933  -26.9772   19.5069 C   0  0  0  0  0  0
  -24.8835  -27.6966   19.5252 C   0  0  0  0  0  0
  -23.5964  -29.8224   20.1697 C   0  0  0  0  0  0
  -25.4094  -36.3131   24.0309 C   0  0  1  0  0  0
  -20.5822  -28.3704   23.1335 C   0  0  2  0  0  0
  -20.6757  -26.9435   22.5457 C   0  0  0  0  0  0
  -19.5741  -26.6391   21.5251 C   0  0  0  0  0  0
  -18.1900  -26.7930   22.1614 C   0  0  0  0  0  0
  -19.1486  -28.8834   23.2929 C   0  0  0  0  0  0
  -18.9457  -30.1432   23.8961 C   0  0  0  0  0  0
  -17.6461  -30.6598   24.0569 C   0  0  0  0  0  0
  -25.9010  -34.9494   23.5135 C   0  0  0  0  0  0
  -16.5349  -29.9144   23.6282 C   0  0  0  0  0  0
  -16.7232  -28.6545   23.0306 C   0  0  0  0  0  0
  -26.4499  -31.6555   25.0725 C   0  0  0  0  0  0
  -25.3836  -31.3716   26.1544 C   0  0  0  0  0  0
  -27.0270  -30.2971   24.6066 C   0  0  0  0  0  0
  -27.6095  -32.4249   25.7512 C   0  0  0  0  0  0
  -27.5577  -37.1823   24.8450 C   0  0  0  0  0  0
  -21.4048  -29.3092   22.3736 N   0  0  0  0  0  0
  -26.4292  -37.3813   23.9400 N   0  0  0  0  0  0
  -24.6500  -31.0901   22.1063 N   0  0  0  0  0  0
  -23.4124  -28.8266   23.3026 O   0  0  0  0  0  0
  -28.4169  -26.7919   19.9489 O   0  0  0  0  0  0
  -26.5540  -34.8945   22.4666 O   0  0  0  0  0  0
  -23.5293  -32.1479   23.7635 O   0  0  0  0  0  0
  -29.3919  -21.8357   19.7199 C   0  0  0  0  0  0
  -30.2488  -21.2330   21.8625 C   0  0  0  0  0  0
  -30.1447  -22.1964   20.8500 C   0  0  0  0  0  0
  -30.5063  -15.3207   18.9897 C   0  0  0  0  0  0
  -31.0389  -15.2459   17.7112 C   0  0  0  0  0  0
  -29.0460  -19.7531   20.5917 C   0  0  0  0  0  0
  -30.0531  -17.1485   17.8329 C   0  0  0  0  0  0
  -29.6855  -18.5255   17.3599 C   0  0  0  0  0  0
  -31.7560  -13.6841   15.7946 C   0  0  0  0  0  0
  -27.4094  -18.0174   21.4342 C   0  0  0  0  0  0
  -30.8550  -23.5375   20.9500 C   0  0  0  0  0  0
  -32.1025  -14.3366   17.1450 C   0  0  0  0  0  0
  -29.8944  -24.7201   20.8571 C   0  0  0  0  0  0
  -30.5947  -26.0616   20.5743 C   0  0  0  0  0  0
  -29.6507  -17.2765   20.3754 C   0  0  0  0  0  0
  -29.5886  -27.2163   20.6454 C   0  0  0  0  0  0
  -28.5087  -18.3305   20.4078 C   0  0  2  0  0  0
  -28.8426  -20.6165   19.6032 N   0  0  0  0  0  0
  -29.6995  -20.0127   21.7192 N   0  0  0  0  0  0
  -30.6599  -16.3492   16.9718 N   0  0  0  0  0  0
  -29.9772  -16.6258   19.0937 N   0  0  0  0  0  0
  -31.4004  -12.1268   19.0940 H   0  0  0  0  0  0
  -30.1564  -11.2294   19.9026 H   0  0  0  0  0  0
  -29.5908  -11.4759   17.4858 H   0  0  0  0  0  0
  -29.5771  -13.2065   17.6138 H   0  0  0  0  0  0
  -27.7339  -11.2434   18.8949 H   0  0  0  0  0  0
  -27.2915  -12.5101   17.7889 H   0  0  0  0  0  0
  -27.6607  -14.2342   19.4411 H   0  0  0  0  0  0
  -28.6740  -12.1558   21.4356 H   0  0  0  0  0  0
  -28.5696  -13.8872   21.6871 H   0  0  0  0  0  0
  -25.2760   -9.5575   22.4890 H   0  0  0  0  0  0
  -23.9949   -7.4585   22.7546 H   0  0  0  0  0  0
  -21.0894   -8.8797   19.8946 H   0  0  0  0  0  0
  -22.3815  -10.9680   19.6257 H   0  0  0  0  0  0
  -21.2042   -7.6152   23.9722 H   0  0  0  0  0  0
  -21.1510   -6.0523   25.9077 H   0  0  0  0  0  0
  -22.0634   -2.7635   23.2833 H   0  0  0  0  0  0
  -22.3929  -11.9940   22.4893 H   0  0  0  0  0  0
  -21.1008  -13.1269   22.2405 H   0  0  0  0  0  0
  -24.6369  -15.8260   20.4628 H   0  0  0  0  0  0
  -26.2329  -15.6036   19.9594 H   0  0  0  0  0  0
  -26.7053  -32.5609   23.1221 H   0  0  0  0  0  0
  -25.0119  -33.9850   25.0561 H   0  0  0  0  0  0
  -22.6760  -31.3130   21.4106 H   0  0  0  0  0  0
  -23.3768  -35.9627   23.3245 H   0  0  0  0  0  0
  -24.3555  -36.9019   22.2039 H   0  0  0  0  0  0
  -23.7192  -37.6496   23.6673 H   0  0  0  0  0  0
  -25.9959  -31.6252   20.5944 H   0  0  0  0  0  0
  -26.7996  -30.9289   21.9733 H   0  0  0  0  0  0
  -28.0859  -29.2394   21.1290 H   0  0  0  0  0  0
  -26.1244  -26.0060   19.0308 H   0  0  0  0  0  0
  -23.9988  -27.2823   19.0677 H   0  0  0  0  0  0
  -23.6934  -30.5923   19.4031 H   0  0  0  0  0  0
  -22.7274  -29.2364   19.8684 H   0  0  0  0  0  0
  -25.1291  -36.1983   25.0802 H   0  0  0  0  0  0
  -20.9898  -28.3311   24.1452 H   0  0  0  0  0  0
  -20.5703  -26.2324   23.3662 H   0  0  0  0  0  0
  -21.6623  -26.7516   22.1200 H   0  0  0  0  0  0
  -19.6915  -25.6318   21.1261 H   0  0  0  0  0  0
  -19.6677  -27.3226   20.6802 H   0  0  0  0  0  0
  -17.4169  -26.6675   21.4012 H   0  0  0  0  0  0
  -18.0306  -26.0082   22.9010 H   0  0  0  0  0  0
  -19.7957  -30.7198   24.2378 H   0  0  0  0  0  0
  -17.5056  -31.6278   24.5181 H   0  0  0  0  0  0
  -15.5365  -30.3080   23.7620 H   0  0  0  0  0  0
  -15.8603  -28.0906   22.6987 H   0  0  0  0  0  0
  -24.5849  -30.7235   25.7920 H   0  0  0  0  0  0
  -24.9238  -32.2929   26.5163 H   0  0  0  0  0  0
  -25.8228  -30.8713   27.0194 H   0  0  0  0  0  0
  -26.2757  -29.6803   24.1119 H   0  0  0  0  0  0
  -27.4010  -29.7178   25.4530 H   0  0  0  0  0  0
  -27.8647  -30.4243   23.9202 H   0  0  0  0  0  0
  -27.2680  -33.3549   26.2104 H   0  0  0  0  0  0
  -28.3952  -32.6803   25.0370 H   0  0  0  0  0  0
  -28.0689  -31.8323   26.5462 H   0  0  0  0  0  0
  -28.2588  -38.0123   24.7481 H   0  0  0  0  0  0
  -28.1105  -36.2673   24.6297 H   0  0  0  0  0  0
  -27.2293  -37.1435   25.8849 H   0  0  0  0  0  0
  -20.9179  -29.8830   21.6980 H   0  0  0  0  0  0
  -26.0207  -38.2893   24.1449 H   0  0  0  0  0  0
  -29.2404  -22.5075   18.8864 H   0  0  0  0  0  0
  -30.8053  -21.4182   22.7724 H   0  0  0  0  0  0
  -29.7091  -18.5513   16.2698 H   0  0  0  0  0  0
  -30.3962  -19.2668   17.7208 H   0  0  0  0  0  0
  -28.6713  -18.8090   17.6167 H   0  0  0  0  0  0
  -32.5862  -13.0878   15.4228 H   0  0  0  0  0  0
  -31.5403  -14.4447   15.0462 H   0  0  0  0  0  0
  -30.8912  -13.0256   15.8523 H   0  0  0  0  0  0
  -26.5214  -18.6183   21.2383 H   0  0  0  0  0  0
  -27.7388  -18.2223   22.4540 H   0  0  0  0  0  0
  -27.1088  -16.9743   21.3813 H   0  0  0  0  0  0
  -31.5849  -23.5875   20.1436 H   0  0  0  0  0  0
  -31.4177  -23.5967   21.8823 H   0  0  0  0  0  0
  -32.3793  -13.5749   17.8659 H   0  0  0  0  0  0
  -33.0158  -14.9193   17.0121 H   0  0  0  0  0  0
  -29.2910  -24.7838   21.7642 H   0  0  0  0  0  0
  -29.2010  -24.5375   20.0353 H   0  0  0  0  0  0
  -31.0616  -26.0287   19.5864 H   0  0  0  0  0  0
  -31.4057  -26.2387   21.2829 H   0  0  0  0  0  0
  -29.4003  -16.4962   21.0940 H   0  0  0  0  0  0
  -30.5830  -17.7079   20.7501 H   0  0  0  0  0  0
  -30.0109  -28.1184   20.1994 H   0  0  0  0  0  0
  -29.3651  -27.4313   21.6932 H   0  0  0  0  0  0
  -27.9757  -18.2655   19.4661 H   0  0  0  0  0  0
  1 25  1  0  0  0
  1 30  2  0  0  0
  1 74  1  0  0  0
  2  3  1  0  0  0
  2 25  1  0  0  0
  2 92  1  0  0  0
  2 93  1  0  0  0
  3  4  1  0  0  0
  3 94  1  0  0  0
  3 95  1  0  0  0
  4  5  1  0  0  0
  4 96  1  0  0  0
  4 97  1  0  0  0
  5  6  1  0  0  0
  5 26  1  0  0  0
  5 98  1  0  0  0
  6 25  1  0  0  0
  6 99  1  0  0  0
  6100  1  0  0  0
  7  8  2  0  0  0
  7 26  1  0  0  0
  7 29  1  0  0  0
  8  9  1  0  0  0
  8 22  1  0  0  0
  9 10  1  0  0  0
  9 27  2  0  0  0
 10 11  2  0  0  0
 10 15  1  0  0  0
 11 12  1  0  0  0
 11101  1  0  0  0
 12 13  2  0  0  0
 12102  1  0  0  0
 13 14  1  0  0  0
 13 31  1  0  0  0
 14 15  2  0  0  0
 14103  1  0  0  0
 15104  1  0  0  0
 16 17  2  0  0  0
 16 21  1  0  0  0
 16 31  1  0  0  0
 17 18  1  0  0  0
 17105  1  0  0  0
 18 19  2  0  0  0
 18106  1  0  0  0
 19 20  1  0  0  0
 19 24  1  0  0  0
 20 21  2  0  0  0
 20107  1  0  0  0
 21 23  1  0  0  0
 22 28  1  0  0  0
 22 32  2  0  0  0
 26 27  1  0  0  0
 28108  1  0  0  0
 28109  1  0  0  0
 29110  1  0  0  0
 29111  1  0  0  0
 33 34  1  0  0  0
 33 66  1  0  0  0
 33 70  2  0  0  0
 34 36  1  0  0  0
 34 59  1  0  0  0
 34112  1  0  0  0
 35 44  2  0  0  0
 35 45  1  0  0  0
 35 68  1  0  0  0
 36 56  1  0  0  0
 36113  1  0  0  0
 37 39  1  0  0  0
 37 47  1  0  0  0
 37 66  1  0  0  0
 37114  1  0  0  0
 38 43  2  0  0  0
 38 46  1  0  0  0
 38 47  1  0  0  0
 39 64  1  0  0  0
 39 67  2  0  0  0
 40 52  1  0  0  0
 40 53  2  0  0  0
 40 58  1  0  0  0
 41115  1  0  0  0
 41116  1  0  0  0
 41117  1  0  0  0
 41 48  1  0  0  0
 42 43  1  0  0  0
 42 66  1  0  0  0
 42118  1  0  0  0
 42119  1  0  0  0
 43 44  1  0  0  0
 44120  1  0  0  0
 45 46  2  0  0  0
 45121  1  0  0  0
 46122  1  0  0  0
 47123  1  0  0  0
 47124  1  0  0  0
 48 56  1  0  0  0
 48 65  1  0  0  0
 48125  1  0  0  0
 49 50  1  0  0  0
 49 53  1  0  0  0
 49 64  1  0  0  0
 49126  1  0  0  0
 50 51  1  0  0  0
 50127  1  0  0  0
 50128  1  0  0  0
 51 52  1  0  0  0
 51129  1  0  0  0
 51130  1  0  0  0
 52131  1  0  0  0
 52132  1  0  0  0
 53 54  1  0  0  0
 54 55  2  0  0  0
 54133  1  0  0  0
 55 57  1  0  0  0
 55134  1  0  0  0
 56 69  2  0  0  0
 57 58  2  0  0  0
 57135  1  0  0  0
 58136  1  0  0  0
 59 60  1  0  0  0
 59 61  1  0  0  0
 59 62  1  0  0  0
 60137  1  0  0  0
 60138  1  0  0  0
 60139  1  0  0  0
 61140  1  0  0  0
 61141  1  0  0  0
 61142  1  0  0  0
 62143  1  0  0  0
 62144  1  0  0  0
 62145  1  0  0  0
 63 65  1  0  0  0
 63146  1  0  0  0
 63147  1  0  0  0
 63148  1  0  0  0
 64149  1  0  0  0
 65150  1  0  0  0
 68 86  1  0  0  0
 71 73  2  0  0  0
 71 88  1  0  0  0
 71151  1  0  0  0
 72 73  1  0  0  0
 72 89  2  0  0  0
 72152  1  0  0  0
 73 81  1  0  0  0
 74 75  2  0  0  0
 74 91  1  0  0  0
 75 82  1  0  0  0
 75 90  1  0  0  0
 76 87  1  0  0  0
 76 88  2  0  0  0
 76 89  1  0  0  0
 77 78  1  0  0  0
 77 90  2  0  0  0
 77 91  1  0  0  0
 78153  1  0  0  0
 78154  1  0  0  0
 78155  1  0  0  0
 79 82  1  0  0  0
 79156  1  0  0  0
 79157  1  0  0  0
 79158  1  0  0  0
 80159  1  0  0  0
 80160  1  0  0  0
 80161  1  0  0  0
 80 87  1  0  0  0
 81 83  1  0  0  0
 81162  1  0  0  0
 81163  1  0  0  0
 82164  1  0  0  0
 82165  1  0  0  0
 83 84  1  0  0  0
 83166  1  0  0  0
 83167  1  0  0  0
 84 86  1  0  0  0
 84168  1  0  0  0
 84169  1  0  0  0
 85 87  1  0  0  0
 85 91  1  0  0  0
 85170  1  0  0  0
 85171  1  0  0  0
 86172  1  0  0  0
 86173  1  0  0  0
 87174  1  0  0  0
M  ISO  4   1 100  68 101  74 100  86 101
M  END
> <chiral flag>
0

> <version>
0

> <s_m_source_file>
/data/baiqing/PycharmProjects/Reinvent-master-3.2/result/LINK_invent/BTK/process_docking_weight1_custom_sum_contain_oxygen_bond_distance_aromatic_linkinvent_7_9_3/rearranged_h_0068.sdf

> <i_m_source_file_index>
61

> <r_mmod_Potential_Energy-OPLS-2005>
-245.319641113281

> <r_mmod_Stretch_Energy-OPLS-2005>
39.1712303161621

> <r_mmod_Bend_Energy-OPLS-2005>
142.115249633789

> <r_mmod_Torsional_Energy-OPLS-2005>
291.152526855469

> <r_mmod_Improper_Torsional_Energy-OPLS-2005>
31.0667419433594

> <r_mmod_Van_der_Waal_Energy-OPLS-2005>
160.392028808594

> <r_mmod_Electrostatic_Energy-OPLS-2005>
-766.839477539062

> <r_mmod_Solvation_Energy-OPLS-2005>
-216.110198974609

> <b_mmod_Minimization_Converged-OPLS-2005>
0

> <r_mmod_RMS_Derivative-OPLS-2005>
6.59646224975586

$$$$
67
                    3D
 Structure written by MMmdl.
168176  0  0  1  0            999 V2000
  -30.7041  -14.4296   20.5816 C   0  0  0  0  0  0
  -30.4287  -12.2848   19.4035 C   0  0  0  0  0  0
  -29.4930  -12.5018   18.1970 C   0  0  0  0  0  0
  -28.0123  -12.3662   18.6121 C   0  0  0  0  0  0
  -27.6664  -13.1940   19.8775 C   0  0  2  0  0  0
  -28.7124  -12.9522   20.9896 C   0  0  0  0  0  0
  -25.2662  -13.8124   20.5683 C   0  0  0  0  0  0
  -24.1894  -13.0435   20.9163 C   0  0  0  0  0  0
  -24.6417  -11.6883   20.8742 C   0  0  0  0  0  0
  -23.9058  -10.4292   21.0405 C   0  0  0  0  0  0
  -24.3608   -9.4203   21.9176 C   0  0  0  0  0  0
  -23.6299   -8.2243   22.0739 C   0  0  0  0  0  0
  -22.4279   -8.0290   21.3545 C   0  0  0  0  0  0
  -21.9911   -9.0246   20.4640 C   0  0  0  0  0  0
  -22.7229  -10.2130   20.3055 C   0  0  0  0  0  0
  -21.6857   -6.0761   22.5283 C   0  0  0  0  0  0
  -21.4010   -6.5660   23.8219 C   0  0  0  0  0  0
  -21.3656   -5.6806   24.9182 C   0  0  0  0  0  0
  -21.6053   -4.3078   24.7228 C   0  0  0  0  0  0
  -21.8829   -3.8170   23.4349 C   0  0  0  0  0  0
  -21.9196   -4.6987   22.3405 C   0  0  0  0  0  0
  -22.7912  -13.5220   21.1836 C   0  0  0  0  0  0
  -22.1672   -4.2186   21.0980 F   0  0  0  0  0  0
  -21.5624   -3.4543   25.7734 F   0  0  0  0  0  0
  -30.0435  -13.2508   20.4390 N   0  0  0  0  0  0
  -26.3076  -12.9261   20.3405 N   0  0  0  0  0  0
  -25.9348  -11.6438   20.5785 N   0  0  0  0  0  0
  -22.0546  -12.8214   22.0385 N   0  0  0  0  0  0
  -25.4497  -15.1838   20.4081 N   0  0  0  0  0  0
  -31.8292  -14.6378   20.1081 O   0  0  0  0  0  0
  -21.6660   -6.8885   21.4244 O   0  0  0  0  0  0
  -22.3593  -14.5518   20.6672 O   0  0  0  0  0  0
  -24.6125  -31.8730   23.2149 C   0  0  0  0  0  0
  -25.9016  -32.4825   23.8455 C   0  0  1  0  0  0
  -27.2366  -27.4563   20.0988 C   0  0  0  0  0  0
  -25.5912  -33.8628   24.2391 N   0  0  0  0  0  0
  -23.4020  -30.4952   21.5547 C   0  0  2  0  0  0
  -24.8497  -28.9600   20.1230 C   0  0  0  0  0  0
  -22.7393  -29.4686   22.5017 C   0  0  0  0  0  0
  -18.0279  -28.1350   22.8533 C   0  0  0  0  0  0
  -24.1490  -36.7302   23.2656 C   0  0  0  0  0  0
  -25.9312  -30.8384   21.3744 C   0  0  0  0  0  0
  -26.0066  -29.4719   20.7256 C   0  0  0  0  0  0
  -27.2040  -28.7251   20.7198 C   0  0  0  0  0  0
  -26.0695  -26.9535   19.4926 C   0  0  0  0  0  0
  -24.8731  -27.6938   19.5084 C   0  0  0  0  0  0
  -23.6138  -29.8290   20.1690 C   0  0  0  0  0  0
  -25.4109  -36.3115   24.0360 C   0  0  1  0  0  0
  -20.5866  -28.3659   23.1349 C   0  0  2  0  0  0
  -20.6766  -26.9392   22.5450 C   0  0  0  0  0  0
  -19.5747  -26.6375   21.5233 C   0  0  0  0  0  0
  -18.1919  -26.7914   22.1619 C   0  0  0  0  0  0
  -19.1527  -28.8816   23.2950 C   0  0  0  0  0  0
  -18.9461  -30.1425   23.8948 C   0  0  0  0  0  0
  -17.6467  -30.6567   24.0586 C   0  0  0  0  0  0
  -25.9031  -34.9469   23.5160 C   0  0  0  0  0  0
  -16.5356  -29.9082   23.6337 C   0  0  0  0  0  0
  -16.7268  -28.6485   23.0387 C   0  0  0  0  0  0
  -26.4488  -31.6573   25.0741 C   0  0  0  0  0  0
  -25.3796  -31.3594   26.1514 C   0  0  0  0  0  0
  -27.0354  -30.3040   24.6061 C   0  0  0  0  0  0
  -27.6088  -32.4318   25.7444 C   0  0  0  0  0  0
  -27.5580  -37.1801   24.8483 C   0  0  0  0  0  0
  -21.4127  -29.3042   22.3749 N   0  0  0  0  0  0
  -26.4298  -37.3791   23.9417 N   0  0  0  0  0  0
  -24.6660  -31.0832   22.1053 N   0  0  0  0  0  0
  -23.4153  -28.8223   23.3075 O   0  0  0  0  0  0
  -28.3846  -26.7073   20.0176 O   0  0  0  0  0  0
  -26.5571  -34.8916   22.4715 O   0  0  0  0  0  0
  -23.5323  -32.1494   23.7537 O   0  0  0  0  0  0
  -29.9423  -15.5846   21.1979 C   0  0  0  0  0  0
  -29.2843  -17.0320   22.5175 C   0  0  0  0  0  0
  -29.0512  -17.8880   23.7179 C   0  0  0  0  0  0
  -25.8044  -22.2814   22.1692 C   0  0  0  0  0  0
  -27.0428  -20.1237   18.4536 C   0  0  0  0  0  0
  -28.7808  -24.6362   21.2469 C   0  0  0  0  0  0
  -27.3486  -24.1303   21.5056 C   0  0  0  0  0  0
  -28.1107  -19.5739   20.6827 C   0  0  0  0  0  0
  -27.3302  -21.9918   20.1212 C   0  0  0  0  0  0
  -27.5823  -18.1509   20.9698 C   0  0  0  0  0  0
  -28.8795  -26.1748   21.2452 C   0  0  0  0  0  0
  -27.1759  -22.5957   21.5423 C   0  0  2  0  0  0
  -27.0796  -20.4703   19.9560 C   0  0  1  0  0  0
  -30.1486  -16.0152   22.4803 N   0  0  0  0  0  0
  -29.0813  -16.2966   20.4706 N   0  0  0  0  0  0
  -28.6308  -17.2142   21.3587 N   0  0  0  0  0  0
  -31.4722  -12.3883   19.1003 H   0  0  0  0  0  0
  -30.3309  -11.2688   19.7897 H   0  0  0  0  0  0
  -29.7233  -11.7863   17.4090 H   0  0  0  0  0  0
  -29.6667  -13.4901   17.7688 H   0  0  0  0  0  0
  -27.8120  -11.3101   18.7962 H   0  0  0  0  0  0
  -27.3610  -12.6583   17.7866 H   0  0  0  0  0  0
  -27.7084  -14.2412   19.5816 H   0  0  0  0  0  0
  -28.6861  -11.9085   21.3129 H   0  0  0  0  0  0
  -28.4874  -13.5391   21.8809 H   0  0  0  0  0  0
  -25.2741   -9.5725   22.4749 H   0  0  0  0  0  0
  -24.0054   -7.4643   22.7437 H   0  0  0  0  0  0
  -21.0855   -8.8742   19.8921 H   0  0  0  0  0  0
  -22.3666  -10.9679   19.6185 H   0  0  0  0  0  0
  -21.1993   -7.6161   23.9741 H   0  0  0  0  0  0
  -21.1472   -6.0526   25.9087 H   0  0  0  0  0  0
  -22.0608   -2.7635   23.2831 H   0  0  0  0  0  0
  -22.4144  -11.9854   22.4763 H   0  0  0  0  0  0
  -21.1159  -13.1259   22.2580 H   0  0  0  0  0  0
  -24.6939  -15.8522   20.5071 H   0  0  0  0  0  0
  -26.3277  -15.5975   20.1165 H   0  0  0  0  0  0
  -26.7074  -32.5538   23.1209 H   0  0  0  0  0  0
  -25.0105  -33.9843   25.0561 H   0  0  0  0  0  0
  -22.6930  -31.3138   21.4153 H   0  0  0  0  0  0
  -23.3751  -35.9633   23.3334 H   0  0  0  0  0  0
  -24.3605  -36.8897   22.2073 H   0  0  0  0  0  0
  -23.7240  -37.6514   23.6651 H   0  0  0  0  0  0
  -26.0539  -31.6106   20.6150 H   0  0  0  0  0  0
  -26.8190  -30.8873   21.9937 H   0  0  0  0  0  0
  -28.0990  -29.1281   21.1736 H   0  0  0  0  0  0
  -26.0896  -25.9842   19.0122 H   0  0  0  0  0  0
  -23.9849  -27.2891   19.0419 H   0  0  0  0  0  0
  -23.7333  -30.6153   19.4225 H   0  0  0  0  0  0
  -22.7370  -29.2584   19.8591 H   0  0  0  0  0  0
  -25.1281  -36.1995   25.0851 H   0  0  0  0  0  0
  -20.9982  -28.3215   24.1459 H   0  0  0  0  0  0
  -20.5664  -26.2263   23.3635 H   0  0  0  0  0  0
  -21.6647  -26.7431   22.1247 H   0  0  0  0  0  0
  -19.6927  -25.6300   21.1229 H   0  0  0  0  0  0
  -19.6681  -27.3212   20.6788 H   0  0  0  0  0  0
  -17.4222  -26.6752   21.3972 H   0  0  0  0  0  0
  -18.0266  -26.0012   22.8959 H   0  0  0  0  0  0
  -19.7954  -30.7244   24.2301 H   0  0  0  0  0  0
  -17.5037  -31.6242   24.5193 H   0  0  0  0  0  0
  -15.5369  -30.2998   23.7634 H   0  0  0  0  0  0
  -15.8674  -28.0800   22.7099 H   0  0  0  0  0  0
  -24.5969  -30.6931   25.7844 H   0  0  0  0  0  0
  -24.8970  -32.2701   26.5076 H   0  0  0  0  0  0
  -25.8227  -30.8695   27.0192 H   0  0  0  0  0  0
  -26.2858  -29.6693   24.1303 H   0  0  0  0  0  0
  -27.4392  -29.7360   25.4456 H   0  0  0  0  0  0
  -27.8567  -30.4422   23.9020 H   0  0  0  0  0  0
  -27.2726  -33.3624   26.2028 H   0  0  0  0  0  0
  -28.3832  -32.6878   25.0191 H   0  0  0  0  0  0
  -28.0809  -31.8436   26.5324 H   0  0  0  0  0  0
  -28.2620  -38.0080   24.7529 H   0  0  0  0  0  0
  -28.1070  -36.2618   24.6317 H   0  0  0  0  0  0
  -27.2307  -37.1465   25.8893 H   0  0  0  0  0  0
  -20.9257  -29.8792   21.7013 H   0  0  0  0  0  0
  -26.0186  -38.2870   24.1414 H   0  0  0  0  0  0
  -29.5707  -17.4700   24.5788 H   0  0  0  0  0  0
  -27.9869  -17.9434   23.9469 H   0  0  0  0  0  0
  -29.4277  -18.8959   23.5430 H   0  0  0  0  0  0
  -25.6754  -22.7918   23.1258 H   0  0  0  0  0  0
  -25.6727  -21.2190   22.3726 H   0  0  0  0  0  0
  -24.9904  -22.6134   21.5223 H   0  0  0  0  0  0
  -26.7542  -19.0854   18.2874 H   0  0  0  0  0  0
  -28.0172  -20.2729   17.9866 H   0  0  0  0  0  0
  -26.3291  -20.7449   17.9138 H   0  0  0  0  0  0
  -29.1761  -24.2416   20.3087 H   0  0  0  0  0  0
  -29.4311  -24.2540   22.0340 H   0  0  0  0  0  0
  -26.6670  -24.5449   20.7645 H   0  0  0  0  0  0
  -27.0253  -24.5486   22.4599 H   0  0  0  0  0  0
  -29.0242  -19.5189   20.0876 H   0  0  0  0  0  0
  -28.3991  -20.0187   21.6348 H   0  0  0  0  0  0
  -28.3206  -22.2234   19.7279 H   0  0  0  0  0  0
  -26.6335  -22.5203   19.4683 H   0  0  0  0  0  0
  -27.0802  -17.7422   20.0904 H   0  0  0  0  0  0
  -26.8257  -18.1799   21.7554 H   0  0  0  0  0  0
  -28.3710  -26.5833   22.1204 H   0  0  0  0  0  0
  -29.9254  -26.4674   21.3275 H   0  0  0  0  0  0
  -27.9412  -22.1813   22.1984 H   0  0  0  0  0  0
  -26.0911  -20.2544   20.3579 H   0  0  0  0  0  0
  1 25  1  0  0  0
  1 30  2  0  0  0
  1 71  1  0  0  0
  2  3  1  0  0  0
  2 25  1  0  0  0
  2 87  1  0  0  0
  2 88  1  0  0  0
  3  4  1  0  0  0
  3 89  1  0  0  0
  3 90  1  0  0  0
  4  5  1  0  0  0
  4 91  1  0  0  0
  4 92  1  0  0  0
  5  6  1  0  0  0
  5 26  1  0  0  0
  5 93  1  0  0  0
  6 25  1  0  0  0
  6 94  1  0  0  0
  6 95  1  0  0  0
  7  8  2  0  0  0
  7 26  1  0  0  0
  7 29  1  0  0  0
  8  9  1  0  0  0
  8 22  1  0  0  0
  9 10  1  0  0  0
  9 27  2  0  0  0
 10 11  2  0  0  0
 10 15  1  0  0  0
 11 12  1  0  0  0
 11 96  1  0  0  0
 12 13  2  0  0  0
 12 97  1  0  0  0
 13 14  1  0  0  0
 13 31  1  0  0  0
 14 15  2  0  0  0
 14 98  1  0  0  0
 15 99  1  0  0  0
 16 17  2  0  0  0
 16 21  1  0  0  0
 16 31  1  0  0  0
 17 18  1  0  0  0
 17100  1  0  0  0
 18 19  2  0  0  0
 18101  1  0  0  0
 19 20  1  0  0  0
 19 24  1  0  0  0
 20 21  2  0  0  0
 20102  1  0  0  0
 21 23  1  0  0  0
 22 28  1  0  0  0
 22 32  2  0  0  0
 26 27  1  0  0  0
 28103  1  0  0  0
 28104  1  0  0  0
 29105  1  0  0  0
 29106  1  0  0  0
 33 34  1  0  0  0
 33 66  1  0  0  0
 33 70  2  0  0  0
 34 36  1  0  0  0
 34 59  1  0  0  0
 34107  1  0  0  0
 35 44  2  0  0  0
 35 45  1  0  0  0
 35 68  1  0  0  0
 36 56  1  0  0  0
 36108  1  0  0  0
 37 39  1  0  0  0
 37 47  1  0  0  0
 37 66  1  0  0  0
 37109  1  0  0  0
 38 43  2  0  0  0
 38 46  1  0  0  0
 38 47  1  0  0  0
 39 64  1  0  0  0
 39 67  2  0  0  0
 40 52  1  0  0  0
 40 53  2  0  0  0
 40 58  1  0  0  0
 41110  1  0  0  0
 41111  1  0  0  0
 41112  1  0  0  0
 41 48  1  0  0  0
 42 43  1  0  0  0
 42 66  1  0  0  0
 42113  1  0  0  0
 42114  1  0  0  0
 43 44  1  0  0  0
 44115  1  0  0  0
 45 46  2  0  0  0
 45116  1  0  0  0
 46117  1  0  0  0
 47118  1  0  0  0
 47119  1  0  0  0
 48 56  1  0  0  0
 48 65  1  0  0  0
 48120  1  0  0  0
 49 50  1  0  0  0
 49 53  1  0  0  0
 49 64  1  0  0  0
 49121  1  0  0  0
 50 51  1  0  0  0
 50122  1  0  0  0
 50123  1  0  0  0
 51 52  1  0  0  0
 51124  1  0  0  0
 51125  1  0  0  0
 52126  1  0  0  0
 52127  1  0  0  0
 53 54  1  0  0  0
 54 55  2  0  0  0
 54128  1  0  0  0
 55 57  1  0  0  0
 55129  1  0  0  0
 56 69  2  0  0  0
 57 58  2  0  0  0
 57130  1  0  0  0
 58131  1  0  0  0
 59 60  1  0  0  0
 59 61  1  0  0  0
 59 62  1  0  0  0
 60132  1  0  0  0
 60133  1  0  0  0
 60134  1  0  0  0
 61135  1  0  0  0
 61136  1  0  0  0
 61137  1  0  0  0
 62138  1  0  0  0
 62139  1  0  0  0
 62140  1  0  0  0
 63 65  1  0  0  0
 63141  1  0  0  0
 63142  1  0  0  0
 63143  1  0  0  0
 64144  1  0  0  0
 65145  1  0  0  0
 68 81  1  0  0  0
 71 84  1  0  0  0
 71 85  2  0  0  0
 72 73  1  0  0  0
 72 84  2  0  0  0
 72 86  1  0  0  0
 73146  1  0  0  0
 73147  1  0  0  0
 73148  1  0  0  0
 74149  1  0  0  0
 74150  1  0  0  0
 74151  1  0  0  0
 74 82  1  0  0  0
 75152  1  0  0  0
 75153  1  0  0  0
 75154  1  0  0  0
 75 83  1  0  0  0
 76 77  1  0  0  0
 76 81  1  0  0  0
 76155  1  0  0  0
 76156  1  0  0  0
 77 82  1  0  0  0
 77157  1  0  0  0
 77158  1  0  0  0
 78 80  1  0  0  0
 78 83  1  0  0  0
 78159  1  0  0  0
 78160  1  0  0  0
 79 82  1  0  0  0
 79 83  1  0  0  0
 79161  1  0  0  0
 79162  1  0  0  0
 80 86  1  0  0  0
 80163  1  0  0  0
 80164  1  0  0  0
 81165  1  0  0  0
 81166  1  0  0  0
 82167  1  0  0  0
 83168  1  0  0  0
 85 86  1  0  0  0
M  ISO  4   1 100  68 101  71 100  81 101
M  END
> <chiral flag>
0

> <version>
0

> <s_m_source_file>
/data/baiqing/PycharmProjects/Reinvent-master-3.2/result/LINK_invent/BTK/process_docking_weight1_custom_sum_contain_oxygen_bond_distance_aromatic_linkinvent_7_9_3/rearranged_h_0068.sdf

> <i_m_source_file_index>
62

> <r_mmod_Potential_Energy-OPLS-2005>
125.041618347168

> <r_mmod_Stretch_Energy-OPLS-2005>
32.9937858581543

> <r_mmod_Bend_Energy-OPLS-2005>
104.183197021484

> <r_mmod_Torsional_Energy-OPLS-2005>
251.564346313477

> <r_mmod_Improper_Torsional_Energy-OPLS-2005>
3.64524984359741

> <r_mmod_Van_der_Waal_Energy-OPLS-2005>
111.317665100098

> <r_mmod_Electrostatic_Energy-OPLS-2005>
-200.62092590332

> <r_mmod_Solvation_Energy-OPLS-2005>
-187.061401367188

> <b_mmod_Minimization_Converged-OPLS-2005>
0

> <r_mmod_RMS_Derivative-OPLS-2005>
3.90567421913147

$$$$
68
                    3D
 Structure written by MMmdl.
164172  0  0  1  0            999 V2000
  -30.4550  -15.1678   20.4759 C   0  0  0  0  0  0
  -30.4531  -12.7463   19.5285 C   0  0  0  0  0  0
  -29.5436  -12.6057   18.2768 C   0  0  0  0  0  0
  -28.0701  -12.3615   18.6634 C   0  0  0  0  0  0
  -27.6287  -13.2659   19.8434 C   0  0  2  0  0  0
  -28.6691  -13.2632   20.9781 C   0  0  0  0  0  0
  -25.2389  -13.8213   20.5647 C   0  0  0  0  0  0
  -24.1757  -13.0424   20.9228 C   0  0  0  0  0  0
  -24.6433  -11.6924   20.8769 C   0  0  0  0  0  0
  -23.9111  -10.4291   21.0423 C   0  0  0  0  0  0
  -24.3634   -9.4192   21.9211 C   0  0  0  0  0  0
  -23.6289   -8.2231   22.0758 C   0  0  0  0  0  0
  -22.4281   -8.0286   21.3540 C   0  0  0  0  0  0
  -21.9921   -9.0278   20.4670 C   0  0  0  0  0  0
  -22.7265  -10.2145   20.3082 C   0  0  0  0  0  0
  -21.6856   -6.0728   22.5262 C   0  0  0  0  0  0
  -21.4044   -6.5626   23.8197 C   0  0  0  0  0  0
  -21.3654   -5.6768   24.9149 C   0  0  0  0  0  0
  -21.6031   -4.3032   24.7200 C   0  0  0  0  0  0
  -21.8812   -3.8132   23.4324 C   0  0  0  0  0  0
  -21.9185   -4.6953   22.3383 C   0  0  0  0  0  0
  -22.7758  -13.5198   21.1830 C   0  0  0  0  0  0
  -22.1650   -4.2134   21.0957 F   0  0  0  0  0  0
  -21.5615   -3.4523   25.7711 F   0  0  0  0  0  0
  -29.9120  -13.8436   20.4202 N   0  0  0  0  0  0
  -26.2876  -12.9505   20.3226 N   0  0  0  0  0  0
  -25.9379  -11.6624   20.5752 N   0  0  0  0  0  0
  -22.0349  -12.8290   22.0420 N   0  0  0  0  0  0
  -25.3904  -15.1936   20.3932 N   0  0  0  0  0  0
  -31.6125  -15.1860   20.0245 O   0  0  0  0  0  0
  -21.6651   -6.8878   21.4227 O   0  0  0  0  0  0
  -22.3461  -14.5490   20.6614 O   0  0  0  0  0  0
  -24.6572  -31.8264   23.1720 C   0  0  0  0  0  0
  -25.9281  -32.4592   23.8153 C   0  0  1  0  0  0
  -27.2141  -26.9848   20.1723 C   0  0  0  0  0  0
  -25.5968  -33.8413   24.2076 N   0  0  0  0  0  0
  -23.4672  -30.4361   21.5236 C   0  0  2  0  0  0
  -24.9156  -28.8257   20.1171 C   0  0  0  0  0  0
  -22.7611  -29.4458   22.4831 C   0  0  0  0  0  0
  -18.0315  -28.1419   22.8458 C   0  0  0  0  0  0
  -24.1502  -36.7236   23.2634 C   0  0  0  0  0  0
  -26.0303  -30.6478   21.3895 C   0  0  0  0  0  0
  -26.0983  -29.2411   20.7418 C   0  0  0  0  0  0
  -27.2481  -28.3429   20.7394 C   0  0  0  0  0  0
  -25.9989  -26.6955   19.5182 C   0  0  0  0  0  0
  -24.8885  -27.5723   19.4847 C   0  0  0  0  0  0
  -23.7003  -29.7454   20.1503 C   0  0  0  0  0  0
  -25.4121  -36.2966   24.0290 C   0  0  1  0  0  0
  -20.5927  -28.3745   23.1213 C   0  0  2  0  0  0
  -20.6804  -26.9449   22.5379 C   0  0  0  0  0  0
  -19.5782  -26.6382   21.5201 C   0  0  0  0  0  0
  -18.1971  -26.7940   22.1631 C   0  0  0  0  0  0
  -19.1570  -28.8903   23.2819 C   0  0  0  0  0  0
  -18.9479  -30.1506   23.8840 C   0  0  0  0  0  0
  -17.6478  -30.6605   24.0559 C   0  0  0  0  0  0
  -25.9070  -34.9352   23.4980 C   0  0  0  0  0  0
  -16.5374  -29.9083   23.6371 C   0  0  0  0  0  0
  -16.7293  -28.6518   23.0346 C   0  0  0  0  0  0
  -26.4537  -31.6498   25.0648 C   0  0  0  0  0  0
  -25.3695  -31.3767   26.1337 C   0  0  0  0  0  0
  -27.0389  -30.2858   24.6310 C   0  0  0  0  0  0
  -27.6033  -32.4276   25.7451 C   0  0  0  0  0  0
  -27.5565  -37.1769   24.8452 C   0  0  0  0  0  0
  -21.4292  -29.3059   22.3599 N   0  0  0  0  0  0
  -26.4267  -37.3691   23.9398 N   0  0  0  0  0  0
  -24.7398  -30.9946   22.0830 N   0  0  0  0  0  0
  -23.4195  -28.8009   23.3043 O   0  0  0  0  0  0
  -28.2692  -25.9609   20.1428 O   0  0  0  0  0  0
  -26.5681  -34.8877   22.4583 O   0  0  0  0  0  0
  -23.5660  -32.1221   23.6859 O   0  0  0  0  0  0
  -29.7036  -20.3260   19.2900 C   0  0  0  0  0  0
  -28.4828  -20.4838   21.1839 C   0  0  0  0  0  0
  -28.9304  -21.2845   20.0779 C   0  0  0  0  0  0
  -29.4390  -18.2608   20.5733 C   0  0  0  0  0  0
  -27.3942  -23.4130   17.2567 C   0  0  0  0  0  0
  -26.5707  -21.4293   18.5585 C   0  0  0  0  0  0
  -29.7978  -23.3589   18.8161 C   0  0  0  0  0  0
  -31.0089  -17.0377   22.1315 C   0  0  0  0  0  0
  -28.6633  -16.2783   22.0654 C   0  0  0  0  0  0
  -28.2031  -24.3844   20.5210 C   0  0  0  0  0  0
  -27.2532  -22.8114   18.6699 C   0  0  0  0  0  0
  -28.5388  -22.9122   19.6028 C   0  0  1  0  0  0
  -29.8550  -16.6735   21.1641 C   0  0  0  0  0  0
  -29.9615  -18.9533   19.5262 N   0  0  0  0  0  0
  -28.7384  -19.1117   21.3951 N   0  0  0  0  0  0
  -31.4721  -12.9429   19.1993 H   0  0  0  0  0  0
  -30.5265  -11.8009   20.0682 H   0  0  0  0  0  0
  -29.9044  -11.8074   17.6276 H   0  0  0  0  0  0
  -29.6165  -13.5237   17.6915 H   0  0  0  0  0  0
  -27.9638  -11.3142   18.9443 H   0  0  0  0  0  0
  -27.4216  -12.5169   17.7999 H   0  0  0  0  0  0
  -27.5944  -14.2820   19.4487 H   0  0  0  0  0  0
  -28.8295  -12.2421   21.3294 H   0  0  0  0  0  0
  -28.2739  -13.7655   21.8492 H   0  0  0  0  0  0
  -25.2751   -9.5662   22.4839 H   0  0  0  0  0  0
  -23.9975   -7.4599   22.7481 H   0  0  0  0  0  0
  -21.0838   -8.8837   19.8996 H   0  0  0  0  0  0
  -22.3724  -10.9715   19.6226 H   0  0  0  0  0  0
  -21.2114   -7.6142   23.9707 H   0  0  0  0  0  0
  -21.1461   -6.0500   25.9048 H   0  0  0  0  0  0
  -22.0617   -2.7610   23.2810 H   0  0  0  0  0  0
  -22.3921  -12.0066   22.5072 H   0  0  0  0  0  0
  -21.0949  -13.1406   22.2474 H   0  0  0  0  0  0
  -24.5986  -15.8204   20.4876 H   0  0  0  0  0  0
  -26.2005  -15.6423   19.9876 H   0  0  0  0  0  0
  -26.7326  -32.5133   23.0855 H   0  0  0  0  0  0
  -25.0088  -33.9518   25.0198 H   0  0  0  0  0  0
  -22.7786  -31.2653   21.3529 H   0  0  0  0  0  0
  -23.3749  -35.9580   23.3233 H   0  0  0  0  0  0
  -24.3597  -36.8943   22.2062 H   0  0  0  0  0  0
  -23.7281  -37.6413   23.6721 H   0  0  0  0  0  0
  -26.1895  -31.3827   20.6008 H   0  0  0  0  0  0
  -26.9033  -30.7180   22.0261 H   0  0  0  0  0  0
  -28.1535  -28.6663   21.2312 H   0  0  0  0  0  0
  -25.8973  -25.7392   19.0249 H   0  0  0  0  0  0
  -23.9904  -27.2594   18.9688 H   0  0  0  0  0  0
  -23.8431  -30.5068   19.3839 H   0  0  0  0  0  0
  -22.8147  -29.1863   19.8443 H   0  0  0  0  0  0
  -25.1322  -36.1737   25.0774 H   0  0  0  0  0  0
  -21.0003  -28.3336   24.1345 H   0  0  0  0  0  0
  -20.5697  -26.2370   23.3601 H   0  0  0  0  0  0
  -21.6668  -26.7446   22.1194 H   0  0  0  0  0  0
  -19.6950  -25.6268   21.1303 H   0  0  0  0  0  0
  -19.6729  -27.3128   20.6677 H   0  0  0  0  0  0
  -17.4223  -26.6649   21.4068 H   0  0  0  0  0  0
  -18.0407  -26.0113   22.9061 H   0  0  0  0  0  0
  -19.7944  -30.7350   24.2171 H   0  0  0  0  0  0
  -17.5015  -31.6278   24.5162 H   0  0  0  0  0  0
  -15.5368  -30.2949   23.7730 H   0  0  0  0  0  0
  -15.8698  -28.0826   22.7055 H   0  0  0  0  0  0
  -24.5839  -30.7148   25.7664 H   0  0  0  0  0  0
  -24.8948  -32.3000   26.4662 H   0  0  0  0  0  0
  -25.7966  -30.8982   27.0164 H   0  0  0  0  0  0
  -26.3006  -29.6566   24.1328 H   0  0  0  0  0  0
  -27.3956  -29.7161   25.4900 H   0  0  0  0  0  0
  -27.8935  -30.4027   23.9653 H   0  0  0  0  0  0
  -27.2573  -33.3575   26.1968 H   0  0  0  0  0  0
  -28.3881  -32.6847   25.0325 H   0  0  0  0  0  0
  -28.0653  -31.8449   26.5432 H   0  0  0  0  0  0
  -28.2531  -38.0110   24.7486 H   0  0  0  0  0  0
  -28.1125  -36.2636   24.6275 H   0  0  0  0  0  0
  -27.2302  -37.1383   25.8861 H   0  0  0  0  0  0
  -20.9527  -29.8744   21.6734 H   0  0  0  0  0  0
  -26.0119  -38.2744   24.1394 H   0  0  0  0  0  0
  -30.1449  -20.6554   18.3626 H   0  0  0  0  0  0
  -27.8583  -20.9446   21.9348 H   0  0  0  0  0  0
  -26.4274  -23.4240   16.7512 H   0  0  0  0  0  0
  -28.0805  -22.8364   16.6345 H   0  0  0  0  0  0
  -27.7334  -24.4478   17.2860 H   0  0  0  0  0  0
  -25.6528  -21.4975   17.9733 H   0  0  0  0  0  0
  -26.2755  -21.0427   19.5369 H   0  0  0  0  0  0
  -27.1974  -20.6838   18.0692 H   0  0  0  0  0  0
  -30.6870  -23.3084   19.4454 H   0  0  0  0  0  0
  -29.7241  -24.3893   18.4714 H   0  0  0  0  0  0
  -29.9967  -22.7556   17.9328 H   0  0  0  0  0  0
  -30.6943  -17.7898   22.8585 H   0  0  0  0  0  0
  -31.8482  -17.4607   21.5786 H   0  0  0  0  0  0
  -31.3862  -16.1862   22.6977 H   0  0  0  0  0  0
  -28.3538  -17.0733   22.7410 H   0  0  0  0  0  0
  -28.9295  -15.4725   22.7449 H   0  0  0  0  0  0
  -27.7920  -16.0083   21.4756 H   0  0  0  0  0  0
  -28.9424  -24.3430   21.3202 H   0  0  0  0  0  0
  -27.2609  -24.2377   21.0523 H   0  0  0  0  0  0
  -26.4733  -23.4158   19.1337 H   0  0  0  0  0  0
  1 25  1  0  0  0
  1 30  2  0  0  0
  1 83  1  0  0  0
  2  3  1  0  0  0
  2 25  1  0  0  0
  2 86  1  0  0  0
  2 87  1  0  0  0
  3  4  1  0  0  0
  3 88  1  0  0  0
  3 89  1  0  0  0
  4  5  1  0  0  0
  4 90  1  0  0  0
  4 91  1  0  0  0
  5  6  1  0  0  0
  5 26  1  0  0  0
  5 92  1  0  0  0
  6 25  1  0  0  0
  6 93  1  0  0  0
  6 94  1  0  0  0
  7  8  2  0  0  0
  7 26  1  0  0  0
  7 29  1  0  0  0
  8  9  1  0  0  0
  8 22  1  0  0  0
  9 10  1  0  0  0
  9 27  2  0  0  0
 10 11  2  0  0  0
 10 15  1  0  0  0
 11 12  1  0  0  0
 11 95  1  0  0  0
 12 13  2  0  0  0
 12 96  1  0  0  0
 13 14  1  0  0  0
 13 31  1  0  0  0
 14 15  2  0  0  0
 14 97  1  0  0  0
 15 98  1  0  0  0
 16 17  2  0  0  0
 16 21  1  0  0  0
 16 31  1  0  0  0
 17 18  1  0  0  0
 17 99  1  0  0  0
 18 19  2  0  0  0
 18100  1  0  0  0
 19 20  1  0  0  0
 19 24  1  0  0  0
 20 21  2  0  0  0
 20101  1  0  0  0
 21 23  1  0  0  0
 22 28  1  0  0  0
 22 32  2  0  0  0
 26 27  1  0  0  0
 28102  1  0  0  0
 28103  1  0  0  0
 29104  1  0  0  0
 29105  1  0  0  0
 33 34  1  0  0  0
 33 66  1  0  0  0
 33 70  2  0  0  0
 34 36  1  0  0  0
 34 59  1  0  0  0
 34106  1  0  0  0
 35 44  2  0  0  0
 35 45  1  0  0  0
 35 68  1  0  0  0
 36 56  1  0  0  0
 36107  1  0  0  0
 37 39  1  0  0  0
 37 47  1  0  0  0
 37 66  1  0  0  0
 37108  1  0  0  0
 38 43  2  0  0  0
 38 46  1  0  0  0
 38 47  1  0  0  0
 39 64  1  0  0  0
 39 67  2  0  0  0
 40 52  1  0  0  0
 40 53  2  0  0  0
 40 58  1  0  0  0
 41109  1  0  0  0
 41110  1  0  0  0
 41111  1  0  0  0
 41 48  1  0  0  0
 42 43  1  0  0  0
 42 66  1  0  0  0
 42112  1  0  0  0
 42113  1  0  0  0
 43 44  1  0  0  0
 44114  1  0  0  0
 45 46  2  0  0  0
 45115  1  0  0  0
 46116  1  0  0  0
 47117  1  0  0  0
 47118  1  0  0  0
 48 56  1  0  0  0
 48 65  1  0  0  0
 48119  1  0  0  0
 49 50  1  0  0  0
 49 53  1  0  0  0
 49 64  1  0  0  0
 49120  1  0  0  0
 50 51  1  0  0  0
 50121  1  0  0  0
 50122  1  0  0  0
 51 52  1  0  0  0
 51123  1  0  0  0
 51124  1  0  0  0
 52125  1  0  0  0
 52126  1  0  0  0
 53 54  1  0  0  0
 54 55  2  0  0  0
 54127  1  0  0  0
 55 57  1  0  0  0
 55128  1  0  0  0
 56 69  2  0  0  0
 57 58  2  0  0  0
 57129  1  0  0  0
 58130  1  0  0  0
 59 60  1  0  0  0
 59 61  1  0  0  0
 59 62  1  0  0  0
 60131  1  0  0  0
 60132  1  0  0  0
 60133  1  0  0  0
 61134  1  0  0  0
 61135  1  0  0  0
 61136  1  0  0  0
 62137  1  0  0  0
 62138  1  0  0  0
 62139  1  0  0  0
 63 65  1  0  0  0
 63140  1  0  0  0
 63141  1  0  0  0
 63142  1  0  0  0
 64143  1  0  0  0
 65144  1  0  0  0
 68 80  1  0  0  0
 71 73  2  0  0  0
 71 84  1  0  0  0
 71145  1  0  0  0
 72 73  1  0  0  0
 72 85  2  0  0  0
 72146  1  0  0  0
 73 82  1  0  0  0
 74 83  1  0  0  0
 74 84  2  0  0  0
 74 85  1  0  0  0
 75147  1  0  0  0
 75148  1  0  0  0
 75149  1  0  0  0
 75 81  1  0  0  0
 76 81  1  0  0  0
 76150  1  0  0  0
 76151  1  0  0  0
 76152  1  0  0  0
 77153  1  0  0  0
 77154  1  0  0  0
 77155  1  0  0  0
 77 82  1  0  0  0
 78156  1  0  0  0
 78157  1  0  0  0
 78158  1  0  0  0
 78 83  1  0  0  0
 79 83  1  0  0  0
 79159  1  0  0  0
 79160  1  0  0  0
 79161  1  0  0  0
 80 82  1  0  0  0
 80162  1  0  0  0
 80163  1  0  0  0
 81 82  1  0  0  0
 81164  1  0  0  0
M  ISO  4   1 100  68 101  80 101  83 100
M  END
> <chiral flag>
0

> <version>
0

> <s_m_source_file>
/data/baiqing/PycharmProjects/Reinvent-master-3.2/result/LINK_invent/BTK/process_docking_weight1_custom_sum_contain_oxygen_bond_distance_aromatic_linkinvent_7_9_3/rearranged_h_0068.sdf

> <i_m_source_file_index>
63

> <r_mmod_Potential_Energy-OPLS-2005>
842.074951171875

> <r_mmod_Stretch_Energy-OPLS-2005>
489.424072265625

> <r_mmod_Bend_Energy-OPLS-2005>
516.847900390625

> <r_mmod_Torsional_Energy-OPLS-2005>
211.553848266602

> <r_mmod_Improper_Torsional_Energy-OPLS-2005>
6.02500152587891

> <r_mmod_Van_der_Waal_Energy-OPLS-2005>
165.239822387695

> <r_mmod_Electrostatic_Energy-OPLS-2005>
-683.421325683594

> <r_mmod_Solvation_Energy-OPLS-2005>
-202.844604492188

> <b_mmod_Minimization_Converged-OPLS-2005>
0

> <r_mmod_RMS_Derivative-OPLS-2005>
4.27244710922241

$$$$
69
                    3D
 Structure written by MMmdl.
164172  0  0  1  0            999 V2000
  -30.7207  -14.5841   20.5505 C   0  0  0  0  0  0
  -30.4134  -12.3726   19.4536 C   0  0  0  0  0  0
  -29.4956  -12.5037   18.2188 C   0  0  0  0  0  0
  -28.0139  -12.3589   18.6185 C   0  0  0  0  0  0
  -27.6468  -13.2152   19.8587 C   0  0  2  0  0  0
  -28.6928  -13.0306   20.9780 C   0  0  0  0  0  0
  -25.2493  -13.8170   20.5652 C   0  0  0  0  0  0
  -24.1784  -13.0436   20.9208 C   0  0  0  0  0  0
  -24.6365  -11.6906   20.8774 C   0  0  0  0  0  0
  -23.9044  -10.4284   21.0430 C   0  0  0  0  0  0
  -24.3608   -9.4206   21.9204 C   0  0  0  0  0  0
  -23.6297   -8.2235   22.0752 C   0  0  0  0  0  0
  -22.4278   -8.0266   21.3545 C   0  0  0  0  0  0
  -21.9909   -9.0234   20.4644 C   0  0  0  0  0  0
  -22.7225  -10.2120   20.3069 C   0  0  0  0  0  0
  -21.6850   -6.0744   22.5290 C   0  0  0  0  0  0
  -21.3999   -6.5643   23.8222 C   0  0  0  0  0  0
  -21.3663   -5.6794   24.9183 C   0  0  0  0  0  0
  -21.6053   -4.3059   24.7228 C   0  0  0  0  0  0
  -21.8814   -3.8154   23.4347 C   0  0  0  0  0  0
  -21.9189   -4.6974   22.3403 C   0  0  0  0  0  0
  -22.7799  -13.5224   21.1861 C   0  0  0  0  0  0
  -22.1652   -4.2165   21.0981 F   0  0  0  0  0  0
  -21.5644   -3.4538   25.7740 F   0  0  0  0  0  0
  -30.0086  -13.4076   20.4378 N   0  0  0  0  0  0
  -26.2937  -12.9360   20.3294 N   0  0  0  0  0  0
  -25.9285  -11.6518   20.5770 N   0  0  0  0  0  0
  -22.0420  -12.8226   22.0405 N   0  0  0  0  0  0
  -25.4137  -15.1901   20.4008 N   0  0  0  0  0  0
  -31.8738  -14.5839   20.1155 O   0  0  0  0  0  0
  -21.6640   -6.8874   21.4241 O   0  0  0  0  0  0
  -22.3486  -14.5532   20.6698 O   0  0  0  0  0  0
  -24.6240  -31.8658   23.2101 C   0  0  0  0  0  0
  -25.9113  -32.4791   23.8414 C   0  0  1  0  0  0
  -27.2110  -27.3697   20.0873 C   0  0  0  0  0  0
  -25.5957  -33.8593   24.2339 N   0  0  0  0  0  0
  -23.4144  -30.4969   21.5508 C   0  0  2  0  0  0
  -24.8563  -28.9706   20.1055 C   0  0  0  0  0  0
  -22.7461  -29.4673   22.4919 C   0  0  0  0  0  0
  -18.0295  -28.1394   22.8492 C   0  0  0  0  0  0
  -24.1504  -36.7296   23.2641 C   0  0  0  0  0  0
  -25.9552  -30.8090   21.3781 C   0  0  0  0  0  0
  -26.0264  -29.4448   20.7133 C   0  0  0  0  0  0
  -27.2089  -28.6536   20.7018 C   0  0  0  0  0  0
  -26.0228  -26.9567   19.4360 C   0  0  0  0  0  0
  -24.8530  -27.7291   19.4604 C   0  0  0  0  0  0
  -23.6264  -29.8476   20.1602 C   0  0  0  0  0  0
  -25.4127  -36.3085   24.0328 C   0  0  1  0  0  0
  -20.5894  -28.3707   23.1268 C   0  0  2  0  0  0
  -20.6801  -26.9425   22.5417 C   0  0  0  0  0  0
  -19.5768  -26.6402   21.5224 C   0  0  0  0  0  0
  -18.1946  -26.7948   22.1626 C   0  0  0  0  0  0
  -19.1546  -28.8866   23.2884 C   0  0  0  0  0  0
  -18.9466  -30.1471   23.8891 C   0  0  0  0  0  0
  -17.6458  -30.6581   24.0575 C   0  0  0  0  0  0
  -25.9063  -34.9448   23.5126 C   0  0  0  0  0  0
  -16.5358  -29.9096   23.6321 C   0  0  0  0  0  0
  -16.7283  -28.6522   23.0330 C   0  0  0  0  0  0
  -26.4529  -31.6547   25.0735 C   0  0  0  0  0  0
  -25.3807  -31.3605   26.1482 C   0  0  0  0  0  0
  -27.0367  -30.2988   24.6115 C   0  0  0  0  0  0
  -27.6114  -32.4263   25.7483 C   0  0  0  0  0  0
  -27.5580  -37.1804   24.8467 C   0  0  0  0  0  0
  -21.4181  -29.3062   22.3651 N   0  0  0  0  0  0
  -26.4303  -37.3775   23.9400 N   0  0  0  0  0  0
  -24.6833  -31.0707   22.1038 N   0  0  0  0  0  0
  -23.4196  -28.8194   23.2969 O   0  0  0  0  0  0
  -28.3090  -26.5088   20.1337 O   0  0  0  0  0  0
  -26.5606  -34.8893   22.4673 O   0  0  0  0  0  0
  -23.5410  -32.1463   23.7434 O   0  0  0  0  0  0
  -28.3182  -20.4200   19.7827 C   0  0  0  0  0  0
  -29.9575  -20.6040   21.4696 C   0  0  0  0  0  0
  -28.9399  -21.2426   20.7357 C   0  0  0  0  0  0
  -29.6483  -18.5979   20.3395 C   0  0  0  0  0  0
  -31.5784  -17.4582   19.2700 C   0  0  0  0  0  0
  -29.3169  -16.6298   18.7613 C   0  0  0  0  0  0
  -28.8736  -16.0113   21.8349 C   0  0  0  0  0  0
  -31.2582  -16.3881   22.1903 C   0  0  0  0  0  0
  -28.3823  -22.6501   21.0763 C   0  0  0  0  0  0
  -29.0092  -23.9611   20.4663 C   0  0  0  0  0  0
  -27.9611  -25.1298   20.4963 C   0  0  0  0  0  0
  -30.1985  -17.1718   19.9267 C   0  0  0  0  0  0
  -30.2281  -16.0187   21.0848 C   0  0  0  0  0  0
  -28.6729  -19.1314   19.5966 N   0  0  0  0  0  0
  -30.3089  -19.3111   21.2560 N   0  0  0  0  0  0
  -31.4567  -12.4450   19.1443 H   0  0  0  0  0  0
  -30.3181  -11.3764   19.8888 H   0  0  0  0  0  0
  -29.7539  -11.7492   17.4754 H   0  0  0  0  0  0
  -29.6543  -13.4678   17.7363 H   0  0  0  0  0  0
  -27.8282  -11.3043   18.8285 H   0  0  0  0  0  0
  -27.3695  -12.6188   17.7776 H   0  0  0  0  0  0
  -27.6712  -14.2528   19.5318 H   0  0  0  0  0  0
  -28.7064  -11.9813   21.2786 H   0  0  0  0  0  0
  -28.4208  -13.5449   21.8907 H   0  0  0  0  0  0
  -25.2754   -9.5704   22.4776 H   0  0  0  0  0  0
  -24.0038   -7.4630   22.7457 H   0  0  0  0  0  0
  -21.0849   -8.8738   19.8941 H   0  0  0  0  0  0
  -22.3686  -10.9660   19.6183 H   0  0  0  0  0  0
  -21.1960   -7.6148   23.9732 H   0  0  0  0  0  0
  -21.1502   -6.0519   25.9092 H   0  0  0  0  0  0
  -22.0587   -2.7616   23.2840 H   0  0  0  0  0  0
  -22.4022  -11.9936   22.4905 H   0  0  0  0  0  0
  -21.1009  -13.1236   22.2521 H   0  0  0  0  0  0
  -24.6399  -15.8358   20.5130 H   0  0  0  0  0  0
  -26.2519  -15.6379   20.0567 H   0  0  0  0  0  0
  -26.7171  -32.5470   23.1155 H   0  0  0  0  0  0
  -25.0146  -33.9777   25.0510 H   0  0  0  0  0  0
  -22.7095  -31.3193   21.4140 H   0  0  0  0  0  0
  -23.3747  -35.9649   23.3313 H   0  0  0  0  0  0
  -24.3624  -36.8917   22.2064 H   0  0  0  0  0  0
  -23.7272  -37.6504   23.6661 H   0  0  0  0  0  0
  -26.0894  -31.5758   20.6132 H   0  0  0  0  0  0
  -26.8368  -30.8500   22.0055 H   0  0  0  0  0  0
  -28.1031  -29.0078   21.1956 H   0  0  0  0  0  0
  -25.9639  -26.0301   18.8877 H   0  0  0  0  0  0
  -23.9600  -27.3684   18.9671 H   0  0  0  0  0  0
  -23.7555  -30.6351   19.4175 H   0  0  0  0  0  0
  -22.7450  -29.2895   19.8408 H   0  0  0  0  0  0
  -25.1292  -36.1982   25.0819 H   0  0  0  0  0  0
  -21.0001  -28.3308   24.1382 H   0  0  0  0  0  0
  -20.5759  -26.2309   23.3624 H   0  0  0  0  0  0
  -21.6663  -26.7510   22.1164 H   0  0  0  0  0  0
  -19.6944  -25.6328   21.1232 H   0  0  0  0  0  0
  -19.6697  -27.3234   20.6764 H   0  0  0  0  0  0
  -17.4233  -26.6709   21.4012 H   0  0  0  0  0  0
  -18.0320  -26.0093   22.9012 H   0  0  0  0  0  0
  -19.7937  -30.7303   24.2238 H   0  0  0  0  0  0
  -17.5013  -31.6248   24.5204 H   0  0  0  0  0  0
  -15.5361  -30.2993   23.7635 H   0  0  0  0  0  0
  -15.8691  -28.0852   22.7001 H   0  0  0  0  0  0
  -24.6049  -30.6864   25.7821 H   0  0  0  0  0  0
  -24.8916  -32.2715   26.4932 H   0  0  0  0  0  0
  -25.8219  -30.8812   27.0231 H   0  0  0  0  0  0
  -26.2900  -29.6709   24.1240 H   0  0  0  0  0  0
  -27.4209  -29.7250   25.4555 H   0  0  0  0  0  0
  -27.8699  -30.4277   23.9208 H   0  0  0  0  0  0
  -27.2759  -33.3584   26.2027 H   0  0  0  0  0  0
  -28.3926  -32.6783   25.0299 H   0  0  0  0  0  0
  -28.0761  -31.8403   26.5421 H   0  0  0  0  0  0
  -28.2583  -38.0111   24.7503 H   0  0  0  0  0  0
  -28.1080  -36.2633   24.6301 H   0  0  0  0  0  0
  -27.2284  -37.1456   25.8867 H   0  0  0  0  0  0
  -20.9363  -29.8787   21.6859 H   0  0  0  0  0  0
  -26.0178  -38.2842   24.1416 H   0  0  0  0  0  0
  -27.4968  -20.7838   19.1832 H   0  0  0  0  0  0
  -30.4736  -21.1259   22.2613 H   0  0  0  0  0  0
  -31.4813  -18.2202   18.4958 H   0  0  0  0  0  0
  -32.0233  -16.5957   18.7797 H   0  0  0  0  0  0
  -32.2999  -17.8480   19.9859 H   0  0  0  0  0  0
  -29.3475  -17.2938   17.8975 H   0  0  0  0  0  0
  -28.2707  -16.5377   19.0544 H   0  0  0  0  0  0
  -29.6494  -15.6653   18.3899 H   0  0  0  0  0  0
  -28.5990  -17.0081   22.1794 H   0  0  0  0  0  0
  -28.9107  -15.4013   22.7371 H   0  0  0  0  0  0
  -28.0520  -15.6743   21.2113 H   0  0  0  0  0  0
  -30.9848  -17.2927   22.7320 H   0  0  0  0  0  0
  -32.2631  -16.5397   21.7972 H   0  0  0  0  0  0
  -31.3332  -15.5996   22.9409 H   0  0  0  0  0  0
  -28.3607  -22.7493   22.1635 H   0  0  0  0  0  0
  -27.3291  -22.6222   20.7889 H   0  0  0  0  0  0
  -29.3082  -23.7938   19.4307 H   0  0  0  0  0  0
  -29.9138  -24.2302   21.0125 H   0  0  0  0  0  0
  -27.5214  -25.1675   21.4946 H   0  0  0  0  0  0
  -27.1773  -24.7468   19.8479 H   0  0  0  0  0  0
  1 25  1  0  0  0
  1 30  2  0  0  0
  1 83  1  0  0  0
  2  3  1  0  0  0
  2 25  1  0  0  0
  2 86  1  0  0  0
  2 87  1  0  0  0
  3  4  1  0  0  0
  3 88  1  0  0  0
  3 89  1  0  0  0
  4  5  1  0  0  0
  4 90  1  0  0  0
  4 91  1  0  0  0
  5  6  1  0  0  0
  5 26  1  0  0  0
  5 92  1  0  0  0
  6 25  1  0  0  0
  6 93  1  0  0  0
  6 94  1  0  0  0
  7  8  2  0  0  0
  7 26  1  0  0  0
  7 29  1  0  0  0
  8  9  1  0  0  0
  8 22  1  0  0  0
  9 10  1  0  0  0
  9 27  2  0  0  0
 10 11  2  0  0  0
 10 15  1  0  0  0
 11 12  1  0  0  0
 11 95  1  0  0  0
 12 13  2  0  0  0
 12 96  1  0  0  0
 13 14  1  0  0  0
 13 31  1  0  0  0
 14 15  2  0  0  0
 14 97  1  0  0  0
 15 98  1  0  0  0
 16 17  2  0  0  0
 16 21  1  0  0  0
 16 31  1  0  0  0
 17 18  1  0  0  0
 17 99  1  0  0  0
 18 19  2  0  0  0
 18100  1  0  0  0
 19 20  1  0  0  0
 19 24  1  0  0  0
 20 21  2  0  0  0
 20101  1  0  0  0
 21 23  1  0  0  0
 22 28  1  0  0  0
 22 32  2  0  0  0
 26 27  1  0  0  0
 28102  1  0  0  0
 28103  1  0  0  0
 29104  1  0  0  0
 29105  1  0  0  0
 33 34  1  0  0  0
 33 66  1  0  0  0
 33 70  2  0  0  0
 34 36  1  0  0  0
 34 59  1  0  0  0
 34106  1  0  0  0
 35 44  2  0  0  0
 35 45  1  0  0  0
 35 68  1  0  0  0
 36 56  1  0  0  0
 36107  1  0  0  0
 37 39  1  0  0  0
 37 47  1  0  0  0
 37 66  1  0  0  0
 37108  1  0  0  0
 38 43  2  0  0  0
 38 46  1  0  0  0
 38 47  1  0  0  0
 39 64  1  0  0  0
 39 67  2  0  0  0
 40 52  1  0  0  0
 40 53  2  0  0  0
 40 58  1  0  0  0
 41109  1  0  0  0
 41110  1  0  0  0
 41111  1  0  0  0
 41 48  1  0  0  0
 42 43  1  0  0  0
 42 66  1  0  0  0
 42112  1  0  0  0
 42113  1  0  0  0
 43 44  1  0  0  0
 44114  1  0  0  0
 45 46  2  0  0  0
 45115  1  0  0  0
 46116  1  0  0  0
 47117  1  0  0  0
 47118  1  0  0  0
 48 56  1  0  0  0
 48 65  1  0  0  0
 48119  1  0  0  0
 49 50  1  0  0  0
 49 53  1  0  0  0
 49 64  1  0  0  0
 49120  1  0  0  0
 50 51  1  0  0  0
 50121  1  0  0  0
 50122  1  0  0  0
 51 52  1  0  0  0
 51123  1  0  0  0
 51124  1  0  0  0
 52125  1  0  0  0
 52126  1  0  0  0
 53 54  1  0  0  0
 54 55  2  0  0  0
 54127  1  0  0  0
 55 57  1  0  0  0
 55128  1  0  0  0
 56 69  2  0  0  0
 57 58  2  0  0  0
 57129  1  0  0  0
 58130  1  0  0  0
 59 60  1  0  0  0
 59 61  1  0  0  0
 59 62  1  0  0  0
 60131  1  0  0  0
 60132  1  0  0  0
 60133  1  0  0  0
 61134  1  0  0  0
 61135  1  0  0  0
 61136  1  0  0  0
 62137  1  0  0  0
 62138  1  0  0  0
 62139  1  0  0  0
 63 65  1  0  0  0
 63140  1  0  0  0
 63141  1  0  0  0
 63142  1  0  0  0
 64143  1  0  0  0
 65144  1  0  0  0
 68 81  1  0  0  0
 71 73  2  0  0  0
 71 84  1  0  0  0
 71145  1  0  0  0
 72 73  1  0  0  0
 72 85  2  0  0  0
 72146  1  0  0  0
 73 79  1  0  0  0
 74 82  1  0  0  0
 74 84  2  0  0  0
 74 85  1  0  0  0
 75147  1  0  0  0
 75148  1  0  0  0
 75149  1  0  0  0
 75 82  1  0  0  0
 76 82  1  0  0  0
 76150  1  0  0  0
 76151  1  0  0  0
 76152  1  0  0  0
 77153  1  0  0  0
 77154  1  0  0  0
 77155  1  0  0  0
 77 83  1  0  0  0
 78 83  1  0  0  0
 78156  1  0  0  0
 78157  1  0  0  0
 78158  1  0  0  0
 79 80  1  0  0  0
 79159  1  0  0  0
 79160  1  0  0  0
 80 81  1  0  0  0
 80161  1  0  0  0
 80162  1  0  0  0
 81163  1  0  0  0
 81164  1  0  0  0
 82 83  1  0  0  0
M  ISO  4   1 100  68 101  81 101  83 100
M  END
> <chiral flag>
0

> <version>
0

> <s_m_source_file>
/data/baiqing/PycharmProjects/Reinvent-master-3.2/result/LINK_invent/BTK/process_docking_weight1_custom_sum_contain_oxygen_bond_distance_aromatic_linkinvent_7_9_3/rearranged_h_0068.sdf

> <i_m_source_file_index>
64

> <r_mmod_Potential_Energy-OPLS-2005>
-223.984298706055

> <r_mmod_Stretch_Energy-OPLS-2005>
81.784912109375

> <r_mmod_Bend_Energy-OPLS-2005>
178.276184082031

> <r_mmod_Torsional_Energy-OPLS-2005>
190.170455932617

> <r_mmod_Improper_Torsional_Energy-OPLS-2005>
4.64489889144897

> <r_mmod_Van_der_Waal_Energy-OPLS-2005>
190.042541503906

> <r_mmod_Electrostatic_Energy-OPLS-2005>
-710.121398925781

> <r_mmod_Solvation_Energy-OPLS-2005>
-194.51383972168

> <b_mmod_Minimization_Converged-OPLS-2005>
0

> <r_mmod_RMS_Derivative-OPLS-2005>
2.31933426856995

$$$$
70
                    3D
 Structure written by MMmdl.
168176  0  0  1  0            999 V2000
  -30.7774  -14.4166   20.6677 C   0  0  0  0  0  0
  -30.4075  -12.3067   19.4238 C   0  0  0  0  0  0
  -29.4889  -12.5231   18.2044 C   0  0  0  0  0  0
  -28.0087  -12.3718   18.6031 C   0  0  0  0  0  0
  -27.6572  -13.1955   19.8655 C   0  0  2  0  0  0
  -28.6928  -12.9534   20.9808 C   0  0  0  0  0  0
  -25.2591  -13.8134   20.5636 C   0  0  0  0  0  0
  -24.1831  -13.0431   20.9156 C   0  0  0  0  0  0
  -24.6354  -11.6888   20.8697 C   0  0  0  0  0  0
  -23.9012  -10.4287   21.0383 C   0  0  0  0  0  0
  -24.3589   -9.4211   21.9157 C   0  0  0  0  0  0
  -23.6279   -8.2240   22.0729 C   0  0  0  0  0  0
  -22.4253   -8.0274   21.3535 C   0  0  0  0  0  0
  -21.9870   -9.0240   20.4644 C   0  0  0  0  0  0
  -22.7179  -10.2129   20.3051 C   0  0  0  0  0  0
  -21.6840   -6.0736   22.5282 C   0  0  0  0  0  0
  -21.4008   -6.5638   23.8220 C   0  0  0  0  0  0
  -21.3663   -5.6787   24.9180 C   0  0  0  0  0  0
  -21.6044   -4.3053   24.7225 C   0  0  0  0  0  0
  -21.8813   -3.8150   23.4343 C   0  0  0  0  0  0
  -21.9183   -4.6967   22.3402 C   0  0  0  0  0  0
  -22.7867  -13.5249   21.1850 C   0  0  0  0  0  0
  -22.1645   -4.2155   21.0978 F   0  0  0  0  0  0
  -21.5636   -3.4536   25.7738 F   0  0  0  0  0  0
  -30.0335  -13.2835   20.4680 N   0  0  0  0  0  0
  -26.2990  -12.9269   20.3278 N   0  0  0  0  0  0
  -25.9267  -11.6435   20.5681 N   0  0  0  0  0  0
  -22.0507  -12.8257   22.0417 N   0  0  0  0  0  0
  -25.4375  -15.1850   20.4078 N   0  0  0  0  0  0
  -31.8234  -14.5673   20.0231 O   0  0  0  0  0  0
  -21.6617   -6.8875   21.4241 O   0  0  0  0  0  0
  -22.3540  -14.5539   20.6689 O   0  0  0  0  0  0
  -24.6128  -31.8698   23.2127 C   0  0  0  0  0  0
  -25.9031  -32.4829   23.8411 C   0  0  1  0  0  0
  -27.2312  -27.4527   20.0749 C   0  0  0  0  0  0
  -25.5896  -33.8631   24.2338 N   0  0  0  0  0  0
  -23.3980  -30.4955   21.5538 C   0  0  2  0  0  0
  -24.8394  -28.9634   20.1161 C   0  0  0  0  0  0
  -22.7390  -29.4668   22.5007 C   0  0  0  0  0  0
  -18.0268  -28.1375   22.8491 C   0  0  0  0  0  0
  -24.1483  -36.7323   23.2640 C   0  0  0  0  0  0
  -25.9268  -30.8385   21.3627 C   0  0  0  0  0  0
  -25.9994  -29.4746   20.7083 C   0  0  0  0  0  0
  -27.1956  -28.7257   20.6864 C   0  0  0  0  0  0
  -26.0464  -26.9498   19.4843 C   0  0  0  0  0  0
  -24.8554  -27.6981   19.5061 C   0  0  0  0  0  0
  -23.6026  -29.8299   20.1670 C   0  0  0  0  0  0
  -25.4102  -36.3123   24.0340 C   0  0  1  0  0  0
  -20.5858  -28.3649   23.1325 C   0  0  2  0  0  0
  -20.6760  -26.9388   22.5414 C   0  0  0  0  0  0
  -19.5743  -26.6384   21.5206 C   0  0  0  0  0  0
  -18.1922  -26.7921   22.1618 C   0  0  0  0  0  0
  -19.1519  -28.8827   23.2907 C   0  0  0  0  0  0
  -18.9447  -30.1436   23.8911 C   0  0  0  0  0  0
  -17.6451  -30.6579   24.0566 C   0  0  0  0  0  0
  -25.9028  -34.9482   23.5134 C   0  0  0  0  0  0
  -16.5343  -29.9083   23.6324 C   0  0  0  0  0  0
  -16.7257  -28.6502   23.0340 C   0  0  0  0  0  0
  -26.4467  -31.6607   25.0731 C   0  0  0  0  0  0
  -25.3752  -31.3697   26.1490 C   0  0  0  0  0  0
  -27.0296  -30.3059   24.6093 C   0  0  0  0  0  0
  -27.6053  -32.4322   25.7484 C   0  0  0  0  0  0
  -27.5580  -37.1817   24.8467 C   0  0  0  0  0  0
  -21.4123  -29.3029   22.3742 N   0  0  0  0  0  0
  -26.4290  -37.3802   23.9408 N   0  0  0  0  0  0
  -24.6645  -31.0821   22.1013 N   0  0  0  0  0  0
  -23.4175  -28.8206   23.3032 O   0  0  0  0  0  0
  -28.4298  -26.7686   20.0715 O   0  0  0  0  0  0
  -26.5593  -34.8926   22.4700 O   0  0  0  0  0  0
  -23.5328  -32.1440   23.7540 O   0  0  0  0  0  0
  -29.2723  -17.9251   21.3852 C   0  0  0  0  0  0
  -29.5497  -16.6592   20.9454 C   0  0  0  0  0  0
  -29.7565  -15.1840   22.9842 C   0  0  0  0  0  0
  -31.7353  -16.3018   22.0432 C   0  0  0  0  0  0
  -27.5514  -22.5592   23.0489 C   0  0  0  0  0  0
  -25.9051  -21.9519   21.2637 C   0  0  0  0  0  0
  -27.8410  -24.4964   20.7862 C   0  0  0  0  0  0
  -28.1358  -22.9908   20.6036 C   0  0  0  0  0  0
  -28.0512  -20.6298   21.5751 C   0  0  0  0  0  0
  -27.9976  -19.8476   20.2450 C   0  0  0  0  0  0
  -28.4658  -25.3890   19.6973 C   0  0  0  0  0  0
  -30.4039  -15.6035   21.6411 C   0  0  0  0  0  0
  -27.4084  -22.0427   21.6002 C   0  0  0  0  0  0
  -28.9349  -16.5113   19.6965 N   0  0  0  0  0  0
  -28.3342  -17.6121   19.3637 N   0  0  0  0  0  0
  -28.5255  -18.4940   20.3710 N   0  0  0  0  0  0
  -31.4533  -12.3743   19.1217 H   0  0  0  0  0  0
  -30.2917  -11.2918   19.8075 H   0  0  0  0  0  0
  -29.7360  -11.8108   17.4158 H   0  0  0  0  0  0
  -29.6568  -13.5177   17.7885 H   0  0  0  0  0  0
  -27.8147  -11.3143   18.7850 H   0  0  0  0  0  0
  -27.3637  -12.6639   17.7742 H   0  0  0  0  0  0
  -27.7015  -14.2427   19.5787 H   0  0  0  0  0  0
  -28.6760  -11.9052   21.2825 H   0  0  0  0  0  0
  -28.3857  -13.4851   21.8655 H   0  0  0  0  0  0
  -25.2739   -9.5704   22.4725 H   0  0  0  0  0  0
  -24.0008   -7.4630   22.7440 H   0  0  0  0  0  0
  -21.0795   -8.8747   19.8956 H   0  0  0  0  0  0
  -22.3618  -10.9672   19.6170 H   0  0  0  0  0  0
  -21.1993   -7.6143   23.9729 H   0  0  0  0  0  0
  -21.1489   -6.0512   25.9086 H   0  0  0  0  0  0
  -22.0587   -2.7608   23.2840 H   0  0  0  0  0  0
  -22.4115  -11.9932   22.4837 H   0  0  0  0  0  0
  -21.1126  -13.1298   22.2609 H   0  0  0  0  0  0
  -24.6867  -15.8546   20.5362 H   0  0  0  0  0  0
  -26.3133  -15.6156   20.1315 H   0  0  0  0  0  0
  -26.7099  -32.5528   23.1173 H   0  0  0  0  0  0
  -25.0065  -33.9808   25.0498 H   0  0  0  0  0  0
  -22.6863  -31.3125   21.4180 H   0  0  0  0  0  0
  -23.3742  -35.9661   23.3317 H   0  0  0  0  0  0
  -24.3584  -36.8922   22.2054 H   0  0  0  0  0  0
  -23.7232  -37.6532   23.6640 H   0  0  0  0  0  0
  -26.0373  -31.6052   20.5947 H   0  0  0  0  0  0
  -26.8164  -30.8910   21.9781 H   0  0  0  0  0  0
  -28.0928  -29.1224   21.1408 H   0  0  0  0  0  0
  -26.0181  -25.9880   18.9957 H   0  0  0  0  0  0
  -23.9620  -27.2993   19.0462 H   0  0  0  0  0  0
  -23.7091  -30.6065   19.4083 H   0  0  0  0  0  0
  -22.7255  -29.2509   19.8706 H   0  0  0  0  0  0
  -25.1278  -36.2002   25.0833 H   0  0  0  0  0  0
  -20.9950  -28.3209   24.1446 H   0  0  0  0  0  0
  -20.5653  -26.2263   23.3601 H   0  0  0  0  0  0
  -21.6635  -26.7432   22.1215 H   0  0  0  0  0  0
  -19.6900  -25.6297   21.1228 H   0  0  0  0  0  0
  -19.6682  -27.3202   20.6744 H   0  0  0  0  0  0
  -17.4192  -26.6670   21.4020 H   0  0  0  0  0  0
  -18.0320  -26.0058   22.9010 H   0  0  0  0  0  0
  -19.7924  -30.7249   24.2287 H   0  0  0  0  0  0
  -17.5006  -31.6258   24.5169 H   0  0  0  0  0  0
  -15.5344  -30.2991   23.7636 H   0  0  0  0  0  0
  -15.8660  -28.0829   22.7039 H   0  0  0  0  0  0
  -24.5914  -30.7053   25.7830 H   0  0  0  0  0  0
  -24.8958  -32.2848   26.4976 H   0  0  0  0  0  0
  -25.8125  -30.8839   27.0224 H   0  0  0  0  0  0
  -26.2828  -29.6818   24.1167 H   0  0  0  0  0  0
  -27.4102  -29.7287   25.4532 H   0  0  0  0  0  0
  -27.8647  -30.4390   23.9209 H   0  0  0  0  0  0
  -27.2678  -33.3604   26.2100 H   0  0  0  0  0  0
  -28.3835  -32.6911   25.0294 H   0  0  0  0  0  0
  -28.0751  -31.8427   26.5366 H   0  0  0  0  0  0
  -28.2613  -38.0101   24.7512 H   0  0  0  0  0  0
  -28.1060  -36.2639   24.6294 H   0  0  0  0  0  0
  -27.2306  -37.1473   25.8872 H   0  0  0  0  0  0
  -20.9272  -29.8781   21.6998 H   0  0  0  0  0  0
  -26.0189  -38.2885   24.1406 H   0  0  0  0  0  0
  -29.5567  -18.4459   22.2887 H   0  0  0  0  0  0
  -28.6685  -15.1990   22.9352 H   0  0  0  0  0  0
  -29.9938  -15.8844   23.7844 H   0  0  0  0  0  0
  -30.0945  -14.2025   23.3190 H   0  0  0  0  0  0
  -32.4338  -15.5992   22.4993 H   0  0  0  0  0  0
  -32.2334  -16.7555   21.1849 H   0  0  0  0  0  0
  -31.5778  -17.1079   22.7601 H   0  0  0  0  0  0
  -27.0235  -23.5002   23.2076 H   0  0  0  0  0  0
  -28.5968  -22.7177   23.3161 H   0  0  0  0  0  0
  -27.1367  -21.8499   23.7665 H   0  0  0  0  0  0
  -25.3942  -22.9001   21.4296 H   0  0  0  0  0  0
  -25.4037  -21.2096   21.8856 H   0  0  0  0  0  0
  -25.7309  -21.6768   20.2237 H   0  0  0  0  0  0
  -28.2346  -24.8245   21.7478 H   0  0  0  0  0  0
  -26.7655  -24.6605   20.8232 H   0  0  0  0  0  0
  -29.2137  -22.8463   20.6880 H   0  0  0  0  0  0
  -27.8838  -22.7038   19.5810 H   0  0  0  0  0  0
  -29.0960  -20.7196   21.8788 H   0  0  0  0  0  0
  -27.5723  -20.0159   22.3393 H   0  0  0  0  0  0
  -28.5701  -20.3629   19.4729 H   0  0  0  0  0  0
  -26.9730  -19.7723   19.8811 H   0  0  0  0  0  0
  -28.0208  -25.2157   18.7170 H   0  0  0  0  0  0
  -29.5181  -25.1261   19.5851 H   0  0  0  0  0  0
  1 25  1  0  0  0
  1 30  2  0  0  0
  1 82  1  0  0  0
  2  3  1  0  0  0
  2 25  1  0  0  0
  2 87  1  0  0  0
  2 88  1  0  0  0
  3  4  1  0  0  0
  3 89  1  0  0  0
  3 90  1  0  0  0
  4  5  1  0  0  0
  4 91  1  0  0  0
  4 92  1  0  0  0
  5  6  1  0  0  0
  5 26  1  0  0  0
  5 93  1  0  0  0
  6 25  1  0  0  0
  6 94  1  0  0  0
  6 95  1  0  0  0
  7  8  2  0  0  0
  7 26  1  0  0  0
  7 29  1  0  0  0
  8  9  1  0  0  0
  8 22  1  0  0  0
  9 10  1  0  0  0
  9 27  2  0  0  0
 10 11  2  0  0  0
 10 15  1  0  0  0
 11 12  1  0  0  0
 11 96  1  0  0  0
 12 13  2  0  0  0
 12 97  1  0  0  0
 13 14  1  0  0  0
 13 31  1  0  0  0
 14 15  2  0  0  0
 14 98  1  0  0  0
 15 99  1  0  0  0
 16 17  2  0  0  0
 16 21  1  0  0  0
 16 31  1  0  0  0
 17 18  1  0  0  0
 17100  1  0  0  0
 18 19  2  0  0  0
 18101  1  0  0  0
 19 20  1  0  0  0
 19 24  1  0  0  0
 20 21  2  0  0  0
 20102  1  0  0  0
 21 23  1  0  0  0
 22 28  1  0  0  0
 22 32  2  0  0  0
 26 27  1  0  0  0
 28103  1  0  0  0
 28104  1  0  0  0
 29105  1  0  0  0
 29106  1  0  0  0
 33 34  1  0  0  0
 33 66  1  0  0  0
 33 70  2  0  0  0
 34 36  1  0  0  0
 34 59  1  0  0  0
 34107  1  0  0  0
 35 44  2  0  0  0
 35 45  1  0  0  0
 35 68  1  0  0  0
 36 56  1  0  0  0
 36108  1  0  0  0
 37 39  1  0  0  0
 37 47  1  0  0  0
 37 66  1  0  0  0
 37109  1  0  0  0
 38 43  2  0  0  0
 38 46  1  0  0  0
 38 47  1  0  0  0
 39 64  1  0  0  0
 39 67  2  0  0  0
 40 52  1  0  0  0
 40 53  2  0  0  0
 40 58  1  0  0  0
 41110  1  0  0  0
 41111  1  0  0  0
 41112  1  0  0  0
 41 48  1  0  0  0
 42 43  1  0  0  0
 42 66  1  0  0  0
 42113  1  0  0  0
 42114  1  0  0  0
 43 44  1  0  0  0
 44115  1  0  0  0
 45 46  2  0  0  0
 45116  1  0  0  0
 46117  1  0  0  0
 47118  1  0  0  0
 47119  1  0  0  0
 48 56  1  0  0  0
 48 65  1  0  0  0
 48120  1  0  0  0
 49 50  1  0  0  0
 49 53  1  0  0  0
 49 64  1  0  0  0
 49121  1  0  0  0
 50 51  1  0  0  0
 50122  1  0  0  0
 50123  1  0  0  0
 51 52  1  0  0  0
 51124  1  0  0  0
 51125  1  0  0  0
 52126  1  0  0  0
 52127  1  0  0  0
 53 54  1  0  0  0
 54 55  2  0  0  0
 54128  1  0  0  0
 55 57  1  0  0  0
 55129  1  0  0  0
 56 69  2  0  0  0
 57 58  2  0  0  0
 57130  1  0  0  0
 58131  1  0  0  0
 59 60  1  0  0  0
 59 61  1  0  0  0
 59 62  1  0  0  0
 60132  1  0  0  0
 60133  1  0  0  0
 60134  1  0  0  0
 61135  1  0  0  0
 61136  1  0  0  0
 61137  1  0  0  0
 62138  1  0  0  0
 62139  1  0  0  0
 62140  1  0  0  0
 63 65  1  0  0  0
 63141  1  0  0  0
 63142  1  0  0  0
 63143  1  0  0  0
 64144  1  0  0  0
 65145  1  0  0  0
 68 81  1  0  0  0
 71 72  2  0  0  0
 71 86  1  0  0  0
 71146  1  0  0  0
 72 82  1  0  0  0
 72 84  1  0  0  0
 73147  1  0  0  0
 73148  1  0  0  0
 73149  1  0  0  0
 73 82  1  0  0  0
 74 82  1  0  0  0
 74150  1  0  0  0
 74151  1  0  0  0
 74152  1  0  0  0
 75153  1  0  0  0
 75154  1  0  0  0
 75155  1  0  0  0
 75 83  1  0  0  0
 76 83  1  0  0  0
 76156  1  0  0  0
 76157  1  0  0  0
 76158  1  0  0  0
 77 78  1  0  0  0
 77 81  1  0  0  0
 77159  1  0  0  0
 77160  1  0  0  0
 78 83  1  0  0  0
 78161  1  0  0  0
 78162  1  0  0  0
 79 80  1  0  0  0
 79 83  1  0  0  0
 79163  1  0  0  0
 79164  1  0  0  0
 80 86  1  0  0  0
 80165  1  0  0  0
 80166  1  0  0  0
 81167  1  0  0  0
 81168  1  0  0  0
 84 85  2  0  0  0
 85 86  1  0  0  0
M  ISO  4   1 100  68 101  81 101  82 100
M  END
> <chiral flag>
0

> <version>
0

> <s_m_source_file>
/data/baiqing/PycharmProjects/Reinvent-master-3.2/result/LINK_invent/BTK/process_docking_weight1_custom_sum_contain_oxygen_bond_distance_aromatic_linkinvent_7_9_3/rearranged_h_0068.sdf

> <i_m_source_file_index>
65

> <r_mmod_Potential_Energy-OPLS-2005>
35.0300903320312

> <r_mmod_Stretch_Energy-OPLS-2005>
41.5427932739258

> <r_mmod_Bend_Energy-OPLS-2005>
132.181701660156

> <r_mmod_Torsional_Energy-OPLS-2005>
196.375915527344

> <r_mmod_Improper_Torsional_Energy-OPLS-2005>
1.64600563049316

> <r_mmod_Van_der_Waal_Energy-OPLS-2005>
149.424270629883

> <r_mmod_Electrostatic_Energy-OPLS-2005>
-315.726440429688

> <r_mmod_Solvation_Energy-OPLS-2005>
-181.1201171875

> <b_mmod_Minimization_Converged-OPLS-2005>
0

> <r_mmod_RMS_Derivative-OPLS-2005>
1.46860325336456

$$$$
71
                    3D
 Structure written by MMmdl.
162170  0  0  1  0            999 V2000
  -30.7947  -14.3641   20.6844 C   0  0  0  0  0  0
  -30.4083  -12.2818   19.4198 C   0  0  0  0  0  0
  -29.4899  -12.5172   18.2079 C   0  0  0  0  0  0
  -28.0144  -12.3632   18.6192 C   0  0  0  0  0  0
  -27.6617  -13.2043   19.8747 C   0  0  2  0  0  0
  -28.6984  -12.9819   20.9991 C   0  0  0  0  0  0
  -25.2562  -13.8140   20.5678 C   0  0  0  0  0  0
  -24.1818  -13.0424   20.9165 C   0  0  0  0  0  0
  -24.6358  -11.6879   20.8715 C   0  0  0  0  0  0
  -23.9012  -10.4269   21.0386 C   0  0  0  0  0  0
  -24.3574   -9.4188   21.9171 C   0  0  0  0  0  0
  -23.6259   -8.2218   22.0752 C   0  0  0  0  0  0
  -22.4240   -8.0251   21.3545 C   0  0  0  0  0  0
  -21.9874   -9.0209   20.4634 C   0  0  0  0  0  0
  -22.7181  -10.2096   20.3034 C   0  0  0  0  0  0
  -21.6835   -6.0704   22.5269 C   0  0  0  0  0  0
  -21.4003   -6.5615   23.8201 C   0  0  0  0  0  0
  -21.3680   -5.6785   24.9179 C   0  0  0  0  0  0
  -21.6047   -4.3047   24.7240 C   0  0  0  0  0  0
  -21.8815   -3.8123   23.4367 C   0  0  0  0  0  0
  -21.9185   -4.6932   22.3411 C   0  0  0  0  0  0
  -22.7836  -13.5220   21.1846 C   0  0  0  0  0  0
  -22.1647   -4.2108   21.0994 F   0  0  0  0  0  0
  -21.5655   -3.4535   25.7763 F   0  0  0  0  0  0
  -30.0494  -13.2490   20.4671 N   0  0  0  0  0  0
  -26.2997  -12.9304   20.3344 N   0  0  0  0  0  0
  -25.9281  -11.6462   20.5727 N   0  0  0  0  0  0
  -22.0498  -12.8206   22.0406 N   0  0  0  0  0  0
  -25.4332  -15.1857   20.4090 N   0  0  0  0  0  0
  -31.7908  -14.6408   20.0137 O   0  0  0  0  0  0
  -21.6626   -6.8839   21.4223 O   0  0  0  0  0  0
  -22.3522  -14.5554   20.6727 O   0  0  0  0  0  0
  -24.6127  -31.8690   23.2095 C   0  0  0  0  0  0
  -25.9036  -32.4818   23.8387 C   0  0  1  0  0  0
  -27.2396  -27.4512   20.0899 C   0  0  0  0  0  0
  -25.5897  -33.8615   24.2319 N   0  0  0  0  0  0
  -23.3995  -30.4940   21.5498 C   0  0  2  0  0  0
  -24.8441  -28.9594   20.1206 C   0  0  0  0  0  0
  -22.7397  -29.4691   22.4985 C   0  0  0  0  0  0
  -18.0279  -28.1336   22.8489 C   0  0  0  0  0  0
  -24.1502  -36.7323   23.2640 C   0  0  0  0  0  0
  -25.9267  -30.8408   21.3623 C   0  0  0  0  0  0
  -26.0034  -29.4772   20.7071 C   0  0  0  0  0  0
  -27.2014  -28.7315   20.6864 C   0  0  0  0  0  0
  -26.0499  -26.9316   19.5251 C   0  0  0  0  0  0
  -24.8605  -27.6835   19.5306 C   0  0  0  0  0  0
  -23.6075  -29.8249   20.1660 C   0  0  0  0  0  0
  -25.4121  -36.3106   24.0333 C   0  0  1  0  0  0
  -20.5866  -28.3672   23.1305 C   0  0  2  0  0  0
  -20.6791  -26.9415   22.5399 C   0  0  0  0  0  0
  -19.5796  -26.6406   21.5180 C   0  0  0  0  0  0
  -18.1957  -26.7906   22.1561 C   0  0  0  0  0  0
  -19.1520  -28.8815   23.2911 C   0  0  0  0  0  0
  -18.9439  -30.1401   23.8949 C   0  0  0  0  0  0
  -17.6430  -30.6538   24.0572 C   0  0  0  0  0  0
  -25.9041  -34.9469   23.5128 C   0  0  0  0  0  0
  -16.5328  -29.9015   23.6314 C   0  0  0  0  0  0
  -16.7269  -28.6434   23.0344 C   0  0  0  0  0  0
  -26.4489  -31.6578   25.0701 C   0  0  0  0  0  0
  -25.3756  -31.3680   26.1451 C   0  0  0  0  0  0
  -27.0315  -30.3007   24.6073 C   0  0  0  0  0  0
  -27.6071  -32.4304   25.7454 C   0  0  0  0  0  0
  -27.5586  -37.1813   24.8456 C   0  0  0  0  0  0
  -21.4122  -29.3053   22.3707 N   0  0  0  0  0  0
  -26.4310  -37.3782   23.9384 N   0  0  0  0  0  0
  -24.6635  -31.0829   22.0978 N   0  0  0  0  0  0
  -23.4176  -28.8260   23.3047 O   0  0  0  0  0  0
  -28.4494  -26.7870   20.0881 O   0  0  0  0  0  0
  -26.5612  -34.8913   22.4694 O   0  0  0  0  0  0
  -23.5335  -32.1447   23.7507 O   0  0  0  0  0  0
  -27.5658  -17.8925   22.2824 C   0  0  0  0  0  0
  -28.8114  -19.2218   21.0167 C   0  0  0  0  0  0
  -29.7080  -17.4241   21.9623 C   0  0  0  0  0  0
  -26.2448  -17.5681   22.9425 C   0  0  0  0  0  0
  -32.2315  -16.9313   21.6863 C   0  0  0  0  0  0
  -28.9154  -20.4432   20.1125 C   0  0  0  0  0  0
  -28.8218  -21.7979   20.8529 C   0  0  0  0  0  0
  -28.6896  -22.9820   19.8695 C   0  0  0  0  0  0
  -28.4038  -24.3563   20.5102 C   0  0  0  0  0  0
  -28.5837  -25.4984   19.4888 C   0  0  0  0  0  0
  -30.8485  -16.4366   22.1745 C   0  0  2  0  0  0
  -27.6121  -18.9887   21.5377 N   0  0  0  0  0  0
  -28.5631  -17.0574   22.5263 N   0  0  0  0  0  0
  -29.9041  -18.4869   21.1872 N   0  0  0  0  0  0
  -30.4067  -15.1117   21.7194 N   0  0  0  0  0  0
  -31.4569  -12.3536   19.1272 H   0  0  0  0  0  0
  -30.2805  -11.2666   19.8015 H   0  0  0  0  0  0
  -29.7330  -11.8112   17.4127 H   0  0  0  0  0  0
  -29.6605  -13.5150   17.7996 H   0  0  0  0  0  0
  -27.8384  -11.3052   18.8213 H   0  0  0  0  0  0
  -27.3611  -12.6296   17.7863 H   0  0  0  0  0  0
  -27.7084  -14.2541   19.5820 H   0  0  0  0  0  0
  -28.6497  -11.9514   21.3504 H   0  0  0  0  0  0
  -28.4391  -13.5958   21.8613 H   0  0  0  0  0  0
  -25.2722   -9.5668   22.4742 H   0  0  0  0  0  0
  -23.9971   -7.4612   22.7477 H   0  0  0  0  0  0
  -21.0808   -8.8681   19.8945 H   0  0  0  0  0  0
  -22.3611  -10.9617   19.6137 H   0  0  0  0  0  0
  -21.1964   -7.6120   23.9684 H   0  0  0  0  0  0
  -21.1529   -6.0531   25.9086 H   0  0  0  0  0  0
  -22.0583   -2.7579   23.2877 H   0  0  0  0  0  0
  -22.4140  -11.9829   22.4708 H   0  0  0  0  0  0
  -21.1119  -13.1207   22.2678 H   0  0  0  0  0  0
  -24.6581  -15.8369   20.4684 H   0  0  0  0  0  0
  -26.2715  -15.5992   20.0228 H   0  0  0  0  0  0
  -26.7109  -32.5537   23.1152 H   0  0  0  0  0  0
  -25.0007  -33.9766   25.0435 H   0  0  0  0  0  0
  -22.6885  -31.3102   21.4086 H   0  0  0  0  0  0
  -23.3737  -35.9686   23.3329 H   0  0  0  0  0  0
  -24.3604  -36.8906   22.2047 H   0  0  0  0  0  0
  -23.7271  -37.6542   23.6647 H   0  0  0  0  0  0
  -26.0477  -31.6117   20.5992 H   0  0  0  0  0  0
  -26.8119  -30.8864   21.9857 H   0  0  0  0  0  0
  -28.1024  -29.1388   21.1249 H   0  0  0  0  0  0
  -26.0053  -25.9491   19.0810 H   0  0  0  0  0  0
  -23.9625  -27.2710   19.0906 H   0  0  0  0  0  0
  -23.7176  -30.5960   19.4033 H   0  0  0  0  0  0
  -22.7311  -29.2437   19.8717 H   0  0  0  0  0  0
  -25.1297  -36.1994   25.0830 H   0  0  0  0  0  0
  -20.9965  -28.3214   24.1425 H   0  0  0  0  0  0
  -20.5717  -26.2256   23.3557 H   0  0  0  0  0  0
  -21.6665  -26.7483   22.1169 H   0  0  0  0  0  0
  -19.7021  -25.6342   21.1163 H   0  0  0  0  0  0
  -19.6758  -27.3268   20.6755 H   0  0  0  0  0  0
  -17.4243  -26.6716   21.3933 H   0  0  0  0  0  0
  -18.0303  -25.9985   22.8879 H   0  0  0  0  0  0
  -19.7908  -30.7222   24.2331 H   0  0  0  0  0  0
  -17.4947  -31.6248   24.5137 H   0  0  0  0  0  0
  -15.5326  -30.2909   23.7595 H   0  0  0  0  0  0
  -15.8694  -28.0750   22.7026 H   0  0  0  0  0  0
  -24.5935  -30.7027   25.7765 H   0  0  0  0  0  0
  -24.8956  -32.2835   26.4919 H   0  0  0  0  0  0
  -25.8118  -30.8819   27.0187 H   0  0  0  0  0  0
  -26.2833  -29.6736   24.1200 H   0  0  0  0  0  0
  -27.4136  -29.7284   25.4538 H   0  0  0  0  0  0
  -27.8667  -30.4293   23.9184 H   0  0  0  0  0  0
  -27.2683  -33.3580   26.2096 H   0  0  0  0  0  0
  -28.3849  -32.6903   25.0252 H   0  0  0  0  0  0
  -28.0798  -31.8391   26.5311 H   0  0  0  0  0  0
  -28.2611  -38.0104   24.7482 H   0  0  0  0  0  0
  -28.1081  -36.2621   24.6329 H   0  0  0  0  0  0
  -27.2301  -37.1512   25.8863 H   0  0  0  0  0  0
  -20.9279  -29.8657   21.6834 H   0  0  0  0  0  0
  -26.0210  -38.2872   24.1355 H   0  0  0  0  0  0
  -26.0493  -16.4972   22.9145 H   0  0  0  0  0  0
  -25.4171  -18.0724   22.4428 H   0  0  0  0  0  0
  -26.2611  -17.8849   23.9841 H   0  0  0  0  0  0
  -33.0117  -16.2012   21.9012 H   0  0  0  0  0  0
  -32.2354  -17.1299   20.6135 H   0  0  0  0  0  0
  -32.5069  -17.8594   22.1874 H   0  0  0  0  0  0
  -28.1231  -20.3716   19.3676 H   0  0  0  0  0  0
  -29.8479  -20.4008   19.5487 H   0  0  0  0  0  0
  -27.9585  -21.7857   21.5186 H   0  0  0  0  0  0
  -29.6993  -21.9269   21.4895 H   0  0  0  0  0  0
  -27.8947  -22.7686   19.1540 H   0  0  0  0  0  0
  -29.6072  -23.0481   19.2832 H   0  0  0  0  0  0
  -27.3945  -24.3725   20.9234 H   0  0  0  0  0  0
  -29.0801  -24.5188   21.3507 H   0  0  0  0  0  0
  -27.9576  -25.3641   18.6073 H   0  0  0  0  0  0
  -29.6010  -25.4505   19.1029 H   0  0  0  0  0  0
  -30.9480  -16.3366   23.2562 H   0  0  0  0  0  0
  -29.5348  -14.8336   22.1467 H   0  0  0  0  0  0
  1 25  1  0  0  0
  1 30  2  0  0  0
  1 85  1  0  0  0
  2  3  1  0  0  0
  2 25  1  0  0  0
  2 86  1  0  0  0
  2 87  1  0  0  0
  3  4  1  0  0  0
  3 88  1  0  0  0
  3 89  1  0  0  0
  4  5  1  0  0  0
  4 90  1  0  0  0
  4 91  1  0  0  0
  5  6  1  0  0  0
  5 26  1  0  0  0
  5 92  1  0  0  0
  6 25  1  0  0  0
  6 93  1  0  0  0
  6 94  1  0  0  0
  7  8  2  0  0  0
  7 26  1  0  0  0
  7 29  1  0  0  0
  8  9  1  0  0  0
  8 22  1  0  0  0
  9 10  1  0  0  0
  9 27  2  0  0  0
 10 11  2  0  0  0
 10 15  1  0  0  0
 11 12  1  0  0  0
 11 95  1  0  0  0
 12 13  2  0  0  0
 12 96  1  0  0  0
 13 14  1  0  0  0
 13 31  1  0  0  0
 14 15  2  0  0  0
 14 97  1  0  0  0
 15 98  1  0  0  0
 16 17  2  0  0  0
 16 21  1  0  0  0
 16 31  1  0  0  0
 17 18  1  0  0  0
 17 99  1  0  0  0
 18 19  2  0  0  0
 18100  1  0  0  0
 19 20  1  0  0  0
 19 24  1  0  0  0
 20 21  2  0  0  0
 20101  1  0  0  0
 21 23  1  0  0  0
 22 28  1  0  0  0
 22 32  2  0  0  0
 26 27  1  0  0  0
 28102  1  0  0  0
 28103  1  0  0  0
 29104  1  0  0  0
 29105  1  0  0  0
 33 34  1  0  0  0
 33 66  1  0  0  0
 33 70  2  0  0  0
 34 36  1  0  0  0
 34 59  1  0  0  0
 34106  1  0  0  0
 35 44  2  0  0  0
 35 45  1  0  0  0
 35 68  1  0  0  0
 36 56  1  0  0  0
 36107  1  0  0  0
 37 39  1  0  0  0
 37 47  1  0  0  0
 37 66  1  0  0  0
 37108  1  0  0  0
 38 43  2  0  0  0
 38 46  1  0  0  0
 38 47  1  0  0  0
 39 64  1  0  0  0
 39 67  2  0  0  0
 40 52  1  0  0  0
 40 53  2  0  0  0
 40 58  1  0  0  0
 41109  1  0  0  0
 41110  1  0  0  0
 41111  1  0  0  0
 41 48  1  0  0  0
 42 43  1  0  0  0
 42 66  1  0  0  0
 42112  1  0  0  0
 42113  1  0  0  0
 43 44  1  0  0  0
 44114  1  0  0  0
 45 46  2  0  0  0
 45115  1  0  0  0
 46116  1  0  0  0
 47117  1  0  0  0
 47118  1  0  0  0
 48 56  1  0  0  0
 48 65  1  0  0  0
 48119  1  0  0  0
 49 50  1  0  0  0
 49 53  1  0  0  0
 49 64  1  0  0  0
 49120  1  0  0  0
 50 51  1  0  0  0
 50121  1  0  0  0
 50122  1  0  0  0
 51 52  1  0  0  0
 51123  1  0  0  0
 51124  1  0  0  0
 52125  1  0  0  0
 52126  1  0  0  0
 53 54  1  0  0  0
 54 55  2  0  0  0
 54127  1  0  0  0
 55 57  1  0  0  0
 55128  1  0  0  0
 56 69  2  0  0  0
 57 58  2  0  0  0
 57129  1  0  0  0
 58130  1  0  0  0
 59 60  1  0  0  0
 59 61  1  0  0  0
 59 62  1  0  0  0
 60131  1  0  0  0
 60132  1  0  0  0
 60133  1  0  0  0
 61134  1  0  0  0
 61135  1  0  0  0
 61136  1  0  0  0
 62137  1  0  0  0
 62138  1  0  0  0
 62139  1  0  0  0
 63 65  1  0  0  0
 63140  1  0  0  0
 63141  1  0  0  0
 63142  1  0  0  0
 64143  1  0  0  0
 65144  1  0  0  0
 68 80  1  0  0  0
 71 74  1  0  0  0
 71 82  2  0  0  0
 71 83  1  0  0  0
 72 76  1  0  0  0
 72 82  1  0  0  0
 72 84  2  0  0  0
 73 81  1  0  0  0
 73 83  2  0  0  0
 73 84  1  0  0  0
 74145  1  0  0  0
 74146  1  0  0  0
 74147  1  0  0  0
 75148  1  0  0  0
 75149  1  0  0  0
 75150  1  0  0  0
 75 81  1  0  0  0
 76 77  1  0  0  0
 76151  1  0  0  0
 76152  1  0  0  0
 77 78  1  0  0  0
 77153  1  0  0  0
 77154  1  0  0  0
 78 79  1  0  0  0
 78155  1  0  0  0
 78156  1  0  0  0
 79 80  1  0  0  0
 79157  1  0  0  0
 79158  1  0  0  0
 80159  1  0  0  0
 80160  1  0  0  0
 81 85  1  0  0  0
 81161  1  0  0  0
 85162  1  0  0  0
M  ISO  4   1 100  68 101  80 101  85 100
M  END
> <chiral flag>
0

> <version>
0

> <s_m_source_file>
/data/baiqing/PycharmProjects/Reinvent-master-3.2/result/LINK_invent/BTK/process_docking_weight1_custom_sum_contain_oxygen_bond_distance_aromatic_linkinvent_7_9_3/rearranged_h_0068.sdf

> <i_m_source_file_index>
66

> <r_mmod_Potential_Energy-OPLS-2005>
-908.407287597656

> <r_mmod_Stretch_Energy-OPLS-2005>
32.4837188720703

> <r_mmod_Bend_Energy-OPLS-2005>
114.345916748047

> <r_mmod_Torsional_Energy-OPLS-2005>
174.973358154297

> <r_mmod_Improper_Torsional_Energy-OPLS-2005>
3.20411586761475

> <r_mmod_Van_der_Waal_Energy-OPLS-2005>
178.370758056641

> <r_mmod_Electrostatic_Energy-OPLS-2005>
-1205.76049804688

> <r_mmod_Solvation_Energy-OPLS-2005>
-214.960784912109

> <b_mmod_Minimization_Converged-OPLS-2005>
0

> <r_mmod_RMS_Derivative-OPLS-2005>
3.55779814720154

$$$$
72
                    3D
 Structure written by MMmdl.
170178  0  0  1  0            999 V2000
  -30.7653  -14.3892   20.6465 C   0  0  0  0  0  0
  -30.4190  -12.2766   19.4221 C   0  0  0  0  0  0
  -29.5052  -12.5129   18.2034 C   0  0  0  0  0  0
  -28.0247  -12.3664   18.6039 C   0  0  0  0  0  0
  -27.6666  -13.2022   19.8636 C   0  0  2  0  0  0
  -28.6991  -12.9744   20.9936 C   0  0  0  0  0  0
  -25.2641  -13.8161   20.5658 C   0  0  0  0  0  0
  -24.1886  -13.0439   20.9146 C   0  0  0  0  0  0
  -24.6405  -11.6896   20.8655 C   0  0  0  0  0  0
  -23.9066  -10.4276   21.0349 C   0  0  0  0  0  0
  -24.3614   -9.4204   21.9156 C   0  0  0  0  0  0
  -23.6295   -8.2241   22.0742 C   0  0  0  0  0  0
  -22.4278   -8.0271   21.3541 C   0  0  0  0  0  0
  -21.9890   -9.0252   20.4665 C   0  0  0  0  0  0
  -22.7212  -10.2125   20.3038 C   0  0  0  0  0  0
  -21.6859   -6.0738   22.5292 C   0  0  0  0  0  0
  -21.4044   -6.5645   23.8226 C   0  0  0  0  0  0
  -21.3677   -5.6793   24.9184 C   0  0  0  0  0  0
  -21.6035   -4.3057   24.7216 C   0  0  0  0  0  0
  -21.8818   -3.8148   23.4340 C   0  0  0  0  0  0
  -21.9195   -4.6970   22.3394 C   0  0  0  0  0  0
  -22.7900  -13.5256   21.1777 C   0  0  0  0  0  0
  -22.1655   -4.2155   21.0967 F   0  0  0  0  0  0
  -21.5610   -3.4540   25.7725 F   0  0  0  0  0  0
  -30.0502  -13.2454   20.4665 N   0  0  0  0  0  0
  -26.3047  -12.9312   20.3254 N   0  0  0  0  0  0
  -25.9330  -11.6474   20.5641 N   0  0  0  0  0  0
  -22.0523  -12.8314   22.0363 N   0  0  0  0  0  0
  -25.4317  -15.1880   20.4114 N   0  0  0  0  0  0
  -31.8187  -14.6288   20.0430 O   0  0  0  0  0  0
  -21.6641   -6.8870   21.4247 O   0  0  0  0  0  0
  -22.3588  -14.5518   20.6552 O   0  0  0  0  0  0
  -24.6074  -31.8736   23.2168 C   0  0  0  0  0  0
  -25.9009  -32.4836   23.8410 C   0  0  1  0  0  0
  -27.2227  -27.4778   20.0960 C   0  0  0  0  0  0
  -25.5934  -33.8634   24.2349 N   0  0  0  0  0  0
  -23.3928  -30.5037   21.5520 C   0  0  2  0  0  0
  -24.8354  -28.9772   20.1139 C   0  0  0  0  0  0
  -22.7365  -29.4712   22.4965 C   0  0  0  0  0  0
  -18.0289  -28.1371   22.8501 C   0  0  0  0  0  0
  -24.1496  -36.7304   23.2637 C   0  0  0  0  0  0
  -25.9152  -30.8544   21.3651 C   0  0  0  0  0  0
  -25.9917  -29.4930   20.7109 C   0  0  0  0  0  0
  -27.1864  -28.7495   20.7007 C   0  0  0  0  0  0
  -26.0493  -26.9676   19.4934 C   0  0  0  0  0  0
  -24.8561  -27.7114   19.5059 C   0  0  0  0  0  0
  -23.5998  -29.8436   20.1631 C   0  0  0  0  0  0
  -25.4117  -36.3115   24.0340 C   0  0  1  0  0  0
  -20.5866  -28.3674   23.1328 C   0  0  2  0  0  0
  -20.6768  -26.9418   22.5411 C   0  0  0  0  0  0
  -19.5738  -26.6400   21.5212 C   0  0  0  0  0  0
  -18.1939  -26.7920   22.1650 C   0  0  0  0  0  0
  -19.1531  -28.8837   23.2911 C   0  0  0  0  0  0
  -18.9455  -30.1441   23.8919 C   0  0  0  0  0  0
  -17.6459  -30.6591   24.0565 C   0  0  0  0  0  0
  -25.9058  -34.9476   23.5132 C   0  0  0  0  0  0
  -16.5352  -29.9108   23.6293 C   0  0  0  0  0  0
  -16.7273  -28.6512   23.0333 C   0  0  0  0  0  0
  -26.4481  -31.6602   25.0701 C   0  0  0  0  0  0
  -25.3781  -31.3717   26.1476 C   0  0  0  0  0  0
  -27.0240  -30.3015   24.6039 C   0  0  0  0  0  0
  -27.6116  -32.4286   25.7415 C   0  0  0  0  0  0
  -27.5603  -37.1790   24.8466 C   0  0  0  0  0  0
  -21.4100  -29.3042   22.3704 N   0  0  0  0  0  0
  -26.4303  -37.3806   23.9438 N   0  0  0  0  0  0
  -24.6562  -31.0907   22.1040 N   0  0  0  0  0  0
  -23.4153  -28.8280   23.3013 O   0  0  0  0  0  0
  -28.4072  -26.7826   20.1230 O   0  0  0  0  0  0
  -26.5573  -34.8944   22.4659 O   0  0  0  0  0  0
  -23.5289  -32.1465   23.7594 O   0  0  0  0  0  0
  -31.6379  -21.8463   23.1831 C   0  0  0  0  0  0
  -29.0482  -22.5719   23.5240 C   0  0  0  0  0  0
  -30.0037  -23.4963   22.9733 C   0  0  0  0  0  0
  -30.6774  -20.9434   23.6799 C   0  0  0  0  0  0
  -27.5512  -22.8084   23.6438 C   0  0  0  0  0  0
  -29.7073  -23.2882   20.1470 C   0  0  0  0  0  0
  -30.8566  -25.8664   22.5749 C   0  0  0  0  0  0
  -28.4941  -25.6098   22.9586 C   0  0  0  0  0  0
  -30.7466  -17.4110   22.7719 C   0  0  0  0  0  0
  -30.5099  -16.7392   21.4065 C   0  0  0  0  0  0
  -30.9576  -18.9241   22.5920 C   0  0  0  0  0  0
  -28.3155  -25.3641   20.0655 C   0  0  0  0  0  0
  -29.5583  -24.7221   20.7141 C   0  0  1  0  0  0
  -29.6936  -24.8704   22.2964 C   0  0  0  0  0  0
  -31.3057  -23.1117   22.8483 N   0  0  0  0  0  0
  -29.3986  -21.3151   23.8924 N   0  0  0  0  0  0
  -30.2216  -15.2998   21.4675 N   0  0  0  0  0  0
  -30.9381  -19.6085   23.8416 O   0  0  0  0  0  0
  -31.4707  -12.3482   19.1363 H   0  0  0  0  0  0
  -30.2866  -11.2612   19.7986 H   0  0  0  0  0  0
  -29.7555  -11.8126   17.4041 H   0  0  0  0  0  0
  -29.6885  -13.5119   17.8032 H   0  0  0  0  0  0
  -27.8422  -11.3074   18.7973 H   0  0  0  0  0  0
  -27.3834  -12.6357   17.7626 H   0  0  0  0  0  0
  -27.7122  -14.2508   19.5658 H   0  0  0  0  0  0
  -28.6546  -11.9402   21.3402 H   0  0  0  0  0  0
  -28.4442  -13.5843   21.8592 H   0  0  0  0  0  0
  -25.2785   -9.5713   22.4692 H   0  0  0  0  0  0
  -24.0034   -7.4658   22.7474 H   0  0  0  0  0  0
  -21.0823   -8.8794   19.8973 H   0  0  0  0  0  0
  -22.3700  -10.9667   19.6135 H   0  0  0  0  0  0
  -21.2070   -7.6166   23.9746 H   0  0  0  0  0  0
  -21.1492   -6.0515   25.9097 H   0  0  0  0  0  0
  -22.0571   -2.7610   23.2831 H   0  0  0  0  0  0
  -22.4124  -12.0084   22.4952 H   0  0  0  0  0  0
  -21.1120  -13.1344   22.2426 H   0  0  0  0  0  0
  -24.6656  -15.8417   20.5344 H   0  0  0  0  0  0
  -26.2883  -15.6381   20.1157 H   0  0  0  0  0  0
  -26.7065  -32.5612   23.1175 H   0  0  0  0  0  0
  -25.0159  -33.9806   25.0545 H   0  0  0  0  0  0
  -22.6766  -31.3173   21.4178 H   0  0  0  0  0  0
  -23.3770  -35.9641   23.3317 H   0  0  0  0  0  0
  -24.3575  -36.8877   22.2055 H   0  0  0  0  0  0
  -23.7234  -37.6511   23.6611 H   0  0  0  0  0  0
  -26.0266  -31.6245   20.6013 H   0  0  0  0  0  0
  -26.8026  -30.9009   21.9831 H   0  0  0  0  0  0
  -28.0773  -29.1402   21.1707 H   0  0  0  0  0  0
  -26.0394  -26.0062   19.0033 H   0  0  0  0  0  0
  -23.9688  -27.3044   19.0438 H   0  0  0  0  0  0
  -23.7110  -30.6208   19.4055 H   0  0  0  0  0  0
  -22.7234  -29.2669   19.8634 H   0  0  0  0  0  0
  -25.1286  -36.1984   25.0829 H   0  0  0  0  0  0
  -20.9986  -28.3256   24.1442 H   0  0  0  0  0  0
  -20.5707  -26.2289   23.3595 H   0  0  0  0  0  0
  -21.6648  -26.7480   22.1196 H   0  0  0  0  0  0
  -19.6913  -25.6330   21.1225 H   0  0  0  0  0  0
  -19.6675  -27.3221   20.6744 H   0  0  0  0  0  0
  -17.4198  -26.6657   21.4068 H   0  0  0  0  0  0
  -18.0367  -26.0048   22.9032 H   0  0  0  0  0  0
  -19.7914  -30.7237   24.2332 H   0  0  0  0  0  0
  -17.5007  -31.6286   24.5135 H   0  0  0  0  0  0
  -15.5355  -30.3033   23.7552 H   0  0  0  0  0  0
  -15.8669  -28.0840   22.7032 H   0  0  0  0  0  0
  -24.6070  -30.6882   25.7885 H   0  0  0  0  0  0
  -24.8844  -32.2869   26.4764 H   0  0  0  0  0  0
  -25.8215  -30.9093   27.0304 H   0  0  0  0  0  0
  -26.2704  -29.6815   24.1154 H   0  0  0  0  0  0
  -27.4034  -29.7211   25.4465 H   0  0  0  0  0  0
  -27.8575  -30.4265   23.9112 H   0  0  0  0  0  0
  -27.2783  -33.3600   26.2000 H   0  0  0  0  0  0
  -28.3916  -32.6797   25.0212 H   0  0  0  0  0  0
  -28.0786  -31.8385   26.5309 H   0  0  0  0  0  0
  -28.2635  -38.0071   24.7503 H   0  0  0  0  0  0
  -28.1067  -36.2601   24.6278 H   0  0  0  0  0  0
  -27.2320  -37.1441   25.8866 H   0  0  0  0  0  0
  -20.9230  -29.8733   21.6921 H   0  0  0  0  0  0
  -26.0191  -38.2885   24.1460 H   0  0  0  0  0  0
  -32.6524  -21.5336   22.9782 H   0  0  0  0  0  0
  -27.1277  -23.0813   22.6782 H   0  0  0  0  0  0
  -27.3306  -23.5846   24.3773 H   0  0  0  0  0  0
  -27.0264  -21.9032   23.9567 H   0  0  0  0  0  0
  -29.5223  -23.2586   19.0711 H   0  0  0  0  0  0
  -29.0093  -22.5885   20.6058 H   0  0  0  0  0  0
  -30.7173  -22.9048   20.2858 H   0  0  0  0  0  0
  -30.9984  -26.0329   23.6424 H   0  0  0  0  0  0
  -30.6568  -26.8398   22.1234 H   0  0  0  0  0  0
  -31.8159  -25.5392   22.1718 H   0  0  0  0  0  0
  -28.4157  -26.6410   22.6172 H   0  0  0  0  0  0
  -28.6072  -25.6660   24.0411 H   0  0  0  0  0  0
  -27.5222  -25.1757   22.7500 H   0  0  0  0  0  0
  -31.6183  -16.9801   23.2673 H   0  0  0  0  0  0
  -29.8895  -17.2409   23.4236 H   0  0  0  0  0  0
  -31.3599  -16.9549   20.7589 H   0  0  0  0  0  0
  -29.6480  -17.2067   20.9300 H   0  0  0  0  0  0
  -30.1736  -19.3172   21.9417 H   0  0  0  0  0  0
  -31.9009  -19.1224   22.0790 H   0  0  0  0  0  0
  -27.4108  -24.9652   20.5257 H   0  0  0  0  0  0
  -28.2601  -25.1082   19.0061 H   0  0  0  0  0  0
  -30.3995  -25.2562   20.2699 H   0  0  0  0  0  0
  -29.3868  -15.0122   21.9589 H   0  0  0  0  0  0
  1 25  1  0  0  0
  1 30  2  0  0  0
  1 87  1  0  0  0
  2  3  1  0  0  0
  2 25  1  0  0  0
  2 89  1  0  0  0
  2 90  1  0  0  0
  3  4  1  0  0  0
  3 91  1  0  0  0
  3 92  1  0  0  0
  4  5  1  0  0  0
  4 93  1  0  0  0
  4 94  1  0  0  0
  5  6  1  0  0  0
  5 26  1  0  0  0
  5 95  1  0  0  0
  6 25  1  0  0  0
  6 96  1  0  0  0
  6 97  1  0  0  0
  7  8  2  0  0  0
  7 26  1  0  0  0
  7 29  1  0  0  0
  8  9  1  0  0  0
  8 22  1  0  0  0
  9 10  1  0  0  0
  9 27  2  0  0  0
 10 11  2  0  0  0
 10 15  1  0  0  0
 11 12  1  0  0  0
 11 98  1  0  0  0
 12 13  2  0  0  0
 12 99  1  0  0  0
 13 14  1  0  0  0
 13 31  1  0  0  0
 14 15  2  0  0  0
 14100  1  0  0  0
 15101  1  0  0  0
 16 17  2  0  0  0
 16 21  1  0  0  0
 16 31  1  0  0  0
 17 18  1  0  0  0
 17102  1  0  0  0
 18 19  2  0  0  0
 18103  1  0  0  0
 19 20  1  0  0  0
 19 24  1  0  0  0
 20 21  2  0  0  0
 20104  1  0  0  0
 21 23  1  0  0  0
 22 28  1  0  0  0
 22 32  2  0  0  0
 26 27  1  0  0  0
 28105  1  0  0  0
 28106  1  0  0  0
 29107  1  0  0  0
 29108  1  0  0  0
 33 34  1  0  0  0
 33 66  1  0  0  0
 33 70  2  0  0  0
 34 36  1  0  0  0
 34 59  1  0  0  0
 34109  1  0  0  0
 35 44  2  0  0  0
 35 45  1  0  0  0
 35 68  1  0  0  0
 36 56  1  0  0  0
 36110  1  0  0  0
 37 39  1  0  0  0
 37 47  1  0  0  0
 37 66  1  0  0  0
 37111  1  0  0  0
 38 43  2  0  0  0
 38 46  1  0  0  0
 38 47  1  0  0  0
 39 64  1  0  0  0
 39 67  2  0  0  0
 40 52  1  0  0  0
 40 53  2  0  0  0
 40 58  1  0  0  0
 41112  1  0  0  0
 41113  1  0  0  0
 41114  1  0  0  0
 41 48  1  0  0  0
 42 43  1  0  0  0
 42 66  1  0  0  0
 42115  1  0  0  0
 42116  1  0  0  0
 43 44  1  0  0  0
 44117  1  0  0  0
 45 46  2  0  0  0
 45118  1  0  0  0
 46119  1  0  0  0
 47120  1  0  0  0
 47121  1  0  0  0
 48 56  1  0  0  0
 48 65  1  0  0  0
 48122  1  0  0  0
 49 50  1  0  0  0
 49 53  1  0  0  0
 49 64  1  0  0  0
 49123  1  0  0  0
 50 51  1  0  0  0
 50124  1  0  0  0
 50125  1  0  0  0
 51 52  1  0  0  0
 51126  1  0  0  0
 51127  1  0  0  0
 52128  1  0  0  0
 52129  1  0  0  0
 53 54  1  0  0  0
 54 55  2  0  0  0
 54130  1  0  0  0
 55 57  1  0  0  0
 55131  1  0  0  0
 56 69  2  0  0  0
 57 58  2  0  0  0
 57132  1  0  0  0
 58133  1  0  0  0
 59 60  1  0  0  0
 59 61  1  0  0  0
 59 62  1  0  0  0
 60134  1  0  0  0
 60135  1  0  0  0
 60136  1  0  0  0
 61137  1  0  0  0
 61138  1  0  0  0
 61139  1  0  0  0
 62140  1  0  0  0
 62141  1  0  0  0
 62142  1  0  0  0
 63 65  1  0  0  0
 63143  1  0  0  0
 63144  1  0  0  0
 63145  1  0  0  0
 64146  1  0  0  0
 65147  1  0  0  0
 68 82  1  0  0  0
 71 74  2  0  0  0
 71 85  1  0  0  0
 71148  1  0  0  0
 72 73  1  0  0  0
 72 75  1  0  0  0
 72 86  2  0  0  0
 73 84  1  0  0  0
 73 85  2  0  0  0
 74 86  1  0  0  0
 74 88  1  0  0  0
 75149  1  0  0  0
 75150  1  0  0  0
 75151  1  0  0  0
 76152  1  0  0  0
 76153  1  0  0  0
 76154  1  0  0  0
 76 83  1  0  0  0
 77155  1  0  0  0
 77156  1  0  0  0
 77157  1  0  0  0
 77 84  1  0  0  0
 78 84  1  0  0  0
 78158  1  0  0  0
 78159  1  0  0  0
 78160  1  0  0  0
 79 80  1  0  0  0
 79 81  1  0  0  0
 79161  1  0  0  0
 79162  1  0  0  0
 80 87  1  0  0  0
 80163  1  0  0  0
 80164  1  0  0  0
 81 88  1  0  0  0
 81165  1  0  0  0
 81166  1  0  0  0
 82 83  1  0  0  0
 82167  1  0  0  0
 82168  1  0  0  0
 83 84  1  0  0  0
 83169  1  0  0  0
 87170  1  0  0  0
M  ISO  4   1 100  68 101  82 101  87 100
M  END
> <chiral flag>
0

> <version>
0

> <s_m_source_file>
/data/baiqing/PycharmProjects/Reinvent-master-3.2/result/LINK_invent/BTK/process_docking_weight1_custom_sum_contain_oxygen_bond_distance_aromatic_linkinvent_7_9_3/rearranged_h_0068.sdf

> <i_m_source_file_index>
67

> <r_mmod_Potential_Energy-OPLS-2005>
82.2641525268555

> <r_mmod_Stretch_Energy-OPLS-2005>
46.4627456665039

> <r_mmod_Bend_Energy-OPLS-2005>
124.810844421387

> <r_mmod_Torsional_Energy-OPLS-2005>
241.947479248047

> <r_mmod_Improper_Torsional_Energy-OPLS-2005>
4.4268479347229

> <r_mmod_Van_der_Waal_Energy-OPLS-2005>
188.700531005859

> <r_mmod_Electrostatic_Energy-OPLS-2005>
-319.251068115234

> <r_mmod_Solvation_Energy-OPLS-2005>
-213.780700683594

> <b_mmod_Minimization_Converged-OPLS-2005>
0

> <r_mmod_RMS_Derivative-OPLS-2005>
5.10984325408936

$$$$
73
                    3D
 Structure written by MMmdl.
166174  0  0  1  0            999 V2000
  -30.6403  -14.6092   20.4366 C   0  0  0  0  0  0
  -30.4480  -12.3377   19.4901 C   0  0  0  0  0  0
  -29.5261  -12.4095   18.2466 C   0  0  0  0  0  0
  -28.0361  -12.3161   18.6431 C   0  0  0  0  0  0
  -27.6515  -13.2004   19.8596 C   0  0  2  0  0  0
  -28.7000  -13.0855   20.9924 C   0  0  0  0  0  0
  -25.2558  -13.8119   20.5761 C   0  0  0  0  0  0
  -24.1820  -13.0384   20.9225 C   0  0  0  0  0  0
  -24.6371  -11.6874   20.8763 C   0  0  0  0  0  0
  -23.9037  -10.4267   21.0439 C   0  0  0  0  0  0
  -24.3590   -9.4189   21.9205 C   0  0  0  0  0  0
  -23.6266   -8.2221   22.0782 C   0  0  0  0  0  0
  -22.4251   -8.0276   21.3557 C   0  0  0  0  0  0
  -21.9891   -9.0250   20.4651 C   0  0  0  0  0  0
  -22.7223  -10.2128   20.3076 C   0  0  0  0  0  0
  -21.6840   -6.0730   22.5270 C   0  0  0  0  0  0
  -21.4014   -6.5628   23.8213 C   0  0  0  0  0  0
  -21.3671   -5.6771   24.9163 C   0  0  0  0  0  0
  -21.6057   -4.3035   24.7212 C   0  0  0  0  0  0
  -21.8823   -3.8141   23.4334 C   0  0  0  0  0  0
  -21.9195   -4.6956   22.3399 C   0  0  0  0  0  0
  -22.7856  -13.5219   21.1849 C   0  0  0  0  0  0
  -22.1661   -4.2148   21.0971 F   0  0  0  0  0  0
  -21.5645   -3.4525   25.7729 F   0  0  0  0  0  0
  -30.0289  -13.3842   20.4391 N   0  0  0  0  0  0
  -26.2971  -12.9285   20.3334 N   0  0  0  0  0  0
  -25.9292  -11.6460   20.5781 N   0  0  0  0  0  0
  -22.0513  -12.8239   22.0455 N   0  0  0  0  0  0
  -25.4169  -15.1841   20.4318 N   0  0  0  0  0  0
  -31.8437  -14.7221   20.1958 O   0  0  0  0  0  0
  -21.6625   -6.8868   21.4246 O   0  0  0  0  0  0
  -22.3541  -14.5510   20.6665 O   0  0  0  0  0  0
  -24.6172  -31.8623   23.2046 C   0  0  0  0  0  0
  -25.9052  -32.4800   23.8359 C   0  0  1  0  0  0
  -27.2548  -27.4057   20.1215 C   0  0  0  0  0  0
  -25.5891  -33.8595   24.2295 N   0  0  0  0  0  0
  -23.4124  -30.4809   21.5413 C   0  0  2  0  0  0
  -24.8671  -28.9325   20.1219 C   0  0  0  0  0  0
  -22.7433  -29.4646   22.4950 C   0  0  0  0  0  0
  -18.0277  -28.1393   22.8477 C   0  0  0  0  0  0
  -24.1487  -36.7299   23.2643 C   0  0  0  0  0  0
  -25.9429  -30.8167   21.3661 C   0  0  0  0  0  0
  -26.0252  -29.4464   20.7202 C   0  0  0  0  0  0
  -27.2242  -28.6919   20.7143 C   0  0  0  0  0  0
  -26.0802  -26.9038   19.5256 C   0  0  0  0  0  0
  -24.8903  -27.6604   19.5212 C   0  0  0  0  0  0
  -23.6285  -29.8009   20.1621 C   0  0  0  0  0  0
  -25.4108  -36.3089   24.0330 C   0  0  1  0  0  0
  -20.5870  -28.3696   23.1283 C   0  0  2  0  0  0
  -20.6773  -26.9425   22.5404 C   0  0  0  0  0  0
  -19.5761  -26.6393   21.5200 C   0  0  0  0  0  0
  -18.1935  -26.7939   22.1599 C   0  0  0  0  0  0
  -19.1531  -28.8854   23.2878 C   0  0  0  0  0  0
  -18.9453  -30.1457   23.8900 C   0  0  0  0  0  0
  -17.6458  -30.6592   24.0556 C   0  0  0  0  0  0
  -25.9029  -34.9458   23.5109 C   0  0  0  0  0  0
  -16.5344  -29.9090   23.6329 C   0  0  0  0  0  0
  -16.7267  -28.6505   23.0347 C   0  0  0  0  0  0
  -26.4477  -31.6598   25.0705 C   0  0  0  0  0  0
  -25.3742  -31.3696   26.1457 C   0  0  0  0  0  0
  -27.0341  -30.3042   24.6124 C   0  0  0  0  0  0
  -27.6051  -32.4346   25.7445 C   0  0  0  0  0  0
  -27.5584  -37.1793   24.8463 C   0  0  0  0  0  0
  -21.4153  -29.3041   22.3675 N   0  0  0  0  0  0
  -26.4297  -37.3778   23.9404 N   0  0  0  0  0  0
  -24.6748  -31.0699   22.0953 N   0  0  0  0  0  0
  -23.4172  -28.8201   23.3030 O   0  0  0  0  0  0
  -28.4225  -26.6675   20.0661 O   0  0  0  0  0  0
  -26.5609  -34.8924   22.4682 O   0  0  0  0  0  0
  -23.5351  -32.1393   23.7400 O   0  0  0  0  0  0
  -30.8836  -18.2250   20.6194 C   0  0  0  0  0  0
  -29.5522  -17.5678   22.1913 C   0  0  0  0  0  0
  -30.5879  -19.3148   21.4248 C   0  0  0  0  0  0
  -31.7124  -21.2367   22.5716 C   0  0  0  0  0  0
  -31.9984  -20.9148   20.1099 C   0  0  0  0  0  0
  -29.9987  -23.2931   20.9738 C   0  0  0  0  0  0
  -28.9418  -24.1936   20.2386 C   0  0  0  0  0  0
  -29.7656  -21.7352   20.9614 C   0  0  0  0  0  0
  -29.5891  -16.2354   18.7904 C   0  0  0  0  0  0
  -28.5316  -25.5283   20.9488 C   0  0  0  0  0  0
  -29.7514  -15.9006   20.3010 C   0  0  2  0  0  0
  -30.9966  -20.7943   21.2784 C   0  0  0  0  0  0
  -28.4111  -17.1598   18.4403 C   0  0  0  0  0  0
  -29.7796  -18.8538   22.4697 N   0  0  0  0  0  0
  -30.0957  -17.1423   21.0388 N   0  0  0  0  0  0
  -27.2892  -16.6823   18.9706 F   0  0  0  0  0  0
  -28.5895  -18.4083   18.8628 F   0  0  0  0  0  0
  -28.2698  -17.1890   17.1180 F   0  0  0  0  0  0
  -31.4966  -12.4387   19.1997 H   0  0  0  0  0  0
  -30.3681  -11.3615   19.9734 H   0  0  0  0  0  0
  -29.7680  -11.5905   17.5681 H   0  0  0  0  0  0
  -29.7214  -13.3104   17.6709 H   0  0  0  0  0  0
  -27.8342  -11.2698   18.8820 H   0  0  0  0  0  0
  -27.4042  -12.5601   17.7893 H   0  0  0  0  0  0
  -27.6437  -14.2208   19.4881 H   0  0  0  0  0  0
  -28.7003  -12.0829   21.4244 H   0  0  0  0  0  0
  -28.4553  -13.7565   21.8173 H   0  0  0  0  0  0
  -25.2751   -9.5671   22.4758 H   0  0  0  0  0  0
  -24.0008   -7.4597   22.7467 H   0  0  0  0  0  0
  -21.0864   -8.8759   19.8902 H   0  0  0  0  0  0
  -22.3714  -10.9679   19.6171 H   0  0  0  0  0  0
  -21.2002   -7.6129   23.9719 H   0  0  0  0  0  0
  -21.1505   -6.0500   25.9066 H   0  0  0  0  0  0
  -22.0606   -2.7610   23.2825 H   0  0  0  0  0  0
  -22.4157  -11.9921   22.4864 H   0  0  0  0  0  0
  -21.1160  -13.1348   22.2697 H   0  0  0  0  0  0
  -24.6295  -15.8149   20.5290 H   0  0  0  0  0  0
  -26.2364  -15.6483   20.0572 H   0  0  0  0  0  0
  -26.7128  -32.5500   23.1129 H   0  0  0  0  0  0
  -25.0047  -33.9746   25.0441 H   0  0  0  0  0  0
  -22.7032  -31.2968   21.3893 H   0  0  0  0  0  0
  -23.3750  -35.9635   23.3312 H   0  0  0  0  0  0
  -24.3568  -36.8911   22.2057 H   0  0  0  0  0  0
  -23.7251  -37.6503   23.6661 H   0  0  0  0  0  0
  -26.0648  -31.5749   20.5921 H   0  0  0  0  0  0
  -26.8262  -30.8701   21.9913 H   0  0  0  0  0  0
  -28.1228  -29.0869   21.1673 H   0  0  0  0  0  0
  -26.0907  -25.9277   19.0584 H   0  0  0  0  0  0
  -24.0013  -27.2535   19.0601 H   0  0  0  0  0  0
  -23.7429  -30.5665   19.3932 H   0  0  0  0  0  0
  -22.7540  -29.2156   19.8708 H   0  0  0  0  0  0
  -25.1297  -36.1945   25.0826 H   0  0  0  0  0  0
  -20.9965  -28.3283   24.1402 H   0  0  0  0  0  0
  -20.5680  -26.2306   23.3600 H   0  0  0  0  0  0
  -21.6645  -26.7466   22.1198 H   0  0  0  0  0  0
  -19.6926  -25.6303   21.1237 H   0  0  0  0  0  0
  -19.6712  -27.3194   20.6727 H   0  0  0  0  0  0
  -17.4208  -26.6690   21.3995 H   0  0  0  0  0  0
  -18.0327  -26.0076   22.8993 H   0  0  0  0  0  0
  -19.7932  -30.7268   24.2285 H   0  0  0  0  0  0
  -17.5013  -31.6280   24.5161 H   0  0  0  0  0  0
  -15.5351  -30.2991   23.7667 H   0  0  0  0  0  0
  -15.8663  -28.0833   22.7070 H   0  0  0  0  0  0
  -24.5904  -30.7078   25.7766 H   0  0  0  0  0  0
  -24.8960  -32.2847   26.4952 H   0  0  0  0  0  0
  -25.8094  -30.8809   27.0184 H   0  0  0  0  0  0
  -26.2896  -29.6748   24.1250 H   0  0  0  0  0  0
  -27.4177  -29.7348   25.4595 H   0  0  0  0  0  0
  -27.8688  -30.4354   23.9245 H   0  0  0  0  0  0
  -27.2675  -33.3627   26.2071 H   0  0  0  0  0  0
  -28.3812  -32.6956   25.0237 H   0  0  0  0  0  0
  -28.0796  -31.8466   26.5313 H   0  0  0  0  0  0
  -28.2609  -38.0087   24.7519 H   0  0  0  0  0  0
  -28.1081  -36.2619   24.6285 H   0  0  0  0  0  0
  -27.2299  -37.1437   25.8868 H   0  0  0  0  0  0
  -20.9346  -29.8719   21.6838 H   0  0  0  0  0  0
  -26.0183  -38.2855   24.1409 H   0  0  0  0  0  0
  -31.4784  -18.1800   19.7187 H   0  0  0  0  0  0
  -28.8810  -16.9632   22.7845 H   0  0  0  0  0  0
  -32.5580  -20.5827   22.7915 H   0  0  0  0  0  0
  -31.0405  -21.2011   23.4310 H   0  0  0  0  0  0
  -32.1047  -22.2519   22.4981 H   0  0  0  0  0  0
  -32.8518  -20.2507   20.2425 H   0  0  0  0  0  0
  -32.3998  -21.9210   20.0048 H   0  0  0  0  0  0
  -31.5269  -20.6531   19.1617 H   0  0  0  0  0  0
  -30.0856  -23.6122   22.0131 H   0  0  0  0  0  0
  -30.9677  -23.5242   20.5338 H   0  0  0  0  0  0
  -28.0399  -23.6165   20.0398 H   0  0  0  0  0  0
  -29.3432  -24.4369   19.2517 H   0  0  0  0  0  0
  -29.3504  -21.4436   19.9968 H   0  0  0  0  0  0
  -28.9742  -21.5236   21.6814 H   0  0  0  0  0  0
  -29.4342  -15.3215   18.2276 H   0  0  0  0  0  0
  -30.5123  -16.6547   18.3832 H   0  0  0  0  0  0
  -29.2887  -25.7939   21.6865 H   0  0  0  0  0  0
  -27.6119  -25.3693   21.5186 H   0  0  0  0  0  0
  -28.7653  -15.6469   20.6700 H   0  0  0  0  0  0
  1 25  1  0  0  0
  1 30  2  0  0  0
  1 81  1  0  0  0
  2  3  1  0  0  0
  2 25  1  0  0  0
  2 89  1  0  0  0
  2 90  1  0  0  0
  3  4  1  0  0  0
  3 91  1  0  0  0
  3 92  1  0  0  0
  4  5  1  0  0  0
  4 93  1  0  0  0
  4 94  1  0  0  0
  5  6  1  0  0  0
  5 26  1  0  0  0
  5 95  1  0  0  0
  6 25  1  0  0  0
  6 96  1  0  0  0
  6 97  1  0  0  0
  7  8  2  0  0  0
  7 26  1  0  0  0
  7 29  1  0  0  0
  8  9  1  0  0  0
  8 22  1  0  0  0
  9 10  1  0  0  0
  9 27  2  0  0  0
 10 11  2  0  0  0
 10 15  1  0  0  0
 11 12  1  0  0  0
 11 98  1  0  0  0
 12 13  2  0  0  0
 12 99  1  0  0  0
 13 14  1  0  0  0
 13 31  1  0  0  0
 14 15  2  0  0  0
 14100  1  0  0  0
 15101  1  0  0  0
 16 17  2  0  0  0
 16 21  1  0  0  0
 16 31  1  0  0  0
 17 18  1  0  0  0
 17102  1  0  0  0
 18 19  2  0  0  0
 18103  1  0  0  0
 19 20  1  0  0  0
 19 24  1  0  0  0
 20 21  2  0  0  0
 20104  1  0  0  0
 21 23  1  0  0  0
 22 28  1  0  0  0
 22 32  2  0  0  0
 26 27  1  0  0  0
 28105  1  0  0  0
 28106  1  0  0  0
 29107  1  0  0  0
 29108  1  0  0  0
 33 34  1  0  0  0
 33 66  1  0  0  0
 33 70  2  0  0  0
 34 36  1  0  0  0
 34 59  1  0  0  0
 34109  1  0  0  0
 35 44  2  0  0  0
 35 45  1  0  0  0
 35 68  1  0  0  0
 36 56  1  0  0  0
 36110  1  0  0  0
 37 39  1  0  0  0
 37 47  1  0  0  0
 37 66  1  0  0  0
 37111  1  0  0  0
 38 43  2  0  0  0
 38 46  1  0  0  0
 38 47  1  0  0  0
 39 64  1  0  0  0
 39 67  2  0  0  0
 40 52  1  0  0  0
 40 53  2  0  0  0
 40 58  1  0  0  0
 41112  1  0  0  0
 41113  1  0  0  0
 41114  1  0  0  0
 41 48  1  0  0  0
 42 43  1  0  0  0
 42 66  1  0  0  0
 42115  1  0  0  0
 42116  1  0  0  0
 43 44  1  0  0  0
 44117  1  0  0  0
 45 46  2  0  0  0
 45118  1  0  0  0
 46119  1  0  0  0
 47120  1  0  0  0
 47121  1  0  0  0
 48 56  1  0  0  0
 48 65  1  0  0  0
 48122  1  0  0  0
 49 50  1  0  0  0
 49 53  1  0  0  0
 49 64  1  0  0  0
 49123  1  0  0  0
 50 51  1  0  0  0
 50124  1  0  0  0
 50125  1  0  0  0
 51 52  1  0  0  0
 51126  1  0  0  0
 51127  1  0  0  0
 52128  1  0  0  0
 52129  1  0  0  0
 53 54  1  0  0  0
 54 55  2  0  0  0
 54130  1  0  0  0
 55 57  1  0  0  0
 55131  1  0  0  0
 56 69  2  0  0  0
 57 58  2  0  0  0
 57132  1  0  0  0
 58133  1  0  0  0
 59 60  1  0  0  0
 59 61  1  0  0  0
 59 62  1  0  0  0
 60134  1  0  0  0
 60135  1  0  0  0
 60136  1  0  0  0
 61137  1  0  0  0
 61138  1  0  0  0
 61139  1  0  0  0
 62140  1  0  0  0
 62141  1  0  0  0
 62142  1  0  0  0
 63 65  1  0  0  0
 63143  1  0  0  0
 63144  1  0  0  0
 63145  1  0  0  0
 64146  1  0  0  0
 65147  1  0  0  0
 68 80  1  0  0  0
 71 73  2  0  0  0
 71 85  1  0  0  0
 71148  1  0  0  0
 72 84  2  0  0  0
 72 85  1  0  0  0
 72149  1  0  0  0
 73 82  1  0  0  0
 73 84  1  0  0  0
 74150  1  0  0  0
 74151  1  0  0  0
 74152  1  0  0  0
 74 82  1  0  0  0
 75 82  1  0  0  0
 75153  1  0  0  0
 75154  1  0  0  0
 75155  1  0  0  0
 76 77  1  0  0  0
 76 78  1  0  0  0
 76156  1  0  0  0
 76157  1  0  0  0
 77 80  1  0  0  0
 77158  1  0  0  0
 77159  1  0  0  0
 78 82  1  0  0  0
 78160  1  0  0  0
 78161  1  0  0  0
 79 83  1  0  0  0
 79162  1  0  0  0
 79163  1  0  0  0
 79 81  1  0  0  0
 80164  1  0  0  0
 80165  1  0  0  0
 81 85  1  0  0  0
 81166  1  0  0  0
 83 86  1  0  0  0
 83 87  1  0  0  0
 83 88  1  0  0  0
M  ISO  4   1 100  68 101  80 101  81 100
M  END
> <chiral flag>
0

> <version>
0

> <s_m_source_file>
/data/baiqing/PycharmProjects/Reinvent-master-3.2/result/LINK_invent/BTK/process_docking_weight1_custom_sum_contain_oxygen_bond_distance_aromatic_linkinvent_7_9_3/rearranged_h_0068.sdf

> <i_m_source_file_index>
68

> <r_mmod_Potential_Energy-OPLS-2005>
7.08461809158325

> <r_mmod_Stretch_Energy-OPLS-2005>
54.3621864318848

> <r_mmod_Bend_Energy-OPLS-2005>
128.74137878418

> <r_mmod_Torsional_Energy-OPLS-2005>
277.076599121094

> <r_mmod_Improper_Torsional_Energy-OPLS-2005>
12.7032346725464

> <r_mmod_Van_der_Waal_Energy-OPLS-2005>
122.601257324219

> <r_mmod_Electrostatic_Energy-OPLS-2005>
-424.705627441406

> <r_mmod_Solvation_Energy-OPLS-2005>
-198.746994018555

> <b_mmod_Minimization_Converged-OPLS-2005>
0

> <r_mmod_RMS_Derivative-OPLS-2005>
3.86934852600098

$$$$
74
                    3D
 Structure written by MMmdl.
176184  0  0  1  0            999 V2000
  -30.8018  -14.5528   20.2704 C   0  0  0  0  0  0
  -30.3843  -12.3049   19.4029 C   0  0  0  0  0  0
  -29.4441  -12.3362   18.1830 C   0  0  0  0  0  0
  -27.9818  -12.2680   18.6355 C   0  0  0  0  0  0
  -27.6381  -13.2271   19.8107 C   0  0  2  0  0  0
  -28.7191  -13.2282   20.9128 C   0  0  0  0  0  0
  -25.2578  -13.8219   20.5730 C   0  0  0  0  0  0
  -24.1849  -13.0477   20.9200 C   0  0  0  0  0  0
  -24.6431  -11.6944   20.8783 C   0  0  0  0  0  0
  -23.9095  -10.4304   21.0429 C   0  0  0  0  0  0
  -24.3642   -9.4194   21.9198 C   0  0  0  0  0  0
  -23.6314   -8.2226   22.0747 C   0  0  0  0  0  0
  -22.4291   -8.0265   21.3546 C   0  0  0  0  0  0
  -21.9941   -9.0246   20.4653 C   0  0  0  0  0  0
  -22.7267  -10.2133   20.3068 C   0  0  0  0  0  0
  -21.6866   -6.0723   22.5277 C   0  0  0  0  0  0
  -21.4023   -6.5624   23.8208 C   0  0  0  0  0  0
  -21.3647   -5.6789   24.9166 C   0  0  0  0  0  0
  -21.6031   -4.3042   24.7225 C   0  0  0  0  0  0
  -21.8820   -3.8133   23.4350 C   0  0  0  0  0  0
  -21.9202   -4.6955   22.3400 C   0  0  0  0  0  0
  -22.7850  -13.5227   21.1834 C   0  0  0  0  0  0
  -22.1669   -4.2124   21.0987 F   0  0  0  0  0  0
  -21.5616   -3.4533   25.7751 F   0  0  0  0  0  0
  -30.0125  -13.4376   20.2585 N   0  0  0  0  0  0
  -26.3023  -12.9449   20.3345 N   0  0  0  0  0  0
  -25.9372  -11.6590   20.5880 N   0  0  0  0  0  0
  -22.0563  -12.8203   22.0405 N   0  0  0  0  0  0
  -25.4263  -15.1943   20.4091 N   0  0  0  0  0  0
  -31.9791  -14.4196   20.5739 O   0  0  0  0  0  0
  -21.6647   -6.8872   21.4247 O   0  0  0  0  0  0
  -22.3484  -14.5494   20.6641 O   0  0  0  0  0  0
  -24.6112  -31.8682   23.2150 C   0  0  0  0  0  0
  -25.9014  -32.4847   23.8403 C   0  0  1  0  0  0
  -27.2090  -27.4094   20.1057 C   0  0  0  0  0  0
  -25.5842  -33.8630   24.2336 N   0  0  0  0  0  0
  -23.4019  -30.4974   21.5559 C   0  0  2  0  0  0
  -24.8409  -28.9588   20.1129 C   0  0  0  0  0  0
  -22.7380  -29.4739   22.5021 C   0  0  0  0  0  0
  -18.0297  -28.1410   22.8482 C   0  0  0  0  0  0
  -24.1488  -36.7296   23.2637 C   0  0  0  0  0  0
  -25.9291  -30.8233   21.3719 C   0  0  0  0  0  0
  -26.0001  -29.4590   20.7161 C   0  0  0  0  0  0
  -27.1889  -28.6917   20.7083 C   0  0  0  0  0  0
  -26.0356  -26.9368   19.4762 C   0  0  0  0  0  0
  -24.8546  -27.7007   19.4844 C   0  0  0  0  0  0
  -23.6093  -29.8347   20.1660 C   0  0  0  0  0  0
  -25.4112  -36.3108   24.0325 C   0  0  1  0  0  0
  -20.5856  -28.3720   23.1312 C   0  0  2  0  0  0
  -20.6843  -26.9495   22.5387 C   0  0  0  0  0  0
  -19.5802  -26.6380   21.5234 C   0  0  0  0  0  0
  -18.1975  -26.7956   22.1644 C   0  0  0  0  0  0
  -19.1523  -28.8888   23.2903 C   0  0  0  0  0  0
  -18.9417  -30.1478   23.8926 C   0  0  0  0  0  0
  -17.6427  -30.6580   24.0588 C   0  0  0  0  0  0
  -25.9016  -34.9476   23.5133 C   0  0  0  0  0  0
  -16.5331  -29.9071   23.6353 C   0  0  0  0  0  0
  -16.7278  -28.6508   23.0346 C   0  0  0  0  0  0
  -26.4460  -31.6605   25.0733 C   0  0  0  0  0  0
  -25.3742  -31.3646   26.1482 C   0  0  0  0  0  0
  -27.0281  -30.3052   24.6079 C   0  0  0  0  0  0
  -27.6042  -32.4306   25.7510 C   0  0  0  0  0  0
  -27.5574  -37.1814   24.8460 C   0  0  0  0  0  0
  -21.4106  -29.3125   22.3736 N   0  0  0  0  0  0
  -26.4303  -37.3763   23.9373 N   0  0  0  0  0  0
  -24.6666  -31.0780   22.1060 N   0  0  0  0  0  0
  -23.4127  -28.8296   23.3093 O   0  0  0  0  0  0
  -28.3755  -26.6729   20.1555 O   0  0  0  0  0  0
  -26.5602  -34.8921   22.4721 O   0  0  0  0  0  0
  -23.5324  -32.1403   23.7603 O   0  0  0  0  0  0
  -28.5923  -16.9766   20.5052 C   0  0  0  0  0  0
  -27.7267  -18.1664   18.8433 C   0  0  0  0  0  0
  -27.7169  -18.0622   20.1916 C   0  0  0  0  0  0
  -29.2983  -16.6197   19.3762 C   0  0  0  0  0  0
  -26.5518  -18.4344   22.4069 C   0  0  0  0  0  0
  -28.4339  -17.0508   15.9357 C   0  0  0  0  0  0
  -31.0181  -15.3043   17.8857 C   0  0  0  0  0  0
  -31.6692  -16.8772   19.6557 C   0  0  0  0  0  0
  -28.1825  -22.8572   20.7204 C   0  0  0  0  0  0
  -27.1848  -21.7058   21.0363 C   0  0  0  0  0  0
  -27.5948  -24.2958   20.7041 C   0  0  0  0  0  0
  -27.8836  -20.3315   21.2427 C   0  0  0  0  0  0
  -28.3898  -25.2769   19.7904 C   0  0  0  0  0  0
  -26.9940  -19.0562   21.0777 C   0  0  1  0  0  0
  -29.2984  -17.7573   16.9890 C   0  0  1  0  0  0
  -30.5976  -15.8015   19.2996 C   0  0  0  0  0  0
  -29.4504  -19.2782   16.6866 C   0  0  0  0  0  0
  -28.8113  -17.4739   18.3521 N   0  0  0  0  0  0
  -30.2090  -19.4362   15.6018 F   0  0  0  0  0  0
  -28.2809  -19.8783   16.4487 F   0  0  0  0  0  0
  -30.0572  -19.9077   17.6945 F   0  0  0  0  0  0
  -31.4300  -12.3410   19.0885 H   0  0  0  0  0  0
  -30.2643  -11.3652   19.9452 H   0  0  0  0  0  0
  -29.6723  -11.4992   17.5224 H   0  0  0  0  0  0
  -29.5688  -13.2148   17.5694 H   0  0  0  0  0  0
  -27.8029  -11.2356   18.9373 H   0  0  0  0  0  0
  -27.3188  -12.4561   17.7906 H   0  0  0  0  0  0
  -27.6141  -14.2305   19.3797 H   0  0  0  0  0  0
  -28.7265  -12.2876   21.4632 H   0  0  0  0  0  0
  -28.5340  -14.0234   21.6378 H   0  0  0  0  0  0
  -25.2766   -9.5645   22.4801 H   0  0  0  0  0  0
  -24.0014   -7.4602   22.7438 H   0  0  0  0  0  0
  -21.0885   -8.8750   19.8951 H   0  0  0  0  0  0
  -22.3708  -10.9678   19.6175 H   0  0  0  0  0  0
  -21.2016   -7.6133   23.9691 H   0  0  0  0  0  0
  -21.1486   -6.0534   25.9080 H   0  0  0  0  0  0
  -22.0630   -2.7596   23.2864 H   0  0  0  0  0  0
  -22.4293  -11.9882   22.4743 H   0  0  0  0  0  0
  -21.1161  -13.1113   22.2647 H   0  0  0  0  0  0
  -24.6645  -15.8502   20.5292 H   0  0  0  0  0  0
  -26.2977  -15.6451   20.1520 H   0  0  0  0  0  0
  -26.7103  -32.5552   23.1164 H   0  0  0  0  0  0
  -24.9954  -33.9782   25.0451 H   0  0  0  0  0  0
  -22.6964  -31.3211   21.4297 H   0  0  0  0  0  0
  -23.3726  -35.9639   23.3315 H   0  0  0  0  0  0
  -24.3614  -36.8909   22.2055 H   0  0  0  0  0  0
  -23.7264  -37.6511   23.6649 H   0  0  0  0  0  0
  -26.8215  -30.8780   21.9830 H   0  0  0  0  0  0
  -26.0387  -31.5898   20.6057 H   0  0  0  0  0  0
  -28.0857  -29.0707   21.1799 H   0  0  0  0  0  0
  -26.0151  -25.9832   18.9720 H   0  0  0  0  0  0
  -23.9615  -27.3256   18.9988 H   0  0  0  0  0  0
  -23.7268  -30.6145   19.4131 H   0  0  0  0  0  0
  -22.7305  -29.2625   19.8653 H   0  0  0  0  0  0
  -25.1280  -36.1978   25.0808 H   0  0  0  0  0  0
  -20.9964  -28.3279   24.1419 H   0  0  0  0  0  0
  -20.5932  -26.2357   23.3571 H   0  0  0  0  0  0
  -21.6700  -26.7711   22.1058 H   0  0  0  0  0  0
  -19.6992  -25.6261   21.1336 H   0  0  0  0  0  0
  -19.6752  -27.3121   20.6703 H   0  0  0  0  0  0
  -17.4255  -26.6689   21.4025 H   0  0  0  0  0  0
  -18.0359  -26.0102   22.9043 H   0  0  0  0  0  0
  -19.7878  -30.7316   24.2314 H   0  0  0  0  0  0
  -17.4973  -31.6251   24.5201 H   0  0  0  0  0  0
  -15.5333  -30.2980   23.7668 H   0  0  0  0  0  0
  -15.8678  -28.0827   22.7031 H   0  0  0  0  0  0
  -24.5955  -30.6959   25.7820 H   0  0  0  0  0  0
  -24.8873  -32.2751   26.4959 H   0  0  0  0  0  0
  -25.8112  -30.8811   27.0226 H   0  0  0  0  0  0
  -26.2801  -29.6866   24.1134 H   0  0  0  0  0  0
  -27.4022  -29.7246   25.4514 H   0  0  0  0  0  0
  -27.8656  -30.4350   23.9231 H   0  0  0  0  0  0
  -27.2650  -33.3591   26.2097 H   0  0  0  0  0  0
  -28.3844  -32.6902   25.0352 H   0  0  0  0  0  0
  -28.0712  -31.8411   26.5405 H   0  0  0  0  0  0
  -28.2590  -38.0111   24.7474 H   0  0  0  0  0  0
  -28.1067  -36.2636   24.6304 H   0  0  0  0  0  0
  -27.2291  -37.1475   25.8867 H   0  0  0  0  0  0
  -20.9237  -29.8877   21.7013 H   0  0  0  0  0  0
  -26.0198  -38.2834   24.1374 H   0  0  0  0  0  0
  -28.8181  -16.6131   21.4981 H   0  0  0  0  0  0
  -27.1813  -18.8578   18.2184 H   0  0  0  0  0  0
  -25.9841  -19.1526   23.0008 H   0  0  0  0  0  0
  -27.4099  -18.1153   22.9942 H   0  0  0  0  0  0
  -25.9288  -17.5521   22.2354 H   0  0  0  0  0  0
  -27.4245  -17.4603   15.9230 H   0  0  0  0  0  0
  -28.3562  -15.9832   16.1355 H   0  0  0  0  0  0
  -28.8504  -17.1824   14.9382 H   0  0  0  0  0  0
  -31.6997  -15.9837   17.3730 H   0  0  0  0  0  0
  -30.1639  -15.1529   17.2335 H   0  0  0  0  0  0
  -31.5866  -14.3731   17.9120 H   0  0  0  0  0  0
  -31.5527  -17.2214   20.6838 H   0  0  0  0  0  0
  -32.6897  -16.5142   19.5363 H   0  0  0  0  0  0
  -31.5910  -17.7591   19.0170 H   0  0  0  0  0  0
  -28.6294  -22.6501   19.7473 H   0  0  0  0  0  0
  -29.0046  -22.8315   21.4359 H   0  0  0  0  0  0
  -26.4817  -21.6316   20.2031 H   0  0  0  0  0  0
  -26.5908  -21.9460   21.9182 H   0  0  0  0  0  0
  -27.5751  -24.6796   21.7242 H   0  0  0  0  0  0
  -26.5529  -24.2629   20.3907 H   0  0  0  0  0  0
  -28.4031  -20.3053   22.2017 H   0  0  0  0  0  0
  -28.6858  -20.2812   20.5043 H   0  0  0  0  0  0
  -28.1039  -25.1481   18.7456 H   0  0  0  0  0  0
  -29.4415  -24.9925   19.8370 H   0  0  0  0  0  0
  -26.0897  -19.3297   20.5331 H   0  0  0  0  0  0
  -30.3146  -17.4064   16.9058 H   0  0  0  0  0  0
  1 25  1  0  0  0
  1 30  2  0  0  0
  1 86  1  0  0  0
  2  3  1  0  0  0
  2 25  1  0  0  0
  2 92  1  0  0  0
  2 93  1  0  0  0
  3  4  1  0  0  0
  3 94  1  0  0  0
  3 95  1  0  0  0
  4  5  1  0  0  0
  4 96  1  0  0  0
  4 97  1  0  0  0
  5  6  1  0  0  0
  5 26  1  0  0  0
  5 98  1  0  0  0
  6 25  1  0  0  0
  6 99  1  0  0  0
  6100  1  0  0  0
  7  8  2  0  0  0
  7 26  1  0  0  0
  7 29  1  0  0  0
  8  9  1  0  0  0
  8 22  1  0  0  0
  9 10  1  0  0  0
  9 27  2  0  0  0
 10 11  2  0  0  0
 10 15  1  0  0  0
 11 12  1  0  0  0
 11101  1  0  0  0
 12 13  2  0  0  0
 12102  1  0  0  0
 13 14  1  0  0  0
 13 31  1  0  0  0
 14 15  2  0  0  0
 14103  1  0  0  0
 15104  1  0  0  0
 16 17  2  0  0  0
 16 21  1  0  0  0
 16 31  1  0  0  0
 17 18  1  0  0  0
 17105  1  0  0  0
 18 19  2  0  0  0
 18106  1  0  0  0
 19 20  1  0  0  0
 19 24  1  0  0  0
 20 21  2  0  0  0
 20107  1  0  0  0
 21 23  1  0  0  0
 22 28  1  0  0  0
 22 32  2  0  0  0
 26 27  1  0  0  0
 28108  1  0  0  0
 28109  1  0  0  0
 29110  1  0  0  0
 29111  1  0  0  0
 33 34  1  0  0  0
 33 66  1  0  0  0
 33 70  2  0  0  0
 34 36  1  0  0  0
 34 59  1  0  0  0
 34112  1  0  0  0
 35 44  2  0  0  0
 35 45  1  0  0  0
 35 68  1  0  0  0
 36 56  1  0  0  0
 36113  1  0  0  0
 37 39  1  0  0  0
 37 47  1  0  0  0
 37 66  1  0  0  0
 37114  1  0  0  0
 38 43  2  0  0  0
 38 46  1  0  0  0
 38 47  1  0  0  0
 39 64  1  0  0  0
 39 67  2  0  0  0
 40 52  1  0  0  0
 40 53  2  0  0  0
 40 58  1  0  0  0
 41115  1  0  0  0
 41116  1  0  0  0
 41117  1  0  0  0
 41 48  1  0  0  0
 42 43  1  0  0  0
 42 66  1  0  0  0
 42118  1  0  0  0
 42119  1  0  0  0
 43 44  1  0  0  0
 44120  1  0  0  0
 45 46  2  0  0  0
 45121  1  0  0  0
 46122  1  0  0  0
 47123  1  0  0  0
 47124  1  0  0  0
 48 56  1  0  0  0
 48 65  1  0  0  0
 48125  1  0  0  0
 49 50  1  0  0  0
 49 53  1  0  0  0
 49 64  1  0  0  0
 49126  1  0  0  0
 50 51  1  0  0  0
 50127  1  0  0  0
 50128  1  0  0  0
 51 52  1  0  0  0
 51129  1  0  0  0
 51130  1  0  0  0
 52131  1  0  0  0
 52132  1  0  0  0
 53 54  1  0  0  0
 54 55  2  0  0  0
 54133  1  0  0  0
 55 57  1  0  0  0
 55134  1  0  0  0
 56 69  2  0  0  0
 57 58  2  0  0  0
 57135  1  0  0  0
 58136  1  0  0  0
 59 60  1  0  0  0
 59 61  1  0  0  0
 59 62  1  0  0  0
 60137  1  0  0  0
 60138  1  0  0  0
 60139  1  0  0  0
 61140  1  0  0  0
 61141  1  0  0  0
 61142  1  0  0  0
 62143  1  0  0  0
 62144  1  0  0  0
 62145  1  0  0  0
 63 65  1  0  0  0
 63146  1  0  0  0
 63147  1  0  0  0
 63148  1  0  0  0
 64149  1  0  0  0
 65150  1  0  0  0
 68 83  1  0  0  0
 71 73  1  0  0  0
 71 74  2  0  0  0
 71151  1  0  0  0
 72 73  2  0  0  0
 72 88  1  0  0  0
 72152  1  0  0  0
 73 84  1  0  0  0
 74 86  1  0  0  0
 74 88  1  0  0  0
 75153  1  0  0  0
 75154  1  0  0  0
 75155  1  0  0  0
 75 84  1  0  0  0
 76156  1  0  0  0
 76157  1  0  0  0
 76158  1  0  0  0
 76 85  1  0  0  0
 77159  1  0  0  0
 77160  1  0  0  0
 77161  1  0  0  0
 77 86  1  0  0  0
 78 86  1  0  0  0
 78162  1  0  0  0
 78163  1  0  0  0
 78164  1  0  0  0
 79 80  1  0  0  0
 79 81  1  0  0  0
 79165  1  0  0  0
 79166  1  0  0  0
 80 82  1  0  0  0
 80167  1  0  0  0
 80168  1  0  0  0
 81 83  1  0  0  0
 81169  1  0  0  0
 81170  1  0  0  0
 82 84  1  0  0  0
 82171  1  0  0  0
 82172  1  0  0  0
 83173  1  0  0  0
 83174  1  0  0  0
 84175  1  0  0  0
 85 87  1  0  0  0
 85 88  1  0  0  0
 85176  1  0  0  0
 87 89  1  0  0  0
 87 90  1  0  0  0
 87 91  1  0  0  0
M  ISO  4   1 100  68 101  83 101  86 100
M  END
> <chiral flag>
0

> <version>
0

> <s_m_source_file>
/data/baiqing/PycharmProjects/Reinvent-master-3.2/result/LINK_invent/BTK/process_docking_weight1_custom_sum_contain_oxygen_bond_distance_aromatic_linkinvent_7_9_3/rearranged_h_0068.sdf

> <i_m_source_file_index>
69

> <r_mmod_Potential_Energy-OPLS-2005>
378.729064941406

> <r_mmod_Stretch_Energy-OPLS-2005>
53.9136047363281

> <r_mmod_Bend_Energy-OPLS-2005>
173.304946899414

> <r_mmod_Torsional_Energy-OPLS-2005>
326.004180908203

> <r_mmod_Improper_Torsional_Energy-OPLS-2005>
27.4598922729492

> <r_mmod_Van_der_Waal_Energy-OPLS-2005>
138.787002563477

> <r_mmod_Electrostatic_Energy-OPLS-2005>
-271.01708984375

> <r_mmod_Solvation_Energy-OPLS-2005>
-162.315551757812

> <b_mmod_Minimization_Converged-OPLS-2005>
0

> <r_mmod_RMS_Derivative-OPLS-2005>
5.71388339996338

$$$$
75
                    3D
 Structure written by MMmdl.
183191  0  0  1  0            999 V2000
  -30.8418  -14.3167   20.7784 C   0  0  0  0  0  0
  -30.4035  -12.2997   19.4065 C   0  0  0  0  0  0
  -29.4852  -12.5396   18.1962 C   0  0  0  0  0  0
  -28.0118  -12.3726   18.6020 C   0  0  0  0  0  0
  -27.6620  -13.2036   19.8592 C   0  0  2  0  0  0
  -28.6898  -12.9846   20.9871 C   0  0  0  0  0  0
  -25.2610  -13.8166   20.5632 C   0  0  0  0  0  0
  -24.1859  -13.0443   20.9163 C   0  0  0  0  0  0
  -24.6407  -11.6908   20.8716 C   0  0  0  0  0  0
  -23.9069  -10.4291   21.0406 C   0  0  0  0  0  0
  -24.3618   -9.4215   21.9194 C   0  0  0  0  0  0
  -23.6288   -8.2251   22.0765 C   0  0  0  0  0  0
  -22.4272   -8.0284   21.3547 C   0  0  0  0  0  0
  -21.9909   -9.0259   20.4652 C   0  0  0  0  0  0
  -22.7240  -10.2135   20.3060 C   0  0  0  0  0  0
  -21.6859   -6.0731   22.5275 C   0  0  0  0  0  0
  -21.4023   -6.5636   23.8208 C   0  0  0  0  0  0
  -21.3662   -5.6790   24.9171 C   0  0  0  0  0  0
  -21.6039   -4.3051   24.7224 C   0  0  0  0  0  0
  -21.8822   -3.8144   23.4347 C   0  0  0  0  0  0
  -21.9193   -4.6958   22.3402 C   0  0  0  0  0  0
  -22.7880  -13.5249   21.1833 C   0  0  0  0  0  0
  -22.1662   -4.2143   21.0979 F   0  0  0  0  0  0
  -21.5626   -3.4536   25.7741 F   0  0  0  0  0  0
  -30.0490  -13.2444   20.4823 N   0  0  0  0  0  0
  -26.3018  -12.9319   20.3232 N   0  0  0  0  0  0
  -25.9319  -11.6483   20.5680 N   0  0  0  0  0  0
  -22.0522  -12.8243   22.0397 N   0  0  0  0  0  0
  -25.4365  -15.1875   20.4070 N   0  0  0  0  0  0
  -31.7265  -14.6493   19.9839 O   0  0  0  0  0  0
  -21.6641   -6.8873   21.4234 O   0  0  0  0  0  0
  -22.3560  -14.5552   20.6690 O   0  0  0  0  0  0
  -24.6126  -31.8700   23.2157 C   0  0  0  0  0  0
  -25.9025  -32.4839   23.8443 C   0  0  1  0  0  0
  -27.2353  -27.4490   20.0731 C   0  0  0  0  0  0
  -25.5892  -33.8639   24.2368 N   0  0  0  0  0  0
  -23.4003  -30.4968   21.5548 C   0  0  2  0  0  0
  -24.8464  -28.9742   20.1107 C   0  0  0  0  0  0
  -22.7411  -29.4662   22.4992 C   0  0  0  0  0  0
  -18.0275  -28.1339   22.8504 C   0  0  0  0  0  0
  -24.1475  -36.7311   23.2640 C   0  0  0  0  0  0
  -25.9311  -30.8338   21.3753 C   0  0  0  0  0  0
  -26.0048  -29.4723   20.7168 C   0  0  0  0  0  0
  -27.1956  -28.7109   20.7095 C   0  0  0  0  0  0
  -26.0577  -26.9826   19.4410 C   0  0  0  0  0  0
  -24.8652  -27.7241   19.4767 C   0  0  0  0  0  0
  -23.6084  -29.8374   20.1666 C   0  0  0  0  0  0
  -25.4097  -36.3124   24.0341 C   0  0  1  0  0  0
  -20.5870  -28.3631   23.1303 C   0  0  2  0  0  0
  -20.6760  -26.9367   22.5402 C   0  0  0  0  0  0
  -19.5736  -26.6359   21.5200 C   0  0  0  0  0  0
  -18.1914  -26.7893   22.1616 C   0  0  0  0  0  0
  -19.1529  -28.8801   23.2904 C   0  0  0  0  0  0
  -18.9461  -30.1405   23.8916 C   0  0  0  0  0  0
  -17.6470  -30.6562   24.0548 C   0  0  0  0  0  0
  -25.9019  -34.9485   23.5152 C   0  0  0  0  0  0
  -16.5357  -29.9069   23.6311 C   0  0  0  0  0  0
  -16.7267  -28.6468   23.0368 C   0  0  0  0  0  0
  -26.4460  -31.6621   25.0762 C   0  0  0  0  0  0
  -25.3729  -31.3698   26.1509 C   0  0  0  0  0  0
  -27.0307  -30.3079   24.6122 C   0  0  0  0  0  0
  -27.6037  -32.4357   25.7509 C   0  0  0  0  0  0
  -27.5575  -37.1799   24.8464 C   0  0  0  0  0  0
  -21.4142  -29.3024   22.3728 N   0  0  0  0  0  0
  -26.4288  -37.3805   23.9411 N   0  0  0  0  0  0
  -24.6656  -31.0804   22.1063 N   0  0  0  0  0  0
  -23.4193  -28.8198   23.3017 O   0  0  0  0  0  0
  -28.4094  -26.7188   20.1356 O   0  0  0  0  0  0
  -26.5583  -34.8918   22.4710 O   0  0  0  0  0  0
  -23.5315  -32.1484   23.7531 O   0  0  0  0  0  0
  -30.0195  -18.3542   20.7533 C   0  0  0  0  0  0
  -30.0357  -17.5973   21.8921 C   0  0  0  0  0  0
  -26.7722  -21.9958   19.4987 C   0  0  0  0  0  0
  -26.5058  -24.6194   21.8819 C   0  0  0  0  0  0
  -28.5688  -16.1175   23.2479 C   0  0  0  0  0  0
  -30.5996  -14.0391   23.3266 C   0  0  0  0  0  0
  -30.1617  -22.9783   18.4890 C   0  0  0  0  0  0
  -30.9641  -24.0837   20.5871 C   0  0  0  0  0  0
  -27.2657  -23.4164   19.1808 C   0  0  0  0  0  0
  -27.9632  -24.2530   21.5366 C   0  0  0  0  0  0
  -29.7644  -21.9342   20.7925 C   0  0  0  0  0  0
  -30.7159  -20.7883   20.3653 C   0  0  0  0  0  0
  -28.5763  -25.5329   19.3425 C   0  0  0  0  0  0
  -29.6007  -16.1584   22.0939 C   0  0  2  0  0  0
  -30.7664  -15.0718   22.1586 C   0  0  2  0  0  0
  -29.7867  -23.2787   19.9658 C   0  0  0  0  0  0
  -28.4021  -24.1048   20.0311 C   0  0  0  0  0  0
  -32.1838  -15.7088   22.4502 C   0  0  0  0  0  0
  -30.5222  -18.3981   22.9293 N   0  0  0  0  0  0
  -30.8166  -19.5756   22.4741 N   0  0  0  0  0  0
  -30.5082  -19.5832   21.1565 N   0  0  0  0  0  0
  -32.5983  -16.6109   21.5553 F   0  0  0  0  0  0
  -32.2199  -16.2828   23.6548 F   0  0  0  0  0  0
  -33.1205  -14.7542   22.4737 F   0  0  0  0  0  0
  -31.4505  -12.3753   19.1076 H   0  0  0  0  0  0
  -30.2812  -11.2788   19.7725 H   0  0  0  0  0  0
  -29.7320  -11.8451   17.3911 H   0  0  0  0  0  0
  -29.6510  -13.5433   17.8011 H   0  0  0  0  0  0
  -27.8305  -11.3132   18.7906 H   0  0  0  0  0  0
  -27.3594  -12.6519   17.7736 H   0  0  0  0  0  0
  -27.7112  -14.2530   19.5666 H   0  0  0  0  0  0
  -28.6313  -11.9693   21.3812 H   0  0  0  0  0  0
  -28.3920  -13.6502   21.7859 H   0  0  0  0  0  0
  -25.2768   -9.5684   22.4765 H   0  0  0  0  0  0
  -23.9996   -7.4645   22.7494 H   0  0  0  0  0  0
  -21.0842   -8.8779   19.8960 H   0  0  0  0  0  0
  -22.3712  -10.9670   19.6161 H   0  0  0  0  0  0
  -21.2027   -7.6147   23.9708 H   0  0  0  0  0  0
  -21.1476   -6.0522   25.9071 H   0  0  0  0  0  0
  -22.0600   -2.7606   23.2850 H   0  0  0  0  0  0
  -22.4137  -11.9895   22.4771 H   0  0  0  0  0  0
  -21.1149  -13.1286   22.2616 H   0  0  0  0  0  0
  -24.6783  -15.8491   20.5294 H   0  0  0  0  0  0
  -26.2888  -15.6216   20.0765 H   0  0  0  0  0  0
  -26.7095  -32.5547   23.1206 H   0  0  0  0  0  0
  -25.0059  -33.9827   25.0525 H   0  0  0  0  0  0
  -22.6871  -31.3120   21.4180 H   0  0  0  0  0  0
  -23.3749  -35.9628   23.3320 H   0  0  0  0  0  0
  -24.3568  -36.8924   22.2053 H   0  0  0  0  0  0
  -23.7219  -37.6509   23.6656 H   0  0  0  0  0  0
  -26.0506  -31.6023   20.6106 H   0  0  0  0  0  0
  -26.8167  -30.8801   21.9976 H   0  0  0  0  0  0
  -28.0862  -29.0871   21.1948 H   0  0  0  0  0  0
  -26.0193  -26.0399   18.9293 H   0  0  0  0  0  0
  -23.9739  -27.3352   19.0036 H   0  0  0  0  0  0
  -23.7170  -30.6158   19.4103 H   0  0  0  0  0  0
  -22.7334  -29.2571   19.8689 H   0  0  0  0  0  0
  -25.1273  -36.1998   25.0836 H   0  0  0  0  0  0
  -20.9957  -28.3186   24.1427 H   0  0  0  0  0  0
  -20.5633  -26.2241   23.3590 H   0  0  0  0  0  0
  -21.6630  -26.7387   22.1208 H   0  0  0  0  0  0
  -19.6887  -25.6272   21.1220 H   0  0  0  0  0  0
  -19.6670  -27.3167   20.6727 H   0  0  0  0  0  0
  -17.4185  -26.6657   21.4016 H   0  0  0  0  0  0
  -18.0313  -26.0007   22.8980 H   0  0  0  0  0  0
  -19.7940  -30.7194   24.2318 H   0  0  0  0  0  0
  -17.5034  -31.6251   24.5124 H   0  0  0  0  0  0
  -15.5360  -30.2986   23.7610 H   0  0  0  0  0  0
  -15.8665  -28.0779   22.7109 H   0  0  0  0  0  0
  -24.5913  -30.7033   25.7852 H   0  0  0  0  0  0
  -24.8888  -32.2830   26.4976 H   0  0  0  0  0  0
  -25.8085  -30.8868   27.0266 H   0  0  0  0  0  0
  -26.2867  -29.6842   24.1152 H   0  0  0  0  0  0
  -27.4088  -29.7298   25.4562 H   0  0  0  0  0  0
  -27.8690  -30.4438   23.9285 H   0  0  0  0  0  0
  -27.2676  -33.3670   26.2078 H   0  0  0  0  0  0
  -28.3834  -32.6912   25.0324 H   0  0  0  0  0  0
  -28.0717  -31.8497   26.5430 H   0  0  0  0  0  0
  -28.2588  -38.0103   24.7549 H   0  0  0  0  0  0
  -28.1087  -36.2637   24.6273 H   0  0  0  0  0  0
  -27.2284  -37.1435   25.8864 H   0  0  0  0  0  0
  -20.9289  -29.8811   21.7016 H   0  0  0  0  0  0
  -26.0184  -38.2877   24.1450 H   0  0  0  0  0  0
  -29.7183  -18.1392   19.7364 H   0  0  0  0  0  0
  -25.8444  -21.7965   18.9612 H   0  0  0  0  0  0
  -26.5584  -21.8569   20.5582 H   0  0  0  0  0  0
  -27.4805  -21.2349   19.1714 H   0  0  0  0  0  0
  -26.3496  -24.5184   22.9558 H   0  0  0  0  0  0
  -25.7764  -23.9684   21.4034 H   0  0  0  0  0  0
  -26.2566  -25.6471   21.6457 H   0  0  0  0  0  0
  -27.7768  -16.8474   23.0766 H   0  0  0  0  0  0
  -29.0313  -16.3620   24.2044 H   0  0  0  0  0  0
  -28.0739  -15.1550   23.3547 H   0  0  0  0  0  0
  -30.7552  -14.5119   24.2960 H   0  0  0  0  0  0
  -31.3371  -13.2393   23.2530 H   0  0  0  0  0  0
  -29.6364  -13.5493   23.4031 H   0  0  0  0  0  0
  -31.1801  -22.5998   18.4003 H   0  0  0  0  0  0
  -30.1176  -23.8576   17.8489 H   0  0  0  0  0  0
  -29.5022  -22.2309   18.0469 H   0  0  0  0  0  0
  -31.8752  -23.4857   20.6206 H   0  0  0  0  0  0
  -30.7577  -24.3826   21.6143 H   0  0  0  0  0  0
  -31.2316  -24.9842   20.0392 H   0  0  0  0  0  0
  -26.3764  -24.0353   19.2296 H   0  0  0  0  0  0
  -27.5352  -23.4307   18.1244 H   0  0  0  0  0  0
  -28.1180  -23.3184   22.0679 H   0  0  0  0  0  0
  -28.6176  -24.9668   22.0370 H   0  0  0  0  0  0
  -29.9848  -22.1586   21.8372 H   0  0  0  0  0  0
  -28.7741  -21.5066   20.8432 H   0  0  0  0  0  0
  -31.7604  -21.0885   20.4567 H   0  0  0  0  0  0
  -30.5549  -20.5144   19.3230 H   0  0  0  0  0  0
  -28.0188  -25.6117   18.4100 H   0  0  0  0  0  0
  -29.5829  -25.6512   18.9573 H   0  0  0  0  0  0
  -28.9949  -15.9200   21.2188 H   0  0  0  0  0  0
  1 25  1  0  0  0
  1 30  2  0  0  0
  1 85  1  0  0  0
  2  3  1  0  0  0
  2 25  1  0  0  0
  2 95  1  0  0  0
  2 96  1  0  0  0
  3  4  1  0  0  0
  3 97  1  0  0  0
  3 98  1  0  0  0
  4  5  1  0  0  0
  4 99  1  0  0  0
  4100  1  0  0  0
  5  6  1  0  0  0
  5 26  1  0  0  0
  5101  1  0  0  0
  6 25  1  0  0  0
  6102  1  0  0  0
  6103  1  0  0  0
  7  8  2  0  0  0
  7 26  1  0  0  0
  7 29  1  0  0  0
  8  9  1  0  0  0
  8 22  1  0  0  0
  9 10  1  0  0  0
  9 27  2  0  0  0
 10 11  2  0  0  0
 10 15  1  0  0  0
 11 12  1  0  0  0
 11104  1  0  0  0
 12 13  2  0  0  0
 12105  1  0  0  0
 13 14  1  0  0  0
 13 31  1  0  0  0
 14 15  2  0  0  0
 14106  1  0  0  0
 15107  1  0  0  0
 16 17  2  0  0  0
 16 21  1  0  0  0
 16 31  1  0  0  0
 17 18  1  0  0  0
 17108  1  0  0  0
 18 19  2  0  0  0
 18109  1  0  0  0
 19 20  1  0  0  0
 19 24  1  0  0  0
 20 21  2  0  0  0
 20110  1  0  0  0
 21 23  1  0  0  0
 22 28  1  0  0  0
 22 32  2  0  0  0
 26 27  1  0  0  0
 28111  1  0  0  0
 28112  1  0  0  0
 29113  1  0  0  0
 29114  1  0  0  0
 33 34  1  0  0  0
 33 66  1  0  0  0
 33 70  2  0  0  0
 34 36  1  0  0  0
 34 59  1  0  0  0
 34115  1  0  0  0
 35 44  2  0  0  0
 35 45  1  0  0  0
 35 68  1  0  0  0
 36 56  1  0  0  0
 36116  1  0  0  0
 37 39  1  0  0  0
 37 47  1  0  0  0
 37 66  1  0  0  0
 37117  1  0  0  0
 38 43  2  0  0  0
 38 46  1  0  0  0
 38 47  1  0  0  0
 39 64  1  0  0  0
 39 67  2  0  0  0
 40 52  1  0  0  0
 40 53  2  0  0  0
 40 58  1  0  0  0
 41118  1  0  0  0
 41119  1  0  0  0
 41120  1  0  0  0
 41 48  1  0  0  0
 42 43  1  0  0  0
 42 66  1  0  0  0
 42121  1  0  0  0
 42122  1  0  0  0
 43 44  1  0  0  0
 44123  1  0  0  0
 45 46  2  0  0  0
 45124  1  0  0  0
 46125  1  0  0  0
 47126  1  0  0  0
 47127  1  0  0  0
 48 56  1  0  0  0
 48 65  1  0  0  0
 48128  1  0  0  0
 49 50  1  0  0  0
 49 53  1  0  0  0
 49 64  1  0  0  0
 49129  1  0  0  0
 50 51  1  0  0  0
 50130  1  0  0  0
 50131  1  0  0  0
 51 52  1  0  0  0
 51132  1  0  0  0
 51133  1  0  0  0
 52134  1  0  0  0
 52135  1  0  0  0
 53 54  1  0  0  0
 54 55  2  0  0  0
 54136  1  0  0  0
 55 57  1  0  0  0
 55137  1  0  0  0
 56 69  2  0  0  0
 57 58  2  0  0  0
 57138  1  0  0  0
 58139  1  0  0  0
 59 60  1  0  0  0
 59 61  1  0  0  0
 59 62  1  0  0  0
 60140  1  0  0  0
 60141  1  0  0  0
 60142  1  0  0  0
 61143  1  0  0  0
 61144  1  0  0  0
 61145  1  0  0  0
 62146  1  0  0  0
 62147  1  0  0  0
 62148  1  0  0  0
 63 65  1  0  0  0
 63149  1  0  0  0
 63150  1  0  0  0
 63151  1  0  0  0
 64152  1  0  0  0
 65153  1  0  0  0
 68 83  1  0  0  0
 71 72  2  0  0  0
 71 91  1  0  0  0
 71154  1  0  0  0
 72 84  1  0  0  0
 72 89  1  0  0  0
 73 79  1  0  0  0
 73155  1  0  0  0
 73156  1  0  0  0
 73157  1  0  0  0
 74 80  1  0  0  0
 74158  1  0  0  0
 74159  1  0  0  0
 74160  1  0  0  0
 75161  1  0  0  0
 75162  1  0  0  0
 75163  1  0  0  0
 75 84  1  0  0  0
 76164  1  0  0  0
 76165  1  0  0  0
 76166  1  0  0  0
 76 85  1  0  0  0
 77167  1  0  0  0
 77168  1  0  0  0
 77169  1  0  0  0
 77 86  1  0  0  0
 78 86  1  0  0  0
 78170  1  0  0  0
 78171  1  0  0  0
 78172  1  0  0  0
 79173  1  0  0  0
 79174  1  0  0  0
 79 87  1  0  0  0
 80 87  1  0  0  0
 80175  1  0  0  0
 80176  1  0  0  0
 81 82  1  0  0  0
 81 86  1  0  0  0
 81177  1  0  0  0
 81178  1  0  0  0
 82 91  1  0  0  0
 82179  1  0  0  0
 82180  1  0  0  0
 83 87  1  0  0  0
 83181  1  0  0  0
 83182  1  0  0  0
 84 85  1  0  0  0
 84183  1  0  0  0
 85 88  1  0  0  0
 86 87  1  0  0  0
 88 92  1  0  0  0
 88 93  1  0  0  0
 88 94  1  0  0  0
 89 90  2  0  0  0
 90 91  1  0  0  0
M  ISO  4   1 100  68 101  83 101  85 100
M  END
> <chiral flag>
0

> <version>
0

> <s_m_source_file>
/data/baiqing/PycharmProjects/Reinvent-master-3.2/result/LINK_invent/BTK/process_docking_weight1_custom_sum_contain_oxygen_bond_distance_aromatic_linkinvent_7_9_3/rearranged_h_0068.sdf

> <i_m_source_file_index>
70

> <r_mmod_Potential_Energy-OPLS-2005>
183.894927978516

> <r_mmod_Stretch_Energy-OPLS-2005>
69.2314758300781

> <r_mmod_Bend_Energy-OPLS-2005>
172.620162963867

> <r_mmod_Torsional_Energy-OPLS-2005>
245.788879394531

> <r_mmod_Improper_Torsional_Energy-OPLS-2005>
2.43877243995667

> <r_mmod_Van_der_Waal_Energy-OPLS-2005>
183.981231689453

> <r_mmod_Electrostatic_Energy-OPLS-2005>
-321.618682861328

> <r_mmod_Solvation_Energy-OPLS-2005>
-181.680252075195

> <b_mmod_Minimization_Converged-OPLS-2005>
0

> <r_mmod_RMS_Derivative-OPLS-2005>
1.76213395595551

$$$$
76
                    3D
 Structure written by MMmdl.
173181  0  0  1  0            999 V2000
  -30.7380  -14.4456   20.5817 C   0  0  0  0  0  0
  -30.4102  -12.3139   19.3827 C   0  0  0  0  0  0
  -29.4717  -12.4708   18.1700 C   0  0  0  0  0  0
  -27.9975  -12.3383   18.5954 C   0  0  0  0  0  0
  -27.6481  -13.1943   19.8406 C   0  0  2  0  0  0
  -28.6965  -13.0124   20.9602 C   0  0  0  0  0  0
  -25.2544  -13.8152   20.5576 C   0  0  0  0  0  0
  -24.1822  -13.0451   20.9173 C   0  0  0  0  0  0
  -24.6372  -11.6919   20.8739 C   0  0  0  0  0  0
  -23.9037  -10.4310   21.0404 C   0  0  0  0  0  0
  -24.3610   -9.4237   21.9171 C   0  0  0  0  0  0
  -23.6297   -8.2257   22.0760 C   0  0  0  0  0  0
  -22.4269   -8.0288   21.3580 C   0  0  0  0  0  0
  -21.9885   -9.0259   20.4671 C   0  0  0  0  0  0
  -22.7211  -10.2134   20.3066 C   0  0  0  0  0  0
  -21.6849   -6.0738   22.5290 C   0  0  0  0  0  0
  -21.3981   -6.5622   23.8221 C   0  0  0  0  0  0
  -21.3637   -5.6779   24.9176 C   0  0  0  0  0  0
  -21.6036   -4.3043   24.7222 C   0  0  0  0  0  0
  -21.8811   -3.8148   23.4349 C   0  0  0  0  0  0
  -21.9185   -4.6966   22.3404 C   0  0  0  0  0  0
  -22.7854  -13.5249   21.1850 C   0  0  0  0  0  0
  -22.1672   -4.2148   21.0993 F   0  0  0  0  0  0
  -21.5625   -3.4542   25.7738 F   0  0  0  0  0  0
  -30.0231  -13.3044   20.3978 N   0  0  0  0  0  0
  -26.2962  -12.9295   20.3215 N   0  0  0  0  0  0
  -25.9284  -11.6474   20.5729 N   0  0  0  0  0  0
  -22.0489  -12.8301   22.0432 N   0  0  0  0  0  0
  -25.4110  -15.1882   20.3872 N   0  0  0  0  0  0
  -31.8735  -14.6116   20.1329 O   0  0  0  0  0  0
  -21.6634   -6.8894   21.4266 O   0  0  0  0  0  0
  -22.3523  -14.5546   20.6654 O   0  0  0  0  0  0
  -24.6142  -31.8708   23.2138 C   0  0  0  0  0  0
  -25.9055  -32.4837   23.8425 C   0  0  1  0  0  0
  -27.2172  -27.4478   20.0786 C   0  0  0  0  0  0
  -25.5924  -33.8642   24.2368 N   0  0  0  0  0  0
  -23.3960  -30.5017   21.5566 C   0  0  2  0  0  0
  -24.8347  -28.9739   20.1145 C   0  0  0  0  0  0
  -22.7390  -29.4709   22.5019 C   0  0  0  0  0  0
  -18.0277  -28.1350   22.8520 C   0  0  0  0  0  0
  -24.1469  -36.7279   23.2644 C   0  0  0  0  0  0
  -25.9272  -30.8416   21.3640 C   0  0  0  0  0  0
  -25.9986  -29.4802   20.7054 C   0  0  0  0  0  0
  -27.1936  -28.7265   20.6816 C   0  0  0  0  0  0
  -26.0282  -26.9586   19.4840 C   0  0  0  0  0  0
  -24.8429  -27.7110   19.5057 C   0  0  0  0  0  0
  -23.5978  -29.8402   20.1698 C   0  0  0  0  0  0
  -25.4097  -36.3139   24.0368 C   0  0  1  0  0  0
  -20.5862  -28.3657   23.1288 C   0  0  2  0  0  0
  -20.6750  -26.9390   22.5388 C   0  0  0  0  0  0
  -19.5741  -26.6377   21.5168 C   0  0  0  0  0  0
  -18.1926  -26.7921   22.1596 C   0  0  0  0  0  0
  -19.1527  -28.8825   23.2910 C   0  0  0  0  0  0
  -18.9464  -30.1425   23.8936 C   0  0  0  0  0  0
  -17.6460  -30.6571   24.0554 C   0  0  0  0  0  0
  -25.9030  -34.9499   23.5153 C   0  0  0  0  0  0
  -16.5348  -29.9075   23.6317 C   0  0  0  0  0  0
  -16.7262  -28.6464   23.0392 C   0  0  0  0  0  0
  -26.4497  -31.6617   25.0738 C   0  0  0  0  0  0
  -25.3780  -31.3665   26.1481 C   0  0  0  0  0  0
  -27.0323  -30.3078   24.6074 C   0  0  0  0  0  0
  -27.6089  -32.4321   25.7481 C   0  0  0  0  0  0
  -27.5575  -37.1798   24.8488 C   0  0  0  0  0  0
  -21.4134  -29.3034   22.3723 N   0  0  0  0  0  0
  -26.4287  -37.3823   23.9442 N   0  0  0  0  0  0
  -24.6648  -31.0828   22.1032 N   0  0  0  0  0  0
  -23.4181  -28.8251   23.3040 O   0  0  0  0  0  0
  -28.4000  -26.7347   20.1057 O   0  0  0  0  0  0
  -26.5556  -34.8943   22.4683 O   0  0  0  0  0  0
  -23.5349  -32.1447   23.7568 O   0  0  0  0  0  0
  -29.2830  -18.7763   23.3660 C   0  0  0  0  0  0
  -28.9826  -17.4581   21.8033 C   0  0  0  0  0  0
  -29.6281  -16.2526   18.1343 C   0  0  0  0  0  0
  -29.0870  -18.4973   19.0630 C   0  0  0  0  0  0
  -27.0678  -25.2102   22.2438 C   0  0  0  0  0  0
  -29.5196  -24.6514   22.1346 C   0  0  0  0  0  0
  -27.9032  -22.0975   22.2406 C   0  0  0  0  0  0
  -26.7829  -21.0445   22.2717 C   0  0  0  0  0  0
  -27.7672  -23.1027   21.0751 C   0  0  0  0  0  0
  -27.0225  -19.9337   23.3148 C   0  0  0  0  0  0
  -28.3564  -25.3040   20.0098 C   0  0  0  0  0  0
  -29.2475  -16.4591   20.7097 C   0  0  1  0  0  0
  -29.7624  -17.1432   19.3872 C   0  0  0  0  0  0
  -28.1779  -24.5728   21.3769 C   0  0  0  0  0  0
  -29.9431  -17.8255   22.7077 N   0  0  0  0  0  0
  -27.8144  -18.0970   21.9093 N   0  0  0  0  0  0
  -28.0447  -18.9837   22.9071 N   0  0  0  0  0  0
  -30.1471  -15.4334   21.2597 N   0  0  0  0  0  0
  -31.4474  -12.4204   19.0610 H   0  0  0  0  0  0
  -30.3283  -11.3101   19.7987 H   0  0  0  0  0  0
  -29.7103  -11.7241   17.4125 H   0  0  0  0  0  0
  -29.6265  -13.4293   17.6801 H   0  0  0  0  0  0
  -27.8105  -11.2830   18.7938 H   0  0  0  0  0  0
  -27.3446  -12.6071   17.7632 H   0  0  0  0  0  0
  -27.6708  -14.2246   19.4982 H   0  0  0  0  0  0
  -28.6768  -11.9898   21.3347 H   0  0  0  0  0  0
  -28.4544  -13.6436   21.8162 H   0  0  0  0  0  0
  -25.2765   -9.5717   22.4714 H   0  0  0  0  0  0
  -24.0019   -7.4651   22.7461 H   0  0  0  0  0  0
  -21.0818   -8.8791   19.8971 H   0  0  0  0  0  0
  -22.3708  -10.9663   19.6140 H   0  0  0  0  0  0
  -21.1972   -7.6131   23.9743 H   0  0  0  0  0  0
  -21.1452   -6.0491   25.9083 H   0  0  0  0  0  0
  -22.0614   -2.7611   23.2855 H   0  0  0  0  0  0
  -22.4070  -12.0019   22.4977 H   0  0  0  0  0  0
  -21.1080  -13.1317   22.2563 H   0  0  0  0  0  0
  -24.6120  -15.8072   20.4707 H   0  0  0  0  0  0
  -26.2271  -15.6506   20.0098 H   0  0  0  0  0  0
  -26.7138  -32.5547   23.1203 H   0  0  0  0  0  0
  -25.0234  -33.9814   25.0618 H   0  0  0  0  0  0
  -22.6815  -31.3182   21.4242 H   0  0  0  0  0  0
  -23.3773  -35.9564   23.3339 H   0  0  0  0  0  0
  -24.3566  -36.8821   22.2048 H   0  0  0  0  0  0
  -23.7160  -37.6475   23.6608 H   0  0  0  0  0  0
  -26.0405  -31.6128   20.6017 H   0  0  0  0  0  0
  -26.8169  -30.8877   21.9812 H   0  0  0  0  0  0
  -28.0930  -29.1133   21.1420 H   0  0  0  0  0  0
  -25.9607  -26.0005   18.9963 H   0  0  0  0  0  0
  -23.9438  -27.3173   19.0508 H   0  0  0  0  0  0
  -23.6984  -30.6123   19.4073 H   0  0  0  0  0  0
  -22.7219  -29.2591   19.8797 H   0  0  0  0  0  0
  -25.1264  -36.2008   25.0864 H   0  0  0  0  0  0
  -20.9994  -28.3214   24.1384 H   0  0  0  0  0  0
  -20.5573  -26.2276   23.3579 H   0  0  0  0  0  0
  -21.6630  -26.7365   22.1216 H   0  0  0  0  0  0
  -19.6863  -25.6277   21.1212 H   0  0  0  0  0  0
  -19.6678  -27.3170   20.6684 H   0  0  0  0  0  0
  -17.4178  -26.6711   21.3998 H   0  0  0  0  0  0
  -18.0325  -26.0013   22.8945 H   0  0  0  0  0  0
  -19.7934  -30.7234   24.2341 H   0  0  0  0  0  0
  -17.5008  -31.6271   24.5122 H   0  0  0  0  0  0
  -15.5350  -30.2984   23.7611 H   0  0  0  0  0  0
  -15.8661  -28.0754   22.7152 H   0  0  0  0  0  0
  -24.5979  -30.6995   25.7790 H   0  0  0  0  0  0
  -24.8955  -32.2798   26.4981 H   0  0  0  0  0  0
  -25.8162  -30.8797   27.0209 H   0  0  0  0  0  0
  -26.2833  -29.6810   24.1232 H   0  0  0  0  0  0
  -27.4231  -29.7340   25.4490 H   0  0  0  0  0  0
  -27.8623  -30.4414   23.9128 H   0  0  0  0  0  0
  -27.2743  -33.3614   26.2093 H   0  0  0  0  0  0
  -28.3883  -32.6875   25.0294 H   0  0  0  0  0  0
  -28.0790  -31.8428   26.5362 H   0  0  0  0  0  0
  -28.2646  -38.0059   24.7551 H   0  0  0  0  0  0
  -28.1040  -36.2603   24.6320 H   0  0  0  0  0  0
  -27.2303  -37.1424   25.8897 H   0  0  0  0  0  0
  -20.9280  -29.8776   21.6975 H   0  0  0  0  0  0
  -26.0194  -38.2904   24.1467 H   0  0  0  0  0  0
  -29.7121  -19.3436   24.1825 H   0  0  0  0  0  0
  -29.8608  -16.8071   17.2249 H   0  0  0  0  0  0
  -28.6180  -15.8556   18.0260 H   0  0  0  0  0  0
  -30.3241  -15.4207   18.1384 H   0  0  0  0  0  0
  -29.4572  -18.9134   18.1252 H   0  0  0  0  0  0
  -29.2826  -19.2568   19.8211 H   0  0  0  0  0  0
  -28.0046  -18.3965   18.9681 H   0  0  0  0  0  0
  -26.8522  -24.6189   23.1338 H   0  0  0  0  0  0
  -26.1310  -25.2928   21.6947 H   0  0  0  0  0  0
  -27.3406  -26.2090   22.5874 H   0  0  0  0  0  0
  -29.4401  -24.2786   23.1549 H   0  0  0  0  0  0
  -29.8724  -25.6811   22.2039 H   0  0  0  0  0  0
  -30.2958  -24.0756   21.6272 H   0  0  0  0  0  0
  -28.8734  -21.6069   22.1604 H   0  0  0  0  0  0
  -27.9081  -22.6084   23.2011 H   0  0  0  0  0  0
  -26.6437  -20.6016   21.2845 H   0  0  0  0  0  0
  -25.8417  -21.5471   22.5060 H   0  0  0  0  0  0
  -26.7377  -23.1062   20.7091 H   0  0  0  0  0  0
  -28.3511  -22.7141   20.2415 H   0  0  0  0  0  0
  -26.0980  -19.3843   23.4906 H   0  0  0  0  0  0
  -27.3108  -20.3727   24.2703 H   0  0  0  0  0  0
  -27.6440  -24.9437   19.2730 H   0  0  0  0  0  0
  -29.3096  -24.9996   19.5794 H   0  0  0  0  0  0
  -28.2921  -15.9872   20.4993 H   0  0  0  0  0  0
  -30.8194  -17.3749   19.5304 H   0  0  0  0  0  0
  -30.8002  -15.9228   21.8560 H   0  0  0  0  0  0
  1 25  1  0  0  0
  1 30  2  0  0  0
  1 88  1  0  0  0
  2  3  1  0  0  0
  2 25  1  0  0  0
  2 89  1  0  0  0
  2 90  1  0  0  0
  3  4  1  0  0  0
  3 91  1  0  0  0
  3 92  1  0  0  0
  4  5  1  0  0  0
  4 93  1  0  0  0
  4 94  1  0  0  0
  5  6  1  0  0  0
  5 26  1  0  0  0
  5 95  1  0  0  0
  6 25  1  0  0  0
  6 96  1  0  0  0
  6 97  1  0  0  0
  7  8  2  0  0  0
  7 26  1  0  0  0
  7 29  1  0  0  0
  8  9  1  0  0  0
  8 22  1  0  0  0
  9 10  1  0  0  0
  9 27  2  0  0  0
 10 11  2  0  0  0
 10 15  1  0  0  0
 11 12  1  0  0  0
 11 98  1  0  0  0
 12 13  2  0  0  0
 12 99  1  0  0  0
 13 14  1  0  0  0
 13 31  1  0  0  0
 14 15  2  0  0  0
 14100  1  0  0  0
 15101  1  0  0  0
 16 17  2  0  0  0
 16 21  1  0  0  0
 16 31  1  0  0  0
 17 18  1  0  0  0
 17102  1  0  0  0
 18 19  2  0  0  0
 18103  1  0  0  0
 19 20  1  0  0  0
 19 24  1  0  0  0
 20 21  2  0  0  0
 20104  1  0  0  0
 21 23  1  0  0  0
 22 28  1  0  0  0
 22 32  2  0  0  0
 26 27  1  0  0  0
 28105  1  0  0  0
 28106  1  0  0  0
 29107  1  0  0  0
 29108  1  0  0  0
 33 34  1  0  0  0
 33 66  1  0  0  0
 33 70  2  0  0  0
 34 36  1  0  0  0
 34 59  1  0  0  0
 34109  1  0  0  0
 35 44  2  0  0  0
 35 45  1  0  0  0
 35 68  1  0  0  0
 36 56  1  0  0  0
 36110  1  0  0  0
 37 39  1  0  0  0
 37 47  1  0  0  0
 37 66  1  0  0  0
 37111  1  0  0  0
 38 43  2  0  0  0
 38 46  1  0  0  0
 38 47  1  0  0  0
 39 64  1  0  0  0
 39 67  2  0  0  0
 40 52  1  0  0  0
 40 53  2  0  0  0
 40 58  1  0  0  0
 41112  1  0  0  0
 41113  1  0  0  0
 41114  1  0  0  0
 41 48  1  0  0  0
 42 43  1  0  0  0
 42 66  1  0  0  0
 42115  1  0  0  0
 42116  1  0  0  0
 43 44  1  0  0  0
 44117  1  0  0  0
 45 46  2  0  0  0
 45118  1  0  0  0
 46119  1  0  0  0
 47120  1  0  0  0
 47121  1  0  0  0
 48 56  1  0  0  0
 48 65  1  0  0  0
 48122  1  0  0  0
 49 50  1  0  0  0
 49 53  1  0  0  0
 49 64  1  0  0  0
 49123  1  0  0  0
 50 51  1  0  0  0
 50124  1  0  0  0
 50125  1  0  0  0
 51 52  1  0  0  0
 51126  1  0  0  0
 51127  1  0  0  0
 52128  1  0  0  0
 52129  1  0  0  0
 53 54  1  0  0  0
 54 55  2  0  0  0
 54130  1  0  0  0
 55 57  1  0  0  0
 55131  1  0  0  0
 56 69  2  0  0  0
 57 58  2  0  0  0
 57132  1  0  0  0
 58133  1  0  0  0
 59 60  1  0  0  0
 59 61  1  0  0  0
 59 62  1  0  0  0
 60134  1  0  0  0
 60135  1  0  0  0
 60136  1  0  0  0
 61137  1  0  0  0
 61138  1  0  0  0
 61139  1  0  0  0
 62140  1  0  0  0
 62141  1  0  0  0
 62142  1  0  0  0
 63 65  1  0  0  0
 63143  1  0  0  0
 63144  1  0  0  0
 63145  1  0  0  0
 64146  1  0  0  0
 65147  1  0  0  0
 68 81  1  0  0  0
 71 85  2  0  0  0
 71 87  1  0  0  0
 71148  1  0  0  0
 72 82  1  0  0  0
 72 85  1  0  0  0
 72 86  2  0  0  0
 73149  1  0  0  0
 73150  1  0  0  0
 73151  1  0  0  0
 73 83  1  0  0  0
 74 83  1  0  0  0
 74152  1  0  0  0
 74153  1  0  0  0
 74154  1  0  0  0
 75155  1  0  0  0
 75156  1  0  0  0
 75157  1  0  0  0
 75 84  1  0  0  0
 76 84  1  0  0  0
 76158  1  0  0  0
 76159  1  0  0  0
 76160  1  0  0  0
 77 78  1  0  0  0
 77 79  1  0  0  0
 77161  1  0  0  0
 77162  1  0  0  0
 78 80  1  0  0  0
 78163  1  0  0  0
 78164  1  0  0  0
 79 84  1  0  0  0
 79165  1  0  0  0
 79166  1  0  0  0
 80 87  1  0  0  0
 80167  1  0  0  0
 80168  1  0  0  0
 81 84  1  0  0  0
 81169  1  0  0  0
 81170  1  0  0  0
 82 83  1  0  0  0
 82 88  1  0  0  0
 82171  1  0  0  0
 83172  1  0  0  0
 86 87  1  0  0  0
 88173  1  0  0  0
M  ISO  4   1 100  68 101  81 101  88 100
M  END
> <chiral flag>
0

> <version>
0

> <s_m_source_file>
/data/baiqing/PycharmProjects/Reinvent-master-3.2/result/LINK_invent/BTK/process_docking_weight1_custom_sum_contain_oxygen_bond_distance_aromatic_linkinvent_7_9_3/rearranged_h_0068.sdf

> <i_m_source_file_index>
71

> <r_mmod_Potential_Energy-OPLS-2005>
-65.8872146606445

> <r_mmod_Stretch_Energy-OPLS-2005>
37.653003692627

> <r_mmod_Bend_Energy-OPLS-2005>
132.881805419922

> <r_mmod_Torsional_Energy-OPLS-2005>
283.612457275391

> <r_mmod_Improper_Torsional_Energy-OPLS-2005>
6.68006706237793

> <r_mmod_Van_der_Waal_Energy-OPLS-2005>
132.779342651367

> <r_mmod_Electrostatic_Energy-OPLS-2005>
-475.242950439453

> <r_mmod_Solvation_Energy-OPLS-2005>
-199.307220458984

> <b_mmod_Minimization_Converged-OPLS-2005>
0

> <r_mmod_RMS_Derivative-OPLS-2005>
3.97817921638489

$$$$
77
                    3D
 Structure written by MMmdl.
161169  0  0  1  0            999 V2000
  -30.6391  -14.7678   20.4881 C   0  0  0  0  0  0
  -30.4364  -12.4783   19.4775 C   0  0  0  0  0  0
  -29.5163  -12.5118   18.2378 C   0  0  0  0  0  0
  -28.0476  -12.3196   18.6574 C   0  0  0  0  0  0
  -27.6444  -13.2319   19.8464 C   0  0  2  0  0  0
  -28.6890  -13.1920   20.9841 C   0  0  0  0  0  0
  -25.2537  -13.8183   20.5676 C   0  0  0  0  0  0
  -24.1825  -13.0434   20.9198 C   0  0  0  0  0  0
  -24.6416  -11.6902   20.8742 C   0  0  0  0  0  0
  -23.9077  -10.4284   21.0400 C   0  0  0  0  0  0
  -24.3625   -9.4208   21.9186 C   0  0  0  0  0  0
  -23.6288   -8.2248   22.0766 C   0  0  0  0  0  0
  -22.4272   -8.0298   21.3556 C   0  0  0  0  0  0
  -21.9902   -9.0264   20.4659 C   0  0  0  0  0  0
  -22.7240  -10.2136   20.3059 C   0  0  0  0  0  0
  -21.6853   -6.0753   22.5287 C   0  0  0  0  0  0
  -21.4013   -6.5651   23.8221 C   0  0  0  0  0  0
  -21.3646   -5.6802   24.9179 C   0  0  0  0  0  0
  -21.6042   -4.3065   24.7224 C   0  0  0  0  0  0
  -21.8814   -3.8156   23.4341 C   0  0  0  0  0  0
  -21.9186   -4.6980   22.3402 C   0  0  0  0  0  0
  -22.7848  -13.5231   21.1848 C   0  0  0  0  0  0
  -22.1669   -4.2175   21.0977 F   0  0  0  0  0  0
  -21.5604   -3.4545   25.7729 F   0  0  0  0  0  0
  -29.9884  -13.5530   20.3990 N   0  0  0  0  0  0
  -26.2955  -12.9390   20.3243 N   0  0  0  0  0  0
  -25.9341  -11.6534   20.5718 N   0  0  0  0  0  0
  -22.0471  -12.8259   22.0401 N   0  0  0  0  0  0
  -25.4191  -15.1907   20.4097 N   0  0  0  0  0  0
  -31.8124  -14.8300   20.1239 O   0  0  0  0  0  0
  -21.6638   -6.8898   21.4251 O   0  0  0  0  0  0
  -22.3546  -14.5537   20.6680 O   0  0  0  0  0  0
  -24.6327  -31.8562   23.1966 C   0  0  0  0  0  0
  -25.9151  -32.4758   23.8320 C   0  0  1  0  0  0
  -27.2240  -27.2418   20.1169 C   0  0  0  0  0  0
  -25.5958  -33.8562   24.2238 N   0  0  0  0  0  0
  -23.4310  -30.4766   21.5427 C   0  0  2  0  0  0
  -24.8787  -28.9235   20.1141 C   0  0  0  0  0  0
  -22.7526  -29.4595   22.4916 C   0  0  0  0  0  0
  -18.0298  -28.1386   22.8483 C   0  0  0  0  0  0
  -24.1493  -36.7270   23.2635 C   0  0  0  0  0  0
  -25.9819  -30.7586   21.3841 C   0  0  0  0  0  0
  -26.0556  -29.3818   20.7201 C   0  0  0  0  0  0
  -27.2309  -28.5562   20.7076 C   0  0  0  0  0  0
  -26.0135  -26.8593   19.4915 C   0  0  0  0  0  0
  -24.8640  -27.6698   19.4912 C   0  0  0  0  0  0
  -23.6517  -29.8132   20.1592 C   0  0  0  0  0  0
  -25.4128  -36.3070   24.0314 C   0  0  1  0  0  0
  -20.5902  -28.3699   23.1268 C   0  0  2  0  0  0
  -20.6792  -26.9417   22.5406 C   0  0  0  0  0  0
  -19.5760  -26.6377   21.5221 C   0  0  0  0  0  0
  -18.1945  -26.7931   22.1636 C   0  0  0  0  0  0
  -19.1558  -28.8863   23.2867 C   0  0  0  0  0  0
  -18.9480  -30.1463   23.8881 C   0  0  0  0  0  0
  -17.6480  -30.6587   24.0552 C   0  0  0  0  0  0
  -25.9077  -34.9440   23.5077 C   0  0  0  0  0  0
  -16.5365  -29.9079   23.6328 C   0  0  0  0  0  0
  -16.7289  -28.6497   23.0356 C   0  0  0  0  0  0
  -26.4499  -31.6602   25.0721 C   0  0  0  0  0  0
  -25.3696  -31.3794   26.1424 C   0  0  0  0  0  0
  -27.0348  -30.3011   24.6245 C   0  0  0  0  0  0
  -27.6042  -32.4360   25.7497 C   0  0  0  0  0  0
  -27.5582  -37.1800   24.8471 C   0  0  0  0  0  0
  -21.4232  -29.3040   22.3660 N   0  0  0  0  0  0
  -26.4306  -37.3766   23.9396 N   0  0  0  0  0  0
  -24.7005  -31.0498   22.0961 N   0  0  0  0  0  0
  -23.4228  -28.8138   23.3020 O   0  0  0  0  0  0
  -28.3158  -26.3271   20.1522 O   0  0  0  0  0  0
  -26.5647  -34.8923   22.4645 O   0  0  0  0  0  0
  -23.5469  -32.1410   23.7240 O   0  0  0  0  0  0
  -29.9706  -20.2832   19.1559 C   0  0  0  0  0  0
  -29.8664  -18.6711   20.5252 C   0  0  0  0  0  0
  -31.7053  -16.3987   23.2652 C   0  0  0  0  0  0
  -31.5598  -18.8442   22.9756 C   0  0  0  0  0  0
  -32.8729  -17.5543   21.3475 C   0  0  0  0  0  0
  -29.0924  -23.6064   20.1791 C   0  0  0  0  0  0
  -28.4829  -22.0994   20.3368 C   0  0  0  0  0  0
  -28.0250  -24.8396   20.0772 C   0  0  0  0  0  0
  -30.2560  -17.3414   21.3266 C   0  0  2  0  0  0
  -31.5784  -17.5078   22.1923 C   0  0  0  0  0  0
  -30.3669  -18.9999   19.2888 N   0  0  0  0  0  0
  -29.1708  -19.7127   21.0740 N   0  0  0  0  0  0
  -29.2796  -20.7909   20.1885 N   0  0  0  0  0  0
  -29.9237  -15.9045   20.8500 N   0  0  0  0  0  0
  -31.4782  -12.5968   19.1739 H   0  0  0  0  0  0
  -30.3813  -11.5071   19.9730 H   0  0  0  0  0  0
  -29.8054  -11.7348   17.5298 H   0  0  0  0  0  0
  -29.6317  -13.4618   17.7138 H   0  0  0  0  0  0
  -27.9267  -11.2727   18.9408 H   0  0  0  0  0  0
  -27.3838  -12.4845   17.8075 H   0  0  0  0  0  0
  -27.6350  -14.2478   19.4516 H   0  0  0  0  0  0
  -28.7341  -12.2014   21.4384 H   0  0  0  0  0  0
  -28.4114  -13.8791   21.7841 H   0  0  0  0  0  0
  -25.2770   -9.5674   22.4767 H   0  0  0  0  0  0
  -23.9996   -7.4631   22.7472 H   0  0  0  0  0  0
  -21.0833   -8.8782   19.8962 H   0  0  0  0  0  0
  -22.3699  -10.9680   19.6174 H   0  0  0  0  0  0
  -21.2038   -7.6165   23.9729 H   0  0  0  0  0  0
  -21.1460   -6.0535   25.9082 H   0  0  0  0  0  0
  -22.0603   -2.7622   23.2827 H   0  0  0  0  0  0
  -22.4078  -11.9954   22.4856 H   0  0  0  0  0  0
  -21.1077  -13.1312   22.2548 H   0  0  0  0  0  0
  -24.6380  -15.8304   20.5061 H   0  0  0  0  0  0
  -26.2510  -15.6362   20.0444 H   0  0  0  0  0  0
  -26.7216  -32.5399   23.1058 H   0  0  0  0  0  0
  -25.0115  -33.9709   25.0391 H   0  0  0  0  0  0
  -22.7269  -31.2982   21.3955 H   0  0  0  0  0  0
  -23.3768  -35.9592   23.3317 H   0  0  0  0  0  0
  -24.3571  -36.8881   22.2046 H   0  0  0  0  0  0
  -23.7246  -37.6471   23.6659 H   0  0  0  0  0  0
  -26.1341  -31.5213   20.6195 H   0  0  0  0  0  0
  -26.8538  -30.8017   22.0247 H   0  0  0  0  0  0
  -28.1301  -28.9018   21.1976 H   0  0  0  0  0  0
  -25.9073  -25.9041   19.0034 H   0  0  0  0  0  0
  -23.9617  -27.3095   19.0154 H   0  0  0  0  0  0
  -23.7833  -30.5906   19.4054 H   0  0  0  0  0  0
  -22.7693  -29.2506   19.8486 H   0  0  0  0  0  0
  -25.1313  -36.1907   25.0809 H   0  0  0  0  0  0
  -20.9990  -28.3271   24.1393 H   0  0  0  0  0  0
  -20.5724  -26.2300   23.3607 H   0  0  0  0  0  0
  -21.6652  -26.7455   22.1178 H   0  0  0  0  0  0
  -19.6917  -25.6288   21.1259 H   0  0  0  0  0  0
  -19.6685  -27.3170   20.6739 H   0  0  0  0  0  0
  -17.4207  -26.6669   21.4044 H   0  0  0  0  0  0
  -18.0342  -26.0081   22.9041 H   0  0  0  0  0  0
  -19.7954  -30.7284   24.2245 H   0  0  0  0  0  0
  -17.5031  -31.6267   24.5145 H   0  0  0  0  0  0
  -15.5371  -30.2977   23.7659 H   0  0  0  0  0  0
  -15.8692  -28.0805   22.7090 H   0  0  0  0  0  0
  -24.5834  -30.7201   25.7730 H   0  0  0  0  0  0
  -24.8938  -32.2992   26.4837 H   0  0  0  0  0  0
  -25.7966  -30.8946   27.0209 H   0  0  0  0  0  0
  -26.2944  -29.6765   24.1235 H   0  0  0  0  0  0
  -27.3980  -29.7275   25.4782 H   0  0  0  0  0  0
  -27.8843  -30.4276   23.9529 H   0  0  0  0  0  0
  -27.2637  -33.3673   26.2036 H   0  0  0  0  0  0
  -28.3861  -32.6914   25.0332 H   0  0  0  0  0  0
  -28.0696  -31.8521   26.5448 H   0  0  0  0  0  0
  -28.2609  -38.0087   24.7502 H   0  0  0  0  0  0
  -28.1076  -36.2621   24.6325 H   0  0  0  0  0  0
  -27.2296  -37.1465   25.8875 H   0  0  0  0  0  0
  -20.9433  -29.8762   21.6851 H   0  0  0  0  0  0
  -26.0183  -38.2842   24.1394 H   0  0  0  0  0  0
  -30.1534  -20.8565   18.2552 H   0  0  0  0  0  0
  -32.5625  -16.5755   23.9183 H   0  0  0  0  0  0
  -31.8420  -15.4063   22.8422 H   0  0  0  0  0  0
  -30.8247  -16.3604   23.9066 H   0  0  0  0  0  0
  -32.3897  -18.9092   23.6815 H   0  0  0  0  0  0
  -30.6422  -18.9618   23.5532 H   0  0  0  0  0  0
  -31.6480  -19.7114   22.3192 H   0  0  0  0  0  0
  -33.7299  -17.8379   21.9618 H   0  0  0  0  0  0
  -32.8022  -18.2909   20.5454 H   0  0  0  0  0  0
  -33.1421  -16.6035   20.9007 H   0  0  0  0  0  0
  -29.7243  -23.6341   19.2904 H   0  0  0  0  0  0
  -29.7650  -23.7923   21.0153 H   0  0  0  0  0  0
  -27.6749  -22.0224   19.6087 H   0  0  0  0  0  0
  -27.9824  -22.0564   21.3048 H   0  0  0  0  0  0
  -27.2682  -24.6528   20.8397 H   0  0  0  0  0  0
  -27.5378  -24.6596   19.1213 H   0  0  0  0  0  0
  -29.4962  -17.3706   22.1085 H   0  0  0  0  0  0
  -28.9441  -15.7029   20.9769 H   0  0  0  0  0  0
  1 25  1  0  0  0
  1 30  2  0  0  0
  1 84  1  0  0  0
  2  3  1  0  0  0
  2 25  1  0  0  0
  2 85  1  0  0  0
  2 86  1  0  0  0
  3  4  1  0  0  0
  3 87  1  0  0  0
  3 88  1  0  0  0
  4  5  1  0  0  0
  4 89  1  0  0  0
  4 90  1  0  0  0
  5  6  1  0  0  0
  5 26  1  0  0  0
  5 91  1  0  0  0
  6 25  1  0  0  0
  6 92  1  0  0  0
  6 93  1  0  0  0
  7  8  2  0  0  0
  7 26  1  0  0  0
  7 29  1  0  0  0
  8  9  1  0  0  0
  8 22  1  0  0  0
  9 10  1  0  0  0
  9 27  2  0  0  0
 10 11  2  0  0  0
 10 15  1  0  0  0
 11 12  1  0  0  0
 11 94  1  0  0  0
 12 13  2  0  0  0
 12 95  1  0  0  0
 13 14  1  0  0  0
 13 31  1  0  0  0
 14 15  2  0  0  0
 14 96  1  0  0  0
 15 97  1  0  0  0
 16 17  2  0  0  0
 16 21  1  0  0  0
 16 31  1  0  0  0
 17 18  1  0  0  0
 17 98  1  0  0  0
 18 19  2  0  0  0
 18 99  1  0  0  0
 19 20  1  0  0  0
 19 24  1  0  0  0
 20 21  2  0  0  0
 20100  1  0  0  0
 21 23  1  0  0  0
 22 28  1  0  0  0
 22 32  2  0  0  0
 26 27  1  0  0  0
 28101  1  0  0  0
 28102  1  0  0  0
 29103  1  0  0  0
 29104  1  0  0  0
 33 34  1  0  0  0
 33 66  1  0  0  0
 33 70  2  0  0  0
 34 36  1  0  0  0
 34 59  1  0  0  0
 34105  1  0  0  0
 35 44  2  0  0  0
 35 45  1  0  0  0
 35 68  1  0  0  0
 36 56  1  0  0  0
 36106  1  0  0  0
 37 39  1  0  0  0
 37 47  1  0  0  0
 37 66  1  0  0  0
 37107  1  0  0  0
 38 43  2  0  0  0
 38 46  1  0  0  0
 38 47  1  0  0  0
 39 64  1  0  0  0
 39 67  2  0  0  0
 40 52  1  0  0  0
 40 53  2  0  0  0
 40 58  1  0  0  0
 41108  1  0  0  0
 41109  1  0  0  0
 41110  1  0  0  0
 41 48  1  0  0  0
 42 43  1  0  0  0
 42 66  1  0  0  0
 42111  1  0  0  0
 42112  1  0  0  0
 43 44  1  0  0  0
 44113  1  0  0  0
 45 46  2  0  0  0
 45114  1  0  0  0
 46115  1  0  0  0
 47116  1  0  0  0
 47117  1  0  0  0
 48 56  1  0  0  0
 48 65  1  0  0  0
 48118  1  0  0  0
 49 50  1  0  0  0
 49 53  1  0  0  0
 49 64  1  0  0  0
 49119  1  0  0  0
 50 51  1  0  0  0
 50120  1  0  0  0
 50121  1  0  0  0
 51 52  1  0  0  0
 51122  1  0  0  0
 51123  1  0  0  0
 52124  1  0  0  0
 52125  1  0  0  0
 53 54  1  0  0  0
 54 55  2  0  0  0
 54126  1  0  0  0
 55 57  1  0  0  0
 55127  1  0  0  0
 56 69  2  0  0  0
 57 58  2  0  0  0
 57128  1  0  0  0
 58129  1  0  0  0
 59 60  1  0  0  0
 59 61  1  0  0  0
 59 62  1  0  0  0
 60130  1  0  0  0
 60131  1  0  0  0
 60132  1  0  0  0
 61133  1  0  0  0
 61134  1  0  0  0
 61135  1  0  0  0
 62136  1  0  0  0
 62137  1  0  0  0
 62138  1  0  0  0
 63 65  1  0  0  0
 63139  1  0  0  0
 63140  1  0  0  0
 63141  1  0  0  0
 64142  1  0  0  0
 65143  1  0  0  0
 68 78  1  0  0  0
 71 81  2  0  0  0
 71 83  1  0  0  0
 71144  1  0  0  0
 72 79  1  0  0  0
 72 81  1  0  0  0
 72 82  2  0  0  0
 73145  1  0  0  0
 73146  1  0  0  0
 73147  1  0  0  0
 73 80  1  0  0  0
 74 80  1  0  0  0
 74148  1  0  0  0
 74149  1  0  0  0
 74150  1  0  0  0
 75 80  1  0  0  0
 75151  1  0  0  0
 75152  1  0  0  0
 75153  1  0  0  0
 76 77  1  0  0  0
 76 78  1  0  0  0
 76154  1  0  0  0
 76155  1  0  0  0
 77 83  1  0  0  0
 77156  1  0  0  0
 77157  1  0  0  0
 78158  1  0  0  0
 78159  1  0  0  0
 79 80  1  0  0  0
 79 84  1  0  0  0
 79160  1  0  0  0
 82 83  1  0  0  0
 84161  1  0  0  0
M  ISO  4   1 100  68 101  78 101  84 100
M  END
> <chiral flag>
0

> <version>
0

> <s_m_source_file>
/data/baiqing/PycharmProjects/Reinvent-master-3.2/result/LINK_invent/BTK/process_docking_weight1_custom_sum_contain_oxygen_bond_distance_aromatic_linkinvent_7_9_3/rearranged_h_0068.sdf

> <i_m_source_file_index>
72

> <r_mmod_Potential_Energy-OPLS-2005>
164.615417480469

> <r_mmod_Stretch_Energy-OPLS-2005>
151.871002197266

> <r_mmod_Bend_Energy-OPLS-2005>
234.570129394531

> <r_mmod_Torsional_Energy-OPLS-2005>
214.856140136719

> <r_mmod_Improper_Torsional_Energy-OPLS-2005>
5.70167016983032

> <r_mmod_Van_der_Waal_Energy-OPLS-2005>
125.5478515625

> <r_mmod_Electrostatic_Energy-OPLS-2005>
-436.698883056641

> <r_mmod_Solvation_Energy-OPLS-2005>
-226.098495483398

> <b_mmod_Minimization_Converged-OPLS-2005>
0

> <r_mmod_RMS_Derivative-OPLS-2005>
2.9478862285614

$$$$
78
                    3D
 Structure written by MMmdl.
160168  0  0  1  0            999 V2000
  -30.6909  -14.5291   20.5255 C   0  0  0  0  0  0
  -30.4204  -12.3200   19.4465 C   0  0  0  0  0  0
  -29.5011  -12.4935   18.2196 C   0  0  0  0  0  0
  -28.0221  -12.3529   18.6302 C   0  0  0  0  0  0
  -27.6599  -13.2138   19.8708 C   0  0  2  0  0  0
  -28.7042  -13.0425   20.9975 C   0  0  0  0  0  0
  -25.2592  -13.8173   20.5695 C   0  0  0  0  0  0
  -24.1851  -13.0442   20.9173 C   0  0  0  0  0  0
  -24.6412  -11.6908   20.8738 C   0  0  0  0  0  0
  -23.9076  -10.4290   21.0402 C   0  0  0  0  0  0
  -24.3620   -9.4204   21.9182 C   0  0  0  0  0  0
  -23.6290   -8.2245   22.0758 C   0  0  0  0  0  0
  -22.4273   -8.0283   21.3546 C   0  0  0  0  0  0
  -21.9912   -9.0259   20.4647 C   0  0  0  0  0  0
  -22.7248  -10.2135   20.3054 C   0  0  0  0  0  0
  -21.6854   -6.0735   22.5275 C   0  0  0  0  0  0
  -21.4015   -6.5639   23.8210 C   0  0  0  0  0  0
  -21.3660   -5.6792   24.9171 C   0  0  0  0  0  0
  -21.6047   -4.3053   24.7222 C   0  0  0  0  0  0
  -21.8820   -3.8142   23.4345 C   0  0  0  0  0  0
  -21.9193   -4.6960   22.3399 C   0  0  0  0  0  0
  -22.7870  -13.5231   21.1838 C   0  0  0  0  0  0
  -22.1660   -4.2145   21.0975 F   0  0  0  0  0  0
  -21.5631   -3.4537   25.7737 F   0  0  0  0  0  0
  -30.0286  -13.3387   20.4371 N   0  0  0  0  0  0
  -26.3034  -12.9359   20.3369 N   0  0  0  0  0  0
  -25.9346  -11.6511   20.5779 N   0  0  0  0  0  0
  -22.0519  -12.8221   22.0396 N   0  0  0  0  0  0
  -25.4315  -15.1895   20.4116 N   0  0  0  0  0  0
  -31.8381  -14.6436   20.0862 O   0  0  0  0  0  0
  -21.6640   -6.8877   21.4238 O   0  0  0  0  0  0
  -22.3544  -14.5540   20.6690 O   0  0  0  0  0  0
  -24.6188  -31.8652   23.2105 C   0  0  0  0  0  0
  -25.9064  -32.4804   23.8409 C   0  0  1  0  0  0
  -27.2202  -27.3829   20.1130 C   0  0  0  0  0  0
  -25.5899  -33.8603   24.2321 N   0  0  0  0  0  0
  -23.4110  -30.4899   21.5504 C   0  0  2  0  0  0
  -24.8600  -28.9554   20.1134 C   0  0  0  0  0  0
  -22.7450  -29.4637   22.4957 C   0  0  0  0  0  0
  -18.0282  -28.1377   22.8482 C   0  0  0  0  0  0
  -24.1484  -36.7303   23.2641 C   0  0  0  0  0  0
  -25.9461  -30.8117   21.3793 C   0  0  0  0  0  0
  -26.0208  -29.4415   20.7299 C   0  0  0  0  0  0
  -27.2051  -28.6563   20.7422 C   0  0  0  0  0  0
  -26.0592  -26.9536   19.4420 C   0  0  0  0  0  0
  -24.8742  -27.7094   19.4675 C   0  0  0  0  0  0
  -23.6251  -29.8284   20.1638 C   0  0  0  0  0  0
  -25.4107  -36.3094   24.0332 C   0  0  1  0  0  0
  -20.5879  -28.3674   23.1283 C   0  0  2  0  0  0
  -20.6780  -26.9397   22.5407 C   0  0  0  0  0  0
  -19.5758  -26.6376   21.5205 C   0  0  0  0  0  0
  -18.1930  -26.7924   22.1617 C   0  0  0  0  0  0
  -19.1535  -28.8838   23.2885 C   0  0  0  0  0  0
  -18.9471  -30.1443   23.8899 C   0  0  0  0  0  0
  -17.6474  -30.6590   24.0554 C   0  0  0  0  0  0
  -25.9035  -34.9457   23.5125 C   0  0  0  0  0  0
  -16.5362  -29.9084   23.6335 C   0  0  0  0  0  0
  -16.7273  -28.6498   23.0350 C   0  0  0  0  0  0
  -26.4488  -31.6593   25.0751 C   0  0  0  0  0  0
  -25.3747  -31.3701   26.1495 C   0  0  0  0  0  0
  -27.0338  -30.3030   24.6149 C   0  0  0  0  0  0
  -27.6052  -32.4330   25.7514 C   0  0  0  0  0  0
  -27.5578  -37.1799   24.8468 C   0  0  0  0  0  0
  -21.4171  -29.3034   22.3683 N   0  0  0  0  0  0
  -26.4293  -37.3777   23.9407 N   0  0  0  0  0  0
  -24.6763  -31.0715   22.1036 N   0  0  0  0  0  0
  -23.4192  -28.8172   23.3019 O   0  0  0  0  0  0
  -28.3214  -26.5418   20.0893 O   0  0  0  0  0  0
  -26.5606  -34.8911   22.4693 O   0  0  0  0  0  0
  -23.5362  -32.1421   23.7459 O   0  0  0  0  0  0
  -28.9497  -19.3587   20.2276 C   0  0  0  0  0  0
  -30.0519  -20.2819   21.8464 C   0  0  0  0  0  0
  -29.9037  -18.4598   20.6809 C   0  0  0  0  0  0
  -26.5454  -24.2656   21.1149 C   0  0  0  0  0  0
  -28.0613  -24.1282   23.0786 C   0  0  0  0  0  0
  -30.3038  -17.0857   20.1455 C   0  0  0  0  0  0
  -30.0032  -15.8325   21.0405 C   0  0  0  0  0  0
  -28.8455  -23.1570   20.8910 C   0  0  0  0  0  0
  -28.1791  -21.7264   20.9433 C   0  0  0  0  0  0
  -28.6130  -25.8007   21.3012 C   0  0  0  0  0  0
  -28.0219  -24.3409   21.5462 C   0  0  0  0  0  0
  -30.6067  -19.0735   21.7185 N   0  0  0  0  0  0
  -29.0585  -20.5384   20.9819 N   0  0  0  0  0  0
  -31.4681  -12.3936   19.1517 H   0  0  0  0  0  0
  -30.3042  -11.3212   19.8710 H   0  0  0  0  0  0
  -29.7476  -11.7545   17.4565 H   0  0  0  0  0  0
  -29.6688  -13.4709   17.7648 H   0  0  0  0  0  0
  -27.8419  -11.2992   18.8479 H   0  0  0  0  0  0
  -27.3704  -12.6046   17.7930 H   0  0  0  0  0  0
  -27.6912  -14.2540   19.5467 H   0  0  0  0  0  0
  -28.6873  -12.0214   21.3820 H   0  0  0  0  0  0
  -28.4739  -13.6792   21.8523 H   0  0  0  0  0  0
  -25.2769   -9.5679   22.4754 H   0  0  0  0  0  0
  -23.9998   -7.4638   22.7484 H   0  0  0  0  0  0
  -21.0843   -8.8780   19.8950 H   0  0  0  0  0  0
  -22.3710  -10.9673   19.6160 H   0  0  0  0  0  0
  -21.2011   -7.6147   23.9709 H   0  0  0  0  0  0
  -21.1483   -6.0523   25.9077 H   0  0  0  0  0  0
  -22.0599   -2.7607   23.2844 H   0  0  0  0  0  0
  -22.4144  -11.9874   22.4764 H   0  0  0  0  0  0
  -21.1143  -13.1244   22.2628 H   0  0  0  0  0  0
  -24.6686  -15.8477   20.5278 H   0  0  0  0  0  0
  -26.2922  -15.6291   20.1112 H   0  0  0  0  0  0
  -26.7131  -32.5507   23.1171 H   0  0  0  0  0  0
  -25.0042  -33.9762   25.0459 H   0  0  0  0  0  0
  -22.7023  -31.3089   21.4102 H   0  0  0  0  0  0
  -23.3737  -35.9646   23.3316 H   0  0  0  0  0  0
  -24.3576  -36.8911   22.2056 H   0  0  0  0  0  0
  -23.7248  -37.6509   23.6661 H   0  0  0  0  0  0
  -26.0714  -31.5766   20.6110 H   0  0  0  0  0  0
  -26.8287  -30.8625   22.0055 H   0  0  0  0  0  0
  -28.0971  -29.0185   21.2341 H   0  0  0  0  0  0
  -26.0607  -26.0159   18.9083 H   0  0  0  0  0  0
  -23.9882  -27.3353   18.9723 H   0  0  0  0  0  0
  -23.7424  -30.6069   19.4089 H   0  0  0  0  0  0
  -22.7482  -29.2543   19.8598 H   0  0  0  0  0  0
  -25.1283  -36.1964   25.0823 H   0  0  0  0  0  0
  -20.9974  -28.3258   24.1400 H   0  0  0  0  0  0
  -20.5680  -26.2281   23.3605 H   0  0  0  0  0  0
  -21.6646  -26.7440   22.1193 H   0  0  0  0  0  0
  -19.6912  -25.6286   21.1236 H   0  0  0  0  0  0
  -19.6691  -27.3188   20.6734 H   0  0  0  0  0  0
  -17.4196  -26.6661   21.4023 H   0  0  0  0  0  0
  -18.0332  -26.0071   22.9022 H   0  0  0  0  0  0
  -19.7957  -30.7249   24.2268 H   0  0  0  0  0  0
  -17.5041  -31.6271   24.5156 H   0  0  0  0  0  0
  -15.5362  -30.2984   23.7671 H   0  0  0  0  0  0
  -15.8673  -28.0823   22.7058 H   0  0  0  0  0  0
  -24.5921  -30.7045   25.7833 H   0  0  0  0  0  0
  -24.8937  -32.2852   26.4954 H   0  0  0  0  0  0
  -25.8098  -30.8870   27.0253 H   0  0  0  0  0  0
  -26.2891  -29.6763   24.1224 H   0  0  0  0  0  0
  -27.4123  -29.7297   25.4622 H   0  0  0  0  0  0
  -27.8726  -30.4340   23.9308 H   0  0  0  0  0  0
  -27.2661  -33.3630   26.2096 H   0  0  0  0  0  0
  -28.3862  -32.6886   25.0340 H   0  0  0  0  0  0
  -28.0721  -31.8455   26.5431 H   0  0  0  0  0  0
  -28.2591  -38.0099   24.7511 H   0  0  0  0  0  0
  -28.1075  -36.2626   24.6305 H   0  0  0  0  0  0
  -27.2293  -37.1464   25.8870 H   0  0  0  0  0  0
  -20.9341  -29.8758   21.6898 H   0  0  0  0  0  0
  -26.0181  -38.2850   24.1418 H   0  0  0  0  0  0
  -28.2158  -19.2569   19.4376 H   0  0  0  0  0  0
  -30.3604  -20.9905   22.6026 H   0  0  0  0  0  0
  -26.0424  -23.3829   21.5080 H   0  0  0  0  0  0
  -26.4603  -24.2182   20.0317 H   0  0  0  0  0  0
  -25.9800  -25.1251   21.4755 H   0  0  0  0  0  0
  -27.6329  -23.1749   23.3858 H   0  0  0  0  0  0
  -27.4988  -24.9005   23.6053 H   0  0  0  0  0  0
  -29.0831  -24.1571   23.4586 H   0  0  0  0  0  0
  -31.3702  -17.1181   19.9207 H   0  0  0  0  0  0
  -29.8284  -16.9279   19.1765 H   0  0  0  0  0  0
  -28.9245  -15.7145   21.1167 H   0  0  0  0  0  0
  -30.3706  -16.0116   22.0506 H   0  0  0  0  0  0
  -29.0475  -23.3976   19.8467 H   0  0  0  0  0  0
  -29.8263  -23.1165   21.3656 H   0  0  0  0  0  0
  -27.4989  -21.6208   20.0975 H   0  0  0  0  0  0
  -27.5465  -21.6385   21.8243 H   0  0  0  0  0  0
  -29.6992  -25.7377   21.3718 H   0  0  0  0  0  0
  -28.3294  -26.4454   22.1355 H   0  0  0  0  0  0
  1 25  1  0  0  0
  1 30  2  0  0  0
  1 77  1  0  0  0
  2  3  1  0  0  0
  2 25  1  0  0  0
  2 84  1  0  0  0
  2 85  1  0  0  0
  3  4  1  0  0  0
  3 86  1  0  0  0
  3 87  1  0  0  0
  4  5  1  0  0  0
  4 88  1  0  0  0
  4 89  1  0  0  0
  5  6  1  0  0  0
  5 26  1  0  0  0
  5 90  1  0  0  0
  6 25  1  0  0  0
  6 91  1  0  0  0
  6 92  1  0  0  0
  7  8  2  0  0  0
  7 26  1  0  0  0
  7 29  1  0  0  0
  8  9  1  0  0  0
  8 22  1  0  0  0
  9 10  1  0  0  0
  9 27  2  0  0  0
 10 11  2  0  0  0
 10 15  1  0  0  0
 11 12  1  0  0  0
 11 93  1  0  0  0
 12 13  2  0  0  0
 12 94  1  0  0  0
 13 14  1  0  0  0
 13 31  1  0  0  0
 14 15  2  0  0  0
 14 95  1  0  0  0
 15 96  1  0  0  0
 16 17  2  0  0  0
 16 21  1  0  0  0
 16 31  1  0  0  0
 17 18  1  0  0  0
 17 97  1  0  0  0
 18 19  2  0  0  0
 18 98  1  0  0  0
 19 20  1  0  0  0
 19 24  1  0  0  0
 20 21  2  0  0  0
 20 99  1  0  0  0
 21 23  1  0  0  0
 22 28  1  0  0  0
 22 32  2  0  0  0
 26 27  1  0  0  0
 28100  1  0  0  0
 28101  1  0  0  0
 29102  1  0  0  0
 29103  1  0  0  0
 33 34  1  0  0  0
 33 66  1  0  0  0
 33 70  2  0  0  0
 34 36  1  0  0  0
 34 59  1  0  0  0
 34104  1  0  0  0
 35 44  2  0  0  0
 35 45  1  0  0  0
 35 68  1  0  0  0
 36 56  1  0  0  0
 36105  1  0  0  0
 37 39  1  0  0  0
 37 47  1  0  0  0
 37 66  1  0  0  0
 37106  1  0  0  0
 38 43  2  0  0  0
 38 46  1  0  0  0
 38 47  1  0  0  0
 39 64  1  0  0  0
 39 67  2  0  0  0
 40 52  1  0  0  0
 40 53  2  0  0  0
 40 58  1  0  0  0
 41107  1  0  0  0
 41108  1  0  0  0
 41109  1  0  0  0
 41 48  1  0  0  0
 42 43  1  0  0  0
 42 66  1  0  0  0
 42110  1  0  0  0
 42111  1  0  0  0
 43 44  1  0  0  0
 44112  1  0  0  0
 45 46  2  0  0  0
 45113  1  0  0  0
 46114  1  0  0  0
 47115  1  0  0  0
 47116  1  0  0  0
 48 56  1  0  0  0
 48 65  1  0  0  0
 48117  1  0  0  0
 49 50  1  0  0  0
 49 53  1  0  0  0
 49 64  1  0  0  0
 49118  1  0  0  0
 50 51  1  0  0  0
 50119  1  0  0  0
 50120  1  0  0  0
 51 52  1  0  0  0
 51121  1  0  0  0
 51122  1  0  0  0
 52123  1  0  0  0
 52124  1  0  0  0
 53 54  1  0  0  0
 54 55  2  0  0  0
 54125  1  0  0  0
 55 57  1  0  0  0
 55126  1  0  0  0
 56 69  2  0  0  0
 57 58  2  0  0  0
 57127  1  0  0  0
 58128  1  0  0  0
 59 60  1  0  0  0
 59 61  1  0  0  0
 59 62  1  0  0  0
 60129  1  0  0  0
 60130  1  0  0  0
 60131  1  0  0  0
 61132  1  0  0  0
 61133  1  0  0  0
 61134  1  0  0  0
 62135  1  0  0  0
 62136  1  0  0  0
 62137  1  0  0  0
 63 65  1  0  0  0
 63138  1  0  0  0
 63139  1  0  0  0
 63140  1  0  0  0
 64141  1  0  0  0
 65142  1  0  0  0
 68 80  1  0  0  0
 71 73  2  0  0  0
 71 83  1  0  0  0
 71143  1  0  0  0
 72 82  2  0  0  0
 72 83  1  0  0  0
 72144  1  0  0  0
 73 76  1  0  0  0
 73 82  1  0  0  0
 74145  1  0  0  0
 74146  1  0  0  0
 74147  1  0  0  0
 74 81  1  0  0  0
 75 81  1  0  0  0
 75148  1  0  0  0
 75149  1  0  0  0
 75150  1  0  0  0
 76 77  1  0  0  0
 76151  1  0  0  0
 76152  1  0  0  0
 77153  1  0  0  0
 77154  1  0  0  0
 78 79  1  0  0  0
 78 81  1  0  0  0
 78155  1  0  0  0
 78156  1  0  0  0
 79 83  1  0  0  0
 79157  1  0  0  0
 79158  1  0  0  0
 80 81  1  0  0  0
 80159  1  0  0  0
 80160  1  0  0  0
M  ISO  4   1 100  68 101  77 100  80 101
M  END
> <chiral flag>
0

> <version>
0

> <s_m_source_file>
/data/baiqing/PycharmProjects/Reinvent-master-3.2/result/LINK_invent/BTK/process_docking_weight1_custom_sum_contain_oxygen_bond_distance_aromatic_linkinvent_7_9_3/rearranged_h_0068.sdf

> <i_m_source_file_index>
73

> <r_mmod_Potential_Energy-OPLS-2005>
-22.1524391174316

> <r_mmod_Stretch_Energy-OPLS-2005>
53.5883827209473

> <r_mmod_Bend_Energy-OPLS-2005>
131.160430908203

> <r_mmod_Torsional_Energy-OPLS-2005>
221.0927734375

> <r_mmod_Improper_Torsional_Energy-OPLS-2005>
3.79373502731323

> <r_mmod_Van_der_Waal_Energy-OPLS-2005>
123.86385345459

> <r_mmod_Electrostatic_Energy-OPLS-2005>
-372.183258056641

> <r_mmod_Solvation_Energy-OPLS-2005>
-208.658645629883

> <b_mmod_Minimization_Converged-OPLS-2005>
0

> <r_mmod_RMS_Derivative-OPLS-2005>
1.49069857597351

$$$$
79
                    3D
 Structure written by MMmdl.
173181  0  0  1  0            999 V2000
  -30.7659  -14.3755   20.6217 C   0  0  0  0  0  0
  -30.4234  -12.2730   19.3957 C   0  0  0  0  0  0
  -29.4881  -12.5015   18.1932 C   0  0  0  0  0  0
  -28.0079  -12.3918   18.6100 C   0  0  0  0  0  0
  -27.6707  -13.2124   19.8826 C   0  0  2  0  0  0
  -28.7161  -12.9536   20.9904 C   0  0  0  0  0  0
  -25.2630  -13.8209   20.5687 C   0  0  0  0  0  0
  -24.1877  -13.0463   20.9186 C   0  0  0  0  0  0
  -24.6435  -11.6944   20.8752 C   0  0  0  0  0  0
  -23.9109  -10.4311   21.0401 C   0  0  0  0  0  0
  -24.3661   -9.4231   21.9178 C   0  0  0  0  0  0
  -23.6323   -8.2278   22.0757 C   0  0  0  0  0  0
  -22.4302   -8.0309   21.3561 C   0  0  0  0  0  0
  -21.9948   -9.0286   20.4663 C   0  0  0  0  0  0
  -22.7283  -10.2161   20.3052 C   0  0  0  0  0  0
  -21.6864   -6.0756   22.5296 C   0  0  0  0  0  0
  -21.4016   -6.5653   23.8232 C   0  0  0  0  0  0
  -21.3659   -5.6799   24.9188 C   0  0  0  0  0  0
  -21.6051   -4.3066   24.7225 C   0  0  0  0  0  0
  -21.8818   -3.8159   23.4345 C   0  0  0  0  0  0
  -21.9190   -4.6979   22.3408 C   0  0  0  0  0  0
  -22.7908  -13.5268   21.1825 C   0  0  0  0  0  0
  -22.1668   -4.2169   21.0986 F   0  0  0  0  0  0
  -21.5620   -3.4549   25.7735 F   0  0  0  0  0  0
  -30.0557  -13.2364   20.4408 N   0  0  0  0  0  0
  -26.3088  -12.9385   20.3439 N   0  0  0  0  0  0
  -25.9376  -11.6541   20.5836 N   0  0  0  0  0  0
  -22.0545  -12.8254   22.0385 N   0  0  0  0  0  0
  -25.4311  -15.1911   20.4048 N   0  0  0  0  0  0
  -31.8474  -14.6045   20.0728 O   0  0  0  0  0  0
  -21.6653   -6.8909   21.4264 O   0  0  0  0  0  0
  -22.3596  -14.5568   20.6678 O   0  0  0  0  0  0
  -24.6141  -31.8709   23.2103 C   0  0  0  0  0  0
  -25.9040  -32.4841   23.8395 C   0  0  1  0  0  0
  -27.2397  -27.4808   20.0621 C   0  0  0  0  0  0
  -25.5919  -33.8632   24.2348 N   0  0  0  0  0  0
  -23.3988  -30.4939   21.5531 C   0  0  2  0  0  0
  -24.8419  -28.9637   20.1143 C   0  0  0  0  0  0
  -22.7407  -29.4665   22.5028 C   0  0  0  0  0  0
  -18.0270  -28.1386   22.8509 C   0  0  0  0  0  0
  -24.1457  -36.7260   23.2629 C   0  0  0  0  0  0
  -25.9228  -30.8533   21.3458 C   0  0  0  0  0  0
  -26.0034  -29.4915   20.6901 C   0  0  0  0  0  0
  -27.2104  -28.7623   20.6489 C   0  0  0  0  0  0
  -26.0579  -26.9511   19.4976 C   0  0  0  0  0  0
  -24.8605  -27.6893   19.5214 C   0  0  0  0  0  0
  -23.6021  -29.8262   20.1665 C   0  0  0  0  0  0
  -25.4090  -36.3118   24.0343 C   0  0  1  0  0  0
  -20.5854  -28.3647   23.1353 C   0  0  2  0  0  0
  -20.6752  -26.9383   22.5448 C   0  0  0  0  0  0
  -19.5727  -26.6392   21.5242 C   0  0  0  0  0  0
  -18.1907  -26.7931   22.1644 C   0  0  0  0  0  0
  -19.1518  -28.8835   23.2920 C   0  0  0  0  0  0
  -18.9453  -30.1443   23.8917 C   0  0  0  0  0  0
  -17.6446  -30.6581   24.0573 C   0  0  0  0  0  0
  -25.9035  -34.9483   23.5136 C   0  0  0  0  0  0
  -16.5337  -29.9098   23.6319 C   0  0  0  0  0  0
  -16.7254  -28.6516   23.0355 C   0  0  0  0  0  0
  -26.4476  -31.6596   25.0684 C   0  0  0  0  0  0
  -25.3759  -31.3691   26.1449 C   0  0  0  0  0  0
  -27.0254  -30.3043   24.5965 C   0  0  0  0  0  0
  -27.6078  -32.4292   25.7446 C   0  0  0  0  0  0
  -27.5575  -37.1782   24.8481 C   0  0  0  0  0  0
  -21.4133  -29.3007   22.3762 N   0  0  0  0  0  0
  -26.4284  -37.3813   23.9436 N   0  0  0  0  0  0
  -24.6648  -31.0846   22.0972 N   0  0  0  0  0  0
  -23.4198  -28.8214   23.3057 O   0  0  0  0  0  0
  -28.4287  -26.7930   20.0323 O   0  0  0  0  0  0
  -26.5586  -34.8946   22.4689 O   0  0  0  0  0  0
  -23.5342  -32.1439   23.7532 O   0  0  0  0  0  0
  -28.3875  -18.5667   21.8822 C   0  0  0  0  0  0
  -29.4571  -18.8355   21.0195 C   0  0  0  0  0  0
  -27.6320  -19.6530   22.3327 C   0  0  0  0  0  0
  -28.9317  -21.0575   21.0914 C   0  0  0  0  0  0
  -25.7634  -17.2686   23.5560 C   0  0  0  0  0  0
  -27.6416  -18.2332   25.0132 C   0  0  0  0  0  0
  -31.6687  -18.2573   19.9277 C   0  0  0  0  0  0
  -29.5521  -17.0946   19.2515 C   0  0  0  0  0  0
  -29.2797  -22.4788   20.6998 C   0  0  0  0  0  0
  -28.4099  -23.0064   19.5423 C   0  0  0  0  0  0
  -28.6347  -24.4916   19.2008 C   0  0  0  0  0  0
  -30.6789  -16.6595   21.5835 C   0  0  0  0  0  0
  -28.3760  -25.4196   20.4006 C   0  0  0  0  0  0
  -26.4051  -18.5324   24.1489 C   0  0  0  0  0  0
  -30.3225  -17.6975   20.4511 C   0  0  0  0  0  0
  -29.6900  -20.0924   20.5935 N   0  0  0  0  0  0
  -27.9054  -20.8991   21.9176 N   0  0  0  0  0  0
  -30.1724  -15.3004   21.3755 N   0  0  0  0  0  0
  -26.5747  -19.6025   23.2129 O   0  0  0  0  0  0
  -31.4663  -12.3698   19.0838 H   0  0  0  0  0  0
  -30.3271  -11.2561   19.7780 H   0  0  0  0  0  0
  -29.7065  -11.7770   17.4072 H   0  0  0  0  0  0
  -29.6778  -13.4847   17.7613 H   0  0  0  0  0  0
  -27.7918  -11.3384   18.7887 H   0  0  0  0  0  0
  -27.3650  -12.7024   17.7846 H   0  0  0  0  0  0
  -27.7261  -14.2671   19.6158 H   0  0  0  0  0  0
  -28.6803  -11.9125   21.3110 H   0  0  0  0  0  0
  -28.4863  -13.5322   21.8861 H   0  0  0  0  0  0
  -25.2816   -9.5706   22.4744 H   0  0  0  0  0  0
  -24.0036   -7.4680   22.7481 H   0  0  0  0  0  0
  -21.0873   -8.8818   19.8975 H   0  0  0  0  0  0
  -22.3755  -10.9699   19.6158 H   0  0  0  0  0  0
  -21.2019   -7.6162   23.9747 H   0  0  0  0  0  0
  -21.1478   -6.0521   25.9099 H   0  0  0  0  0  0
  -22.0585   -2.7623   23.2835 H   0  0  0  0  0  0
  -22.4151  -11.9908   22.4770 H   0  0  0  0  0  0
  -21.1175  -13.1315   22.2599 H   0  0  0  0  0  0
  -24.6590  -15.8391   20.5108 H   0  0  0  0  0  0
  -26.2743  -15.6360   20.0676 H   0  0  0  0  0  0
  -26.7109  -32.5535   23.1167 H   0  0  0  0  0  0
  -25.0191  -33.9803   25.0582 H   0  0  0  0  0  0
  -22.6825  -31.3061   21.4212 H   0  0  0  0  0  0
  -23.3759  -35.9549   23.3328 H   0  0  0  0  0  0
  -24.3540  -36.8820   22.2037 H   0  0  0  0  0  0
  -23.7159  -37.6461   23.6585 H   0  0  0  0  0  0
  -26.0139  -31.6207   20.5756 H   0  0  0  0  0  0
  -26.8193  -30.9161   21.9507 H   0  0  0  0  0  0
  -28.1183  -29.1805   21.0614 H   0  0  0  0  0  0
  -26.0574  -25.9791   19.0281 H   0  0  0  0  0  0
  -23.9624  -27.2730   19.0856 H   0  0  0  0  0  0
  -23.7055  -30.5990   19.4043 H   0  0  0  0  0  0
  -22.7254  -29.2467   19.8735 H   0  0  0  0  0  0
  -25.1255  -36.2002   25.0832 H   0  0  0  0  0  0
  -20.9953  -28.3203   24.1472 H   0  0  0  0  0  0
  -20.5689  -26.2232   23.3621 H   0  0  0  0  0  0
  -21.6622  -26.7450   22.1218 H   0  0  0  0  0  0
  -19.6870  -25.6326   21.1224 H   0  0  0  0  0  0
  -19.6666  -27.3236   20.6800 H   0  0  0  0  0  0
  -17.4193  -26.6717   21.4026 H   0  0  0  0  0  0
  -18.0265  -26.0073   22.9030 H   0  0  0  0  0  0
  -19.7921  -30.7276   24.2287 H   0  0  0  0  0  0
  -17.4995  -31.6259   24.5185 H   0  0  0  0  0  0
  -15.5338  -30.3015   23.7616 H   0  0  0  0  0  0
  -15.8660  -28.0842   22.7060 H   0  0  0  0  0  0
  -24.5918  -30.7058   25.7788 H   0  0  0  0  0  0
  -24.8980  -32.2853   26.4919 H   0  0  0  0  0  0
  -25.8148  -30.8851   27.0186 H   0  0  0  0  0  0
  -26.2744  -29.6856   24.1051 H   0  0  0  0  0  0
  -27.4098  -29.7208   25.4343 H   0  0  0  0  0  0
  -27.8538  -30.4369   23.9006 H   0  0  0  0  0  0
  -27.2703  -33.3563   26.2082 H   0  0  0  0  0  0
  -28.3863  -32.6908   25.0264 H   0  0  0  0  0  0
  -28.0760  -31.8377   26.5324 H   0  0  0  0  0  0
  -28.2637  -38.0050   24.7558 H   0  0  0  0  0  0
  -28.1035  -36.2600   24.6280 H   0  0  0  0  0  0
  -27.2286  -37.1400   25.8883 H   0  0  0  0  0  0
  -20.9293  -29.8712   21.6974 H   0  0  0  0  0  0
  -26.0174  -38.2867   24.1530 H   0  0  0  0  0  0
  -28.1682  -17.5574   22.1747 H   0  0  0  0  0  0
  -25.3870  -16.6264   24.3545 H   0  0  0  0  0  0
  -26.4538  -16.6676   22.9705 H   0  0  0  0  0  0
  -24.9214  -17.5213   22.9147 H   0  0  0  0  0  0
  -27.3901  -17.5444   25.8194 H   0  0  0  0  0  0
  -28.0317  -19.1382   25.4730 H   0  0  0  0  0  0
  -28.4470  -17.7752   24.4413 H   0  0  0  0  0  0
  -31.5196  -18.9561   19.1040 H   0  0  0  0  0  0
  -32.3104  -17.4605   19.5529 H   0  0  0  0  0  0
  -32.2184  -18.7847   20.7085 H   0  0  0  0  0  0
  -28.6103  -16.6439   19.5656 H   0  0  0  0  0  0
  -30.1289  -16.3353   18.7257 H   0  0  0  0  0  0
  -29.3114  -17.8643   18.5171 H   0  0  0  0  0  0
  -30.3414  -22.5513   20.4511 H   0  0  0  0  0  0
  -29.1432  -23.0845   21.5954 H   0  0  0  0  0  0
  -28.5873  -22.3934   18.6591 H   0  0  0  0  0  0
  -27.3571  -22.8728   19.7934 H   0  0  0  0  0  0
  -27.9649  -24.7671   18.3863 H   0  0  0  0  0  0
  -29.6431  -24.6412   18.8135 H   0  0  0  0  0  0
  -30.3304  -16.9872   22.5616 H   0  0  0  0  0  0
  -31.7597  -16.6044   21.7338 H   0  0  0  0  0  0
  -29.1567  -25.2825   21.1479 H   0  0  0  0  0  0
  -27.4366  -25.1550   20.8917 H   0  0  0  0  0  0
  -25.6637  -18.9467   24.8323 H   0  0  0  0  0  0
  -29.2876  -15.0539   21.7944 H   0  0  0  0  0  0
  1 25  1  0  0  0
  1 30  2  0  0  0
  1 88  1  0  0  0
  2  3  1  0  0  0
  2 25  1  0  0  0
  2 90  1  0  0  0
  2 91  1  0  0  0
  3  4  1  0  0  0
  3 92  1  0  0  0
  3 93  1  0  0  0
  4  5  1  0  0  0
  4 94  1  0  0  0
  4 95  1  0  0  0
  5  6  1  0  0  0
  5 26  1  0  0  0
  5 96  1  0  0  0
  6 25  1  0  0  0
  6 97  1  0  0  0
  6 98  1  0  0  0
  7  8  2  0  0  0
  7 26  1  0  0  0
  7 29  1  0  0  0
  8  9  1  0  0  0
  8 22  1  0  0  0
  9 10  1  0  0  0
  9 27  2  0  0  0
 10 11  2  0  0  0
 10 15  1  0  0  0
 11 12  1  0  0  0
 11 99  1  0  0  0
 12 13  2  0  0  0
 12100  1  0  0  0
 13 14  1  0  0  0
 13 31  1  0  0  0
 14 15  2  0  0  0
 14101  1  0  0  0
 15102  1  0  0  0
 16 17  2  0  0  0
 16 21  1  0  0  0
 16 31  1  0  0  0
 17 18  1  0  0  0
 17103  1  0  0  0
 18 19  2  0  0  0
 18104  1  0  0  0
 19 20  1  0  0  0
 19 24  1  0  0  0
 20 21  2  0  0  0
 20105  1  0  0  0
 21 23  1  0  0  0
 22 28  1  0  0  0
 22 32  2  0  0  0
 26 27  1  0  0  0
 28106  1  0  0  0
 28107  1  0  0  0
 29108  1  0  0  0
 29109  1  0  0  0
 33 34  1  0  0  0
 33 66  1  0  0  0
 33 70  2  0  0  0
 34 36  1  0  0  0
 34 59  1  0  0  0
 34110  1  0  0  0
 35 44  2  0  0  0
 35 45  1  0  0  0
 35 68  1  0  0  0
 36 56  1  0  0  0
 36111  1  0  0  0
 37 39  1  0  0  0
 37 47  1  0  0  0
 37 66  1  0  0  0
 37112  1  0  0  0
 38 43  2  0  0  0
 38 46  1  0  0  0
 38 47  1  0  0  0
 39 64  1  0  0  0
 39 67  2  0  0  0
 40 52  1  0  0  0
 40 53  2  0  0  0
 40 58  1  0  0  0
 41113  1  0  0  0
 41114  1  0  0  0
 41115  1  0  0  0
 41 48  1  0  0  0
 42 43  1  0  0  0
 42 66  1  0  0  0
 42116  1  0  0  0
 42117  1  0  0  0
 43 44  1  0  0  0
 44118  1  0  0  0
 45 46  2  0  0  0
 45119  1  0  0  0
 46120  1  0  0  0
 47121  1  0  0  0
 47122  1  0  0  0
 48 56  1  0  0  0
 48 65  1  0  0  0
 48123  1  0  0  0
 49 50  1  0  0  0
 49 53  1  0  0  0
 49 64  1  0  0  0
 49124  1  0  0  0
 50 51  1  0  0  0
 50125  1  0  0  0
 50126  1  0  0  0
 51 52  1  0  0  0
 51127  1  0  0  0
 51128  1  0  0  0
 52129  1  0  0  0
 52130  1  0  0  0
 53 54  1  0  0  0
 54 55  2  0  0  0
 54131  1  0  0  0
 55 57  1  0  0  0
 55132  1  0  0  0
 56 69  2  0  0  0
 57 58  2  0  0  0
 57133  1  0  0  0
 58134  1  0  0  0
 59 60  1  0  0  0
 59 61  1  0  0  0
 59 62  1  0  0  0
 60135  1  0  0  0
 60136  1  0  0  0
 60137  1  0  0  0
 61138  1  0  0  0
 61139  1  0  0  0
 61140  1  0  0  0
 62141  1  0  0  0
 62142  1  0  0  0
 62143  1  0  0  0
 63 65  1  0  0  0
 63144  1  0  0  0
 63145  1  0  0  0
 63146  1  0  0  0
 64147  1  0  0  0
 65148  1  0  0  0
 68 83  1  0  0  0
 71 72  2  0  0  0
 71 73  1  0  0  0
 71149  1  0  0  0
 72 85  1  0  0  0
 72 86  1  0  0  0
 73 87  2  0  0  0
 73 89  1  0  0  0
 74 79  1  0  0  0
 74 86  2  0  0  0
 74 87  1  0  0  0
 75150  1  0  0  0
 75151  1  0  0  0
 75152  1  0  0  0
 75 84  1  0  0  0
 76 84  1  0  0  0
 76153  1  0  0  0
 76154  1  0  0  0
 76155  1  0  0  0
 77156  1  0  0  0
 77157  1  0  0  0
 77158  1  0  0  0
 77 85  1  0  0  0
 78 85  1  0  0  0
 78159  1  0  0  0
 78160  1  0  0  0
 78161  1  0  0  0
 79 80  1  0  0  0
 79162  1  0  0  0
 79163  1  0  0  0
 80 81  1  0  0  0
 80164  1  0  0  0
 80165  1  0  0  0
 81 83  1  0  0  0
 81166  1  0  0  0
 81167  1  0  0  0
 82 85  1  0  0  0
 82 88  1  0  0  0
 82168  1  0  0  0
 82169  1  0  0  0
 83170  1  0  0  0
 83171  1  0  0  0
 84 89  1  0  0  0
 84172  1  0  0  0
 88173  1  0  0  0
M  ISO  4   1 100  68 101  83 101  88 100
M  END
> <chiral flag>
0

> <version>
0

> <s_m_source_file>
/data/baiqing/PycharmProjects/Reinvent-master-3.2/result/LINK_invent/BTK/process_docking_weight1_custom_sum_contain_oxygen_bond_distance_aromatic_linkinvent_7_9_3/rearranged_h_0068.sdf

> <i_m_source_file_index>
74

> <r_mmod_Potential_Energy-OPLS-2005>
-502.191375732422

> <r_mmod_Stretch_Energy-OPLS-2005>
35.3289184570312

> <r_mmod_Bend_Energy-OPLS-2005>
125.763824462891

> <r_mmod_Torsional_Energy-OPLS-2005>
219.86540222168

> <r_mmod_Improper_Torsional_Energy-OPLS-2005>
2.57309293746948

> <r_mmod_Van_der_Waal_Energy-OPLS-2005>
173.448715209961

> <r_mmod_Electrostatic_Energy-OPLS-2005>
-845.417297363281

> <r_mmod_Solvation_Energy-OPLS-2005>
-222.275970458984

> <b_mmod_Minimization_Converged-OPLS-2005>
0

> <r_mmod_RMS_Derivative-OPLS-2005>
3.93630909919739

$$$$
80
                    3D
 Structure written by MMmdl.
168176  0  0  1  0            999 V2000
  -29.8844  -16.7402   20.2677 C   0  0  0  0  0  0
  -30.3136  -13.9005   19.5680 C   0  0  0  0  0  0
  -29.5892  -13.0217   18.4491 C   0  0  0  0  0  0
  -28.2750  -12.4149   18.9393 C   0  0  0  0  0  0
  -27.5867  -13.4598   19.8261 C   0  0  2  0  0  0
  -28.4986  -14.2214   20.8735 C   0  0  0  0  0  0
  -25.2221  -13.8553   20.5966 C   0  0  0  0  0  0
  -24.1740  -13.0503   20.9342 C   0  0  0  0  0  0
  -24.6630  -11.7075   20.8702 C   0  0  0  0  0  0
  -23.9330  -10.4364   21.0315 C   0  0  0  0  0  0
  -24.3788   -9.4262   21.9130 C   0  0  0  0  0  0
  -23.6398   -8.2321   22.0744 C   0  0  0  0  0  0
  -22.4380   -8.0348   21.3542 C   0  0  0  0  0  0
  -22.0070   -9.0336   20.4633 C   0  0  0  0  0  0
  -22.7461  -10.2191   20.3005 C   0  0  0  0  0  0
  -21.6890   -6.0787   22.5287 C   0  0  0  0  0  0
  -21.4021   -6.5662   23.8222 C   0  0  0  0  0  0
  -21.3666   -5.6803   24.9177 C   0  0  0  0  0  0
  -21.6055   -4.3067   24.7220 C   0  0  0  0  0  0
  -21.8811   -3.8172   23.4332 C   0  0  0  0  0  0
  -21.9200   -4.7006   22.3398 C   0  0  0  0  0  0
  -22.7699  -13.5110   21.1927 C   0  0  0  0  0  0
  -22.1659   -4.2180   21.0977 F   0  0  0  0  0  0
  -21.5635   -3.4546   25.7730 F   0  0  0  0  0  0
  -29.5202  -15.1637   20.2084 N   0  0  0  0  0  0
  -26.2907  -13.0211   20.3503 N   0  0  0  0  0  0
  -25.9651  -11.7099   20.5623 N   0  0  0  0  0  0
  -22.0380  -12.8059   22.0460 N   0  0  0  0  0  0
  -25.3535  -15.2328   20.4379 N   0  0  0  0  0  0
  -31.1197  -16.4810   20.0821 O   0  0  0  0  0  0
  -21.6693   -6.8965   21.4266 O   0  0  0  0  0  0
  -22.3335  -14.5396   20.6773 O   0  0  0  0  0  0
  -24.7573  -31.7132   23.0944 C   0  0  0  0  0  0
  -25.9811  -32.4036   23.7715 C   0  0  1  0  0  0
  -27.2372  -25.9302   20.2118 C   0  0  0  0  0  0
  -25.6060  -33.7904   24.1534 N   0  0  0  0  0  0
  -23.6050  -30.3009   21.4711 C   0  0  2  0  0  0
  -25.0593  -28.4957   20.1349 C   0  0  0  0  0  0
  -22.8026  -29.3961   22.4513 C   0  0  0  0  0  0
  -18.0381  -28.1485   22.8358 C   0  0  0  0  0  0
  -24.1493  -36.7002   23.2656 C   0  0  0  0  0  0
  -26.2128  -30.1844   21.4749 C   0  0  0  0  0  0
  -26.2638  -28.6665   20.8278 C   0  0  0  0  0  0
  -27.2925  -27.4506   20.8243 C   0  0  0  0  0  0
  -25.9786  -26.1956   19.4986 C   0  0  0  0  0  0
  -25.0071  -27.2775   19.4402 C   0  0  0  0  0  0
  -23.8911  -29.5468   20.1346 C   0  0  0  0  0  0
  -25.4159  -36.2641   24.0208 C   0  0  1  0  0  0
  -20.6037  -28.3905   23.0952 C   0  0  2  0  0  0
  -20.6827  -26.9498   22.5372 C   0  0  0  0  0  0
  -19.5829  -26.6367   21.5170 C   0  0  0  0  0  0
  -18.2002  -26.7987   22.1562 C   0  0  0  0  0  0
  -19.1656  -28.9024   23.2622 C   0  0  0  0  0  0
  -18.9576  -30.1575   23.8722 C   0  0  0  0  0  0
  -17.6570  -30.6640   24.0546 C   0  0  0  0  0  0
  -25.9190  -34.9059   23.4775 C   0  0  0  0  0  0
  -16.5445  -29.9121   23.6370 C   0  0  0  0  0  0
  -16.7358  -28.6548   23.0357 C   0  0  0  0  0  0
  -26.4752  -31.6383   25.0663 C   0  0  0  0  0  0
  -25.3604  -31.3928   26.1133 C   0  0  0  0  0  0
  -27.0817  -30.2640   24.7122 C   0  0  0  0  0  0
  -27.6046  -32.4410   25.7562 C   0  0  0  0  0  0
  -27.5542  -37.1621   24.8429 C   0  0  0  0  0  0
  -21.4615  -29.3042   22.3211 N   0  0  0  0  0  0
  -26.4213  -37.3505   23.9413 N   0  0  0  0  0  0
  -24.8957  -30.7823   22.0626 N   0  0  0  0  0  0
  -23.4128  -28.7686   23.3192 O   0  0  0  0  0  0
  -28.0156  -24.2671   20.1906 O   0  0  0  0  0  0
  -26.5963  -34.8799   22.4484 O   0  0  0  0  0  0
  -23.6434  -32.0598   23.5437 O   0  0  0  0  0  0
  -29.5814  -22.4150   19.5009 C   0  0  0  0  0  0
  -28.7253  -21.0995   20.2505 C   0  0  0  0  0  0
  -26.4537  -23.0592   19.4105 C   0  0  0  0  0  0
  -27.4433  -24.0698   18.1962 C   0  0  0  0  0  0
  -26.4575  -22.0828   13.7861 C   0  0  0  0  0  0
  -30.4057  -19.2236   21.5414 C   0  0  0  0  0  0
  -27.9825  -18.5856   21.5470 C   0  0  0  0  0  0
  -25.3306  -22.3837   18.7296 C   0  0  0  0  0  0
  -26.3908  -23.3732   14.6161 C   0  0  0  0  0  0
  -26.2237  -21.3909   17.9952 C   0  0  0  0  0  0
  -27.7981  -23.8999   14.9683 C   0  0  0  0  0  0
  -27.7228  -21.8869   18.1832 C   0  0  0  0  0  0
  -27.7859  -25.0482   15.9990 C   0  0  0  0  0  0
  -29.1899  -18.9016   20.6396 C   0  0  0  0  0  0
  -29.1128  -23.6653   18.4300 N   0  0  0  0  0  0
  -27.2589  -21.9020   20.4364 N   0  0  0  0  0  0
  -26.9437  -24.7489   17.1032 O   0  0  0  0  0  0
  -31.2287  -14.2721   19.1020 H   0  0  0  0  0  0
  -30.6926  -13.2452   20.3554 H   0  0  0  0  0  0
  -30.2529  -12.2370   18.0847 H   0  0  0  0  0  0
  -29.3855  -13.6596   17.5880 H   0  0  0  0  0  0
  -28.4984  -11.5257   19.5294 H   0  0  0  0  0  0
  -27.6437  -12.0994   18.1070 H   0  0  0  0  0  0
  -27.3217  -14.2326   19.0982 H   0  0  0  0  0  0
  -28.9572  -13.5312   21.5860 H   0  0  0  0  0  0
  -27.8680  -14.8639   21.4905 H   0  0  0  0  0  0
  -25.2923   -9.5705   22.4740 H   0  0  0  0  0  0
  -24.0067   -7.4733   22.7507 H   0  0  0  0  0  0
  -21.0984   -8.8894   19.8952 H   0  0  0  0  0  0
  -22.3921  -10.9723   19.6105 H   0  0  0  0  0  0
  -21.1991   -7.6160   23.9735 H   0  0  0  0  0  0
  -21.1496   -6.0523   25.9084 H   0  0  0  0  0  0
  -22.0576   -2.7633   23.2826 H   0  0  0  0  0  0
  -22.4044  -11.9757   22.4879 H   0  0  0  0  0  0
  -21.0940  -13.0970   22.2580 H   0  0  0  0  0  0
  -24.5606  -15.8554   20.5492 H   0  0  0  0  0  0
  -26.1872  -15.7096   20.1195 H   0  0  0  0  0  0
  -26.7947  -32.4354   23.0425 H   0  0  0  0  0  0
  -24.9944  -33.8764   24.9505 H   0  0  0  0  0  0
  -22.9750  -31.1624   21.2367 H   0  0  0  0  0  0
  -23.3787  -35.9290   23.3104 H   0  0  0  0  0  0
  -24.3560  -36.8954   22.2121 H   0  0  0  0  0  0
  -23.7202  -37.6057   23.6955 H   0  0  0  0  0  0
  -26.5005  -30.8497   20.6598 H   0  0  0  0  0  0
  -27.0300  -30.2731   22.1735 H   0  0  0  0  0  0
  -28.1735  -27.6472   21.4166 H   0  0  0  0  0  0
  -25.5595  -25.3791   18.9423 H   0  0  0  0  0  0
  -24.1255  -27.0983   18.8336 H   0  0  0  0  0  0
  -24.1189  -30.2911   19.3685 H   0  0  0  0  0  0
  -22.9705  -29.0671   19.7930 H   0  0  0  0  0  0
  -25.1393  -36.1286   25.0686 H   0  0  0  0  0  0
  -21.0083  -28.3583   24.1098 H   0  0  0  0  0  0
  -20.5596  -26.2559   23.3697 H   0  0  0  0  0  0
  -21.6694  -26.7347   22.1269 H   0  0  0  0  0  0
  -19.7003  -25.6229   21.1322 H   0  0  0  0  0  0
  -19.6795  -27.3058   20.6603 H   0  0  0  0  0  0
  -17.4263  -26.6626   21.3987 H   0  0  0  0  0  0
  -18.0450  -26.0205   22.9049 H   0  0  0  0  0  0
  -19.8082  -30.7402   24.1985 H   0  0  0  0  0  0
  -17.5169  -31.6291   24.5221 H   0  0  0  0  0  0
  -15.5457  -30.3017   23.7829 H   0  0  0  0  0  0
  -15.8727  -28.0864   22.7172 H   0  0  0  0  0  0
  -24.5854  -30.7220   25.7392 H   0  0  0  0  0  0
  -24.8754  -32.3246   26.4078 H   0  0  0  0  0  0
  -25.7623  -30.9384   27.0203 H   0  0  0  0  0  0
  -26.3697  -29.6011   24.2207 H   0  0  0  0  0  0
  -27.3996  -29.7424   25.6161 H   0  0  0  0  0  0
  -27.9752  -30.3610   24.0950 H   0  0  0  0  0  0
  -27.2472  -33.3857   26.1679 H   0  0  0  0  0  0
  -28.4133  -32.6725   25.0612 H   0  0  0  0  0  0
  -28.0398  -31.8835   26.5869 H   0  0  0  0  0  0
  -28.2404  -38.0062   24.7595 H   0  0  0  0  0  0
  -28.1194  -36.2584   24.6096 H   0  0  0  0  0  0
  -27.2274  -37.1034   25.8828 H   0  0  0  0  0  0
  -21.0030  -29.8582   21.6079 H   0  0  0  0  0  0
  -25.9964  -38.2497   24.1523 H   0  0  0  0  0  0
  -30.6364  -22.2272   19.3578 H   0  0  0  0  0  0
  -25.4584  -21.6875   13.5834 H   0  0  0  0  0  0
  -27.0127  -21.3075   14.3174 H   0  0  0  0  0  0
  -26.9527  -22.2643   12.8317 H   0  0  0  0  0  0
  -30.1752  -19.9790   22.2935 H   0  0  0  0  0  0
  -31.2222  -19.6243   20.9403 H   0  0  0  0  0  0
  -30.7910  -18.3553   22.0765 H   0  0  0  0  0  0
  -27.9278  -19.2613   22.4029 H   0  0  0  0  0  0
  -28.0132  -17.5717   21.9462 H   0  0  0  0  0  0
  -27.0525  -18.6940   20.9879 H   0  0  0  0  0  0
  -24.8269  -23.0750   18.0527 H   0  0  0  0  0  0
  -24.6046  -21.9307   19.4070 H   0  0  0  0  0  0
  -25.8214  -23.1716   15.5236 H   0  0  0  0  0  0
  -25.8380  -24.1415   14.0751 H   0  0  0  0  0  0
  -25.9335  -21.2743   16.9523 H   0  0  0  0  0  0
  -26.1238  -20.4030   18.4422 H   0  0  0  0  0  0
  -28.2831  -24.2443   14.0561 H   0  0  0  0  0  0
  -28.4269  -23.0882   15.3214 H   0  0  0  0  0  0
  -27.9639  -22.1032   17.1326 H   0  0  0  0  0  0
  -28.3400  -20.9836   18.0683 H   0  0  0  0  0  0
  -27.3620  -25.9289   15.5138 H   0  0  0  0  0  0
  -28.7942  -25.3213   16.3113 H   0  0  0  0  0  0
  1 25  1  0  0  0
  1 30  2  0  0  0
  1 84  1  0  0  0
  2  3  1  0  0  0
  2 25  1  0  0  0
  2 88  1  0  0  0
  2 89  1  0  0  0
  3  4  1  0  0  0
  3 90  1  0  0  0
  3 91  1  0  0  0
  4  5  1  0  0  0
  4 92  1  0  0  0
  4 93  1  0  0  0
  5  6  1  0  0  0
  5 26  1  0  0  0
  5 94  1  0  0  0
  6 25  1  0  0  0
  6 95  1  0  0  0
  6 96  1  0  0  0
  7  8  2  0  0  0
  7 26  1  0  0  0
  7 29  1  0  0  0
  8  9  1  0  0  0
  8 22  1  0  0  0
  9 10  1  0  0  0
  9 27  2  0  0  0
 10 11  2  0  0  0
 10 15  1  0  0  0
 11 12  1  0  0  0
 11 97  1  0  0  0
 12 13  2  0  0  0
 12 98  1  0  0  0
 13 14  1  0  0  0
 13 31  1  0  0  0
 14 15  2  0  0  0
 14 99  1  0  0  0
 15100  1  0  0  0
 16 17  2  0  0  0
 16 21  1  0  0  0
 16 31  1  0  0  0
 17 18  1  0  0  0
 17101  1  0  0  0
 18 19  2  0  0  0
 18102  1  0  0  0
 19 20  1  0  0  0
 19 24  1  0  0  0
 20 21  2  0  0  0
 20103  1  0  0  0
 21 23  1  0  0  0
 22 28  1  0  0  0
 22 32  2  0  0  0
 26 27  1  0  0  0
 28104  1  0  0  0
 28105  1  0  0  0
 29106  1  0  0  0
 29107  1  0  0  0
 33 34  1  0  0  0
 33 66  1  0  0  0
 33 70  2  0  0  0
 34 36  1  0  0  0
 34 59  1  0  0  0
 34108  1  0  0  0
 35 44  2  0  0  0
 35 45  1  0  0  0
 35 68  1  0  0  0
 36 56  1  0  0  0
 36109  1  0  0  0
 37 39  1  0  0  0
 37 47  1  0  0  0
 37 66  1  0  0  0
 37110  1  0  0  0
 38 43  2  0  0  0
 38 46  1  0  0  0
 38 47  1  0  0  0
 39 64  1  0  0  0
 39 67  2  0  0  0
 40 52  1  0  0  0
 40 53  2  0  0  0
 40 58  1  0  0  0
 41111  1  0  0  0
 41112  1  0  0  0
 41113  1  0  0  0
 41 48  1  0  0  0
 42 43  1  0  0  0
 42 66  1  0  0  0
 42114  1  0  0  0
 42115  1  0  0  0
 43 44  1  0  0  0
 44116  1  0  0  0
 45 46  2  0  0  0
 45117  1  0  0  0
 46118  1  0  0  0
 47119  1  0  0  0
 47120  1  0  0  0
 48 56  1  0  0  0
 48 65  1  0  0  0
 48121  1  0  0  0
 49 50  1  0  0  0
 49 53  1  0  0  0
 49 64  1  0  0  0
 49122  1  0  0  0
 50 51  1  0  0  0
 50123  1  0  0  0
 50124  1  0  0  0
 51 52  1  0  0  0
 51125  1  0  0  0
 51126  1  0  0  0
 52127  1  0  0  0
 52128  1  0  0  0
 53 54  1  0  0  0
 54 55  2  0  0  0
 54129  1  0  0  0
 55 57  1  0  0  0
 55130  1  0  0  0
 56 69  2  0  0  0
 57 58  2  0  0  0
 57131  1  0  0  0
 58132  1  0  0  0
 59 60  1  0  0  0
 59 61  1  0  0  0
 59 62  1  0  0  0
 60133  1  0  0  0
 60134  1  0  0  0
 60135  1  0  0  0
 61136  1  0  0  0
 61137  1  0  0  0
 61138  1  0  0  0
 62139  1  0  0  0
 62140  1  0  0  0
 62141  1  0  0  0
 63 65  1  0  0  0
 63142  1  0  0  0
 63143  1  0  0  0
 63144  1  0  0  0
 64145  1  0  0  0
 65146  1  0  0  0
 68 82  1  0  0  0
 71 72  2  0  0  0
 71 85  1  0  0  0
 71147  1  0  0  0
 72 84  1  0  0  0
 72 86  1  0  0  0
 73 74  1  0  0  0
 73 78  1  0  0  0
 73 86  2  0  0  0
 74 85  2  0  0  0
 74 87  1  0  0  0
 75 79  1  0  0  0
 75148  1  0  0  0
 75149  1  0  0  0
 75150  1  0  0  0
 76151  1  0  0  0
 76152  1  0  0  0
 76153  1  0  0  0
 76 84  1  0  0  0
 77 84  1  0  0  0
 77154  1  0  0  0
 77155  1  0  0  0
 77156  1  0  0  0
 78 80  1  0  0  0
 78157  1  0  0  0
 78158  1  0  0  0
 79 81  1  0  0  0
 79159  1  0  0  0
 79160  1  0  0  0
 80 82  1  0  0  0
 80161  1  0  0  0
 80162  1  0  0  0
 81 83  1  0  0  0
 81163  1  0  0  0
 81164  1  0  0  0
 82165  1  0  0  0
 82166  1  0  0  0
 83 87  1  0  0  0
 83167  1  0  0  0
 83168  1  0  0  0
M  ISO  4   1 100  68 101  82 101  84 100
M  END
> <chiral flag>
0

> <version>
0

> <s_m_source_file>
/data/baiqing/PycharmProjects/Reinvent-master-3.2/result/LINK_invent/BTK/process_docking_weight1_custom_sum_contain_oxygen_bond_distance_aromatic_linkinvent_7_9_3/rearranged_h_0068.sdf

> <i_m_source_file_index>
75

> <r_mmod_Potential_Energy-OPLS-2005>
14758.501953125

> <r_mmod_Stretch_Energy-OPLS-2005>
8300.5595703125

> <r_mmod_Bend_Energy-OPLS-2005>
1231.81091308594

> <r_mmod_Torsional_Energy-OPLS-2005>
334.597473144531

> <r_mmod_Improper_Torsional_Energy-OPLS-2005>
28.8417987823486

> <r_mmod_Van_der_Waal_Energy-OPLS-2005>
2021.34069824219

> <r_mmod_Electrostatic_Energy-OPLS-2005>
-246.502563476562

> <r_mmod_Solvation_Energy-OPLS-2005>
-227.154449462891

> <b_mmod_Minimization_Converged-OPLS-2005>
0

> <r_mmod_RMS_Derivative-OPLS-2005>
7.95949029922485

$$$$
81
                    3D
 Structure written by MMmdl.
165173  0  0  1  0            999 V2000
  -30.6745  -14.5483   20.6198 C   0  0  0  0  0  0
  -30.4218  -12.3788   19.4267 C   0  0  0  0  0  0
  -29.4894  -12.5483   18.2095 C   0  0  0  0  0  0
  -28.0131  -12.3878   18.6197 C   0  0  0  0  0  0
  -27.6528  -13.2241   19.8740 C   0  0  2  0  0  0
  -28.6931  -13.0159   20.9950 C   0  0  0  0  0  0
  -25.2550  -13.8205   20.5751 C   0  0  0  0  0  0
  -24.1804  -13.0430   20.9156 C   0  0  0  0  0  0
  -24.6389  -11.6916   20.8736 C   0  0  0  0  0  0
  -23.9051  -10.4297   21.0440 C   0  0  0  0  0  0
  -24.3633   -9.4209   21.9193 C   0  0  0  0  0  0
  -23.6330   -8.2238   22.0748 C   0  0  0  0  0  0
  -22.4300   -8.0275   21.3539 C   0  0  0  0  0  0
  -21.9940   -9.0247   20.4634 C   0  0  0  0  0  0
  -22.7254  -10.2146   20.3063 C   0  0  0  0  0  0
  -21.6838   -6.0743   22.5289 C   0  0  0  0  0  0
  -21.4004   -6.5670   23.8218 C   0  0  0  0  0  0
  -21.3660   -5.6821   24.9182 C   0  0  0  0  0  0
  -21.6046   -4.3075   24.7229 C   0  0  0  0  0  0
  -21.8824   -3.8147   23.4354 C   0  0  0  0  0  0
  -21.9207   -4.6965   22.3410 C   0  0  0  0  0  0
  -22.7832  -13.5213   21.1884 C   0  0  0  0  0  0
  -22.1676   -4.2154   21.0988 F   0  0  0  0  0  0
  -21.5642   -3.4574   25.7733 F   0  0  0  0  0  0
  -30.0143  -13.3605   20.4517 N   0  0  0  0  0  0
  -26.2979  -12.9398   20.3395 N   0  0  0  0  0  0
  -25.9325  -11.6525   20.5757 N   0  0  0  0  0  0
  -22.0511  -12.8141   22.0431 N   0  0  0  0  0  0
  -25.4278  -15.1939   20.4360 N   0  0  0  0  0  0
  -31.7621  -14.7354   20.0582 O   0  0  0  0  0  0
  -21.6637   -6.8892   21.4246 O   0  0  0  0  0  0
  -22.3500  -14.5539   20.6791 O   0  0  0  0  0  0
  -24.6183  -31.8661   23.2070 C   0  0  0  0  0  0
  -25.9036  -32.4853   23.8393 C   0  0  1  0  0  0
  -27.2293  -27.3858   20.1076 C   0  0  0  0  0  0
  -25.5870  -33.8649   24.2332 N   0  0  0  0  0  0
  -23.4129  -30.4793   21.5516 C   0  0  2  0  0  0
  -24.8594  -28.9388   20.1200 C   0  0  0  0  0  0
  -22.7477  -29.4582   22.5024 C   0  0  0  0  0  0
  -18.0275  -28.1389   22.8498 C   0  0  0  0  0  0
  -24.1478  -36.7314   23.2645 C   0  0  0  0  0  0
  -25.9428  -30.8135   21.3676 C   0  0  0  0  0  0
  -26.0209  -29.4382   20.7252 C   0  0  0  0  0  0
  -27.2124  -28.6678   20.7166 C   0  0  0  0  0  0
  -26.0551  -26.9118   19.4922 C   0  0  0  0  0  0
  -24.8736  -27.6782   19.5004 C   0  0  0  0  0  0
  -23.6222  -29.8089   20.1684 C   0  0  0  0  0  0
  -25.4115  -36.3153   24.0345 C   0  0  1  0  0  0
  -20.5866  -28.3642   23.1357 C   0  0  2  0  0  0
  -20.6748  -26.9371   22.5447 C   0  0  0  0  0  0
  -19.5730  -26.6378   21.5233 C   0  0  0  0  0  0
  -18.1903  -26.7948   22.1628 C   0  0  0  0  0  0
  -19.1526  -28.8839   23.2915 C   0  0  0  0  0  0
  -18.9447  -30.1453   23.8907 C   0  0  0  0  0  0
  -17.6437  -30.6577   24.0566 C   0  0  0  0  0  0
  -25.9040  -34.9500   23.5154 C   0  0  0  0  0  0
  -16.5327  -29.9070   23.6322 C   0  0  0  0  0  0
  -16.7265  -28.6503   23.0329 C   0  0  0  0  0  0
  -26.4438  -31.6640   25.0732 C   0  0  0  0  0  0
  -25.3660  -31.3712   26.1442 C   0  0  0  0  0  0
  -27.0278  -30.3107   24.6105 C   0  0  0  0  0  0
  -27.6074  -32.4315   25.7456 C   0  0  0  0  0  0
  -27.5604  -37.1821   24.8473 C   0  0  0  0  0  0
  -21.4189  -29.2984   22.3771 N   0  0  0  0  0  0
  -26.4319  -37.3829   23.9413 N   0  0  0  0  0  0
  -24.6761  -31.0685   22.1009 N   0  0  0  0  0  0
  -23.4232  -28.8125   23.3083 O   0  0  0  0  0  0
  -28.3744  -26.6136   20.0477 O   0  0  0  0  0  0
  -26.5615  -34.8954   22.4732 O   0  0  0  0  0  0
  -23.5340  -32.1417   23.7403 O   0  0  0  0  0  0
  -28.0201  -18.3605   20.5137 C   0  0  0  0  0  0
  -29.4901  -16.9307   20.8987 C   0  0  0  0  0  0
  -29.6007  -20.3849   23.2652 C   0  0  0  0  0  0
  -31.3652  -21.8387   22.2316 C   0  0  0  0  0  0
  -29.3564  -22.8292   23.3262 C   0  0  0  0  0  0
  -30.1307  -15.6966   21.5370 C   0  0  0  0  0  0
  -28.0220  -24.1075   20.6414 C   0  0  0  0  0  0
  -29.1207  -23.0278   20.3120 C   0  0  0  0  0  0
  -29.4760  -20.4271   20.0866 C   0  0  0  0  0  0
  -28.5001  -25.5554   21.0266 C   0  0  0  0  0  0
  -29.0631  -21.6210   21.0575 C   0  0  1  0  0  0
  -29.8408  -21.6616   22.4338 C   0  0  0  0  0  0
  -28.1291  -17.0546   20.7762 N   0  0  0  0  0  0
  -30.1671  -18.0747   20.6707 N   0  0  0  0  0  0
  -29.1845  -19.0158   20.4619 N   0  0  0  0  0  0
  -31.4625  -12.4920   19.1177 H   0  0  0  0  0  0
  -30.3456  -11.3686   19.8312 H   0  0  0  0  0  0
  -29.7431  -11.8299   17.4286 H   0  0  0  0  0  0
  -29.6390  -13.5361   17.7701 H   0  0  0  0  0  0
  -27.8310  -11.3312   18.8161 H   0  0  0  0  0  0
  -27.3637  -12.6662   17.7874 H   0  0  0  0  0  0
  -27.6880  -14.2718   19.5727 H   0  0  0  0  0  0
  -28.6945  -11.9741   21.3184 H   0  0  0  0  0  0
  -28.4162  -13.5845   21.8797 H   0  0  0  0  0  0
  -25.2801   -9.5701   22.4728 H   0  0  0  0  0  0
  -24.0057   -7.4624   22.7481 H   0  0  0  0  0  0
  -21.0866   -8.8782   19.8935 H   0  0  0  0  0  0
  -22.3729  -10.9688   19.6173 H   0  0  0  0  0  0
  -21.1973   -7.6162   23.9717 H   0  0  0  0  0  0
  -21.1488   -6.0552   25.9096 H   0  0  0  0  0  0
  -22.0592   -2.7599   23.2854 H   0  0  0  0  0  0
  -22.4164  -11.9786   22.4768 H   0  0  0  0  0  0
  -21.1146  -13.1131   22.2709 H   0  0  0  0  0  0
  -24.6746  -15.8539   20.5910 H   0  0  0  0  0  0
  -26.3295  -15.6484   20.3094 H   0  0  0  0  0  0
  -26.7106  -32.5567   23.1154 H   0  0  0  0  0  0
  -25.0000  -33.9798   25.0463 H   0  0  0  0  0  0
  -22.7024  -31.2956   21.4116 H   0  0  0  0  0  0
  -23.3779  -35.9607   23.3290 H   0  0  0  0  0  0
  -24.3564  -36.8949   22.2062 H   0  0  0  0  0  0
  -23.7152  -37.6487   23.6655 H   0  0  0  0  0  0
  -26.0457  -31.5652   20.5825 H   0  0  0  0  0  0
  -26.8348  -30.8840   21.9796 H   0  0  0  0  0  0
  -28.1129  -29.0417   21.1820 H   0  0  0  0  0  0
  -26.0519  -25.9478   19.0034 H   0  0  0  0  0  0
  -23.9818  -27.2981   19.0191 H   0  0  0  0  0  0
  -23.7339  -30.5800   19.4058 H   0  0  0  0  0  0
  -22.7476  -29.2256   19.8768 H   0  0  0  0  0  0
  -25.1281  -36.2055   25.0840 H   0  0  0  0  0  0
  -20.9934  -28.3162   24.1494 H   0  0  0  0  0  0
  -20.5651  -26.2220   23.3617 H   0  0  0  0  0  0
  -21.6614  -26.7409   22.1239 H   0  0  0  0  0  0
  -19.6870  -25.6299   21.1241 H   0  0  0  0  0  0
  -19.6688  -27.3202   20.6784 H   0  0  0  0  0  0
  -17.4187  -26.6726   21.3997 H   0  0  0  0  0  0
  -18.0270  -26.0086   22.9022 H   0  0  0  0  0  0
  -19.7905  -30.7293   24.2275 H   0  0  0  0  0  0
  -17.4965  -31.6261   24.5175 H   0  0  0  0  0  0
  -15.5315  -30.2955   23.7661 H   0  0  0  0  0  0
  -15.8677  -28.0833   22.7003 H   0  0  0  0  0  0
  -24.5861  -30.7073   25.7680 H   0  0  0  0  0  0
  -24.8784  -32.2836   26.4902 H   0  0  0  0  0  0
  -25.7936  -30.8823   27.0208 H   0  0  0  0  0  0
  -26.2823  -29.6884   24.1153 H   0  0  0  0  0  0
  -27.4051  -29.7353   25.4563 H   0  0  0  0  0  0
  -27.8646  -30.4464   23.9253 H   0  0  0  0  0  0
  -27.2804  -33.3628   26.2098 H   0  0  0  0  0  0
  -28.3826  -32.6860   25.0208 H   0  0  0  0  0  0
  -28.0822  -31.8390   26.5290 H   0  0  0  0  0  0
  -28.2647  -38.0103   24.7565 H   0  0  0  0  0  0
  -28.1077  -36.2645   24.6256 H   0  0  0  0  0  0
  -27.2328  -37.1435   25.8879 H   0  0  0  0  0  0
  -20.9381  -29.8712   21.6977 H   0  0  0  0  0  0
  -26.0229  -38.2924   24.1416 H   0  0  0  0  0  0
  -27.0719  -18.8526   20.3453 H   0  0  0  0  0  0
  -29.9969  -20.4858   24.2759 H   0  0  0  0  0  0
  -30.1022  -19.5173   22.8474 H   0  0  0  0  0  0
  -28.5389  -20.1514   23.3586 H   0  0  0  0  0  0
  -31.9045  -21.7226   23.1723 H   0  0  0  0  0  0
  -31.6242  -22.8293   21.8551 H   0  0  0  0  0  0
  -31.7846  -21.1078   21.5411 H   0  0  0  0  0  0
  -29.8217  -22.8079   24.3134 H   0  0  0  0  0  0
  -28.2770  -22.8004   23.4860 H   0  0  0  0  0  0
  -29.6068  -23.8012   22.9046 H   0  0  0  0  0  0
  -29.4401  -15.3155   22.2842 H   0  0  0  0  0  0
  -30.9760  -16.0456   22.1284 H   0  0  0  0  0  0
  -27.4264  -23.7415   21.4777 H   0  0  0  0  0  0
  -27.3081  -24.1692   19.8215 H   0  0  0  0  0  0
  -30.1045  -23.4706   20.4375 H   0  0  0  0  0  0
  -29.0673  -22.8585   19.2372 H   0  0  0  0  0  0
  -30.5285  -20.4983   19.8177 H   0  0  0  0  0  0
  -28.9492  -20.5753   19.1443 H   0  0  0  0  0  0
  -29.5517  -25.5222   21.3111 H   0  0  0  0  0  0
  -27.9757  -25.8630   21.9344 H   0  0  0  0  0  0
  -28.0103  -21.4493   21.2845 H   0  0  0  0  0  0
  1 25  1  0  0  0
  1 30  2  0  0  0
  1 76  1  0  0  0
  2  3  1  0  0  0
  2 25  1  0  0  0
  2 86  1  0  0  0
  2 87  1  0  0  0
  3  4  1  0  0  0
  3 88  1  0  0  0
  3 89  1  0  0  0
  4  5  1  0  0  0
  4 90  1  0  0  0
  4 91  1  0  0  0
  5  6  1  0  0  0
  5 26  1  0  0  0
  5 92  1  0  0  0
  6 25  1  0  0  0
  6 93  1  0  0  0
  6 94  1  0  0  0
  7  8  2  0  0  0
  7 26  1  0  0  0
  7 29  1  0  0  0
  8  9  1  0  0  0
  8 22  1  0  0  0
  9 10  1  0  0  0
  9 27  2  0  0  0
 10 11  2  0  0  0
 10 15  1  0  0  0
 11 12  1  0  0  0
 11 95  1  0  0  0
 12 13  2  0  0  0
 12 96  1  0  0  0
 13 14  1  0  0  0
 13 31  1  0  0  0
 14 15  2  0  0  0
 14 97  1  0  0  0
 15 98  1  0  0  0
 16 17  2  0  0  0
 16 21  1  0  0  0
 16 31  1  0  0  0
 17 18  1  0  0  0
 17 99  1  0  0  0
 18 19  2  0  0  0
 18100  1  0  0  0
 19 20  1  0  0  0
 19 24  1  0  0  0
 20 21  2  0  0  0
 20101  1  0  0  0
 21 23  1  0  0  0
 22 28  1  0  0  0
 22 32  2  0  0  0
 26 27  1  0  0  0
 28102  1  0  0  0
 28103  1  0  0  0
 29104  1  0  0  0
 29105  1  0  0  0
 33 34  1  0  0  0
 33 66  1  0  0  0
 33 70  2  0  0  0
 34 36  1  0  0  0
 34 59  1  0  0  0
 34106  1  0  0  0
 35 44  2  0  0  0
 35 45  1  0  0  0
 35 68  1  0  0  0
 36 56  1  0  0  0
 36107  1  0  0  0
 37 39  1  0  0  0
 37 47  1  0  0  0
 37 66  1  0  0  0
 37108  1  0  0  0
 38 43  2  0  0  0
 38 46  1  0  0  0
 38 47  1  0  0  0
 39 64  1  0  0  0
 39 67  2  0  0  0
 40 52  1  0  0  0
 40 53  2  0  0  0
 40 58  1  0  0  0
 41109  1  0  0  0
 41110  1  0  0  0
 41111  1  0  0  0
 41 48  1  0  0  0
 42 43  1  0  0  0
 42 66  1  0  0  0
 42112  1  0  0  0
 42113  1  0  0  0
 43 44  1  0  0  0
 44114  1  0  0  0
 45 46  2  0  0  0
 45115  1  0  0  0
 46116  1  0  0  0
 47117  1  0  0  0
 47118  1  0  0  0
 48 56  1  0  0  0
 48 65  1  0  0  0
 48119  1  0  0  0
 49 50  1  0  0  0
 49 53  1  0  0  0
 49 64  1  0  0  0
 49120  1  0  0  0
 50 51  1  0  0  0
 50121  1  0  0  0
 50122  1  0  0  0
 51 52  1  0  0  0
 51123  1  0  0  0
 51124  1  0  0  0
 52125  1  0  0  0
 52126  1  0  0  0
 53 54  1  0  0  0
 54 55  2  0  0  0
 54127  1  0  0  0
 55 57  1  0  0  0
 55128  1  0  0  0
 56 69  2  0  0  0
 57 58  2  0  0  0
 57129  1  0  0  0
 58130  1  0  0  0
 59 60  1  0  0  0
 59 61  1  0  0  0
 59 62  1  0  0  0
 60131  1  0  0  0
 60132  1  0  0  0
 60133  1  0  0  0
 61134  1  0  0  0
 61135  1  0  0  0
 61136  1  0  0  0
 62137  1  0  0  0
 62138  1  0  0  0
 62139  1  0  0  0
 63 65  1  0  0  0
 63140  1  0  0  0
 63141  1  0  0  0
 63142  1  0  0  0
 64143  1  0  0  0
 65144  1  0  0  0
 68 80  1  0  0  0
 71 83  2  0  0  0
 71 85  1  0  0  0
 71145  1  0  0  0
 72 76  1  0  0  0
 72 83  1  0  0  0
 72 84  2  0  0  0
 73146  1  0  0  0
 73147  1  0  0  0
 73148  1  0  0  0
 73 82  1  0  0  0
 74 82  1  0  0  0
 74149  1  0  0  0
 74150  1  0  0  0
 74151  1  0  0  0
 75 82  1  0  0  0
 75152  1  0  0  0
 75153  1  0  0  0
 75154  1  0  0  0
 76155  1  0  0  0
 76156  1  0  0  0
 77 78  1  0  0  0
 77 80  1  0  0  0
 77157  1  0  0  0
 77158  1  0  0  0
 78159  1  0  0  0
 78160  1  0  0  0
 78 81  1  0  0  0
 79 81  1  0  0  0
 79 85  1  0  0  0
 79161  1  0  0  0
 79162  1  0  0  0
 80163  1  0  0  0
 80164  1  0  0  0
 81 82  1  0  0  0
 81165  1  0  0  0
 84 85  1  0  0  0
M  ISO  4   1 100  68 101  76 100  80 101
M  END
> <chiral flag>
0

> <version>
0

> <s_m_source_file>
/data/baiqing/PycharmProjects/Reinvent-master-3.2/result/LINK_invent/BTK/process_docking_weight1_custom_sum_contain_oxygen_bond_distance_aromatic_linkinvent_7_9_3/rearranged_h_0068.sdf

> <i_m_source_file_index>
76

> <r_mmod_Potential_Energy-OPLS-2005>
110.559188842773

> <r_mmod_Stretch_Energy-OPLS-2005>
62.9695167541504

> <r_mmod_Bend_Energy-OPLS-2005>
143.915512084961

> <r_mmod_Torsional_Energy-OPLS-2005>
252.244003295898

> <r_mmod_Improper_Torsional_Energy-OPLS-2005>
4.0524582862854

> <r_mmod_Van_der_Waal_Energy-OPLS-2005>
120.230369567871

> <r_mmod_Electrostatic_Energy-OPLS-2005>
-298.745300292969

> <r_mmod_Solvation_Energy-OPLS-2005>
-195.499374389648

> <b_mmod_Minimization_Converged-OPLS-2005>
0

> <r_mmod_RMS_Derivative-OPLS-2005>
4.27714157104492

$$$$
82
                    3D
 Structure written by MMmdl.
167175  0  0  1  0            999 V2000
  -30.7871  -14.4186   20.5812 C   0  0  0  0  0  0
  -30.4159  -12.2872   19.4138 C   0  0  0  0  0  0
  -29.4970  -12.4980   18.1969 C   0  0  0  0  0  0
  -28.0169  -12.3695   18.6062 C   0  0  0  0  0  0
  -27.6642  -13.2131   19.8606 C   0  0  2  0  0  0
  -28.7122  -13.0203   20.9824 C   0  0  0  0  0  0
  -25.2626  -13.8182   20.5616 C   0  0  0  0  0  0
  -24.1890  -13.0439   20.9132 C   0  0  0  0  0  0
  -24.6455  -11.6910   20.8698 C   0  0  0  0  0  0
  -23.9101  -10.4306   21.0374 C   0  0  0  0  0  0
  -24.3661   -9.4215   21.9150 C   0  0  0  0  0  0
  -23.6337   -8.2259   22.0747 C   0  0  0  0  0  0
  -22.4303   -8.0309   21.3578 C   0  0  0  0  0  0
  -21.9937   -9.0240   20.4641 C   0  0  0  0  0  0
  -22.7259  -10.2128   20.3024 C   0  0  0  0  0  0
  -21.6853   -6.0764   22.5295 C   0  0  0  0  0  0
  -21.4001   -6.5643   23.8229 C   0  0  0  0  0  0
  -21.3681   -5.6792   24.9181 C   0  0  0  0  0  0
  -21.6052   -4.3052   24.7207 C   0  0  0  0  0  0
  -21.8842   -3.8167   23.4314 C   0  0  0  0  0  0
  -21.9191   -4.6999   22.3384 C   0  0  0  0  0  0
  -22.7907  -13.5198   21.1844 C   0  0  0  0  0  0
  -22.1654   -4.2192   21.0955 F   0  0  0  0  0  0
  -21.5646   -3.4523   25.7711 F   0  0  0  0  0  0
  -30.0512  -13.2884   20.4306 N   0  0  0  0  0  0
  -26.3073  -12.9361   20.3277 N   0  0  0  0  0  0
  -25.9360  -11.6499   20.5674 N   0  0  0  0  0  0
  -22.0553  -12.8194   22.0401 N   0  0  0  0  0  0
  -25.4296  -15.1917   20.4078 N   0  0  0  0  0  0
  -31.8892  -14.5665   20.0496 O   0  0  0  0  0  0
  -21.6657   -6.8919   21.4270 O   0  0  0  0  0  0
  -22.3565  -14.5495   20.6714 O   0  0  0  0  0  0
  -24.6149  -31.8669   23.2098 C   0  0  0  0  0  0
  -25.9028  -32.4816   23.8392 C   0  0  1  0  0  0
  -27.2238  -27.4360   20.1088 C   0  0  0  0  0  0
  -25.5864  -33.8612   24.2312 N   0  0  0  0  0  0
  -23.4006  -30.4914   21.5517 C   0  0  2  0  0  0
  -24.8468  -28.9649   20.1090 C   0  0  0  0  0  0
  -22.7413  -29.4644   22.4995 C   0  0  0  0  0  0
  -18.0252  -28.1394   22.8503 C   0  0  0  0  0  0
  -24.1484  -36.7313   23.2643 C   0  0  0  0  0  0
  -25.9309  -30.8339   21.3650 C   0  0  0  0  0  0
  -26.0061  -29.4697   20.7120 C   0  0  0  0  0  0
  -27.1984  -28.7141   20.7078 C   0  0  0  0  0  0
  -26.0537  -26.9543   19.4755 C   0  0  0  0  0  0
  -24.8679  -27.7075   19.4830 C   0  0  0  0  0  0
  -23.6074  -29.8260   20.1645 C   0  0  0  0  0  0
  -25.4101  -36.3104   24.0343 C   0  0  1  0  0  0
  -20.5857  -28.3673   23.1331 C   0  0  2  0  0  0
  -20.6774  -26.9409   22.5437 C   0  0  0  0  0  0
  -19.5744  -26.6397   21.5246 C   0  0  0  0  0  0
  -18.1912  -26.7944   22.1641 C   0  0  0  0  0  0
  -19.1517  -28.8845   23.2915 C   0  0  0  0  0  0
  -18.9450  -30.1462   23.8915 C   0  0  0  0  0  0
  -17.6454  -30.6609   24.0575 C   0  0  0  0  0  0
  -25.9013  -34.9474   23.5127 C   0  0  0  0  0  0
  -16.5340  -29.9110   23.6343 C   0  0  0  0  0  0
  -16.7246  -28.6535   23.0342 C   0  0  0  0  0  0
  -26.4440  -31.6604   25.0728 C   0  0  0  0  0  0
  -25.3691  -31.3759   26.1469 C   0  0  0  0  0  0
  -27.0274  -30.3040   24.6140 C   0  0  0  0  0  0
  -27.6017  -32.4331   25.7468 C   0  0  0  0  0  0
  -27.5578  -37.1802   24.8460 C   0  0  0  0  0  0
  -21.4144  -29.3011   22.3720 N   0  0  0  0  0  0
  -26.4285  -37.3793   23.9400 N   0  0  0  0  0  0
  -24.6663  -31.0783   22.0995 N   0  0  0  0  0  0
  -23.4211  -28.8189   23.3027 O   0  0  0  0  0  0
  -28.3841  -26.6931   20.1401 O   0  0  0  0  0  0
  -26.5615  -34.8931   22.4708 O   0  0  0  0  0  0
  -23.5341  -32.1398   23.7502 O   0  0  0  0  0  0
  -29.0469  -22.3326   21.4727 C   0  0  0  0  0  0
  -30.0582  -21.4693   21.7828 C   0  0  0  0  0  0
  -31.0229  -21.4865   22.9273 C   0  0  0  0  0  0
  -31.6866  -19.3395   19.4370 C   0  0  0  0  0  0
  -28.7189  -18.0930   21.7428 C   0  0  0  0  0  0
  -29.3607  -17.4805   19.4014 C   0  0  0  0  0  0
  -28.5611  -23.5182   22.2588 C   0  0  0  0  0  0
  -28.9712  -24.8942   21.6971 C   0  0  0  0  0  0
  -30.8139  -16.7826   21.3554 C   0  0  0  0  0  0
  -28.2425  -25.2866   20.3982 C   0  0  0  0  0  0
  -30.7572  -19.2491   20.6699 C   0  0  2  0  0  0
  -29.9138  -17.9148   20.7790 C   0  0  0  0  0  0
  -28.4350  -21.8958   20.2986 N   0  0  0  0  0  0
  -29.0130  -20.8030   19.8960 N   0  0  0  0  0  0
  -29.9747  -20.4881   20.8033 N   0  0  0  0  0  0
  -30.2249  -15.4317   21.2588 N   0  0  0  0  0  0
  -31.4633  -12.3533   19.1059 H   0  0  0  0  0  0
  -30.2952  -11.2810   19.8121 H   0  0  0  0  0  0
  -29.7276  -11.7734   17.4158 H   0  0  0  0  0  0
  -29.6859  -13.4829   17.7650 H   0  0  0  0  0  0
  -27.8201  -11.3134   18.7908 H   0  0  0  0  0  0
  -27.3764  -12.6562   17.7724 H   0  0  0  0  0  0
  -27.6927  -14.2568   19.5494 H   0  0  0  0  0  0
  -28.6786  -11.9970   21.3542 H   0  0  0  0  0  0
  -28.4774  -13.6529   21.8388 H   0  0  0  0  0  0
  -25.2815   -9.5681   22.4711 H   0  0  0  0  0  0
  -24.0065   -7.4648   22.7438 H   0  0  0  0  0  0
  -21.0882   -8.8697   19.8947 H   0  0  0  0  0  0
  -22.3678  -10.9646   19.6131 H   0  0  0  0  0  0
  -21.1978   -7.6157   23.9730 H   0  0  0  0  0  0
  -21.1486   -6.0519   25.9093 H   0  0  0  0  0  0
  -22.0613   -2.7631   23.2768 H   0  0  0  0  0  0
  -22.4126  -11.9827   22.4769 H   0  0  0  0  0  0
  -21.1177  -13.1244   22.2625 H   0  0  0  0  0  0
  -24.6601  -15.8430   20.5227 H   0  0  0  0  0  0
  -26.2780  -15.6397   20.0841 H   0  0  0  0  0  0
  -26.7111  -32.5518   23.1162 H   0  0  0  0  0  0
  -24.9969  -33.9772   25.0434 H   0  0  0  0  0  0
  -22.6891  -31.3079   21.4143 H   0  0  0  0  0  0
  -23.3736  -35.9650   23.3308 H   0  0  0  0  0  0
  -24.3584  -36.8921   22.2053 H   0  0  0  0  0  0
  -23.7239  -37.6527   23.6649 H   0  0  0  0  0  0
  -26.0459  -31.5975   20.5946 H   0  0  0  0  0  0
  -26.8185  -30.8833   21.9848 H   0  0  0  0  0  0
  -28.0924  -29.0955   21.1848 H   0  0  0  0  0  0
  -26.0469  -25.9973   18.9724 H   0  0  0  0  0  0
  -23.9813  -27.3184   19.0000 H   0  0  0  0  0  0
  -23.7056  -30.5975   19.4002 H   0  0  0  0  0  0
  -22.7341  -29.2383   19.8761 H   0  0  0  0  0  0
  -25.1279  -36.1966   25.0843 H   0  0  0  0  0  0
  -20.9948  -28.3249   24.1445 H   0  0  0  0  0  0
  -20.5735  -26.2273   23.3618 H   0  0  0  0  0  0
  -21.6639  -26.7490   22.1167 H   0  0  0  0  0  0
  -19.6897  -25.6312   21.1249 H   0  0  0  0  0  0
  -19.6685  -27.3245   20.6810 H   0  0  0  0  0  0
  -17.4193  -26.6696   21.4031 H   0  0  0  0  0  0
  -18.0288  -26.0091   22.9041 H   0  0  0  0  0  0
  -19.7929  -30.7277   24.2292 H   0  0  0  0  0  0
  -17.5003  -31.6284   24.5167 H   0  0  0  0  0  0
  -15.5336  -30.3009   23.7667 H   0  0  0  0  0  0
  -15.8648  -28.0864   22.7036 H   0  0  0  0  0  0
  -24.5816  -30.7168   25.7794 H   0  0  0  0  0  0
  -24.8939  -32.2955   26.4908 H   0  0  0  0  0  0
  -25.7993  -30.8900   27.0234 H   0  0  0  0  0  0
  -26.2857  -29.6814   24.1129 H   0  0  0  0  0  0
  -27.3959  -29.7263   25.4626 H   0  0  0  0  0  0
  -27.8718  -30.4343   23.9363 H   0  0  0  0  0  0
  -27.2626  -33.3605   26.2090 H   0  0  0  0  0  0
  -28.3773  -32.6939   25.0257 H   0  0  0  0  0  0
  -28.0741  -31.8441   26.5333 H   0  0  0  0  0  0
  -28.2596  -38.0104   24.7512 H   0  0  0  0  0  0
  -28.1077  -36.2636   24.6268 H   0  0  0  0  0  0
  -27.2307  -37.1429   25.8870 H   0  0  0  0  0  0
  -20.9324  -29.8698   21.6897 H   0  0  0  0  0  0
  -26.0177  -38.2867   24.1417 H   0  0  0  0  0  0
  -32.0146  -21.1526   22.6242 H   0  0  0  0  0  0
  -30.6757  -20.8517   23.7427 H   0  0  0  0  0  0
  -31.1361  -22.5006   23.3107 H   0  0  0  0  0  0
  -32.3642  -18.4881   19.3736 H   0  0  0  0  0  0
  -32.3077  -20.2371   19.4745 H   0  0  0  0  0  0
  -31.1221  -19.3842   18.5061 H   0  0  0  0  0  0
  -28.1822  -17.1604   21.9008 H   0  0  0  0  0  0
  -27.9824  -18.8003   21.3618 H   0  0  0  0  0  0
  -29.0503  -18.4567   22.7164 H   0  0  0  0  0  0
  -28.7028  -16.6146   19.4872 H   0  0  0  0  0  0
  -30.1659  -17.1944   18.7227 H   0  0  0  0  0  0
  -28.7836  -18.2667   18.9208 H   0  0  0  0  0  0
  -28.9394  -23.4454   23.2785 H   0  0  0  0  0  0
  -27.4774  -23.4733   22.3692 H   0  0  0  0  0  0
  -30.0536  -24.9399   21.5664 H   0  0  0  0  0  0
  -28.7233  -25.6316   22.4612 H   0  0  0  0  0  0
  -31.0437  -16.9847   22.4024 H   0  0  0  0  0  0
  -31.7807  -16.8215   20.8528 H   0  0  0  0  0  0
  -27.2046  -24.9784   20.5204 H   0  0  0  0  0  0
  -28.6355  -24.7285   19.5476 H   0  0  0  0  0  0
  -31.4262  -19.2358   21.5280 H   0  0  0  0  0  0
  -29.3053  -15.2807   21.6464 H   0  0  0  0  0  0
  1 25  1  0  0  0
  1 30  2  0  0  0
  1 86  1  0  0  0
  2  3  1  0  0  0
  2 25  1  0  0  0
  2 87  1  0  0  0
  2 88  1  0  0  0
  3  4  1  0  0  0
  3 89  1  0  0  0
  3 90  1  0  0  0
  4  5  1  0  0  0
  4 91  1  0  0  0
  4 92  1  0  0  0
  5  6  1  0  0  0
  5 26  1  0  0  0
  5 93  1  0  0  0
  6 25  1  0  0  0
  6 94  1  0  0  0
  6 95  1  0  0  0
  7  8  2  0  0  0
  7 26  1  0  0  0
  7 29  1  0  0  0
  8  9  1  0  0  0
  8 22  1  0  0  0
  9 10  1  0  0  0
  9 27  2  0  0  0
 10 11  2  0  0  0
 10 15  1  0  0  0
 11 12  1  0  0  0
 11 96  1  0  0  0
 12 13  2  0  0  0
 12 97  1  0  0  0
 13 14  1  0  0  0
 13 31  1  0  0  0
 14 15  2  0  0  0
 14 98  1  0  0  0
 15 99  1  0  0  0
 16 17  2  0  0  0
 16 21  1  0  0  0
 16 31  1  0  0  0
 17 18  1  0  0  0
 17100  1  0  0  0
 18 19  2  0  0  0
 18101  1  0  0  0
 19 20  1  0  0  0
 19 24  1  0  0  0
 20 21  2  0  0  0
 20102  1  0  0  0
 21 23  1  0  0  0
 22 28  1  0  0  0
 22 32  2  0  0  0
 26 27  1  0  0  0
 28103  1  0  0  0
 28104  1  0  0  0
 29105  1  0  0  0
 29106  1  0  0  0
 33 34  1  0  0  0
 33 66  1  0  0  0
 33 70  2  0  0  0
 34 36  1  0  0  0
 34 59  1  0  0  0
 34107  1  0  0  0
 35 44  2  0  0  0
 35 45  1  0  0  0
 35 68  1  0  0  0
 36 56  1  0  0  0
 36108  1  0  0  0
 37 39  1  0  0  0
 37 47  1  0  0  0
 37 66  1  0  0  0
 37109  1  0  0  0
 38 43  2  0  0  0
 38 46  1  0  0  0
 38 47  1  0  0  0
 39 64  1  0  0  0
 39 67  2  0  0  0
 40 52  1  0  0  0
 40 53  2  0  0  0
 40 58  1  0  0  0
 41110  1  0  0  0
 41111  1  0  0  0
 41112  1  0  0  0
 41 48  1  0  0  0
 42 43  1  0  0  0
 42 66  1  0  0  0
 42113  1  0  0  0
 42114  1  0  0  0
 43 44  1  0  0  0
 44115  1  0  0  0
 45 46  2  0  0  0
 45116  1  0  0  0
 46117  1  0  0  0
 47118  1  0  0  0
 47119  1  0  0  0
 48 56  1  0  0  0
 48 65  1  0  0  0
 48120  1  0  0  0
 49 50  1  0  0  0
 49 53  1  0  0  0
 49 64  1  0  0  0
 49121  1  0  0  0
 50 51  1  0  0  0
 50122  1  0  0  0
 50123  1  0  0  0
 51 52  1  0  0  0
 51124  1  0  0  0
 51125  1  0  0  0
 52126  1  0  0  0
 52127  1  0  0  0
 53 54  1  0  0  0
 54 55  2  0  0  0
 54128  1  0  0  0
 55 57  1  0  0  0
 55129  1  0  0  0
 56 69  2  0  0  0
 57 58  2  0  0  0
 57130  1  0  0  0
 58131  1  0  0  0
 59 60  1  0  0  0
 59 61  1  0  0  0
 59 62  1  0  0  0
 60132  1  0  0  0
 60133  1  0  0  0
 60134  1  0  0  0
 61135  1  0  0  0
 61136  1  0  0  0
 61137  1  0  0  0
 62138  1  0  0  0
 62139  1  0  0  0
 62140  1  0  0  0
 63 65  1  0  0  0
 63141  1  0  0  0
 63142  1  0  0  0
 63143  1  0  0  0
 64144  1  0  0  0
 65145  1  0  0  0
 68 80  1  0  0  0
 71 72  2  0  0  0
 71 77  1  0  0  0
 71 83  1  0  0  0
 72 73  1  0  0  0
 72 85  1  0  0  0
 73146  1  0  0  0
 73147  1  0  0  0
 73148  1  0  0  0
 74149  1  0  0  0
 74150  1  0  0  0
 74151  1  0  0  0
 74 81  1  0  0  0
 75152  1  0  0  0
 75153  1  0  0  0
 75154  1  0  0  0
 75 82  1  0  0  0
 76 82  1  0  0  0
 76155  1  0  0  0
 76156  1  0  0  0
 76157  1  0  0  0
 77 78  1  0  0  0
 77158  1  0  0  0
 77159  1  0  0  0
 78 80  1  0  0  0
 78160  1  0  0  0
 78161  1  0  0  0
 79 82  1  0  0  0
 79 86  1  0  0  0
 79162  1  0  0  0
 79163  1  0  0  0
 80164  1  0  0  0
 80165  1  0  0  0
 81 82  1  0  0  0
 81 85  1  0  0  0
 81166  1  0  0  0
 83 84  2  0  0  0
 84 85  1  0  0  0
 86167  1  0  0  0
M  ISO  4   1 100  68 101  80 101  86 100
M  END
> <chiral flag>
0

> <version>
0

> <s_m_source_file>
/data/baiqing/PycharmProjects/Reinvent-master-3.2/result/LINK_invent/BTK/process_docking_weight1_custom_sum_contain_oxygen_bond_distance_aromatic_linkinvent_7_9_3/rearranged_h_0068.sdf

> <i_m_source_file_index>
77

> <r_mmod_Potential_Energy-OPLS-2005>
-101.630409240723

> <r_mmod_Stretch_Energy-OPLS-2005>
38.2000541687012

> <r_mmod_Bend_Energy-OPLS-2005>
105.496559143066

> <r_mmod_Torsional_Energy-OPLS-2005>
239.833541870117

> <r_mmod_Improper_Torsional_Energy-OPLS-2005>
2.5840961933136

> <r_mmod_Van_der_Waal_Energy-OPLS-2005>
136.998641967773

> <r_mmod_Electrostatic_Energy-OPLS-2005>
-434.078857421875

> <r_mmod_Solvation_Energy-OPLS-2005>
-204.832550048828

> <b_mmod_Minimization_Converged-OPLS-2005>
0

> <r_mmod_RMS_Derivative-OPLS-2005>
4.69862365722656

$$$$
83
                    3D
 Structure written by MMmdl.
172180  0  0  1  0            999 V2000
  -30.6995  -14.4408   20.7063 C   0  0  0  0  0  0
  -30.4137  -12.3382   19.4061 C   0  0  0  0  0  0
  -29.4812  -12.5322   18.1906 C   0  0  0  0  0  0
  -28.0033  -12.3831   18.5967 C   0  0  0  0  0  0
  -27.6471  -13.2087   19.8601 C   0  0  2  0  0  0
  -28.6674  -12.9394   20.9739 C   0  0  0  0  0  0
  -25.2444  -13.8167   20.5663 C   0  0  0  0  0  0
  -24.1713  -13.0428   20.9183 C   0  0  0  0  0  0
  -24.6324  -11.6925   20.8757 C   0  0  0  0  0  0
  -23.8992  -10.4299   21.0442 C   0  0  0  0  0  0
  -24.3558   -9.4224   21.9221 C   0  0  0  0  0  0
  -23.6259   -8.2236   22.0774 C   0  0  0  0  0  0
  -22.4240   -8.0267   21.3572 C   0  0  0  0  0  0
  -21.9851   -9.0217   20.4682 C   0  0  0  0  0  0
  -22.7166  -10.2115   20.3086 C   0  0  0  0  0  0
  -21.6810   -6.0710   22.5279 C   0  0  0  0  0  0
  -21.4007   -6.5615   23.8213 C   0  0  0  0  0  0
  -21.3671   -5.6777   24.9182 C   0  0  0  0  0  0
  -21.6017   -4.3029   24.7233 C   0  0  0  0  0  0
  -21.8812   -3.8124   23.4357 C   0  0  0  0  0  0
  -21.9187   -4.6948   22.3413 C   0  0  0  0  0  0
  -22.7751  -13.5272   21.1848 C   0  0  0  0  0  0
  -22.1666   -4.2136   21.0992 F   0  0  0  0  0  0
  -21.5653   -3.4507   25.7743 F   0  0  0  0  0  0
  -30.0129  -13.2819   20.4712 N   0  0  0  0  0  0
  -26.2882  -12.9359   20.3227 N   0  0  0  0  0  0
  -25.9238  -11.6520   20.5710 N   0  0  0  0  0  0
  -22.0319  -12.8361   22.0495 N   0  0  0  0  0  0
  -25.4135  -15.1885   20.4194 N   0  0  0  0  0  0
  -31.7155  -14.7378   20.0594 O   0  0  0  0  0  0
  -21.6647   -6.8846   21.4220 O   0  0  0  0  0  0
  -22.3465  -14.5551   20.6646 O   0  0  0  0  0  0
  -24.6222  -31.8681   23.2036 C   0  0  0  0  0  0
  -25.9125  -32.4792   23.8356 C   0  0  1  0  0  0
  -27.2525  -27.4281   20.1170 C   0  0  0  0  0  0
  -25.5949  -33.8592   24.2291 N   0  0  0  0  0  0
  -23.4085  -30.4912   21.5423 C   0  0  2  0  0  0
  -24.8638  -28.9448   20.1131 C   0  0  0  0  0  0
  -22.7442  -29.4723   22.4964 C   0  0  0  0  0  0
  -18.0376  -28.1391   22.8522 C   0  0  0  0  0  0
  -24.1497  -36.7291   23.2636 C   0  0  0  0  0  0
  -25.9368  -30.8317   21.3560 C   0  0  0  0  0  0
  -26.0200  -29.4593   20.7182 C   0  0  0  0  0  0
  -27.2207  -28.7066   20.7234 C   0  0  0  0  0  0
  -26.0856  -26.9261   19.5062 C   0  0  0  0  0  0
  -24.8910  -27.6742   19.5070 C   0  0  0  0  0  0
  -23.6199  -29.8120   20.1579 C   0  0  0  0  0  0
  -25.4096  -36.3066   24.0323 C   0  0  1  0  0  0
  -20.5943  -28.3738   23.1348 C   0  0  2  0  0  0
  -20.6809  -26.9430   22.5520 C   0  0  0  0  0  0
  -19.5826  -26.6380   21.5273 C   0  0  0  0  0  0
  -18.2003  -26.7912   22.1692 C   0  0  0  0  0  0
  -19.1604  -28.8870   23.2931 C   0  0  0  0  0  0
  -18.9506  -30.1505   23.8888 C   0  0  0  0  0  0
  -17.6470  -30.6579   24.0565 C   0  0  0  0  0  0
  -25.9063  -34.9442   23.5098 C   0  0  0  0  0  0
  -16.5381  -29.9056   23.6245 C   0  0  0  0  0  0
  -16.7333  -28.6471   23.0336 C   0  0  0  0  0  0
  -26.4519  -31.6557   25.0665 C   0  0  0  0  0  0
  -25.3805  -31.3697   26.1427 C   0  0  0  0  0  0
  -27.0353  -30.2989   24.6042 C   0  0  0  0  0  0
  -27.6102  -32.4263   25.7449 C   0  0  0  0  0  0
  -27.5554  -37.1786   24.8456 C   0  0  0  0  0  0
  -21.4181  -29.3136   22.3724 N   0  0  0  0  0  0
  -26.4261  -37.3751   23.9417 N   0  0  0  0  0  0
  -24.6737  -31.0804   22.0923 N   0  0  0  0  0  0
  -23.4166  -28.8239   23.3018 O   0  0  0  0  0  0
  -28.3907  -26.6530   20.0849 O   0  0  0  0  0  0
  -26.5626  -34.8945   22.4656 O   0  0  0  0  0  0
  -23.5416  -32.1460   23.7396 O   0  0  0  0  0  0
  -28.6836  -21.7977   21.3000 C   0  0  0  0  0  0
  -29.0760  -20.8922   20.2904 C   0  0  0  0  0  0
  -28.6750  -21.2604   22.6098 C   0  0  0  0  0  0
  -29.2385  -19.1710   21.8069 C   0  0  0  0  0  0
  -29.1273  -21.2785   18.8294 C   0  0  0  0  0  0
  -25.8332  -21.1915   23.3671 C   0  0  0  0  0  0
  -27.7536  -17.1467   21.5783 C   0  0  0  0  0  0
  -30.0527  -14.8831   23.0172 C   0  0  0  0  0  0
  -28.1284  -23.2070   20.9786 C   0  0  0  0  0  0
  -28.2653  -22.0684   23.8396 C   0  0  0  0  0  0
  -26.7447  -22.1817   24.1151 C   0  0  0  0  0  0
  -29.1456  -24.3778   20.8794 C   0  0  0  0  0  0
  -30.3219  -16.7901   21.4729 C   0  0  0  0  0  0
  -28.5639  -25.7865   21.2176 C   0  0  0  0  0  0
  -29.1366  -17.6463   22.0348 C   0  0  1  0  0  0
  -29.3381  -19.5944   20.5535 N   0  0  0  0  0  0
  -28.9485  -19.9582   22.8416 N   0  0  0  0  0  0
  -30.1694  -15.3099   21.6135 N   0  0  0  0  0  0
  -31.4542  -12.4701   19.1028 H   0  0  0  0  0  0
  -30.3358  -11.3127   19.7720 H   0  0  0  0  0  0
  -29.7217  -11.8145   17.4051 H   0  0  0  0  0  0
  -29.6370  -13.5201   17.7564 H   0  0  0  0  0  0
  -27.8125  -11.3243   18.7696 H   0  0  0  0  0  0
  -27.3514  -12.6759   17.7746 H   0  0  0  0  0  0
  -27.7103  -14.2666   19.5994 H   0  0  0  0  0  0
  -28.6436  -11.8881   21.2621 H   0  0  0  0  0  0
  -28.3416  -13.4797   21.8569 H   0  0  0  0  0  0
  -25.2709   -9.5687   22.4798 H   0  0  0  0  0  0
  -23.9928   -7.4593   22.7491 H   0  0  0  0  0  0
  -21.0778   -8.8749   19.8996 H   0  0  0  0  0  0
  -22.3645  -10.9627   19.6172 H   0  0  0  0  0  0
  -21.2020   -7.6123   23.9721 H   0  0  0  0  0  0
  -21.1479   -6.0508   25.9086 H   0  0  0  0  0  0
  -22.0589   -2.7585   23.2845 H   0  0  0  0  0  0
  -22.3859  -12.0017   22.4913 H   0  0  0  0  0  0
  -21.0899  -13.1375   22.2581 H   0  0  0  0  0  0
  -24.6496  -15.8366   20.5855 H   0  0  0  0  0  0
  -26.2862  -15.6412   20.1846 H   0  0  0  0  0  0
  -26.7205  -32.5515   23.1149 H   0  0  0  0  0  0
  -25.0169  -33.9756   25.0480 H   0  0  0  0  0  0
  -22.6955  -31.3077   21.3941 H   0  0  0  0  0  0
  -23.3754  -35.9645   23.3301 H   0  0  0  0  0  0
  -24.3604  -36.8900   22.2059 H   0  0  0  0  0  0
  -23.7281  -37.6498   23.6650 H   0  0  0  0  0  0
  -26.0548  -31.5903   20.5781 H   0  0  0  0  0  0
  -26.8162  -30.8896   21.9805 H   0  0  0  0  0  0
  -28.1064  -29.0983   21.2093 H   0  0  0  0  0  0
  -26.1067  -25.9498   19.0433 H   0  0  0  0  0  0
  -24.0075  -27.2670   19.0368 H   0  0  0  0  0  0
  -23.7308  -30.5786   19.3918 H   0  0  0  0  0  0
  -22.7408  -29.2326   19.8615 H   0  0  0  0  0  0
  -25.1293  -36.1925   25.0810 H   0  0  0  0  0  0
  -21.0017  -28.3333   24.1492 H   0  0  0  0  0  0
  -20.5683  -26.2352   23.3738 H   0  0  0  0  0  0
  -21.6681  -26.7487   22.1372 H   0  0  0  0  0  0
  -19.7022  -25.6268   21.1323 H   0  0  0  0  0  0
  -19.6824  -27.3154   20.6759 H   0  0  0  0  0  0
  -17.4295  -26.6692   21.4068 H   0  0  0  0  0  0
  -18.0380  -26.0087   22.9134 H   0  0  0  0  0  0
  -19.7992  -30.7338   24.2223 H   0  0  0  0  0  0
  -17.4935  -31.6257   24.5173 H   0  0  0  0  0  0
  -15.5349  -30.2901   23.7546 H   0  0  0  0  0  0
  -15.8745  -28.0780   22.6988 H   0  0  0  0  0  0
  -24.5990  -30.6998   25.7802 H   0  0  0  0  0  0
  -24.9017  -32.2869   26.4854 H   0  0  0  0  0  0
  -25.8204  -30.8945   27.0209 H   0  0  0  0  0  0
  -26.2873  -29.6700   24.1182 H   0  0  0  0  0  0
  -27.4192  -29.7246   25.4487 H   0  0  0  0  0  0
  -27.8686  -30.4278   23.9129 H   0  0  0  0  0  0
  -27.2717  -33.3555   26.2056 H   0  0  0  0  0  0
  -28.3912  -32.6819   25.0271 H   0  0  0  0  0  0
  -28.0763  -31.8386   26.5367 H   0  0  0  0  0  0
  -28.2591  -38.0064   24.7486 H   0  0  0  0  0  0
  -28.1044  -36.2610   24.6306 H   0  0  0  0  0  0
  -27.2303  -37.1429   25.8865 H   0  0  0  0  0  0
  -20.9367  -29.8999   21.7018 H   0  0  0  0  0  0
  -26.0169  -38.2851   24.1367 H   0  0  0  0  0  0
  -28.1199  -21.2567   18.4157 H   0  0  0  0  0  0
  -29.7432  -20.5859   18.2516 H   0  0  0  0  0  0
  -29.5327  -22.2824   18.7160 H   0  0  0  0  0  0
  -24.7795  -21.4008   23.5636 H   0  0  0  0  0  0
  -26.0342  -20.1617   23.6757 H   0  0  0  0  0  0
  -25.9664  -21.2607   22.2856 H   0  0  0  0  0  0
  -26.9578  -17.6492   22.1325 H   0  0  0  0  0  0
  -27.6475  -16.0781   21.7467 H   0  0  0  0  0  0
  -27.5924  -17.3409   20.5185 H   0  0  0  0  0  0
  -30.8624  -15.3009   23.6150 H   0  0  0  0  0  0
  -30.0785  -13.7995   23.1436 H   0  0  0  0  0  0
  -29.1086  -15.2227   23.4381 H   0  0  0  0  0  0
  -27.3765  -23.4448   21.7292 H   0  0  0  0  0  0
  -27.5479  -23.1551   20.0588 H   0  0  0  0  0  0
  -28.6983  -23.0685   23.7939 H   0  0  0  0  0  0
  -28.7366  -21.6057   24.7088 H   0  0  0  0  0  0
  -26.5939  -22.0802   25.1912 H   0  0  0  0  0  0
  -26.4135  -23.1920   23.8635 H   0  0  0  0  0  0
  -29.6323  -24.3974   19.8996 H   0  0  0  0  0  0
  -29.9446  -24.1837   21.5935 H   0  0  0  0  0  0
  -31.2451  -17.1051   21.9543 H   0  0  0  0  0  0
  -30.4309  -17.0400   20.4161 H   0  0  0  0  0  0
  -27.6457  -25.6924   21.8035 H   0  0  0  0  0  0
  -29.2694  -26.2996   21.8744 H   0  0  0  0  0  0
  -29.1446  -17.5121   23.1189 H   0  0  0  0  0  0
  1 25  1  0  0  0
  1 30  2  0  0  0
  1 88  1  0  0  0
  2  3  1  0  0  0
  2 25  1  0  0  0
  2 89  1  0  0  0
  2 90  1  0  0  0
  3  4  1  0  0  0
  3 91  1  0  0  0
  3 92  1  0  0  0
  4  5  1  0  0  0
  4 93  1  0  0  0
  4 94  1  0  0  0
  5  6  1  0  0  0
  5 26  1  0  0  0
  5 95  1  0  0  0
  6 25  1  0  0  0
  6 96  1  0  0  0
  6 97  1  0  0  0
  7  8  2  0  0  0
  7 26  1  0  0  0
  7 29  1  0  0  0
  8  9  1  0  0  0
  8 22  1  0  0  0
  9 10  1  0  0  0
  9 27  2  0  0  0
 10 11  2  0  0  0
 10 15  1  0  0  0
 11 12  1  0  0  0
 11 98  1  0  0  0
 12 13  2  0  0  0
 12 99  1  0  0  0
 13 14  1  0  0  0
 13 31  1  0  0  0
 14 15  2  0  0  0
 14100  1  0  0  0
 15101  1  0  0  0
 16 17  2  0  0  0
 16 21  1  0  0  0
 16 31  1  0  0  0
 17 18  1  0  0  0
 17102  1  0  0  0
 18 19  2  0  0  0
 18103  1  0  0  0
 19 20  1  0  0  0
 19 24  1  0  0  0
 20 21  2  0  0  0
 20104  1  0  0  0
 21 23  1  0  0  0
 22 28  1  0  0  0
 22 32  2  0  0  0
 26 27  1  0  0  0
 28105  1  0  0  0
 28106  1  0  0  0
 29107  1  0  0  0
 29108  1  0  0  0
 33 34  1  0  0  0
 33 66  1  0  0  0
 33 70  2  0  0  0
 34 36  1  0  0  0
 34 59  1  0  0  0
 34109  1  0  0  0
 35 44  2  0  0  0
 35 45  1  0  0  0
 35 68  1  0  0  0
 36 56  1  0  0  0
 36110  1  0  0  0
 37 39  1  0  0  0
 37 47  1  0  0  0
 37 66  1  0  0  0
 37111  1  0  0  0
 38 43  2  0  0  0
 38 46  1  0  0  0
 38 47  1  0  0  0
 39 64  1  0  0  0
 39 67  2  0  0  0
 40 52  1  0  0  0
 40 53  2  0  0  0
 40 58  1  0  0  0
 41112  1  0  0  0
 41113  1  0  0  0
 41114  1  0  0  0
 41 48  1  0  0  0
 42 43  1  0  0  0
 42 66  1  0  0  0
 42115  1  0  0  0
 42116  1  0  0  0
 43 44  1  0  0  0
 44117  1  0  0  0
 45 46  2  0  0  0
 45118  1  0  0  0
 46119  1  0  0  0
 47120  1  0  0  0
 47121  1  0  0  0
 48 56  1  0  0  0
 48 65  1  0  0  0
 48122  1  0  0  0
 49 50  1  0  0  0
 49 53  1  0  0  0
 49 64  1  0  0  0
 49123  1  0  0  0
 50 51  1  0  0  0
 50124  1  0  0  0
 50125  1  0  0  0
 51 52  1  0  0  0
 51126  1  0  0  0
 51127  1  0  0  0
 52128  1  0  0  0
 52129  1  0  0  0
 53 54  1  0  0  0
 54 55  2  0  0  0
 54130  1  0  0  0
 55 57  1  0  0  0
 55131  1  0  0  0
 56 69  2  0  0  0
 57 58  2  0  0  0
 57132  1  0  0  0
 58133  1  0  0  0
 59 60  1  0  0  0
 59 61  1  0  0  0
 59 62  1  0  0  0
 60134  1  0  0  0
 60135  1  0  0  0
 60136  1  0  0  0
 61137  1  0  0  0
 61138  1  0  0  0
 61139  1  0  0  0
 62140  1  0  0  0
 62141  1  0  0  0
 62142  1  0  0  0
 63 65  1  0  0  0
 63143  1  0  0  0
 63144  1  0  0  0
 63145  1  0  0  0
 64146  1  0  0  0
 65147  1  0  0  0
 68 84  1  0  0  0
 71 72  2  0  0  0
 71 73  1  0  0  0
 71 79  1  0  0  0
 72 75  1  0  0  0
 72 86  1  0  0  0
 73 80  1  0  0  0
 73 87  2  0  0  0
 74 85  1  0  0  0
 74 86  2  0  0  0
 74 87  1  0  0  0
 75148  1  0  0  0
 75149  1  0  0  0
 75150  1  0  0  0
 76 81  1  0  0  0
 76151  1  0  0  0
 76152  1  0  0  0
 76153  1  0  0  0
 77154  1  0  0  0
 77155  1  0  0  0
 77156  1  0  0  0
 77 85  1  0  0  0
 78 88  1  0  0  0
 78157  1  0  0  0
 78158  1  0  0  0
 78159  1  0  0  0
 79 82  1  0  0  0
 79160  1  0  0  0
 79161  1  0  0  0
 80 81  1  0  0  0
 80162  1  0  0  0
 80163  1  0  0  0
 81164  1  0  0  0
 81165  1  0  0  0
 82 84  1  0  0  0
 82166  1  0  0  0
 82167  1  0  0  0
 83 85  1  0  0  0
 83 88  1  0  0  0
 83168  1  0  0  0
 83169  1  0  0  0
 84170  1  0  0  0
 84171  1  0  0  0
 85172  1  0  0  0
M  ISO  4   1 100  68 101  84 101  88 100
M  END
> <chiral flag>
0

> <version>
0

> <s_m_source_file>
/data/baiqing/PycharmProjects/Reinvent-master-3.2/result/LINK_invent/BTK/process_docking_weight1_custom_sum_contain_oxygen_bond_distance_aromatic_linkinvent_7_9_3/rearranged_h_0068.sdf

> <i_m_source_file_index>
78

> <r_mmod_Potential_Energy-OPLS-2005>
-227.607177734375

> <r_mmod_Stretch_Energy-OPLS-2005>
47.7412185668945

> <r_mmod_Bend_Energy-OPLS-2005>
117.034896850586

> <r_mmod_Torsional_Energy-OPLS-2005>
305.199188232422

> <r_mmod_Improper_Torsional_Energy-OPLS-2005>
7.55418395996094

> <r_mmod_Van_der_Waal_Energy-OPLS-2005>
155.075942993164

> <r_mmod_Electrostatic_Energy-OPLS-2005>
-666.005065917969

> <r_mmod_Solvation_Energy-OPLS-2005>
-207.289932250977

> <b_mmod_Minimization_Converged-OPLS-2005>
0

> <r_mmod_RMS_Derivative-OPLS-2005>
7.28081512451172

$$$$
84
                    3D
 Structure written by MMmdl.
166174  0  0  1  0            999 V2000
  -30.6866  -14.5853   20.5300 C   0  0  0  0  0  0
  -30.4312  -12.3660   19.4435 C   0  0  0  0  0  0
  -29.5008  -12.4863   18.2199 C   0  0  0  0  0  0
  -28.0260  -12.3289   18.6357 C   0  0  0  0  0  0
  -27.6516  -13.2154   19.8532 C   0  0  2  0  0  0
  -28.6978  -13.0774   20.9824 C   0  0  0  0  0  0
  -25.2622  -13.8125   20.5743 C   0  0  0  0  0  0
  -24.1865  -13.0419   20.9238 C   0  0  0  0  0  0
  -24.6396  -11.6881   20.8764 C   0  0  0  0  0  0
  -23.9051  -10.4274   21.0450 C   0  0  0  0  0  0
  -24.3601   -9.4186   21.9238 C   0  0  0  0  0  0
  -23.6286   -8.2215   22.0764 C   0  0  0  0  0  0
  -22.4272   -8.0260   21.3539 C   0  0  0  0  0  0
  -21.9903   -9.0238   20.4651 C   0  0  0  0  0  0
  -22.7219  -10.2135   20.3094 C   0  0  0  0  0  0
  -21.6837   -6.0736   22.5284 C   0  0  0  0  0  0
  -21.3980   -6.5650   23.8209 C   0  0  0  0  0  0
  -21.3668   -5.6817   24.9179 C   0  0  0  0  0  0
  -21.6040   -4.3077   24.7238 C   0  0  0  0  0  0
  -21.8807   -3.8153   23.4364 C   0  0  0  0  0  0
  -21.9176   -4.6966   22.3409 C   0  0  0  0  0  0
  -22.7886  -13.5226   21.1858 C   0  0  0  0  0  0
  -22.1653   -4.2149   21.0993 F   0  0  0  0  0  0
  -21.5646   -3.4551   25.7750 F   0  0  0  0  0  0
  -30.0163  -13.3971   20.4145 N   0  0  0  0  0  0
  -26.3016  -12.9306   20.3290 N   0  0  0  0  0  0
  -25.9326  -11.6464   20.5743 N   0  0  0  0  0  0
  -22.0498  -12.8258   22.0423 N   0  0  0  0  0  0
  -25.4378  -15.1839   20.4205 N   0  0  0  0  0  0
  -31.8544  -14.6886   20.1580 O   0  0  0  0  0  0
  -21.6627   -6.8877   21.4244 O   0  0  0  0  0  0
  -22.3602  -14.5539   20.6702 O   0  0  0  0  0  0
  -24.6187  -31.8677   23.2101 C   0  0  0  0  0  0
  -25.9054  -32.4824   23.8416 C   0  0  1  0  0  0
  -27.2248  -27.3479   20.1325 C   0  0  0  0  0  0
  -25.5896  -33.8624   24.2345 N   0  0  0  0  0  0
  -23.4098  -30.4921   21.5525 C   0  0  2  0  0  0
  -24.8576  -28.9474   20.1130 C   0  0  0  0  0  0
  -22.7431  -29.4697   22.5012 C   0  0  0  0  0  0
  -18.0305  -28.1363   22.8507 C   0  0  0  0  0  0
  -24.1494  -36.7291   23.2649 C   0  0  0  0  0  0
  -25.9447  -30.8055   21.3778 C   0  0  0  0  0  0
  -26.0220  -29.4345   20.7199 C   0  0  0  0  0  0
  -27.2028  -28.6437   20.7284 C   0  0  0  0  0  0
  -26.0407  -26.9127   19.4876 C   0  0  0  0  0  0
  -24.8663  -27.6884   19.4934 C   0  0  0  0  0  0
  -23.6207  -29.8210   20.1681 C   0  0  0  0  0  0
  -25.4115  -36.3113   24.0361 C   0  0  1  0  0  0
  -20.5887  -28.3698   23.1307 C   0  0  2  0  0  0
  -20.6826  -26.9440   22.5451 C   0  0  0  0  0  0
  -19.5823  -26.6430   21.5220 C   0  0  0  0  0  0
  -18.1990  -26.7906   22.1652 C   0  0  0  0  0  0
  -19.1540  -28.8867   23.2895 C   0  0  0  0  0  0
  -18.9442  -30.1489   23.8875 C   0  0  0  0  0  0
  -17.6427  -30.6595   24.0507 C   0  0  0  0  0  0
  -25.9034  -34.9478   23.5171 C   0  0  0  0  0  0
  -16.5329  -29.9055   23.6318 C   0  0  0  0  0  0
  -16.7286  -28.6458   23.0376 C   0  0  0  0  0  0
  -26.4451  -31.6614   25.0776 C   0  0  0  0  0  0
  -25.3706  -31.3721   26.1533 C   0  0  0  0  0  0
  -27.0322  -30.3062   24.6202 C   0  0  0  0  0  0
  -27.6028  -32.4349   25.7506 C   0  0  0  0  0  0
  -27.5593  -37.1798   24.8473 C   0  0  0  0  0  0
  -21.4179  -29.3053   22.3710 N   0  0  0  0  0  0
  -26.4308  -37.3783   23.9418 N   0  0  0  0  0  0
  -24.6750  -31.0713   22.1025 N   0  0  0  0  0  0
  -23.4183  -28.8287   23.3102 O   0  0  0  0  0  0
  -28.3650  -26.5406   20.2179 O   0  0  0  0  0  0
  -26.5596  -34.8935   22.4728 O   0  0  0  0  0  0
  -23.5364  -32.1476   23.7462 O   0  0  0  0  0  0
  -27.8689  -17.5012   21.9648 C   0  0  0  0  0  0
  -26.8120  -19.5311   21.9235 C   0  0  0  0  0  0
  -29.0286  -18.0508   21.3714 C   0  0  0  0  0  0
  -27.9303  -20.1763   21.3205 C   0  0  0  0  0  0
  -32.1950  -18.8313   21.3661 C   0  0  0  0  0  0
  -27.2726  -21.7101   19.4190 C   0  0  0  0  0  0
  -26.6894  -22.3966   21.7565 C   0  0  0  0  0  0
  -31.5138  -17.7177   20.5482 C   0  0  0  0  0  0
  -29.0023  -24.1839   21.0977 C   0  0  0  0  0  0
  -29.0746  -22.5943   20.9380 C   0  0  0  0  0  0
  -28.2680  -25.0829   20.0330 C   0  0  0  0  0  0
  -30.2784  -17.0991   21.2679 C   0  0  2  0  0  0
  -27.7739  -21.6987   20.8763 C   0  0  0  0  0  0
  -26.7679  -18.2222   22.2337 N   0  0  0  0  0  0
  -29.0411  -19.3994   21.0180 N   0  0  0  0  0  0
  -29.9450  -15.6632   20.9191 N   0  0  0  0  0  0
  -31.4718  -12.4721   19.1283 H   0  0  0  0  0  0
  -30.3610  -11.3758   19.8966 H   0  0  0  0  0  0
  -29.7625  -11.7372   17.4721 H   0  0  0  0  0  0
  -29.6466  -13.4568   17.7449 H   0  0  0  0  0  0
  -27.8636  -11.2806   18.8825 H   0  0  0  0  0  0
  -27.3702  -12.5396   17.7902 H   0  0  0  0  0  0
  -27.6674  -14.2482   19.5049 H   0  0  0  0  0  0
  -28.6970  -12.0586   21.3698 H   0  0  0  0  0  0
  -28.4446  -13.7204   21.8282 H   0  0  0  0  0  0
  -25.2735   -9.5655   22.4844 H   0  0  0  0  0  0
  -23.9993   -7.4592   22.7469 H   0  0  0  0  0  0
  -21.0836   -8.8722   19.8957 H   0  0  0  0  0  0
  -22.3648  -10.9676   19.6212 H   0  0  0  0  0  0
  -21.1937   -7.6149   23.9705 H   0  0  0  0  0  0
  -21.1523   -6.0557   25.9086 H   0  0  0  0  0  0
  -22.0578   -2.7609   23.2864 H   0  0  0  0  0  0
  -22.4065  -11.9909   22.4849 H   0  0  0  0  0  0
  -21.1097  -13.1278   22.2557 H   0  0  0  0  0  0
  -24.6762  -15.8407   20.5407 H   0  0  0  0  0  0
  -26.2739  -15.6110   20.0471 H   0  0  0  0  0  0
  -26.7117  -32.5506   23.1158 H   0  0  0  0  0  0
  -25.0014  -33.9751   25.0477 H   0  0  0  0  0  0
  -22.7001  -31.3113   21.4104 H   0  0  0  0  0  0
  -23.3779  -35.9597   23.3313 H   0  0  0  0  0  0
  -24.3572  -36.8900   22.2058 H   0  0  0  0  0  0
  -23.7231  -37.6492   23.6647 H   0  0  0  0  0  0
  -26.0773  -31.5732   20.6131 H   0  0  0  0  0  0
  -26.8190  -30.8460   22.0157 H   0  0  0  0  0  0
  -28.0870  -29.0095   21.2323 H   0  0  0  0  0  0
  -25.9774  -25.9633   18.9792 H   0  0  0  0  0  0
  -23.9709  -27.3006   19.0267 H   0  0  0  0  0  0
  -23.7296  -30.5933   19.4075 H   0  0  0  0  0  0
  -22.7393  -29.2473   19.8746 H   0  0  0  0  0  0
  -25.1301  -36.1975   25.0850 H   0  0  0  0  0  0
  -20.9950  -28.3288   24.1436 H   0  0  0  0  0  0
  -21.6731  -26.7504   22.1293 H   0  0  0  0  0  0
  -20.5702  -26.2328   23.3658 H   0  0  0  0  0  0
  -19.7006  -25.6358   21.1204 H   0  0  0  0  0  0
  -19.6730  -27.3292   20.6778 H   0  0  0  0  0  0
  -17.4281  -26.6658   21.4034 H   0  0  0  0  0  0
  -18.0407  -26.0029   22.9036 H   0  0  0  0  0  0
  -19.7889  -30.7339   24.2251 H   0  0  0  0  0  0
  -17.4963  -31.6305   24.5046 H   0  0  0  0  0  0
  -15.5331  -30.2938   23.7642 H   0  0  0  0  0  0
  -15.8703  -28.0739   22.7098 H   0  0  0  0  0  0
  -24.5870  -30.7080   25.7864 H   0  0  0  0  0  0
  -24.8925  -32.2884   26.4998 H   0  0  0  0  0  0
  -25.8055  -30.8875   27.0291 H   0  0  0  0  0  0
  -26.2932  -29.6800   24.1199 H   0  0  0  0  0  0
  -27.4027  -29.7307   25.4693 H   0  0  0  0  0  0
  -27.8773  -30.4406   23.9452 H   0  0  0  0  0  0
  -27.2663  -33.3657   26.2081 H   0  0  0  0  0  0
  -28.3796  -32.6899   25.0285 H   0  0  0  0  0  0
  -28.0740  -31.8497   26.5407 H   0  0  0  0  0  0
  -28.2618  -38.0087   24.7517 H   0  0  0  0  0  0
  -28.1093  -36.2627   24.6307 H   0  0  0  0  0  0
  -27.2317  -37.1457   25.8875 H   0  0  0  0  0  0
  -20.9386  -29.8644   21.6779 H   0  0  0  0  0  0
  -26.0221  -38.2878   24.1364 H   0  0  0  0  0  0
  -27.8198  -16.4641   22.2582 H   0  0  0  0  0  0
  -25.8868  -20.0341   22.1510 H   0  0  0  0  0  0
  -31.5336  -19.6737   21.5550 H   0  0  0  0  0  0
  -33.0799  -19.2151   20.8598 H   0  0  0  0  0  0
  -32.5208  -18.4552   22.3364 H   0  0  0  0  0  0
  -26.3534  -21.1306   19.3065 H   0  0  0  0  0  0
  -28.0181  -21.2836   18.7504 H   0  0  0  0  0  0
  -27.0617  -22.7181   19.0672 H   0  0  0  0  0  0
  -25.6877  -22.0022   21.5888 H   0  0  0  0  0  0
  -26.5658  -23.4566   21.5609 H   0  0  0  0  0  0
  -26.9259  -22.3023   22.8169 H   0  0  0  0  0  0
  -31.2446  -18.0733   19.5541 H   0  0  0  0  0  0
  -32.3009  -16.9831   20.3967 H   0  0  0  0  0  0
  -28.6035  -24.4172   22.0859 H   0  0  0  0  0  0
  -30.0343  -24.5338   21.1312 H   0  0  0  0  0  0
  -29.6534  -22.2388   21.7915 H   0  0  0  0  0  0
  -29.6961  -22.3654   20.0696 H   0  0  0  0  0  0
  -27.2367  -24.7517   20.0367 H   0  0  0  0  0  0
  -28.6560  -24.8440   19.0430 H   0  0  0  0  0  0
  -30.5821  -16.9994   22.3114 H   0  0  0  0  0  0
  -28.9922  -15.4115   21.1201 H   0  0  0  0  0  0
  1 25  1  0  0  0
  1 30  2  0  0  0
  1 86  1  0  0  0
  2  3  1  0  0  0
  2 25  1  0  0  0
  2 87  1  0  0  0
  2 88  1  0  0  0
  3  4  1  0  0  0
  3 89  1  0  0  0
  3 90  1  0  0  0
  4  5  1  0  0  0
  4 91  1  0  0  0
  4 92  1  0  0  0
  5  6  1  0  0  0
  5 26  1  0  0  0
  5 93  1  0  0  0
  6 25  1  0  0  0
  6 94  1  0  0  0
  6 95  1  0  0  0
  7  8  2  0  0  0
  7 26  1  0  0  0
  7 29  1  0  0  0
  8  9  1  0  0  0
  8 22  1  0  0  0
  9 10  1  0  0  0
  9 27  2  0  0  0
 10 11  2  0  0  0
 10 15  1  0  0  0
 11 12  1  0  0  0
 11 96  1  0  0  0
 12 13  2  0  0  0
 12 97  1  0  0  0
 13 14  1  0  0  0
 13 31  1  0  0  0
 14 15  2  0  0  0
 14 98  1  0  0  0
 15 99  1  0  0  0
 16 17  2  0  0  0
 16 21  1  0  0  0
 16 31  1  0  0  0
 17 18  1  0  0  0
 17100  1  0  0  0
 18 19  2  0  0  0
 18101  1  0  0  0
 19 20  1  0  0  0
 19 24  1  0  0  0
 20 21  2  0  0  0
 20102  1  0  0  0
 21 23  1  0  0  0
 22 28  1  0  0  0
 22 32  2  0  0  0
 26 27  1  0  0  0
 28103  1  0  0  0
 28104  1  0  0  0
 29105  1  0  0  0
 29106  1  0  0  0
 33 34  1  0  0  0
 33 66  1  0  0  0
 33 70  2  0  0  0
 34 36  1  0  0  0
 34 59  1  0  0  0
 34107  1  0  0  0
 35 44  2  0  0  0
 35 45  1  0  0  0
 35 68  1  0  0  0
 36 56  1  0  0  0
 36108  1  0  0  0
 37 39  1  0  0  0
 37 47  1  0  0  0
 37 66  1  0  0  0
 37109  1  0  0  0
 38 43  2  0  0  0
 38 46  1  0  0  0
 38 47  1  0  0  0
 39 64  1  0  0  0
 39 67  2  0  0  0
 40 52  1  0  0  0
 40 53  2  0  0  0
 40 58  1  0  0  0
 41110  1  0  0  0
 41111  1  0  0  0
 41112  1  0  0  0
 41 48  1  0  0  0
 42 43  1  0  0  0
 42 66  1  0  0  0
 42113  1  0  0  0
 42114  1  0  0  0
 43 44  1  0  0  0
 44115  1  0  0  0
 45 46  2  0  0  0
 45116  1  0  0  0
 46117  1  0  0  0
 47118  1  0  0  0
 47119  1  0  0  0
 48 56  1  0  0  0
 48 65  1  0  0  0
 48120  1  0  0  0
 49 50  1  0  0  0
 49 53  1  0  0  0
 49 64  1  0  0  0
 49121  1  0  0  0
 50 51  1  0  0  0
 50122  1  0  0  0
 50123  1  0  0  0
 51 52  1  0  0  0
 51124  1  0  0  0
 51125  1  0  0  0
 52126  1  0  0  0
 52127  1  0  0  0
 53 54  1  0  0  0
 54 55  2  0  0  0
 54128  1  0  0  0
 55 57  1  0  0  0
 55129  1  0  0  0
 56 69  2  0  0  0
 57 58  2  0  0  0
 57130  1  0  0  0
 58131  1  0  0  0
 59 60  1  0  0  0
 59 61  1  0  0  0
 59 62  1  0  0  0
 60132  1  0  0  0
 60133  1  0  0  0
 60134  1  0  0  0
 61135  1  0  0  0
 61136  1  0  0  0
 61137  1  0  0  0
 62138  1  0  0  0
 62139  1  0  0  0
 62140  1  0  0  0
 63 65  1  0  0  0
 63141  1  0  0  0
 63142  1  0  0  0
 63143  1  0  0  0
 64144  1  0  0  0
 65145  1  0  0  0
 68 81  1  0  0  0
 71 73  2  0  0  0
 71 84  1  0  0  0
 71146  1  0  0  0
 72 74  1  0  0  0
 72 84  2  0  0  0
 72147  1  0  0  0
 73 82  1  0  0  0
 73 85  1  0  0  0
 74 83  1  0  0  0
 74 85  2  0  0  0
 75 78  1  0  0  0
 75148  1  0  0  0
 75149  1  0  0  0
 75150  1  0  0  0
 76151  1  0  0  0
 76152  1  0  0  0
 76153  1  0  0  0
 76 83  1  0  0  0
 77 83  1  0  0  0
 77154  1  0  0  0
 77155  1  0  0  0
 77156  1  0  0  0
 78157  1  0  0  0
 78158  1  0  0  0
 78 82  1  0  0  0
 79 80  1  0  0  0
 79 81  1  0  0  0
 79159  1  0  0  0
 79160  1  0  0  0
 80 83  1  0  0  0
 80161  1  0  0  0
 80162  1  0  0  0
 81163  1  0  0  0
 81164  1  0  0  0
 82 86  1  0  0  0
 82165  1  0  0  0
 86166  1  0  0  0
M  ISO  4   1 100  68 101  81 101  86 100
M  END
> <chiral flag>
0

> <version>
0

> <s_m_source_file>
/data/baiqing/PycharmProjects/Reinvent-master-3.2/result/LINK_invent/BTK/process_docking_weight1_custom_sum_contain_oxygen_bond_distance_aromatic_linkinvent_7_9_3/rearranged_h_0068.sdf

> <i_m_source_file_index>
79

> <r_mmod_Potential_Energy-OPLS-2005>
150.752212524414

> <r_mmod_Stretch_Energy-OPLS-2005>
88.9557952880859

> <r_mmod_Bend_Energy-OPLS-2005>
172.319580078125

> <r_mmod_Torsional_Energy-OPLS-2005>
215.616241455078

> <r_mmod_Improper_Torsional_Energy-OPLS-2005>
4.62501955032349

> <r_mmod_Van_der_Waal_Energy-OPLS-2005>
166.217498779297

> <r_mmod_Electrostatic_Energy-OPLS-2005>
-328.256683349609

> <r_mmod_Solvation_Energy-OPLS-2005>
-206.209213256836

> <b_mmod_Minimization_Converged-OPLS-2005>
0

> <r_mmod_RMS_Derivative-OPLS-2005>
4.72233009338379

$$$$
85
                    3D
 Structure written by MMmdl.
178186  0  0  1  0            999 V2000
  -30.8292  -14.4151   20.6392 C   0  0  0  0  0  0
  -30.4107  -12.2945   19.4363 C   0  0  0  0  0  0
  -29.4828  -12.4668   18.2193 C   0  0  0  0  0  0
  -28.0188  -12.3062   18.6633 C   0  0  0  0  0  0
  -27.6681  -13.2033   19.8765 C   0  0  2  0  0  0
  -28.7139  -12.9989   20.9943 C   0  0  0  0  0  0
  -25.2637  -13.8192   20.5701 C   0  0  0  0  0  0
  -24.1856  -13.0437   20.9212 C   0  0  0  0  0  0
  -24.6413  -11.6942   20.8829 C   0  0  0  0  0  0
  -23.9039  -10.4333   21.0437 C   0  0  0  0  0  0
  -24.3577   -9.4228   21.9187 C   0  0  0  0  0  0
  -23.6293   -8.2245   22.0730 C   0  0  0  0  0  0
  -22.4298   -8.0254   21.3495 C   0  0  0  0  0  0
  -21.9933   -9.0268   20.4647 C   0  0  0  0  0  0
  -22.7218  -10.2175   20.3070 C   0  0  0  0  0  0
  -21.6866   -6.0743   22.5303 C   0  0  0  0  0  0
  -21.4010   -6.5655   23.8219 C   0  0  0  0  0  0
  -21.3667   -5.6809   24.9190 C   0  0  0  0  0  0
  -21.6068   -4.3066   24.7248 C   0  0  0  0  0  0
  -21.8821   -3.8142   23.4370 C   0  0  0  0  0  0
  -21.9189   -4.6965   22.3432 C   0  0  0  0  0  0
  -22.7893  -13.5257   21.1836 C   0  0  0  0  0  0
  -22.1621   -4.2155   21.1000 F   0  0  0  0  0  0
  -21.5667   -3.4526   25.7754 F   0  0  0  0  0  0
  -30.0473  -13.3049   20.4520 N   0  0  0  0  0  0
  -26.3087  -12.9345   20.3499 N   0  0  0  0  0  0
  -25.9365  -11.6525   20.5972 N   0  0  0  0  0  0
  -22.0530  -12.8296   22.0453 N   0  0  0  0  0  0
  -25.4347  -15.1883   20.4023 N   0  0  0  0  0  0
  -31.8263  -14.5714   19.9261 O   0  0  0  0  0  0
  -21.6614   -6.8884   21.4252 O   0  0  0  0  0  0
  -22.3567  -14.5516   20.6649 O   0  0  0  0  0  0
  -24.6163  -31.8676   23.2104 C   0  0  0  0  0  0
  -25.9031  -32.4836   23.8424 C   0  0  1  0  0  0
  -27.2463  -27.4204   20.0987 C   0  0  0  0  0  0
  -25.5888  -33.8633   24.2364 N   0  0  0  0  0  0
  -23.4071  -30.4882   21.5500 C   0  0  2  0  0  0
  -24.8562  -28.9459   20.1251 C   0  0  0  0  0  0
  -22.7422  -29.4660   22.5000 C   0  0  0  0  0  0
  -18.0270  -28.1370   22.8476 C   0  0  0  0  0  0
  -24.1478  -36.7310   23.2639 C   0  0  0  0  0  0
  -25.9389  -30.8247   21.3691 C   0  0  0  0  0  0
  -26.0168  -29.4565   20.7195 C   0  0  0  0  0  0
  -27.2138  -28.7019   20.7006 C   0  0  0  0  0  0
  -26.0624  -26.9275   19.5031 C   0  0  0  0  0  0
  -24.8739  -27.6807   19.5157 C   0  0  0  0  0  0
  -23.6193  -29.8149   20.1678 C   0  0  0  0  0  0
  -25.4099  -36.3137   24.0353 C   0  0  1  0  0  0
  -20.5863  -28.3672   23.1290 C   0  0  2  0  0  0
  -20.6768  -26.9406   22.5406 C   0  0  0  0  0  0
  -19.5762  -26.6377   21.5195 C   0  0  0  0  0  0
  -18.1924  -26.7914   22.1604 C   0  0  0  0  0  0
  -19.1520  -28.8832   23.2885 C   0  0  0  0  0  0
  -18.9454  -30.1433   23.8914 C   0  0  0  0  0  0
  -17.6467  -30.6582   24.0556 C   0  0  0  0  0  0
  -25.9029  -34.9487   23.5159 C   0  0  0  0  0  0
  -16.5356  -29.9083   23.6326 C   0  0  0  0  0  0
  -16.7263  -28.6489   23.0356 C   0  0  0  0  0  0
  -26.4460  -31.6605   25.0747 C   0  0  0  0  0  0
  -25.3749  -31.3670   26.1520 C   0  0  0  0  0  0
  -27.0285  -30.3054   24.6092 C   0  0  0  0  0  0
  -27.6051  -32.4318   25.7493 C   0  0  0  0  0  0
  -27.5588  -37.1810   24.8463 C   0  0  0  0  0  0
  -21.4152  -29.3048   22.3708 N   0  0  0  0  0  0
  -26.4289  -37.3821   23.9428 N   0  0  0  0  0  0
  -24.6722  -31.0751   22.1011 N   0  0  0  0  0  0
  -23.4165  -28.8207   23.3060 O   0  0  0  0  0  0
  -28.4234  -26.6938   20.0795 O   0  0  0  0  0  0
  -26.5585  -34.8929   22.4721 O   0  0  0  0  0  0
  -23.5332  -32.1424   23.7477 O   0  0  0  0  0  0
  -32.3917  -18.5675   21.3852 C   0  0  0  0  0  0
  -30.8371  -17.5484   20.2280 C   0  0  0  0  0  0
  -31.5253  -18.7322   20.2655 C   0  0  0  0  0  0
  -30.5351  -25.6023   22.6031 C   0  0  0  0  0  0
  -29.2557  -15.8532   22.2669 C   0  0  0  0  0  0
  -31.4811  -14.9350   22.9820 C   0  0  0  0  0  0
  -30.0596  -20.9815   22.1350 C   0  0  0  0  0  0
  -31.9336  -22.2796   21.0996 C   0  0  0  0  0  0
  -30.1178  -24.4200   18.8638 C   0  0  0  0  0  0
  -31.4338  -19.9032   19.3086 C   0  0  0  0  0  0
  -30.7763  -25.3301   21.1074 C   0  0  0  0  0  0
  -30.3554  -20.9968   19.6182 C   0  0  0  0  0  0
  -29.4450  -23.0786   20.9435 C   0  0  0  0  0  0
  -28.3298  -25.2912   20.4026 C   0  0  0  0  0  0
  -30.6734  -15.4847   21.7790 C   0  0  0  0  0  0
  -30.4672  -21.8611   20.9230 C   0  0  0  0  0  0
  -29.6922  -24.5147   20.3413 C   0  0  2  0  0  0
  -32.1788  -17.4383   22.0320 N   0  0  0  0  0  0
  -31.2347  -16.7774   21.3122 N   0  0  0  0  0  0
  -31.4558  -12.3384   19.1266 H   0  0  0  0  0  0
  -30.3079  -11.2945   19.8637 H   0  0  0  0  0  0
  -29.7147  -11.7196   17.4560 H   0  0  0  0  0  0
  -29.6391  -13.4410   17.7524 H   0  0  0  0  0  0
  -27.8736  -11.2607   18.9470 H   0  0  0  0  0  0
  -27.3421  -12.5041   17.8354 H   0  0  0  0  0  0
  -27.7061  -14.2426   19.5465 H   0  0  0  0  0  0
  -28.6961  -11.9734   21.3621 H   0  0  0  0  0  0
  -28.4371  -13.5708   21.8617 H   0  0  0  0  0  0
  -25.2693   -9.5738   22.4774 H   0  0  0  0  0  0
  -24.0010   -7.4669   22.7483 H   0  0  0  0  0  0
  -21.0854   -8.8825   19.9002 H   0  0  0  0  0  0
  -22.3650  -10.9715   19.6204 H   0  0  0  0  0  0
  -21.1945   -7.6146   23.9722 H   0  0  0  0  0  0
  -21.1487   -6.0530   25.9090 H   0  0  0  0  0  0
  -22.0590   -2.7604   23.2904 H   0  0  0  0  0  0
  -22.4035  -11.9966   22.4932 H   0  0  0  0  0  0
  -21.1179  -13.1464   22.2602 H   0  0  0  0  0  0
  -24.6809  -15.8569   20.5115 H   0  0  0  0  0  0
  -26.2895  -15.6195   20.0756 H   0  0  0  0  0  0
  -26.7100  -32.5545   23.1190 H   0  0  0  0  0  0
  -25.0087  -33.9804   25.0537 H   0  0  0  0  0  0
  -22.6987  -31.3061   21.4049 H   0  0  0  0  0  0
  -23.3760  -35.9623   23.3309 H   0  0  0  0  0  0
  -24.3571  -36.8907   22.2052 H   0  0  0  0  0  0
  -23.7190  -37.6503   23.6631 H   0  0  0  0  0  0
  -26.0548  -31.5846   20.5958 H   0  0  0  0  0  0
  -26.8256  -30.8813   21.9882 H   0  0  0  0  0  0
  -28.1121  -29.0909   21.1604 H   0  0  0  0  0  0
  -26.0426  -25.9692   19.0067 H   0  0  0  0  0  0
  -23.9826  -27.2823   19.0498 H   0  0  0  0  0  0
  -23.7355  -30.5850   19.4054 H   0  0  0  0  0  0
  -22.7450  -29.2343   19.8710 H   0  0  0  0  0  0
  -25.1265  -36.2027   25.0843 H   0  0  0  0  0  0
  -20.9940  -28.3247   24.1425 H   0  0  0  0  0  0
  -20.5661  -26.2294   23.3594 H   0  0  0  0  0  0
  -21.6649  -26.7454   22.1216 H   0  0  0  0  0  0
  -19.6938  -25.6289   21.1223 H   0  0  0  0  0  0
  -19.6693  -27.3186   20.6719 H   0  0  0  0  0  0
  -17.4200  -26.6646   21.4002 H   0  0  0  0  0  0
  -18.0346  -26.0047   22.8989 H   0  0  0  0  0  0
  -19.7933  -30.7225   24.2307 H   0  0  0  0  0  0
  -17.5026  -31.6264   24.5152 H   0  0  0  0  0  0
  -15.5354  -30.3005   23.7637 H   0  0  0  0  0  0
  -15.8649  -28.0810   22.7099 H   0  0  0  0  0  0
  -24.5936  -30.6995   25.7871 H   0  0  0  0  0  0
  -24.8923  -32.2796   26.5026 H   0  0  0  0  0  0
  -25.8151  -30.8822   27.0246 H   0  0  0  0  0  0
  -26.2810  -29.6835   24.1157 H   0  0  0  0  0  0
  -27.4082  -29.7272   25.4524 H   0  0  0  0  0  0
  -27.8639  -30.4399   23.9219 H   0  0  0  0  0  0
  -27.2697  -33.3621   26.2088 H   0  0  0  0  0  0
  -28.3841  -32.6868   25.0298 H   0  0  0  0  0  0
  -28.0736  -31.8428   26.5390 H   0  0  0  0  0  0
  -28.2602  -38.0118   24.7569 H   0  0  0  0  0  0
  -28.1094  -36.2660   24.6225 H   0  0  0  0  0  0
  -27.2317  -37.1382   25.8866 H   0  0  0  0  0  0
  -20.9321  -29.8762   21.6916 H   0  0  0  0  0  0
  -26.0193  -38.2898   24.1458 H   0  0  0  0  0  0
  -33.1385  -19.2420   21.7790 H   0  0  0  0  0  0
  -30.0861  -17.2001   19.5318 H   0  0  0  0  0  0
  -31.2802  -26.3070   22.9711 H   0  0  0  0  0  0
  -30.6257  -24.6947   23.1982 H   0  0  0  0  0  0
  -29.5589  -26.0464   22.7922 H   0  0  0  0  0  0
  -28.8748  -15.1494   23.0038 H   0  0  0  0  0  0
  -28.5414  -15.9605   21.4488 H   0  0  0  0  0  0
  -29.2823  -16.8038   22.7991 H   0  0  0  0  0  0
  -30.9696  -14.0925   23.4483 H   0  0  0  0  0  0
  -31.6103  -15.6971   23.7489 H   0  0  0  0  0  0
  -32.4709  -14.5844   22.6793 H   0  0  0  0  0  0
  -30.8564  -20.3259   22.4739 H   0  0  0  0  0  0
  -29.1949  -20.3567   21.9055 H   0  0  0  0  0  0
  -29.8024  -21.5705   23.0157 H   0  0  0  0  0  0
  -32.5804  -21.4191   21.2643 H   0  0  0  0  0  0
  -32.0703  -22.9318   21.9589 H   0  0  0  0  0  0
  -32.3074  -22.7657   20.1989 H   0  0  0  0  0  0
  -31.1414  -24.0615   18.7679 H   0  0  0  0  0  0
  -30.0767  -25.3959   18.3808 H   0  0  0  0  0  0
  -29.4736  -23.7522   18.2933 H   0  0  0  0  0  0
  -31.2030  -19.5022   18.3212 H   0  0  0  0  0  0
  -32.4138  -20.3636   19.1732 H   0  0  0  0  0  0
  -31.7540  -24.8691   21.0016 H   0  0  0  0  0  0
  -30.8935  -26.2919   20.6102 H   0  0  0  0  0  0
  -29.3683  -20.5344   19.5734 H   0  0  0  0  0  0
  -30.3817  -21.6789   18.7705 H   0  0  0  0  0  0
  -29.1801  -23.2895   21.9782 H   0  0  0  0  0  0
  -28.5093  -22.7017   20.5279 H   0  0  0  0  0  0
  -27.8998  -25.2185   21.4042 H   0  0  0  0  0  0
  -27.6265  -24.7834   19.7464 H   0  0  0  0  0  0
  1 25  1  0  0  0
  1 30  2  0  0  0
  1 85  1  0  0  0
  2  3  1  0  0  0
  2 25  1  0  0  0
  2 90  1  0  0  0
  2 91  1  0  0  0
  3  4  1  0  0  0
  3 92  1  0  0  0
  3 93  1  0  0  0
  4  5  1  0  0  0
  4 94  1  0  0  0
  4 95  1  0  0  0
  5  6  1  0  0  0
  5 26  1  0  0  0
  5 96  1  0  0  0
  6 25  1  0  0  0
  6 97  1  0  0  0
  6 98  1  0  0  0
  7  8  2  0  0  0
  7 26  1  0  0  0
  7 29  1  0  0  0
  8  9  1  0  0  0
  8 22  1  0  0  0
  9 10  1  0  0  0
  9 27  2  0  0  0
 10 11  2  0  0  0
 10 15  1  0  0  0
 11 12  1  0  0  0
 11 99  1  0  0  0
 12 13  2  0  0  0
 12100  1  0  0  0
 13 14  1  0  0  0
 13 31  1  0  0  0
 14 15  2  0  0  0
 14101  1  0  0  0
 15102  1  0  0  0
 16 17  2  0  0  0
 16 21  1  0  0  0
 16 31  1  0  0  0
 17 18  1  0  0  0
 17103  1  0  0  0
 18 19  2  0  0  0
 18104  1  0  0  0
 19 20  1  0  0  0
 19 24  1  0  0  0
 20 21  2  0  0  0
 20105  1  0  0  0
 21 23  1  0  0  0
 22 28  1  0  0  0
 22 32  2  0  0  0
 26 27  1  0  0  0
 28106  1  0  0  0
 28107  1  0  0  0
 29108  1  0  0  0
 29109  1  0  0  0
 33 34  1  0  0  0
 33 66  1  0  0  0
 33 70  2  0  0  0
 34 36  1  0  0  0
 34 59  1  0  0  0
 34110  1  0  0  0
 35 44  2  0  0  0
 35 45  1  0  0  0
 35 68  1  0  0  0
 36 56  1  0  0  0
 36111  1  0  0  0
 37 39  1  0  0  0
 37 47  1  0  0  0
 37 66  1  0  0  0
 37112  1  0  0  0
 38 43  2  0  0  0
 38 46  1  0  0  0
 38 47  1  0  0  0
 39 64  1  0  0  0
 39 67  2  0  0  0
 40 52  1  0  0  0
 40 53  2  0  0  0
 40 58  1  0  0  0
 41113  1  0  0  0
 41114  1  0  0  0
 41115  1  0  0  0
 41 48  1  0  0  0
 42 43  1  0  0  0
 42 66  1  0  0  0
 42116  1  0  0  0
 42117  1  0  0  0
 43 44  1  0  0  0
 44118  1  0  0  0
 45 46  2  0  0  0
 45119  1  0  0  0
 46120  1  0  0  0
 47121  1  0  0  0
 47122  1  0  0  0
 48 56  1  0  0  0
 48 65  1  0  0  0
 48123  1  0  0  0
 49 50  1  0  0  0
 49 53  1  0  0  0
 49 64  1  0  0  0
 49124  1  0  0  0
 50 51  1  0  0  0
 50125  1  0  0  0
 50126  1  0  0  0
 51 52  1  0  0  0
 51127  1  0  0  0
 51128  1  0  0  0
 52129  1  0  0  0
 52130  1  0  0  0
 53 54  1  0  0  0
 54 55  2  0  0  0
 54131  1  0  0  0
 55 57  1  0  0  0
 55132  1  0  0  0
 56 69  2  0  0  0
 57 58  2  0  0  0
 57133  1  0  0  0
 58134  1  0  0  0
 59 60  1  0  0  0
 59 61  1  0  0  0
 59 62  1  0  0  0
 60135  1  0  0  0
 60136  1  0  0  0
 60137  1  0  0  0
 61138  1  0  0  0
 61139  1  0  0  0
 61140  1  0  0  0
 62141  1  0  0  0
 62142  1  0  0  0
 62143  1  0  0  0
 63 65  1  0  0  0
 63144  1  0  0  0
 63145  1  0  0  0
 63146  1  0  0  0
 64147  1  0  0  0
 65148  1  0  0  0
 68 84  1  0  0  0
 71 73  1  0  0  0
 71 88  2  0  0  0
 71149  1  0  0  0
 72 73  2  0  0  0
 72 89  1  0  0  0
 72150  1  0  0  0
 73 80  1  0  0  0
 74 81  1  0  0  0
 74151  1  0  0  0
 74152  1  0  0  0
 74153  1  0  0  0
 75154  1  0  0  0
 75155  1  0  0  0
 75156  1  0  0  0
 75 85  1  0  0  0
 76 85  1  0  0  0
 76157  1  0  0  0
 76158  1  0  0  0
 76159  1  0  0  0
 77160  1  0  0  0
 77161  1  0  0  0
 77162  1  0  0  0
 77 86  1  0  0  0
 78 86  1  0  0  0
 78163  1  0  0  0
 78164  1  0  0  0
 78165  1  0  0  0
 79166  1  0  0  0
 79167  1  0  0  0
 79168  1  0  0  0
 79 87  1  0  0  0
 80 82  1  0  0  0
 80169  1  0  0  0
 80170  1  0  0  0
 81 87  1  0  0  0
 81171  1  0  0  0
 81172  1  0  0  0
 82 86  1  0  0  0
 82173  1  0  0  0
 82174  1  0  0  0
 83 86  1  0  0  0
 83 87  1  0  0  0
 83175  1  0  0  0
 83176  1  0  0  0
 84 87  1  0  0  0
 84177  1  0  0  0
 84178  1  0  0  0
 85 89  1  0  0  0
 88 89  1  0  0  0
M  ISO  4   1 100  68 101  84 101  85 100
M  END
> <chiral flag>
0

> <version>
0

> <s_m_source_file>
/data/baiqing/PycharmProjects/Reinvent-master-3.2/result/LINK_invent/BTK/process_docking_weight1_custom_sum_contain_oxygen_bond_distance_aromatic_linkinvent_7_9_3/rearranged_h_0068.sdf

> <i_m_source_file_index>
80

> <r_mmod_Potential_Energy-OPLS-2005>
205.856704711914

> <r_mmod_Stretch_Energy-OPLS-2005>
54.4239616394043

> <r_mmod_Bend_Energy-OPLS-2005>
170.437545776367

> <r_mmod_Torsional_Energy-OPLS-2005>
266.469512939453

> <r_mmod_Improper_Torsional_Energy-OPLS-2005>
2.82456636428833

> <r_mmod_Van_der_Waal_Energy-OPLS-2005>
156.091369628906

> <r_mmod_Electrostatic_Energy-OPLS-2005>
-277.000885009766

> <r_mmod_Solvation_Energy-OPLS-2005>
-182.960067749023

> <b_mmod_Minimization_Converged-OPLS-2005>
0

> <r_mmod_RMS_Derivative-OPLS-2005>
6.77126598358154

$$$$
86
                    3D
 Structure written by MMmdl.
163171  0  0  1  0            999 V2000
  -30.7136  -14.4370   20.5822 C   0  0  0  0  0  0
  -30.4194  -12.2840   19.4291 C   0  0  0  0  0  0
  -29.4968  -12.5024   18.2115 C   0  0  0  0  0  0
  -28.0166  -12.3618   18.6191 C   0  0  0  0  0  0
  -27.6613  -13.1993   19.8765 C   0  0  2  0  0  0
  -28.6993  -12.9749   20.9982 C   0  0  0  0  0  0
  -25.2606  -13.8176   20.5745 C   0  0  0  0  0  0
  -24.1832  -13.0456   20.9225 C   0  0  0  0  0  0
  -24.6366  -11.6925   20.8761 C   0  0  0  0  0  0
  -23.9038  -10.4308   21.0416 C   0  0  0  0  0  0
  -24.3607   -9.4224   21.9173 C   0  0  0  0  0  0
  -23.6304   -8.2246   22.0727 C   0  0  0  0  0  0
  -22.4275   -8.0281   21.3536 C   0  0  0  0  0  0
  -21.9907   -9.0251   20.4635 C   0  0  0  0  0  0
  -22.7228  -10.2135   20.3059 C   0  0  0  0  0  0
  -21.6855   -6.0748   22.5296 C   0  0  0  0  0  0
  -21.4020   -6.5645   23.8230 C   0  0  0  0  0  0
  -21.3667   -5.6785   24.9191 C   0  0  0  0  0  0
  -21.6043   -4.3050   24.7220 C   0  0  0  0  0  0
  -21.8819   -3.8149   23.4343 C   0  0  0  0  0  0
  -21.9199   -4.6981   22.3405 C   0  0  0  0  0  0
  -22.7855  -13.5258   21.1882 C   0  0  0  0  0  0
  -22.1662   -4.2176   21.0978 F   0  0  0  0  0  0
  -21.5627   -3.4522   25.7727 F   0  0  0  0  0  0
  -30.0349  -13.2656   20.4508 N   0  0  0  0  0  0
  -26.3015  -12.9315   20.3395 N   0  0  0  0  0  0
  -25.9289  -11.6483   20.5791 N   0  0  0  0  0  0
  -22.0482  -12.8262   22.0443 N   0  0  0  0  0  0
  -25.4349  -15.1894   20.4186 N   0  0  0  0  0  0
  -31.8476  -14.6111   20.1229 O   0  0  0  0  0  0
  -21.6635   -6.8884   21.4251 O   0  0  0  0  0  0
  -22.3545  -14.5549   20.6701 O   0  0  0  0  0  0
  -24.6105  -31.8718   23.2143 C   0  0  0  0  0  0
  -25.9019  -32.4845   23.8423 C   0  0  1  0  0  0
  -27.2259  -27.4569   20.0987 C   0  0  0  0  0  0
  -25.5900  -33.8642   24.2340 N   0  0  0  0  0  0
  -23.3959  -30.4975   21.5557 C   0  0  2  0  0  0
  -24.8391  -28.9711   20.1179 C   0  0  0  0  0  0
  -22.7393  -29.4676   22.5021 C   0  0  0  0  0  0
  -18.0267  -28.1366   22.8496 C   0  0  0  0  0  0
  -24.1493  -36.7322   23.2629 C   0  0  0  0  0  0
  -25.9232  -30.8481   21.3623 C   0  0  0  0  0  0
  -25.9987  -29.4856   20.7086 C   0  0  0  0  0  0
  -27.1939  -28.7373   20.6919 C   0  0  0  0  0  0
  -26.0471  -26.9575   19.4995 C   0  0  0  0  0  0
  -24.8581  -27.7059   19.5101 C   0  0  0  0  0  0
  -23.6010  -29.8339   20.1692 C   0  0  0  0  0  0
  -25.4113  -36.3123   24.0331 C   0  0  1  0  0  0
  -20.5856  -28.3646   23.1337 C   0  0  2  0  0  0
  -20.6766  -26.9386   22.5425 C   0  0  0  0  0  0
  -19.5744  -26.6381   21.5219 C   0  0  0  0  0  0
  -18.1920  -26.7918   22.1623 C   0  0  0  0  0  0
  -19.1515  -28.8824   23.2912 C   0  0  0  0  0  0
  -18.9441  -30.1436   23.8915 C   0  0  0  0  0  0
  -17.6445  -30.6575   24.0562 C   0  0  0  0  0  0
  -25.9038  -34.9490   23.5127 C   0  0  0  0  0  0
  -16.5337  -29.9079   23.6317 C   0  0  0  0  0  0
  -16.7258  -28.6492   23.0344 C   0  0  0  0  0  0
  -26.4466  -31.6607   25.0731 C   0  0  0  0  0  0
  -25.3757  -31.3715   26.1499 C   0  0  0  0  0  0
  -27.0270  -30.3048   24.6070 C   0  0  0  0  0  0
  -27.6048  -32.4330   25.7486 C   0  0  0  0  0  0
  -27.5580  -37.1815   24.8458 C   0  0  0  0  0  0
  -21.4125  -29.3024   22.3761 N   0  0  0  0  0  0
  -26.4295  -37.3802   23.9404 N   0  0  0  0  0  0
  -24.6615  -31.0866   22.1019 N   0  0  0  0  0  0
  -23.4190  -28.8208   23.3030 O   0  0  0  0  0  0
  -28.4208  -26.7698   20.1140 O   0  0  0  0  0  0
  -26.5588  -34.8933   22.4683 O   0  0  0  0  0  0
  -23.5311  -32.1447   23.7564 O   0  0  0  0  0  0
  -30.3257  -21.4054   19.3403 C   0  0  0  0  0  0
  -29.3437  -20.3902   19.3758 C   0  0  0  0  0  0
  -27.6848  -21.9905   19.4798 C   0  0  0  0  0  0
  -28.6695  -23.0118   19.3758 C   0  0  0  0  0  0
  -26.1950  -22.2808   19.5374 C   0  0  0  0  0  0
  -27.5700  -24.9932   21.6424 C   0  0  0  0  0  0
  -29.8449  -15.8801   22.3394 C   0  0  0  0  0  0
  -29.7086  -18.9379   19.1380 C   0  0  0  0  0  0
  -28.3153  -24.4804   19.1774 C   0  0  0  0  0  0
  -29.6635  -18.0193   20.3725 C   0  0  0  0  0  0
  -29.7284  -16.5460   19.9039 C   0  0  0  0  0  0
  -28.4563  -25.3687   20.4341 C   0  0  1  0  0  0
  -29.9926  -22.7166   19.3380 N   0  0  0  0  0  0
  -28.0238  -20.6793   19.4778 N   0  0  0  0  0  0
  -29.9543  -15.5028   20.9275 N   0  0  0  0  0  0
  -31.4665  -12.3744   19.1363 H   0  0  0  0  0  0
  -30.3065  -11.2721   19.8233 H   0  0  0  0  0  0
  -29.7370  -11.7893   17.4227 H   0  0  0  0  0  0
  -29.6679  -13.4928   17.7858 H   0  0  0  0  0  0
  -27.8269  -11.3069   18.8179 H   0  0  0  0  0  0
  -27.3695  -12.6330   17.7847 H   0  0  0  0  0  0
  -27.7042  -14.2464   19.5799 H   0  0  0  0  0  0
  -28.6635  -11.9435   21.3503 H   0  0  0  0  0  0
  -28.4556  -13.5890   21.8646 H   0  0  0  0  0  0
  -25.2757   -9.5712   22.4737 H   0  0  0  0  0  0
  -24.0039   -7.4632   22.7423 H   0  0  0  0  0  0
  -21.0846   -8.8765   19.8932 H   0  0  0  0  0  0
  -22.3690  -10.9665   19.6162 H   0  0  0  0  0  0
  -21.1999   -7.6150   23.9763 H   0  0  0  0  0  0
  -21.1495   -6.0493   25.9098 H   0  0  0  0  0  0
  -22.0588   -2.7621   23.2821 H   0  0  0  0  0  0
  -22.4074  -11.9928   22.4856 H   0  0  0  0  0  0
  -21.1088  -13.1288   22.2605 H   0  0  0  0  0  0
  -24.6731  -15.8496   20.5326 H   0  0  0  0  0  0
  -26.3045  -15.6302   20.1437 H   0  0  0  0  0  0
  -26.7095  -32.5564   23.1196 H   0  0  0  0  0  0
  -25.0096  -33.9816   25.0515 H   0  0  0  0  0  0
  -22.6809  -31.3116   21.4205 H   0  0  0  0  0  0
  -23.3752  -35.9658   23.3311 H   0  0  0  0  0  0
  -24.3575  -36.8919   22.2039 H   0  0  0  0  0  0
  -23.7262  -37.6537   23.6635 H   0  0  0  0  0  0
  -26.0313  -31.6164   20.5960 H   0  0  0  0  0  0
  -26.8124  -30.8986   21.9779 H   0  0  0  0  0  0
  -28.0905  -29.1334   21.1482 H   0  0  0  0  0  0
  -26.0059  -26.0026   19.0125 H   0  0  0  0  0  0
  -23.9669  -27.3045   19.0479 H   0  0  0  0  0  0
  -23.7070  -30.6097   19.4104 H   0  0  0  0  0  0
  -22.7269  -29.2524   19.8731 H   0  0  0  0  0  0
  -25.1296  -36.1983   25.0824 H   0  0  0  0  0  0
  -20.9929  -28.3197   24.1463 H   0  0  0  0  0  0
  -20.5684  -26.2240   23.3598 H   0  0  0  0  0  0
  -21.6637  -26.7454   22.1201 H   0  0  0  0  0  0
  -19.6906  -25.6300   21.1226 H   0  0  0  0  0  0
  -19.6687  -27.3213   20.6769 H   0  0  0  0  0  0
  -17.4196  -26.6669   21.4020 H   0  0  0  0  0  0
  -18.0309  -26.0055   22.9011 H   0  0  0  0  0  0
  -19.7922  -30.7244   24.2286 H   0  0  0  0  0  0
  -17.5004  -31.6254   24.5165 H   0  0  0  0  0  0
  -15.5339  -30.2986   23.7636 H   0  0  0  0  0  0
  -15.8656  -28.0823   22.7048 H   0  0  0  0  0  0
  -24.5896  -30.7090   25.7849 H   0  0  0  0  0  0
  -24.8992  -32.2880   26.4994 H   0  0  0  0  0  0
  -25.8127  -30.8848   27.0227 H   0  0  0  0  0  0
  -26.2780  -29.6844   24.1125 H   0  0  0  0  0  0
  -27.4045  -29.7245   25.4498 H   0  0  0  0  0  0
  -27.8625  -30.4363   23.9187 H   0  0  0  0  0  0
  -27.2648  -33.3599   26.2121 H   0  0  0  0  0  0
  -28.3825  -32.6951   25.0298 H   0  0  0  0  0  0
  -28.0761  -31.8434   26.5359 H   0  0  0  0  0  0
  -28.2613  -38.0097   24.7500 H   0  0  0  0  0  0
  -28.1060  -36.2630   24.6299 H   0  0  0  0  0  0
  -27.2285  -37.1489   25.8855 H   0  0  0  0  0  0
  -20.9265  -29.8750   21.7000 H   0  0  0  0  0  0
  -26.0185  -38.2875   24.1416 H   0  0  0  0  0  0
  -31.3751  -21.1695   19.2477 H   0  0  0  0  0  0
  -25.8135  -22.5111   18.5422 H   0  0  0  0  0  0
  -25.9803  -23.1237   20.1928 H   0  0  0  0  0  0
  -25.6379  -21.4257   19.9195 H   0  0  0  0  0  0
  -27.7490  -23.9651   21.9604 H   0  0  0  0  0  0
  -26.5068  -25.0892   21.4261 H   0  0  0  0  0  0
  -27.7882  -25.6378   22.4944 H   0  0  0  0  0  0
  -28.8556  -16.2878   22.5534 H   0  0  0  0  0  0
  -30.5915  -16.6268   22.6056 H   0  0  0  0  0  0
  -30.0038  -15.0263   23.0008 H   0  0  0  0  0  0
  -30.7053  -18.8980   18.6938 H   0  0  0  0  0  0
  -29.0318  -18.5602   18.3708 H   0  0  0  0  0  0
  -27.3267  -24.5246   18.7412 H   0  0  0  0  0  0
  -28.9748  -24.8727   18.4031 H   0  0  0  0  0  0
  -28.7464  -18.1915   20.9379 H   0  0  0  0  0  0
  -30.4965  -18.2731   21.0294 H   0  0  0  0  0  0
  -30.4935  -16.4772   19.1263 H   0  0  0  0  0  0
  -28.7911  -16.3113   19.3974 H   0  0  0  0  0  0
  -29.4788  -25.2233   20.7824 H   0  0  0  0  0  0
  1 25  1  0  0  0
  1 30  2  0  0  0
  1 85  1  0  0  0
  2  3  1  0  0  0
  2 25  1  0  0  0
  2 86  1  0  0  0
  2 87  1  0  0  0
  3  4  1  0  0  0
  3 88  1  0  0  0
  3 89  1  0  0  0
  4  5  1  0  0  0
  4 90  1  0  0  0
  4 91  1  0  0  0
  5  6  1  0  0  0
  5 26  1  0  0  0
  5 92  1  0  0  0
  6 25  1  0  0  0
  6 93  1  0  0  0
  6 94  1  0  0  0
  7  8  2  0  0  0
  7 26  1  0  0  0
  7 29  1  0  0  0
  8  9  1  0  0  0
  8 22  1  0  0  0
  9 10  1  0  0  0
  9 27  2  0  0  0
 10 11  2  0  0  0
 10 15  1  0  0  0
 11 12  1  0  0  0
 11 95  1  0  0  0
 12 13  2  0  0  0
 12 96  1  0  0  0
 13 14  1  0  0  0
 13 31  1  0  0  0
 14 15  2  0  0  0
 14 97  1  0  0  0
 15 98  1  0  0  0
 16 17  2  0  0  0
 16 21  1  0  0  0
 16 31  1  0  0  0
 17 18  1  0  0  0
 17 99  1  0  0  0
 18 19  2  0  0  0
 18100  1  0  0  0
 19 20  1  0  0  0
 19 24  1  0  0  0
 20 21  2  0  0  0
 20101  1  0  0  0
 21 23  1  0  0  0
 22 28  1  0  0  0
 22 32  2  0  0  0
 26 27  1  0  0  0
 28102  1  0  0  0
 28103  1  0  0  0
 29104  1  0  0  0
 29105  1  0  0  0
 33 34  1  0  0  0
 33 66  1  0  0  0
 33 70  2  0  0  0
 34 36  1  0  0  0
 34 59  1  0  0  0
 34106  1  0  0  0
 35 44  2  0  0  0
 35 45  1  0  0  0
 35 68  1  0  0  0
 36 56  1  0  0  0
 36107  1  0  0  0
 37 39  1  0  0  0
 37 47  1  0  0  0
 37 66  1  0  0  0
 37108  1  0  0  0
 38 43  2  0  0  0
 38 46  1  0  0  0
 38 47  1  0  0  0
 39 64  1  0  0  0
 39 67  2  0  0  0
 40 52  1  0  0  0
 40 53  2  0  0  0
 40 58  1  0  0  0
 41109  1  0  0  0
 41110  1  0  0  0
 41111  1  0  0  0
 41 48  1  0  0  0
 42 43  1  0  0  0
 42 66  1  0  0  0
 42112  1  0  0  0
 42113  1  0  0  0
 43 44  1  0  0  0
 44114  1  0  0  0
 45 46  2  0  0  0
 45115  1  0  0  0
 46116  1  0  0  0
 47117  1  0  0  0
 47118  1  0  0  0
 48 56  1  0  0  0
 48 65  1  0  0  0
 48119  1  0  0  0
 49 50  1  0  0  0
 49 53  1  0  0  0
 49 64  1  0  0  0
 49120  1  0  0  0
 50 51  1  0  0  0
 50121  1  0  0  0
 50122  1  0  0  0
 51 52  1  0  0  0
 51123  1  0  0  0
 51124  1  0  0  0
 52125  1  0  0  0
 52126  1  0  0  0
 53 54  1  0  0  0
 54 55  2  0  0  0
 54127  1  0  0  0
 55 57  1  0  0  0
 55128  1  0  0  0
 56 69  2  0  0  0
 57 58  2  0  0  0
 57129  1  0  0  0
 58130  1  0  0  0
 59 60  1  0  0  0
 59 61  1  0  0  0
 59 62  1  0  0  0
 60131  1  0  0  0
 60132  1  0  0  0
 60133  1  0  0  0
 61134  1  0  0  0
 61135  1  0  0  0
 61136  1  0  0  0
 62137  1  0  0  0
 62138  1  0  0  0
 62139  1  0  0  0
 63 65  1  0  0  0
 63140  1  0  0  0
 63141  1  0  0  0
 63142  1  0  0  0
 64143  1  0  0  0
 65144  1  0  0  0
 68 82  1  0  0  0
 71 72  2  0  0  0
 71 83  1  0  0  0
 71145  1  0  0  0
 72 78  1  0  0  0
 72 84  1  0  0  0
 73 74  1  0  0  0
 73 75  1  0  0  0
 73 84  2  0  0  0
 74 79  1  0  0  0
 74 83  2  0  0  0
 75146  1  0  0  0
 75147  1  0  0  0
 75148  1  0  0  0
 76149  1  0  0  0
 76150  1  0  0  0
 76151  1  0  0  0
 76 82  1  0  0  0
 77 85  1  0  0  0
 77152  1  0  0  0
 77153  1  0  0  0
 77154  1  0  0  0
 78 80  1  0  0  0
 78155  1  0  0  0
 78156  1  0  0  0
 79 82  1  0  0  0
 79157  1  0  0  0
 79158  1  0  0  0
 80 81  1  0  0  0
 80159  1  0  0  0
 80160  1  0  0  0
 81 85  1  0  0  0
 81161  1  0  0  0
 81162  1  0  0  0
 82163  1  0  0  0
M  ISO  4   1 100  68 101  82 101  85 100
M  END
> <chiral flag>
0

> <version>
0

> <s_m_source_file>
/data/baiqing/PycharmProjects/Reinvent-master-3.2/result/LINK_invent/BTK/process_docking_weight1_custom_sum_contain_oxygen_bond_distance_aromatic_linkinvent_7_9_3/rearranged_h_0068.sdf

> <i_m_source_file_index>
81

> <r_mmod_Potential_Energy-OPLS-2005>
164.90705871582

> <r_mmod_Stretch_Energy-OPLS-2005>
36.717945098877

> <r_mmod_Bend_Energy-OPLS-2005>
112.837738037109

> <r_mmod_Torsional_Energy-OPLS-2005>
285.754302978516

> <r_mmod_Improper_Torsional_Energy-OPLS-2005>
10.9937238693237

> <r_mmod_Van_der_Waal_Energy-OPLS-2005>
162.137069702148

> <r_mmod_Electrostatic_Energy-OPLS-2005>
-250.798004150391

> <r_mmod_Solvation_Energy-OPLS-2005>
-204.080017089844

> <b_mmod_Minimization_Converged-OPLS-2005>
0

> <r_mmod_RMS_Derivative-OPLS-2005>
2.74392771720886

$$$$
88
                    3D
 Structure written by MMmdl.
169177  0  0  1  0            999 V2000
  -30.7266  -14.4921   20.6738 C   0  0  0  0  0  0
  -30.4239  -12.3524   19.4407 C   0  0  0  0  0  0
  -29.5061  -12.5557   18.2169 C   0  0  0  0  0  0
  -28.0190  -12.4232   18.6024 C   0  0  0  0  0  0
  -27.6646  -13.2139   19.8895 C   0  0  2  0  0  0
  -28.6998  -12.9141   20.9915 C   0  0  0  0  0  0
  -25.2600  -13.8164   20.5718 C   0  0  0  0  0  0
  -24.1888  -13.0431   20.9196 C   0  0  0  0  0  0
  -24.6457  -11.6900   20.8743 C   0  0  0  0  0  0
  -23.9101  -10.4302   21.0426 C   0  0  0  0  0  0
  -24.3639   -9.4218   21.9194 C   0  0  0  0  0  0
  -23.6341   -8.2245   22.0756 C   0  0  0  0  0  0
  -22.4329   -8.0267   21.3544 C   0  0  0  0  0  0
  -21.9965   -9.0244   20.4655 C   0  0  0  0  0  0
  -22.7268  -10.2135   20.3074 C   0  0  0  0  0  0
  -21.6894   -6.0737   22.5282 C   0  0  0  0  0  0
  -21.4011   -6.5636   23.8207 C   0  0  0  0  0  0
  -21.3675   -5.6788   24.9171 C   0  0  0  0  0  0
  -21.6074   -4.3056   24.7229 C   0  0  0  0  0  0
  -21.8813   -3.8145   23.4348 C   0  0  0  0  0  0
  -21.9218   -4.6962   22.3416 C   0  0  0  0  0  0
  -22.7902  -13.5207   21.1871 C   0  0  0  0  0  0
  -22.1686   -4.2157   21.0989 F   0  0  0  0  0  0
  -21.5649   -3.4533   25.7727 F   0  0  0  0  0  0
  -30.0235  -13.3228   20.4876 N   0  0  0  0  0  0
  -26.3043  -12.9348   20.3397 N   0  0  0  0  0  0
  -25.9366  -11.6497   20.5711 N   0  0  0  0  0  0
  -22.0510  -12.8199   22.0391 N   0  0  0  0  0  0
  -25.4383  -15.1897   20.4156 N   0  0  0  0  0  0
  -31.7544  -14.6755   20.0119 O   0  0  0  0  0  0
  -21.6694   -6.8863   21.4232 O   0  0  0  0  0  0
  -22.3615  -14.5517   20.6715 O   0  0  0  0  0  0
  -24.6183  -31.8653   23.2081 C   0  0  0  0  0  0
  -25.9085  -32.4806   23.8386 C   0  0  1  0  0  0
  -27.2120  -27.3750   20.1190 C   0  0  0  0  0  0
  -25.5953  -33.8611   24.2315 N   0  0  0  0  0  0
  -23.4077  -30.4915   21.5475 C   0  0  2  0  0  0
  -24.8527  -28.9586   20.1000 C   0  0  0  0  0  0
  -22.7420  -29.4669   22.4938 C   0  0  0  0  0  0
  -18.0304  -28.1394   22.8491 C   0  0  0  0  0  0
  -24.1507  -36.7321   23.2623 C   0  0  0  0  0  0
  -25.9384  -30.8103   21.3739 C   0  0  0  0  0  0
  -26.0067  -29.4384   20.7291 C   0  0  0  0  0  0
  -27.1787  -28.6431   20.7532 C   0  0  0  0  0  0
  -26.0738  -26.9851   19.3809 C   0  0  0  0  0  0
  -24.8852  -27.7341   19.4126 C   0  0  0  0  0  0
  -23.6163  -29.8249   20.1587 C   0  0  0  0  0  0
  -25.4119  -36.3087   24.0321 C   0  0  1  0  0  0
  -20.5885  -28.3714   23.1288 C   0  0  2  0  0  0
  -20.6791  -26.9436   22.5420 C   0  0  0  0  0  0
  -19.5768  -26.6412   21.5203 C   0  0  0  0  0  0
  -18.1942  -26.7947   22.1600 C   0  0  0  0  0  0
  -19.1543  -28.8861   23.2894 C   0  0  0  0  0  0
  -18.9469  -30.1468   23.8901 C   0  0  0  0  0  0
  -17.6469  -30.6596   24.0572 C   0  0  0  0  0  0
  -25.9047  -34.9468   23.5107 C   0  0  0  0  0  0
  -16.5366  -29.9097   23.6341 C   0  0  0  0  0  0
  -16.7283  -28.6517   23.0349 C   0  0  0  0  0  0
  -26.4481  -31.6559   25.0712 C   0  0  0  0  0  0
  -25.3742  -31.3703   26.1460 C   0  0  0  0  0  0
  -27.0290  -30.2976   24.6115 C   0  0  0  0  0  0
  -27.6070  -32.4275   25.7456 C   0  0  0  0  0  0
  -27.5572  -37.1811   24.8453 C   0  0  0  0  0  0
  -21.4154  -29.3065   22.3668 N   0  0  0  0  0  0
  -26.4281  -37.3789   23.9413 N   0  0  0  0  0  0
  -24.6736  -31.0733   22.1011 N   0  0  0  0  0  0
  -23.4167  -28.8212   23.2994 O   0  0  0  0  0  0
  -28.3491  -26.5866   20.2529 O   0  0  0  0  0  0
  -26.5575  -34.8915   22.4649 O   0  0  0  0  0  0
  -23.5382  -32.1438   23.7461 O   0  0  0  0  0  0
  -30.5885  -18.2515   21.7061 C   0  0  0  0  0  0
  -30.0454  -17.3676   19.8062 C   0  0  0  0  0  0
  -30.4559  -19.2645   20.7750 C   0  0  0  0  0  0
  -30.3688  -25.6119   21.6845 C   0  0  0  0  0  0
  -29.1055  -15.5641   22.5155 C   0  0  0  0  0  0
  -31.5677  -15.6343   22.7213 C   0  0  0  0  0  0
  -28.9266  -24.9622   18.6541 C   0  0  0  0  0  0
  -27.0736  -24.3443   20.2865 C   0  0  0  0  0  0
  -30.8078  -20.7432   20.8922 C   0  0  0  0  0  0
  -29.6626  -21.8053   20.9819 C   0  0  0  0  0  0
  -30.2319  -23.2411   20.7343 C   0  0  0  0  0  0
  -29.4116  -24.5239   21.1545 C   0  0  2  0  0  0
  -30.4047  -15.6643   21.6988 C   0  0  0  0  0  0
  -28.4018  -25.1249   20.0897 C   0  0  0  0  0  0
  -30.0876  -18.6808   19.5622 N   0  0  0  0  0  0
  -30.3789  -17.0160   21.0619 N   0  0  0  0  0  0
  -30.3308  -11.3328   19.8220 H   0  0  0  0  0  0
  -31.4735  -12.4429   19.1467 H   0  0  0  0  0  0
  -29.7541  -11.8320   17.4386 H   0  0  0  0  0  0
  -29.6856  -13.5441   17.7912 H   0  0  0  0  0  0
  -27.8143  -11.3623   18.7530 H   0  0  0  0  0  0
  -27.3866  -12.7489   17.7764 H   0  0  0  0  0  0
  -27.7209  -14.2767   19.6528 H   0  0  0  0  0  0
  -28.7017  -11.8389   21.1775 H   0  0  0  0  0  0
  -28.4046  -13.2982   21.9569 H   0  0  0  0  0  0
  -25.2766   -9.5710   22.4785 H   0  0  0  0  0  0
  -24.0089   -7.4645   22.7454 H   0  0  0  0  0  0
  -21.0915   -8.8741   19.8972 H   0  0  0  0  0  0
  -22.3704  -10.9680   19.6227 H   0  0  0  0  0  0
  -21.1942   -7.6131   23.9684 H   0  0  0  0  0  0
  -21.1543   -6.0538   25.9081 H   0  0  0  0  0  0
  -22.0594   -2.7617   23.2844 H   0  0  0  0  0  0
  -22.4126  -11.9879   22.4838 H   0  0  0  0  0  0
  -21.1113  -13.1225   22.2554 H   0  0  0  0  0  0
  -24.6839  -15.8560   20.5247 H   0  0  0  0  0  0
  -26.3032  -15.6205   20.1153 H   0  0  0  0  0  0
  -26.7136  -32.5510   23.1142 H   0  0  0  0  0  0
  -25.0209  -33.9783   25.0516 H   0  0  0  0  0  0
  -22.6996  -31.3099   21.4047 H   0  0  0  0  0  0
  -23.3742  -35.9674   23.3264 H   0  0  0  0  0  0
  -24.3597  -36.8958   22.2031 H   0  0  0  0  0  0
  -23.7257  -37.6532   23.6638 H   0  0  0  0  0  0
  -26.0502  -31.5620   20.5890 H   0  0  0  0  0  0
  -26.8303  -30.8735   21.9859 H   0  0  0  0  0  0
  -28.0513  -28.9834   21.2948 H   0  0  0  0  0  0
  -26.0867  -26.1133   18.7503 H   0  0  0  0  0  0
  -24.0205  -27.3959   18.8582 H   0  0  0  0  0  0
  -23.7154  -30.5960   19.3938 H   0  0  0  0  0  0
  -22.7412  -29.2386   19.8740 H   0  0  0  0  0  0
  -25.1283  -36.1949   25.0802 H   0  0  0  0  0  0
  -20.9991  -28.3326   24.1395 H   0  0  0  0  0  0
  -20.5681  -26.2334   23.3639 H   0  0  0  0  0  0
  -21.6682  -26.7478   22.1219 H   0  0  0  0  0  0
  -19.6957  -25.6324   21.1236 H   0  0  0  0  0  0
  -19.6712  -27.3222   20.6733 H   0  0  0  0  0  0
  -17.4227  -26.6713   21.3993 H   0  0  0  0  0  0
  -18.0325  -26.0089   22.8990 H   0  0  0  0  0  0
  -19.7943  -30.7293   24.2254 H   0  0  0  0  0  0
  -17.5022  -31.6261   24.5195 H   0  0  0  0  0  0
  -15.5355  -30.2985   23.7664 H   0  0  0  0  0  0
  -15.8692  -28.0823   22.7045 H   0  0  0  0  0  0
  -24.5968  -30.6981   25.7804 H   0  0  0  0  0  0
  -24.8896  -32.2887   26.4804 H   0  0  0  0  0  0
  -25.8124  -30.8967   27.0266 H   0  0  0  0  0  0
  -26.2839  -29.6756   24.1154 H   0  0  0  0  0  0
  -27.3982  -29.7190   25.4593 H   0  0  0  0  0  0
  -27.8723  -30.4215   23.9312 H   0  0  0  0  0  0
  -27.2701  -33.3593   26.2026 H   0  0  0  0  0  0
  -28.3889  -32.6826   25.0274 H   0  0  0  0  0  0
  -28.0741  -31.8416   26.5379 H   0  0  0  0  0  0
  -28.2574  -38.0121   24.7508 H   0  0  0  0  0  0
  -28.1088  -36.2655   24.6273 H   0  0  0  0  0  0
  -27.2309  -37.1455   25.8860 H   0  0  0  0  0  0
  -20.9302  -29.8773   21.6878 H   0  0  0  0  0  0
  -26.0166  -38.2867   24.1426 H   0  0  0  0  0  0
  -30.8599  -18.3102   22.7528 H   0  0  0  0  0  0
  -29.7820  -16.6527   19.0377 H   0  0  0  0  0  0
  -31.1627  -25.1984   22.3062 H   0  0  0  0  0  0
  -29.8348  -26.3228   22.3197 H   0  0  0  0  0  0
  -30.8347  -26.1755   20.8758 H   0  0  0  0  0  0
  -28.9476  -16.4665   23.1065 H   0  0  0  0  0  0
  -29.1543  -14.7529   23.2401 H   0  0  0  0  0  0
  -28.2266  -15.4607   21.8761 H   0  0  0  0  0  0
  -32.5107  -15.9151   22.2541 H   0  0  0  0  0  0
  -31.7009  -14.6346   23.1420 H   0  0  0  0  0  0
  -31.4005  -16.3121   23.5566 H   0  0  0  0  0  0
  -28.8888  -23.9271   18.3147 H   0  0  0  0  0  0
  -29.9591  -25.3116   18.5763 H   0  0  0  0  0  0
  -28.3342  -25.5407   17.9478 H   0  0  0  0  0  0
  -27.2549  -23.3204   20.6163 H   0  0  0  0  0  0
  -26.5074  -24.2295   19.3635 H   0  0  0  0  0  0
  -26.4359  -24.8001   21.0468 H   0  0  0  0  0  0
  -31.4321  -21.0024   20.0365 H   0  0  0  0  0  0
  -31.4689  -20.8793   21.7505 H   0  0  0  0  0  0
  -29.1868  -21.7434   21.9618 H   0  0  0  0  0  0
  -28.8895  -21.5784   20.2454 H   0  0  0  0  0  0
  -30.5685  -23.3075   19.7004 H   0  0  0  0  0  0
  -31.1702  -23.2720   21.2875 H   0  0  0  0  0  0
  -28.8465  -24.2464   22.0468 H   0  0  0  0  0  0
  1 25  1  0  0  0
  1 30  2  0  0  0
  1 83  1  0  0  0
  2  3  1  0  0  0
  2 25  1  0  0  0
  2 87  1  0  0  0
  2 88  1  0  0  0
  3  4  1  0  0  0
  3 89  1  0  0  0
  3 90  1  0  0  0
  4  5  1  0  0  0
  4 91  1  0  0  0
  4 92  1  0  0  0
  5  6  1  0  0  0
  5 26  1  0  0  0
  5 93  1  0  0  0
  6 25  1  0  0  0
  6 94  1  0  0  0
  6 95  1  0  0  0
  7  8  2  0  0  0
  7 26  1  0  0  0
  7 29  1  0  0  0
  8  9  1  0  0  0
  8 22  1  0  0  0
  9 10  1  0  0  0
  9 27  2  0  0  0
 10 11  2  0  0  0
 10 15  1  0  0  0
 11 12  1  0  0  0
 11 96  1  0  0  0
 12 13  2  0  0  0
 12 97  1  0  0  0
 13 14  1  0  0  0
 13 31  1  0  0  0
 14 15  2  0  0  0
 14 98  1  0  0  0
 15 99  1  0  0  0
 16 17  2  0  0  0
 16 21  1  0  0  0
 16 31  1  0  0  0
 17 18  1  0  0  0
 17100  1  0  0  0
 18 19  2  0  0  0
 18101  1  0  0  0
 19 20  1  0  0  0
 19 24  1  0  0  0
 20 21  2  0  0  0
 20102  1  0  0  0
 21 23  1  0  0  0
 22 28  1  0  0  0
 22 32  2  0  0  0
 26 27  1  0  0  0
 28103  1  0  0  0
 28104  1  0  0  0
 29105  1  0  0  0
 29106  1  0  0  0
 33 34  1  0  0  0
 33 66  1  0  0  0
 33 70  2  0  0  0
 34 36  1  0  0  0
 34 59  1  0  0  0
 34107  1  0  0  0
 35 44  2  0  0  0
 35 45  1  0  0  0
 35 68  1  0  0  0
 36 56  1  0  0  0
 36108  1  0  0  0
 37 39  1  0  0  0
 37 47  1  0  0  0
 37 66  1  0  0  0
 37109  1  0  0  0
 38 43  2  0  0  0
 38 46  1  0  0  0
 38 47  1  0  0  0
 39 64  1  0  0  0
 39 67  2  0  0  0
 40 52  1  0  0  0
 40 53  2  0  0  0
 40 58  1  0  0  0
 41110  1  0  0  0
 41111  1  0  0  0
 41112  1  0  0  0
 41 48  1  0  0  0
 42 43  1  0  0  0
 42 66  1  0  0  0
 42113  1  0  0  0
 42114  1  0  0  0
 43 44  1  0  0  0
 44115  1  0  0  0
 45 46  2  0  0  0
 45116  1  0  0  0
 46117  1  0  0  0
 47118  1  0  0  0
 47119  1  0  0  0
 48 56  1  0  0  0
 48 65  1  0  0  0
 48120  1  0  0  0
 49 50  1  0  0  0
 49 53  1  0  0  0
 49 64  1  0  0  0
 49121  1  0  0  0
 50 51  1  0  0  0
 50122  1  0  0  0
 50123  1  0  0  0
 51 52  1  0  0  0
 51124  1  0  0  0
 51125  1  0  0  0
 52126  1  0  0  0
 52127  1  0  0  0
 53 54  1  0  0  0
 54 55  2  0  0  0
 54128  1  0  0  0
 55 57  1  0  0  0
 55129  1  0  0  0
 56 69  2  0  0  0
 57 58  2  0  0  0
 57130  1  0  0  0
 58131  1  0  0  0
 59 60  1  0  0  0
 59 61  1  0  0  0
 59 62  1  0  0  0
 60132  1  0  0  0
 60133  1  0  0  0
 60134  1  0  0  0
 61135  1  0  0  0
 61136  1  0  0  0
 61137  1  0  0  0
 62138  1  0  0  0
 62139  1  0  0  0
 62140  1  0  0  0
 63 65  1  0  0  0
 63141  1  0  0  0
 63142  1  0  0  0
 63143  1  0  0  0
 64144  1  0  0  0
 65145  1  0  0  0
 68 84  1  0  0  0
 71 73  2  0  0  0
 71 86  1  0  0  0
 71146  1  0  0  0
 72 85  2  0  0  0
 72 86  1  0  0  0
 72147  1  0  0  0
 73 79  1  0  0  0
 73 85  1  0  0  0
 74148  1  0  0  0
 74149  1  0  0  0
 74150  1  0  0  0
 74 82  1  0  0  0
 75151  1  0  0  0
 75152  1  0  0  0
 75153  1  0  0  0
 75 83  1  0  0  0
 76 83  1  0  0  0
 76154  1  0  0  0
 76155  1  0  0  0
 76156  1  0  0  0
 77157  1  0  0  0
 77158  1  0  0  0
 77159  1  0  0  0
 77 84  1  0  0  0
 78 84  1  0  0  0
 78160  1  0  0  0
 78161  1  0  0  0
 78162  1  0  0  0
 79 80  1  0  0  0
 79163  1  0  0  0
 79164  1  0  0  0
 80 81  1  0  0  0
 80165  1  0  0  0
 80166  1  0  0  0
 81 82  1  0  0  0
 81167  1  0  0  0
 81168  1  0  0  0
 82 84  1  0  0  0
 82169  1  0  0  0
 83 86  1  0  0  0
M  ISO  4   1 100  68 101  83 100  84 101
M  END
> <chiral flag>
0

> <version>
0

> <s_m_source_file>
/data/baiqing/PycharmProjects/Reinvent-master-3.2/result/LINK_invent/BTK/process_docking_weight1_custom_sum_contain_oxygen_bond_distance_aromatic_linkinvent_7_9_3/rearranged_h_0068.sdf

> <i_m_source_file_index>
82

> <r_mmod_Potential_Energy-OPLS-2005>
148.440505981445

> <r_mmod_Stretch_Energy-OPLS-2005>
62.4358978271484

> <r_mmod_Bend_Energy-OPLS-2005>
187.109436035156

> <r_mmod_Torsional_Energy-OPLS-2005>
248.869247436523

> <r_mmod_Improper_Torsional_Energy-OPLS-2005>
2.80218529701233

> <r_mmod_Van_der_Waal_Energy-OPLS-2005>
158.334701538086

> <r_mmod_Electrostatic_Energy-OPLS-2005>
-346.463256835938

> <r_mmod_Solvation_Energy-OPLS-2005>
-191.729995727539

> <b_mmod_Minimization_Converged-OPLS-2005>
0

> <r_mmod_RMS_Derivative-OPLS-2005>
5.74603939056396

$$$$
89
                    3D
 Structure written by MMmdl.
174182  0  0  1  0            999 V2000
  -30.6934  -14.4485   20.5652 C   0  0  0  0  0  0
  -30.4273  -12.2868   19.4197 C   0  0  0  0  0  0
  -29.5005  -12.5044   18.2058 C   0  0  0  0  0  0
  -28.0184  -12.3733   18.6162 C   0  0  0  0  0  0
  -27.6681  -13.2007   19.8824 C   0  0  2  0  0  0
  -28.7100  -12.9522   20.9992 C   0  0  0  0  0  0
  -25.2615  -13.8116   20.5713 C   0  0  0  0  0  0
  -24.1856  -13.0402   20.9215 C   0  0  0  0  0  0
  -24.6407  -11.6877   20.8772 C   0  0  0  0  0  0
  -23.9055  -10.4271   21.0419 C   0  0  0  0  0  0
  -24.3611   -9.4196   21.9194 C   0  0  0  0  0  0
  -23.6297   -8.2226   22.0763 C   0  0  0  0  0  0
  -22.4286   -8.0257   21.3550 C   0  0  0  0  0  0
  -21.9908   -9.0233   20.4654 C   0  0  0  0  0  0
  -22.7226  -10.2121   20.3052 C   0  0  0  0  0  0
  -21.6835   -6.0740   22.5300 C   0  0  0  0  0  0
  -21.3992   -6.5648   23.8232 C   0  0  0  0  0  0
  -21.3673   -5.6807   24.9199 C   0  0  0  0  0  0
  -21.6055   -4.3073   24.7257 C   0  0  0  0  0  0
  -21.8810   -3.8156   23.4375 C   0  0  0  0  0  0
  -21.9177   -4.6965   22.3430 C   0  0  0  0  0  0
  -22.7884  -13.5225   21.1871 C   0  0  0  0  0  0
  -22.1635   -4.2152   21.1008 F   0  0  0  0  0  0
  -21.5659   -3.4557   25.7772 F   0  0  0  0  0  0
  -30.0450  -13.2589   20.4535 N   0  0  0  0  0  0
  -26.3052  -12.9288   20.3394 N   0  0  0  0  0  0
  -25.9328  -11.6446   20.5779 N   0  0  0  0  0  0
  -22.0508  -12.8232   22.0432 N   0  0  0  0  0  0
  -25.4308  -15.1824   20.4157 N   0  0  0  0  0  0
  -31.8020  -14.6520   20.0713 O   0  0  0  0  0  0
  -21.6626   -6.8873   21.4256 O   0  0  0  0  0  0
  -22.3590  -14.5534   20.6717 O   0  0  0  0  0  0
  -24.6148  -31.8682   23.2098 C   0  0  0  0  0  0
  -25.9058  -32.4813   23.8377 C   0  0  1  0  0  0
  -27.2314  -27.4490   20.0831 C   0  0  0  0  0  0
  -25.5934  -33.8612   24.2305 N   0  0  0  0  0  0
  -23.4014  -30.4928   21.5484 C   0  0  2  0  0  0
  -24.8490  -28.9629   20.1071 C   0  0  0  0  0  0
  -22.7405  -29.4668   22.4963 C   0  0  0  0  0  0
  -18.0294  -28.1344   22.8494 C   0  0  0  0  0  0
  -24.1487  -36.7317   23.2629 C   0  0  0  0  0  0
  -25.9292  -30.8352   21.3643 C   0  0  0  0  0  0
  -26.0068  -29.4717   20.7104 C   0  0  0  0  0  0
  -27.2031  -28.7183   20.7031 C   0  0  0  0  0  0
  -26.0739  -26.9706   19.4425 C   0  0  0  0  0  0
  -24.8756  -27.7088   19.4720 C   0  0  0  0  0  0
  -23.6099  -29.8266   20.1613 C   0  0  0  0  0  0
  -25.4106  -36.3097   24.0319 C   0  0  1  0  0  0
  -20.5886  -28.3651   23.1319 C   0  0  2  0  0  0
  -20.6784  -26.9374   22.5476 C   0  0  0  0  0  0
  -19.5789  -26.6360   21.5253 C   0  0  0  0  0  0
  -18.1956  -26.7895   22.1633 C   0  0  0  0  0  0
  -19.1545  -28.8805   23.2896 C   0  0  0  0  0  0
  -18.9473  -30.1422   23.8886 C   0  0  0  0  0  0
  -17.6465  -30.6545   24.0548 C   0  0  0  0  0  0
  -25.9038  -34.9471   23.5093 C   0  0  0  0  0  0
  -16.5357  -29.9041   23.6317 C   0  0  0  0  0  0
  -16.7279  -28.6457   23.0347 C   0  0  0  0  0  0
  -26.4494  -31.6585   25.0696 C   0  0  0  0  0  0
  -25.3770  -31.3713   26.1450 C   0  0  0  0  0  0
  -27.0315  -30.3013   24.6088 C   0  0  0  0  0  0
  -27.6054  -32.4312   25.7477 C   0  0  0  0  0  0
  -27.5573  -37.1812   24.8458 C   0  0  0  0  0  0
  -21.4139  -29.3019   22.3705 N   0  0  0  0  0  0
  -26.4279  -37.3788   23.9407 N   0  0  0  0  0  0
  -24.6656  -31.0802   22.0990 N   0  0  0  0  0  0
  -23.4179  -28.8222   23.3016 O   0  0  0  0  0  0
  -28.3699  -26.6816   20.0743 O   0  0  0  0  0  0
  -26.5584  -34.8930   22.4648 O   0  0  0  0  0  0
  -23.5342  -32.1438   23.7500 O   0  0  0  0  0  0
  -28.8390  -20.7154   20.6598 C   0  0  0  0  0  0
  -28.8885  -20.5218   18.5022 C   0  0  0  0  0  0
  -29.0148  -21.9630   20.0941 C   0  0  0  0  0  0
  -27.2183  -18.0386   18.6948 C   0  0  0  0  0  0
  -26.0354  -22.5398   21.0492 C   0  0  0  0  0  0
  -25.5794  -24.8202   21.7687 C   0  0  0  0  0  0
  -27.1753  -23.4297   23.0964 C   0  0  0  0  0  0
  -29.1772  -23.3093   20.7628 C   0  0  0  0  0  0
  -29.5247  -17.4245   19.6207 C   0  0  0  0  0  0
  -28.4492  -25.7207   21.1378 C   0  0  0  0  0  0
  -27.9389  -24.2764   20.7768 C   0  0  2  0  0  0
  -28.3092  -18.3883   19.7272 C   0  0  1  0  0  0
  -30.0942  -16.8932   20.9728 C   0  0  2  0  0  0
  -26.7214  -23.7814   21.6634 C   0  0  0  0  0  0
  -31.5107  -17.4306   21.2998 C   0  0  0  0  0  0
  -29.0819  -21.8231   18.7086 N   0  0  0  0  0  0
  -28.6703  -19.8062   19.6185 N   0  0  0  0  0  0
  -29.9468  -15.4298   21.0913 N   0  0  0  0  0  0
  -31.9650  -16.8772   22.4247 F   0  0  0  0  0  0
  -32.3885  -17.2230   20.3202 F   0  0  0  0  0  0
  -31.4335  -18.7463   21.4951 F   0  0  0  0  0  0
  -31.4704  -12.3900   19.1172 H   0  0  0  0  0  0
  -30.3263  -11.2703   19.8046 H   0  0  0  0  0  0
  -29.7369  -11.7870   17.4189 H   0  0  0  0  0  0
  -29.6802  -13.4925   17.7798 H   0  0  0  0  0  0
  -27.8225  -11.3157   18.7998 H   0  0  0  0  0  0
  -27.3694  -12.6608   17.7885 H   0  0  0  0  0  0
  -27.7209  -14.2549   19.6040 H   0  0  0  0  0  0
  -28.6810  -11.9081   21.3189 H   0  0  0  0  0  0
  -28.4799  -13.5352   21.8920 H   0  0  0  0  0  0
  -25.2754   -9.5687   22.4782 H   0  0  0  0  0  0
  -24.0013   -7.4620   22.7488 H   0  0  0  0  0  0
  -21.0824   -8.8745   19.8984 H   0  0  0  0  0  0
  -22.3664  -10.9663   19.6171 H   0  0  0  0  0  0
  -21.1948   -7.6153   23.9745 H   0  0  0  0  0  0
  -21.1511   -6.0538   25.9111 H   0  0  0  0  0  0
  -22.0570   -2.7610   23.2883 H   0  0  0  0  0  0
  -22.4051  -11.9844   22.4770 H   0  0  0  0  0  0
  -21.1134  -13.1289   22.2644 H   0  0  0  0  0  0
  -24.6523  -15.8258   20.5041 H   0  0  0  0  0  0
  -26.2731  -15.6260   20.0764 H   0  0  0  0  0  0
  -26.7127  -32.5521   23.1138 H   0  0  0  0  0  0
  -25.0109  -33.9771   25.0468 H   0  0  0  0  0  0
  -22.6904  -31.3098   21.4088 H   0  0  0  0  0  0
  -23.3736  -35.9665   23.3292 H   0  0  0  0  0  0
  -24.3572  -36.8936   22.2045 H   0  0  0  0  0  0
  -23.7276  -37.6532   23.6649 H   0  0  0  0  0  0
  -26.0456  -31.6038   20.5990 H   0  0  0  0  0  0
  -26.8155  -30.8821   21.9859 H   0  0  0  0  0  0
  -28.0972  -29.1050   21.1702 H   0  0  0  0  0  0
  -26.0953  -26.0149   18.9377 H   0  0  0  0  0  0
  -23.9882  -27.3137   18.9959 H   0  0  0  0  0  0
  -23.7209  -30.6041   19.4042 H   0  0  0  0  0  0
  -22.7341  -29.2476   19.8615 H   0  0  0  0  0  0
  -25.1299  -36.1925   25.0808 H   0  0  0  0  0  0
  -21.0004  -28.3245   24.1428 H   0  0  0  0  0  0
  -20.5615  -26.2300   23.3691 H   0  0  0  0  0  0
  -21.6676  -26.7344   22.1361 H   0  0  0  0  0  0
  -19.6942  -25.6273   21.1291 H   0  0  0  0  0  0
  -19.6780  -27.3181   20.6798 H   0  0  0  0  0  0
  -17.4257  -26.6614   21.4020 H   0  0  0  0  0  0
  -18.0346  -26.0042   22.9035 H   0  0  0  0  0  0
  -19.7959  -30.7242   24.2214 H   0  0  0  0  0  0
  -17.5020  -31.6229   24.5141 H   0  0  0  0  0  0
  -15.5346  -30.2940   23.7620 H   0  0  0  0  0  0
  -15.8696  -28.0763   22.7059 H   0  0  0  0  0  0
  -24.5937  -30.7053   25.7812 H   0  0  0  0  0  0
  -24.8984  -32.2884   26.4885 H   0  0  0  0  0  0
  -25.8141  -30.8902   27.0209 H   0  0  0  0  0  0
  -26.2855  -29.6773   24.1147 H   0  0  0  0  0  0
  -27.4075  -29.7246   25.4553 H   0  0  0  0  0  0
  -27.8699  -30.4293   23.9234 H   0  0  0  0  0  0
  -27.2630  -33.3585   26.2080 H   0  0  0  0  0  0
  -28.3862  -32.6915   25.0318 H   0  0  0  0  0  0
  -28.0721  -31.8426   26.5386 H   0  0  0  0  0  0
  -28.2593  -38.0107   24.7498 H   0  0  0  0  0  0
  -28.1065  -36.2643   24.6282 H   0  0  0  0  0  0
  -27.2289  -37.1459   25.8858 H   0  0  0  0  0  0
  -20.9275  -29.8750   21.6953 H   0  0  0  0  0  0
  -26.0157  -38.2854   24.1425 H   0  0  0  0  0  0
  -28.7477  -20.4235   21.6965 H   0  0  0  0  0  0
  -28.8577  -20.0862   17.5129 H   0  0  0  0  0  0
  -26.8357  -17.0311   18.8467 H   0  0  0  0  0  0
  -27.5901  -18.0870   17.6712 H   0  0  0  0  0  0
  -26.3688  -18.7176   18.7724 H   0  0  0  0  0  0
  -25.0456  -22.3733   21.4752 H   0  0  0  0  0  0
  -26.5780  -21.6223   21.2441 H   0  0  0  0  0  0
  -25.9128  -22.6345   19.9696 H   0  0  0  0  0  0
  -24.7940  -24.4782   22.4435 H   0  0  0  0  0  0
  -25.0949  -24.9700   20.8048 H   0  0  0  0  0  0
  -25.8864  -25.7906   22.1499 H   0  0  0  0  0  0
  -26.3274  -23.1565   23.7230 H   0  0  0  0  0  0
  -27.6851  -24.2622   23.5814 H   0  0  0  0  0  0
  -27.8520  -22.5757   23.1122 H   0  0  0  0  0  0
  -29.9959  -23.8182   20.2506 H   0  0  0  0  0  0
  -29.5483  -23.1754   21.7795 H   0  0  0  0  0  0
  -30.3182  -17.9006   19.0454 H   0  0  0  0  0  0
  -29.2357  -16.5712   19.0062 H   0  0  0  0  0  0
  -29.5049  -25.6816   21.4094 H   0  0  0  0  0  0
  -27.9853  -26.1140   22.0414 H   0  0  0  0  0  0
  -27.5872  -24.3321   19.7456 H   0  0  0  0  0  0
  -27.8354  -18.2544   20.7010 H   0  0  0  0  0  0
  -29.4621  -17.2665   21.7786 H   0  0  0  0  0  0
  -29.0882  -15.1193   21.5159 H   0  0  0  0  0  0
  1 25  1  0  0  0
  1 30  2  0  0  0
  1 88  1  0  0  0
  2  3  1  0  0  0
  2 25  1  0  0  0
  2 92  1  0  0  0
  2 93  1  0  0  0
  3  4  1  0  0  0
  3 94  1  0  0  0
  3 95  1  0  0  0
  4  5  1  0  0  0
  4 96  1  0  0  0
  4 97  1  0  0  0
  5  6  1  0  0  0
  5 26  1  0  0  0
  5 98  1  0  0  0
  6 25  1  0  0  0
  6 99  1  0  0  0
  6100  1  0  0  0
  7  8  2  0  0  0
  7 26  1  0  0  0
  7 29  1  0  0  0
  8  9  1  0  0  0
  8 22  1  0  0  0
  9 10  1  0  0  0
  9 27  2  0  0  0
 10 11  2  0  0  0
 10 15  1  0  0  0
 11 12  1  0  0  0
 11101  1  0  0  0
 12 13  2  0  0  0
 12102  1  0  0  0
 13 14  1  0  0  0
 13 31  1  0  0  0
 14 15  2  0  0  0
 14103  1  0  0  0
 15104  1  0  0  0
 16 17  2  0  0  0
 16 21  1  0  0  0
 16 31  1  0  0  0
 17 18  1  0  0  0
 17105  1  0  0  0
 18 19  2  0  0  0
 18106  1  0  0  0
 19 20  1  0  0  0
 19 24  1  0  0  0
 20 21  2  0  0  0
 20107  1  0  0  0
 21 23  1  0  0  0
 22 28  1  0  0  0
 22 32  2  0  0  0
 26 27  1  0  0  0
 28108  1  0  0  0
 28109  1  0  0  0
 29110  1  0  0  0
 29111  1  0  0  0
 33 34  1  0  0  0
 33 66  1  0  0  0
 33 70  2  0  0  0
 34 36  1  0  0  0
 34 59  1  0  0  0
 34112  1  0  0  0
 35 44  2  0  0  0
 35 45  1  0  0  0
 35 68  1  0  0  0
 36 56  1  0  0  0
 36113  1  0  0  0
 37 39  1  0  0  0
 37 47  1  0  0  0
 37 66  1  0  0  0
 37114  1  0  0  0
 38 43  2  0  0  0
 38 46  1  0  0  0
 38 47  1  0  0  0
 39 64  1  0  0  0
 39 67  2  0  0  0
 40 52  1  0  0  0
 40 53  2  0  0  0
 40 58  1  0  0  0
 41115  1  0  0  0
 41116  1  0  0  0
 41117  1  0  0  0
 41 48  1  0  0  0
 42 43  1  0  0  0
 42 66  1  0  0  0
 42118  1  0  0  0
 42119  1  0  0  0
 43 44  1  0  0  0
 44120  1  0  0  0
 45 46  2  0  0  0
 45121  1  0  0  0
 46122  1  0  0  0
 47123  1  0  0  0
 47124  1  0  0  0
 48 56  1  0  0  0
 48 65  1  0  0  0
 48125  1  0  0  0
 49 50  1  0  0  0
 49 53  1  0  0  0
 49 64  1  0  0  0
 49126  1  0  0  0
 50 51  1  0  0  0
 50127  1  0  0  0
 50128  1  0  0  0
 51 52  1  0  0  0
 51129  1  0  0  0
 51130  1  0  0  0
 52131  1  0  0  0
 52132  1  0  0  0
 53 54  1  0  0  0
 54 55  2  0  0  0
 54133  1  0  0  0
 55 57  1  0  0  0
 55134  1  0  0  0
 56 69  2  0  0  0
 57 58  2  0  0  0
 57135  1  0  0  0
 58136  1  0  0  0
 59 60  1  0  0  0
 59 61  1  0  0  0
 59 62  1  0  0  0
 60137  1  0  0  0
 60138  1  0  0  0
 60139  1  0  0  0
 61140  1  0  0  0
 61141  1  0  0  0
 61142  1  0  0  0
 62143  1  0  0  0
 62144  1  0  0  0
 62145  1  0  0  0
 63 65  1  0  0  0
 63146  1  0  0  0
 63147  1  0  0  0
 63148  1  0  0  0
 64149  1  0  0  0
 65150  1  0  0  0
 68 80  1  0  0  0
 71 73  2  0  0  0
 71 87  1  0  0  0
 71151  1  0  0  0
 72 86  2  0  0  0
 72 87  1  0  0  0
 72152  1  0  0  0
 73 78  1  0  0  0
 73 86  1  0  0  0
 74153  1  0  0  0
 74154  1  0  0  0
 74155  1  0  0  0
 74 82  1  0  0  0
 75156  1  0  0  0
 75157  1  0  0  0
 75158  1  0  0  0
 75 84  1  0  0  0
 76 84  1  0  0  0
 76159  1  0  0  0
 76160  1  0  0  0
 76161  1  0  0  0
 77 84  1  0  0  0
 77162  1  0  0  0
 77163  1  0  0  0
 77164  1  0  0  0
 78165  1  0  0  0
 78166  1  0  0  0
 78 81  1  0  0  0
 79 82  1  0  0  0
 79167  1  0  0  0
 79168  1  0  0  0
 79 83  1  0  0  0
 80 81  1  0  0  0
 80169  1  0  0  0
 80170  1  0  0  0
 81 84  1  0  0  0
 81171  1  0  0  0
 82 87  1  0  0  0
 82172  1  0  0  0
 83 85  1  0  0  0
 83 88  1  0  0  0
 83173  1  0  0  0
 85 89  1  0  0  0
 85 90  1  0  0  0
 85 91  1  0  0  0
 88174  1  0  0  0
M  ISO  4   1 100  68 101  80 101  88 100
M  END
> <chiral flag>
0

> <version>
0

> <s_m_source_file>
/data/baiqing/PycharmProjects/Reinvent-master-3.2/result/LINK_invent/BTK/process_docking_weight1_custom_sum_contain_oxygen_bond_distance_aromatic_linkinvent_7_9_3/rearranged_h_0068.sdf

> <i_m_source_file_index>
83

> <r_mmod_Potential_Energy-OPLS-2005>
-35.0525741577148

> <r_mmod_Stretch_Energy-OPLS-2005>
43.7071571350098

> <r_mmod_Bend_Energy-OPLS-2005>
128.012496948242

> <r_mmod_Torsional_Energy-OPLS-2005>
304.368469238281

> <r_mmod_Improper_Torsional_Energy-OPLS-2005>
4.79844188690186

> <r_mmod_Van_der_Waal_Energy-OPLS-2005>
130.068740844727

> <r_mmod_Electrostatic_Energy-OPLS-2005>
-435.8369140625

> <r_mmod_Solvation_Energy-OPLS-2005>
-221.372772216797

> <b_mmod_Minimization_Converged-OPLS-2005>
0

> <r_mmod_RMS_Derivative-OPLS-2005>
2.62064218521118

$$$$
90
                    3D
 Structure written by MMmdl.
182190  0  0  1  0            999 V2000
  -30.6963  -14.5578   20.4494 C   0  0  0  0  0  0
  -30.4324  -12.3192   19.4404 C   0  0  0  0  0  0
  -29.5017  -12.4487   18.2134 C   0  0  0  0  0  0
  -28.0103  -12.3524   18.6147 C   0  0  0  0  0  0
  -27.6483  -13.1784   19.8815 C   0  0  2  0  0  0
  -28.7191  -12.9817   20.9785 C   0  0  0  0  0  0
  -25.2560  -13.8022   20.5732 C   0  0  0  0  0  0
  -24.1796  -13.0347   20.9220 C   0  0  0  0  0  0
  -24.6332  -11.6808   20.8799 C   0  0  0  0  0  0
  -23.8979  -10.4238   21.0440 C   0  0  0  0  0  0
  -24.3555   -9.4165   21.9214 C   0  0  0  0  0  0
  -23.6256   -8.2196   22.0758 C   0  0  0  0  0  0
  -22.4241   -8.0231   21.3542 C   0  0  0  0  0  0
  -21.9858   -9.0201   20.4649 C   0  0  0  0  0  0
  -22.7162  -10.2088   20.3075 C   0  0  0  0  0  0
  -21.6828   -6.0714   22.5295 C   0  0  0  0  0  0
  -21.3991   -6.5627   23.8227 C   0  0  0  0  0  0
  -21.3659   -5.6781   24.9197 C   0  0  0  0  0  0
  -21.6059   -4.3053   24.7233 C   0  0  0  0  0  0
  -21.8818   -3.8135   23.4359 C   0  0  0  0  0  0
  -21.9179   -4.6951   22.3413 C   0  0  0  0  0  0
  -22.7834  -13.5197   21.1846 C   0  0  0  0  0  0
  -22.1650   -4.2145   21.0989 F   0  0  0  0  0  0
  -21.5639   -3.4535   25.7742 F   0  0  0  0  0  0
  -30.0309  -13.3517   20.4172 N   0  0  0  0  0  0
  -26.2969  -12.9113   20.3503 N   0  0  0  0  0  0
  -25.9263  -11.6311   20.5895 N   0  0  0  0  0  0
  -22.0429  -12.8246   22.0412 N   0  0  0  0  0  0
  -25.4241  -15.1748   20.4090 N   0  0  0  0  0  0
  -31.8935  -14.5598   20.1612 O   0  0  0  0  0  0
  -21.6606   -6.8837   21.4240 O   0  0  0  0  0  0
  -22.3568  -14.5516   20.6675 O   0  0  0  0  0  0
  -24.6087  -31.8711   23.2122 C   0  0  0  0  0  0
  -25.9004  -32.4837   23.8403 C   0  0  1  0  0  0
  -27.2436  -27.4698   20.1022 C   0  0  0  0  0  0
  -25.5875  -33.8634   24.2333 N   0  0  0  0  0  0
  -23.3966  -30.4924   21.5516 C   0  0  2  0  0  0
  -24.8472  -28.9576   20.1200 C   0  0  0  0  0  0
  -22.7377  -29.4676   22.5018 C   0  0  0  0  0  0
  -18.0261  -28.1384   22.8499 C   0  0  0  0  0  0
  -24.1492  -36.7315   23.2641 C   0  0  0  0  0  0
  -25.9198  -30.8464   21.3635 C   0  0  0  0  0  0
  -26.0002  -29.4802   20.7190 C   0  0  0  0  0  0
  -27.2007  -28.7417   20.7136 C   0  0  0  0  0  0
  -26.0824  -26.9563   19.4918 C   0  0  0  0  0  0
  -24.8798  -27.6913   19.5067 C   0  0  0  0  0  0
  -23.6063  -29.8198   20.1676 C   0  0  0  0  0  0
  -25.4112  -36.3116   24.0338 C   0  0  1  0  0  0
  -20.5845  -28.3664   23.1342 C   0  0  2  0  0  0
  -20.6761  -26.9404   22.5435 C   0  0  0  0  0  0
  -19.5746  -26.6395   21.5225 C   0  0  0  0  0  0
  -18.1919  -26.7935   22.1626 C   0  0  0  0  0  0
  -19.1508  -28.8836   23.2922 C   0  0  0  0  0  0
  -18.9441  -30.1439   23.8939 C   0  0  0  0  0  0
  -17.6447  -30.6595   24.0569 C   0  0  0  0  0  0
  -25.9032  -34.9482   23.5135 C   0  0  0  0  0  0
  -16.5336  -29.9101   23.6326 C   0  0  0  0  0  0
  -16.7252  -28.6513   23.0354 C   0  0  0  0  0  0
  -26.4464  -31.6607   25.0713 C   0  0  0  0  0  0
  -25.3742  -31.3713   26.1473 C   0  0  0  0  0  0
  -27.0289  -30.3048   24.6069 C   0  0  0  0  0  0
  -27.6047  -32.4330   25.7464 C   0  0  0  0  0  0
  -27.5585  -37.1810   24.8464 C   0  0  0  0  0  0
  -21.4109  -29.3030   22.3746 N   0  0  0  0  0  0
  -26.4302  -37.3792   23.9408 N   0  0  0  0  0  0
  -24.6594  -31.0841   22.1014 N   0  0  0  0  0  0
  -23.4154  -28.8224   23.3066 O   0  0  0  0  0  0
  -28.3984  -26.7290   20.0529 O   0  0  0  0  0  0
  -26.5588  -34.8925   22.4696 O   0  0  0  0  0  0
  -23.5293  -32.1458   23.7534 O   0  0  0  0  0  0
  -32.6343  -18.5148   19.9760 C   0  0  0  0  0  0
  -31.8699  -19.6879   19.8578 C   0  0  0  0  0  0
  -30.5238  -19.5708   20.2431 C   0  0  0  0  0  0
  -30.7841  -17.2883   20.6181 C   0  0  0  0  0  0
  -29.5118  -20.6988   20.1473 C   0  0  0  0  0  0
  -29.2232  -16.1515   19.1347 C   0  0  0  0  0  0
  -28.9511  -15.9781   21.7193 C   0  0  0  0  0  0
  -32.0650  -23.6663   17.9959 C   0  0  0  0  0  0
  -34.3408  -23.5096   18.9837 C   0  0  0  0  0  0
  -33.1938  -26.1274   19.7040 C   0  0  0  0  0  0
  -33.0354  -24.6431   21.6925 C   0  0  0  0  0  0
  -32.4499  -20.9437   19.2019 C   0  0  0  0  0  0
  -32.4615  -22.2318   20.0716 C   0  0  0  0  0  0
  -30.4781  -26.2705   21.2263 C   0  0  0  0  0  0
  -30.9592  -25.1175   20.3145 C   0  0  0  0  0  0
  -28.9502  -26.3787   21.3211 C   0  0  0  0  0  0
  -29.9363  -15.9656   20.5125 C   0  0  0  0  0  0
  -32.8327  -23.5739   19.3430 C   0  0  0  0  0  0
  -32.5032  -24.8476   20.2520 C   0  0  0  0  0  0
  -32.0851  -17.3347   20.3267 N   0  0  0  0  0  0
  -30.0261  -18.3925   20.6405 N   0  0  0  0  0  0
  -31.4768  -12.4001   19.1332 H   0  0  0  0  0  0
  -30.3419  -11.3223   19.8742 H   0  0  0  0  0  0
  -29.7347  -11.6621   17.4945 H   0  0  0  0  0  0
  -29.7000  -13.3829   17.6899 H   0  0  0  0  0  0
  -27.7947  -11.2983   18.7972 H   0  0  0  0  0  0
  -27.3778  -12.6486   17.7770 H   0  0  0  0  0  0
  -27.6237  -14.2171   19.5994 H   0  0  0  0  0  0
  -28.7346  -11.9308   21.2714 H   0  0  0  0  0  0
  -28.4907  -13.4835   21.9125 H   0  0  0  0  0  0
  -25.2692   -9.5666   22.4801 H   0  0  0  0  0  0
  -23.9978   -7.4579   22.7464 H   0  0  0  0  0  0
  -21.0799   -8.8700   19.8949 H   0  0  0  0  0  0
  -22.3619  -10.9628   19.6189 H   0  0  0  0  0  0
  -21.1965   -7.6131   23.9730 H   0  0  0  0  0  0
  -21.1495   -6.0513   25.9098 H   0  0  0  0  0  0
  -22.0597   -2.7599   23.2863 H   0  0  0  0  0  0
  -22.3986  -11.9928   22.4885 H   0  0  0  0  0  0
  -21.1062  -13.1347   22.2581 H   0  0  0  0  0  0
  -24.6547  -15.8254   20.5231 H   0  0  0  0  0  0
  -26.2773  -15.6224   20.1016 H   0  0  0  0  0  0
  -26.7065  -32.5586   23.1168 H   0  0  0  0  0  0
  -25.0034  -33.9804   25.0478 H   0  0  0  0  0  0
  -22.6836  -31.3066   21.4103 H   0  0  0  0  0  0
  -23.3749  -35.9655   23.3324 H   0  0  0  0  0  0
  -24.3591  -36.8912   22.2053 H   0  0  0  0  0  0
  -23.7244  -37.6525   23.6644 H   0  0  0  0  0  0
  -26.0255  -31.6111   20.5931 H   0  0  0  0  0  0
  -26.8092  -30.9045   21.9797 H   0  0  0  0  0  0
  -28.0929  -29.1507   21.1678 H   0  0  0  0  0  0
  -26.1086  -25.9872   19.0124 H   0  0  0  0  0  0
  -23.9919  -27.2846   19.0421 H   0  0  0  0  0  0
  -23.7070  -30.5921   19.4039 H   0  0  0  0  0  0
  -22.7342  -29.2323   19.8760 H   0  0  0  0  0  0
  -25.1292  -36.1989   25.0827 H   0  0  0  0  0  0
  -20.9924  -28.3232   24.1465 H   0  0  0  0  0  0
  -20.5693  -26.2260   23.3611 H   0  0  0  0  0  0
  -21.6634  -26.7487   22.1205 H   0  0  0  0  0  0
  -19.6916  -25.6311   21.1244 H   0  0  0  0  0  0
  -19.6698  -27.3219   20.6763 H   0  0  0  0  0  0
  -17.4191  -26.6683   21.4018 H   0  0  0  0  0  0
  -18.0313  -26.0071   22.9015 H   0  0  0  0  0  0
  -19.7917  -30.7238   24.2333 H   0  0  0  0  0  0
  -17.5010  -31.6282   24.5160 H   0  0  0  0  0  0
  -15.5341  -30.3023   23.7641 H   0  0  0  0  0  0
  -15.8642  -28.0851   22.7063 H   0  0  0  0  0  0
  -24.5876  -30.7108   25.7805 H   0  0  0  0  0  0
  -24.8980  -32.2880   26.4966 H   0  0  0  0  0  0
  -25.8097  -30.8831   27.0200 H   0  0  0  0  0  0
  -26.2817  -29.6820   24.1131 H   0  0  0  0  0  0
  -27.4070  -29.7282   25.4524 H   0  0  0  0  0  0
  -27.8656  -30.4375   23.9201 H   0  0  0  0  0  0
  -27.2650  -33.3599   26.2105 H   0  0  0  0  0  0
  -28.3812  -32.6951   25.0260 H   0  0  0  0  0  0
  -28.0765  -31.8420   26.5329 H   0  0  0  0  0  0
  -28.2601  -38.0105   24.7506 H   0  0  0  0  0  0
  -28.1076  -36.2637   24.6295 H   0  0  0  0  0  0
  -27.2305  -37.1470   25.8865 H   0  0  0  0  0  0
  -20.9252  -29.8716   21.6947 H   0  0  0  0  0  0
  -26.0198  -38.2876   24.1399 H   0  0  0  0  0  0
  -33.6753  -18.4925   19.6874 H   0  0  0  0  0  0
  -29.7095  -21.3446   19.2926 H   0  0  0  0  0  0
  -29.5273  -21.3004   21.0557 H   0  0  0  0  0  0
  -28.5025  -20.3078   20.0279 H   0  0  0  0  0  0
  -28.2929  -16.7097   19.2399 H   0  0  0  0  0  0
  -29.0222  -15.2422   18.5854 H   0  0  0  0  0  0
  -29.8499  -16.7158   18.4430 H   0  0  0  0  0  0
  -28.6223  -16.9723   22.0113 H   0  0  0  0  0  0
  -29.4108  -15.5473   22.6098 H   0  0  0  0  0  0
  -28.0207  -15.4650   21.5070 H   0  0  0  0  0  0
  -32.4534  -22.9692   17.2531 H   0  0  0  0  0  0
  -32.1360  -24.6524   17.5389 H   0  0  0  0  0  0
  -31.0050  -23.4420   18.1157 H   0  0  0  0  0  0
  -34.5877  -22.6127   18.4167 H   0  0  0  0  0  0
  -34.9823  -23.5061   19.8633 H   0  0  0  0  0  0
  -34.6492  -24.3432   18.3526 H   0  0  0  0  0  0
  -32.9582  -27.0092   20.2973 H   0  0  0  0  0  0
  -32.9055  -26.3573   18.6796 H   0  0  0  0  0  0
  -34.2808  -26.0558   19.7343 H   0  0  0  0  0  0
  -33.0016  -25.5641   22.2744 H   0  0  0  0  0  0
  -34.0752  -24.3205   21.7090 H   0  0  0  0  0  0
  -32.4525  -23.9029   22.2403 H   0  0  0  0  0  0
  -31.8575  -21.0907   18.2996 H   0  0  0  0  0  0
  -33.4599  -20.7245   18.8549 H   0  0  0  0  0  0
  -33.1401  -22.0624   20.9087 H   0  0  0  0  0  0
  -31.4868  -22.3503   20.5283 H   0  0  0  0  0  0
  -30.8672  -27.2270   20.8813 H   0  0  0  0  0  0
  -30.8548  -26.1303   22.2384 H   0  0  0  0  0  0
  -30.5844  -25.3392   19.3155 H   0  0  0  0  0  0
  -30.4345  -24.2163   20.6263 H   0  0  0  0  0  0
  -28.6994  -27.1004   22.0998 H   0  0  0  0  0  0
  -28.5254  -25.4265   21.6408 H   0  0  0  0  0  0
  1 25  1  0  0  0
  1 30  2  0  0  0
  1 87  1  0  0  0
  2  3  1  0  0  0
  2 25  1  0  0  0
  2 92  1  0  0  0
  2 93  1  0  0  0
  3  4  1  0  0  0
  3 94  1  0  0  0
  3 95  1  0  0  0
  4  5  1  0  0  0
  4 96  1  0  0  0
  4 97  1  0  0  0
  5  6  1  0  0  0
  5 26  1  0  0  0
  5 98  1  0  0  0
  6 25  1  0  0  0
  6 99  1  0  0  0
  6100  1  0  0  0
  7  8  2  0  0  0
  7 26  1  0  0  0
  7 29  1  0  0  0
  8  9  1  0  0  0
  8 22  1  0  0  0
  9 10  1  0  0  0
  9 27  2  0  0  0
 10 11  2  0  0  0
 10 15  1  0  0  0
 11 12  1  0  0  0
 11101  1  0  0  0
 12 13  2  0  0  0
 12102  1  0  0  0
 13 14  1  0  0  0
 13 31  1  0  0  0
 14 15  2  0  0  0
 14103  1  0  0  0
 15104  1  0  0  0
 16 17  2  0  0  0
 16 21  1  0  0  0
 16 31  1  0  0  0
 17 18  1  0  0  0
 17105  1  0  0  0
 18 19  2  0  0  0
 18106  1  0  0  0
 19 20  1  0  0  0
 19 24  1  0  0  0
 20 21  2  0  0  0
 20107  1  0  0  0
 21 23  1  0  0  0
 22 28  1  0  0  0
 22 32  2  0  0  0
 26 27  1  0  0  0
 28108  1  0  0  0
 28109  1  0  0  0
 29110  1  0  0  0
 29111  1  0  0  0
 33 34  1  0  0  0
 33 66  1  0  0  0
 33 70  2  0  0  0
 34 36  1  0  0  0
 34 59  1  0  0  0
 34112  1  0  0  0
 35 44  2  0  0  0
 35 45  1  0  0  0
 35 68  1  0  0  0
 36 56  1  0  0  0
 36113  1  0  0  0
 37 39  1  0  0  0
 37 47  1  0  0  0
 37 66  1  0  0  0
 37114  1  0  0  0
 38 43  2  0  0  0
 38 46  1  0  0  0
 38 47  1  0  0  0
 39 64  1  0  0  0
 39 67  2  0  0  0
 40 52  1  0  0  0
 40 53  2  0  0  0
 40 58  1  0  0  0
 41115  1  0  0  0
 41116  1  0  0  0
 41117  1  0  0  0
 41 48  1  0  0  0
 42 43  1  0  0  0
 42 66  1  0  0  0
 42118  1  0  0  0
 42119  1  0  0  0
 43 44  1  0  0  0
 44120  1  0  0  0
 45 46  2  0  0  0
 45121  1  0  0  0
 46122  1  0  0  0
 47123  1  0  0  0
 47124  1  0  0  0
 48 56  1  0  0  0
 48 65  1  0  0  0
 48125  1  0  0  0
 49 50  1  0  0  0
 49 53  1  0  0  0
 49 64  1  0  0  0
 49126  1  0  0  0
 50 51  1  0  0  0
 50127  1  0  0  0
 50128  1  0  0  0
 51 52  1  0  0  0
 51129  1  0  0  0
 51130  1  0  0  0
 52131  1  0  0  0
 52132  1  0  0  0
 53 54  1  0  0  0
 54 55  2  0  0  0
 54133  1  0  0  0
 55 57  1  0  0  0
 55134  1  0  0  0
 56 69  2  0  0  0
 57 58  2  0  0  0
 57135  1  0  0  0
 58136  1  0  0  0
 59 60  1  0  0  0
 59 61  1  0  0  0
 59 62  1  0  0  0
 60137  1  0  0  0
 60138  1  0  0  0
 60139  1  0  0  0
 61140  1  0  0  0
 61141  1  0  0  0
 61142  1  0  0  0
 62143  1  0  0  0
 62144  1  0  0  0
 62145  1  0  0  0
 63 65  1  0  0  0
 63146  1  0  0  0
 63147  1  0  0  0
 63148  1  0  0  0
 64149  1  0  0  0
 65150  1  0  0  0
 68 86  1  0  0  0
 71 72  2  0  0  0
 71 90  1  0  0  0
 71151  1  0  0  0
 72 73  1  0  0  0
 72 82  1  0  0  0
 73 75  1  0  0  0
 73 91  2  0  0  0
 74 87  1  0  0  0
 74 90  2  0  0  0
 74 91  1  0  0  0
 75152  1  0  0  0
 75153  1  0  0  0
 75154  1  0  0  0
 76155  1  0  0  0
 76156  1  0  0  0
 76157  1  0  0  0
 76 87  1  0  0  0
 77 87  1  0  0  0
 77158  1  0  0  0
 77159  1  0  0  0
 77160  1  0  0  0
 78161  1  0  0  0
 78162  1  0  0  0
 78163  1  0  0  0
 78 88  1  0  0  0
 79 88  1  0  0  0
 79164  1  0  0  0
 79165  1  0  0  0
 79166  1  0  0  0
 80167  1  0  0  0
 80168  1  0  0  0
 80169  1  0  0  0
 80 89  1  0  0  0
 81 89  1  0  0  0
 81170  1  0  0  0
 81171  1  0  0  0
 81172  1  0  0  0
 82 83  1  0  0  0
 82173  1  0  0  0
 82174  1  0  0  0
 83 88  1  0  0  0
 83175  1  0  0  0
 83176  1  0  0  0
 84 85  1  0  0  0
 84 86  1  0  0  0
 84177  1  0  0  0
 84178  1  0  0  0
 85 89  1  0  0  0
 85179  1  0  0  0
 85180  1  0  0  0
 86181  1  0  0  0
 86182  1  0  0  0
 88 89  1  0  0  0
M  ISO  4   1 100  68 101  86 101  87 100
M  END
> <chiral flag>
0

> <version>
0

> <s_m_source_file>
/data/baiqing/PycharmProjects/Reinvent-master-3.2/result/LINK_invent/BTK/process_docking_weight1_custom_sum_contain_oxygen_bond_distance_aromatic_linkinvent_7_9_3/rearranged_h_0068.sdf

> <i_m_source_file_index>
84

> <r_mmod_Potential_Energy-OPLS-2005>
-127.141944885254

> <r_mmod_Stretch_Energy-OPLS-2005>
62.5674781799316

> <r_mmod_Bend_Energy-OPLS-2005>
161.688980102539

> <r_mmod_Torsional_Energy-OPLS-2005>
270.211761474609

> <r_mmod_Improper_Torsional_Energy-OPLS-2005>
11.3560256958008

> <r_mmod_Van_der_Waal_Energy-OPLS-2005>
216.970565795898

> <r_mmod_Electrostatic_Energy-OPLS-2005>
-673.5068359375

> <r_mmod_Solvation_Energy-OPLS-2005>
-199.623229980469

> <b_mmod_Minimization_Converged-OPLS-2005>
0

> <r_mmod_RMS_Derivative-OPLS-2005>
1.91082012653351

$$$$
91
                    3D
 Structure written by MMmdl.
162170  0  0  1  0            999 V2000
  -30.6101  -14.7316   20.5855 C   0  0  0  0  0  0
  -30.4454  -12.4805   19.4596 C   0  0  0  0  0  0
  -29.5123  -12.5506   18.2268 C   0  0  0  0  0  0
  -28.0327  -12.3699   18.6246 C   0  0  0  0  0  0
  -27.6524  -13.2182   19.8651 C   0  0  2  0  0  0
  -28.6968  -13.0153   20.9778 C   0  0  0  0  0  0
  -25.2553  -13.8164   20.5650 C   0  0  0  0  0  0
  -24.1831  -13.0426   20.9177 C   0  0  0  0  0  0
  -24.6404  -11.6898   20.8728 C   0  0  0  0  0  0
  -23.9074  -10.4286   21.0405 C   0  0  0  0  0  0
  -24.3625   -9.4202   21.9179 C   0  0  0  0  0  0
  -23.6290   -8.2240   22.0756 C   0  0  0  0  0  0
  -22.4268   -8.0287   21.3546 C   0  0  0  0  0  0
  -21.9908   -9.0263   20.4646 C   0  0  0  0  0  0
  -22.7249  -10.2136   20.3052 C   0  0  0  0  0  0
  -21.6849   -6.0740   22.5278 C   0  0  0  0  0  0
  -21.4014   -6.5642   23.8214 C   0  0  0  0  0  0
  -21.3658   -5.6794   24.9172 C   0  0  0  0  0  0
  -21.6044   -4.3057   24.7227 C   0  0  0  0  0  0
  -21.8819   -3.8151   23.4347 C   0  0  0  0  0  0
  -21.9188   -4.6967   22.3402 C   0  0  0  0  0  0
  -22.7864  -13.5231   21.1847 C   0  0  0  0  0  0
  -22.1660   -4.2154   21.0978 F   0  0  0  0  0  0
  -21.5623   -3.4538   25.7738 F   0  0  0  0  0  0
  -29.9896  -13.4918   20.4560 N   0  0  0  0  0  0
  -26.2979  -12.9342   20.3295 N   0  0  0  0  0  0
  -25.9325  -11.6493   20.5721 N   0  0  0  0  0  0
  -22.0501  -12.8225   22.0404 N   0  0  0  0  0  0
  -25.4244  -15.1883   20.4040 N   0  0  0  0  0  0
  -31.7175  -14.8465   20.0443 O   0  0  0  0  0  0
  -21.6634   -6.8881   21.4240 O   0  0  0  0  0  0
  -22.3551  -14.5535   20.6703 O   0  0  0  0  0  0
  -24.6296  -31.8555   23.1966 C   0  0  0  0  0  0
  -25.9126  -32.4752   23.8315 C   0  0  1  0  0  0
  -27.2276  -27.2813   20.1360 C   0  0  0  0  0  0
  -25.5927  -33.8553   24.2245 N   0  0  0  0  0  0
  -23.4250  -30.4751   21.5399 C   0  0  2  0  0  0
  -24.8725  -28.9116   20.1195 C   0  0  0  0  0  0
  -22.7479  -29.4619   22.4934 C   0  0  0  0  0  0
  -18.0295  -28.1377   22.8492 C   0  0  0  0  0  0
  -24.1490  -36.7287   23.2640 C   0  0  0  0  0  0
  -25.9666  -30.7747   21.3698 C   0  0  0  0  0  0
  -26.0421  -29.3946   20.7202 C   0  0  0  0  0  0
  -27.2251  -28.5934   20.7109 C   0  0  0  0  0  0
  -26.0356  -26.8445   19.5261 C   0  0  0  0  0  0
  -24.8720  -27.6429   19.5135 C   0  0  0  0  0  0
  -23.6423  -29.7982   20.1599 C   0  0  0  0  0  0
  -25.4115  -36.3067   24.0324 C   0  0  1  0  0  0
  -20.5889  -28.3699   23.1278 C   0  0  2  0  0  0
  -20.6795  -26.9432   22.5380 C   0  0  0  0  0  0
  -19.5765  -26.6409   21.5190 C   0  0  0  0  0  0
  -18.1953  -26.7925   22.1626 C   0  0  0  0  0  0
  -19.1541  -28.8849   23.2884 C   0  0  0  0  0  0
  -18.9464  -30.1448   23.8895 C   0  0  0  0  0  0
  -17.6466  -30.6572   24.0563 C   0  0  0  0  0  0
  -25.9054  -34.9437   23.5087 C   0  0  0  0  0  0
  -16.5359  -29.9065   23.6334 C   0  0  0  0  0  0
  -16.7280  -28.6486   23.0353 C   0  0  0  0  0  0
  -26.4497  -31.6577   25.0705 C   0  0  0  0  0  0
  -25.3726  -31.3727   26.1432 C   0  0  0  0  0  0
  -27.0348  -30.3000   24.6182 C   0  0  0  0  0  0
  -27.6045  -32.4322   25.7488 C   0  0  0  0  0  0
  -27.5575  -37.1800   24.8463 C   0  0  0  0  0  0
  -21.4185  -29.3072   22.3690 N   0  0  0  0  0  0
  -26.4287  -37.3767   23.9406 N   0  0  0  0  0  0
  -24.6929  -31.0530   22.0928 N   0  0  0  0  0  0
  -23.4186  -28.8153   23.3027 O   0  0  0  0  0  0
  -28.3555  -26.4443   20.0994 O   0  0  0  0  0  0
  -26.5631  -34.8915   22.4659 O   0  0  0  0  0  0
  -23.5452  -32.1372   23.7277 O   0  0  0  0  0  0
  -28.8513  -18.3766   20.7992 C   0  0  0  0  0  0
  -29.2432  -19.5439   20.1508 C   0  0  0  0  0  0
  -27.0097  -20.7150   20.3338 C   0  0  0  0  0  0
  -28.3811  -20.9942   18.2828 C   0  0  0  0  0  0
  -28.8432  -15.8199   22.2824 C   0  0  0  0  0  0
  -31.2162  -16.3468   22.4222 C   0  0  0  0  0  0
  -28.3787  -23.7236   19.7946 C   0  0  0  0  0  0
  -28.9539  -22.3225   20.4036 C   0  0  0  0  0  0
  -28.3150  -25.0684   20.6827 C   0  0  0  0  0  0
  -28.4542  -20.8923   19.8197 C   0  0  0  0  0  0
  -30.0871  -16.0565   21.3987 C   0  0  0  0  0  0
  -30.5087  -19.2234   19.6340 N   0  0  0  0  0  0
  -30.8604  -17.9876   19.9344 N   0  0  0  0  0  0
  -29.8714  -17.3970   20.6643 N   0  0  0  0  0  0
  -31.4792  -12.6298   19.1447 H   0  0  0  0  0  0
  -30.4340  -11.4784   19.8915 H   0  0  0  0  0  0
  -29.7976  -11.7939   17.4953 H   0  0  0  0  0  0
  -29.6399  -13.5152   17.7328 H   0  0  0  0  0  0
  -27.8721  -11.3126   18.8375 H   0  0  0  0  0  0
  -27.3818  -12.6133   17.7846 H   0  0  0  0  0  0
  -27.6827  -14.2647   19.5606 H   0  0  0  0  0  0
  -28.3763  -13.4390   21.9165 H   0  0  0  0  0  0
  -28.7613  -11.9532   21.2201 H   0  0  0  0  0  0
  -25.2775   -9.5675   22.4749 H   0  0  0  0  0  0
  -23.9996   -7.4636   22.7477 H   0  0  0  0  0  0
  -21.0833   -8.8799   19.8955 H   0  0  0  0  0  0
  -22.3721  -10.9677   19.6158 H   0  0  0  0  0  0
  -21.2013   -7.6151   23.9724 H   0  0  0  0  0  0
  -21.1475   -6.0518   25.9077 H   0  0  0  0  0  0
  -22.0599   -2.7614   23.2843 H   0  0  0  0  0  0
  -22.4115  -11.9882   22.4780 H   0  0  0  0  0  0
  -21.1125  -13.1259   22.2619 H   0  0  0  0  0  0
  -24.6588  -15.8434   20.5170 H   0  0  0  0  0  0
  -26.2731  -15.6254   20.0687 H   0  0  0  0  0  0
  -26.7196  -32.5413   23.1062 H   0  0  0  0  0  0
  -25.0062  -33.9684   25.0382 H   0  0  0  0  0  0
  -22.7220  -31.2970   21.3900 H   0  0  0  0  0  0
  -23.3746  -35.9625   23.3303 H   0  0  0  0  0  0
  -24.3577  -36.8916   22.2055 H   0  0  0  0  0  0
  -23.7253  -37.6491   23.6669 H   0  0  0  0  0  0
  -26.0979  -31.5323   20.5957 H   0  0  0  0  0  0
  -26.8468  -30.8299   21.9988 H   0  0  0  0  0  0
  -28.1285  -28.9656   21.1731 H   0  0  0  0  0  0
  -26.0056  -25.8704   19.0580 H   0  0  0  0  0  0
  -23.9742  -27.2657   19.0426 H   0  0  0  0  0  0
  -23.7654  -30.5693   19.3986 H   0  0  0  0  0  0
  -22.7615  -29.2281   19.8591 H   0  0  0  0  0  0
  -25.1300  -36.1906   25.0817 H   0  0  0  0  0  0
  -20.9981  -28.3263   24.1396 H   0  0  0  0  0  0
  -20.5720  -26.2300   23.3565 H   0  0  0  0  0  0
  -21.6662  -26.7494   22.1144 H   0  0  0  0  0  0
  -19.6935  -25.6335   21.1187 H   0  0  0  0  0  0
  -19.6679  -27.3237   20.6730 H   0  0  0  0  0  0
  -17.4216  -26.6667   21.4037 H   0  0  0  0  0  0
  -18.0365  -26.0068   22.9026 H   0  0  0  0  0  0
  -19.7935  -30.7274   24.2256 H   0  0  0  0  0  0
  -17.5019  -31.6256   24.5161 H   0  0  0  0  0  0
  -15.5359  -30.2973   23.7648 H   0  0  0  0  0  0
  -15.8685  -28.0807   22.7055 H   0  0  0  0  0  0
  -24.5894  -30.7086   25.7762 H   0  0  0  0  0  0
  -24.8929  -32.2900   26.4857 H   0  0  0  0  0  0
  -25.8047  -30.8903   27.0209 H   0  0  0  0  0  0
  -26.2931  -29.6744   24.1207 H   0  0  0  0  0  0
  -27.4039  -29.7264   25.4694 H   0  0  0  0  0  0
  -27.8797  -30.4281   23.9413 H   0  0  0  0  0  0
  -27.2641  -33.3616   26.2065 H   0  0  0  0  0  0
  -28.3860  -32.6896   25.0326 H   0  0  0  0  0  0
  -28.0711  -31.8454   26.5412 H   0  0  0  0  0  0
  -28.2593  -38.0096   24.7500 H   0  0  0  0  0  0
  -28.1072  -36.2626   24.6299 H   0  0  0  0  0  0
  -27.2293  -37.1460   25.8867 H   0  0  0  0  0  0
  -20.9367  -29.8789   21.6891 H   0  0  0  0  0  0
  -26.0165  -38.2841   24.1403 H   0  0  0  0  0  0
  -27.9379  -18.1777   21.3430 H   0  0  0  0  0  0
  -26.3820  -21.5737   20.0968 H   0  0  0  0  0  0
  -26.9904  -20.5896   21.4172 H   0  0  0  0  0  0
  -26.5307  -19.8391   19.8944 H   0  0  0  0  0  0
  -27.7327  -21.8042   17.9500 H   0  0  0  0  0  0
  -27.9893  -20.0761   17.8440 H   0  0  0  0  0  0
  -29.3680  -21.1651   17.8522 H   0  0  0  0  0  0
  -28.6099  -16.6964   22.8870 H   0  0  0  0  0  0
  -29.0157  -15.0368   23.0195 H   0  0  0  0  0  0
  -27.9552  -15.6001   21.6926 H   0  0  0  0  0  0
  -31.4084  -15.4875   23.0665 H   0  0  0  0  0  0
  -32.1585  -16.5987   21.9334 H   0  0  0  0  0  0
  -30.9635  -17.1863   23.0707 H   0  0  0  0  0  0
  -27.3685  -23.5585   19.4220 H   0  0  0  0  0  0
  -28.9662  -23.9460   18.9035 H   0  0  0  0  0  0
  -30.0386  -22.3580   20.3003 H   0  0  0  0  0  0
  -28.7826  -22.3200   21.4803 H   0  0  0  0  0  0
  -29.1826  -25.0379   21.3419 H   0  0  0  0  0  0
  -27.4620  -24.9965   21.3592 H   0  0  0  0  0  0
  1 25  1  0  0  0
  1 30  2  0  0  0
  1 81  1  0  0  0
  2  3  1  0  0  0
  2 25  1  0  0  0
  2 85  1  0  0  0
  2 86  1  0  0  0
  3  4  1  0  0  0
  3 87  1  0  0  0
  3 88  1  0  0  0
  4  5  1  0  0  0
  4 89  1  0  0  0
  4 90  1  0  0  0
  5  6  1  0  0  0
  5 26  1  0  0  0
  5 91  1  0  0  0
  6 25  1  0  0  0
  6 92  1  0  0  0
  6 93  1  0  0  0
  7  8  2  0  0  0
  7 26  1  0  0  0
  7 29  1  0  0  0
  8  9  1  0  0  0
  8 22  1  0  0  0
  9 10  1  0  0  0
  9 27  2  0  0  0
 10 11  2  0  0  0
 10 15  1  0  0  0
 11 12  1  0  0  0
 11 94  1  0  0  0
 12 13  2  0  0  0
 12 95  1  0  0  0
 13 14  1  0  0  0
 13 31  1  0  0  0
 14 15  2  0  0  0
 14 96  1  0  0  0
 15 97  1  0  0  0
 16 17  2  0  0  0
 16 21  1  0  0  0
 16 31  1  0  0  0
 17 18  1  0  0  0
 17 98  1  0  0  0
 18 19  2  0  0  0
 18 99  1  0  0  0
 19 20  1  0  0  0
 19 24  1  0  0  0
 20 21  2  0  0  0
 20100  1  0  0  0
 21 23  1  0  0  0
 22 28  1  0  0  0
 22 32  2  0  0  0
 26 27  1  0  0  0
 28101  1  0  0  0
 28102  1  0  0  0
 29103  1  0  0  0
 29104  1  0  0  0
 33 34  1  0  0  0
 33 66  1  0  0  0
 33 70  2  0  0  0
 34 36  1  0  0  0
 34 59  1  0  0  0
 34105  1  0  0  0
 35 44  2  0  0  0
 35 45  1  0  0  0
 35 68  1  0  0  0
 36 56  1  0  0  0
 36106  1  0  0  0
 37 39  1  0  0  0
 37 47  1  0  0  0
 37 66  1  0  0  0
 37107  1  0  0  0
 38 43  2  0  0  0
 38 46  1  0  0  0
 38 47  1  0  0  0
 39 64  1  0  0  0
 39 67  2  0  0  0
 40 52  1  0  0  0
 40 53  2  0  0  0
 40 58  1  0  0  0
 41108  1  0  0  0
 41109  1  0  0  0
 41110  1  0  0  0
 41 48  1  0  0  0
 42 43  1  0  0  0
 42 66  1  0  0  0
 42111  1  0  0  0
 42112  1  0  0  0
 43 44  1  0  0  0
 44113  1  0  0  0
 45 46  2  0  0  0
 45114  1  0  0  0
 46115  1  0  0  0
 47116  1  0  0  0
 47117  1  0  0  0
 48 56  1  0  0  0
 48 65  1  0  0  0
 48118  1  0  0  0
 49 50  1  0  0  0
 49 53  1  0  0  0
 49 64  1  0  0  0
 49119  1  0  0  0
 50 51  1  0  0  0
 50120  1  0  0  0
 50121  1  0  0  0
 51 52  1  0  0  0
 51122  1  0  0  0
 51123  1  0  0  0
 52124  1  0  0  0
 52125  1  0  0  0
 53 54  1  0  0  0
 54 55  2  0  0  0
 54126  1  0  0  0
 55 57  1  0  0  0
 55127  1  0  0  0
 56 69  2  0  0  0
 57 58  2  0  0  0
 57128  1  0  0  0
 58129  1  0  0  0
 59 60  1  0  0  0
 59 61  1  0  0  0
 59 62  1  0  0  0
 60130  1  0  0  0
 60131  1  0  0  0
 60132  1  0  0  0
 61133  1  0  0  0
 61134  1  0  0  0
 61135  1  0  0  0
 62136  1  0  0  0
 62137  1  0  0  0
 62138  1  0  0  0
 63 65  1  0  0  0
 63139  1  0  0  0
 63140  1  0  0  0
 63141  1  0  0  0
 64142  1  0  0  0
 65143  1  0  0  0
 68 79  1  0  0  0
 71 72  2  0  0  0
 71 84  1  0  0  0
 71144  1  0  0  0
 72 80  1  0  0  0
 72 82  1  0  0  0
 73145  1  0  0  0
 73146  1  0  0  0
 73147  1  0  0  0
 73 80  1  0  0  0
 74 80  1  0  0  0
 74148  1  0  0  0
 74149  1  0  0  0
 74150  1  0  0  0
 75151  1  0  0  0
 75152  1  0  0  0
 75153  1  0  0  0
 75 81  1  0  0  0
 76 81  1  0  0  0
 76154  1  0  0  0
 76155  1  0  0  0
 76156  1  0  0  0
 77 78  1  0  0  0
 77 79  1  0  0  0
 77157  1  0  0  0
 77158  1  0  0  0
 78 80  1  0  0  0
 78159  1  0  0  0
 78160  1  0  0  0
 79161  1  0  0  0
 79162  1  0  0  0
 81 84  1  0  0  0
 82 83  2  0  0  0
 83 84  1  0  0  0
M  ISO  4   1 100  68 101  79 101  81 100
M  END
> <chiral flag>
0

> <version>
0

> <s_m_source_file>
/data/baiqing/PycharmProjects/Reinvent-master-3.2/result/LINK_invent/BTK/process_docking_weight1_custom_sum_contain_oxygen_bond_distance_aromatic_linkinvent_7_9_3/rearranged_h_0068.sdf

> <i_m_source_file_index>
85

> <r_mmod_Potential_Energy-OPLS-2005>
239.795379638672

> <r_mmod_Stretch_Energy-OPLS-2005>
136.267196655273

> <r_mmod_Bend_Energy-OPLS-2005>
215.33186340332

> <r_mmod_Torsional_Energy-OPLS-2005>
240.32373046875

> <r_mmod_Improper_Torsional_Energy-OPLS-2005>
3.9300856590271

> <r_mmod_Van_der_Waal_Energy-OPLS-2005>
131.321746826172

> <r_mmod_Electrostatic_Energy-OPLS-2005>
-353.003723144531

> <r_mmod_Solvation_Energy-OPLS-2005>
-199.672836303711

> <b_mmod_Minimization_Converged-OPLS-2005>
0

> <r_mmod_RMS_Derivative-OPLS-2005>
0.947557628154755

$$$$
92
                    3D
 Structure written by MMmdl.
170178  0  0  1  0            999 V2000
  -30.7298  -14.4490   20.5860 C   0  0  0  0  0  0
  -30.4408  -12.3280   19.3833 C   0  0  0  0  0  0
  -29.4872  -12.5062   18.1850 C   0  0  0  0  0  0
  -28.0171  -12.3327   18.6176 C   0  0  0  0  0  0
  -27.6509  -13.1826   19.8599 C   0  0  2  0  0  0
  -28.7038  -12.9865   20.9747 C   0  0  0  0  0  0
  -25.2585  -13.8134   20.5621 C   0  0  0  0  0  0
  -24.1818  -13.0461   20.9123 C   0  0  0  0  0  0
  -24.6346  -11.6904   20.8708 C   0  0  0  0  0  0
  -23.9018  -10.4307   21.0358 C   0  0  0  0  0  0
  -24.3587   -9.4242   21.9138 C   0  0  0  0  0  0
  -23.6277   -8.2282   22.0741 C   0  0  0  0  0  0
  -22.4270   -8.0301   21.3518 C   0  0  0  0  0  0
  -21.9886   -9.0277   20.4634 C   0  0  0  0  0  0
  -22.7214  -10.2157   20.3010 C   0  0  0  0  0  0
  -21.6855   -6.0760   22.5294 C   0  0  0  0  0  0
  -21.4016   -6.5649   23.8236 C   0  0  0  0  0  0
  -21.3611   -5.6782   24.9182 C   0  0  0  0  0  0
  -21.5995   -4.3044   24.7224 C   0  0  0  0  0  0
  -21.8815   -3.8163   23.4355 C   0  0  0  0  0  0
  -21.9190   -4.6992   22.3416 C   0  0  0  0  0  0
  -22.7853  -13.5293   21.1791 C   0  0  0  0  0  0
  -22.1667   -4.2188   21.0993 F   0  0  0  0  0  0
  -21.5621   -3.4499   25.7718 F   0  0  0  0  0  0
  -30.0386  -13.2889   20.4196 N   0  0  0  0  0  0
  -26.2965  -12.9224   20.3304 N   0  0  0  0  0  0
  -25.9254  -11.6419   20.5742 N   0  0  0  0  0  0
  -22.0440  -12.8282   22.0330 N   0  0  0  0  0  0
  -25.4313  -15.1873   20.4079 N   0  0  0  0  0  0
  -31.8658  -14.6369   20.1378 O   0  0  0  0  0  0
  -21.6641   -6.8902   21.4252 O   0  0  0  0  0  0
  -22.3564  -14.5609   20.6670 O   0  0  0  0  0  0
  -24.6170  -31.8665   23.2042 C   0  0  0  0  0  0
  -25.9080  -32.4787   23.8345 C   0  0  1  0  0  0
  -27.2563  -27.4247   20.0977 C   0  0  0  0  0  0
  -25.5929  -33.8587   24.2288 N   0  0  0  0  0  0
  -23.4006  -30.4903   21.5414 C   0  0  2  0  0  0
  -24.8470  -28.9370   20.1247 C   0  0  0  0  0  0
  -22.7412  -29.4687   22.4943 C   0  0  0  0  0  0
  -18.0279  -28.1417   22.8468 C   0  0  0  0  0  0
  -24.1474  -36.7303   23.2632 C   0  0  0  0  0  0
  -25.9258  -30.8331   21.3475 C   0  0  0  0  0  0
  -26.0025  -29.4565   20.7149 C   0  0  0  0  0  0
  -27.2001  -28.7098   20.6961 C   0  0  0  0  0  0
  -26.0719  -26.9184   19.5105 C   0  0  0  0  0  0
  -24.8752  -27.6642   19.5255 C   0  0  0  0  0  0
  -23.6102  -29.8079   20.1600 C   0  0  0  0  0  0
  -25.4088  -36.3096   24.0339 C   0  0  1  0  0  0
  -20.5871  -28.3703   23.1303 C   0  0  2  0  0  0
  -20.6759  -26.9436   22.5420 C   0  0  0  0  0  0
  -19.5735  -26.6437   21.5200 C   0  0  0  0  0  0
  -18.1920  -26.7970   22.1623 C   0  0  0  0  0  0
  -19.1545  -28.8867   23.2884 C   0  0  0  0  0  0
  -18.9484  -30.1460   23.8905 C   0  0  0  0  0  0
  -17.6493  -30.6607   24.0571 C   0  0  0  0  0  0
  -25.9040  -34.9455   23.5131 C   0  0  0  0  0  0
  -16.5360  -29.9141   23.6293 C   0  0  0  0  0  0
  -16.7286  -28.6556   23.0317 C   0  0  0  0  0  0
  -26.4492  -31.6549   25.0663 C   0  0  0  0  0  0
  -25.3786  -31.3680   26.1442 C   0  0  0  0  0  0
  -27.0270  -30.2982   24.5989 C   0  0  0  0  0  0
  -27.6092  -32.4214   25.7452 C   0  0  0  0  0  0
  -27.5562  -37.1797   24.8449 C   0  0  0  0  0  0
  -21.4145  -29.3080   22.3701 N   0  0  0  0  0  0
  -26.4246  -37.3794   23.9434 N   0  0  0  0  0  0
  -24.6661  -31.0807   22.0897 N   0  0  0  0  0  0
  -23.4194  -28.8213   23.2989 O   0  0  0  0  0  0
  -28.5037  -26.8217   20.0375 O   0  0  0  0  0  0
  -26.5581  -34.8925   22.4675 O   0  0  0  0  0  0
  -23.5375  -32.1386   23.7486 O   0  0  0  0  0  0
  -28.8208  -22.2425   21.2765 C   0  0  0  0  0  0
  -30.6444  -23.2353   22.4146 C   0  0  0  0  0  0
  -29.4235  -23.4326   21.7342 C   0  0  0  0  0  0
  -30.4570  -20.9722   22.2401 C   0  0  0  0  0  0
  -27.2835  -24.7252   22.0586 C   0  0  0  0  0  0
  -29.4219  -25.8333   22.5537 C   0  0  0  0  0  0
  -28.1442  -24.5291   19.0417 C   0  0  0  0  0  0
  -30.3180  -25.4979   19.6410 C   0  0  0  0  0  0
  -29.2610  -16.3212   20.2267 C   0  0  0  0  0  0
  -31.1354  -17.3067   22.5880 C   0  0  0  0  0  0
  -30.3503  -15.9678   22.4782 C   0  0  0  0  0  0
  -30.4529  -18.5832   22.0312 C   0  0  0  0  0  0
  -28.7528  -24.8319   21.5778 C   0  0  0  0  0  0
  -28.8404  -25.4107   20.1022 C   0  0  0  0  0  0
  -29.3376  -21.0211   21.5272 N   0  0  0  0  0  0
  -31.1396  -22.0131   22.6805 N   0  0  0  0  0  0
  -30.0402  -15.4680   21.1284 N   0  0  0  0  0  0
  -30.9729  -19.7756   22.6216 O   0  0  0  0  0  0
  -31.4718  -12.4748   19.0478 H   0  0  0  0  0  0
  -30.4095  -11.3128   19.7778 H   0  0  0  0  0  0
  -29.7316  -11.7781   17.4108 H   0  0  0  0  0  0
  -29.6330  -13.4968   17.7456 H   0  0  0  0  0  0
  -27.8779  -11.2760   18.8466 H   0  0  0  0  0  0
  -27.3389  -12.5526   17.7923 H   0  0  0  0  0  0
  -27.6535  -14.2130   19.5303 H   0  0  0  0  0  0
  -28.6810  -11.9520   21.3165 H   0  0  0  0  0  0
  -28.4575  -13.5948   21.8484 H   0  0  0  0  0  0
  -25.2739   -9.5766   22.4687 H   0  0  0  0  0  0
  -23.9982   -7.4706   22.7506 H   0  0  0  0  0  0
  -21.0792   -8.8838   19.8962 H   0  0  0  0  0  0
  -22.3669  -10.9709   19.6113 H   0  0  0  0  0  0
  -21.2028   -7.6159   23.9759 H   0  0  0  0  0  0
  -21.1393   -6.0494   25.9084 H   0  0  0  0  0  0
  -22.0622   -2.7631   23.2860 H   0  0  0  0  0  0
  -22.4014  -11.9944   22.4760 H   0  0  0  0  0  0
  -21.1067  -13.1370   22.2484 H   0  0  0  0  0  0
  -24.6729  -15.8518   20.5255 H   0  0  0  0  0  0
  -26.3069  -15.6324   20.1646 H   0  0  0  0  0  0
  -26.7151  -32.5501   23.1118 H   0  0  0  0  0  0
  -25.0087  -33.9686   25.0442 H   0  0  0  0  0  0
  -22.6933  -31.3095   21.3965 H   0  0  0  0  0  0
  -23.3738  -35.9634   23.3263 H   0  0  0  0  0  0
  -24.3557  -36.8941   22.2048 H   0  0  0  0  0  0
  -23.7229  -37.6512   23.6634 H   0  0  0  0  0  0
  -26.0223  -31.5898   20.5675 H   0  0  0  0  0  0
  -26.8214  -30.9053   21.9512 H   0  0  0  0  0  0
  -28.0963  -29.1241   21.1328 H   0  0  0  0  0  0
  -26.0496  -25.9725   18.9987 H   0  0  0  0  0  0
  -23.9863  -27.2603   19.0607 H   0  0  0  0  0  0
  -23.7300  -30.5715   19.3918 H   0  0  0  0  0  0
  -22.7318  -29.2327   19.8606 H   0  0  0  0  0  0
  -25.1279  -36.1930   25.0827 H   0  0  0  0  0  0
  -20.9972  -28.3298   24.1423 H   0  0  0  0  0  0
  -20.5638  -26.2347   23.3625 H   0  0  0  0  0  0
  -21.6636  -26.7462   22.1230 H   0  0  0  0  0  0
  -19.6893  -25.6365   21.1199 H   0  0  0  0  0  0
  -19.6672  -27.3257   20.6721 H   0  0  0  0  0  0
  -17.4197  -26.6704   21.4021 H   0  0  0  0  0  0
  -18.0316  -26.0152   22.9057 H   0  0  0  0  0  0
  -19.7975  -30.7261   24.2303 H   0  0  0  0  0  0
  -17.5068  -31.6267   24.5244 H   0  0  0  0  0  0
  -15.5374  -30.3070   23.7616 H   0  0  0  0  0  0
  -15.8670  -28.0886   22.7018 H   0  0  0  0  0  0
  -24.5996  -30.6950   25.7822 H   0  0  0  0  0  0
  -24.8946  -32.2859   26.4803 H   0  0  0  0  0  0
  -25.8230  -30.8956   27.0224 H   0  0  0  0  0  0
  -26.2762  -29.6790   24.1068 H   0  0  0  0  0  0
  -27.4075  -29.7161   25.4397 H   0  0  0  0  0  0
  -27.8594  -30.4267   23.9061 H   0  0  0  0  0  0
  -27.2761  -33.3584   26.1912 H   0  0  0  0  0  0
  -28.4011  -32.6620   25.0347 H   0  0  0  0  0  0
  -28.0598  -31.8361   26.5480 H   0  0  0  0  0  0
  -28.2577  -38.0097   24.7529 H   0  0  0  0  0  0
  -28.1073  -36.2655   24.6228 H   0  0  0  0  0  0
  -27.2290  -37.1377   25.8847 H   0  0  0  0  0  0
  -20.9319  -29.8872   21.6956 H   0  0  0  0  0  0
  -26.0147  -38.2862   24.1501 H   0  0  0  0  0  0
  -27.8898  -22.2516   20.7281 H   0  0  0  0  0  0
  -31.2312  -24.0417   22.8241 H   0  0  0  0  0  0
  -27.2281  -24.3516   23.0835 H   0  0  0  0  0  0
  -26.6706  -24.0578   21.4515 H   0  0  0  0  0  0
  -26.7889  -25.6961   22.0631 H   0  0  0  0  0  0
  -29.3902  -25.4691   23.5817 H   0  0  0  0  0  0
  -28.9212  -26.8015   22.5405 H   0  0  0  0  0  0
  -30.4706  -26.0178   22.3208 H   0  0  0  0  0  0
  -27.1329  -24.2415   19.3115 H   0  0  0  0  0  0
  -28.6849  -23.5947   18.8951 H   0  0  0  0  0  0
  -28.1149  -25.0222   18.0699 H   0  0  0  0  0  0
  -30.8347  -24.5397   19.6950 H   0  0  0  0  0  0
  -30.8975  -26.2167   20.2211 H   0  0  0  0  0  0
  -30.3889  -25.8293   18.6034 H   0  0  0  0  0  0
  -28.3678  -16.7138   20.7131 H   0  0  0  0  0  0
  -28.9578  -15.7811   19.3363 H   0  0  0  0  0  0
  -29.8464  -17.1461   19.8307 H   0  0  0  0  0  0
  -32.1273  -17.1972   22.1483 H   0  0  0  0  0  0
  -31.3084  -17.4575   23.6547 H   0  0  0  0  0  0
  -29.4266  -16.0101   23.0542 H   0  0  0  0  0  0
  -30.9517  -15.2064   22.9820 H   0  0  0  0  0  0
  -29.3711  -18.5150   22.1635 H   0  0  0  0  0  0
  -30.6648  -18.6696   20.9682 H   0  0  0  0  0  0
  1 25  1  0  0  0
  1 30  2  0  0  0
  1 87  1  0  0  0
  2  3  1  0  0  0
  2 25  1  0  0  0
  2 89  1  0  0  0
  2 90  1  0  0  0
  3  4  1  0  0  0
  3 91  1  0  0  0
  3 92  1  0  0  0
  4  5  1  0  0  0
  4 93  1  0  0  0
  4 94  1  0  0  0
  5  6  1  0  0  0
  5 26  1  0  0  0
  5 95  1  0  0  0
  6 25  1  0  0  0
  6 96  1  0  0  0
  6 97  1  0  0  0
  7  8  2  0  0  0
  7 26  1  0  0  0
  7 29  1  0  0  0
  8  9  1  0  0  0
  8 22  1  0  0  0
  9 10  1  0  0  0
  9 27  2  0  0  0
 10 11  2  0  0  0
 10 15  1  0  0  0
 11 12  1  0  0  0
 11 98  1  0  0  0
 12 13  2  0  0  0
 12 99  1  0  0  0
 13 14  1  0  0  0
 13 31  1  0  0  0
 14 15  2  0  0  0
 14100  1  0  0  0
 15101  1  0  0  0
 16 17  2  0  0  0
 16 21  1  0  0  0
 16 31  1  0  0  0
 17 18  1  0  0  0
 17102  1  0  0  0
 18 19  2  0  0  0
 18103  1  0  0  0
 19 20  1  0  0  0
 19 24  1  0  0  0
 20 21  2  0  0  0
 20104  1  0  0  0
 21 23  1  0  0  0
 22 28  1  0  0  0
 22 32  2  0  0  0
 26 27  1  0  0  0
 28105  1  0  0  0
 28106  1  0  0  0
 29107  1  0  0  0
 29108  1  0  0  0
 33 34  1  0  0  0
 33 66  1  0  0  0
 33 70  2  0  0  0
 34 36  1  0  0  0
 34 59  1  0  0  0
 34109  1  0  0  0
 35 44  2  0  0  0
 35 45  1  0  0  0
 35 68  1  0  0  0
 36 56  1  0  0  0
 36110  1  0  0  0
 37 39  1  0  0  0
 37 47  1  0  0  0
 37 66  1  0  0  0
 37111  1  0  0  0
 38 43  2  0  0  0
 38 46  1  0  0  0
 38 47  1  0  0  0
 39 64  1  0  0  0
 39 67  2  0  0  0
 40 52  1  0  0  0
 40 53  2  0  0  0
 40 58  1  0  0  0
 41112  1  0  0  0
 41113  1  0  0  0
 41114  1  0  0  0
 41 48  1  0  0  0
 42 43  1  0  0  0
 42 66  1  0  0  0
 42115  1  0  0  0
 42116  1  0  0  0
 43 44  1  0  0  0
 44117  1  0  0  0
 45 46  2  0  0  0
 45118  1  0  0  0
 46119  1  0  0  0
 47120  1  0  0  0
 47121  1  0  0  0
 48 56  1  0  0  0
 48 65  1  0  0  0
 48122  1  0  0  0
 49 50  1  0  0  0
 49 53  1  0  0  0
 49 64  1  0  0  0
 49123  1  0  0  0
 50 51  1  0  0  0
 50124  1  0  0  0
 50125  1  0  0  0
 51 52  1  0  0  0
 51126  1  0  0  0
 51127  1  0  0  0
 52128  1  0  0  0
 52129  1  0  0  0
 53 54  1  0  0  0
 54 55  2  0  0  0
 54130  1  0  0  0
 55 57  1  0  0  0
 55131  1  0  0  0
 56 69  2  0  0  0
 57 58  2  0  0  0
 57132  1  0  0  0
 58133  1  0  0  0
 59 60  1  0  0  0
 59 61  1  0  0  0
 59 62  1  0  0  0
 60134  1  0  0  0
 60135  1  0  0  0
 60136  1  0  0  0
 61137  1  0  0  0
 61138  1  0  0  0
 61139  1  0  0  0
 62140  1  0  0  0
 62141  1  0  0  0
 62142  1  0  0  0
 63 65  1  0  0  0
 63143  1  0  0  0
 63144  1  0  0  0
 63145  1  0  0  0
 64146  1  0  0  0
 65147  1  0  0  0
 68 84  1  0  0  0
 71 73  2  0  0  0
 71 85  1  0  0  0
 71148  1  0  0  0
 72 73  1  0  0  0
 72 86  2  0  0  0
 72149  1  0  0  0
 73 83  1  0  0  0
 74 85  2  0  0  0
 74 86  1  0  0  0
 74 88  1  0  0  0
 75150  1  0  0  0
 75151  1  0  0  0
 75152  1  0  0  0
 75 83  1  0  0  0
 76 83  1  0  0  0
 76153  1  0  0  0
 76154  1  0  0  0
 76155  1  0  0  0
 77156  1  0  0  0
 77157  1  0  0  0
 77158  1  0  0  0
 77 84  1  0  0  0
 78 84  1  0  0  0
 78159  1  0  0  0
 78160  1  0  0  0
 78161  1  0  0  0
 79 87  1  0  0  0
 79162  1  0  0  0
 79163  1  0  0  0
 79164  1  0  0  0
 80 81  1  0  0  0
 80 82  1  0  0  0
 80165  1  0  0  0
 80166  1  0  0  0
 81 87  1  0  0  0
 81167  1  0  0  0
 81168  1  0  0  0
 82 88  1  0  0  0
 82169  1  0  0  0
 82170  1  0  0  0
 83 84  1  0  0  0
M  ISO  4   1 100  68 101  84 101  87 100
M  END
> <chiral flag>
0

> <version>
0

> <s_m_source_file>
/data/baiqing/PycharmProjects/Reinvent-master-3.2/result/LINK_invent/BTK/process_docking_weight1_custom_sum_contain_oxygen_bond_distance_aromatic_linkinvent_7_9_3/rearranged_h_0068.sdf

> <i_m_source_file_index>
86

> <r_mmod_Potential_Energy-OPLS-2005>
-265.874176025391

> <r_mmod_Stretch_Energy-OPLS-2005>
47.0557861328125

> <r_mmod_Bend_Energy-OPLS-2005>
168.131927490234

> <r_mmod_Torsional_Energy-OPLS-2005>
321.408874511719

> <r_mmod_Improper_Torsional_Energy-OPLS-2005>
4.71117877960205

> <r_mmod_Van_der_Waal_Energy-OPLS-2005>
185.015167236328

> <r_mmod_Electrostatic_Energy-OPLS-2005>
-805.128295898438

> <r_mmod_Solvation_Energy-OPLS-2005>
-201.6357421875

> <b_mmod_Minimization_Converged-OPLS-2005>
0

> <r_mmod_RMS_Derivative-OPLS-2005>
6.31149291992188

$$$$
93
                    3D
 Structure written by MMmdl.
188196  0  0  1  0            999 V2000
  -30.8502  -14.3579   20.6748 C   0  0  0  0  0  0
  -30.3664  -12.2899   19.3935 C   0  0  0  0  0  0
  -29.4515  -12.5908   18.1933 C   0  0  0  0  0  0
  -27.9765  -12.4502   18.6020 C   0  0  0  0  0  0
  -27.6541  -13.2328   19.8978 C   0  0  2  0  0  0
  -28.7036  -12.9978   21.0039 C   0  0  0  0  0  0
  -25.2491  -13.8138   20.5787 C   0  0  0  0  0  0
  -24.1797  -13.0368   20.9265 C   0  0  0  0  0  0
  -24.6419  -11.6854   20.8815 C   0  0  0  0  0  0
  -23.9085  -10.4235   21.0455 C   0  0  0  0  0  0
  -24.3593   -9.4129   21.9239 C   0  0  0  0  0  0
  -23.6280   -8.2146   22.0775 C   0  0  0  0  0  0
  -22.4259   -8.0214   21.3563 C   0  0  0  0  0  0
  -21.9941   -9.0210   20.4662 C   0  0  0  0  0  0
  -22.7246  -10.2087   20.3109 C   0  0  0  0  0  0
  -21.6864   -6.0695   22.5305 C   0  0  0  0  0  0
  -21.3990   -6.5650   23.8200 C   0  0  0  0  0  0
  -21.3644   -5.6814   24.9170 C   0  0  0  0  0  0
  -21.6036   -4.3085   24.7235 C   0  0  0  0  0  0
  -21.8801   -3.8136   23.4381 C   0  0  0  0  0  0
  -21.9198   -4.6939   22.3420 C   0  0  0  0  0  0
  -22.7792  -13.5096   21.1972 C   0  0  0  0  0  0
  -22.1718   -4.2134   21.0997 F   0  0  0  0  0  0
  -21.5599   -3.4553   25.7737 F   0  0  0  0  0  0
  -30.0484  -13.2672   20.4519 N   0  0  0  0  0  0
  -26.2997  -12.9408   20.3570 N   0  0  0  0  0  0
  -25.9375  -11.6515   20.5877 N   0  0  0  0  0  0
  -22.0469  -12.7999   22.0477 N   0  0  0  0  0  0
  -25.4183  -15.1864   20.4141 N   0  0  0  0  0  0
  -31.8305  -14.5506   19.9425 O   0  0  0  0  0  0
  -21.6653   -6.8822   21.4233 O   0  0  0  0  0  0
  -22.3488  -14.5463   20.6941 O   0  0  0  0  0  0
  -24.6079  -31.8717   23.2102 C   0  0  0  0  0  0
  -25.8984  -32.4836   23.8405 C   0  0  1  0  0  0
  -27.2835  -27.5100   20.0824 C   0  0  0  0  0  0
  -25.5882  -33.8637   24.2356 N   0  0  0  0  0  0
  -23.3945  -30.4912   21.5480 C   0  0  2  0  0  0
  -24.8492  -28.9546   20.1196 C   0  0  0  0  0  0
  -22.7363  -29.4690   22.5000 C   0  0  0  0  0  0
  -18.0268  -28.1369   22.8492 C   0  0  0  0  0  0
  -24.1483  -36.7335   23.2635 C   0  0  0  0  0  0
  -25.9125  -30.8587   21.3511 C   0  0  0  0  0  0
  -25.9984  -29.4939   20.7088 C   0  0  0  0  0  0
  -27.2100  -28.7796   20.6990 C   0  0  0  0  0  0
  -26.1121  -26.9646   19.5151 C   0  0  0  0  0  0
  -24.8959  -27.6782   19.5283 C   0  0  0  0  0  0
  -23.6012  -29.8082   20.1675 C   0  0  0  0  0  0
  -25.4096  -36.3135   24.0351 C   0  0  1  0  0  0
  -20.5853  -28.3663   23.1323 C   0  0  2  0  0  0
  -20.6761  -26.9407   22.5413 C   0  0  0  0  0  0
  -19.5746  -26.6390   21.5199 C   0  0  0  0  0  0
  -18.1925  -26.7922   22.1607 C   0  0  0  0  0  0
  -19.1515  -28.8827   23.2909 C   0  0  0  0  0  0
  -18.9452  -30.1434   23.8920 C   0  0  0  0  0  0
  -17.6460  -30.6579   24.0577 C   0  0  0  0  0  0
  -25.9024  -34.9491   23.5152 C   0  0  0  0  0  0
  -16.5351  -29.9090   23.6319 C   0  0  0  0  0  0
  -16.7264  -28.6505   23.0341 C   0  0  0  0  0  0
  -26.4433  -31.6583   25.0704 C   0  0  0  0  0  0
  -25.3739  -31.3688   26.1487 C   0  0  0  0  0  0
  -27.0258  -30.3050   24.6026 C   0  0  0  0  0  0
  -27.6034  -32.4280   25.7469 C   0  0  0  0  0  0
  -27.5583  -37.1826   24.8464 C   0  0  0  0  0  0
  -21.4103  -29.3041   22.3728 N   0  0  0  0  0  0
  -26.4289  -37.3810   23.9411 N   0  0  0  0  0  0
  -24.6562  -31.0878   22.0960 N   0  0  0  0  0  0
  -23.4149  -28.8253   23.3044 O   0  0  0  0  0  0
  -28.4285  -26.7463   20.0158 O   0  0  0  0  0  0
  -26.5574  -34.8933   22.4704 O   0  0  0  0  0  0
  -23.5288  -32.1430   23.7533 O   0  0  0  0  0  0
  -28.3908  -17.7873   20.2918 C   0  0  0  0  0  0
  -27.8964  -18.5103   21.3847 C   0  0  0  0  0  0
  -28.2357  -18.0143   22.6525 C   0  0  0  0  0  0
  -29.4473  -16.2937   21.6857 C   0  0  0  0  0  0
  -27.7175  -18.6314   23.9353 C   0  0  0  0  0  0
  -32.0057  -14.2569   23.9088 C   0  0  0  0  0  0
  -30.5983  -24.5749   24.1707 C   0  0  0  0  0  0
  -31.5332  -22.2276   22.1670 C   0  0  0  0  0  0
  -31.8736  -16.3508   21.9022 C   0  0  0  0  0  0
  -28.1425  -23.9615   21.5621 C   0  0  0  0  0  0
  -26.9274  -19.6640   21.1738 C   0  0  0  0  0  0
  -30.6476  -14.5257   23.2218 C   0  0  0  0  0  0
  -27.3160  -21.0587   21.7219 C   0  0  0  0  0  0
  -30.7115  -26.3213   20.5832 C   0  0  0  0  0  0
  -30.5282  -26.0472   22.0990 C   0  0  0  0  0  0
  -28.7718  -21.5566   21.4894 C   0  0  0  0  0  0
  -29.7174  -27.3721   20.0650 C   0  0  0  0  0  0
  -30.9415  -24.6545   22.6658 C   0  0  2  0  0  0
  -30.5197  -23.3575   21.8733 C   0  0  2  0  0  0
  -30.6693  -15.3568   21.8750 C   0  0  1  0  0  0
  -29.1483  -16.6901   20.4459 N   0  0  0  0  0  0
  -29.0315  -16.9426   22.7784 N   0  0  0  0  0  0
  -29.0836  -22.9207   22.0507 N   0  3  1  0  0  0
  -31.4183  -12.2910   19.0990 H   0  0  0  0  0  0
  -30.1707  -11.2791   19.7542 H   0  0  0  0  0  0
  -29.6608  -11.9365   17.3471 H   0  0  0  0  0  0
  -29.6344  -13.6113   17.8535 H   0  0  0  0  0  0
  -27.7365  -11.3931   18.7220 H   0  0  0  0  0  0
  -27.3306  -12.8208   17.8050 H   0  0  0  0  0  0
  -27.7042  -14.2908   19.6529 H   0  0  0  0  0  0
  -28.6538  -11.9641   21.3507 H   0  0  0  0  0  0
  -28.4468  -13.6245   21.8549 H   0  0  0  0  0  0
  -25.2718   -9.5578   22.4834 H   0  0  0  0  0  0
  -24.0028   -7.4459   22.7441 H   0  0  0  0  0  0
  -21.0925   -8.8618   19.8917 H   0  0  0  0  0  0
  -22.3662  -10.9598   19.6218 H   0  0  0  0  0  0
  -21.1971   -7.6157   23.9671 H   0  0  0  0  0  0
  -21.1536   -6.0608   25.9069 H   0  0  0  0  0  0
  -22.0597   -2.7622   23.2894 H   0  0  0  0  0  0
  -22.4068  -11.9547   22.4724 H   0  0  0  0  0  0
  -21.1048  -13.0923   22.2687 H   0  0  0  0  0  0
  -24.6851  -15.8654   20.5937 H   0  0  0  0  0  0
  -26.2515  -15.5965   20.0165 H   0  0  0  0  0  0
  -26.7082  -32.5595   23.1207 H   0  0  0  0  0  0
  -25.0078  -33.9801   25.0530 H   0  0  0  0  0  0
  -22.6822  -31.3063   21.4017 H   0  0  0  0  0  0
  -23.3734  -35.9682   23.3312 H   0  0  0  0  0  0
  -24.3589  -36.8918   22.2051 H   0  0  0  0  0  0
  -23.7239  -37.6553   23.6618 H   0  0  0  0  0  0
  -26.0086  -31.6182   20.5734 H   0  0  0  0  0  0
  -26.8046  -30.9253   21.9625 H   0  0  0  0  0  0
  -28.0637  -29.2292   21.1794 H   0  0  0  0  0  0
  -26.1506  -25.9899   19.0504 H   0  0  0  0  0  0
  -24.0129  -27.2411   19.0817 H   0  0  0  0  0  0
  -23.6987  -30.5738   19.3977 H   0  0  0  0  0  0
  -22.7311  -29.2156   19.8804 H   0  0  0  0  0  0
  -25.1262  -36.2022   25.0848 H   0  0  0  0  0  0
  -20.9958  -28.3242   24.1435 H   0  0  0  0  0  0
  -20.5655  -26.2288   23.3601 H   0  0  0  0  0  0
  -21.6645  -26.7455   22.1222 H   0  0  0  0  0  0
  -19.6924  -25.6307   21.1219 H   0  0  0  0  0  0
  -19.6684  -27.3213   20.6744 H   0  0  0  0  0  0
  -17.4200  -26.6675   21.4004 H   0  0  0  0  0  0
  -18.0328  -26.0046   22.8988 H   0  0  0  0  0  0
  -19.7938  -30.7239   24.2299 H   0  0  0  0  0  0
  -17.5026  -31.6263   24.5180 H   0  0  0  0  0  0
  -15.5357  -30.3013   23.7622 H   0  0  0  0  0  0
  -15.8661  -28.0848   22.7025 H   0  0  0  0  0  0
  -24.5893  -30.7038   25.7857 H   0  0  0  0  0  0
  -24.8938  -32.2838   26.4985 H   0  0  0  0  0  0
  -25.8123  -30.8847   27.0222 H   0  0  0  0  0  0
  -26.2797  -29.6847   24.1059 H   0  0  0  0  0  0
  -27.4034  -29.7251   25.4450 H   0  0  0  0  0  0
  -27.8614  -30.4404   23.9160 H   0  0  0  0  0  0
  -27.2684  -33.3580   26.2092 H   0  0  0  0  0  0
  -28.3836  -32.6840   25.0279 H   0  0  0  0  0  0
  -28.0710  -31.8362   26.5353 H   0  0  0  0  0  0
  -28.2615  -38.0116   24.7507 H   0  0  0  0  0  0
  -28.1071  -36.2647   24.6284 H   0  0  0  0  0  0
  -27.2315  -37.1481   25.8874 H   0  0  0  0  0  0
  -20.9248  -29.8769   21.6962 H   0  0  0  0  0  0
  -26.0194  -38.2902   24.1383 H   0  0  0  0  0  0
  -28.1696  -18.0772   19.2762 H   0  0  0  0  0  0
  -28.2016  -19.5911   24.1247 H   0  0  0  0  0  0
  -27.8799  -17.9723   24.7882 H   0  0  0  0  0  0
  -26.6451  -18.7984   23.8614 H   0  0  0  0  0  0
  -31.8642  -13.6060   24.7718 H   0  0  0  0  0  0
  -32.4716  -15.1698   24.2863 H   0  0  0  0  0  0
  -32.7011  -13.7629   23.2285 H   0  0  0  0  0  0
  -31.1006  -25.3646   24.7305 H   0  0  0  0  0  0
  -30.9131  -23.6303   24.6165 H   0  0  0  0  0  0
  -29.5294  -24.6964   24.3541 H   0  0  0  0  0  0
  -32.5620  -22.5952   22.1965 H   0  0  0  0  0  0
  -31.5224  -21.4711   21.3824 H   0  0  0  0  0  0
  -31.3402  -21.7375   23.1208 H   0  0  0  0  0  0
  -31.8669  -16.9540   22.8070 H   0  0  0  0  0  0
  -31.8404  -17.0464   21.0594 H   0  0  0  0  0  0
  -32.8447  -15.8639   21.8537 H   0  0  0  0  0  0
  -27.1020  -23.6622   21.5356 H   0  0  0  0  0  0
  -28.4123  -24.3033   20.5647 H   0  0  0  0  0  0
  -28.1245  -24.8094   22.2342 H   0  0  0  0  0  0
  -25.9688  -19.3682   21.6128 H   0  0  0  0  0  0
  -26.7243  -19.7470   20.1044 H   0  0  0  0  0  0
  -29.9820  -14.9747   23.9595 H   0  0  0  0  0  0
  -30.2272  -13.5390   23.0626 H   0  0  0  0  0  0
  -27.1000  -21.1035   22.7853 H   0  0  0  0  0  0
  -26.5918  -21.7249   21.2597 H   0  0  0  0  0  0
  -30.5821  -25.4407   19.9597 H   0  0  0  0  0  0
  -31.7339  -26.6571   20.3988 H   0  0  0  0  0  0
  -29.5130  -26.2979   22.3939 H   0  0  0  0  0  0
  -31.1141  -26.8021   22.6281 H   0  0  0  0  0  0
  -28.9986  -21.5395   20.4248 H   0  0  0  0  0  0
  -29.4207  -20.8174   21.9557 H   0  0  0  0  0  0
  -29.9884  -27.6807   19.0542 H   0  0  0  0  0  0
  -29.7899  -28.2570   20.6934 H   0  0  0  0  0  0
  -32.0331  -24.6881   22.6263 H   0  0  0  0  0  0
  -30.6653  -23.5475   20.8121 H   0  0  0  0  0  0
  -28.9312  -22.8579   23.0463 H   0  0  0  0  0  0
  1 25  1  0  0  0
  1 30  2  0  0  0
  1 90  1  0  0  0
  2  3  1  0  0  0
  2 25  1  0  0  0
  2 94  1  0  0  0
  2 95  1  0  0  0
  3  4  1  0  0  0
  3 96  1  0  0  0
  3 97  1  0  0  0
  4  5  1  0  0  0
  4 98  1  0  0  0
  4 99  1  0  0  0
  5  6  1  0  0  0
  5 26  1  0  0  0
  5100  1  0  0  0
  6 25  1  0  0  0
  6101  1  0  0  0
  6102  1  0  0  0
  7  8  2  0  0  0
  7 26  1  0  0  0
  7 29  1  0  0  0
  8  9  1  0  0  0
  8 22  1  0  0  0
  9 10  1  0  0  0
  9 27  2  0  0  0
 10 11  2  0  0  0
 10 15  1  0  0  0
 11 12  1  0  0  0
 11103  1  0  0  0
 12 13  2  0  0  0
 12104  1  0  0  0
 13 14  1  0  0  0
 13 31  1  0  0  0
 14 15  2  0  0  0
 14105  1  0  0  0
 15106  1  0  0  0
 16 17  2  0  0  0
 16 21  1  0  0  0
 16 31  1  0  0  0
 17 18  1  0  0  0
 17107  1  0  0  0
 18 19  2  0  0  0
 18108  1  0  0  0
 19 20  1  0  0  0
 19 24  1  0  0  0
 20 21  2  0  0  0
 20109  1  0  0  0
 21 23  1  0  0  0
 22 28  1  0  0  0
 22 32  2  0  0  0
 26 27  1  0  0  0
 28110  1  0  0  0
 28111  1  0  0  0
 29112  1  0  0  0
 29113  1  0  0  0
 33 34  1  0  0  0
 33 66  1  0  0  0
 33 70  2  0  0  0
 34 36  1  0  0  0
 34 59  1  0  0  0
 34114  1  0  0  0
 35 44  2  0  0  0
 35 45  1  0  0  0
 35 68  1  0  0  0
 36 56  1  0  0  0
 36115  1  0  0  0
 37 39  1  0  0  0
 37 47  1  0  0  0
 37 66  1  0  0  0
 37116  1  0  0  0
 38 43  2  0  0  0
 38 46  1  0  0  0
 38 47  1  0  0  0
 39 64  1  0  0  0
 39 67  2  0  0  0
 40 52  1  0  0  0
 40 53  2  0  0  0
 40 58  1  0  0  0
 41117  1  0  0  0
 41118  1  0  0  0
 41119  1  0  0  0
 41 48  1  0  0  0
 42 43  1  0  0  0
 42 66  1  0  0  0
 42120  1  0  0  0
 42121  1  0  0  0
 43 44  1  0  0  0
 44122  1  0  0  0
 45 46  2  0  0  0
 45123  1  0  0  0
 46124  1  0  0  0
 47125  1  0  0  0
 47126  1  0  0  0
 48 56  1  0  0  0
 48 65  1  0  0  0
 48127  1  0  0  0
 49 50  1  0  0  0
 49 53  1  0  0  0
 49 64  1  0  0  0
 49128  1  0  0  0
 50 51  1  0  0  0
 50129  1  0  0  0
 50130  1  0  0  0
 51 52  1  0  0  0
 51131  1  0  0  0
 51132  1  0  0  0
 52133  1  0  0  0
 52134  1  0  0  0
 53 54  1  0  0  0
 54 55  2  0  0  0
 54135  1  0  0  0
 55 57  1  0  0  0
 55136  1  0  0  0
 56 69  2  0  0  0
 57 58  2  0  0  0
 57137  1  0  0  0
 58138  1  0  0  0
 59 60  1  0  0  0
 59 61  1  0  0  0
 59 62  1  0  0  0
 60139  1  0  0  0
 60140  1  0  0  0
 60141  1  0  0  0
 61142  1  0  0  0
 61143  1  0  0  0
 61144  1  0  0  0
 62145  1  0  0  0
 62146  1  0  0  0
 62147  1  0  0  0
 63 65  1  0  0  0
 63148  1  0  0  0
 63149  1  0  0  0
 63150  1  0  0  0
 64151  1  0  0  0
 65152  1  0  0  0
 68 87  1  0  0  0
 71 72  2  0  0  0
 71 91  1  0  0  0
 71153  1  0  0  0
 72 73  1  0  0  0
 72 81  1  0  0  0
 73 75  1  0  0  0
 73 92  2  0  0  0
 74 90  1  0  0  0
 74 91  2  0  0  0
 74 92  1  0  0  0
 75154  1  0  0  0
 75155  1  0  0  0
 75156  1  0  0  0
 76 82  1  0  0  0
 76157  1  0  0  0
 76158  1  0  0  0
 76159  1  0  0  0
 77160  1  0  0  0
 77161  1  0  0  0
 77162  1  0  0  0
 77 88  1  0  0  0
 78163  1  0  0  0
 78164  1  0  0  0
 78165  1  0  0  0
 78 89  1  0  0  0
 79166  1  0  0  0
 79167  1  0  0  0
 79168  1  0  0  0
 79 90  1  0  0  0
 80169  1  0  0  0
 80170  1  0  0  0
 80171  1  0  0  0
 80 93  1  0  0  0
 81 83  1  0  0  0
 81172  1  0  0  0
 81173  1  0  0  0
 82 90  1  0  0  0
 82174  1  0  0  0
 82175  1  0  0  0
 83 86  1  0  0  0
 83176  1  0  0  0
 83177  1  0  0  0
 84 85  1  0  0  0
 84 87  1  0  0  0
 84178  1  0  0  0
 84179  1  0  0  0
 85 88  1  0  0  0
 85180  1  0  0  0
 85181  1  0  0  0
 86 93  1  0  0  0
 86182  1  0  0  0
 86183  1  0  0  0
 87184  1  0  0  0
 87185  1  0  0  0
 88 89  1  0  0  0
 88186  1  0  0  0
 89 93  1  0  0  0
 89187  1  0  0  0
 93188  1  0  0  0
M  CHG  1  93   1
M  ISO  4   1 100  68 101  87 101  90 100
M  END
> <chiral flag>
0

> <version>
0

> <s_m_source_file>
/data/baiqing/PycharmProjects/Reinvent-master-3.2/result/LINK_invent/BTK/process_docking_weight1_custom_sum_contain_oxygen_bond_distance_aromatic_linkinvent_7_9_3/rearranged_h_0068.sdf

> <i_m_source_file_index>
87

> <r_mmod_Potential_Energy-OPLS-2005>
-224.020462036133

> <r_mmod_Stretch_Energy-OPLS-2005>
54.0327758789062

> <r_mmod_Bend_Energy-OPLS-2005>
164.873901367188

> <r_mmod_Torsional_Energy-OPLS-2005>
227.728286743164

> <r_mmod_Improper_Torsional_Energy-OPLS-2005>
6.49957275390625

> <r_mmod_Van_der_Waal_Energy-OPLS-2005>
186.924667358398

> <r_mmod_Electrostatic_Energy-OPLS-2005>
-489.144134521484

> <r_mmod_Solvation_Energy-OPLS-2005>
-386.234283447266

> <b_mmod_Minimization_Converged-OPLS-2005>
0

> <r_mmod_RMS_Derivative-OPLS-2005>
7.23484039306641

$$$$
94
                    3D
 Structure written by MMmdl.
165173  0  0  1  0            999 V2000
  -30.7913  -14.3578   20.7008 C   0  0  0  0  0  0
  -30.4168  -12.2957   19.3926 C   0  0  0  0  0  0
  -29.4812  -12.5263   18.1920 C   0  0  0  0  0  0
  -28.0080  -12.3777   18.6133 C   0  0  0  0  0  0
  -27.6683  -13.2025   19.8814 C   0  0  2  0  0  0
  -28.7101  -12.9476   20.9943 C   0  0  0  0  0  0
  -25.2613  -13.8156   20.5679 C   0  0  0  0  0  0
  -24.1859  -13.0451   20.9181 C   0  0  0  0  0  0
  -24.6398  -11.6907   20.8741 C   0  0  0  0  0  0
  -23.9053  -10.4298   21.0402 C   0  0  0  0  0  0
  -24.3602   -9.4211   21.9183 C   0  0  0  0  0  0
  -23.6284   -8.2250   22.0753 C   0  0  0  0  0  0
  -22.4266   -8.0284   21.3545 C   0  0  0  0  0  0
  -21.9900   -9.0253   20.4644 C   0  0  0  0  0  0
  -22.7221  -10.2137   20.3054 C   0  0  0  0  0  0
  -21.6850   -6.0733   22.5277 C   0  0  0  0  0  0
  -21.4014   -6.5637   23.8209 C   0  0  0  0  0  0
  -21.3661   -5.6789   24.9174 C   0  0  0  0  0  0
  -21.6043   -4.3052   24.7222 C   0  0  0  0  0  0
  -21.8822   -3.8144   23.4346 C   0  0  0  0  0  0
  -21.9193   -4.6961   22.3400 C   0  0  0  0  0  0
  -22.7876  -13.5246   21.1833 C   0  0  0  0  0  0
  -22.1661   -4.2145   21.0977 F   0  0  0  0  0  0
  -21.5629   -3.4537   25.7737 F   0  0  0  0  0  0
  -30.0534  -13.2384   20.4638 N   0  0  0  0  0  0
  -26.3062  -12.9331   20.3404 N   0  0  0  0  0  0
  -25.9330  -11.6490   20.5783 N   0  0  0  0  0  0
  -22.0500  -12.8252   22.0388 N   0  0  0  0  0  0
  -25.4348  -15.1877   20.4046 N   0  0  0  0  0  0
  -31.7796  -14.6563   20.0187 O   0  0  0  0  0  0
  -21.6641   -6.8875   21.4237 O   0  0  0  0  0  0
  -22.3559  -14.5546   20.6661 O   0  0  0  0  0  0
  -24.6116  -31.8710   23.2137 C   0  0  0  0  0  0
  -25.9041  -32.4815   23.8415 C   0  0  1  0  0  0
  -27.2380  -27.4676   20.0744 C   0  0  0  0  0  0
  -25.5925  -33.8617   24.2365 N   0  0  0  0  0  0
  -23.3969  -30.4952   21.5542 C   0  0  2  0  0  0
  -24.8394  -28.9604   20.1198 C   0  0  0  0  0  0
  -22.7399  -29.4679   22.5030 C   0  0  0  0  0  0
  -18.0260  -28.1362   22.8473 C   0  0  0  0  0  0
  -24.1487  -36.7314   23.2637 C   0  0  0  0  0  0
  -25.9228  -30.8409   21.3629 C   0  0  0  0  0  0
  -25.9972  -29.4767   20.7119 C   0  0  0  0  0  0
  -27.1977  -28.7373   20.6872 C   0  0  0  0  0  0
  -26.0584  -26.9513   19.4897 C   0  0  0  0  0  0
  -24.8617  -27.6933   19.5112 C   0  0  0  0  0  0
  -23.6036  -29.8287   20.1682 C   0  0  0  0  0  0
  -25.4104  -36.3110   24.0339 C   0  0  1  0  0  0
  -20.5850  -28.3664   23.1324 C   0  0  2  0  0  0
  -20.6775  -26.9406   22.5429 C   0  0  0  0  0  0
  -19.5764  -26.6383   21.5215 C   0  0  0  0  0  0
  -18.1924  -26.7909   22.1604 C   0  0  0  0  0  0
  -19.1505  -28.8826   23.2884 C   0  0  0  0  0  0
  -18.9452  -30.1430   23.8901 C   0  0  0  0  0  0
  -17.6463  -30.6570   24.0567 C   0  0  0  0  0  0
  -25.9036  -34.9474   23.5152 C   0  0  0  0  0  0
  -16.5350  -29.9080   23.6318 C   0  0  0  0  0  0
  -16.7254  -28.6491   23.0333 C   0  0  0  0  0  0
  -26.4508  -31.6539   25.0697 C   0  0  0  0  0  0
  -25.3832  -31.3609   26.1489 C   0  0  0  0  0  0
  -27.0329  -30.2996   24.5994 C   0  0  0  0  0  0
  -27.6081  -32.4264   25.7462 C   0  0  0  0  0  0
  -27.5581  -37.1810   24.8466 C   0  0  0  0  0  0
  -21.4138  -29.3035   22.3756 N   0  0  0  0  0  0
  -26.4290  -37.3788   23.9408 N   0  0  0  0  0  0
  -24.6619  -31.0842   22.1017 N   0  0  0  0  0  0
  -23.4187  -28.8235   23.3076 O   0  0  0  0  0  0
  -28.4531  -26.8239   20.0181 O   0  0  0  0  0  0
  -26.5588  -34.8938   22.4705 O   0  0  0  0  0  0
  -23.5329  -32.1471   23.7544 O   0  0  0  0  0  0
  -27.5110  -20.7989   23.2320 C   0  0  0  0  0  0
  -27.3587  -19.4877   23.5762 C   0  0  0  0  0  0
  -31.7178  -15.3248   22.7057 C   0  0  0  0  0  0
  -27.1754  -24.0609   21.8132 C   0  0  0  0  0  0
  -27.0184  -23.8018   23.3218 C   0  0  0  0  0  0
  -28.4000  -24.9366   21.5211 C   0  0  0  0  0  0
  -28.7748  -16.0830   23.2679 C   0  0  0  0  0  0
  -25.9152  -22.7860   23.6661 C   0  0  0  0  0  0
  -29.5222  -16.0515   21.9168 C   0  0  0  0  0  0
  -28.5001  -25.4026   20.0609 C   0  0  0  0  0  0
  -27.6764  -17.1542   23.3624 C   0  0  0  0  0  0
  -26.1395  -19.3411   24.2399 N   0  0  0  0  0  0
  -25.5479  -20.4908   24.3050 N   0  0  0  0  0  0
  -26.3593  -21.3995   23.7137 N   0  0  0  0  0  0
  -30.5529  -14.9977   21.8705 N   0  0  0  0  0  0
  -28.2268  -18.4712   23.3399 O   0  0  0  0  0  0
  -31.4584  -12.3955   19.0816 H   0  0  0  0  0  0
  -30.3206  -11.2721   19.7586 H   0  0  0  0  0  0
  -29.7134  -11.8197   17.3941 H   0  0  0  0  0  0
  -29.6490  -13.5219   17.7789 H   0  0  0  0  0  0
  -27.8201  -11.3193   18.7984 H   0  0  0  0  0  0
  -27.3504  -12.6632   17.7918 H   0  0  0  0  0  0
  -27.7247  -14.2546   19.6034 H   0  0  0  0  0  0
  -28.6731  -11.9049   21.3129 H   0  0  0  0  0  0
  -28.4656  -13.5249   21.8817 H   0  0  0  0  0  0
  -25.2747   -9.5701   22.4758 H   0  0  0  0  0  0
  -23.9995   -7.4646   22.7476 H   0  0  0  0  0  0
  -21.0833   -8.8765   19.8953 H   0  0  0  0  0  0
  -22.3669  -10.9675   19.6166 H   0  0  0  0  0  0
  -21.2007   -7.6145   23.9712 H   0  0  0  0  0  0
  -21.1478   -6.0519   25.9074 H   0  0  0  0  0  0
  -22.0601   -2.7606   23.2844 H   0  0  0  0  0  0
  -22.4102  -11.9922   22.4803 H   0  0  0  0  0  0
  -21.1118  -13.1292   22.2570 H   0  0  0  0  0  0
  -24.6632  -15.8398   20.4888 H   0  0  0  0  0  0
  -26.2815  -15.6178   20.0559 H   0  0  0  0  0  0
  -26.7093  -32.5562   23.1161 H   0  0  0  0  0  0
  -25.0123  -33.9767   25.0555 H   0  0  0  0  0  0
  -22.6827  -31.3102   21.4158 H   0  0  0  0  0  0
  -23.3745  -35.9655   23.3310 H   0  0  0  0  0  0
  -24.3603  -36.8915   22.2053 H   0  0  0  0  0  0
  -23.7257  -37.6526   23.6656 H   0  0  0  0  0  0
  -26.0382  -31.6034   20.5908 H   0  0  0  0  0  0
  -26.8092  -30.8902   21.9827 H   0  0  0  0  0  0
  -28.0976  -29.1409   21.1306 H   0  0  0  0  0  0
  -26.0455  -25.9995   18.9819 H   0  0  0  0  0  0
  -23.9722  -27.2895   19.0480 H   0  0  0  0  0  0
  -23.7225  -30.6061   19.4134 H   0  0  0  0  0  0
  -22.7240  -29.2565   19.8690 H   0  0  0  0  0  0
  -25.1274  -36.1986   25.0829 H   0  0  0  0  0  0
  -20.9911  -28.3243   24.1457 H   0  0  0  0  0  0
  -20.5721  -26.2272   23.3624 H   0  0  0  0  0  0
  -21.6647  -26.7498   22.1206 H   0  0  0  0  0  0
  -19.6976  -25.6313   21.1199 H   0  0  0  0  0  0
  -19.6702  -27.3231   20.6781 H   0  0  0  0  0  0
  -17.4226  -26.6663   21.3971 H   0  0  0  0  0  0
  -18.0299  -26.0037   22.8983 H   0  0  0  0  0  0
  -19.7948  -30.7211   24.2282 H   0  0  0  0  0  0
  -17.5042  -31.6247   24.5184 H   0  0  0  0  0  0
  -15.5360  -30.2999   23.7639 H   0  0  0  0  0  0
  -15.8646  -28.0827   22.7041 H   0  0  0  0  0  0
  -24.6025  -30.6897   25.7890 H   0  0  0  0  0  0
  -24.9004  -32.2737   26.4984 H   0  0  0  0  0  0
  -25.8268  -30.8808   27.0220 H   0  0  0  0  0  0
  -26.2817  -29.6716   24.1184 H   0  0  0  0  0  0
  -27.4286  -29.7242   25.4370 H   0  0  0  0  0  0
  -27.8574  -30.4311   23.8985 H   0  0  0  0  0  0
  -27.2668  -33.3547   26.2056 H   0  0  0  0  0  0
  -28.3878  -32.6841   25.0281 H   0  0  0  0  0  0
  -28.0759  -31.8390   26.5369 H   0  0  0  0  0  0
  -28.2597  -38.0103   24.7507 H   0  0  0  0  0  0
  -28.1066  -36.2644   24.6284 H   0  0  0  0  0  0
  -27.2313  -37.1440   25.8869 H   0  0  0  0  0  0
  -20.9323  -29.8757   21.6960 H   0  0  0  0  0  0
  -26.0187  -38.2868   24.1418 H   0  0  0  0  0  0
  -28.3017  -21.3258   22.7150 H   0  0  0  0  0  0
  -31.4699  -15.2583   23.7641 H   0  0  0  0  0  0
  -32.0832  -16.3325   22.5018 H   0  0  0  0  0  0
  -32.5500  -14.6366   22.5435 H   0  0  0  0  0  0
  -26.2751  -24.5473   21.4331 H   0  0  0  0  0  0
  -27.2678  -23.1216   21.2682 H   0  0  0  0  0  0
  -26.7703  -24.7495   23.8026 H   0  0  0  0  0  0
  -27.9656  -23.4948   23.7685 H   0  0  0  0  0  0
  -29.3018  -24.3783   21.7761 H   0  0  0  0  0  0
  -28.3985  -25.8016   22.1855 H   0  0  0  0  0  0
  -29.4719  -16.2325   24.0919 H   0  0  0  0  0  0
  -28.3099  -15.1145   23.4483 H   0  0  0  0  0  0
  -25.0811  -22.8663   22.9681 H   0  0  0  0  0  0
  -25.5177  -23.0302   24.6527 H   0  0  0  0  0  0
  -29.9858  -17.0196   21.7183 H   0  0  0  0  0  0
  -28.7937  -15.9112   21.1158 H   0  0  0  0  0  0
  -27.7857  -24.9032   19.4075 H   0  0  0  0  0  0
  -29.4795  -25.1224   19.6739 H   0  0  0  0  0  0
  -27.1324  -16.9845   24.2927 H   0  0  0  0  0  0
  -26.9624  -17.0421   22.5454 H   0  0  0  0  0  0
  1 25  1  0  0  0
  1 30  2  0  0  0
  1 85  1  0  0  0
  2  3  1  0  0  0
  2 25  1  0  0  0
  2 87  1  0  0  0
  2 88  1  0  0  0
  3  4  1  0  0  0
  3 89  1  0  0  0
  3 90  1  0  0  0
  4  5  1  0  0  0
  4 91  1  0  0  0
  4 92  1  0  0  0
  5  6  1  0  0  0
  5 26  1  0  0  0
  5 93  1  0  0  0
  6 25  1  0  0  0
  6 94  1  0  0  0
  6 95  1  0  0  0
  7  8  2  0  0  0
  7 26  1  0  0  0
  7 29  1  0  0  0
  8  9  1  0  0  0
  8 22  1  0  0  0
  9 10  1  0  0  0
  9 27  2  0  0  0
 10 11  2  0  0  0
 10 15  1  0  0  0
 11 12  1  0  0  0
 11 96  1  0  0  0
 12 13  2  0  0  0
 12 97  1  0  0  0
 13 14  1  0  0  0
 13 31  1  0  0  0
 14 15  2  0  0  0
 14 98  1  0  0  0
 15 99  1  0  0  0
 16 17  2  0  0  0
 16 21  1  0  0  0
 16 31  1  0  0  0
 17 18  1  0  0  0
 17100  1  0  0  0
 18 19  2  0  0  0
 18101  1  0  0  0
 19 20  1  0  0  0
 19 24  1  0  0  0
 20 21  2  0  0  0
 20102  1  0  0  0
 21 23  1  0  0  0
 22 28  1  0  0  0
 22 32  2  0  0  0
 26 27  1  0  0  0
 28103  1  0  0  0
 28104  1  0  0  0
 29105  1  0  0  0
 29106  1  0  0  0
 33 34  1  0  0  0
 33 66  1  0  0  0
 33 70  2  0  0  0
 34 36  1  0  0  0
 34 59  1  0  0  0
 34107  1  0  0  0
 35 44  2  0  0  0
 35 45  1  0  0  0
 35 68  1  0  0  0
 36 56  1  0  0  0
 36108  1  0  0  0
 37 39  1  0  0  0
 37 47  1  0  0  0
 37 66  1  0  0  0
 37109  1  0  0  0
 38 43  2  0  0  0
 38 46  1  0  0  0
 38 47  1  0  0  0
 39 64  1  0  0  0
 39 67  2  0  0  0
 40 52  1  0  0  0
 40 53  2  0  0  0
 40 58  1  0  0  0
 41110  1  0  0  0
 41111  1  0  0  0
 41112  1  0  0  0
 41 48  1  0  0  0
 42 43  1  0  0  0
 42 66  1  0  0  0
 42113  1  0  0  0
 42114  1  0  0  0
 43 44  1  0  0  0
 44115  1  0  0  0
 45 46  2  0  0  0
 45116  1  0  0  0
 46117  1  0  0  0
 47118  1  0  0  0
 47119  1  0  0  0
 48 56  1  0  0  0
 48 65  1  0  0  0
 48120  1  0  0  0
 49 50  1  0  0  0
 49 53  1  0  0  0
 49 64  1  0  0  0
 49121  1  0  0  0
 50 51  1  0  0  0
 50122  1  0  0  0
 50123  1  0  0  0
 51 52  1  0  0  0
 51124  1  0  0  0
 51125  1  0  0  0
 52126  1  0  0  0
 52127  1  0  0  0
 53 54  1  0  0  0
 54 55  2  0  0  0
 54128  1  0  0  0
 55 57  1  0  0  0
 55129  1  0  0  0
 56 69  2  0  0  0
 57 58  2  0  0  0
 57130  1  0  0  0
 58131  1  0  0  0
 59 60  1  0  0  0
 59 61  1  0  0  0
 59 62  1  0  0  0
 60132  1  0  0  0
 60133  1  0  0  0
 60134  1  0  0  0
 61135  1  0  0  0
 61136  1  0  0  0
 61137  1  0  0  0
 62138  1  0  0  0
 62139  1  0  0  0
 62140  1  0  0  0
 63 65  1  0  0  0
 63141  1  0  0  0
 63142  1  0  0  0
 63143  1  0  0  0
 64144  1  0  0  0
 65145  1  0  0  0
 68 80  1  0  0  0
 71 72  2  0  0  0
 71 84  1  0  0  0
 71146  1  0  0  0
 72 82  1  0  0  0
 72 86  1  0  0  0
 73 85  1  0  0  0
 73147  1  0  0  0
 73148  1  0  0  0
 73149  1  0  0  0
 74 75  1  0  0  0
 74 76  1  0  0  0
 74150  1  0  0  0
 74151  1  0  0  0
 75 78  1  0  0  0
 75152  1  0  0  0
 75153  1  0  0  0
 76 80  1  0  0  0
 76154  1  0  0  0
 76155  1  0  0  0
 77 79  1  0  0  0
 77 81  1  0  0  0
 77156  1  0  0  0
 77157  1  0  0  0
 78 84  1  0  0  0
 78158  1  0  0  0
 78159  1  0  0  0
 79 85  1  0  0  0
 79160  1  0  0  0
 79161  1  0  0  0
 80162  1  0  0  0
 80163  1  0  0  0
 81 86  1  0  0  0
 81164  1  0  0  0
 81165  1  0  0  0
 82 83  2  0  0  0
 83 84  1  0  0  0
M  ISO  4   1 100  68 101  80 101  85 100
M  END
> <chiral flag>
0

> <version>
0

> <s_m_source_file>
/data/baiqing/PycharmProjects/Reinvent-master-3.2/result/LINK_invent/BTK/process_docking_weight1_custom_sum_contain_oxygen_bond_distance_aromatic_linkinvent_7_9_3/rearranged_h_0068.sdf

> <i_m_source_file_index>
88

> <r_mmod_Potential_Energy-OPLS-2005>
58.5125732421875

> <r_mmod_Stretch_Energy-OPLS-2005>
33.4966354370117

> <r_mmod_Bend_Energy-OPLS-2005>
106.552665710449

> <r_mmod_Torsional_Energy-OPLS-2005>
302.2080078125

> <r_mmod_Improper_Torsional_Energy-OPLS-2005>
9.05547142028809

> <r_mmod_Van_der_Waal_Energy-OPLS-2005>
134.168426513672

> <r_mmod_Electrostatic_Energy-OPLS-2005>
-329.665405273438

> <r_mmod_Solvation_Energy-OPLS-2005>
-205.376907348633

> <b_mmod_Minimization_Converged-OPLS-2005>
0

> <r_mmod_RMS_Derivative-OPLS-2005>
2.12198567390442

$$$$
