0
                    3D
 Structure written by MMmdl.
165173  0  0  1  0            999 V2000
  -31.6421  -15.4324   20.3593 C   0  0  0  0  0  0
  -29.5315  -13.7476   18.5566 C   0  0  0  0  0  0
  -29.3238  -12.2647   18.2934 C   0  0  0  0  0  0
  -27.9330  -11.9961   18.8322 C   0  0  0  0  0  0
  -27.4664  -13.1974   19.7019 C   0  0  2  0  0  0
  -28.7372  -13.6938   20.5126 C   0  0  0  0  0  0
  -25.2174  -13.8094   20.6449 C   0  0  0  0  0  0
  -24.1416  -13.0400   20.9722 C   0  0  0  0  0  0
  -24.5967  -11.6868   20.9178 C   0  0  0  0  0  0
  -23.8789  -10.4251   21.0682 C   0  0  0  0  0  0
  -24.3451   -9.4167   21.9383 C   0  0  0  0  0  0
  -23.6222   -8.2108   22.0774 C   0  0  0  0  0  0
  -22.4222   -8.0160   21.3461 C   0  0  0  0  0  0
  -21.9843   -9.0196   20.4644 C   0  0  0  0  0  0
  -22.7084  -10.2140   20.3250 C   0  0  0  0  0  0
  -21.6835   -6.0600   22.5243 C   0  0  0  0  0  0
  -21.4011   -6.5566   23.8150 C   0  0  0  0  0  0
  -21.3650   -5.6765   24.9148 C   0  0  0  0  0  0
  -21.6069   -4.3018   24.7244 C   0  0  0  0  0  0
  -21.8861   -3.8060   23.4382 C   0  0  0  0  0  0
  -21.9228   -4.6828   22.3416 C   0  0  0  0  0  0
  -22.7491  -13.5321   21.2005 C   0  0  0  0  0  0
  -22.1676   -4.1997   21.0979 F   0  0  0  0  0  0
  -21.5638   -3.4557   25.7765 F   0  0  0  0  0  0
  -30.0498  -14.5134   19.8409 N   0  0  0  0  0  0
  -26.2516  -12.9230   20.4279 N   0  0  0  0  0  0
  -25.8919  -11.6385   20.6504 N   0  0  0  0  0  0
  -22.0064  -12.8323   22.0513 N   0  0  0  0  0  0
  -25.3685  -15.1767   20.4395 N   0  0  0  0  0  0
  -32.1048  -15.7873   21.4059 O   0  0  0  0  0  0
  -21.6612   -6.8746   21.4155 O   0  0  0  0  0  0
  -22.3366  -14.5705   20.6877 O   0  0  0  0  0  0
  -24.6754  -31.8056   23.1535 C   0  0  0  0  0  0
  -25.9378  -32.4485   23.8047 C   0  0  1  0  0  0
  -27.2195  -26.7485   20.2395 C   0  0  0  0  0  0
  -25.5995  -33.8297   24.1975 N   0  0  0  0  0  0
  -23.5020  -30.4095   21.5089 C   0  0  2  0  0  0
  -24.9588  -28.7537   20.1253 C   0  0  0  0  0  0
  -22.7733  -29.4354   22.4744 C   0  0  0  0  0  0
  -18.0332  -28.1414   22.8460 C   0  0  0  0  0  0
  -24.1502  -36.7181   23.2647 C   0  0  0  0  0  0
  -26.0806  -30.5590   21.4046 C   0  0  0  0  0  0
  -26.1496  -29.1236   20.7673 C   0  0  0  0  0  0
  -27.2710  -28.1489   20.7897 C   0  0  0  0  0  0
  -26.0014  -26.5732   19.5434 C   0  0  0  0  0  0
  -24.9236  -27.5013   19.4897 C   0  0  0  0  0  0
  -23.7530  -29.7044   20.1447 C   0  0  0  0  0  0
  -25.4135  -36.2904   24.0282 C   0  0  1  0  0  0
  -20.5940  -28.3745   23.1162 C   0  0  2  0  0  0
  -20.6784  -26.9416   22.5382 C   0  0  0  0  0  0
  -19.5788  -26.6378   21.5194 C   0  0  0  0  0  0
  -18.1977  -26.7936   22.1602 C   0  0  0  0  0  0
  -19.1582  -28.8927   23.2794 C   0  0  0  0  0  0
  -18.9499  -30.1513   23.8836 C   0  0  0  0  0  0
  -17.6496  -30.6594   24.0559 C   0  0  0  0  0  0
  -25.9111  -34.9286   23.4959 C   0  0  0  0  0  0
  -16.5389  -29.9085   23.6347 C   0  0  0  0  0  0
  -16.7318  -28.6506   23.0365 C   0  0  0  0  0  0
  -26.4594  -31.6489   25.0639 C   0  0  0  0  0  0
  -25.3676  -31.3778   26.1264 C   0  0  0  0  0  0
  -27.0498  -30.2818   24.6471 C   0  0  0  0  0  0
  -27.6074  -32.4308   25.7469 C   0  0  0  0  0  0
  -27.5556  -37.1738   24.8465 C   0  0  0  0  0  0
  -21.4379  -29.3014   22.3471 N   0  0  0  0  0  0
  -26.4264  -37.3645   23.9407 N   0  0  0  0  0  0
  -24.7776  -30.9556   22.0759 N   0  0  0  0  0  0
  -23.4202  -28.7926   23.3064 O   0  0  0  0  0  0
  -28.1937  -25.5589   20.2781 O   0  0  0  0  0  0
  -26.5753  -34.8866   22.4572 O   0  0  0  0  0  0
  -23.5795  -32.1106   23.6540 O   0  0  0  0  0  0
  -31.7592  -14.4599   18.1097 C   0  0  0  0  0  0
  -30.9305  -13.6732   21.8320 C   0  0  0  0  0  0
  -30.6027  -16.3283   18.3419 C   0  0  0  0  0  0
  -29.7615  -15.6999   21.8961 C   0  0  0  0  0  0
  -31.9360  -13.1166   19.8703 C   0  0  1  0  0  0
  -29.7731  -17.0999   20.1802 C   0  0  2  0  0  0
  -33.4731  -13.2447   19.9685 C   0  0  0  0  0  0
  -28.8804  -22.1603   20.2294 C   0  0  0  0  0  0
  -33.9749  -14.7111   20.1353 C   0  0  0  0  0  0
  -28.6263  -20.2631   20.4487 C   0  0  0  0  0  0
  -27.9668  -23.8417   20.4117 C   0  0  0  0  0  0
  -32.8860  -15.6862   19.8211 N   0  0  0  0  0  0
  -29.6630  -18.8726   20.2549 N   0  3  0  0  0  0
  -28.7523  -14.4544   18.2671 H   0  0  0  0  0  0
  -29.6656  -14.1046   17.5295 H   0  0  0  0  0  0
  -30.0211  -11.5741   18.7670 H   0  0  0  0  0  0
  -29.3652  -12.0699   17.2082 H   0  0  0  0  0  0
  -28.0489  -11.1266   19.5074 H   0  0  0  0  0  0
  -27.2363  -11.7145   18.0322 H   0  0  0  0  0  0
  -27.0841  -13.9763   19.0323 H   0  0  0  0  0  0
  -29.0418  -12.7072   20.8393 H   0  0  0  0  0  0
  -28.2096  -14.1589   21.3257 H   0  0  0  0  0  0
  -25.2572   -9.5626   22.5033 H   0  0  0  0  0  0
  -23.9936   -7.4483   22.7491 H   0  0  0  0  0  0
  -21.0830   -8.8803   19.8936 H   0  0  0  0  0  0
  -22.3609  -10.9755   19.6447 H   0  0  0  0  0  0
  -21.1944   -7.6081   23.9572 H   0  0  0  0  0  0
  -21.1447   -6.0510   25.9011 H   0  0  0  0  0  0
  -22.0628   -2.7526   23.2959 H   0  0  0  0  0  0
  -22.3640  -12.0118   22.5201 H   0  0  0  0  0  0
  -21.0604  -13.1240   22.2234 H   0  0  0  0  0  0
  -24.5763  -15.8140   20.4547 H   0  0  0  0  0  0
  -26.2486  -15.6281   20.2275 H   0  0  0  0  0  0
  -26.7464  -32.4992   23.0769 H   0  0  0  0  0  0
  -25.0039  -33.9335   25.0053 H   0  0  0  0  0  0
  -22.8238  -31.2396   21.3141 H   0  0  0  0  0  0
  -23.3759  -35.9522   23.3256 H   0  0  0  0  0  0
  -24.3587  -36.8885   22.2075 H   0  0  0  0  0  0
  -23.7283  -37.6349   23.6749 H   0  0  0  0  0  0
  -26.2603  -31.2803   20.6058 H   0  0  0  0  0  0
  -26.9382  -30.6405   22.0627 H   0  0  0  0  0  0
  -28.1648  -28.4430   21.3189 H   0  0  0  0  0  0
  -25.8518  -25.6211   19.0561 H   0  0  0  0  0  0
  -24.0253  -27.2034   18.9694 H   0  0  0  0  0  0
  -23.9240  -30.4572   19.3734 H   0  0  0  0  0  0
  -22.8617  -29.1594   19.8234 H   0  0  0  0  0  0
  -25.1352  -36.1662   25.0767 H   0  0  0  0  0  0
  -21.0047  -28.3384   24.1292 H   0  0  0  0  0  0
  -20.5630  -26.2406   23.3657 H   0  0  0  0  0  0
  -21.6663  -26.7371   22.1243 H   0  0  0  0  0  0
  -19.6929  -25.6292   21.1281 H   0  0  0  0  0  0
  -19.6711  -27.3150   20.6717 H   0  0  0  0  0  0
  -17.4222  -26.6693   21.4018 H   0  0  0  0  0  0
  -18.0348  -26.0086   22.9017 H   0  0  0  0  0  0
  -19.7977  -30.7331   24.2162 H   0  0  0  0  0  0
  -17.5051  -31.6252   24.5176 H   0  0  0  0  0  0
  -15.5382  -30.2967   23.7697 H   0  0  0  0  0  0
  -15.8723  -28.0805   22.7102 H   0  0  0  0  0  0
  -24.5908  -30.7084   25.7556 H   0  0  0  0  0  0
  -24.8814  -32.2986   26.4476 H   0  0  0  0  0  0
  -25.7857  -30.9078   27.0173 H   0  0  0  0  0  0
  -26.3202  -29.6482   24.1407 H   0  0  0  0  0  0
  -27.3915  -29.7219   25.5189 H   0  0  0  0  0  0
  -27.9189  -30.3954   23.9986 H   0  0  0  0  0  0
  -27.2652  -33.3690   26.1840 H   0  0  0  0  0  0
  -28.4002  -32.6704   25.0377 H   0  0  0  0  0  0
  -28.0599  -31.8537   26.5545 H   0  0  0  0  0  0
  -28.2543  -38.0052   24.7475 H   0  0  0  0  0  0
  -28.1078  -36.2572   24.6334 H   0  0  0  0  0  0
  -27.2269  -37.1431   25.8864 H   0  0  0  0  0  0
  -20.9667  -29.8708   21.6569 H   0  0  0  0  0  0
  -26.0102  -38.2695   24.1404 H   0  0  0  0  0  0
  -32.7292  -14.7318   17.7109 H   0  0  0  0  0  0
  -31.5328  -13.9357   17.1830 H   0  0  0  0  0  0
  -30.3756  -12.8404   22.2456 H   0  0  0  0  0  0
  -31.7330  -13.7111   22.5787 H   0  0  0  0  0  0
  -29.7562  -16.2868   17.6655 H   0  0  0  0  0  0
  -31.1576  -17.1323   17.8529 H   0  0  0  0  0  0
  -30.2145  -16.2892   22.7041 H   0  0  0  0  0  0
  -28.8026  -15.6498   22.4157 H   0  0  0  0  0  0
  -31.7758  -12.0903   19.6017 H   0  0  0  0  0  0
  -30.7026  -17.5711   20.5117 H   0  0  0  0  0  0
  -33.8747  -12.9101   19.0135 H   0  0  0  0  0  0
  -33.8965  -12.5655   20.7080 H   0  0  0  0  0  0
  -29.2437  -22.2277   19.2069 H   0  0  0  0  0  0
  -29.7809  -22.3183   20.8209 H   0  0  0  0  0  0
  -34.3635  -14.8829   21.1528 H   0  0  0  0  0  0
  -34.8073  -14.8626   19.4556 H   0  0  0  0  0  0
  -27.7121  -20.0126   19.9082 H   0  0  0  0  0  0
  -28.3204  -20.1908   21.4933 H   0  0  0  0  0  0
  -27.6742  -23.8012   21.4609 H   0  0  0  0  0  0
  -27.0236  -23.6958   19.8866 H   0  0  0  0  0  0
  -32.8430  -15.8710   18.8288 H   0  0  0  0  0  0
  -30.3346  -19.0718   20.9825 H   0  0  0  0  0  0
  -30.1558  -19.1457   19.4213 H   0  0  0  0  0  0
  1 25  1  0  0  0
  1 30  2  0  0  0
  1 82  1  0  0  0
  2  3  1  0  0  0
  2 25  1  0  0  0
  2 84  1  0  0  0
  2 85  1  0  0  0
  3  4  1  0  0  0
  3 86  1  0  0  0
  3 87  1  0  0  0
  4  5  1  0  0  0
  4 88  1  0  0  0
  4 89  1  0  0  0
  5  6  1  0  0  0
  5 26  1  0  0  0
  5 90  1  0  0  0
  6 25  1  0  0  0
  6 91  1  0  0  0
  6 92  1  0  0  0
  7  8  2  0  0  0
  7 26  1  0  0  0
  7 29  1  0  0  0
  8  9  1  0  0  0
  8 22  1  0  0  0
  9 10  1  0  0  0
  9 27  2  0  0  0
 10 11  2  0  0  0
 10 15  1  0  0  0
 11 12  1  0  0  0
 11 93  1  0  0  0
 12 13  2  0  0  0
 12 94  1  0  0  0
 13 14  1  0  0  0
 13 31  1  0  0  0
 14 15  2  0  0  0
 14 95  1  0  0  0
 15 96  1  0  0  0
 16 17  2  0  0  0
 16 21  1  0  0  0
 16 31  1  0  0  0
 17 18  1  0  0  0
 17 97  1  0  0  0
 18 19  2  0  0  0
 18 98  1  0  0  0
 19 20  1  0  0  0
 19 24  1  0  0  0
 20 21  2  0  0  0
 20 99  1  0  0  0
 21 23  1  0  0  0
 22 28  1  0  0  0
 22 32  2  0  0  0
 26 27  1  0  0  0
 28100  1  0  0  0
 28101  1  0  0  0
 29102  1  0  0  0
 29103  1  0  0  0
 33 34  1  0  0  0
 33 66  1  0  0  0
 33 70  2  0  0  0
 34 36  1  0  0  0
 34 59  1  0  0  0
 34104  1  0  0  0
 35 44  2  0  0  0
 35 45  1  0  0  0
 35 68  1  0  0  0
 36 56  1  0  0  0
 36105  1  0  0  0
 37 39  1  0  0  0
 37 47  1  0  0  0
 37 66  1  0  0  0
 37106  1  0  0  0
 38 43  2  0  0  0
 38 46  1  0  0  0
 38 47  1  0  0  0
 39 64  1  0  0  0
 39 67  2  0  0  0
 40 52  1  0  0  0
 40 53  2  0  0  0
 40 58  1  0  0  0
 41107  1  0  0  0
 41108  1  0  0  0
 41109  1  0  0  0
 41 48  1  0  0  0
 42 43  1  0  0  0
 42 66  1  0  0  0
 42110  1  0  0  0
 42111  1  0  0  0
 43 44  1  0  0  0
 44112  1  0  0  0
 45 46  2  0  0  0
 45113  1  0  0  0
 46114  1  0  0  0
 47115  1  0  0  0
 47116  1  0  0  0
 48 56  1  0  0  0
 48 65  1  0  0  0
 48117  1  0  0  0
 49 50  1  0  0  0
 49 53  1  0  0  0
 49 64  1  0  0  0
 49118  1  0  0  0
 50 51  1  0  0  0
 50119  1  0  0  0
 50120  1  0  0  0
 51 52  1  0  0  0
 51121  1  0  0  0
 51122  1  0  0  0
 52123  1  0  0  0
 52124  1  0  0  0
 53 54  1  0  0  0
 54 55  2  0  0  0
 54125  1  0  0  0
 55 57  1  0  0  0
 55126  1  0  0  0
 56 69  2  0  0  0
 57 58  2  0  0  0
 57127  1  0  0  0
 58128  1  0  0  0
 59 60  1  0  0  0
 59 61  1  0  0  0
 59 62  1  0  0  0
 60129  1  0  0  0
 60130  1  0  0  0
 60131  1  0  0  0
 61132  1  0  0  0
 61133  1  0  0  0
 61134  1  0  0  0
 62135  1  0  0  0
 62136  1  0  0  0
 62137  1  0  0  0
 63 65  1  0  0  0
 63138  1  0  0  0
 63139  1  0  0  0
 63140  1  0  0  0
 64141  1  0  0  0
 65142  1  0  0  0
 68 81  1  0  0  0
 71 73  1  0  0  0
 71 75  1  0  0  0
 71143  1  0  0  0
 71144  1  0  0  0
 72 74  1  0  0  0
 72 75  1  0  0  0
 72145  1  0  0  0
 72146  1  0  0  0
 73 76  1  0  0  0
 73147  1  0  0  0
 73148  1  0  0  0
 74 76  1  0  0  0
 74149  1  0  0  0
 74150  1  0  0  0
 75 77  1  0  0  0
 75151  1  0  0  0
 76 83  1  0  0  0
 76152  1  0  0  0
 77 79  1  0  0  0
 77153  1  0  0  0
 77154  1  0  0  0
 78 80  1  0  0  0
 78 81  1  0  0  0
 78155  1  0  0  0
 78156  1  0  0  0
 79 82  1  0  0  0
 79157  1  0  0  0
 79158  1  0  0  0
 80 83  1  0  0  0
 80159  1  0  0  0
 80160  1  0  0  0
 81161  1  0  0  0
 81162  1  0  0  0
 82163  1  0  0  0
 83164  1  0  0  0
 83165  1  0  0  0
M  CHG  1  83   1
M  ISO  4   1 100  68 101  81 101  82 100
M  END
> <chiral flag>
0

> <version>
0

> <s_m_source_file>
/data/baiqing/PycharmProjects/Reinvent-master-3.2/result/LINK_invent/BTK/process_docking_weight1_custom_sum_contain_oxygen_bond_distance_aromatic_linkinvent_7_9_3/rearranged_h_0124.sdf

> <i_m_source_file_index>
1

> <r_mmod_Potential_Energy-OPLS-2005>
9793.2900390625

> <r_mmod_Stretch_Energy-OPLS-2005>
5078.2744140625

> <r_mmod_Bend_Energy-OPLS-2005>
1297.30004882812

> <r_mmod_Torsional_Energy-OPLS-2005>
415.707580566406

> <r_mmod_Improper_Torsional_Energy-OPLS-2005>
15.8996934890747

> <r_mmod_Van_der_Waal_Energy-OPLS-2005>
2166.28662109375

> <r_mmod_Electrostatic_Energy-OPLS-2005>
-281.351409912109

> <r_mmod_Solvation_Energy-OPLS-2005>
-448.649322509766

> <b_mmod_Minimization_Converged-OPLS-2005>
0

> <r_mmod_RMS_Derivative-OPLS-2005>
21.843318939209

$$$$
1
                    3D
 Structure written by MMmdl.
163172  0  0  1  0            999 V2000
  -30.6347  -14.6490   20.4782 C   0  0  0  0  0  0
  -30.4326  -12.3944   19.4634 C   0  0  0  0  0  0
  -29.5075  -12.5074   18.2315 C   0  0  0  0  0  0
  -28.0301  -12.3468   18.6402 C   0  0  0  0  0  0
  -27.6510  -13.2215   19.8648 C   0  0  2  0  0  0
  -28.6965  -13.0968   20.9971 C   0  0  0  0  0  0
  -25.2558  -13.8182   20.5727 C   0  0  0  0  0  0
  -24.1818  -13.0437   20.9195 C   0  0  0  0  0  0
  -24.6394  -11.6913   20.8750 C   0  0  0  0  0  0
  -23.9052  -10.4300   21.0420 C   0  0  0  0  0  0
  -24.3609   -9.4212   21.9190 C   0  0  0  0  0  0
  -23.6292   -8.2241   22.0755 C   0  0  0  0  0  0
  -22.4274   -8.0278   21.3543 C   0  0  0  0  0  0
  -21.9910   -9.0247   20.4641 C   0  0  0  0  0  0
  -22.7231  -10.2130   20.3064 C   0  0  0  0  0  0
  -21.6851   -6.0741   22.5287 C   0  0  0  0  0  0
  -21.4012   -6.5647   23.8223 C   0  0  0  0  0  0
  -21.3657   -5.6796   24.9179 C   0  0  0  0  0  0
  -21.6046   -4.3060   24.7226 C   0  0  0  0  0  0
  -21.8818   -3.8151   23.4343 C   0  0  0  0  0  0
  -21.9196   -4.6971   22.3404 C   0  0  0  0  0  0
  -22.7844  -13.5225   21.1853 C   0  0  0  0  0  0
  -22.1666   -4.2163   21.0978 F   0  0  0  0  0  0
  -21.5625   -3.4540   25.7739 F   0  0  0  0  0  0
  -30.0108  -13.4291   20.4290 N   0  0  0  0  0  0
  -26.2979  -12.9371   20.3338 N   0  0  0  0  0  0
  -25.9324  -11.6522   20.5770 N   0  0  0  0  0  0
  -22.0482  -12.8223   22.0408 N   0  0  0  0  0  0
  -25.4277  -15.1914   20.4221 N   0  0  0  0  0  0
  -31.8014  -14.7850   20.1014 O   0  0  0  0  0  0
  -21.6632   -6.8884   21.4250 O   0  0  0  0  0  0
  -22.3540  -14.5533   20.6711 O   0  0  0  0  0  0
  -24.6260  -31.8567   23.2012 C   0  0  0  0  0  0
  -25.9114  -32.4759   23.8345 C   0  0  1  0  0  0
  -27.2333  -27.3160   20.1231 C   0  0  0  0  0  0
  -25.5935  -33.8561   24.2268 N   0  0  0  0  0  0
  -23.4208  -30.4795   21.5422 C   0  0  2  0  0  0
  -24.8709  -28.9319   20.1092 C   0  0  0  0  0  0
  -22.7471  -29.4616   22.4926 C   0  0  0  0  0  0
  -18.0286  -28.1375   22.8484 C   0  0  0  0  0  0
  -24.1490  -36.7277   23.2643 C   0  0  0  0  0  0
  -25.9621  -30.7879   21.3733 C   0  0  0  0  0  0
  -26.0381  -29.4153   20.7146 C   0  0  0  0  0  0
  -27.2228  -28.6202   20.7083 C   0  0  0  0  0  0
  -26.0453  -26.8846   19.4917 C   0  0  0  0  0  0
  -24.8771  -27.6717   19.4880 C   0  0  0  0  0  0
  -23.6369  -29.8107   20.1584 C   0  0  0  0  0  0
  -25.4121  -36.3073   24.0327 C   0  0  1  0  0  0
  -20.5882  -28.3689   23.1269 C   0  0  2  0  0  0
  -20.6765  -26.9409   22.5408 C   0  0  0  0  0  0
  -19.5750  -26.6379   21.5206 C   0  0  0  0  0  0
  -18.1921  -26.7927   22.1612 C   0  0  0  0  0  0
  -19.1533  -28.8850   23.2873 C   0  0  0  0  0  0
  -18.9469  -30.1457   23.8884 C   0  0  0  0  0  0
  -17.6468  -30.6581   24.0566 C   0  0  0  0  0  0
  -25.9056  -34.9439   23.5094 C   0  0  0  0  0  0
  -16.5358  -29.9079   23.6338 C   0  0  0  0  0  0
  -16.7277  -28.6495   23.0359 C   0  0  0  0  0  0
  -26.4503  -31.6573   25.0715 C   0  0  0  0  0  0
  -25.3748  -31.3689   26.1449 C   0  0  0  0  0  0
  -27.0356  -30.2999   24.6176 C   0  0  0  0  0  0
  -27.6066  -32.4301   25.7472 C   0  0  0  0  0  0
  -27.5578  -37.1795   24.8469 C   0  0  0  0  0  0
  -21.4186  -29.3036   22.3662 N   0  0  0  0  0  0
  -26.4296  -37.3768   23.9406 N   0  0  0  0  0  0
  -24.6878  -31.0583   22.0956 N   0  0  0  0  0  0
  -23.4188  -28.8168   23.3022 O   0  0  0  0  0  0
  -28.3492  -26.4653   20.1742 O   0  0  0  0  0  0
  -26.5620  -34.8911   22.4657 O   0  0  0  0  0  0
  -23.5428  -32.1371   23.7342 O   0  0  0  0  0  0
  -28.7894  -17.9501   19.9100 C   0  0  0  0  0  0
  -30.6505  -18.0923   21.4872 C   0  0  0  0  0  0
  -28.4792  -23.9962   19.2413 C   0  0  0  0  0  0
  -29.1410  -24.1803   21.1799 C   0  0  0  0  0  0
  -29.0235  -19.4465   19.4714 C   0  0  0  0  0  0
  -30.8774  -19.5915   21.0571 C   0  0  0  0  0  0
  -28.8511  -22.9033   20.3142 C   0  0  2  0  0  0
  -30.0790  -17.1958   20.3591 C   0  0  1  0  0  0
  -28.1096  -25.0107   20.3621 C   0  0  1  0  0  0
  -30.6123  -21.8670   18.7004 C   0  0  0  0  0  0
  -29.9730  -21.7766   20.1027 C   0  0  2  0  0  0
  -29.8454  -15.7444   20.7282 N   0  0  0  0  0  0
  -29.6724  -20.3177   20.5114 N   0  3  1  0  0  0
  -31.4761  -12.5040   19.1638 H   0  0  0  0  0  0
  -30.3524  -11.4038   19.9133 H   0  0  0  0  0  0
  -29.7738  -11.7574   17.4859 H   0  0  0  0  0  0
  -29.6517  -13.4770   17.7528 H   0  0  0  0  0  0
  -27.8663  -11.2938   18.8713 H   0  0  0  0  0  0
  -27.3782  -12.5766   17.7974 H   0  0  0  0  0  0
  -27.6619  -14.2546   19.5175 H   0  0  0  0  0  0
  -28.7062  -12.0828   21.4001 H   0  0  0  0  0  0
  -28.4471  -13.7523   21.8338 H   0  0  0  0  0  0
  -25.2763   -9.5693   22.4747 H   0  0  0  0  0  0
  -24.0011   -7.4639   22.7478 H   0  0  0  0  0  0
  -21.0839   -8.8760   19.8941 H   0  0  0  0  0  0
  -22.3692  -10.9667   19.6168 H   0  0  0  0  0  0
  -21.2000   -7.6159   23.9725 H   0  0  0  0  0  0
  -21.1483   -6.0529   25.9081 H   0  0  0  0  0  0
  -22.0597   -2.7614   23.2848 H   0  0  0  0  0  0
  -22.4098  -11.9877   22.4785 H   0  0  0  0  0  0
  -21.1101  -13.1267   22.2622 H   0  0  0  0  0  0
  -24.6652  -15.8475   20.5492 H   0  0  0  0  0  0
  -26.2805  -15.6345   20.1063 H   0  0  0  0  0  0
  -26.7183  -32.5422   23.1096 H   0  0  0  0  0  0
  -25.0124  -33.9715   25.0440 H   0  0  0  0  0  0
  -22.7157  -31.3006   21.3965 H   0  0  0  0  0  0
  -23.3758  -35.9602   23.3311 H   0  0  0  0  0  0
  -24.3582  -36.8894   22.2058 H   0  0  0  0  0  0
  -23.7240  -37.6476   23.6667 H   0  0  0  0  0  0
  -26.0987  -31.5538   20.6090 H   0  0  0  0  0  0
  -26.8388  -30.8339   22.0072 H   0  0  0  0  0  0
  -28.1177  -28.9869   21.1914 H   0  0  0  0  0  0
  -26.0097  -25.9208   19.0036 H   0  0  0  0  0  0
  -23.9848  -27.2968   19.0056 H   0  0  0  0  0  0
  -23.7532  -30.5845   19.3982 H   0  0  0  0  0  0
  -22.7580  -29.2371   19.8591 H   0  0  0  0  0  0
  -25.1306  -36.1926   25.0820 H   0  0  0  0  0  0
  -20.9984  -28.3268   24.1391 H   0  0  0  0  0  0
  -20.5653  -26.2302   23.3611 H   0  0  0  0  0  0
  -21.6633  -26.7413   22.1228 H   0  0  0  0  0  0
  -19.6907  -25.6287   21.1237 H   0  0  0  0  0  0
  -19.6685  -27.3182   20.6730 H   0  0  0  0  0  0
  -17.4199  -26.6693   21.4003 H   0  0  0  0  0  0
  -18.0309  -26.0052   22.8992 H   0  0  0  0  0  0
  -19.7947  -30.7280   24.2231 H   0  0  0  0  0  0
  -17.5023  -31.6257   24.5168 H   0  0  0  0  0  0
  -15.5353  -30.2985   23.7656 H   0  0  0  0  0  0
  -15.8679  -28.0813   22.7081 H   0  0  0  0  0  0
  -24.5956  -30.6992   25.7789 H   0  0  0  0  0  0
  -24.8902  -32.2840   26.4865 H   0  0  0  0  0  0
  -25.8101  -30.8895   27.0230 H   0  0  0  0  0  0
  -26.2931  -29.6723   24.1234 H   0  0  0  0  0  0
  -27.4100  -29.7280   25.4679 H   0  0  0  0  0  0
  -27.8781  -30.4288   23.9374 H   0  0  0  0  0  0
  -27.2697  -33.3605   26.2055 H   0  0  0  0  0  0
  -28.3875  -32.6848   25.0292 H   0  0  0  0  0  0
  -28.0751  -31.8424   26.5383 H   0  0  0  0  0  0
  -28.2602  -38.0085   24.7526 H   0  0  0  0  0  0
  -28.1069  -36.2621   24.6296 H   0  0  0  0  0  0
  -27.2293  -37.1457   25.8870 H   0  0  0  0  0  0
  -20.9366  -29.8752   21.6870 H   0  0  0  0  0  0
  -26.0174  -38.2834   24.1420 H   0  0  0  0  0  0
  -28.3312  -17.4128   19.0784 H   0  0  0  0  0  0
  -28.0538  -17.9311   20.7155 H   0  0  0  0  0  0
  -29.9897  -18.0616   22.3547 H   0  0  0  0  0  0
  -31.6005  -17.6766   21.8250 H   0  0  0  0  0  0
  -27.6468  -23.7274   18.5915 H   0  0  0  0  0  0
  -29.3285  -24.3396   18.6491 H   0  0  0  0  0  0
  -30.1643  -24.5449   21.0637 H   0  0  0  0  0  0
  -28.8938  -24.0735   22.2360 H   0  0  0  0  0  0
  -28.0759  -19.8999   19.1787 H   0  0  0  0  0  0
  -29.6435  -19.4250   18.5749 H   0  0  0  0  0  0
  -31.6698  -19.6109   20.3078 H   0  0  0  0  0  0
  -31.2642  -20.1411   21.9160 H   0  0  0  0  0  0
  -27.9229  -22.4481   20.6663 H   0  0  0  0  0  0
  -30.7818  -17.2067   19.5240 H   0  0  0  0  0  0
  -27.1136  -24.8126   20.7645 H   0  0  0  0  0  0
  -31.0576  -22.8485   18.5408 H   0  0  0  0  0  0
  -29.8786  -21.7064   17.9107 H   0  0  0  0  0  0
  -31.4150  -21.1412   18.5675 H   0  0  0  0  0  0
  -30.7756  -22.0699   20.7815 H   0  0  0  0  0  0
  -28.9156  -15.5181   21.0469 H   0  0  0  0  0  0
  -29.0277  -20.3787   21.2856 H   0  0  0  0  0  0
  1 25  1  0  0  0
  1 30  2  0  0  0
  1 82  1  0  0  0
  2  3  1  0  0  0
  2 25  1  0  0  0
  2 84  1  0  0  0
  2 85  1  0  0  0
  3  4  1  0  0  0
  3 86  1  0  0  0
  3 87  1  0  0  0
  4  5  1  0  0  0
  4 88  1  0  0  0
  4 89  1  0  0  0
  5  6  1  0  0  0
  5 26  1  0  0  0
  5 90  1  0  0  0
  6 25  1  0  0  0
  6 91  1  0  0  0
  6 92  1  0  0  0
  7  8  2  0  0  0
  7 26  1  0  0  0
  7 29  1  0  0  0
  8  9  1  0  0  0
  8 22  1  0  0  0
  9 10  1  0  0  0
  9 27  2  0  0  0
 10 11  2  0  0  0
 10 15  1  0  0  0
 11 12  1  0  0  0
 11 93  1  0  0  0
 12 13  2  0  0  0
 12 94  1  0  0  0
 13 14  1  0  0  0
 13 31  1  0  0  0
 14 15  2  0  0  0
 14 95  1  0  0  0
 15 96  1  0  0  0
 16 17  2  0  0  0
 16 21  1  0  0  0
 16 31  1  0  0  0
 17 18  1  0  0  0
 17 97  1  0  0  0
 18 19  2  0  0  0
 18 98  1  0  0  0
 19 20  1  0  0  0
 19 24  1  0  0  0
 20 21  2  0  0  0
 20 99  1  0  0  0
 21 23  1  0  0  0
 22 28  1  0  0  0
 22 32  2  0  0  0
 26 27  1  0  0  0
 28100  1  0  0  0
 28101  1  0  0  0
 29102  1  0  0  0
 29103  1  0  0  0
 33 34  1  0  0  0
 33 66  1  0  0  0
 33 70  2  0  0  0
 34 36  1  0  0  0
 34 59  1  0  0  0
 34104  1  0  0  0
 35 44  2  0  0  0
 35 45  1  0  0  0
 35 68  1  0  0  0
 36 56  1  0  0  0
 36105  1  0  0  0
 37 39  1  0  0  0
 37 47  1  0  0  0
 37 66  1  0  0  0
 37106  1  0  0  0
 38 43  2  0  0  0
 38 46  1  0  0  0
 38 47  1  0  0  0
 39 64  1  0  0  0
 39 67  2  0  0  0
 40 52  1  0  0  0
 40 53  2  0  0  0
 40 58  1  0  0  0
 41107  1  0  0  0
 41108  1  0  0  0
 41109  1  0  0  0
 41 48  1  0  0  0
 42 43  1  0  0  0
 42 66  1  0  0  0
 42110  1  0  0  0
 42111  1  0  0  0
 43 44  1  0  0  0
 44112  1  0  0  0
 45 46  2  0  0  0
 45113  1  0  0  0
 46114  1  0  0  0
 47115  1  0  0  0
 47116  1  0  0  0
 48 56  1  0  0  0
 48 65  1  0  0  0
 48117  1  0  0  0
 49 50  1  0  0  0
 49 53  1  0  0  0
 49 64  1  0  0  0
 49118  1  0  0  0
 50 51  1  0  0  0
 50119  1  0  0  0
 50120  1  0  0  0
 51 52  1  0  0  0
 51121  1  0  0  0
 51122  1  0  0  0
 52123  1  0  0  0
 52124  1  0  0  0
 53 54  1  0  0  0
 54 55  2  0  0  0
 54125  1  0  0  0
 55 57  1  0  0  0
 55126  1  0  0  0
 56 69  2  0  0  0
 57 58  2  0  0  0
 57127  1  0  0  0
 58128  1  0  0  0
 59 60  1  0  0  0
 59 61  1  0  0  0
 59 62  1  0  0  0
 60129  1  0  0  0
 60130  1  0  0  0
 60131  1  0  0  0
 61132  1  0  0  0
 61133  1  0  0  0
 61134  1  0  0  0
 62135  1  0  0  0
 62136  1  0  0  0
 62137  1  0  0  0
 63 65  1  0  0  0
 63138  1  0  0  0
 63139  1  0  0  0
 63140  1  0  0  0
 64141  1  0  0  0
 65142  1  0  0  0
 68 79  1  0  0  0
 71 75  1  0  0  0
 71 78  1  0  0  0
 71143  1  0  0  0
 71144  1  0  0  0
 72 76  1  0  0  0
 72 78  1  0  0  0
 72145  1  0  0  0
 72146  1  0  0  0
 73 79  1  0  0  0
 73147  1  0  0  0
 73148  1  0  0  0
 73 77  1  0  0  0
 74 77  1  0  0  0
 74 79  1  0  0  0
 74149  1  0  0  0
 74150  1  0  0  0
 75151  1  0  0  0
 75152  1  0  0  0
 75 83  1  0  0  0
 76 83  1  0  0  0
 76153  1  0  0  0
 76154  1  0  0  0
 77 81  1  0  0  0
 77155  1  0  0  0
 78 82  1  0  0  0
 78156  1  0  0  0
 79157  1  0  0  0
 80158  1  0  0  0
 80159  1  0  0  0
 80160  1  0  0  0
 80 81  1  0  0  0
 81 83  1  0  0  0
 81161  1  0  0  0
 82162  1  0  0  0
 83163  1  0  0  0
M  CHG  1  83   1
M  ISO  4   1 100  68 101  79 101  82 100
M  END
> <chiral flag>
0

> <version>
0

> <s_m_source_file>
/data/baiqing/PycharmProjects/Reinvent-master-3.2/result/LINK_invent/BTK/process_docking_weight1_custom_sum_contain_oxygen_bond_distance_aromatic_linkinvent_7_9_3/rearranged_h_0124.sdf

> <i_m_source_file_index>
2

> <r_mmod_Potential_Energy-OPLS-2005>
38.9127197265625

> <r_mmod_Stretch_Energy-OPLS-2005>
87.5024566650391

> <r_mmod_Bend_Energy-OPLS-2005>
164.071701049805

> <r_mmod_Torsional_Energy-OPLS-2005>
282.095275878906

> <r_mmod_Improper_Torsional_Energy-OPLS-2005>
5.77443933486938

> <r_mmod_Van_der_Waal_Energy-OPLS-2005>
129.394058227539

> <r_mmod_Electrostatic_Energy-OPLS-2005>
-228.9072265625

> <r_mmod_Solvation_Energy-OPLS-2005>
-452.326629638672

> <b_mmod_Minimization_Converged-OPLS-2005>
0

> <r_mmod_RMS_Derivative-OPLS-2005>
1.87180376052856

$$$$
2
                    3D
 Structure written by MMmdl.
178187  0  0  1  0            999 V2000
  -30.7674  -14.3599   20.6768 C   0  0  0  0  0  0
  -30.4129  -12.2834   19.3946 C   0  0  0  0  0  0
  -29.4811  -12.5252   18.1927 C   0  0  0  0  0  0
  -28.0052  -12.3844   18.6094 C   0  0  0  0  0  0
  -27.6658  -13.2030   19.8825 C   0  0  2  0  0  0
  -28.7038  -12.9425   20.9961 C   0  0  0  0  0  0
  -25.2595  -13.8160   20.5670 C   0  0  0  0  0  0
  -24.1837  -13.0444   20.9158 C   0  0  0  0  0  0
  -24.6380  -11.6904   20.8728 C   0  0  0  0  0  0
  -23.9042  -10.4295   21.0400 C   0  0  0  0  0  0
  -24.3591   -9.4220   21.9189 C   0  0  0  0  0  0
  -23.6279   -8.2249   22.0761 C   0  0  0  0  0  0
  -22.4270   -8.0278   21.3542 C   0  0  0  0  0  0
  -21.9898   -9.0242   20.4637 C   0  0  0  0  0  0
  -22.7215  -10.2127   20.3048 C   0  0  0  0  0  0
  -21.6846   -6.0727   22.5264 C   0  0  0  0  0  0
  -21.4013   -6.5629   23.8193 C   0  0  0  0  0  0
  -21.3669   -5.6792   24.9159 C   0  0  0  0  0  0
  -21.6044   -4.3056   24.7217 C   0  0  0  0  0  0
  -21.8820   -3.8143   23.4334 C   0  0  0  0  0  0
  -21.9192   -4.6958   22.3390 C   0  0  0  0  0  0
  -22.7860  -13.5250   21.1839 C   0  0  0  0  0  0
  -22.1659   -4.2140   21.0971 F   0  0  0  0  0  0
  -21.5637   -3.4547   25.7736 F   0  0  0  0  0  0
  -30.0480  -13.2296   20.4584 N   0  0  0  0  0  0
  -26.3036  -12.9319   20.3393 N   0  0  0  0  0  0
  -25.9311  -11.6482   20.5771 N   0  0  0  0  0  0
  -22.0481  -12.8226   22.0362 N   0  0  0  0  0  0
  -25.4349  -15.1880   20.4086 N   0  0  0  0  0  0
  -31.7824  -14.6526   20.0369 O   0  0  0  0  0  0
  -21.6636   -6.8873   21.4230 O   0  0  0  0  0  0
  -22.3554  -14.5579   20.6718 O   0  0  0  0  0  0
  -24.6109  -31.8683   23.2111 C   0  0  0  0  0  0
  -25.9006  -32.4826   23.8403 C   0  0  1  0  0  0
  -27.2458  -27.4660   20.0712 C   0  0  0  0  0  0
  -25.5866  -33.8628   24.2337 N   0  0  0  0  0  0
  -23.3989  -30.4899   21.5507 C   0  0  2  0  0  0
  -24.8455  -28.9583   20.1153 C   0  0  0  0  0  0
  -22.7398  -29.4643   22.5006 C   0  0  0  0  0  0
  -18.0264  -28.1379   22.8486 C   0  0  0  0  0  0
  -24.1479  -36.7302   23.2645 C   0  0  0  0  0  0
  -25.9240  -30.8386   21.3634 C   0  0  0  0  0  0
  -26.0018  -29.4735   20.7134 C   0  0  0  0  0  0
  -27.1992  -28.7280   20.6998 C   0  0  0  0  0  0
  -26.0641  -26.9463   19.4946 C   0  0  0  0  0  0
  -24.8688  -27.6895   19.5094 C   0  0  0  0  0  0
  -23.6058  -29.8205   20.1650 C   0  0  0  0  0  0
  -25.4103  -36.3117   24.0344 C   0  0  1  0  0  0
  -20.5850  -28.3648   23.1331 C   0  0  2  0  0  0
  -20.6742  -26.9380   22.5444 C   0  0  0  0  0  0
  -19.5748  -26.6383   21.5208 C   0  0  0  0  0  0
  -18.1903  -26.7941   22.1577 C   0  0  0  0  0  0
  -19.1518  -28.8832   23.2907 C   0  0  0  0  0  0
  -18.9451  -30.1431   23.8937 C   0  0  0  0  0  0
  -17.6451  -30.6577   24.0577 C   0  0  0  0  0  0
  -25.9025  -34.9484   23.5139 C   0  0  0  0  0  0
  -16.5343  -29.9082   23.6333 C   0  0  0  0  0  0
  -16.7256  -28.6505   23.0338 C   0  0  0  0  0  0
  -26.4451  -31.6612   25.0729 C   0  0  0  0  0  0
  -25.3723  -31.3686   26.1477 C   0  0  0  0  0  0
  -27.0295  -30.3074   24.6087 C   0  0  0  0  0  0
  -27.6035  -32.4333   25.7480 C   0  0  0  0  0  0
  -27.5594  -37.1806   24.8458 C   0  0  0  0  0  0
  -21.4129  -29.3014   22.3754 N   0  0  0  0  0  0
  -26.4296  -37.3802   23.9413 N   0  0  0  0  0  0
  -24.6620  -31.0802   22.0998 N   0  0  0  0  0  0
  -23.4186  -28.8183   23.3031 O   0  0  0  0  0  0
  -28.4403  -26.7796   20.0726 O   0  0  0  0  0  0
  -26.5603  -34.8933   22.4711 O   0  0  0  0  0  0
  -23.5306  -32.1423   23.7521 O   0  0  0  0  0  0
  -28.7560  -22.1533   19.3163 C   0  0  0  0  0  0
  -30.7926  -23.0258   20.3323 C   0  0  0  0  0  0
  -28.3576  -23.4669   18.9914 C   0  0  0  0  0  0
  -30.3899  -24.3385   20.0120 C   0  0  0  0  0  0
  -29.9807  -21.9248   19.9812 C   0  0  0  0  0  0
  -29.1759  -24.5649   19.3312 C   0  0  0  0  0  0
  -31.6682  -17.6144   24.2323 C   0  0  0  0  0  0
  -30.9938  -16.3471   23.6934 C   0  0  0  0  0  0
  -30.2136  -17.6214   21.6601 C   0  0  0  0  0  0
  -30.9814  -18.9131   23.7381 C   0  0  2  0  0  0
  -30.9525  -16.3623   22.1602 C   0  0  2  0  0  0
  -30.8815  -18.9222   22.1785 C   0  0  2  0  0  0
  -33.7481  -21.6962   24.3209 C   0  0  0  0  0  0
  -31.3965  -20.2934   25.8622 C   0  0  0  0  0  0
  -30.4457  -20.5060   20.2853 C   0  0  0  0  0  0
  -28.7764  -25.9791   18.9386 C   0  0  0  0  0  0
  -33.1648  -20.3076   24.0277 C   0  0  0  0  0  0
  -31.6534  -20.1862   24.3450 C   0  0  1  0  0  0
  -30.3197  -15.1365   21.6720 N   0  0  0  0  0  0
  -30.1664  -20.1288   21.6864 N   0  3  0  0  0  0
  -31.4565  -12.3790   19.0903 H   0  0  0  0  0  0
  -30.3040  -11.2607   19.7587 H   0  0  0  0  0  0
  -29.7101  -11.8232   17.3894 H   0  0  0  0  0  0
  -29.6538  -13.5229   17.7863 H   0  0  0  0  0  0
  -27.8061  -11.3264   18.7847 H   0  0  0  0  0  0
  -27.3526  -12.6841   17.7880 H   0  0  0  0  0  0
  -27.7248  -14.2580   19.6131 H   0  0  0  0  0  0
  -28.6621  -11.8989   21.3124 H   0  0  0  0  0  0
  -28.4523  -13.5193   21.8860 H   0  0  0  0  0  0
  -25.2726   -9.5707   22.4777 H   0  0  0  0  0  0
  -23.9981   -7.4651   22.7493 H   0  0  0  0  0  0
  -21.0831   -8.8745   19.8941 H   0  0  0  0  0  0
  -22.3665  -10.9659   19.6161 H   0  0  0  0  0  0
  -21.2001   -7.6138   23.9690 H   0  0  0  0  0  0
  -21.1496   -6.0523   25.9057 H   0  0  0  0  0  0
  -22.0597   -2.7599   23.2832 H   0  0  0  0  0  0
  -22.4047  -11.9831   22.4681 H   0  0  0  0  0  0
  -21.1104  -13.1253   22.2582 H   0  0  0  0  0  0
  -24.6749  -15.8514   20.5181 H   0  0  0  0  0  0
  -26.2982  -15.6209   20.1033 H   0  0  0  0  0  0
  -26.7077  -32.5549   23.1172 H   0  0  0  0  0  0
  -25.0014  -33.9798   25.0479 H   0  0  0  0  0  0
  -22.6872  -31.3053   21.4097 H   0  0  0  0  0  0
  -23.3766  -35.9606   23.3291 H   0  0  0  0  0  0
  -24.3589  -36.8954   22.2069 H   0  0  0  0  0  0
  -23.7198  -37.6486   23.6667 H   0  0  0  0  0  0
  -26.0353  -31.6039   20.5940 H   0  0  0  0  0  0
  -26.8111  -30.8910   21.9827 H   0  0  0  0  0  0
  -28.0955  -29.1268   21.1545 H   0  0  0  0  0  0
  -26.0496  -25.9660   19.0425 H   0  0  0  0  0  0
  -23.9771  -27.2811   19.0546 H   0  0  0  0  0  0
  -23.7081  -30.5926   19.4007 H   0  0  0  0  0  0
  -22.7316  -29.2344   19.8749 H   0  0  0  0  0  0
  -25.1291  -36.1993   25.0839 H   0  0  0  0  0  0
  -20.9940  -28.3195   24.1446 H   0  0  0  0  0  0
  -20.5568  -26.2261   23.3624 H   0  0  0  0  0  0
  -21.6626  -26.7359   22.1283 H   0  0  0  0  0  0
  -19.6894  -25.6290   21.1230 H   0  0  0  0  0  0
  -19.6732  -27.3215   20.6753 H   0  0  0  0  0  0
  -17.4198  -26.6755   21.3939 H   0  0  0  0  0  0
  -18.0241  -26.0047   22.8921 H   0  0  0  0  0  0
  -19.7921  -30.7245   24.2324 H   0  0  0  0  0  0
  -17.4997  -31.6258   24.5171 H   0  0  0  0  0  0
  -15.5346  -30.2990   23.7642 H   0  0  0  0  0  0
  -15.8654  -28.0847   22.7023 H   0  0  0  0  0  0
  -24.5961  -30.6946   25.7833 H   0  0  0  0  0  0
  -24.8815  -32.2806   26.4884 H   0  0  0  0  0  0
  -25.8094  -30.8925   27.0264 H   0  0  0  0  0  0
  -26.2837  -29.6832   24.1148 H   0  0  0  0  0  0
  -27.4111  -29.7314   25.4530 H   0  0  0  0  0  0
  -27.8642  -30.4439   23.9208 H   0  0  0  0  0  0
  -27.2678  -33.3643   26.2057 H   0  0  0  0  0  0
  -28.3831  -32.6881   25.0289 H   0  0  0  0  0  0
  -28.0696  -31.8452   26.5398 H   0  0  0  0  0  0
  -28.2589  -38.0126   24.7536 H   0  0  0  0  0  0
  -28.1120  -36.2663   24.6226 H   0  0  0  0  0  0
  -27.2327  -37.1411   25.8868 H   0  0  0  0  0  0
  -20.9273  -29.8782   21.7032 H   0  0  0  0  0  0
  -26.0193  -38.2882   24.1434 H   0  0  0  0  0  0
  -28.1243  -21.3230   19.0292 H   0  0  0  0  0  0
  -31.7396  -22.8728   20.8331 H   0  0  0  0  0  0
  -27.4263  -23.6289   18.4664 H   0  0  0  0  0  0
  -31.0223  -25.1747   20.2762 H   0  0  0  0  0  0
  -32.7156  -17.5990   23.9297 H   0  0  0  0  0  0
  -31.6675  -17.5700   25.3208 H   0  0  0  0  0  0
  -29.9864  -16.2604   24.1045 H   0  0  0  0  0  0
  -31.5468  -15.4722   24.0415 H   0  0  0  0  0  0
  -29.1720  -17.5876   21.9822 H   0  0  0  0  0  0
  -30.1998  -17.6162   20.5698 H   0  0  0  0  0  0
  -29.9559  -18.8864   24.1131 H   0  0  0  0  0  0
  -31.9841  -16.4059   21.8028 H   0  0  0  0  0  0
  -31.8957  -18.9469   21.7780 H   0  0  0  0  0  0
  -34.7926  -21.7457   24.0119 H   0  0  0  0  0  0
  -33.7158  -21.9340   25.3838 H   0  0  0  0  0  0
  -33.2091  -22.4761   23.7830 H   0  0  0  0  0  0
  -30.3395  -20.1673   26.0993 H   0  0  0  0  0  0
  -31.6876  -21.2694   26.2502 H   0  0  0  0  0  0
  -31.9544  -19.5462   26.4262 H   0  0  0  0  0  0
  -31.5167  -20.4496   20.0842 H   0  0  0  0  0  0
  -29.9638  -19.8030   19.6047 H   0  0  0  0  0  0
  -28.0194  -25.9558   18.1549 H   0  0  0  0  0  0
  -29.6420  -26.4488   18.4690 H   0  0  0  0  0  0
  -33.7290  -19.5631   24.5917 H   0  0  0  0  0  0
  -33.3551  -20.0910   22.9771 H   0  0  0  0  0  0
  -31.1608  -21.0567   23.9120 H   0  0  0  0  0  0
  -29.4955  -14.8102   22.1551 H   0  0  0  0  0  0
  -30.4575  -20.9077   22.2532 H   0  0  0  0  0  0
  -29.1722  -20.0255   21.8101 H   0  0  0  0  0  0
  1 25  1  0  0  0
  1 30  2  0  0  0
  1 89  1  0  0  0
  2  3  1  0  0  0
  2 25  1  0  0  0
  2 91  1  0  0  0
  2 92  1  0  0  0
  3  4  1  0  0  0
  3 93  1  0  0  0
  3 94  1  0  0  0
  4  5  1  0  0  0
  4 95  1  0  0  0
  4 96  1  0  0  0
  5  6  1  0  0  0
  5 26  1  0  0  0
  5 97  1  0  0  0
  6 25  1  0  0  0
  6 98  1  0  0  0
  6 99  1  0  0  0
  7  8  2  0  0  0
  7 26  1  0  0  0
  7 29  1  0  0  0
  8  9  1  0  0  0
  8 22  1  0  0  0
  9 10  1  0  0  0
  9 27  2  0  0  0
 10 11  2  0  0  0
 10 15  1  0  0  0
 11 12  1  0  0  0
 11100  1  0  0  0
 12 13  2  0  0  0
 12101  1  0  0  0
 13 14  1  0  0  0
 13 31  1  0  0  0
 14 15  2  0  0  0
 14102  1  0  0  0
 15103  1  0  0  0
 16 17  2  0  0  0
 16 21  1  0  0  0
 16 31  1  0  0  0
 17 18  1  0  0  0
 17104  1  0  0  0
 18 19  2  0  0  0
 18105  1  0  0  0
 19 20  1  0  0  0
 19 24  1  0  0  0
 20 21  2  0  0  0
 20106  1  0  0  0
 21 23  1  0  0  0
 22 28  1  0  0  0
 22 32  2  0  0  0
 26 27  1  0  0  0
 28107  1  0  0  0
 28108  1  0  0  0
 29109  1  0  0  0
 29110  1  0  0  0
 33 34  1  0  0  0
 33 66  1  0  0  0
 33 70  2  0  0  0
 34 36  1  0  0  0
 34 59  1  0  0  0
 34111  1  0  0  0
 35 44  2  0  0  0
 35 45  1  0  0  0
 35 68  1  0  0  0
 36 56  1  0  0  0
 36112  1  0  0  0
 37 39  1  0  0  0
 37 47  1  0  0  0
 37 66  1  0  0  0
 37113  1  0  0  0
 38 43  2  0  0  0
 38 46  1  0  0  0
 38 47  1  0  0  0
 39 64  1  0  0  0
 39 67  2  0  0  0
 40 52  1  0  0  0
 40 53  2  0  0  0
 40 58  1  0  0  0
 41114  1  0  0  0
 41115  1  0  0  0
 41116  1  0  0  0
 41 48  1  0  0  0
 42 43  1  0  0  0
 42 66  1  0  0  0
 42117  1  0  0  0
 42118  1  0  0  0
 43 44  1  0  0  0
 44119  1  0  0  0
 45 46  2  0  0  0
 45120  1  0  0  0
 46121  1  0  0  0
 47122  1  0  0  0
 47123  1  0  0  0
 48 56  1  0  0  0
 48 65  1  0  0  0
 48124  1  0  0  0
 49 50  1  0  0  0
 49 53  1  0  0  0
 49 64  1  0  0  0
 49125  1  0  0  0
 50 51  1  0  0  0
 50126  1  0  0  0
 50127  1  0  0  0
 51 52  1  0  0  0
 51128  1  0  0  0
 51129  1  0  0  0
 52130  1  0  0  0
 52131  1  0  0  0
 53 54  1  0  0  0
 54 55  2  0  0  0
 54132  1  0  0  0
 55 57  1  0  0  0
 55133  1  0  0  0
 56 69  2  0  0  0
 57 58  2  0  0  0
 57134  1  0  0  0
 58135  1  0  0  0
 59 60  1  0  0  0
 59 61  1  0  0  0
 59 62  1  0  0  0
 60136  1  0  0  0
 60137  1  0  0  0
 60138  1  0  0  0
 61139  1  0  0  0
 61140  1  0  0  0
 61141  1  0  0  0
 62142  1  0  0  0
 62143  1  0  0  0
 62144  1  0  0  0
 63 65  1  0  0  0
 63145  1  0  0  0
 63146  1  0  0  0
 63147  1  0  0  0
 64148  1  0  0  0
 65149  1  0  0  0
 68 86  1  0  0  0
 71 73  2  0  0  0
 71 75  1  0  0  0
 71150  1  0  0  0
 72 74  1  0  0  0
 72 75  2  0  0  0
 72151  1  0  0  0
 73 76  1  0  0  0
 73152  1  0  0  0
 74 76  2  0  0  0
 74153  1  0  0  0
 75 85  1  0  0  0
 76 86  1  0  0  0
 77 78  1  0  0  0
 77154  1  0  0  0
 77155  1  0  0  0
 77 80  1  0  0  0
 78 81  1  0  0  0
 78156  1  0  0  0
 78157  1  0  0  0
 79 81  1  0  0  0
 79 82  1  0  0  0
 79158  1  0  0  0
 79159  1  0  0  0
 80 82  1  0  0  0
 80 88  1  0  0  0
 80160  1  0  0  0
 81 89  1  0  0  0
 81161  1  0  0  0
 82 90  1  0  0  0
 82162  1  0  0  0
 83 87  1  0  0  0
 83163  1  0  0  0
 83164  1  0  0  0
 83165  1  0  0  0
 84166  1  0  0  0
 84167  1  0  0  0
 84168  1  0  0  0
 84 88  1  0  0  0
 85 90  1  0  0  0
 85169  1  0  0  0
 85170  1  0  0  0
 86171  1  0  0  0
 86172  1  0  0  0
 87 88  1  0  0  0
 87173  1  0  0  0
 87174  1  0  0  0
 88175  1  0  0  0
 89176  1  0  0  0
 90177  1  0  0  0
 90178  1  0  0  0
M  CHG  1  90   1
M  ISO  4   1 100  68 101  86 101  89 100
M  END
> <chiral flag>
0

> <version>
0

> <s_m_source_file>
/data/baiqing/PycharmProjects/Reinvent-master-3.2/result/LINK_invent/BTK/process_docking_weight1_custom_sum_contain_oxygen_bond_distance_aromatic_linkinvent_7_9_3/rearranged_h_0124.sdf

> <i_m_source_file_index>
3

> <r_mmod_Potential_Energy-OPLS-2005>
-181.661575317383

> <r_mmod_Stretch_Energy-OPLS-2005>
36.370189666748

> <r_mmod_Bend_Energy-OPLS-2005>
99.953742980957

> <r_mmod_Torsional_Energy-OPLS-2005>
244.357620239258

> <r_mmod_Improper_Torsional_Energy-OPLS-2005>
1.81965792179108

> <r_mmod_Van_der_Waal_Energy-OPLS-2005>
156.423629760742

> <r_mmod_Electrostatic_Energy-OPLS-2005>
-283.330810546875

> <r_mmod_Solvation_Energy-OPLS-2005>
-444.517028808594

> <b_mmod_Minimization_Converged-OPLS-2005>
0

> <r_mmod_RMS_Derivative-OPLS-2005>
1.89319396018982

$$$$
3
                    3D
 Structure written by MMmdl.
160168  0  0  1  0            999 V2000
  -30.6532  -14.5988   20.5127 C   0  0  0  0  0  0
  -30.4297  -12.3711   19.4472 C   0  0  0  0  0  0
  -29.5023  -12.5022   18.2199 C   0  0  0  0  0  0
  -28.0250  -12.3493   18.6331 C   0  0  0  0  0  0
  -27.6530  -13.2191   19.8643 C   0  0  2  0  0  0
  -28.6973  -13.0695   20.9931 C   0  0  0  0  0  0
  -25.2559  -13.8195   20.5696 C   0  0  0  0  0  0
  -24.1822  -13.0448   20.9169 C   0  0  0  0  0  0
  -24.6395  -11.6919   20.8726 C   0  0  0  0  0  0
  -23.9066  -10.4298   21.0398 C   0  0  0  0  0  0
  -24.3618   -9.4214   21.9179 C   0  0  0  0  0  0
  -23.6292   -8.2250   22.0752 C   0  0  0  0  0  0
  -22.4274   -8.0285   21.3543 C   0  0  0  0  0  0
  -21.9908   -9.0258   20.4646 C   0  0  0  0  0  0
  -22.7237  -10.2136   20.3051 C   0  0  0  0  0  0
  -21.6855   -6.0735   22.5278 C   0  0  0  0  0  0
  -21.4018   -6.5639   23.8211 C   0  0  0  0  0  0
  -21.3659   -5.6791   24.9173 C   0  0  0  0  0  0
  -21.6043   -4.3054   24.7224 C   0  0  0  0  0  0
  -21.8820   -3.8146   23.4346 C   0  0  0  0  0  0
  -21.9193   -4.6963   22.3401 C   0  0  0  0  0  0
  -22.7843  -13.5234   21.1843 C   0  0  0  0  0  0
  -22.1661   -4.2148   21.0979 F   0  0  0  0  0  0
  -21.5628   -3.4538   25.7737 F   0  0  0  0  0  0
  -30.0143  -13.3933   20.4260 N   0  0  0  0  0  0
  -26.2991  -12.9379   20.3336 N   0  0  0  0  0  0
  -25.9325  -11.6527   20.5758 N   0  0  0  0  0  0
  -22.0492  -12.8224   22.0404 N   0  0  0  0  0  0
  -25.4265  -15.1928   20.4179 N   0  0  0  0  0  0
  -31.8146  -14.7482   20.1247 O   0  0  0  0  0  0
  -21.6641   -6.8880   21.4240 O   0  0  0  0  0  0
  -22.3520  -14.5541   20.6699 O   0  0  0  0  0  0
  -24.6235  -31.8620   23.2050 C   0  0  0  0  0  0
  -25.9094  -32.4791   23.8370 C   0  0  1  0  0  0
  -27.2209  -27.3415   20.1177 C   0  0  0  0  0  0
  -25.5919  -33.8591   24.2297 N   0  0  0  0  0  0
  -23.4157  -30.4863   21.5473 C   0  0  2  0  0  0
  -24.8616  -28.9445   20.1130 C   0  0  0  0  0  0
  -22.7459  -29.4634   22.4950 C   0  0  0  0  0  0
  -18.0283  -28.1382   22.8488 C   0  0  0  0  0  0
  -24.1488  -36.7300   23.2639 C   0  0  0  0  0  0
  -25.9548  -30.7998   21.3731 C   0  0  0  0  0  0
  -26.0292  -29.4284   20.7172 C   0  0  0  0  0  0
  -27.2139  -28.6383   20.7102 C   0  0  0  0  0  0
  -26.0367  -26.9100   19.4798 C   0  0  0  0  0  0
  -24.8658  -27.6894   19.4857 C   0  0  0  0  0  0
  -23.6291  -29.8223   20.1620 C   0  0  0  0  0  0
  -25.4112  -36.3092   24.0332 C   0  0  1  0  0  0
  -20.5881  -28.3681   23.1291 C   0  0  2  0  0  0
  -20.6773  -26.9408   22.5411 C   0  0  0  0  0  0
  -19.5749  -26.6384   21.5211 C   0  0  0  0  0  0
  -18.1930  -26.7926   22.1625 C   0  0  0  0  0  0
  -19.1535  -28.8848   23.2886 C   0  0  0  0  0  0
  -18.9459  -30.1451   23.8903 C   0  0  0  0  0  0
  -17.6459  -30.6585   24.0565 C   0  0  0  0  0  0
  -25.9045  -34.9459   23.5114 C   0  0  0  0  0  0
  -16.5351  -29.9085   23.6327 C   0  0  0  0  0  0
  -16.7271  -28.6502   23.0350 C   0  0  0  0  0  0
  -26.4488  -31.6591   25.0727 C   0  0  0  0  0  0
  -25.3731  -31.3720   26.1460 C   0  0  0  0  0  0
  -27.0328  -30.3020   24.6162 C   0  0  0  0  0  0
  -27.6054  -32.4320   25.7494 C   0  0  0  0  0  0
  -27.5578  -37.1807   24.8466 C   0  0  0  0  0  0
  -21.4176  -29.3040   22.3689 N   0  0  0  0  0  0
  -26.4294  -37.3781   23.9405 N   0  0  0  0  0  0
  -24.6834  -31.0654   22.0990 N   0  0  0  0  0  0
  -23.4194  -28.8173   23.3020 O   0  0  0  0  0  0
  -28.3430  -26.5089   20.1369 O   0  0  0  0  0  0
  -26.5612  -34.8921   22.4679 O   0  0  0  0  0  0
  -23.5405  -32.1408   23.7393 O   0  0  0  0  0  0
  -29.0161  -18.0782   20.5785 C   0  0  0  0  0  0
  -27.9939  -21.7381   20.0866 C   0  0  0  0  0  0
  -27.8738  -20.2961   20.6725 C   0  0  0  0  0  0
  -30.3294  -20.2149   20.9698 C   0  0  0  0  0  0
  -29.1660  -22.5643   20.6586 C   0  0  1  0  0  0
  -30.4267  -21.6747   20.3893 C   0  0  1  0  0  0
  -31.7269  -22.3231   20.8965 C   0  0  0  0  0  0
  -30.2466  -17.1282   20.7676 C   0  0  0  0  0  0
  -29.2456  -24.0628   20.1051 C   0  0  0  0  0  0
  -28.1341  -25.1007   20.5266 C   0  0  0  0  0  0
  -29.1027  -19.4581   20.6387 N   0  0  0  0  0  0
  -29.8944  -15.6720   20.8613 N   0  0  0  0  0  0
  -27.9320  -17.5146   20.3886 O   0  0  0  0  0  0
  -31.4728  -12.4833   19.1460 H   0  0  0  0  0  0
  -30.3511  -11.3753   19.8858 H   0  0  0  0  0  0
  -29.7596  -11.7521   17.4708 H   0  0  0  0  0  0
  -29.6530  -13.4729   17.7449 H   0  0  0  0  0  0
  -27.8553  -11.2963   18.8607 H   0  0  0  0  0  0
  -27.3716  -12.5864   17.7927 H   0  0  0  0  0  0
  -27.6733  -14.2558   19.5274 H   0  0  0  0  0  0
  -28.6990  -12.0505   21.3827 H   0  0  0  0  0  0
  -28.4515  -13.7124   21.8398 H   0  0  0  0  0  0
  -25.2764   -9.5689   22.4751 H   0  0  0  0  0  0
  -24.0001   -7.4642   22.7472 H   0  0  0  0  0  0
  -21.0838   -8.8778   19.8952 H   0  0  0  0  0  0
  -22.3696  -10.9674   19.6158 H   0  0  0  0  0  0
  -21.2012   -7.6147   23.9715 H   0  0  0  0  0  0
  -21.1480   -6.0520   25.9075 H   0  0  0  0  0  0
  -22.0599   -2.7608   23.2848 H   0  0  0  0  0  0
  -22.4111  -11.9884   22.4788 H   0  0  0  0  0  0
  -21.1112  -13.1251   22.2620 H   0  0  0  0  0  0
  -24.6630  -15.8460   20.5544 H   0  0  0  0  0  0
  -26.2936  -15.6567   20.1680 H   0  0  0  0  0  0
  -26.7162  -32.5471   23.1122 H   0  0  0  0  0  0
  -25.0067  -33.9741   25.0441 H   0  0  0  0  0  0
  -22.7083  -31.3062   21.4061 H   0  0  0  0  0  0
  -23.3746  -35.9637   23.3313 H   0  0  0  0  0  0
  -24.3580  -36.8905   22.2051 H   0  0  0  0  0  0
  -23.7248  -37.6509   23.6651 H   0  0  0  0  0  0
  -26.0829  -31.5636   20.6048 H   0  0  0  0  0  0
  -26.8368  -30.8492   22.0001 H   0  0  0  0  0  0
  -28.1115  -29.0052   21.1880 H   0  0  0  0  0  0
  -26.0006  -25.9628   18.9628 H   0  0  0  0  0  0
  -23.9741  -27.3175   19.0000 H   0  0  0  0  0  0
  -23.7470  -30.5993   19.4058 H   0  0  0  0  0  0
  -22.7496  -29.2508   19.8600 H   0  0  0  0  0  0
  -25.1292  -36.1951   25.0825 H   0  0  0  0  0  0
  -20.9974  -28.3254   24.1411 H   0  0  0  0  0  0
  -20.5674  -26.2290   23.3606 H   0  0  0  0  0  0
  -21.6643  -26.7442   22.1204 H   0  0  0  0  0  0
  -19.6912  -25.6297   21.1236 H   0  0  0  0  0  0
  -19.6686  -27.3198   20.6743 H   0  0  0  0  0  0
  -17.4197  -26.6670   21.4029 H   0  0  0  0  0  0
  -18.0334  -26.0067   22.9021 H   0  0  0  0  0  0
  -19.7935  -30.7265   24.2275 H   0  0  0  0  0  0
  -17.5015  -31.6265   24.5166 H   0  0  0  0  0  0
  -15.5352  -30.2990   23.7648 H   0  0  0  0  0  0
  -15.8671  -28.0823   22.7063 H   0  0  0  0  0  0
  -24.5905  -30.7068   25.7792 H   0  0  0  0  0  0
  -24.8923  -32.2883   26.4895 H   0  0  0  0  0  0
  -25.8064  -30.8894   27.0229 H   0  0  0  0  0  0
  -26.2895  -29.6775   24.1191 H   0  0  0  0  0  0
  -27.4042  -29.7268   25.4653 H   0  0  0  0  0  0
  -27.8756  -30.4315   23.9368 H   0  0  0  0  0  0
  -27.2668  -33.3617   26.2079 H   0  0  0  0  0  0
  -28.3858  -32.6884   25.0317 H   0  0  0  0  0  0
  -28.0727  -31.8440   26.5403 H   0  0  0  0  0  0
  -28.2606  -38.0093   24.7500 H   0  0  0  0  0  0
  -28.1063  -36.2626   24.6310 H   0  0  0  0  0  0
  -27.2295  -37.1479   25.8870 H   0  0  0  0  0  0
  -20.9347  -29.8766   21.6907 H   0  0  0  0  0  0
  -26.0179  -38.2860   24.1396 H   0  0  0  0  0  0
  -27.0558  -22.2648   20.2647 H   0  0  0  0  0  0
  -28.0934  -21.6729   19.0021 H   0  0  0  0  0  0
  -27.0534  -19.8019   20.1496 H   0  0  0  0  0  0
  -27.5587  -20.3638   21.7148 H   0  0  0  0  0  0
  -30.3994  -20.2540   22.0580 H   0  0  0  0  0  0
  -31.2028  -19.6550   20.6329 H   0  0  0  0  0  0
  -29.0351  -22.6318   21.7399 H   0  0  0  0  0  0
  -30.5292  -21.5757   19.3069 H   0  0  0  0  0  0
  -31.6614  -22.5705   21.9566 H   0  0  0  0  0  0
  -31.9709  -23.2336   20.3505 H   0  0  0  0  0  0
  -32.5771  -21.6522   20.7674 H   0  0  0  0  0  0
  -30.7798  -17.4151   21.6742 H   0  0  0  0  0  0
  -30.9285  -17.2888   19.9316 H   0  0  0  0  0  0
  -29.3041  -24.0348   19.0168 H   0  0  0  0  0  0
  -30.1848  -24.5038   20.4330 H   0  0  0  0  0  0
  -28.0534  -25.0898   21.6142 H   0  0  0  0  0  0
  -27.1847  -24.7085   20.1699 H   0  0  0  0  0  0
  -28.9307  -15.4860   21.0979 H   0  0  0  0  0  0
  1 25  1  0  0  0
  1 30  2  0  0  0
  1 82  1  0  0  0
  2  3  1  0  0  0
  2 25  1  0  0  0
  2 84  1  0  0  0
  2 85  1  0  0  0
  3  4  1  0  0  0
  3 86  1  0  0  0
  3 87  1  0  0  0
  4  5  1  0  0  0
  4 88  1  0  0  0
  4 89  1  0  0  0
  5  6  1  0  0  0
  5 26  1  0  0  0
  5 90  1  0  0  0
  6 25  1  0  0  0
  6 91  1  0  0  0
  6 92  1  0  0  0
  7  8  2  0  0  0
  7 26  1  0  0  0
  7 29  1  0  0  0
  8  9  1  0  0  0
  8 22  1  0  0  0
  9 10  1  0  0  0
  9 27  2  0  0  0
 10 11  2  0  0  0
 10 15  1  0  0  0
 11 12  1  0  0  0
 11 93  1  0  0  0
 12 13  2  0  0  0
 12 94  1  0  0  0
 13 14  1  0  0  0
 13 31  1  0  0  0
 14 15  2  0  0  0
 14 95  1  0  0  0
 15 96  1  0  0  0
 16 17  2  0  0  0
 16 21  1  0  0  0
 16 31  1  0  0  0
 17 18  1  0  0  0
 17 97  1  0  0  0
 18 19  2  0  0  0
 18 98  1  0  0  0
 19 20  1  0  0  0
 19 24  1  0  0  0
 20 21  2  0  0  0
 20 99  1  0  0  0
 21 23  1  0  0  0
 22 28  1  0  0  0
 22 32  2  0  0  0
 26 27  1  0  0  0
 28100  1  0  0  0
 28101  1  0  0  0
 29102  1  0  0  0
 29103  1  0  0  0
 33 34  1  0  0  0
 33 66  1  0  0  0
 33 70  2  0  0  0
 34 36  1  0  0  0
 34 59  1  0  0  0
 34104  1  0  0  0
 35 44  2  0  0  0
 35 45  1  0  0  0
 35 68  1  0  0  0
 36 56  1  0  0  0
 36105  1  0  0  0
 37 39  1  0  0  0
 37 47  1  0  0  0
 37 66  1  0  0  0
 37106  1  0  0  0
 38 43  2  0  0  0
 38 46  1  0  0  0
 38 47  1  0  0  0
 39 64  1  0  0  0
 39 67  2  0  0  0
 40 52  1  0  0  0
 40 53  2  0  0  0
 40 58  1  0  0  0
 41107  1  0  0  0
 41108  1  0  0  0
 41109  1  0  0  0
 41 48  1  0  0  0
 42 43  1  0  0  0
 42 66  1  0  0  0
 42110  1  0  0  0
 42111  1  0  0  0
 43 44  1  0  0  0
 44112  1  0  0  0
 45 46  2  0  0  0
 45113  1  0  0  0
 46114  1  0  0  0
 47115  1  0  0  0
 47116  1  0  0  0
 48 56  1  0  0  0
 48 65  1  0  0  0
 48117  1  0  0  0
 49 50  1  0  0  0
 49 53  1  0  0  0
 49 64  1  0  0  0
 49118  1  0  0  0
 50 51  1  0  0  0
 50119  1  0  0  0
 50120  1  0  0  0
 51 52  1  0  0  0
 51121  1  0  0  0
 51122  1  0  0  0
 52123  1  0  0  0
 52124  1  0  0  0
 53 54  1  0  0  0
 54 55  2  0  0  0
 54125  1  0  0  0
 55 57  1  0  0  0
 55126  1  0  0  0
 56 69  2  0  0  0
 57 58  2  0  0  0
 57127  1  0  0  0
 58128  1  0  0  0
 59 60  1  0  0  0
 59 61  1  0  0  0
 59 62  1  0  0  0
 60129  1  0  0  0
 60130  1  0  0  0
 60131  1  0  0  0
 61132  1  0  0  0
 61133  1  0  0  0
 61134  1  0  0  0
 62135  1  0  0  0
 62136  1  0  0  0
 62137  1  0  0  0
 63 65  1  0  0  0
 63138  1  0  0  0
 63139  1  0  0  0
 63140  1  0  0  0
 64141  1  0  0  0
 65142  1  0  0  0
 68 80  1  0  0  0
 71 78  1  0  0  0
 71 81  1  0  0  0
 71 83  2  0  0  0
 72 73  1  0  0  0
 72 75  1  0  0  0
 72143  1  0  0  0
 72144  1  0  0  0
 73 81  1  0  0  0
 73145  1  0  0  0
 73146  1  0  0  0
 74 76  1  0  0  0
 74 81  1  0  0  0
 74147  1  0  0  0
 74148  1  0  0  0
 75 76  1  0  0  0
 75 79  1  0  0  0
 75149  1  0  0  0
 76 77  1  0  0  0
 76150  1  0  0  0
 77151  1  0  0  0
 77152  1  0  0  0
 77153  1  0  0  0
 78 82  1  0  0  0
 78154  1  0  0  0
 78155  1  0  0  0
 79 80  1  0  0  0
 79156  1  0  0  0
 79157  1  0  0  0
 80158  1  0  0  0
 80159  1  0  0  0
 82160  1  0  0  0
M  ISO  4   1 100  68 101  80 101  82 100
M  END
> <chiral flag>
0

> <version>
0

> <s_m_source_file>
/data/baiqing/PycharmProjects/Reinvent-master-3.2/result/LINK_invent/BTK/process_docking_weight1_custom_sum_contain_oxygen_bond_distance_aromatic_linkinvent_7_9_3/rearranged_h_0124.sdf

> <i_m_source_file_index>
4

> <r_mmod_Potential_Energy-OPLS-2005>
-15.101616859436

> <r_mmod_Stretch_Energy-OPLS-2005>
70.1743011474609

> <r_mmod_Bend_Energy-OPLS-2005>
129.964324951172

> <r_mmod_Torsional_Energy-OPLS-2005>
278.715362548828

> <r_mmod_Improper_Torsional_Energy-OPLS-2005>
4.71942138671875

> <r_mmod_Van_der_Waal_Energy-OPLS-2005>
135.546890258789

> <r_mmod_Electrostatic_Energy-OPLS-2005>
-457.179870605469

> <r_mmod_Solvation_Energy-OPLS-2005>
-214.856674194336

> <b_mmod_Minimization_Converged-OPLS-2005>
0

> <r_mmod_RMS_Derivative-OPLS-2005>
0.256024241447449

$$$$
4
                    3D
 Structure written by MMmdl.
168176  0  0  1  0            999 V2000
  -30.6377  -14.6197   20.4709 C   0  0  0  0  0  0
  -30.4344  -12.3736   19.4485 C   0  0  0  0  0  0
  -29.5051  -12.4873   18.2197 C   0  0  0  0  0  0
  -28.0276  -12.3351   18.6333 C   0  0  0  0  0  0
  -27.6529  -13.2129   19.8573 C   0  0  2  0  0  0
  -28.6990  -13.0807   20.9886 C   0  0  0  0  0  0
  -25.2577  -13.8161   20.5681 C   0  0  0  0  0  0
  -24.1842  -13.0439   20.9211 C   0  0  0  0  0  0
  -24.6398  -11.6907   20.8747 C   0  0  0  0  0  0
  -23.9061  -10.4292   21.0411 C   0  0  0  0  0  0
  -24.3614   -9.4207   21.9189 C   0  0  0  0  0  0
  -23.6290   -8.2241   22.0751 C   0  0  0  0  0  0
  -22.4278   -8.0275   21.3542 C   0  0  0  0  0  0
  -21.9913   -9.0247   20.4648 C   0  0  0  0  0  0
  -22.7233  -10.2133   20.3058 C   0  0  0  0  0  0
  -21.6849   -6.0735   22.5281 C   0  0  0  0  0  0
  -21.4012   -6.5640   23.8213 C   0  0  0  0  0  0
  -21.3655   -5.6794   24.9173 C   0  0  0  0  0  0
  -21.6043   -4.3057   24.7231 C   0  0  0  0  0  0
  -21.8819   -3.8149   23.4351 C   0  0  0  0  0  0
  -21.9197   -4.6966   22.3406 C   0  0  0  0  0  0
  -22.7864  -13.5240   21.1865 C   0  0  0  0  0  0
  -22.1666   -4.2153   21.0983 F   0  0  0  0  0  0
  -21.5626   -3.4542   25.7744 F   0  0  0  0  0  0
  -30.0166  -13.4020   20.4214 N   0  0  0  0  0  0
  -26.2990  -12.9331   20.3291 N   0  0  0  0  0  0
  -25.9324  -11.6501   20.5751 N   0  0  0  0  0  0
  -22.0493  -12.8229   22.0402 N   0  0  0  0  0  0
  -25.4300  -15.1867   20.4040 N   0  0  0  0  0  0
  -31.8029  -14.7666   20.0953 O   0  0  0  0  0  0
  -21.6637   -6.8876   21.4241 O   0  0  0  0  0  0
  -22.3567  -14.5546   20.6698 O   0  0  0  0  0  0
  -24.6233  -31.8590   23.2027 C   0  0  0  0  0  0
  -25.9076  -32.4776   23.8362 C   0  0  1  0  0  0
  -27.2283  -27.3483   20.1228 C   0  0  0  0  0  0
  -25.5909  -33.8575   24.2291 N   0  0  0  0  0  0
  -23.4179  -30.4809   21.5438 C   0  0  2  0  0  0
  -24.8656  -28.9336   20.1138 C   0  0  0  0  0  0
  -22.7461  -29.4608   22.4946 C   0  0  0  0  0  0
  -18.0283  -28.1389   22.8438 C   0  0  0  0  0  0
  -24.1496  -36.7295   23.2641 C   0  0  0  0  0  0
  -25.9533  -30.8027   21.3658 C   0  0  0  0  0  0
  -26.0307  -29.4295   20.7133 C   0  0  0  0  0  0
  -27.2194  -28.6478   20.7034 C   0  0  0  0  0  0
  -26.0463  -26.8851   19.5139 C   0  0  0  0  0  0
  -24.8726  -27.6661   19.5055 C   0  0  0  0  0  0
  -23.6327  -29.8126   20.1602 C   0  0  0  0  0  0
  -25.4117  -36.3088   24.0344 C   0  0  1  0  0  0
  -20.5874  -28.3672   23.1281 C   0  0  2  0  0  0
  -20.6770  -26.9402   22.5411 C   0  0  0  0  0  0
  -19.5752  -26.6374   21.5207 C   0  0  0  0  0  0
  -18.1926  -26.7924   22.1608 C   0  0  0  0  0  0
  -19.1531  -28.8840   23.2850 C   0  0  0  0  0  0
  -18.9468  -30.1427   23.8884 C   0  0  0  0  0  0
  -17.6475  -30.6576   24.0542 C   0  0  0  0  0  0
  -25.9047  -34.9448   23.5125 C   0  0  0  0  0  0
  -16.5353  -29.9073   23.6331 C   0  0  0  0  0  0
  -16.7271  -28.6501   23.0324 C   0  0  0  0  0  0
  -26.4483  -31.6570   25.0721 C   0  0  0  0  0  0
  -25.3731  -31.3683   26.1463 C   0  0  0  0  0  0
  -27.0322  -30.3007   24.6128 C   0  0  0  0  0  0
  -27.6059  -32.4298   25.7481 C   0  0  0  0  0  0
  -27.5578  -37.1794   24.8464 C   0  0  0  0  0  0
  -21.4178  -29.3033   22.3680 N   0  0  0  0  0  0
  -26.4292  -37.3781   23.9412 N   0  0  0  0  0  0
  -24.6840  -31.0629   22.0962 N   0  0  0  0  0  0
  -23.4170  -28.8159   23.3038 O   0  0  0  0  0  0
  -28.3564  -26.5306   20.1023 O   0  0  0  0  0  0
  -26.5622  -34.8912   22.4685 O   0  0  0  0  0  0
  -23.5394  -32.1379   23.7357 O   0  0  0  0  0  0
  -30.6085  -20.7054   20.9929 C   0  0  0  0  0  0
  -28.4301  -20.3139   19.9705 C   0  0  0  0  0  0
  -29.2206  -21.3711   20.7892 C   0  0  2  0  0  0
  -30.5655  -19.3382   21.7588 C   0  0  1  0  0  0
  -29.5261  -18.2889   21.1808 C   0  0  2  0  0  0
  -32.9758  -19.8249   22.5999 C   0  0  0  0  0  0
  -31.9522  -17.5958   23.0680 C   0  0  0  0  0  0
  -29.3434  -22.8479   20.1887 C   0  0  0  0  0  0
  -30.0265  -17.1159   20.2211 C   0  0  0  0  0  0
  -28.1252  -23.8677   20.2193 C   0  0  0  0  0  0
  -28.3154  -25.2958   20.8965 C   0  0  0  0  0  0
  -31.9899  -18.7656   22.0658 C   0  0  0  0  0  0
  -29.8325  -15.6999   20.7021 N   0  0  0  0  0  0
  -28.2979  -19.0001   20.6843 N   0  3  0  0  0  0
  -31.4755  -12.4904   19.1423 H   0  0  0  0  0  0
  -30.3645  -11.3811   19.8961 H   0  0  0  0  0  0
  -29.7636  -11.7264   17.4815 H   0  0  0  0  0  0
  -29.6537  -13.4509   17.7294 H   0  0  0  0  0  0
  -27.8591  -11.2834   18.8684 H   0  0  0  0  0  0
  -27.3750  -12.5634   17.7898 H   0  0  0  0  0  0
  -27.6678  -14.2439   19.5045 H   0  0  0  0  0  0
  -28.7063  -12.0666   21.3920 H   0  0  0  0  0  0
  -28.4549  -13.7367   21.8251 H   0  0  0  0  0  0
  -25.2759   -9.5689   22.4762 H   0  0  0  0  0  0
  -24.0006   -7.4636   22.7466 H   0  0  0  0  0  0
  -21.0846   -8.8764   19.8946 H   0  0  0  0  0  0
  -22.3689  -10.9674   19.6167 H   0  0  0  0  0  0
  -21.1992   -7.6150   23.9720 H   0  0  0  0  0  0
  -21.1474   -6.0522   25.9079 H   0  0  0  0  0  0
  -22.0603   -2.7613   23.2853 H   0  0  0  0  0  0
  -22.4106  -11.9890   22.4802 H   0  0  0  0  0  0
  -21.1099  -13.1246   22.2571 H   0  0  0  0  0  0
  -24.6512  -15.8317   20.4803 H   0  0  0  0  0  0
  -26.2442  -15.6002   19.9704 H   0  0  0  0  0  0
  -26.7131  -32.5476   23.1103 H   0  0  0  0  0  0
  -25.0042  -33.9729   25.0427 H   0  0  0  0  0  0
  -22.7120  -31.3013   21.3980 H   0  0  0  0  0  0
  -23.3757  -35.9627   23.3303 H   0  0  0  0  0  0
  -24.3578  -36.8918   22.2055 H   0  0  0  0  0  0
  -23.7252  -37.6494   23.6660 H   0  0  0  0  0  0
  -26.0762  -31.5684   20.5975 H   0  0  0  0  0  0
  -26.8355  -30.8548   21.9922 H   0  0  0  0  0  0
  -28.1207  -29.0293   21.1622 H   0  0  0  0  0  0
  -26.0329  -25.9127   19.0446 H   0  0  0  0  0  0
  -23.9796  -27.2812   19.0320 H   0  0  0  0  0  0
  -23.7480  -30.5889   19.4018 H   0  0  0  0  0  0
  -22.7556  -29.2390   19.8578 H   0  0  0  0  0  0
  -25.1284  -36.1947   25.0837 H   0  0  0  0  0  0
  -20.9939  -28.3248   24.1407 H   0  0  0  0  0  0
  -20.5672  -26.2281   23.3603 H   0  0  0  0  0  0
  -21.6639  -26.7429   22.1204 H   0  0  0  0  0  0
  -19.6925  -25.6299   21.1219 H   0  0  0  0  0  0
  -19.6705  -27.3191   20.6748 H   0  0  0  0  0  0
  -17.4209  -26.6640   21.4017 H   0  0  0  0  0  0
  -18.0302  -26.0091   22.9024 H   0  0  0  0  0  0
  -19.7949  -30.7218   24.2252 H   0  0  0  0  0  0
  -17.5042  -31.6256   24.5137 H   0  0  0  0  0  0
  -15.5348  -30.2960   23.7682 H   0  0  0  0  0  0
  -15.8678  -28.0822   22.7032 H   0  0  0  0  0  0
  -24.5938  -30.7000   25.7799 H   0  0  0  0  0  0
  -24.8895  -32.2835   26.4886 H   0  0  0  0  0  0
  -25.8086  -30.8874   27.0235 H   0  0  0  0  0  0
  -26.2874  -29.6758   24.1190 H   0  0  0  0  0  0
  -27.4079  -29.7261   25.4599 H   0  0  0  0  0  0
  -27.8715  -30.4303   23.9295 H   0  0  0  0  0  0
  -27.2679  -33.3607   26.2037 H   0  0  0  0  0  0
  -28.3865  -32.6828   25.0303 H   0  0  0  0  0  0
  -28.0718  -31.8434   26.5410 H   0  0  0  0  0  0
  -28.2584  -38.0102   24.7509 H   0  0  0  0  0  0
  -28.1090  -36.2623   24.6285 H   0  0  0  0  0  0
  -27.2291  -37.1448   25.8869 H   0  0  0  0  0  0
  -20.9364  -29.8781   21.6908 H   0  0  0  0  0  0
  -26.0179  -38.2857   24.1421 H   0  0  0  0  0  0
  -31.2208  -21.4162   21.5464 H   0  0  0  0  0  0
  -31.1023  -20.5708   20.0296 H   0  0  0  0  0  0
  -28.9070  -20.1463   19.0035 H   0  0  0  0  0  0
  -27.4291  -20.6901   19.7530 H   0  0  0  0  0  0
  -28.7486  -21.4741   21.7675 H   0  0  0  0  0  0
  -30.1613  -19.6104   22.7359 H   0  0  0  0  0  0
  -29.1603  -17.7552   22.0599 H   0  0  0  0  0  0
  -33.2518  -20.5470   21.8312 H   0  0  0  0  0  0
  -33.9084  -19.3687   22.9316 H   0  0  0  0  0  0
  -32.5591  -20.3717   23.4462 H   0  0  0  0  0  0
  -31.3545  -16.7612   22.7090 H   0  0  0  0  0  0
  -31.5454  -17.9085   24.0309 H   0  0  0  0  0  0
  -32.9545  -17.2038   23.2477 H   0  0  0  0  0  0
  -29.6995  -22.7702   19.1606 H   0  0  0  0  0  0
  -30.1635  -23.3375   20.7144 H   0  0  0  0  0  0
  -31.0702  -17.2598   19.9499 H   0  0  0  0  0  0
  -29.5036  -17.1895   19.2662 H   0  0  0  0  0  0
  -27.3067  -23.3727   20.7433 H   0  0  0  0  0  0
  -27.7488  -24.0079   19.2066 H   0  0  0  0  0  0
  -29.2310  -25.2844   21.4900 H   0  0  0  0  0  0
  -27.5281  -25.4070   21.6441 H   0  0  0  0  0  0
  -32.4371  -18.3994   21.1424 H   0  0  0  0  0  0
  -28.9032  -15.4632   21.0150 H   0  0  0  0  0  0
  -27.7612  -18.3721   20.1089 H   0  0  0  0  0  0
  -27.7308  -19.1804   21.4973 H   0  0  0  0  0  0
  1 25  1  0  0  0
  1 30  2  0  0  0
  1 83  1  0  0  0
  2  3  1  0  0  0
  2 25  1  0  0  0
  2 85  1  0  0  0
  2 86  1  0  0  0
  3  4  1  0  0  0
  3 87  1  0  0  0
  3 88  1  0  0  0
  4  5  1  0  0  0
  4 89  1  0  0  0
  4 90  1  0  0  0
  5  6  1  0  0  0
  5 26  1  0  0  0
  5 91  1  0  0  0
  6 25  1  0  0  0
  6 92  1  0  0  0
  6 93  1  0  0  0
  7  8  2  0  0  0
  7 26  1  0  0  0
  7 29  1  0  0  0
  8  9  1  0  0  0
  8 22  1  0  0  0
  9 10  1  0  0  0
  9 27  2  0  0  0
 10 11  2  0  0  0
 10 15  1  0  0  0
 11 12  1  0  0  0
 11 94  1  0  0  0
 12 13  2  0  0  0
 12 95  1  0  0  0
 13 14  1  0  0  0
 13 31  1  0  0  0
 14 15  2  0  0  0
 14 96  1  0  0  0
 15 97  1  0  0  0
 16 17  2  0  0  0
 16 21  1  0  0  0
 16 31  1  0  0  0
 17 18  1  0  0  0
 17 98  1  0  0  0
 18 19  2  0  0  0
 18 99  1  0  0  0
 19 20  1  0  0  0
 19 24  1  0  0  0
 20 21  2  0  0  0
 20100  1  0  0  0
 21 23  1  0  0  0
 22 28  1  0  0  0
 22 32  2  0  0  0
 26 27  1  0  0  0
 28101  1  0  0  0
 28102  1  0  0  0
 29103  1  0  0  0
 29104  1  0  0  0
 33 34  1  0  0  0
 33 66  1  0  0  0
 33 70  2  0  0  0
 34 36  1  0  0  0
 34 59  1  0  0  0
 34105  1  0  0  0
 35 44  2  0  0  0
 35 45  1  0  0  0
 35 68  1  0  0  0
 36 56  1  0  0  0
 36106  1  0  0  0
 37 39  1  0  0  0
 37 47  1  0  0  0
 37 66  1  0  0  0
 37107  1  0  0  0
 38 43  2  0  0  0
 38 46  1  0  0  0
 38 47  1  0  0  0
 39 64  1  0  0  0
 39 67  2  0  0  0
 40 52  1  0  0  0
 40 53  2  0  0  0
 40 58  1  0  0  0
 41108  1  0  0  0
 41109  1  0  0  0
 41110  1  0  0  0
 41 48  1  0  0  0
 42 43  1  0  0  0
 42 66  1  0  0  0
 42111  1  0  0  0
 42112  1  0  0  0
 43 44  1  0  0  0
 44113  1  0  0  0
 45 46  2  0  0  0
 45114  1  0  0  0
 46115  1  0  0  0
 47116  1  0  0  0
 47117  1  0  0  0
 48 56  1  0  0  0
 48 65  1  0  0  0
 48118  1  0  0  0
 49 50  1  0  0  0
 49 53  1  0  0  0
 49 64  1  0  0  0
 49119  1  0  0  0
 50 51  1  0  0  0
 50120  1  0  0  0
 50121  1  0  0  0
 51 52  1  0  0  0
 51122  1  0  0  0
 51123  1  0  0  0
 52124  1  0  0  0
 52125  1  0  0  0
 53 54  1  0  0  0
 54 55  2  0  0  0
 54126  1  0  0  0
 55 57  1  0  0  0
 55127  1  0  0  0
 56 69  2  0  0  0
 57 58  2  0  0  0
 57128  1  0  0  0
 58129  1  0  0  0
 59 60  1  0  0  0
 59 61  1  0  0  0
 59 62  1  0  0  0
 60130  1  0  0  0
 60131  1  0  0  0
 60132  1  0  0  0
 61133  1  0  0  0
 61134  1  0  0  0
 61135  1  0  0  0
 62136  1  0  0  0
 62137  1  0  0  0
 62138  1  0  0  0
 63 65  1  0  0  0
 63139  1  0  0  0
 63140  1  0  0  0
 63141  1  0  0  0
 64142  1  0  0  0
 65143  1  0  0  0
 68 81  1  0  0  0
 71 73  1  0  0  0
 71144  1  0  0  0
 71145  1  0  0  0
 71 74  1  0  0  0
 72 73  1  0  0  0
 72 84  1  0  0  0
 72146  1  0  0  0
 72147  1  0  0  0
 73 78  1  0  0  0
 73148  1  0  0  0
 74 75  1  0  0  0
 74 82  1  0  0  0
 74149  1  0  0  0
 75 79  1  0  0  0
 75 84  1  0  0  0
 75150  1  0  0  0
 76151  1  0  0  0
 76152  1  0  0  0
 76153  1  0  0  0
 76 82  1  0  0  0
 77 82  1  0  0  0
 77154  1  0  0  0
 77155  1  0  0  0
 77156  1  0  0  0
 78 80  1  0  0  0
 78157  1  0  0  0
 78158  1  0  0  0
 79 83  1  0  0  0
 79159  1  0  0  0
 79160  1  0  0  0
 80 81  1  0  0  0
 80161  1  0  0  0
 80162  1  0  0  0
 81163  1  0  0  0
 81164  1  0  0  0
 82165  1  0  0  0
 83166  1  0  0  0
 84167  1  0  0  0
 84168  1  0  0  0
M  CHG  1  84   1
M  ISO  4   1 100  68 101  81 101  83 100
M  END
> <chiral flag>
0

> <version>
0

> <s_m_source_file>
/data/baiqing/PycharmProjects/Reinvent-master-3.2/result/LINK_invent/BTK/process_docking_weight1_custom_sum_contain_oxygen_bond_distance_aromatic_linkinvent_7_9_3/rearranged_h_0124.sdf

> <i_m_source_file_index>
5

> <r_mmod_Potential_Energy-OPLS-2005>
4.04980421066284

> <r_mmod_Stretch_Energy-OPLS-2005>
76.1947174072266

> <r_mmod_Bend_Energy-OPLS-2005>
157.579681396484

> <r_mmod_Torsional_Energy-OPLS-2005>
356.185882568359

> <r_mmod_Improper_Torsional_Energy-OPLS-2005>
7.43224477767944

> <r_mmod_Van_der_Waal_Energy-OPLS-2005>
125.799308776855

> <r_mmod_Electrostatic_Energy-OPLS-2005>
-280.888732910156

> <r_mmod_Solvation_Energy-OPLS-2005>
-477.715972900391

> <b_mmod_Minimization_Converged-OPLS-2005>
0

> <r_mmod_RMS_Derivative-OPLS-2005>
2.24146699905396

$$$$
5
                    3D
 Structure written by MMmdl.
171180  0  0  1  0            999 V2000
  -30.6628  -14.5090   20.5526 C   0  0  0  0  0  0
  -30.4344  -12.3235   19.4266 C   0  0  0  0  0  0
  -29.5012  -12.5118   18.2104 C   0  0  0  0  0  0
  -28.0213  -12.3662   18.6218 C   0  0  0  0  0  0
  -27.6634  -13.2038   19.8789 C   0  0  2  0  0  0
  -28.7072  -12.9824   20.9989 C   0  0  0  0  0  0
  -25.2597  -13.8142   20.5677 C   0  0  0  0  0  0
  -24.1849  -13.0422   20.9178 C   0  0  0  0  0  0
  -24.6402  -11.6888   20.8732 C   0  0  0  0  0  0
  -23.9062  -10.4279   21.0402 C   0  0  0  0  0  0
  -24.3620   -9.4200   21.9181 C   0  0  0  0  0  0
  -23.6289   -8.2244   22.0756 C   0  0  0  0  0  0
  -22.4267   -8.0284   21.3554 C   0  0  0  0  0  0
  -21.9908   -9.0252   20.4652 C   0  0  0  0  0  0
  -22.7234  -10.2126   20.3060 C   0  0  0  0  0  0
  -21.6851   -6.0737   22.5284 C   0  0  0  0  0  0
  -21.4008   -6.5643   23.8215 C   0  0  0  0  0  0
  -21.3660   -5.6798   24.9180 C   0  0  0  0  0  0
  -21.6054   -4.3065   24.7235 C   0  0  0  0  0  0
  -21.8813   -3.8154   23.4355 C   0  0  0  0  0  0
  -21.9191   -4.6967   22.3408 C   0  0  0  0  0  0
  -22.7874  -13.5222   21.1854 C   0  0  0  0  0  0
  -22.1657   -4.2155   21.0980 F   0  0  0  0  0  0
  -21.5640   -3.4541   25.7747 F   0  0  0  0  0  0
  -30.0355  -13.3042   20.4486 N   0  0  0  0  0  0
  -26.3039  -12.9307   20.3389 N   0  0  0  0  0  0
  -25.9329  -11.6468   20.5776 N   0  0  0  0  0  0
  -22.0516  -12.8204   22.0409 N   0  0  0  0  0  0
  -25.4317  -15.1867   20.4085 N   0  0  0  0  0  0
  -31.7858  -14.7262   20.0898 O   0  0  0  0  0  0
  -21.6645   -6.8876   21.4241 O   0  0  0  0  0  0
  -22.3551  -14.5528   20.6713 O   0  0  0  0  0  0
  -24.6166  -31.8656   23.2083 C   0  0  0  0  0  0
  -25.9048  -32.4813   23.8390 C   0  0  1  0  0  0
  -27.2365  -27.4162   20.1069 C   0  0  0  0  0  0
  -25.5896  -33.8611   24.2321 N   0  0  0  0  0  0
  -23.4068  -30.4873   21.5487 C   0  0  2  0  0  0
  -24.8559  -28.9499   20.1137 C   0  0  0  0  0  0
  -22.7426  -29.4646   22.4988 C   0  0  0  0  0  0
  -18.0277  -28.1379   22.8501 C   0  0  0  0  0  0
  -24.1483  -36.7314   23.2638 C   0  0  0  0  0  0
  -25.9359  -30.8273   21.3625 C   0  0  0  0  0  0
  -26.0170  -29.4599   20.7095 C   0  0  0  0  0  0
  -27.2131  -28.7022   20.6992 C   0  0  0  0  0  0
  -26.0612  -26.9258   19.4991 C   0  0  0  0  0  0
  -24.8741  -27.6834   19.5035 C   0  0  0  0  0  0
  -23.6167  -29.8165   20.1644 C   0  0  0  0  0  0
  -25.4104  -36.3108   24.0338 C   0  0  1  0  0  0
  -20.5868  -28.3666   23.1318 C   0  0  2  0  0  0
  -20.6759  -26.9398   22.5420 C   0  0  0  0  0  0
  -19.5733  -26.6382   21.5220 C   0  0  0  0  0  0
  -18.1914  -26.7930   22.1631 C   0  0  0  0  0  0
  -19.1528  -28.8844   23.2904 C   0  0  0  0  0  0
  -18.9453  -30.1451   23.8907 C   0  0  0  0  0  0
  -17.6454  -30.6583   24.0571 C   0  0  0  0  0  0
  -25.9030  -34.9473   23.5131 C   0  0  0  0  0  0
  -16.5344  -29.9084   23.6329 C   0  0  0  0  0  0
  -16.7268  -28.6503   23.0351 C   0  0  0  0  0  0
  -26.4474  -31.6598   25.0728 C   0  0  0  0  0  0
  -25.3741  -31.3707   26.1481 C   0  0  0  0  0  0
  -27.0307  -30.3039   24.6111 C   0  0  0  0  0  0
  -27.6057  -32.4315   25.7484 C   0  0  0  0  0  0
  -27.5579  -37.1807   24.8465 C   0  0  0  0  0  0
  -21.4147  -29.3036   22.3730 N   0  0  0  0  0  0
  -26.4289  -37.3790   23.9414 N   0  0  0  0  0  0
  -24.6715  -31.0745   22.0989 N   0  0  0  0  0  0
  -23.4185  -28.8186   23.3037 O   0  0  0  0  0  0
  -28.3764  -26.6354   20.1258 O   0  0  0  0  0  0
  -26.5594  -34.8929   22.4692 O   0  0  0  0  0  0
  -23.5353  -32.1414   23.7467 O   0  0  0  0  0  0
  -30.5039  -22.3172   19.6421 C   0  0  0  0  0  0
  -28.0843  -21.6479   19.4858 C   0  0  0  0  0  0
  -30.0887  -23.6116   20.3931 C   0  0  0  0  0  0
  -27.7015  -22.9127   20.2927 C   0  0  0  0  0  0
  -28.9500  -19.7205   16.8826 C   0  0  0  0  0  0
  -29.5123  -21.1245   19.7974 C   0  0  1  0  0  0
  -28.6624  -24.0994   20.0403 C   0  0  1  0  0  0
  -28.4917  -18.5246   17.7060 C   0  0  2  0  0  0
  -29.9903  -19.8419   18.9968 C   0  0  1  0  0  0
  -26.9690  -18.3496   17.7803 C   0  0  0  0  0  0
  -28.2383  -25.3801   20.8336 C   0  0  0  0  0  0
  -29.7006  -17.3518   19.3330 C   0  0  0  0  0  0
  -30.0193  -16.9686   20.8005 C   0  0  0  0  0  0
  -29.0716  -18.6702   19.0611 N   0  0  0  0  0  0
  -29.8822  -15.5099   21.0103 N   0  0  0  0  0  0
  -30.1628  -20.1547   17.5680 N   0  3  0  0  0  0
  -31.4770  -12.4395   19.1254 H   0  0  0  0  0  0
  -30.3502  -11.3110   19.8241 H   0  0  0  0  0  0
  -29.7443  -11.7877   17.4322 H   0  0  0  0  0  0
  -29.6670  -13.4972   17.7717 H   0  0  0  0  0  0
  -27.8329  -11.3091   18.8156 H   0  0  0  0  0  0
  -27.3709  -12.6412   17.7907 H   0  0  0  0  0  0
  -27.7052  -14.2523   19.5827 H   0  0  0  0  0  0
  -28.6919  -11.9438   21.3323 H   0  0  0  0  0  0
  -28.4676  -13.5745   21.8833 H   0  0  0  0  0  0
  -25.2765   -9.5677   22.4750 H   0  0  0  0  0  0
  -24.0009   -7.4632   22.7461 H   0  0  0  0  0  0
  -21.0857   -8.8760   19.8944 H   0  0  0  0  0  0
  -22.3697  -10.9667   19.6174 H   0  0  0  0  0  0
  -21.1988   -7.6145   23.9719 H   0  0  0  0  0  0
  -21.1491   -6.0531   25.9082 H   0  0  0  0  0  0
  -22.0592   -2.7615   23.2861 H   0  0  0  0  0  0
  -22.4128  -11.9856   22.4782 H   0  0  0  0  0  0
  -21.1143  -13.1238   22.2630 H   0  0  0  0  0  0
  -24.6634  -15.8405   20.5149 H   0  0  0  0  0  0
  -26.2853  -15.6285   20.0928 H   0  0  0  0  0  0
  -26.7126  -32.5527   23.1159 H   0  0  0  0  0  0
  -25.0062  -33.9768   25.0480 H   0  0  0  0  0  0
  -22.6972  -31.3050   21.4068 H   0  0  0  0  0  0
  -23.3750  -35.9640   23.3289 H   0  0  0  0  0  0
  -24.3577  -36.8940   22.2053 H   0  0  0  0  0  0
  -23.7227  -37.6511   23.6663 H   0  0  0  0  0  0
  -26.0480  -31.5922   20.5928 H   0  0  0  0  0  0
  -26.8223  -30.8833   21.9825 H   0  0  0  0  0  0
  -28.1091  -29.0878   21.1654 H   0  0  0  0  0  0
  -26.0618  -25.9503   19.0326 H   0  0  0  0  0  0
  -23.9818  -27.2849   19.0415 H   0  0  0  0  0  0
  -23.7246  -30.5895   19.4029 H   0  0  0  0  0  0
  -22.7410  -29.2349   19.8698 H   0  0  0  0  0  0
  -25.1281  -36.1968   25.0828 H   0  0  0  0  0  0
  -20.9961  -28.3224   24.1439 H   0  0  0  0  0  0
  -20.5665  -26.2270   23.3611 H   0  0  0  0  0  0
  -21.6626  -26.7435   22.1206 H   0  0  0  0  0  0
  -19.6885  -25.6297   21.1237 H   0  0  0  0  0  0
  -19.6671  -27.3207   20.6763 H   0  0  0  0  0  0
  -17.4185  -26.6702   21.4026 H   0  0  0  0  0  0
  -18.0301  -26.0063   22.9018 H   0  0  0  0  0  0
  -19.7925  -30.7274   24.2267 H   0  0  0  0  0  0
  -17.5003  -31.6261   24.5170 H   0  0  0  0  0  0
  -15.5344  -30.2986   23.7642 H   0  0  0  0  0  0
  -15.8668  -28.0822   22.7056 H   0  0  0  0  0  0
  -24.5905  -30.7065   25.7818 H   0  0  0  0  0  0
  -24.8951  -32.2864   26.4955 H   0  0  0  0  0  0
  -25.8091  -30.8855   27.0225 H   0  0  0  0  0  0
  -26.2849  -29.6794   24.1177 H   0  0  0  0  0  0
  -27.4087  -29.7287   25.4573 H   0  0  0  0  0  0
  -27.8681  -30.4363   23.9257 H   0  0  0  0  0  0
  -27.2692  -33.3624   26.2059 H   0  0  0  0  0  0
  -28.3862  -32.6844   25.0298 H   0  0  0  0  0  0
  -28.0724  -31.8434   26.5395 H   0  0  0  0  0  0
  -28.2595  -38.0108   24.7516 H   0  0  0  0  0  0
  -28.1076  -36.2637   24.6282 H   0  0  0  0  0  0
  -27.2299  -37.1447   25.8869 H   0  0  0  0  0  0
  -20.9315  -29.8774   21.6961 H   0  0  0  0  0  0
  -26.0181  -38.2867   24.1422 H   0  0  0  0  0  0
  -31.4936  -22.0124   19.9853 H   0  0  0  0  0  0
  -30.6197  -22.5721   18.5891 H   0  0  0  0  0  0
  -27.9949  -21.9089   18.4348 H   0  0  0  0  0  0
  -27.3530  -20.8632   19.6804 H   0  0  0  0  0  0
  -30.8068  -24.4038   20.1769 H   0  0  0  0  0  0
  -30.1548  -23.4332   21.4674 H   0  0  0  0  0  0
  -27.6814  -22.6739   21.3572 H   0  0  0  0  0  0
  -26.6837  -23.2068   20.0303 H   0  0  0  0  0  0
  -28.1981  -20.5063   16.8613 H   0  0  0  0  0  0
  -29.1569  -19.4521   15.8458 H   0  0  0  0  0  0
  -29.5143  -20.8419   20.8514 H   0  0  0  0  0  0
  -28.6218  -24.3385   18.9765 H   0  0  0  0  0  0
  -28.9020  -17.6531   17.1881 H   0  0  0  0  0  0
  -30.9655  -19.5583   19.3960 H   0  0  0  0  0  0
  -26.4833  -19.2067   18.2451 H   0  0  0  0  0  0
  -26.7029  -17.4625   18.3549 H   0  0  0  0  0  0
  -26.5444  -18.2304   16.7828 H   0  0  0  0  0  0
  -28.8350  -25.4574   21.7432 H   0  0  0  0  0  0
  -27.2178  -25.2512   21.2007 H   0  0  0  0  0  0
  -28.9902  -16.5916   18.9983 H   0  0  0  0  0  0
  -30.5884  -17.2115   18.7127 H   0  0  0  0  0  0
  -29.3156  -17.4634   21.4713 H   0  0  0  0  0  0
  -31.0170  -17.3064   21.0848 H   0  0  0  0  0  0
  -28.9976  -15.2103   21.3929 H   0  0  0  0  0  0
  -30.3535  -21.1315   17.4183 H   0  0  0  0  0  0
  -30.9412  -19.6234   17.2132 H   0  0  0  0  0  0
  1 25  1  0  0  0
  1 30  2  0  0  0
  1 85  1  0  0  0
  2  3  1  0  0  0
  2 25  1  0  0  0
  2 87  1  0  0  0
  2 88  1  0  0  0
  3  4  1  0  0  0
  3 89  1  0  0  0
  3 90  1  0  0  0
  4  5  1  0  0  0
  4 91  1  0  0  0
  4 92  1  0  0  0
  5  6  1  0  0  0
  5 26  1  0  0  0
  5 93  1  0  0  0
  6 25  1  0  0  0
  6 94  1  0  0  0
  6 95  1  0  0  0
  7  8  2  0  0  0
  7 26  1  0  0  0
  7 29  1  0  0  0
  8  9  1  0  0  0
  8 22  1  0  0  0
  9 10  1  0  0  0
  9 27  2  0  0  0
 10 11  2  0  0  0
 10 15  1  0  0  0
 11 12  1  0  0  0
 11 96  1  0  0  0
 12 13  2  0  0  0
 12 97  1  0  0  0
 13 14  1  0  0  0
 13 31  1  0  0  0
 14 15  2  0  0  0
 14 98  1  0  0  0
 15 99  1  0  0  0
 16 17  2  0  0  0
 16 21  1  0  0  0
 16 31  1  0  0  0
 17 18  1  0  0  0
 17100  1  0  0  0
 18 19  2  0  0  0
 18101  1  0  0  0
 19 20  1  0  0  0
 19 24  1  0  0  0
 20 21  2  0  0  0
 20102  1  0  0  0
 21 23  1  0  0  0
 22 28  1  0  0  0
 22 32  2  0  0  0
 26 27  1  0  0  0
 28103  1  0  0  0
 28104  1  0  0  0
 29105  1  0  0  0
 29106  1  0  0  0
 33 34  1  0  0  0
 33 66  1  0  0  0
 33 70  2  0  0  0
 34 36  1  0  0  0
 34 59  1  0  0  0
 34107  1  0  0  0
 35 44  2  0  0  0
 35 45  1  0  0  0
 35 68  1  0  0  0
 36 56  1  0  0  0
 36108  1  0  0  0
 37 39  1  0  0  0
 37 47  1  0  0  0
 37 66  1  0  0  0
 37109  1  0  0  0
 38 43  2  0  0  0
 38 46  1  0  0  0
 38 47  1  0  0  0
 39 64  1  0  0  0
 39 67  2  0  0  0
 40 52  1  0  0  0
 40 53  2  0  0  0
 40 58  1  0  0  0
 41110  1  0  0  0
 41111  1  0  0  0
 41112  1  0  0  0
 41 48  1  0  0  0
 42 43  1  0  0  0
 42 66  1  0  0  0
 42113  1  0  0  0
 42114  1  0  0  0
 43 44  1  0  0  0
 44115  1  0  0  0
 45 46  2  0  0  0
 45116  1  0  0  0
 46117  1  0  0  0
 47118  1  0  0  0
 47119  1  0  0  0
 48 56  1  0  0  0
 48 65  1  0  0  0
 48120  1  0  0  0
 49 50  1  0  0  0
 49 53  1  0  0  0
 49 64  1  0  0  0
 49121  1  0  0  0
 50 51  1  0  0  0
 50122  1  0  0  0
 50123  1  0  0  0
 51 52  1  0  0  0
 51124  1  0  0  0
 51125  1  0  0  0
 52126  1  0  0  0
 52127  1  0  0  0
 53 54  1  0  0  0
 54 55  2  0  0  0
 54128  1  0  0  0
 55 57  1  0  0  0
 55129  1  0  0  0
 56 69  2  0  0  0
 57 58  2  0  0  0
 57130  1  0  0  0
 58131  1  0  0  0
 59 60  1  0  0  0
 59 61  1  0  0  0
 59 62  1  0  0  0
 60132  1  0  0  0
 60133  1  0  0  0
 60134  1  0  0  0
 61135  1  0  0  0
 61136  1  0  0  0
 61137  1  0  0  0
 62138  1  0  0  0
 62139  1  0  0  0
 62140  1  0  0  0
 63 65  1  0  0  0
 63141  1  0  0  0
 63142  1  0  0  0
 63143  1  0  0  0
 64144  1  0  0  0
 65145  1  0  0  0
 68 81  1  0  0  0
 71 73  1  0  0  0
 71146  1  0  0  0
 71147  1  0  0  0
 71 76  1  0  0  0
 72 74  1  0  0  0
 72 76  1  0  0  0
 72148  1  0  0  0
 72149  1  0  0  0
 73 77  1  0  0  0
 73150  1  0  0  0
 73151  1  0  0  0
 74 77  1  0  0  0
 74152  1  0  0  0
 74153  1  0  0  0
 75 78  1  0  0  0
 75 86  1  0  0  0
 75154  1  0  0  0
 75155  1  0  0  0
 76 79  1  0  0  0
 76156  1  0  0  0
 77 81  1  0  0  0
 77157  1  0  0  0
 78 80  1  0  0  0
 78 84  1  0  0  0
 78158  1  0  0  0
 79 84  1  0  0  0
 79 86  1  0  0  0
 79159  1  0  0  0
 80160  1  0  0  0
 80161  1  0  0  0
 80162  1  0  0  0
 81163  1  0  0  0
 81164  1  0  0  0
 82 83  1  0  0  0
 82 84  1  0  0  0
 82165  1  0  0  0
 82166  1  0  0  0
 83 85  1  0  0  0
 83167  1  0  0  0
 83168  1  0  0  0
 85169  1  0  0  0
 86170  1  0  0  0
 86171  1  0  0  0
M  CHG  1  86   1
M  ISO  4   1 100  68 101  81 101  85 100
M  END
> <chiral flag>
0

> <version>
0

> <s_m_source_file>
/data/baiqing/PycharmProjects/Reinvent-master-3.2/result/LINK_invent/BTK/process_docking_weight1_custom_sum_contain_oxygen_bond_distance_aromatic_linkinvent_7_9_3/rearranged_h_0124.sdf

> <i_m_source_file_index>
6

> <r_mmod_Potential_Energy-OPLS-2005>
-89.2701721191406

> <r_mmod_Stretch_Energy-OPLS-2005>
50.5065116882324

> <r_mmod_Bend_Energy-OPLS-2005>
130.42561340332

> <r_mmod_Torsional_Energy-OPLS-2005>
346.7421875

> <r_mmod_Improper_Torsional_Energy-OPLS-2005>
5.11585855484009

> <r_mmod_Van_der_Waal_Energy-OPLS-2005>
131.066650390625

> <r_mmod_Electrostatic_Energy-OPLS-2005>
-322.456451416016

> <r_mmod_Solvation_Energy-OPLS-2005>
-447.668121337891

> <b_mmod_Minimization_Converged-OPLS-2005>
0

> <r_mmod_RMS_Derivative-OPLS-2005>
1.29976618289948

$$$$
6
                    3D
 Structure written by MMmdl.
157165  0  0  1  0            999 V2000
  -30.6760  -14.6260   20.4484 C   0  0  0  0  0  0
  -30.4154  -12.3748   19.4701 C   0  0  0  0  0  0
  -29.5050  -12.4883   18.2300 C   0  0  0  0  0  0
  -28.0276  -12.3407   18.6389 C   0  0  0  0  0  0
  -27.6462  -13.2279   19.8554 C   0  0  2  0  0  0
  -28.6890  -13.1363   20.9924 C   0  0  0  0  0  0
  -25.2537  -13.8194   20.5695 C   0  0  0  0  0  0
  -24.1830  -13.0446   20.9217 C   0  0  0  0  0  0
  -24.6405  -11.6915   20.8756 C   0  0  0  0  0  0
  -23.9073  -10.4299   21.0416 C   0  0  0  0  0  0
  -24.3626   -9.4212   21.9190 C   0  0  0  0  0  0
  -23.6308   -8.2243   22.0747 C   0  0  0  0  0  0
  -22.4282   -8.0291   21.3548 C   0  0  0  0  0  0
  -21.9925   -9.0258   20.4640 C   0  0  0  0  0  0
  -22.7249  -10.2139   20.3056 C   0  0  0  0  0  0
  -21.6854   -6.0751   22.5285 C   0  0  0  0  0  0
  -21.4016   -6.5652   23.8223 C   0  0  0  0  0  0
  -21.3660   -5.6802   24.9184 C   0  0  0  0  0  0
  -21.6037   -4.3063   24.7227 C   0  0  0  0  0  0
  -21.8823   -3.8157   23.4351 C   0  0  0  0  0  0
  -21.9198   -4.6978   22.3409 C   0  0  0  0  0  0
  -22.7855  -13.5237   21.1884 C   0  0  0  0  0  0
  -22.1671   -4.2166   21.0986 F   0  0  0  0  0  0
  -21.5620   -3.4542   25.7740 F   0  0  0  0  0  0
  -30.0035  -13.4347   20.4124 N   0  0  0  0  0  0
  -26.2960  -12.9395   20.3289 N   0  0  0  0  0  0
  -25.9337  -11.6538   20.5762 N   0  0  0  0  0  0
  -22.0489  -12.8212   22.0409 N   0  0  0  0  0  0
  -25.4232  -15.1917   20.4093 N   0  0  0  0  0  0
  -31.8742  -14.6737   20.1614 O   0  0  0  0  0  0
  -21.6649   -6.8887   21.4242 O   0  0  0  0  0  0
  -22.3550  -14.5556   20.6743 O   0  0  0  0  0  0
  -24.6231  -31.8635   23.2047 C   0  0  0  0  0  0
  -25.9095  -32.4786   23.8370 C   0  0  1  0  0  0
  -27.2099  -27.3246   20.1192 C   0  0  0  0  0  0
  -25.5932  -33.8588   24.2287 N   0  0  0  0  0  0
  -23.4155  -30.4896   21.5466 C   0  0  2  0  0  0
  -24.8631  -28.9510   20.1075 C   0  0  0  0  0  0
  -22.7454  -29.4633   22.4907 C   0  0  0  0  0  0
  -18.0281  -28.1378   22.8468 C   0  0  0  0  0  0
  -24.1494  -36.7304   23.2638 C   0  0  0  0  0  0
  -25.9573  -30.7958   21.3762 C   0  0  0  0  0  0
  -26.0324  -29.4246   20.7179 C   0  0  0  0  0  0
  -27.2124  -28.6227   20.7144 C   0  0  0  0  0  0
  -26.0269  -26.9163   19.4631 C   0  0  0  0  0  0
  -24.8632  -27.7046   19.4680 C   0  0  0  0  0  0
  -23.6315  -29.8317   20.1578 C   0  0  0  0  0  0
  -25.4114  -36.3092   24.0333 C   0  0  1  0  0  0
  -20.5877  -28.3690   23.1285 C   0  0  2  0  0  0
  -20.6774  -26.9418   22.5411 C   0  0  0  0  0  0
  -19.5751  -26.6380   21.5210 C   0  0  0  0  0  0
  -18.1932  -26.7917   22.1611 C   0  0  0  0  0  0
  -19.1532  -28.8848   23.2879 C   0  0  0  0  0  0
  -18.9466  -30.1446   23.8905 C   0  0  0  0  0  0
  -17.6471  -30.6597   24.0556 C   0  0  0  0  0  0
  -25.9055  -34.9461   23.5115 C   0  0  0  0  0  0
  -16.5355  -29.9096   23.6324 C   0  0  0  0  0  0
  -16.7273  -28.6508   23.0347 C   0  0  0  0  0  0
  -26.4488  -31.6586   25.0724 C   0  0  0  0  0  0
  -25.3728  -31.3731   26.1448 C   0  0  0  0  0  0
  -27.0320  -30.3011   24.6164 C   0  0  0  0  0  0
  -27.6042  -32.4335   25.7507 C   0  0  0  0  0  0
  -27.5574  -37.1805   24.8465 C   0  0  0  0  0  0
  -21.4170  -29.3047   22.3667 N   0  0  0  0  0  0
  -26.4284  -37.3782   23.9414 N   0  0  0  0  0  0
  -24.6841  -31.0654   22.0991 N   0  0  0  0  0  0
  -23.4199  -28.8154   23.2950 O   0  0  0  0  0  0
  -28.3034  -26.4479   20.1624 O   0  0  0  0  0  0
  -26.5635  -34.8939   22.4682 O   0  0  0  0  0  0
  -23.5405  -32.1421   23.7396 O   0  0  0  0  0  0
  -30.3157  -20.9651   20.2822 C   0  0  0  0  0  0
  -28.5528  -18.8687   20.4089 C   0  0  0  0  0  0
  -30.8049  -19.6319   20.1433 C   0  0  0  0  0  0
  -29.9069  -18.5165   20.1861 C   0  0  0  0  0  0
  -28.9424  -21.2063   20.4712 C   0  0  0  0  0  0
  -32.2936  -19.4466   19.8943 C   0  0  0  0  0  0
  -30.0838  -16.8810   18.2696 C   0  0  0  0  0  0
  -28.9240  -23.8284   20.2139 C   0  0  0  0  0  0
  -28.0148  -25.0706   20.6336 C   0  0  0  0  0  0
  -30.3741  -17.0560   19.7747 C   0  0  2  0  0  0
  -28.0938  -20.1524   20.5549 N   0  0  0  0  0  0
  -28.3530  -22.4996   20.6025 N   0  0  0  0  0  0
  -29.9397  -15.7891   20.4805 N   0  0  0  0  0  0
  -31.4639  -12.4573   19.1781 H   0  0  0  0  0  0
  -30.3140  -11.3936   19.9359 H   0  0  0  0  0  0
  -29.7669  -11.7233   17.4985 H   0  0  0  0  0  0
  -29.6628  -13.4496   17.7393 H   0  0  0  0  0  0
  -27.8623  -11.2903   18.8799 H   0  0  0  0  0  0
  -27.3773  -12.5619   17.7921 H   0  0  0  0  0  0
  -27.6502  -14.2547   19.4886 H   0  0  0  0  0  0
  -28.6888  -12.1416   21.4409 H   0  0  0  0  0  0
  -28.4493  -13.8361   21.7945 H   0  0  0  0  0  0
  -25.2764   -9.5703   22.4773 H   0  0  0  0  0  0
  -24.0026   -7.4636   22.7464 H   0  0  0  0  0  0
  -21.0858   -8.8779   19.8942 H   0  0  0  0  0  0
  -22.3709  -10.9688   19.6175 H   0  0  0  0  0  0
  -21.2008   -7.6158   23.9733 H   0  0  0  0  0  0
  -21.1473   -6.0529   25.9089 H   0  0  0  0  0  0
  -22.0595   -2.7616   23.2845 H   0  0  0  0  0  0
  -22.4108  -11.9878   22.4809 H   0  0  0  0  0  0
  -21.1099  -13.1227   22.2596 H   0  0  0  0  0  0
  -24.6458  -15.8365   20.4950 H   0  0  0  0  0  0
  -26.2593  -15.6239   20.0395 H   0  0  0  0  0  0
  -26.7139  -32.5455   23.1107 H   0  0  0  0  0  0
  -25.0012  -33.9749   25.0385 H   0  0  0  0  0  0
  -22.7083  -31.3113   21.4068 H   0  0  0  0  0  0
  -23.3758  -35.9634   23.3307 H   0  0  0  0  0  0
  -24.3561  -36.8920   22.2046 H   0  0  0  0  0  0
  -23.7274  -37.6515   23.6661 H   0  0  0  0  0  0
  -26.0897  -31.5624   20.6109 H   0  0  0  0  0  0
  -26.8371  -30.8421   22.0048 H   0  0  0  0  0  0
  -28.1073  -28.9785   21.2050 H   0  0  0  0  0  0
  -25.9831  -25.9691   18.9460 H   0  0  0  0  0  0
  -23.9710  -27.3476   18.9729 H   0  0  0  0  0  0
  -23.7588  -30.6171   19.4109 H   0  0  0  0  0  0
  -22.7507  -29.2691   19.8414 H   0  0  0  0  0  0
  -25.1295  -36.1926   25.0821 H   0  0  0  0  0  0
  -20.9964  -28.3270   24.1413 H   0  0  0  0  0  0
  -20.5698  -26.2303   23.3616 H   0  0  0  0  0  0
  -21.6647  -26.7465   22.1194 H   0  0  0  0  0  0
  -19.6939  -25.6297   21.1247 H   0  0  0  0  0  0
  -19.6692  -27.3183   20.6735 H   0  0  0  0  0  0
  -17.4202  -26.6670   21.4015 H   0  0  0  0  0  0
  -18.0341  -26.0061   22.9017 H   0  0  0  0  0  0
  -19.7953  -30.7244   24.2287 H   0  0  0  0  0  0
  -17.5045  -31.6277   24.5160 H   0  0  0  0  0  0
  -15.5370  -30.3017   23.7648 H   0  0  0  0  0  0
  -15.8661  -28.0842   22.7059 H   0  0  0  0  0  0
  -24.5929  -30.7041   25.7789 H   0  0  0  0  0  0
  -24.8892  -32.2901   26.4835 H   0  0  0  0  0  0
  -25.8057  -30.8945   27.0246 H   0  0  0  0  0  0
  -26.2867  -29.6776   24.1197 H   0  0  0  0  0  0
  -27.4039  -29.7244   25.4643 H   0  0  0  0  0  0
  -27.8750  -30.4280   23.9361 H   0  0  0  0  0  0
  -27.2632  -33.3653   26.2033 H   0  0  0  0  0  0
  -28.3877  -32.6876   25.0354 H   0  0  0  0  0  0
  -28.0682  -31.8506   26.5468 H   0  0  0  0  0  0
  -28.2583  -38.0108   24.7499 H   0  0  0  0  0  0
  -28.1080  -36.2635   24.6297 H   0  0  0  0  0  0
  -27.2292  -37.1467   25.8869 H   0  0  0  0  0  0
  -20.9352  -29.8828   21.6926 H   0  0  0  0  0  0
  -26.0170  -38.2854   24.1432 H   0  0  0  0  0  0
  -31.0028  -21.7982   20.2246 H   0  0  0  0  0  0
  -27.7970  -18.0976   20.4009 H   0  0  0  0  0  0
  -32.8324  -20.3941   19.9371 H   0  0  0  0  0  0
  -32.4655  -19.0115   18.9107 H   0  0  0  0  0  0
  -32.7392  -18.7914   20.6426 H   0  0  0  0  0  0
  -30.5567  -17.6702   17.6840 H   0  0  0  0  0  0
  -29.0137  -16.9062   18.0583 H   0  0  0  0  0  0
  -30.4653  -15.9346   17.8849 H   0  0  0  0  0  0
  -29.9217  -23.9381   20.6405 H   0  0  0  0  0  0
  -29.0504  -23.8326   19.1307 H   0  0  0  0  0  0
  -28.0118  -25.1308   21.7232 H   0  0  0  0  0  0
  -26.9949  -24.7839   20.3869 H   0  0  0  0  0  0
  -31.4581  -17.0596   19.8735 H   0  0  0  0  0  0
  -27.3501  -22.4958   20.7525 H   0  0  0  0  0  0
  -28.9618  -15.6914   20.7046 H   0  0  0  0  0  0
  1 25  1  0  0  0
  1 30  2  0  0  0
  1 83  1  0  0  0
  2  3  1  0  0  0
  2 25  1  0  0  0
  2 84  1  0  0  0
  2 85  1  0  0  0
  3  4  1  0  0  0
  3 86  1  0  0  0
  3 87  1  0  0  0
  4  5  1  0  0  0
  4 88  1  0  0  0
  4 89  1  0  0  0
  5  6  1  0  0  0
  5 26  1  0  0  0
  5 90  1  0  0  0
  6 25  1  0  0  0
  6 91  1  0  0  0
  6 92  1  0  0  0
  7  8  2  0  0  0
  7 26  1  0  0  0
  7 29  1  0  0  0
  8  9  1  0  0  0
  8 22  1  0  0  0
  9 10  1  0  0  0
  9 27  2  0  0  0
 10 11  2  0  0  0
 10 15  1  0  0  0
 11 12  1  0  0  0
 11 93  1  0  0  0
 12 13  2  0  0  0
 12 94  1  0  0  0
 13 14  1  0  0  0
 13 31  1  0  0  0
 14 15  2  0  0  0
 14 95  1  0  0  0
 15 96  1  0  0  0
 16 17  2  0  0  0
 16 21  1  0  0  0
 16 31  1  0  0  0
 17 18  1  0  0  0
 17 97  1  0  0  0
 18 19  2  0  0  0
 18 98  1  0  0  0
 19 20  1  0  0  0
 19 24  1  0  0  0
 20 21  2  0  0  0
 20 99  1  0  0  0
 21 23  1  0  0  0
 22 28  1  0  0  0
 22 32  2  0  0  0
 26 27  1  0  0  0
 28100  1  0  0  0
 28101  1  0  0  0
 29102  1  0  0  0
 29103  1  0  0  0
 33 34  1  0  0  0
 33 66  1  0  0  0
 33 70  2  0  0  0
 34 36  1  0  0  0
 34 59  1  0  0  0
 34104  1  0  0  0
 35 44  2  0  0  0
 35 45  1  0  0  0
 35 68  1  0  0  0
 36 56  1  0  0  0
 36105  1  0  0  0
 37 39  1  0  0  0
 37 47  1  0  0  0
 37 66  1  0  0  0
 37106  1  0  0  0
 38 43  2  0  0  0
 38 46  1  0  0  0
 38 47  1  0  0  0
 39 64  1  0  0  0
 39 67  2  0  0  0
 40 52  1  0  0  0
 40 53  2  0  0  0
 40 58  1  0  0  0
 41107  1  0  0  0
 41108  1  0  0  0
 41109  1  0  0  0
 41 48  1  0  0  0
 42 43  1  0  0  0
 42 66  1  0  0  0
 42110  1  0  0  0
 42111  1  0  0  0
 43 44  1  0  0  0
 44112  1  0  0  0
 45 46  2  0  0  0
 45113  1  0  0  0
 46114  1  0  0  0
 47115  1  0  0  0
 47116  1  0  0  0
 48 56  1  0  0  0
 48 65  1  0  0  0
 48117  1  0  0  0
 49 50  1  0  0  0
 49 53  1  0  0  0
 49 64  1  0  0  0
 49118  1  0  0  0
 50 51  1  0  0  0
 50119  1  0  0  0
 50120  1  0  0  0
 51 52  1  0  0  0
 51121  1  0  0  0
 51122  1  0  0  0
 52123  1  0  0  0
 52124  1  0  0  0
 53 54  1  0  0  0
 54 55  2  0  0  0
 54125  1  0  0  0
 55 57  1  0  0  0
 55126  1  0  0  0
 56 69  2  0  0  0
 57 58  2  0  0  0
 57127  1  0  0  0
 58128  1  0  0  0
 59 60  1  0  0  0
 59 61  1  0  0  0
 59 62  1  0  0  0
 60129  1  0  0  0
 60130  1  0  0  0
 60131  1  0  0  0
 61132  1  0  0  0
 61133  1  0  0  0
 61134  1  0  0  0
 62135  1  0  0  0
 62136  1  0  0  0
 62137  1  0  0  0
 63 65  1  0  0  0
 63138  1  0  0  0
 63139  1  0  0  0
 63140  1  0  0  0
 64141  1  0  0  0
 65142  1  0  0  0
 68 79  1  0  0  0
 71 73  2  0  0  0
 71 75  1  0  0  0
 71143  1  0  0  0
 72 74  2  0  0  0
 72 81  1  0  0  0
 72144  1  0  0  0
 73 74  1  0  0  0
 73 76  1  0  0  0
 74 80  1  0  0  0
 75 81  2  0  0  0
 75 82  1  0  0  0
 76145  1  0  0  0
 76146  1  0  0  0
 76147  1  0  0  0
 77148  1  0  0  0
 77149  1  0  0  0
 77150  1  0  0  0
 77 80  1  0  0  0
 78 79  1  0  0  0
 78 82  1  0  0  0
 78151  1  0  0  0
 78152  1  0  0  0
 79153  1  0  0  0
 79154  1  0  0  0
 80 83  1  0  0  0
 80155  1  0  0  0
 82156  1  0  0  0
 83157  1  0  0  0
M  ISO  4   1 100  68 101  79 101  83 100
M  END
> <chiral flag>
0

> <version>
0

> <s_m_source_file>
/data/baiqing/PycharmProjects/Reinvent-master-3.2/result/LINK_invent/BTK/process_docking_weight1_custom_sum_contain_oxygen_bond_distance_aromatic_linkinvent_7_9_3/rearranged_h_0124.sdf

> <i_m_source_file_index>
7

> <r_mmod_Potential_Energy-OPLS-2005>
-106.729820251465

> <r_mmod_Stretch_Energy-OPLS-2005>
79.371711730957

> <r_mmod_Bend_Energy-OPLS-2005>
154.895980834961

> <r_mmod_Torsional_Energy-OPLS-2005>
223.018020629883

> <r_mmod_Improper_Torsional_Energy-OPLS-2005>
11.5241785049438

> <r_mmod_Van_der_Waal_Energy-OPLS-2005>
149.280609130859

> <r_mmod_Electrostatic_Energy-OPLS-2005>
-545.724792480469

> <r_mmod_Solvation_Energy-OPLS-2005>
-231.880615234375

> <b_mmod_Minimization_Converged-OPLS-2005>
0

> <r_mmod_RMS_Derivative-OPLS-2005>
2.464275598526

$$$$
7
                    3D
 Structure written by MMmdl.
168177  0  0  1  0            999 V2000
  -30.6596  -14.4768   20.5395 C   0  0  0  0  0  0
  -30.4318  -12.2983   19.4227 C   0  0  0  0  0  0
  -29.4950  -12.5033   18.2106 C   0  0  0  0  0  0
  -28.0144  -12.3666   18.6209 C   0  0  0  0  0  0
  -27.6642  -13.1980   19.8836 C   0  0  2  0  0  0
  -28.7090  -12.9549   21.0006 C   0  0  0  0  0  0
  -25.2590  -13.8144   20.5697 C   0  0  0  0  0  0
  -24.1831  -13.0427   20.9190 C   0  0  0  0  0  0
  -24.6384  -11.6894   20.8750 C   0  0  0  0  0  0
  -23.9045  -10.4286   21.0407 C   0  0  0  0  0  0
  -24.3605   -9.4197   21.9172 C   0  0  0  0  0  0
  -23.6285   -8.2231   22.0743 C   0  0  0  0  0  0
  -22.4265   -8.0276   21.3538 C   0  0  0  0  0  0
  -21.9903   -9.0248   20.4638 C   0  0  0  0  0  0
  -22.7225  -10.2128   20.3045 C   0  0  0  0  0  0
  -21.6848   -6.0735   22.5282 C   0  0  0  0  0  0
  -21.4006   -6.5638   23.8218 C   0  0  0  0  0  0
  -21.3657   -5.6791   24.9179 C   0  0  0  0  0  0
  -21.6049   -4.3054   24.7224 C   0  0  0  0  0  0
  -21.8817   -3.8143   23.4344 C   0  0  0  0  0  0
  -21.9186   -4.6963   22.3399 C   0  0  0  0  0  0
  -22.7850  -13.5223   21.1849 C   0  0  0  0  0  0
  -22.1655   -4.2150   21.0976 F   0  0  0  0  0  0
  -21.5633   -3.4533   25.7733 F   0  0  0  0  0  0
  -30.0433  -13.2679   20.4571 N   0  0  0  0  0  0
  -26.3032  -12.9293   20.3418 N   0  0  0  0  0  0
  -25.9311  -11.6464   20.5806 N   0  0  0  0  0  0
  -22.0507  -12.8215   22.0426 N   0  0  0  0  0  0
  -25.4299  -15.1860   20.4072 N   0  0  0  0  0  0
  -31.7920  -14.6943   20.0991 O   0  0  0  0  0  0
  -21.6627   -6.8874   21.4243 O   0  0  0  0  0  0
  -22.3518  -14.5511   20.6691 O   0  0  0  0  0  0
  -24.6126  -31.8678   23.2094 C   0  0  0  0  0  0
  -25.9026  -32.4814   23.8388 C   0  0  1  0  0  0
  -27.2450  -27.4451   20.0747 C   0  0  0  0  0  0
  -25.5882  -33.8615   24.2317 N   0  0  0  0  0  0
  -23.4001  -30.4894   21.5504 C   0  0  2  0  0  0
  -24.8462  -28.9544   20.1144 C   0  0  0  0  0  0
  -22.7392  -29.4657   22.5005 C   0  0  0  0  0  0
  -18.0264  -28.1376   22.8494 C   0  0  0  0  0  0
  -24.1485  -36.7312   23.2637 C   0  0  0  0  0  0
  -25.9275  -30.8323   21.3626 C   0  0  0  0  0  0
  -26.0038  -29.4659   20.7120 C   0  0  0  0  0  0
  -27.1993  -28.7132   20.6988 C   0  0  0  0  0  0
  -26.0587  -26.9353   19.4960 C   0  0  0  0  0  0
  -24.8673  -27.6861   19.5092 C   0  0  0  0  0  0
  -23.6063  -29.8180   20.1655 C   0  0  0  0  0  0
  -25.4105  -36.3108   24.0337 C   0  0  1  0  0  0
  -20.5851  -28.3658   23.1326 C   0  0  2  0  0  0
  -20.6752  -26.9395   22.5426 C   0  0  0  0  0  0
  -19.5737  -26.6388   21.5212 C   0  0  0  0  0  0
  -18.1911  -26.7926   22.1618 C   0  0  0  0  0  0
  -19.1513  -28.8832   23.2908 C   0  0  0  0  0  0
  -18.9445  -30.1440   23.8918 C   0  0  0  0  0  0
  -17.6447  -30.6580   24.0568 C   0  0  0  0  0  0
  -25.9036  -34.9475   23.5130 C   0  0  0  0  0  0
  -16.5339  -29.9084   23.6324 C   0  0  0  0  0  0
  -16.7255  -28.6502   23.0346 C   0  0  0  0  0  0
  -26.4457  -31.6587   25.0712 C   0  0  0  0  0  0
  -25.3724  -31.3683   26.1459 C   0  0  0  0  0  0
  -27.0275  -30.3031   24.6078 C   0  0  0  0  0  0
  -27.6049  -32.4294   25.7458 C   0  0  0  0  0  0
  -27.5588  -37.1797   24.8454 C   0  0  0  0  0  0
  -21.4123  -29.3025   22.3736 N   0  0  0  0  0  0
  -26.4285  -37.3798   23.9421 N   0  0  0  0  0  0
  -24.6650  -31.0775   22.0996 N   0  0  0  0  0  0
  -23.4167  -28.8202   23.3048 O   0  0  0  0  0  0
  -28.4406  -26.7533   20.0878 O   0  0  0  0  0  0
  -26.5611  -34.8927   22.4700 O   0  0  0  0  0  0
  -23.5323  -32.1429   23.7494 O   0  0  0  0  0  0
  -28.7042  -23.2491   18.8683 C   0  0  0  0  0  0
  -29.0945  -21.9664   19.3071 C   0  0  0  0  0  0
  -29.8328  -24.2413   20.7702 C   0  0  0  0  0  0
  -29.0709  -24.4002   19.5950 C   0  0  0  0  0  0
  -30.2383  -22.9590   21.2133 C   0  0  0  0  0  0
  -29.8735  -21.7979   20.4790 C   0  0  0  0  0  0
  -31.1903  -17.7320   18.4472 C   0  0  0  0  0  0
  -31.0383  -19.1771   18.9717 C   0  0  0  0  0  0
  -29.9529  -16.8674   18.7375 C   0  0  0  0  0  0
  -30.1860  -18.0080   21.0528 C   0  0  0  0  0  0
  -30.0785  -19.2868   20.1804 C   0  0  1  0  0  0
  -29.6270  -16.7945   20.2589 C   0  0  2  0  0  0
  -30.2351  -22.5926   23.7274 C   0  0  0  0  0  0
  -31.0811  -22.8770   22.4803 C   0  0  0  0  0  0
  -28.7294  -25.7920   19.0633 C   0  0  0  0  0  0
  -30.2897  -20.5267   20.9328 N   0  0  0  0  0  0
  -29.8211  -15.4713   20.8886 N   0  0  0  0  0  0
  -31.4737  -12.4134   19.1184 H   0  0  0  0  0  0
  -30.3429  -11.2817   19.8095 H   0  0  0  0  0  0
  -29.7313  -11.7822   17.4273 H   0  0  0  0  0  0
  -29.6638  -13.4895   17.7766 H   0  0  0  0  0  0
  -27.8213  -11.3093   18.8065 H   0  0  0  0  0  0
  -27.3642  -12.6516   17.7925 H   0  0  0  0  0  0
  -27.7106  -14.2469   19.5936 H   0  0  0  0  0  0
  -28.6837  -11.9116   21.3178 H   0  0  0  0  0  0
  -28.4788  -13.5357   21.8949 H   0  0  0  0  0  0
  -25.2760   -9.5673   22.4730 H   0  0  0  0  0  0
  -23.9999   -7.4622   22.7459 H   0  0  0  0  0  0
  -21.0831   -8.8766   19.8939 H   0  0  0  0  0  0
  -22.3690  -10.9663   19.6148 H   0  0  0  0  0  0
  -21.1988   -7.6145   23.9718 H   0  0  0  0  0  0
  -21.1487   -6.0521   25.9084 H   0  0  0  0  0  0
  -22.0592   -2.7604   23.2846 H   0  0  0  0  0  0
  -22.4133  -11.9873   22.4799 H   0  0  0  0  0  0
  -21.1117  -13.1222   22.2634 H   0  0  0  0  0  0
  -24.6601  -15.8394   20.5033 H   0  0  0  0  0  0
  -26.2774  -15.6241   20.0705 H   0  0  0  0  0  0
  -26.7096  -32.5524   23.1152 H   0  0  0  0  0  0
  -25.0001  -33.9779   25.0440 H   0  0  0  0  0  0
  -22.6884  -31.3061   21.4107 H   0  0  0  0  0  0
  -23.3752  -35.9638   23.3279 H   0  0  0  0  0  0
  -24.3587  -36.8949   22.2055 H   0  0  0  0  0  0
  -23.7225  -37.6506   23.6665 H   0  0  0  0  0  0
  -26.0387  -31.5973   20.5927 H   0  0  0  0  0  0
  -26.8159  -30.8867   21.9798 H   0  0  0  0  0  0
  -28.0936  -29.1083   21.1603 H   0  0  0  0  0  0
  -26.0261  -25.9538   19.0462 H   0  0  0  0  0  0
  -23.9732  -27.2795   19.0561 H   0  0  0  0  0  0
  -23.7063  -30.5904   19.4019 H   0  0  0  0  0  0
  -22.7317  -29.2321   19.8768 H   0  0  0  0  0  0
  -25.1277  -36.1970   25.0827 H   0  0  0  0  0  0
  -20.9940  -28.3223   24.1448 H   0  0  0  0  0  0
  -20.5638  -26.2267   23.3610 H   0  0  0  0  0  0
  -21.6626  -26.7431   22.1229 H   0  0  0  0  0  0
  -19.6899  -25.6304   21.1225 H   0  0  0  0  0  0
  -19.6680  -27.3217   20.6755 H   0  0  0  0  0  0
  -17.4183  -26.6681   21.4015 H   0  0  0  0  0  0
  -18.0309  -26.0057   22.9003 H   0  0  0  0  0  0
  -19.7918  -30.7253   24.2298 H   0  0  0  0  0  0
  -17.5000  -31.6264   24.5167 H   0  0  0  0  0  0
  -15.5341  -30.2998   23.7636 H   0  0  0  0  0  0
  -15.8652  -28.0835   22.7049 H   0  0  0  0  0  0
  -24.5933  -30.6983   25.7800 H   0  0  0  0  0  0
  -24.8863  -32.2823   26.4883 H   0  0  0  0  0  0
  -25.8085  -30.8885   27.0229 H   0  0  0  0  0  0
  -26.2809  -29.6799   24.1138 H   0  0  0  0  0  0
  -27.4049  -29.7259   25.4528 H   0  0  0  0  0  0
  -27.8643  -30.4344   23.9214 H   0  0  0  0  0  0
  -27.2697  -33.3597   26.2055 H   0  0  0  0  0  0
  -28.3840  -32.6841   25.0260 H   0  0  0  0  0  0
  -28.0732  -31.8394   26.5346 H   0  0  0  0  0  0
  -28.2582  -38.0120   24.7549 H   0  0  0  0  0  0
  -28.1108  -36.2656   24.6210 H   0  0  0  0  0  0
  -27.2319  -37.1366   25.8859 H   0  0  0  0  0  0
  -20.9281  -29.8748   21.6962 H   0  0  0  0  0  0
  -26.0172  -38.2867   24.1456 H   0  0  0  0  0  0
  -28.1320  -23.3442   17.9559 H   0  0  0  0  0  0
  -28.7888  -21.1210   18.7098 H   0  0  0  0  0  0
  -30.1256  -25.1201   21.3276 H   0  0  0  0  0  0
  -32.0564  -17.2680   18.9203 H   0  0  0  0  0  0
  -31.4062  -17.7457   17.3786 H   0  0  0  0  0  0
  -30.6851  -19.8226   18.1667 H   0  0  0  0  0  0
  -32.0310  -19.5476   19.2327 H   0  0  0  0  0  0
  -30.0587  -15.8833   18.2812 H   0  0  0  0  0  0
  -29.1046  -17.3187   18.2204 H   0  0  0  0  0  0
  -29.6225  -18.1212   21.9802 H   0  0  0  0  0  0
  -31.2249  -17.8358   21.3380 H   0  0  0  0  0  0
  -29.0527  -19.3052   19.8090 H   0  0  0  0  0  0
  -28.5426  -16.9087   20.3056 H   0  0  0  0  0  0
  -30.8541  -22.5887   24.6250 H   0  0  0  0  0  0
  -29.7424  -21.6227   23.6579 H   0  0  0  0  0  0
  -29.4637  -23.3519   23.8597 H   0  0  0  0  0  0
  -31.6132  -23.8199   22.6141 H   0  0  0  0  0  0
  -31.8596  -22.1210   22.3688 H   0  0  0  0  0  0
  -27.9796  -25.7291   18.2764 H   0  0  0  0  0  0
  -29.6229  -26.1519   18.5522 H   0  0  0  0  0  0
  -30.8408  -20.4793   21.7831 H   0  0  0  0  0  0
  -28.9951  -15.1266   21.3561 H   0  0  0  0  0  0
  1 25  1  0  0  0
  1 30  2  0  0  0
  1 87  1  0  0  0
  2  3  1  0  0  0
  2 25  1  0  0  0
  2 88  1  0  0  0
  2 89  1  0  0  0
  3  4  1  0  0  0
  3 90  1  0  0  0
  3 91  1  0  0  0
  4  5  1  0  0  0
  4 92  1  0  0  0
  4 93  1  0  0  0
  5  6  1  0  0  0
  5 26  1  0  0  0
  5 94  1  0  0  0
  6 25  1  0  0  0
  6 95  1  0  0  0
  6 96  1  0  0  0
  7  8  2  0  0  0
  7 26  1  0  0  0
  7 29  1  0  0  0
  8  9  1  0  0  0
  8 22  1  0  0  0
  9 10  1  0  0  0
  9 27  2  0  0  0
 10 11  2  0  0  0
 10 15  1  0  0  0
 11 12  1  0  0  0
 11 97  1  0  0  0
 12 13  2  0  0  0
 12 98  1  0  0  0
 13 14  1  0  0  0
 13 31  1  0  0  0
 14 15  2  0  0  0
 14 99  1  0  0  0
 15100  1  0  0  0
 16 17  2  0  0  0
 16 21  1  0  0  0
 16 31  1  0  0  0
 17 18  1  0  0  0
 17101  1  0  0  0
 18 19  2  0  0  0
 18102  1  0  0  0
 19 20  1  0  0  0
 19 24  1  0  0  0
 20 21  2  0  0  0
 20103  1  0  0  0
 21 23  1  0  0  0
 22 28  1  0  0  0
 22 32  2  0  0  0
 26 27  1  0  0  0
 28104  1  0  0  0
 28105  1  0  0  0
 29106  1  0  0  0
 29107  1  0  0  0
 33 34  1  0  0  0
 33 66  1  0  0  0
 33 70  2  0  0  0
 34 36  1  0  0  0
 34 59  1  0  0  0
 34108  1  0  0  0
 35 44  2  0  0  0
 35 45  1  0  0  0
 35 68  1  0  0  0
 36 56  1  0  0  0
 36109  1  0  0  0
 37 39  1  0  0  0
 37 47  1  0  0  0
 37 66  1  0  0  0
 37110  1  0  0  0
 38 43  2  0  0  0
 38 46  1  0  0  0
 38 47  1  0  0  0
 39 64  1  0  0  0
 39 67  2  0  0  0
 40 52  1  0  0  0
 40 53  2  0  0  0
 40 58  1  0  0  0
 41111  1  0  0  0
 41112  1  0  0  0
 41113  1  0  0  0
 41 48  1  0  0  0
 42 43  1  0  0  0
 42 66  1  0  0  0
 42114  1  0  0  0
 42115  1  0  0  0
 43 44  1  0  0  0
 44116  1  0  0  0
 45 46  2  0  0  0
 45117  1  0  0  0
 46118  1  0  0  0
 47119  1  0  0  0
 47120  1  0  0  0
 48 56  1  0  0  0
 48 65  1  0  0  0
 48121  1  0  0  0
 49 50  1  0  0  0
 49 53  1  0  0  0
 49 64  1  0  0  0
 49122  1  0  0  0
 50 51  1  0  0  0
 50123  1  0  0  0
 50124  1  0  0  0
 51 52  1  0  0  0
 51125  1  0  0  0
 51126  1  0  0  0
 52127  1  0  0  0
 52128  1  0  0  0
 53 54  1  0  0  0
 54 55  2  0  0  0
 54129  1  0  0  0
 55 57  1  0  0  0
 55130  1  0  0  0
 56 69  2  0  0  0
 57 58  2  0  0  0
 57131  1  0  0  0
 58132  1  0  0  0
 59 60  1  0  0  0
 59 61  1  0  0  0
 59 62  1  0  0  0
 60133  1  0  0  0
 60134  1  0  0  0
 60135  1  0  0  0
 61136  1  0  0  0
 61137  1  0  0  0
 61138  1  0  0  0
 62139  1  0  0  0
 62140  1  0  0  0
 62141  1  0  0  0
 63 65  1  0  0  0
 63142  1  0  0  0
 63143  1  0  0  0
 63144  1  0  0  0
 64145  1  0  0  0
 65146  1  0  0  0
 68 85  1  0  0  0
 71 72  2  0  0  0
 71 74  1  0  0  0
 71147  1  0  0  0
 72 76  1  0  0  0
 72148  1  0  0  0
 73 74  2  0  0  0
 73 75  1  0  0  0
 73149  1  0  0  0
 74 85  1  0  0  0
 75 76  2  0  0  0
 75 84  1  0  0  0
 76 86  1  0  0  0
 77 78  1  0  0  0
 77 79  1  0  0  0
 77150  1  0  0  0
 77151  1  0  0  0
 78 81  1  0  0  0
 78152  1  0  0  0
 78153  1  0  0  0
 79 82  1  0  0  0
 79154  1  0  0  0
 79155  1  0  0  0
 80 81  1  0  0  0
 80 82  1  0  0  0
 80156  1  0  0  0
 80157  1  0  0  0
 81 86  1  0  0  0
 81158  1  0  0  0
 82 87  1  0  0  0
 82159  1  0  0  0
 83 84  1  0  0  0
 83160  1  0  0  0
 83161  1  0  0  0
 83162  1  0  0  0
 84163  1  0  0  0
 84164  1  0  0  0
 85165  1  0  0  0
 85166  1  0  0  0
 86167  1  0  0  0
 87168  1  0  0  0
M  ISO  4   1 100  68 101  85 101  87 100
M  END
> <chiral flag>
0

> <version>
0

> <s_m_source_file>
/data/baiqing/PycharmProjects/Reinvent-master-3.2/result/LINK_invent/BTK/process_docking_weight1_custom_sum_contain_oxygen_bond_distance_aromatic_linkinvent_7_9_3/rearranged_h_0124.sdf

> <i_m_source_file_index>
8

> <r_mmod_Potential_Energy-OPLS-2005>
11.6081190109253

> <r_mmod_Stretch_Energy-OPLS-2005>
39.642391204834

> <r_mmod_Bend_Energy-OPLS-2005>
128.029418945312

> <r_mmod_Torsional_Energy-OPLS-2005>
254.663024902344

> <r_mmod_Improper_Torsional_Energy-OPLS-2005>
8.96355533599854

> <r_mmod_Van_der_Waal_Energy-OPLS-2005>
161.547622680664

> <r_mmod_Electrostatic_Energy-OPLS-2005>
-385.591278076172

> <r_mmod_Solvation_Energy-OPLS-2005>
-208.61882019043

> <b_mmod_Minimization_Converged-OPLS-2005>
0

> <r_mmod_RMS_Derivative-OPLS-2005>
1.36969745159149

$$$$
8
                    3D
 Structure written by MMmdl.
168177  0  0  1  0            999 V2000
  -30.7299  -14.4302   20.6287 C   0  0  0  0  0  0
  -30.4191  -12.3028   19.4126 C   0  0  0  0  0  0
  -29.4929  -12.5186   18.2004 C   0  0  0  0  0  0
  -28.0142  -12.3784   18.6131 C   0  0  0  0  0  0
  -27.6635  -13.2075   19.8780 C   0  0  2  0  0  0
  -28.7023  -12.9713   20.9962 C   0  0  0  0  0  0
  -25.2599  -13.8160   20.5675 C   0  0  0  0  0  0
  -24.1849  -13.0439   20.9171 C   0  0  0  0  0  0
  -24.6402  -11.6905   20.8721 C   0  0  0  0  0  0
  -23.9062  -10.4289   21.0394 C   0  0  0  0  0  0
  -24.3613   -9.4209   21.9179 C   0  0  0  0  0  0
  -23.6290   -8.2244   22.0753 C   0  0  0  0  0  0
  -22.4273   -8.0279   21.3542 C   0  0  0  0  0  0
  -21.9903   -9.0251   20.4646 C   0  0  0  0  0  0
  -22.7230  -10.2133   20.3050 C   0  0  0  0  0  0
  -21.6851   -6.0734   22.5281 C   0  0  0  0  0  0
  -21.4014   -6.5639   23.8213 C   0  0  0  0  0  0
  -21.3662   -5.6793   24.9175 C   0  0  0  0  0  0
  -21.6041   -4.3052   24.7225 C   0  0  0  0  0  0
  -21.8819   -3.8146   23.4345 C   0  0  0  0  0  0
  -21.9193   -4.6963   22.3402 C   0  0  0  0  0  0
  -22.7872  -13.5238   21.1841 C   0  0  0  0  0  0
  -22.1661   -4.2150   21.0979 F   0  0  0  0  0  0
  -21.5629   -3.4537   25.7735 F   0  0  0  0  0  0
  -30.0354  -13.2745   20.4482 N   0  0  0  0  0  0
  -26.3035  -12.9331   20.3361 N   0  0  0  0  0  0
  -25.9329  -11.6491   20.5751 N   0  0  0  0  0  0
  -22.0508  -12.8227   22.0391 N   0  0  0  0  0  0
  -25.4340  -15.1875   20.4099 N   0  0  0  0  0  0
  -31.8155  -14.6515   20.0851 O   0  0  0  0  0  0
  -21.6639   -6.8878   21.4241 O   0  0  0  0  0  0
  -22.3560  -14.5549   20.6696 O   0  0  0  0  0  0
  -24.6120  -31.8685   23.2085 C   0  0  0  0  0  0
  -25.9016  -32.4827   23.8387 C   0  0  1  0  0  0
  -27.2426  -27.4421   20.1051 C   0  0  0  0  0  0
  -25.5879  -33.8628   24.2321 N   0  0  0  0  0  0
  -23.4016  -30.4892   21.5490 C   0  0  2  0  0  0
  -24.8516  -28.9486   20.1207 C   0  0  0  0  0  0
  -22.7407  -29.4652   22.4997 C   0  0  0  0  0  0
  -18.0273  -28.1382   22.8472 C   0  0  0  0  0  0
  -24.1485  -36.7315   23.2642 C   0  0  0  0  0  0
  -25.9284  -30.8361   21.3611 C   0  0  0  0  0  0
  -26.0088  -29.4680   20.7148 C   0  0  0  0  0  0
  -27.2083  -28.7225   20.7016 C   0  0  0  0  0  0
  -26.0714  -26.9282   19.5134 C   0  0  0  0  0  0
  -24.8769  -27.6770   19.5185 C   0  0  0  0  0  0
  -23.6117  -29.8152   20.1656 C   0  0  0  0  0  0
  -25.4102  -36.3120   24.0349 C   0  0  1  0  0  0
  -20.5859  -28.3658   23.1334 C   0  0  2  0  0  0
  -20.6758  -26.9397   22.5434 C   0  0  0  0  0  0
  -19.5745  -26.6384   21.5220 C   0  0  0  0  0  0
  -18.1914  -26.7930   22.1613 C   0  0  0  0  0  0
  -19.1522  -28.8832   23.2898 C   0  0  0  0  0  0
  -18.9455  -30.1432   23.8912 C   0  0  0  0  0  0
  -17.6461  -30.6582   24.0558 C   0  0  0  0  0  0
  -25.9031  -34.9483   23.5137 C   0  0  0  0  0  0
  -16.5346  -29.9088   23.6325 C   0  0  0  0  0  0
  -16.7264  -28.6511   23.0332 C   0  0  0  0  0  0
  -26.4444  -31.6606   25.0720 C   0  0  0  0  0  0
  -25.3711  -31.3737   26.1474 C   0  0  0  0  0  0
  -27.0260  -30.3050   24.6084 C   0  0  0  0  0  0
  -27.6034  -32.4314   25.7465 C   0  0  0  0  0  0
  -27.5580  -37.1805   24.8465 C   0  0  0  0  0  0
  -21.4135  -29.3026   22.3741 N   0  0  0  0  0  0
  -26.4288  -37.3800   23.9414 N   0  0  0  0  0  0
  -24.6657  -31.0785   22.0984 N   0  0  0  0  0  0
  -23.4186  -28.8203   23.3043 O   0  0  0  0  0  0
  -28.4230  -26.7399   20.0341 O   0  0  0  0  0  0
  -26.5598  -34.8929   22.4706 O   0  0  0  0  0  0
  -23.5314  -32.1437   23.7473 O   0  0  0  0  0  0
  -26.6258  -24.0222   23.1827 C   0  0  0  0  0  0
  -26.8224  -22.8195   24.0604 C   0  0  0  0  0  0
  -29.2107  -18.9095   23.2148 C   0  0  0  0  0  0
  -28.5197  -20.2530   23.3941 C   0  0  0  0  0  0
  -27.8897  -23.1944   23.0500 C   0  0  0  0  0  0
  -29.2061  -18.6904   21.6927 C   0  0  2  0  0  0
  -29.0090  -21.0583   22.1851 C   0  0  2  0  0  0
  -30.4380  -17.8927   21.1756 C   0  0  0  0  0  0
  -30.7909  -16.5725   21.9253 C   0  0  0  0  0  0
  -28.2207  -24.2604   20.2249 C   0  0  0  0  0  0
  -28.5604  -25.6145   20.9070 C   0  0  0  0  0  0
  -28.1587  -22.3228   21.8225 C   0  0  2  0  0  0
  -30.1463  -15.3504   21.4185 N   0  0  0  0  0  0
  -28.9065  -23.1048   20.8287 N   0  0  0  0  0  0
  -29.0872  -20.0544   21.0971 N   0  3  0  0  0  0
  -31.4647  -12.3972   19.1147 H   0  0  0  0  0  0
  -30.3138  -11.2870   19.7966 H   0  0  0  0  0  0
  -29.7311  -11.8046   17.4113 H   0  0  0  0  0  0
  -29.6662  -13.5101   17.7792 H   0  0  0  0  0  0
  -27.8207  -11.3209   18.7979 H   0  0  0  0  0  0
  -27.3657  -12.6656   17.7850 H   0  0  0  0  0  0
  -27.7146  -14.2590   19.5954 H   0  0  0  0  0  0
  -28.6755  -11.9307   21.3228 H   0  0  0  0  0  0
  -28.4556  -13.5556   21.8831 H   0  0  0  0  0  0
  -25.2762   -9.5682   22.4749 H   0  0  0  0  0  0
  -23.9998   -7.4633   22.7471 H   0  0  0  0  0  0
  -21.0835   -8.8767   19.8952 H   0  0  0  0  0  0
  -22.3688  -10.9667   19.6155 H   0  0  0  0  0  0
  -21.2007   -7.6148   23.9716 H   0  0  0  0  0  0
  -21.1484   -6.0522   25.9076 H   0  0  0  0  0  0
  -22.0597   -2.7608   23.2845 H   0  0  0  0  0  0
  -22.4106  -11.9872   22.4764 H   0  0  0  0  0  0
  -21.1127  -13.1256   22.2590 H   0  0  0  0  0  0
  -24.6689  -15.8451   20.5143 H   0  0  0  0  0  0
  -26.2878  -15.6213   20.0817 H   0  0  0  0  0  0
  -26.7094  -32.5538   23.1157 H   0  0  0  0  0  0
  -25.0031  -33.9795   25.0467 H   0  0  0  0  0  0
  -22.6894  -31.3051   21.4060 H   0  0  0  0  0  0
  -23.3753  -35.9643   23.3313 H   0  0  0  0  0  0
  -24.3585  -36.8916   22.2056 H   0  0  0  0  0  0
  -23.7241  -37.6525   23.6643 H   0  0  0  0  0  0
  -26.0381  -31.5983   20.5884 H   0  0  0  0  0  0
  -26.8179  -30.8950   21.9763 H   0  0  0  0  0  0
  -28.1081  -29.1280   21.1427 H   0  0  0  0  0  0
  -26.0880  -25.9604   19.0330 H   0  0  0  0  0  0
  -23.9887  -27.2722   19.0549 H   0  0  0  0  0  0
  -23.7192  -30.5874   19.4030 H   0  0  0  0  0  0
  -22.7374  -29.2331   19.8697 H   0  0  0  0  0  0
  -25.1278  -36.1988   25.0844 H   0  0  0  0  0  0
  -20.9936  -28.3203   24.1461 H   0  0  0  0  0  0
  -20.5666  -26.2255   23.3607 H   0  0  0  0  0  0
  -21.6628  -26.7437   22.1226 H   0  0  0  0  0  0
  -19.6919  -25.6309   21.1222 H   0  0  0  0  0  0
  -19.6701  -27.3211   20.6764 H   0  0  0  0  0  0
  -17.4199  -26.6684   21.4000 H   0  0  0  0  0  0
  -18.0289  -26.0073   22.9002 H   0  0  0  0  0  0
  -19.7936  -30.7227   24.2296 H   0  0  0  0  0  0
  -17.5027  -31.6266   24.5151 H   0  0  0  0  0  0
  -15.5351  -30.2999   23.7648 H   0  0  0  0  0  0
  -15.8656  -28.0839   22.7042 H   0  0  0  0  0  0
  -24.5914  -30.7031   25.7839 H   0  0  0  0  0  0
  -24.8853  -32.2899   26.4846 H   0  0  0  0  0  0
  -25.8065  -30.8992   27.0277 H   0  0  0  0  0  0
  -26.2805  -29.6845   24.1095 H   0  0  0  0  0  0
  -27.4007  -29.7247   25.4523 H   0  0  0  0  0  0
  -27.8642  -30.4384   23.9243 H   0  0  0  0  0  0
  -27.2683  -33.3625   26.2041 H   0  0  0  0  0  0
  -28.3830  -32.6853   25.0275 H   0  0  0  0  0  0
  -28.0709  -31.8444   26.5375 H   0  0  0  0  0  0
  -28.2601  -38.0093   24.7496 H   0  0  0  0  0  0
  -28.1072  -36.2629   24.6299 H   0  0  0  0  0  0
  -27.2306  -37.1466   25.8870 H   0  0  0  0  0  0
  -20.9295  -29.8757   21.6964 H   0  0  0  0  0  0
  -26.0188  -38.2886   24.1406 H   0  0  0  0  0  0
  -26.7053  -24.9991   23.6564 H   0  0  0  0  0  0
  -25.8860  -23.9499   22.3876 H   0  0  0  0  0  0
  -26.1789  -21.9656   23.8576 H   0  0  0  0  0  0
  -27.0525  -22.9882   25.1110 H   0  0  0  0  0  0
  -28.7119  -18.1067   23.7590 H   0  0  0  0  0  0
  -30.2326  -18.9810   23.5903 H   0  0  0  0  0  0
  -28.7707  -20.7235   24.3453 H   0  0  0  0  0  0
  -27.4395  -20.1108   23.3561 H   0  0  0  0  0  0
  -28.7907  -23.6300   23.4804 H   0  0  0  0  0  0
  -28.2973  -18.1470   21.4287 H   0  0  0  0  0  0
  -30.0322  -21.3690   22.4061 H   0  0  0  0  0  0
  -31.3079  -18.5449   21.2681 H   0  0  0  0  0  0
  -30.3389  -17.6987   20.1063 H   0  0  0  0  0  0
  -30.5714  -16.6536   22.9892 H   0  0  0  0  0  0
  -31.8743  -16.4406   21.8866 H   0  0  0  0  0  0
  -28.5842  -24.3209   19.1981 H   0  0  0  0  0  0
  -27.1438  -24.1020   20.1526 H   0  0  0  0  0  0
  -29.6057  -25.6061   21.2177 H   0  0  0  0  0  0
  -27.9848  -25.7715   21.8168 H   0  0  0  0  0  0
  -27.1997  -22.0113   21.4034 H   0  0  0  0  0  0
  -29.2492  -15.1003   21.8087 H   0  0  0  0  0  0
  -29.8010  -23.4077   21.2054 H   0  0  0  0  0  0
  -28.2425  -20.1041   20.5521 H   0  0  0  0  0  0
  -29.8542  -20.2809   20.4841 H   0  0  0  0  0  0
  1 25  1  0  0  0
  1 30  2  0  0  0
  1 83  1  0  0  0
  2  3  1  0  0  0
  2 25  1  0  0  0
  2 86  1  0  0  0
  2 87  1  0  0  0
  3  4  1  0  0  0
  3 88  1  0  0  0
  3 89  1  0  0  0
  4  5  1  0  0  0
  4 90  1  0  0  0
  4 91  1  0  0  0
  5  6  1  0  0  0
  5 26  1  0  0  0
  5 92  1  0  0  0
  6 25  1  0  0  0
  6 93  1  0  0  0
  6 94  1  0  0  0
  7  8  2  0  0  0
  7 26  1  0  0  0
  7 29  1  0  0  0
  8  9  1  0  0  0
  8 22  1  0  0  0
  9 10  1  0  0  0
  9 27  2  0  0  0
 10 11  2  0  0  0
 10 15  1  0  0  0
 11 12  1  0  0  0
 11 95  1  0  0  0
 12 13  2  0  0  0
 12 96  1  0  0  0
 13 14  1  0  0  0
 13 31  1  0  0  0
 14 15  2  0  0  0
 14 97  1  0  0  0
 15 98  1  0  0  0
 16 17  2  0  0  0
 16 21  1  0  0  0
 16 31  1  0  0  0
 17 18  1  0  0  0
 17 99  1  0  0  0
 18 19  2  0  0  0
 18100  1  0  0  0
 19 20  1  0  0  0
 19 24  1  0  0  0
 20 21  2  0  0  0
 20101  1  0  0  0
 21 23  1  0  0  0
 22 28  1  0  0  0
 22 32  2  0  0  0
 26 27  1  0  0  0
 28102  1  0  0  0
 28103  1  0  0  0
 29104  1  0  0  0
 29105  1  0  0  0
 33 34  1  0  0  0
 33 66  1  0  0  0
 33 70  2  0  0  0
 34 36  1  0  0  0
 34 59  1  0  0  0
 34106  1  0  0  0
 35 44  2  0  0  0
 35 45  1  0  0  0
 35 68  1  0  0  0
 36 56  1  0  0  0
 36107  1  0  0  0
 37 39  1  0  0  0
 37 47  1  0  0  0
 37 66  1  0  0  0
 37108  1  0  0  0
 38 43  2  0  0  0
 38 46  1  0  0  0
 38 47  1  0  0  0
 39 64  1  0  0  0
 39 67  2  0  0  0
 40 52  1  0  0  0
 40 53  2  0  0  0
 40 58  1  0  0  0
 41109  1  0  0  0
 41110  1  0  0  0
 41111  1  0  0  0
 41 48  1  0  0  0
 42 43  1  0  0  0
 42 66  1  0  0  0
 42112  1  0  0  0
 42113  1  0  0  0
 43 44  1  0  0  0
 44114  1  0  0  0
 45 46  2  0  0  0
 45115  1  0  0  0
 46116  1  0  0  0
 47117  1  0  0  0
 47118  1  0  0  0
 48 56  1  0  0  0
 48 65  1  0  0  0
 48119  1  0  0  0
 49 50  1  0  0  0
 49 53  1  0  0  0
 49 64  1  0  0  0
 49120  1  0  0  0
 50 51  1  0  0  0
 50121  1  0  0  0
 50122  1  0  0  0
 51 52  1  0  0  0
 51123  1  0  0  0
 51124  1  0  0  0
 52125  1  0  0  0
 52126  1  0  0  0
 53 54  1  0  0  0
 54 55  2  0  0  0
 54127  1  0  0  0
 55 57  1  0  0  0
 55128  1  0  0  0
 56 69  2  0  0  0
 57 58  2  0  0  0
 57129  1  0  0  0
 58130  1  0  0  0
 59 60  1  0  0  0
 59 61  1  0  0  0
 59 62  1  0  0  0
 60131  1  0  0  0
 60132  1  0  0  0
 60133  1  0  0  0
 61134  1  0  0  0
 61135  1  0  0  0
 61136  1  0  0  0
 62137  1  0  0  0
 62138  1  0  0  0
 62139  1  0  0  0
 63 65  1  0  0  0
 63140  1  0  0  0
 63141  1  0  0  0
 63142  1  0  0  0
 64143  1  0  0  0
 65144  1  0  0  0
 68 81  1  0  0  0
 71 72  1  0  0  0
 71145  1  0  0  0
 71146  1  0  0  0
 71 75  1  0  0  0
 72 75  1  0  0  0
 72147  1  0  0  0
 72148  1  0  0  0
 73 74  1  0  0  0
 73 76  1  0  0  0
 73149  1  0  0  0
 73150  1  0  0  0
 74151  1  0  0  0
 74152  1  0  0  0
 74 77  1  0  0  0
 75 82  1  0  0  0
 75153  1  0  0  0
 76 78  1  0  0  0
 76 85  1  0  0  0
 76154  1  0  0  0
 77 82  1  0  0  0
 77 85  1  0  0  0
 77155  1  0  0  0
 78 79  1  0  0  0
 78156  1  0  0  0
 78157  1  0  0  0
 79 83  1  0  0  0
 79158  1  0  0  0
 79159  1  0  0  0
 80 81  1  0  0  0
 80 84  1  0  0  0
 80160  1  0  0  0
 80161  1  0  0  0
 81162  1  0  0  0
 81163  1  0  0  0
 82 84  1  0  0  0
 82164  1  0  0  0
 83165  1  0  0  0
 84166  1  0  0  0
 85167  1  0  0  0
 85168  1  0  0  0
M  CHG  1  85   1
M  ISO  4   1 100  68 101  81 101  83 100
M  END
> <chiral flag>
0

> <version>
0

> <s_m_source_file>
/data/baiqing/PycharmProjects/Reinvent-master-3.2/result/LINK_invent/BTK/process_docking_weight1_custom_sum_contain_oxygen_bond_distance_aromatic_linkinvent_7_9_3/rearranged_h_0124.sdf

> <i_m_source_file_index>
9

> <r_mmod_Potential_Energy-OPLS-2005>
-75.8588104248047

> <r_mmod_Stretch_Energy-OPLS-2005>
38.2851982116699

> <r_mmod_Bend_Energy-OPLS-2005>
129.202239990234

> <r_mmod_Torsional_Energy-OPLS-2005>
340.713256835938

> <r_mmod_Improper_Torsional_Energy-OPLS-2005>
2.20480394363403

> <r_mmod_Van_der_Waal_Energy-OPLS-2005>
125.833297729492

> <r_mmod_Electrostatic_Energy-OPLS-2005>
-265.640502929688

> <r_mmod_Solvation_Energy-OPLS-2005>
-455.030822753906

> <b_mmod_Minimization_Converged-OPLS-2005>
0

> <r_mmod_RMS_Derivative-OPLS-2005>
1.57899820804596

$$$$
9
                    3D
 Structure written by MMmdl.
173182  0  0  1  0            999 V2000
  -30.7051  -14.3869   20.6672 C   0  0  0  0  0  0
  -30.4199  -12.2790   19.4148 C   0  0  0  0  0  0
  -29.4956  -12.5313   18.2076 C   0  0  0  0  0  0
  -28.0150  -12.3847   18.6136 C   0  0  0  0  0  0
  -27.6664  -13.1963   19.8902 C   0  0  2  0  0  0
  -28.6970  -12.9068   21.0030 C   0  0  0  0  0  0
  -25.2566  -13.8131   20.5639 C   0  0  0  0  0  0
  -24.1817  -13.0417   20.9100 C   0  0  0  0  0  0
  -24.6360  -11.6882   20.8706 C   0  0  0  0  0  0
  -23.9019  -10.4279   21.0405 C   0  0  0  0  0  0
  -24.3573   -9.4193   21.9182 C   0  0  0  0  0  0
  -23.6258   -8.2228   22.0743 C   0  0  0  0  0  0
  -22.4239   -8.0265   21.3530 C   0  0  0  0  0  0
  -21.9874   -9.0239   20.4630 C   0  0  0  0  0  0
  -22.7196  -10.2118   20.3048 C   0  0  0  0  0  0
  -21.6845   -6.0717   22.5274 C   0  0  0  0  0  0
  -21.4038   -6.5627   23.8216 C   0  0  0  0  0  0
  -21.3662   -5.6774   24.9175 C   0  0  0  0  0  0
  -21.6045   -4.3043   24.7223 C   0  0  0  0  0  0
  -21.8823   -3.8125   23.4353 C   0  0  0  0  0  0
  -21.9184   -4.6944   22.3397 C   0  0  0  0  0  0
  -22.7840  -13.5244   21.1785 C   0  0  0  0  0  0
  -22.1659   -4.2128   21.0980 F   0  0  0  0  0  0
  -21.5584   -3.4528   25.7741 F   0  0  0  0  0  0
  -30.0413  -13.2174   20.4781 N   0  0  0  0  0  0
  -26.3021  -12.9285   20.3395 N   0  0  0  0  0  0
  -25.9286  -11.6447   20.5772 N   0  0  0  0  0  0
  -22.0485  -12.8265   22.0374 N   0  0  0  0  0  0
  -25.4251  -15.1845   20.4080 N   0  0  0  0  0  0
  -31.7543  -14.6800   20.0815 O   0  0  0  0  0  0
  -21.6604   -6.8863   21.4239 O   0  0  0  0  0  0
  -22.3539  -14.5545   20.6629 O   0  0  0  0  0  0
  -24.6141  -31.8707   23.2124 C   0  0  0  0  0  0
  -25.9031  -32.4834   23.8432 C   0  0  1  0  0  0
  -27.2235  -27.4423   20.0777 C   0  0  0  0  0  0
  -25.5913  -33.8632   24.2359 N   0  0  0  0  0  0
  -23.4016  -30.4968   21.5543 C   0  0  2  0  0  0
  -24.8403  -28.9673   20.1171 C   0  0  0  0  0  0
  -22.7419  -29.4695   22.5023 C   0  0  0  0  0  0
  -18.0274  -28.1349   22.8477 C   0  0  0  0  0  0
  -24.1484  -36.7303   23.2636 C   0  0  0  0  0  0
  -25.9314  -30.8363   21.3672 C   0  0  0  0  0  0
  -26.0032  -29.4743   20.7092 C   0  0  0  0  0  0
  -27.1980  -28.7192   20.6828 C   0  0  0  0  0  0
  -26.0351  -26.9533   19.4878 C   0  0  0  0  0  0
  -24.8509  -27.7072   19.5040 C   0  0  0  0  0  0
  -23.6049  -29.8320   20.1678 C   0  0  0  0  0  0
  -25.4103  -36.3110   24.0341 C   0  0  1  0  0  0
  -20.5854  -28.3689   23.1323 C   0  0  2  0  0  0
  -20.6773  -26.9404   22.5463 C   0  0  0  0  0  0
  -19.5789  -26.6370   21.5218 C   0  0  0  0  0  0
  -18.1966  -26.7898   22.1618 C   0  0  0  0  0  0
  -19.1501  -28.8839   23.2873 C   0  0  0  0  0  0
  -18.9420  -30.1461   23.8854 C   0  0  0  0  0  0
  -17.6427  -30.6595   24.0466 C   0  0  0  0  0  0
  -25.9032  -34.9477   23.5136 C   0  0  0  0  0  0
  -16.5321  -29.9065   23.6249 C   0  0  0  0  0  0
  -16.7249  -28.6443   23.0360 C   0  0  0  0  0  0
  -26.4471  -31.6604   25.0737 C   0  0  0  0  0  0
  -25.3742  -31.3676   26.1482 C   0  0  0  0  0  0
  -27.0314  -30.3067   24.6081 C   0  0  0  0  0  0
  -27.6075  -32.4311   25.7472 C   0  0  0  0  0  0
  -27.5582  -37.1809   24.8468 C   0  0  0  0  0  0
  -21.4150  -29.3048   22.3735 N   0  0  0  0  0  0
  -26.4300  -37.3786   23.9398 N   0  0  0  0  0  0
  -24.6678  -31.0820   22.1025 N   0  0  0  0  0  0
  -23.4192  -28.8226   23.3056 O   0  0  0  0  0  0
  -28.4061  -26.7292   20.0659 O   0  0  0  0  0  0
  -26.5585  -34.8919   22.4687 O   0  0  0  0  0  0
  -23.5332  -32.1470   23.7512 O   0  0  0  0  0  0
  -26.7098  -17.9127   21.9839 C   0  0  0  0  0  0
  -27.9180  -17.2395   22.2408 C   0  0  0  0  0  0
  -28.9285  -18.3498   20.3289 C   0  0  0  0  0  0
  -26.5826  -18.7845   20.8796 C   0  0  0  0  0  0
  -29.0293  -17.4396   21.4008 C   0  0  0  0  0  0
  -27.7192  -19.0323   20.0590 C   0  0  0  0  0  0
  -23.2052  -19.8214   21.2154 C   0  0  0  0  0  0
  -23.9245  -18.5787   20.6786 C   0  0  0  0  0  0
  -24.5761  -20.3387   21.6647 C   0  0  0  0  0  0
  -25.2150  -19.4145   20.6163 C   0  0  0  0  0  0
  -27.6938  -19.9953   18.8707 C   0  0  0  0  0  0
  -30.3180  -16.6649   21.6379 C   0  0  0  0  0  0
  -27.5925  -21.4858   19.2668 C   0  0  0  0  0  0
  -27.1722  -23.7442   18.2484 C   0  0  0  0  0  0
  -28.3384  -25.2963   20.0028 C   0  0  0  0  0  0
  -28.3158  -24.7512   18.5501 C   0  0  1  0  0  0
  -30.0876  -15.2325   21.5003 N   0  0  0  0  0  0
  -27.6705  -22.3649   18.0787 N   0  3  0  0  0  0
  -29.5753  -24.1714   18.2183 O   0  0  0  0  0  0
  -31.4681  -12.3743   19.1272 H   0  0  0  0  0  0
  -30.3023  -11.2534   19.7675 H   0  0  0  0  0  0
  -29.7372  -11.8386   17.4007 H   0  0  0  0  0  0
  -29.6727  -13.5356   17.8190 H   0  0  0  0  0  0
  -27.8247  -11.3250   18.7867 H   0  0  0  0  0  0
  -27.3644  -12.6816   17.7900 H   0  0  0  0  0  0
  -27.7337  -14.2551   19.6378 H   0  0  0  0  0  0
  -28.6569  -11.8536   21.2877 H   0  0  0  0  0  0
  -28.4421  -13.4468   21.9149 H   0  0  0  0  0  0
  -25.2720   -9.5655   22.4760 H   0  0  0  0  0  0
  -23.9951   -7.4622   22.7473 H   0  0  0  0  0  0
  -21.0796   -8.8764   19.8947 H   0  0  0  0  0  0
  -22.3668  -10.9656   19.6153 H   0  0  0  0  0  0
  -21.2087   -7.6140   23.9739 H   0  0  0  0  0  0
  -21.1470   -6.0486   25.9080 H   0  0  0  0  0  0
  -22.0608   -2.7590   23.2846 H   0  0  0  0  0  0
  -22.4079  -11.9900   22.4729 H   0  0  0  0  0  0
  -21.1127  -13.1320   22.2637 H   0  0  0  0  0  0
  -24.6572  -15.8318   20.5385 H   0  0  0  0  0  0
  -26.3003  -15.6509   20.2032 H   0  0  0  0  0  0
  -26.7111  -32.5532   23.1215 H   0  0  0  0  0  0
  -25.0095  -33.9828   25.0526 H   0  0  0  0  0  0
  -22.6907  -31.3137   21.4181 H   0  0  0  0  0  0
  -23.3747  -35.9638   23.3310 H   0  0  0  0  0  0
  -24.3583  -36.8886   22.2050 H   0  0  0  0  0  0
  -23.7244  -37.6509   23.6642 H   0  0  0  0  0  0
  -26.0504  -31.6064   20.6029 H   0  0  0  0  0  0
  -26.8188  -30.8816   21.9877 H   0  0  0  0  0  0
  -28.0994  -29.1125   21.1309 H   0  0  0  0  0  0
  -25.9927  -26.0032   18.9873 H   0  0  0  0  0  0
  -23.9562  -27.3214   19.0350 H   0  0  0  0  0  0
  -23.7162  -30.6064   19.4076 H   0  0  0  0  0  0
  -22.7285  -29.2504   19.8715 H   0  0  0  0  0  0
  -25.1282  -36.1993   25.0845 H   0  0  0  0  0  0
  -20.9910  -28.3305   24.1451 H   0  0  0  0  0  0
  -20.5608  -26.2285   23.3646 H   0  0  0  0  0  0
  -21.6679  -26.7487   22.1326 H   0  0  0  0  0  0
  -19.6944  -25.6267   21.1282 H   0  0  0  0  0  0
  -19.6791  -27.3173   20.6754 H   0  0  0  0  0  0
  -17.4243  -26.6576   21.4030 H   0  0  0  0  0  0
  -18.0407  -26.0060   22.9042 H   0  0  0  0  0  0
  -19.7887  -30.7259   24.2249 H   0  0  0  0  0  0
  -17.4987  -31.6292   24.5026 H   0  0  0  0  0  0
  -15.5324  -30.2984   23.7550 H   0  0  0  0  0  0
  -15.8641  -28.0710   22.7158 H   0  0  0  0  0  0
  -24.5936  -30.7004   25.7798 H   0  0  0  0  0  0
  -24.8903  -32.2811   26.4960 H   0  0  0  0  0  0
  -25.8104  -30.8826   27.0226 H   0  0  0  0  0  0
  -26.2853  -29.6814   24.1169 H   0  0  0  0  0  0
  -27.4152  -29.7302   25.4505 H   0  0  0  0  0  0
  -27.8655  -30.4398   23.9184 H   0  0  0  0  0  0
  -27.2744  -33.3618   26.2073 H   0  0  0  0  0  0
  -28.3865  -32.6858   25.0274 H   0  0  0  0  0  0
  -28.0777  -31.8418   26.5352 H   0  0  0  0  0  0
  -28.2617  -38.0095   24.7514 H   0  0  0  0  0  0
  -28.1075  -36.2631   24.6314 H   0  0  0  0  0  0
  -27.2302  -37.1462   25.8875 H   0  0  0  0  0  0
  -20.9333  -29.8763   21.6946 H   0  0  0  0  0  0
  -26.0189  -38.2863   24.1409 H   0  0  0  0  0  0
  -25.8678  -17.7357   22.6394 H   0  0  0  0  0  0
  -27.9807  -16.5605   23.0799 H   0  0  0  0  0  0
  -29.7889  -18.5096   19.6951 H   0  0  0  0  0  0
  -22.5000  -19.6279   22.0254 H   0  0  0  0  0  0
  -22.7594  -20.4291   20.4264 H   0  0  0  0  0  0
  -23.5720  -18.2177   19.7120 H   0  0  0  0  0  0
  -23.9488  -17.7740   21.4133 H   0  0  0  0  0  0
  -24.8069  -20.0514   22.6920 H   0  0  0  0  0  0
  -24.7572  -21.4016   21.5025 H   0  0  0  0  0  0
  -25.2078  -19.9182   19.6508 H   0  0  0  0  0  0
  -26.8780  -19.7146   18.2032 H   0  0  0  0  0  0
  -28.6000  -19.8485   18.2806 H   0  0  0  0  0  0
  -30.6820  -16.8753   22.6453 H   0  0  0  0  0  0
  -31.0877  -17.0117   20.9481 H   0  0  0  0  0  0
  -28.3907  -21.7548   19.9591 H   0  0  0  0  0  0
  -26.6554  -21.6675   19.7916 H   0  0  0  0  0  0
  -26.7288  -24.0253   17.2916 H   0  0  0  0  0  0
  -26.3501  -23.7943   18.9646 H   0  0  0  0  0  0
  -29.2183  -24.9193   20.5258 H   0  0  0  0  0  0
  -27.4917  -24.9278   20.5834 H   0  0  0  0  0  0
  -28.1783  -25.6051   17.8852 H   0  0  0  0  0  0
  -29.2590  -14.8754   21.9501 H   0  0  0  0  0  0
  -27.1769  -21.9396   17.3098 H   0  0  0  0  0  0
  -28.6392  -22.4951   17.8158 H   0  0  0  0  0  0
  -30.2429  -24.8350   18.3792 H   0  0  0  0  0  0
  1 25  1  0  0  0
  1 30  2  0  0  0
  1 87  1  0  0  0
  2  3  1  0  0  0
  2 25  1  0  0  0
  2 90  1  0  0  0
  2 91  1  0  0  0
  3  4  1  0  0  0
  3 92  1  0  0  0
  3 93  1  0  0  0
  4  5  1  0  0  0
  4 94  1  0  0  0
  4 95  1  0  0  0
  5  6  1  0  0  0
  5 26  1  0  0  0
  5 96  1  0  0  0
  6 25  1  0  0  0
  6 97  1  0  0  0
  6 98  1  0  0  0
  7  8  2  0  0  0
  7 26  1  0  0  0
  7 29  1  0  0  0
  8  9  1  0  0  0
  8 22  1  0  0  0
  9 10  1  0  0  0
  9 27  2  0  0  0
 10 11  2  0  0  0
 10 15  1  0  0  0
 11 12  1  0  0  0
 11 99  1  0  0  0
 12 13  2  0  0  0
 12100  1  0  0  0
 13 14  1  0  0  0
 13 31  1  0  0  0
 14 15  2  0  0  0
 14101  1  0  0  0
 15102  1  0  0  0
 16 17  2  0  0  0
 16 21  1  0  0  0
 16 31  1  0  0  0
 17 18  1  0  0  0
 17103  1  0  0  0
 18 19  2  0  0  0
 18104  1  0  0  0
 19 20  1  0  0  0
 19 24  1  0  0  0
 20 21  2  0  0  0
 20105  1  0  0  0
 21 23  1  0  0  0
 22 28  1  0  0  0
 22 32  2  0  0  0
 26 27  1  0  0  0
 28106  1  0  0  0
 28107  1  0  0  0
 29108  1  0  0  0
 29109  1  0  0  0
 33 34  1  0  0  0
 33 66  1  0  0  0
 33 70  2  0  0  0
 34 36  1  0  0  0
 34 59  1  0  0  0
 34110  1  0  0  0
 35 44  2  0  0  0
 35 45  1  0  0  0
 35 68  1  0  0  0
 36 56  1  0  0  0
 36111  1  0  0  0
 37 39  1  0  0  0
 37 47  1  0  0  0
 37 66  1  0  0  0
 37112  1  0  0  0
 38 43  2  0  0  0
 38 46  1  0  0  0
 38 47  1  0  0  0
 39 64  1  0  0  0
 39 67  2  0  0  0
 40 52  1  0  0  0
 40 53  2  0  0  0
 40 58  1  0  0  0
 41113  1  0  0  0
 41114  1  0  0  0
 41115  1  0  0  0
 41 48  1  0  0  0
 42 43  1  0  0  0
 42 66  1  0  0  0
 42116  1  0  0  0
 42117  1  0  0  0
 43 44  1  0  0  0
 44118  1  0  0  0
 45 46  2  0  0  0
 45119  1  0  0  0
 46120  1  0  0  0
 47121  1  0  0  0
 47122  1  0  0  0
 48 56  1  0  0  0
 48 65  1  0  0  0
 48123  1  0  0  0
 49 50  1  0  0  0
 49 53  1  0  0  0
 49 64  1  0  0  0
 49124  1  0  0  0
 50 51  1  0  0  0
 50125  1  0  0  0
 50126  1  0  0  0
 51 52  1  0  0  0
 51127  1  0  0  0
 51128  1  0  0  0
 52129  1  0  0  0
 52130  1  0  0  0
 53 54  1  0  0  0
 54 55  2  0  0  0
 54131  1  0  0  0
 55 57  1  0  0  0
 55132  1  0  0  0
 56 69  2  0  0  0
 57 58  2  0  0  0
 57133  1  0  0  0
 58134  1  0  0  0
 59 60  1  0  0  0
 59 61  1  0  0  0
 59 62  1  0  0  0
 60135  1  0  0  0
 60136  1  0  0  0
 60137  1  0  0  0
 61138  1  0  0  0
 61139  1  0  0  0
 61140  1  0  0  0
 62141  1  0  0  0
 62142  1  0  0  0
 62143  1  0  0  0
 63 65  1  0  0  0
 63144  1  0  0  0
 63145  1  0  0  0
 63146  1  0  0  0
 64147  1  0  0  0
 65148  1  0  0  0
 68 85  1  0  0  0
 71 72  2  0  0  0
 71 74  1  0  0  0
 71149  1  0  0  0
 72 75  1  0  0  0
 72150  1  0  0  0
 73 75  2  0  0  0
 73 76  1  0  0  0
 73151  1  0  0  0
 74 76  2  0  0  0
 74 80  1  0  0  0
 75 82  1  0  0  0
 76 81  1  0  0  0
 77 78  1  0  0  0
 77 79  1  0  0  0
 77152  1  0  0  0
 77153  1  0  0  0
 78 80  1  0  0  0
 78154  1  0  0  0
 78155  1  0  0  0
 79 80  1  0  0  0
 79156  1  0  0  0
 79157  1  0  0  0
 80158  1  0  0  0
 81 83  1  0  0  0
 81159  1  0  0  0
 81160  1  0  0  0
 82 87  1  0  0  0
 82161  1  0  0  0
 82162  1  0  0  0
 83 88  1  0  0  0
 83163  1  0  0  0
 83164  1  0  0  0
 84 86  1  0  0  0
 84 88  1  0  0  0
 84165  1  0  0  0
 84166  1  0  0  0
 85 86  1  0  0  0
 85167  1  0  0  0
 85168  1  0  0  0
 86 89  1  0  0  0
 86169  1  0  0  0
 87170  1  0  0  0
 88171  1  0  0  0
 88172  1  0  0  0
 89173  1  0  0  0
M  CHG  1  88   1
M  ISO  4   1 100  68 101  85 101  87 100
M  END
> <chiral flag>
0

> <version>
0

> <s_m_source_file>
/data/baiqing/PycharmProjects/Reinvent-master-3.2/result/LINK_invent/BTK/process_docking_weight1_custom_sum_contain_oxygen_bond_distance_aromatic_linkinvent_7_9_3/rearranged_h_0124.sdf

> <i_m_source_file_index>
10

> <r_mmod_Potential_Energy-OPLS-2005>
-286.710144042969

> <r_mmod_Stretch_Energy-OPLS-2005>
35.9533958435059

> <r_mmod_Bend_Energy-OPLS-2005>
113.53385925293

> <r_mmod_Torsional_Energy-OPLS-2005>
261.855682373047

> <r_mmod_Improper_Torsional_Energy-OPLS-2005>
2.54218697547913

> <r_mmod_Van_der_Waal_Energy-OPLS-2005>
156.007690429688

> <r_mmod_Electrostatic_Energy-OPLS-2005>
-414.395538330078

> <r_mmod_Solvation_Energy-OPLS-2005>
-450.977722167969

> <b_mmod_Minimization_Converged-OPLS-2005>
0

> <r_mmod_RMS_Derivative-OPLS-2005>
3.08649754524231

$$$$
10
                    3D
 Structure written by MMmdl.
152161  0  0  1  0            999 V2000
  -30.4560  -15.2786   20.3833 C   0  0  0  0  0  0
  -30.4313  -12.8272   19.5105 C   0  0  0  0  0  0
  -29.5261  -12.5819   18.2773 C   0  0  0  0  0  0
  -28.0807  -12.2962   18.7162 C   0  0  0  0  0  0
  -27.6068  -13.2773   19.8168 C   0  0  2  0  0  0
  -28.6435  -13.4718   20.9444 C   0  0  0  0  0  0
  -25.2378  -13.8249   20.5762 C   0  0  0  0  0  0
  -24.1727  -13.0437   20.9267 C   0  0  0  0  0  0
  -24.6387  -11.6938   20.8762 C   0  0  0  0  0  0
  -23.9084  -10.4294   21.0409 C   0  0  0  0  0  0
  -24.3627   -9.4207   21.9191 C   0  0  0  0  0  0
  -23.6297   -8.2242   22.0755 C   0  0  0  0  0  0
  -22.4280   -8.0283   21.3543 C   0  0  0  0  0  0
  -21.9922   -9.0253   20.4640 C   0  0  0  0  0  0
  -22.7254  -10.2132   20.3052 C   0  0  0  0  0  0
  -21.6857   -6.0735   22.5279 C   0  0  0  0  0  0
  -21.4014   -6.5640   23.8213 C   0  0  0  0  0  0
  -21.3662   -5.6792   24.9178 C   0  0  0  0  0  0
  -21.6043   -4.3055   24.7231 C   0  0  0  0  0  0
  -21.8814   -3.8145   23.4350 C   0  0  0  0  0  0
  -21.9191   -4.6962   22.3404 C   0  0  0  0  0  0
  -22.7749  -13.5190   21.1923 C   0  0  0  0  0  0
  -22.1662   -4.2151   21.0984 F   0  0  0  0  0  0
  -21.5627   -3.4540   25.7742 F   0  0  0  0  0  0
  -29.8685  -13.9820   20.3056 N   0  0  0  0  0  0
  -26.2799  -12.9528   20.3218 N   0  0  0  0  0  0
  -25.9324  -11.6629   20.5707 N   0  0  0  0  0  0
  -22.0402  -12.8160   22.0469 N   0  0  0  0  0  0
  -25.4006  -15.1981   20.4205 N   0  0  0  0  0  0
  -31.6821  -15.2445   20.2065 O   0  0  0  0  0  0
  -21.6638   -6.8882   21.4244 O   0  0  0  0  0  0
  -22.3440  -14.5505   20.6785 O   0  0  0  0  0  0
  -24.6662  -31.8230   23.1679 C   0  0  0  0  0  0
  -25.9330  -32.4595   23.8155 C   0  0  1  0  0  0
  -27.2265  -26.9215   20.1895 C   0  0  0  0  0  0
  -25.5986  -33.8402   24.2070 N   0  0  0  0  0  0
  -23.4818  -30.4337   21.5171 C   0  0  2  0  0  0
  -24.9376  -28.8189   20.1167 C   0  0  0  0  0  0
  -22.7685  -29.4443   22.4763 C   0  0  0  0  0  0
  -18.0339  -28.1397   22.8454 C   0  0  0  0  0  0
  -24.1502  -36.7207   23.2647 C   0  0  0  0  0  0
  -26.0519  -30.6312   21.3968 C   0  0  0  0  0  0
  -26.1237  -29.2178   20.7460 C   0  0  0  0  0  0
  -27.2657  -28.2928   20.7532 C   0  0  0  0  0  0
  -26.0111  -26.6839   19.5062 C   0  0  0  0  0  0
  -24.9075  -27.5723   19.4736 C   0  0  0  0  0  0
  -23.7239  -29.7464   20.1459 C   0  0  0  0  0  0
  -25.4135  -36.2965   24.0301 C   0  0  1  0  0  0
  -20.5961  -28.3751   23.1164 C   0  0  2  0  0  0
  -20.6805  -26.9422   22.5390 C   0  0  0  0  0  0
  -19.5788  -26.6372   21.5190 C   0  0  0  0  0  0
  -18.1969  -26.7932   22.1595 C   0  0  0  0  0  0
  -19.1600  -28.8889   23.2804 C   0  0  0  0  0  0
  -18.9508  -30.1473   23.8845 C   0  0  0  0  0  0
  -17.6504  -30.6590   24.0543 C   0  0  0  0  0  0
  -25.9096  -34.9354   23.5006 C   0  0  0  0  0  0
  -16.5392  -29.9077   23.6331 C   0  0  0  0  0  0
  -16.7317  -28.6492   23.0358 C   0  0  0  0  0  0
  -26.4570  -31.6533   25.0685 C   0  0  0  0  0  0
  -25.3682  -31.3791   26.1335 C   0  0  0  0  0  0
  -27.0426  -30.2884   24.6411 C   0  0  0  0  0  0
  -27.6096  -32.4315   25.7461 C   0  0  0  0  0  0
  -27.5568  -37.1755   24.8468 C   0  0  0  0  0  0
  -21.4353  -29.3052   22.3524 N   0  0  0  0  0  0
  -26.4277  -37.3705   23.9415 N   0  0  0  0  0  0
  -24.7550  -30.9891   22.0815 N   0  0  0  0  0  0
  -23.4223  -28.7999   23.2998 O   0  0  0  0  0  0
  -28.2256  -25.8058   20.2114 O   0  0  0  0  0  0
  -26.5709  -34.8895   22.4603 O   0  0  0  0  0  0
  -23.5725  -32.1193   23.6768 O   0  0  0  0  0  0
  -31.4826  -20.5324   21.5130 C   0  0  0  0  0  0
  -31.3927  -18.2084   21.2421 C   0  0  0  0  0  0
  -30.2181  -20.7905   20.9610 C   0  0  0  0  0  0
  -29.5194  -19.5892   20.4792 C   0  0  0  0  0  0
  -30.1145  -18.1365   20.6407 C   0  0  0  0  0  0
  -28.2745  -20.2187   19.8329 C   0  0  0  0  0  0
  -29.7185  -22.3265   20.9626 C   0  0  0  0  0  0
  -27.8913  -21.5863   19.7481 C   0  0  0  0  0  0
  -26.6370  -21.9450   18.9680 C   0  0  0  0  0  0
  -27.8341  -24.2730   20.5583 C   0  0  0  0  0  0
  -32.0460  -19.3160   21.6408 N   0  0  0  0  0  0
  -28.5726  -22.7794   20.3067 N   0  0  0  0  0  0
  -29.7244  -16.5811   20.3982 N   0  0  0  0  0  0
  -30.3896  -23.1401   21.6058 O   0  0  0  0  0  0
  -31.4484  -13.0310   19.1730 H   0  0  0  0  0  0
  -30.5003  -11.9281   20.1242 H   0  0  0  0  0  0
  -29.9085  -11.7524   17.6814 H   0  0  0  0  0  0
  -29.5439  -13.4606   17.6304 H   0  0  0  0  0  0
  -28.0497  -11.2758   19.1004 H   0  0  0  0  0  0
  -27.4062  -12.3226   17.8593 H   0  0  0  0  0  0
  -27.5124  -14.2379   19.3089 H   0  0  0  0  0  0
  -28.8185  -12.5451   21.4931 H   0  0  0  0  0  0
  -28.2788  -14.2002   21.6701 H   0  0  0  0  0  0
  -25.2759   -9.5693   22.4787 H   0  0  0  0  0  0
  -24.0003   -7.4632   22.7477 H   0  0  0  0  0  0
  -21.0852   -8.8768   19.8942 H   0  0  0  0  0  0
  -22.3701  -10.9675   19.6166 H   0  0  0  0  0  0
  -21.2006   -7.6148   23.9719 H   0  0  0  0  0  0
  -21.1490   -6.0525   25.9083 H   0  0  0  0  0  0
  -22.0588   -2.7607   23.2848 H   0  0  0  0  0  0
  -22.4014  -11.9812   22.4834 H   0  0  0  0  0  0
  -21.1018  -13.1177   22.2674 H   0  0  0  0  0  0
  -24.6280  -15.8469   20.5266 H   0  0  0  0  0  0
  -26.2430  -15.6399   20.0778 H   0  0  0  0  0  0
  -26.7396  -32.5156   23.0865 H   0  0  0  0  0  0
  -25.0107  -33.9457   25.0202 H   0  0  0  0  0  0
  -22.7961  -31.2656   21.3419 H   0  0  0  0  0  0
  -23.3792  -35.9508   23.3253 H   0  0  0  0  0  0
  -24.3587  -36.8921   22.2075 H   0  0  0  0  0  0
  -23.7215  -37.6356   23.6744 H   0  0  0  0  0  0
  -26.2255  -31.3747   20.6168 H   0  0  0  0  0  0
  -26.9125  -30.6949   22.0502 H   0  0  0  0  0  0
  -28.1711  -28.6021   21.2577 H   0  0  0  0  0  0
  -25.8860  -25.7410   18.9943 H   0  0  0  0  0  0
  -24.0104  -27.2636   18.9543 H   0  0  0  0  0  0
  -23.8801  -30.5131   19.3854 H   0  0  0  0  0  0
  -22.8347  -29.1984   19.8280 H   0  0  0  0  0  0
  -25.1326  -36.1767   25.0788 H   0  0  0  0  0  0
  -21.0046  -28.3367   24.1289 H   0  0  0  0  0  0
  -20.5671  -26.2360   23.3640 H   0  0  0  0  0  0
  -21.6671  -26.7392   22.1197 H   0  0  0  0  0  0
  -19.6947  -25.6268   21.1261 H   0  0  0  0  0  0
  -19.6731  -27.3159   20.6697 H   0  0  0  0  0  0
  -17.4234  -26.6689   21.4009 H   0  0  0  0  0  0
  -18.0347  -26.0085   22.8992 H   0  0  0  0  0  0
  -19.7989  -30.7286   24.2214 H   0  0  0  0  0  0
  -17.5061  -31.6266   24.5151 H   0  0  0  0  0  0
  -15.5386  -30.2955   23.7691 H   0  0  0  0  0  0
  -15.8719  -28.0789   22.7096 H   0  0  0  0  0  0
  -24.5942  -30.7048   25.7648 H   0  0  0  0  0  0
  -24.8772  -32.2973   26.4565 H   0  0  0  0  0  0
  -25.7913  -30.9111   27.0234 H   0  0  0  0  0  0
  -26.3058  -29.6568   24.1435 H   0  0  0  0  0  0
  -27.3950  -29.7262   25.5065 H   0  0  0  0  0  0
  -27.9020  -30.4029   23.9810 H   0  0  0  0  0  0
  -27.2795  -33.3823   26.1657 H   0  0  0  0  0  0
  -28.4095  -32.6498   25.0372 H   0  0  0  0  0  0
  -28.0505  -31.8632   26.5660 H   0  0  0  0  0  0
  -28.2551  -38.0088   24.7528 H   0  0  0  0  0  0
  -28.1110  -36.2605   24.6291 H   0  0  0  0  0  0
  -27.2283  -37.1378   25.8873 H   0  0  0  0  0  0
  -20.9614  -29.8771   21.6676 H   0  0  0  0  0  0
  -26.0142  -38.2768   24.1442 H   0  0  0  0  0  0
  -32.0986  -21.3389   21.8859 H   0  0  0  0  0  0
  -31.9514  -17.3147   21.4634 H   0  0  0  0  0  0
  -27.6338  -19.4938   19.3495 H   0  0  0  0  0  0
  -26.3358  -21.1294   18.3094 H   0  0  0  0  0  0
  -26.8015  -22.8178   18.3338 H   0  0  0  0  0  0
  -25.8071  -22.1460   19.6463 H   0  0  0  0  0  0
  -27.7378  -24.3048   21.6443 H   0  0  0  0  0  0
  -26.8106  -24.1567   20.2173 H   0  0  0  0  0  0
  -28.7309  -16.4344   20.2985 H   0  0  0  0  0  0
  1 25  1  0  0  0
  1 30  2  0  0  0
  1 83  1  0  0  0
  2  3  1  0  0  0
  2 25  1  0  0  0
  2 85  1  0  0  0
  2 86  1  0  0  0
  3  4  1  0  0  0
  3 87  1  0  0  0
  3 88  1  0  0  0
  4  5  1  0  0  0
  4 89  1  0  0  0
  4 90  1  0  0  0
  5  6  1  0  0  0
  5 26  1  0  0  0
  5 91  1  0  0  0
  6 25  1  0  0  0
  6 92  1  0  0  0
  6 93  1  0  0  0
  7  8  2  0  0  0
  7 26  1  0  0  0
  7 29  1  0  0  0
  8  9  1  0  0  0
  8 22  1  0  0  0
  9 10  1  0  0  0
  9 27  2  0  0  0
 10 11  2  0  0  0
 10 15  1  0  0  0
 11 12  1  0  0  0
 11 94  1  0  0  0
 12 13  2  0  0  0
 12 95  1  0  0  0
 13 14  1  0  0  0
 13 31  1  0  0  0
 14 15  2  0  0  0
 14 96  1  0  0  0
 15 97  1  0  0  0
 16 17  2  0  0  0
 16 21  1  0  0  0
 16 31  1  0  0  0
 17 18  1  0  0  0
 17 98  1  0  0  0
 18 19  2  0  0  0
 18 99  1  0  0  0
 19 20  1  0  0  0
 19 24  1  0  0  0
 20 21  2  0  0  0
 20100  1  0  0  0
 21 23  1  0  0  0
 22 28  1  0  0  0
 22 32  2  0  0  0
 26 27  1  0  0  0
 28101  1  0  0  0
 28102  1  0  0  0
 29103  1  0  0  0
 29104  1  0  0  0
 33 34  1  0  0  0
 33 66  1  0  0  0
 33 70  2  0  0  0
 34 36  1  0  0  0
 34 59  1  0  0  0
 34105  1  0  0  0
 35 44  2  0  0  0
 35 45  1  0  0  0
 35 68  1  0  0  0
 36 56  1  0  0  0
 36106  1  0  0  0
 37 39  1  0  0  0
 37 47  1  0  0  0
 37 66  1  0  0  0
 37107  1  0  0  0
 38 43  2  0  0  0
 38 46  1  0  0  0
 38 47  1  0  0  0
 39 64  1  0  0  0
 39 67  2  0  0  0
 40 52  1  0  0  0
 40 53  2  0  0  0
 40 58  1  0  0  0
 41108  1  0  0  0
 41109  1  0  0  0
 41110  1  0  0  0
 41 48  1  0  0  0
 42 43  1  0  0  0
 42 66  1  0  0  0
 42111  1  0  0  0
 42112  1  0  0  0
 43 44  1  0  0  0
 44113  1  0  0  0
 45 46  2  0  0  0
 45114  1  0  0  0
 46115  1  0  0  0
 47116  1  0  0  0
 47117  1  0  0  0
 48 56  1  0  0  0
 48 65  1  0  0  0
 48118  1  0  0  0
 49 50  1  0  0  0
 49 53  1  0  0  0
 49 64  1  0  0  0
 49119  1  0  0  0
 50 51  1  0  0  0
 50120  1  0  0  0
 50121  1  0  0  0
 51 52  1  0  0  0
 51122  1  0  0  0
 51123  1  0  0  0
 52124  1  0  0  0
 52125  1  0  0  0
 53 54  1  0  0  0
 54 55  2  0  0  0
 54126  1  0  0  0
 55 57  1  0  0  0
 55127  1  0  0  0
 56 69  2  0  0  0
 57 58  2  0  0  0
 57128  1  0  0  0
 58129  1  0  0  0
 59 60  1  0  0  0
 59 61  1  0  0  0
 59 62  1  0  0  0
 60130  1  0  0  0
 60131  1  0  0  0
 60132  1  0  0  0
 61133  1  0  0  0
 61134  1  0  0  0
 61135  1  0  0  0
 62136  1  0  0  0
 62137  1  0  0  0
 62138  1  0  0  0
 63 65  1  0  0  0
 63139  1  0  0  0
 63140  1  0  0  0
 63141  1  0  0  0
 64142  1  0  0  0
 65143  1  0  0  0
 68 80  1  0  0  0
 71 73  2  0  0  0
 71 81  1  0  0  0
 71144  1  0  0  0
 72 75  1  0  0  0
 72 81  2  0  0  0
 72145  1  0  0  0
 73 74  1  0  0  0
 73 77  1  0  0  0
 74 75  2  0  0  0
 74 76  1  0  0  0
 75 83  1  0  0  0
 76 78  2  0  0  0
 76146  1  0  0  0
 77 82  1  0  0  0
 77 84  2  0  0  0
 78 79  1  0  0  0
 78 82  1  0  0  0
 79147  1  0  0  0
 79148  1  0  0  0
 79149  1  0  0  0
 80 82  1  0  0  0
 80150  1  0  0  0
 80151  1  0  0  0
 83152  1  0  0  0
M  ISO  4   1 100  68 101  80 101  83 100
M  END
> <chiral flag>
0

> <version>
0

> <s_m_source_file>
/data/baiqing/PycharmProjects/Reinvent-master-3.2/result/LINK_invent/BTK/process_docking_weight1_custom_sum_contain_oxygen_bond_distance_aromatic_linkinvent_7_9_3/rearranged_h_0124.sdf

> <i_m_source_file_index>
11

> <r_mmod_Potential_Energy-OPLS-2005>
1110.5361328125

> <r_mmod_Stretch_Energy-OPLS-2005>
551.279174804688

> <r_mmod_Bend_Energy-OPLS-2005>
457.946197509766

> <r_mmod_Torsional_Energy-OPLS-2005>
215.056365966797

> <r_mmod_Improper_Torsional_Energy-OPLS-2005>
6.84131622314453

> <r_mmod_Van_der_Waal_Energy-OPLS-2005>
159.786361694336

> <r_mmod_Electrostatic_Energy-OPLS-2005>
-505.374450683594

> <r_mmod_Solvation_Energy-OPLS-2005>
-243.582901000977

> <b_mmod_Minimization_Converged-OPLS-2005>
0

> <r_mmod_RMS_Derivative-OPLS-2005>
1.81607270240784

$$$$
11
                    3D
 Structure written by MMmdl.
159167  0  0  1  0            999 V2000
  -30.6600  -14.5899   20.5237 C   0  0  0  0  0  0
  -30.4282  -12.3697   19.4414 C   0  0  0  0  0  0
  -29.4994  -12.4998   18.2157 C   0  0  0  0  0  0
  -28.0230  -12.3445   18.6312 C   0  0  0  0  0  0
  -27.6514  -13.2152   19.8614 C   0  0  2  0  0  0
  -28.6962  -13.0666   20.9893 C   0  0  0  0  0  0
  -25.2549  -13.8169   20.5680 C   0  0  0  0  0  0
  -24.1820  -13.0436   20.9195 C   0  0  0  0  0  0
  -24.6387  -11.6907   20.8746 C   0  0  0  0  0  0
  -23.9058  -10.4291   21.0410 C   0  0  0  0  0  0
  -24.3612   -9.4206   21.9186 C   0  0  0  0  0  0
  -23.6289   -8.2241   22.0754 C   0  0  0  0  0  0
  -22.4272   -8.0278   21.3543 C   0  0  0  0  0  0
  -21.9906   -9.0252   20.4646 C   0  0  0  0  0  0
  -22.7232  -10.2132   20.3058 C   0  0  0  0  0  0
  -21.6851   -6.0733   22.5279 C   0  0  0  0  0  0
  -21.4014   -6.5639   23.8212 C   0  0  0  0  0  0
  -21.3660   -5.6792   24.9175 C   0  0  0  0  0  0
  -21.6044   -4.3054   24.7226 C   0  0  0  0  0  0
  -21.8819   -3.8146   23.4348 C   0  0  0  0  0  0
  -21.9192   -4.6962   22.3403 C   0  0  0  0  0  0
  -22.7844  -13.5230   21.1859 C   0  0  0  0  0  0
  -22.1661   -4.2147   21.0980 F   0  0  0  0  0  0
  -21.5630   -3.4538   25.7740 F   0  0  0  0  0  0
  -30.0118  -13.3915   20.4193 N   0  0  0  0  0  0
  -26.2975  -12.9350   20.3316 N   0  0  0  0  0  0
  -25.9313  -11.6506   20.5762 N   0  0  0  0  0  0
  -22.0486  -12.8220   22.0414 N   0  0  0  0  0  0
  -25.4258  -15.1890   20.4076 N   0  0  0  0  0  0
  -31.8254  -14.7329   20.1469 O   0  0  0  0  0  0
  -21.6637   -6.8875   21.4240 O   0  0  0  0  0  0
  -22.3534  -14.5541   20.6712 O   0  0  0  0  0  0
  -24.6231  -31.8618   23.2043 C   0  0  0  0  0  0
  -25.9092  -32.4789   23.8362 C   0  0  1  0  0  0
  -27.2295  -27.3491   20.0973 C   0  0  0  0  0  0
  -25.5916  -33.8589   24.2289 N   0  0  0  0  0  0
  -23.4140  -30.4863   21.5472 C   0  0  2  0  0  0
  -24.8578  -28.9431   20.1133 C   0  0  0  0  0  0
  -22.7452  -29.4636   22.4955 C   0  0  0  0  0  0
  -18.0280  -28.1381   22.8488 C   0  0  0  0  0  0
  -24.1487  -36.7298   23.2639 C   0  0  0  0  0  0
  -25.9523  -30.8012   21.3693 C   0  0  0  0  0  0
  -26.0253  -29.4306   20.7116 C   0  0  0  0  0  0
  -27.2095  -28.6429   20.6971 C   0  0  0  0  0  0
  -26.0264  -26.8933   19.5068 C   0  0  0  0  0  0
  -24.8578  -27.6775   19.5084 C   0  0  0  0  0  0
  -23.6251  -29.8200   20.1624 C   0  0  0  0  0  0
  -25.4111  -36.3089   24.0328 C   0  0  1  0  0  0
  -20.5877  -28.3679   23.1294 C   0  0  2  0  0  0
  -20.6767  -26.9407   22.5412 C   0  0  0  0  0  0
  -19.5745  -26.6385   21.5210 C   0  0  0  0  0  0
  -18.1925  -26.7927   22.1621 C   0  0  0  0  0  0
  -19.1532  -28.8847   23.2887 C   0  0  0  0  0  0
  -18.9457  -30.1450   23.8902 C   0  0  0  0  0  0
  -17.6458  -30.6586   24.0563 C   0  0  0  0  0  0
  -25.9045  -34.9458   23.5108 C   0  0  0  0  0  0
  -16.5349  -29.9085   23.6330 C   0  0  0  0  0  0
  -16.7268  -28.6502   23.0352 C   0  0  0  0  0  0
  -26.4488  -31.6598   25.0726 C   0  0  0  0  0  0
  -25.3731  -31.3724   26.1459 C   0  0  0  0  0  0
  -27.0331  -30.3029   24.6162 C   0  0  0  0  0  0
  -27.6054  -32.4332   25.7491 C   0  0  0  0  0  0
  -27.5579  -37.1801   24.8463 C   0  0  0  0  0  0
  -21.4170  -29.3038   22.3693 N   0  0  0  0  0  0
  -26.4290  -37.3782   23.9409 N   0  0  0  0  0  0
  -24.6821  -31.0657   22.0976 N   0  0  0  0  0  0
  -23.4192  -28.8174   23.3020 O   0  0  0  0  0  0
  -28.3927  -26.5723   20.1424 O   0  0  0  0  0  0
  -26.5614  -34.8920   22.4674 O   0  0  0  0  0  0
  -23.5404  -32.1403   23.7393 O   0  0  0  0  0  0
  -30.2488  -23.4205   20.0100 C   0  0  0  0  0  0
  -27.8420  -22.7879   19.9187 C   0  0  0  0  0  0
  -30.5655  -22.0617   20.7047 C   0  0  0  0  0  0
  -28.1730  -21.4188   20.6131 C   0  0  0  0  0  0
  -28.8126  -23.9652   20.2524 C   0  0  2  0  0  0
  -29.6091  -20.8952   20.3200 C   0  0  2  0  0  0
  -28.5251  -25.2970   19.4291 C   0  0  0  0  0  0
  -30.3725  -17.0644   21.1702 C   0  0  0  0  0  0
  -29.5485  -18.2671   20.5430 C   0  0  0  0  0  0
  -29.9109  -15.6632   20.9056 N   0  0  0  0  0  0
  -29.9958  -19.6206   21.0417 N   0  3  0  0  0  0
  -31.4708  -12.4828   19.1391 H   0  0  0  0  0  0
  -30.3504  -11.3738   19.8804 H   0  0  0  0  0  0
  -29.7570  -11.7505   17.4660 H   0  0  0  0  0  0
  -29.6475  -13.4712   17.7411 H   0  0  0  0  0  0
  -27.8561  -11.2916   18.8616 H   0  0  0  0  0  0
  -27.3672  -12.5779   17.7917 H   0  0  0  0  0  0
  -27.6724  -14.2512   19.5228 H   0  0  0  0  0  0
  -28.6993  -12.0473   21.3784 H   0  0  0  0  0  0
  -28.4499  -13.7082   21.8367 H   0  0  0  0  0  0
  -25.2757   -9.5683   22.4761 H   0  0  0  0  0  0
  -24.0000   -7.4632   22.7472 H   0  0  0  0  0  0
  -21.0839   -8.8769   19.8951 H   0  0  0  0  0  0
  -22.3690  -10.9672   19.6167 H   0  0  0  0  0  0
  -21.2005   -7.6147   23.9715 H   0  0  0  0  0  0
  -21.1483   -6.0522   25.9077 H   0  0  0  0  0  0
  -22.0598   -2.7608   23.2848 H   0  0  0  0  0  0
  -22.4100  -11.9875   22.4791 H   0  0  0  0  0  0
  -21.1105  -13.1246   22.2627 H   0  0  0  0  0  0
  -24.6544  -15.8402   20.5059 H   0  0  0  0  0  0
  -26.2672  -15.6245   20.0524 H   0  0  0  0  0  0
  -26.7156  -32.5466   23.1111 H   0  0  0  0  0  0
  -25.0061  -33.9740   25.0430 H   0  0  0  0  0  0
  -22.7066  -31.3060   21.4056 H   0  0  0  0  0  0
  -23.3747  -35.9632   23.3306 H   0  0  0  0  0  0
  -24.3574  -36.8917   22.2051 H   0  0  0  0  0  0
  -23.7244  -37.6503   23.6657 H   0  0  0  0  0  0
  -26.0786  -31.5656   20.6012 H   0  0  0  0  0  0
  -26.8350  -30.8499   21.9954 H   0  0  0  0  0  0
  -28.1095  -29.0173   21.1645 H   0  0  0  0  0  0
  -25.9333  -25.9172   19.0603 H   0  0  0  0  0  0
  -23.9558  -27.2899   19.0549 H   0  0  0  0  0  0
  -23.7406  -30.5947   19.4036 H   0  0  0  0  0  0
  -22.7457  -29.2464   19.8636 H   0  0  0  0  0  0
  -25.1292  -36.1940   25.0822 H   0  0  0  0  0  0
  -20.9969  -28.3250   24.1414 H   0  0  0  0  0  0
  -20.5664  -26.2289   23.3607 H   0  0  0  0  0  0
  -21.6637  -26.7437   22.1210 H   0  0  0  0  0  0
  -19.6905  -25.6296   21.1237 H   0  0  0  0  0  0
  -19.6685  -27.3195   20.6740 H   0  0  0  0  0  0
  -17.4195  -26.6676   21.4022 H   0  0  0  0  0  0
  -18.0324  -26.0067   22.9015 H   0  0  0  0  0  0
  -19.7934  -30.7263   24.2277 H   0  0  0  0  0  0
  -17.5015  -31.6268   24.5160 H   0  0  0  0  0  0
  -15.5350  -30.2988   23.7656 H   0  0  0  0  0  0
  -15.8667  -28.0824   22.7066 H   0  0  0  0  0  0
  -24.5910  -30.7066   25.7792 H   0  0  0  0  0  0
  -24.8912  -32.2883   26.4888 H   0  0  0  0  0  0
  -25.8066  -30.8906   27.0232 H   0  0  0  0  0  0
  -26.2897  -29.6779   24.1198 H   0  0  0  0  0  0
  -27.4053  -29.7285   25.4656 H   0  0  0  0  0  0
  -27.8754  -30.4329   23.9362 H   0  0  0  0  0  0
  -27.2671  -33.3633   26.2071 H   0  0  0  0  0  0
  -28.3858  -32.6895   25.0313 H   0  0  0  0  0  0
  -28.0727  -31.8458   26.5404 H   0  0  0  0  0  0
  -28.2596  -38.0099   24.7518 H   0  0  0  0  0  0
  -28.1078  -36.2632   24.6282 H   0  0  0  0  0  0
  -27.2298  -37.1444   25.8867 H   0  0  0  0  0  0
  -20.9339  -29.8769   21.6916 H   0  0  0  0  0  0
  -26.0173  -38.2856   24.1418 H   0  0  0  0  0  0
  -30.4108  -23.3026   18.9372 H   0  0  0  0  0  0
  -30.9740  -24.1663   20.3385 H   0  0  0  0  0  0
  -26.8245  -23.0831   20.1782 H   0  0  0  0  0  0
  -27.8359  -22.6320   18.8387 H   0  0  0  0  0  0
  -30.5390  -22.2121   21.7850 H   0  0  0  0  0  0
  -31.5934  -21.7836   20.4682 H   0  0  0  0  0  0
  -27.4432  -20.6722   20.2977 H   0  0  0  0  0  0
  -28.0397  -21.5326   21.6897 H   0  0  0  0  0  0
  -28.7072  -24.1973   21.3132 H   0  0  0  0  0  0
  -29.7095  -20.7141   19.2485 H   0  0  0  0  0  0
  -27.7420  -25.1134   18.7002 H   0  0  0  0  0  0
  -29.3853  -25.4639   18.7801 H   0  0  0  0  0  0
  -30.3799  -17.1783   22.2549 H   0  0  0  0  0  0
  -31.4149  -17.1640   20.8631 H   0  0  0  0  0  0
  -28.4861  -18.1523   20.7600 H   0  0  0  0  0  0
  -29.6483  -18.2374   19.4574 H   0  0  0  0  0  0
  -28.9503  -15.4568   21.1364 H   0  0  0  0  0  0
  -29.7430  -19.7042   22.0133 H   0  0  0  0  0  0
  -31.0021  -19.5921   21.0124 H   0  0  0  0  0  0
  1 25  1  0  0  0
  1 30  2  0  0  0
  1 80  1  0  0  0
  2  3  1  0  0  0
  2 25  1  0  0  0
  2 82  1  0  0  0
  2 83  1  0  0  0
  3  4  1  0  0  0
  3 84  1  0  0  0
  3 85  1  0  0  0
  4  5  1  0  0  0
  4 86  1  0  0  0
  4 87  1  0  0  0
  5  6  1  0  0  0
  5 26  1  0  0  0
  5 88  1  0  0  0
  6 25  1  0  0  0
  6 89  1  0  0  0
  6 90  1  0  0  0
  7  8  2  0  0  0
  7 26  1  0  0  0
  7 29  1  0  0  0
  8  9  1  0  0  0
  8 22  1  0  0  0
  9 10  1  0  0  0
  9 27  2  0  0  0
 10 11  2  0  0  0
 10 15  1  0  0  0
 11 12  1  0  0  0
 11 91  1  0  0  0
 12 13  2  0  0  0
 12 92  1  0  0  0
 13 14  1  0  0  0
 13 31  1  0  0  0
 14 15  2  0  0  0
 14 93  1  0  0  0
 15 94  1  0  0  0
 16 17  2  0  0  0
 16 21  1  0  0  0
 16 31  1  0  0  0
 17 18  1  0  0  0
 17 95  1  0  0  0
 18 19  2  0  0  0
 18 96  1  0  0  0
 19 20  1  0  0  0
 19 24  1  0  0  0
 20 21  2  0  0  0
 20 97  1  0  0  0
 21 23  1  0  0  0
 22 28  1  0  0  0
 22 32  2  0  0  0
 26 27  1  0  0  0
 28 98  1  0  0  0
 28 99  1  0  0  0
 29100  1  0  0  0
 29101  1  0  0  0
 33 34  1  0  0  0
 33 66  1  0  0  0
 33 70  2  0  0  0
 34 36  1  0  0  0
 34 59  1  0  0  0
 34102  1  0  0  0
 35 44  2  0  0  0
 35 45  1  0  0  0
 35 68  1  0  0  0
 36 56  1  0  0  0
 36103  1  0  0  0
 37 39  1  0  0  0
 37 47  1  0  0  0
 37 66  1  0  0  0
 37104  1  0  0  0
 38 43  2  0  0  0
 38 46  1  0  0  0
 38 47  1  0  0  0
 39 64  1  0  0  0
 39 67  2  0  0  0
 40 52  1  0  0  0
 40 53  2  0  0  0
 40 58  1  0  0  0
 41105  1  0  0  0
 41106  1  0  0  0
 41107  1  0  0  0
 41 48  1  0  0  0
 42 43  1  0  0  0
 42 66  1  0  0  0
 42108  1  0  0  0
 42109  1  0  0  0
 43 44  1  0  0  0
 44110  1  0  0  0
 45 46  2  0  0  0
 45111  1  0  0  0
 46112  1  0  0  0
 47113  1  0  0  0
 47114  1  0  0  0
 48 56  1  0  0  0
 48 65  1  0  0  0
 48115  1  0  0  0
 49 50  1  0  0  0
 49 53  1  0  0  0
 49 64  1  0  0  0
 49116  1  0  0  0
 50 51  1  0  0  0
 50117  1  0  0  0
 50118  1  0  0  0
 51 52  1  0  0  0
 51119  1  0  0  0
 51120  1  0  0  0
 52121  1  0  0  0
 52122  1  0  0  0
 53 54  1  0  0  0
 54 55  2  0  0  0
 54123  1  0  0  0
 55 57  1  0  0  0
 55124  1  0  0  0
 56 69  2  0  0  0
 57 58  2  0  0  0
 57125  1  0  0  0
 58126  1  0  0  0
 59 60  1  0  0  0
 59 61  1  0  0  0
 59 62  1  0  0  0
 60127  1  0  0  0
 60128  1  0  0  0
 60129  1  0  0  0
 61130  1  0  0  0
 61131  1  0  0  0
 61132  1  0  0  0
 62133  1  0  0  0
 62134  1  0  0  0
 62135  1  0  0  0
 63 65  1  0  0  0
 63136  1  0  0  0
 63137  1  0  0  0
 63138  1  0  0  0
 64139  1  0  0  0
 65140  1  0  0  0
 68 77  1  0  0  0
 71 73  1  0  0  0
 71 75  1  0  0  0
 71141  1  0  0  0
 71142  1  0  0  0
 72 74  1  0  0  0
 72 75  1  0  0  0
 72143  1  0  0  0
 72144  1  0  0  0
 73 76  1  0  0  0
 73145  1  0  0  0
 73146  1  0  0  0
 74 76  1  0  0  0
 74147  1  0  0  0
 74148  1  0  0  0
 75 77  1  0  0  0
 75149  1  0  0  0
 76 81  1  0  0  0
 76150  1  0  0  0
 77151  1  0  0  0
 77152  1  0  0  0
 78 79  1  0  0  0
 78 80  1  0  0  0
 78153  1  0  0  0
 78154  1  0  0  0
 79 81  1  0  0  0
 79155  1  0  0  0
 79156  1  0  0  0
 80157  1  0  0  0
 81158  1  0  0  0
 81159  1  0  0  0
M  CHG  1  81   1
M  ISO  4   1 100  68 101  77 101  80 100
M  END
> <chiral flag>
0

> <version>
0

> <s_m_source_file>
/data/baiqing/PycharmProjects/Reinvent-master-3.2/result/LINK_invent/BTK/process_docking_weight1_custom_sum_contain_oxygen_bond_distance_aromatic_linkinvent_7_9_3/rearranged_h_0124.sdf

> <i_m_source_file_index>
12

> <r_mmod_Potential_Energy-OPLS-2005>
-152.838165283203

> <r_mmod_Stretch_Energy-OPLS-2005>
64.4404754638672

> <r_mmod_Bend_Energy-OPLS-2005>
140.56721496582

> <r_mmod_Torsional_Energy-OPLS-2005>
229.718780517578

> <r_mmod_Improper_Torsional_Energy-OPLS-2005>
3.75444364547729

> <r_mmod_Van_der_Waal_Energy-OPLS-2005>
130.652481079102

> <r_mmod_Electrostatic_Energy-OPLS-2005>
-277.11572265625

> <r_mmod_Solvation_Energy-OPLS-2005>
-479.000396728516

> <b_mmod_Minimization_Converged-OPLS-2005>
0

> <r_mmod_RMS_Derivative-OPLS-2005>
0.337198555469513

$$$$
12
                    3D
 Structure written by MMmdl.
160169  0  0  1  0            999 V2000
  -30.6364  -14.8231   20.4430 C   0  0  0  0  0  0
  -30.4256  -12.5214   19.4695 C   0  0  0  0  0  0
  -29.5001  -12.5050   18.2351 C   0  0  0  0  0  0
  -28.0353  -12.2860   18.6519 C   0  0  0  0  0  0
  -27.6171  -13.1982   19.8288 C   0  0  2  0  0  0
  -28.6693  -13.2386   20.9614 C   0  0  0  0  0  0
  -25.2444  -13.8060   20.5697 C   0  0  0  0  0  0
  -24.1746  -13.0383   20.9238 C   0  0  0  0  0  0
  -24.6323  -11.6834   20.8813 C   0  0  0  0  0  0
  -23.9006  -10.4249   21.0476 C   0  0  0  0  0  0
  -24.3564   -9.4154   21.9231 C   0  0  0  0  0  0
  -23.6252   -8.2196   22.0768 C   0  0  0  0  0  0
  -22.4243   -8.0255   21.3547 C   0  0  0  0  0  0
  -21.9875   -9.0229   20.4649 C   0  0  0  0  0  0
  -22.7203  -10.2111   20.3087 C   0  0  0  0  0  0
  -21.6834   -6.0724   22.5284 C   0  0  0  0  0  0
  -21.3997   -6.5627   23.8211 C   0  0  0  0  0  0
  -21.3642   -5.6786   24.9173 C   0  0  0  0  0  0
  -21.6037   -4.3049   24.7243 C   0  0  0  0  0  0
  -21.8815   -3.8133   23.4357 C   0  0  0  0  0  0
  -21.9174   -4.6950   22.3398 C   0  0  0  0  0  0
  -22.7771  -13.5214   21.1854 C   0  0  0  0  0  0
  -22.1658   -4.2139   21.0987 F   0  0  0  0  0  0
  -21.5629   -3.4525   25.7747 F   0  0  0  0  0  0
  -29.9567  -13.6152   20.3573 N   0  0  0  0  0  0
  -26.2808  -12.9200   20.3232 N   0  0  0  0  0  0
  -25.9231  -11.6395   20.5772 N   0  0  0  0  0  0
  -22.0380  -12.8262   22.0421 N   0  0  0  0  0  0
  -25.4099  -15.1770   20.4078 N   0  0  0  0  0  0
  -31.8528  -14.8140   20.2328 O   0  0  0  0  0  0
  -21.6608   -6.8858   21.4253 O   0  0  0  0  0  0
  -22.3471  -14.5510   20.6639 O   0  0  0  0  0  0
  -24.6331  -31.8535   23.1929 C   0  0  0  0  0  0
  -25.9133  -32.4739   23.8316 C   0  0  1  0  0  0
  -27.2360  -27.2629   20.1338 C   0  0  0  0  0  0
  -25.5930  -33.8547   24.2248 N   0  0  0  0  0  0
  -23.4358  -30.4692   21.5370 C   0  0  2  0  0  0
  -24.8827  -28.9047   20.1183 C   0  0  0  0  0  0
  -22.7533  -29.4595   22.4916 C   0  0  0  0  0  0
  -18.0283  -28.1417   22.8485 C   0  0  0  0  0  0
  -24.1495  -36.7279   23.2638 C   0  0  0  0  0  0
  -25.9792  -30.7658   21.3706 C   0  0  0  0  0  0
  -26.0558  -29.3837   20.7182 C   0  0  0  0  0  0
  -27.2400  -28.5788   20.7034 C   0  0  0  0  0  0
  -26.0404  -26.8383   19.5210 C   0  0  0  0  0  0
  -24.8789  -27.6383   19.5088 C   0  0  0  0  0  0
  -23.6563  -29.7933   20.1559 C   0  0  0  0  0  0
  -25.4119  -36.3068   24.0332 C   0  0  1  0  0  0
  -20.5889  -28.3732   23.1267 C   0  0  2  0  0  0
  -20.6779  -26.9462   22.5389 C   0  0  0  0  0  0
  -19.5742  -26.6407   21.5211 C   0  0  0  0  0  0
  -18.1924  -26.7957   22.1623 C   0  0  0  0  0  0
  -19.1532  -28.8888   23.2867 C   0  0  0  0  0  0
  -18.9460  -30.1488   23.8885 C   0  0  0  0  0  0
  -17.6446  -30.6599   24.0564 C   0  0  0  0  0  0
  -25.9056  -34.9425   23.5080 C   0  0  0  0  0  0
  -16.5345  -29.9095   23.6328 C   0  0  0  0  0  0
  -16.7266  -28.6517   23.0334 C   0  0  0  0  0  0
  -26.4482  -31.6579   25.0711 C   0  0  0  0  0  0
  -25.3736  -31.3728   26.1455 C   0  0  0  0  0  0
  -27.0350  -30.3004   24.6200 C   0  0  0  0  0  0
  -27.6021  -32.4346   25.7461 C   0  0  0  0  0  0
  -27.5585  -37.1790   24.8464 C   0  0  0  0  0  0
  -21.4226  -29.3069   22.3665 N   0  0  0  0  0  0
  -26.4301  -37.3756   23.9397 N   0  0  0  0  0  0
  -24.7017  -31.0477   22.0901 N   0  0  0  0  0  0
  -23.4200  -28.8193   23.3075 O   0  0  0  0  0  0
  -28.3362  -26.3828   20.1028 O   0  0  0  0  0  0
  -26.5636  -34.8892   22.4650 O   0  0  0  0  0  0
  -23.5471  -32.1318   23.7235 O   0  0  0  0  0  0
  -28.5508  -23.6720   20.4139 C   0  0  0  0  0  0
  -29.4635  -22.6728   20.8109 C   0  0  0  0  0  0
  -28.0913  -21.7439   19.4227 C   0  0  0  0  0  0
  -28.4162  -17.9258   20.0342 C   0  0  0  0  0  0
  -28.5981  -16.3945   20.2225 C   0  0  0  0  0  0
  -30.6347  -17.4347   20.6779 C   0  0  0  0  0  0
  -29.5796  -18.6454   20.7067 C   0  0  1  0  0  0
  -30.5924  -22.8564   21.7783 C   0  0  0  0  0  0
  -27.4275  -20.7796   18.4940 C   0  0  0  0  0  0
  -28.2867  -25.1535   20.9534 C   0  0  0  0  0  0
  -30.0048  -20.1049   20.1005 C   0  0  0  0  0  0
  -27.6770  -23.0185   19.5419 N   0  0  0  0  0  0
  -29.1809  -21.4169   20.1587 N   0  0  0  0  0  0
  -29.9815  -16.0675   20.5846 N   0  0  0  0  0  0
  -31.4568  -12.6677   19.1424 H   0  0  0  0  0  0
  -30.4104  -11.5624   19.9932 H   0  0  0  0  0  0
  -29.8137  -11.7261   17.5378 H   0  0  0  0  0  0
  -29.5877  -13.4515   17.6984 H   0  0  0  0  0  0
  -27.9154  -11.2384   18.9288 H   0  0  0  0  0  0
  -27.3731  -12.4498   17.7998 H   0  0  0  0  0  0
  -27.5415  -14.1636   19.3595 H   0  0  0  0  0  0
  -28.7412  -12.2719   21.4595 H   0  0  0  0  0  0
  -28.3764  -13.9496   21.7346 H   0  0  0  0  0  0
  -25.2704   -9.5617   22.4822 H   0  0  0  0  0  0
  -23.9934   -7.4575   22.7477 H   0  0  0  0  0  0
  -21.0796   -8.8741   19.8951 H   0  0  0  0  0  0
  -22.3661  -10.9658   19.6185 H   0  0  0  0  0  0
  -21.1994   -7.6138   23.9708 H   0  0  0  0  0  0
  -21.1474   -6.0524   25.9074 H   0  0  0  0  0  0
  -22.0610   -2.7605   23.2857 H   0  0  0  0  0  0
  -22.3942  -11.9953   22.4899 H   0  0  0  0  0  0
  -21.0988  -13.1326   22.2565 H   0  0  0  0  0  0
  -24.6417  -15.8309   20.5119 H   0  0  0  0  0  0
  -26.2596  -15.6155   20.0842 H   0  0  0  0  0  0
  -26.7224  -32.5347   23.1088 H   0  0  0  0  0  0
  -25.0072  -33.9675   25.0399 H   0  0  0  0  0  0
  -22.7344  -31.2925   21.3853 H   0  0  0  0  0  0
  -23.3748  -35.9617   23.3291 H   0  0  0  0  0  0
  -24.3612  -36.8895   22.2053 H   0  0  0  0  0  0
  -23.7247  -37.6477   23.6663 H   0  0  0  0  0  0
  -26.1156  -31.5285   20.6032 H   0  0  0  0  0  0
  -26.8542  -30.8162   22.0066 H   0  0  0  0  0  0
  -28.1489  -28.9527   21.1522 H   0  0  0  0  0  0
  -26.0075  -25.8612   19.0579 H   0  0  0  0  0  0
  -23.9814  -27.2624   19.0353 H   0  0  0  0  0  0
  -23.7905  -30.5604   19.3927 H   0  0  0  0  0  0
  -22.7737  -29.2244   19.8566 H   0  0  0  0  0  0
  -25.1308  -36.1912   25.0834 H   0  0  0  0  0  0
  -20.9944  -28.3300   24.1395 H   0  0  0  0  0  0
  -20.5661  -26.2379   23.3602 H   0  0  0  0  0  0
  -21.6665  -26.7478   22.1201 H   0  0  0  0  0  0
  -19.6899  -25.6300   21.1274 H   0  0  0  0  0  0
  -19.6655  -27.3190   20.6723 H   0  0  0  0  0  0
  -17.4192  -26.6690   21.4028 H   0  0  0  0  0  0
  -18.0324  -26.0104   22.9024 H   0  0  0  0  0  0
  -19.7923  -30.7322   24.2257 H   0  0  0  0  0  0
  -17.4977  -31.6263   24.5211 H   0  0  0  0  0  0
  -15.5331  -30.2973   23.7654 H   0  0  0  0  0  0
  -15.8676  -28.0820   22.7045 H   0  0  0  0  0  0
  -24.5880  -30.7119   25.7778 H   0  0  0  0  0  0
  -24.8959  -32.2893   26.4910 H   0  0  0  0  0  0
  -25.8050  -30.8854   27.0214 H   0  0  0  0  0  0
  -26.2944  -29.6725   24.1237 H   0  0  0  0  0  0
  -27.4072  -29.7265   25.4696 H   0  0  0  0  0  0
  -27.8782  -30.4269   23.9418 H   0  0  0  0  0  0
  -27.2617  -33.3634   26.2036 H   0  0  0  0  0  0
  -28.3792  -32.6943   25.0276 H   0  0  0  0  0  0
  -28.0753  -31.8509   26.5353 H   0  0  0  0  0  0
  -28.2595  -38.0092   24.7524 H   0  0  0  0  0  0
  -28.1096  -36.2623   24.6292 H   0  0  0  0  0  0
  -27.2320  -37.1461   25.8873 H   0  0  0  0  0  0
  -20.9455  -29.8790   21.6837 H   0  0  0  0  0  0
  -26.0177  -38.2832   24.1373 H   0  0  0  0  0  0
  -28.4491  -18.1463   18.9664 H   0  0  0  0  0  0
  -27.4506  -18.2621   20.4179 H   0  0  0  0  0  0
  -28.3725  -15.9622   19.2534 H   0  0  0  0  0  0
  -27.9143  -16.0125   20.9800 H   0  0  0  0  0  0
  -31.2688  -17.5499   19.7976 H   0  0  0  0  0  0
  -31.2985  -17.4717   21.5456 H   0  0  0  0  0  0
  -29.3071  -18.7969   21.7512 H   0  0  0  0  0  0
  -30.2156  -23.1080   22.7708 H   0  0  0  0  0  0
  -31.2422  -23.6719   21.4553 H   0  0  0  0  0  0
  -31.2202  -21.9728   21.8817 H   0  0  0  0  0  0
  -28.1379  -20.3825   17.7677 H   0  0  0  0  0  0
  -26.6262  -21.2729   17.9430 H   0  0  0  0  0  0
  -26.9800  -19.9591   19.0450 H   0  0  0  0  0  0
  -27.3188  -25.1561   21.4537 H   0  0  0  0  0  0
  -29.0009  -25.3542   21.7551 H   0  0  0  0  0  0
  -30.2096  -19.9433   19.0413 H   0  0  0  0  0  0
  -30.9867  -20.3350   20.5038 H   0  0  0  0  0  0
  1 25  1  0  0  0
  1 30  2  0  0  0
  1 84  1  0  0  0
  2  3  1  0  0  0
  2 25  1  0  0  0
  2 85  1  0  0  0
  2 86  1  0  0  0
  3  4  1  0  0  0
  3 87  1  0  0  0
  3 88  1  0  0  0
  4  5  1  0  0  0
  4 89  1  0  0  0
  4 90  1  0  0  0
  5  6  1  0  0  0
  5 26  1  0  0  0
  5 91  1  0  0  0
  6 25  1  0  0  0
  6 92  1  0  0  0
  6 93  1  0  0  0
  7  8  2  0  0  0
  7 26  1  0  0  0
  7 29  1  0  0  0
  8  9  1  0  0  0
  8 22  1  0  0  0
  9 10  1  0  0  0
  9 27  2  0  0  0
 10 11  2  0  0  0
 10 15  1  0  0  0
 11 12  1  0  0  0
 11 94  1  0  0  0
 12 13  2  0  0  0
 12 95  1  0  0  0
 13 14  1  0  0  0
 13 31  1  0  0  0
 14 15  2  0  0  0
 14 96  1  0  0  0
 15 97  1  0  0  0
 16 17  2  0  0  0
 16 21  1  0  0  0
 16 31  1  0  0  0
 17 18  1  0  0  0
 17 98  1  0  0  0
 18 19  2  0  0  0
 18 99  1  0  0  0
 19 20  1  0  0  0
 19 24  1  0  0  0
 20 21  2  0  0  0
 20100  1  0  0  0
 21 23  1  0  0  0
 22 28  1  0  0  0
 22 32  2  0  0  0
 26 27  1  0  0  0
 28101  1  0  0  0
 28102  1  0  0  0
 29103  1  0  0  0
 29104  1  0  0  0
 33 34  1  0  0  0
 33 66  1  0  0  0
 33 70  2  0  0  0
 34 36  1  0  0  0
 34 59  1  0  0  0
 34105  1  0  0  0
 35 44  2  0  0  0
 35 45  1  0  0  0
 35 68  1  0  0  0
 36 56  1  0  0  0
 36106  1  0  0  0
 37 39  1  0  0  0
 37 47  1  0  0  0
 37 66  1  0  0  0
 37107  1  0  0  0
 38 43  2  0  0  0
 38 46  1  0  0  0
 38 47  1  0  0  0
 39 64  1  0  0  0
 39 67  2  0  0  0
 40 52  1  0  0  0
 40 53  2  0  0  0
 40 58  1  0  0  0
 41108  1  0  0  0
 41109  1  0  0  0
 41110  1  0  0  0
 41 48  1  0  0  0
 42 43  1  0  0  0
 42 66  1  0  0  0
 42111  1  0  0  0
 42112  1  0  0  0
 43 44  1  0  0  0
 44113  1  0  0  0
 45 46  2  0  0  0
 45114  1  0  0  0
 46115  1  0  0  0
 47116  1  0  0  0
 47117  1  0  0  0
 48 56  1  0  0  0
 48 65  1  0  0  0
 48118  1  0  0  0
 49 50  1  0  0  0
 49 53  1  0  0  0
 49 64  1  0  0  0
 49119  1  0  0  0
 50 51  1  0  0  0
 50120  1  0  0  0
 50121  1  0  0  0
 51 52  1  0  0  0
 51122  1  0  0  0
 51123  1  0  0  0
 52124  1  0  0  0
 52125  1  0  0  0
 53 54  1  0  0  0
 54 55  2  0  0  0
 54126  1  0  0  0
 55 57  1  0  0  0
 55127  1  0  0  0
 56 69  2  0  0  0
 57 58  2  0  0  0
 57128  1  0  0  0
 58129  1  0  0  0
 59 60  1  0  0  0
 59 61  1  0  0  0
 59 62  1  0  0  0
 60130  1  0  0  0
 60131  1  0  0  0
 60132  1  0  0  0
 61133  1  0  0  0
 61134  1  0  0  0
 61135  1  0  0  0
 62136  1  0  0  0
 62137  1  0  0  0
 62138  1  0  0  0
 63 65  1  0  0  0
 63139  1  0  0  0
 63140  1  0  0  0
 63141  1  0  0  0
 64142  1  0  0  0
 65143  1  0  0  0
 68 80  1  0  0  0
 71 72  2  0  0  0
 71 80  1  0  0  0
 71 82  1  0  0  0
 72 78  1  0  0  0
 72 83  1  0  0  0
 73 79  1  0  0  0
 73 82  2  0  0  0
 73 83  1  0  0  0
 74 75  1  0  0  0
 74 77  1  0  0  0
 74144  1  0  0  0
 74145  1  0  0  0
 75 84  1  0  0  0
 75146  1  0  0  0
 75147  1  0  0  0
 76 77  1  0  0  0
 76 84  1  0  0  0
 76148  1  0  0  0
 76149  1  0  0  0
 77 81  1  0  0  0
 77150  1  0  0  0
 78151  1  0  0  0
 78152  1  0  0  0
 78153  1  0  0  0
 79154  1  0  0  0
 79155  1  0  0  0
 79156  1  0  0  0
 80157  1  0  0  0
 80158  1  0  0  0
 81 83  1  0  0  0
 81159  1  0  0  0
 81160  1  0  0  0
M  ISO  4   1 100  68 101  80 101  84 100
M  END
> <chiral flag>
0

> <version>
0

> <s_m_source_file>
/data/baiqing/PycharmProjects/Reinvent-master-3.2/result/LINK_invent/BTK/process_docking_weight1_custom_sum_contain_oxygen_bond_distance_aromatic_linkinvent_7_9_3/rearranged_h_0124.sdf

> <i_m_source_file_index>
13

> <r_mmod_Potential_Energy-OPLS-2005>
458.713989257812

> <r_mmod_Stretch_Energy-OPLS-2005>
133.918121337891

> <r_mmod_Bend_Energy-OPLS-2005>
226.136566162109

> <r_mmod_Torsional_Energy-OPLS-2005>
365.078308105469

> <r_mmod_Improper_Torsional_Energy-OPLS-2005>
6.89643239974976

> <r_mmod_Van_der_Waal_Energy-OPLS-2005>
113.096290588379

> <r_mmod_Electrostatic_Energy-OPLS-2005>
-273.573333740234

> <r_mmod_Solvation_Energy-OPLS-2005>
-221.009857177734

> <b_mmod_Minimization_Converged-OPLS-2005>
0

> <r_mmod_RMS_Derivative-OPLS-2005>
5.22494554519653

$$$$
13
                    3D
 Structure written by MMmdl.
160169  0  0  1  0            999 V2000
  -30.6408  -14.5351   20.5189 C   0  0  0  0  0  0
  -30.4289  -12.3311   19.4278 C   0  0  0  0  0  0
  -29.4977  -12.5100   18.2089 C   0  0  0  0  0  0
  -28.0169  -12.3673   18.6187 C   0  0  0  0  0  0
  -27.6569  -13.2067   19.8735 C   0  0  2  0  0  0
  -28.7018  -12.9995   20.9937 C   0  0  0  0  0  0
  -25.2564  -13.8157   20.5680 C   0  0  0  0  0  0
  -24.1818  -13.0426   20.9177 C   0  0  0  0  0  0
  -24.6378  -11.6902   20.8725 C   0  0  0  0  0  0
  -23.9048  -10.4288   21.0402 C   0  0  0  0  0  0
  -24.3602   -9.4213   21.9186 C   0  0  0  0  0  0
  -23.6292   -8.2243   22.0760 C   0  0  0  0  0  0
  -22.4276   -8.0273   21.3550 C   0  0  0  0  0  0
  -21.9900   -9.0237   20.4639 C   0  0  0  0  0  0
  -22.7224  -10.2123   20.3050 C   0  0  0  0  0  0
  -21.6852   -6.0726   22.5279 C   0  0  0  0  0  0
  -21.4014   -6.5636   23.8207 C   0  0  0  0  0  0
  -21.3667   -5.6795   24.9174 C   0  0  0  0  0  0
  -21.6053   -4.3057   24.7228 C   0  0  0  0  0  0
  -21.8819   -3.8146   23.4346 C   0  0  0  0  0  0
  -21.9189   -4.6954   22.3397 C   0  0  0  0  0  0
  -22.7839  -13.5220   21.1837 C   0  0  0  0  0  0
  -22.1663   -4.2131   21.0977 F   0  0  0  0  0  0
  -21.5634   -3.4546   25.7745 F   0  0  0  0  0  0
  -30.0257  -13.3232   20.4363 N   0  0  0  0  0  0
  -26.2994  -12.9324   20.3357 N   0  0  0  0  0  0
  -25.9307  -11.6485   20.5764 N   0  0  0  0  0  0
  -22.0491  -12.8191   22.0383 N   0  0  0  0  0  0
  -25.4261  -15.1877   20.4061 N   0  0  0  0  0  0
  -31.7938  -14.7283   20.1215 O   0  0  0  0  0  0
  -21.6647   -6.8872   21.4247 O   0  0  0  0  0  0
  -22.3524  -14.5540   20.6714 O   0  0  0  0  0  0
  -24.6189  -31.8635   23.2053 C   0  0  0  0  0  0
  -25.9068  -32.4801   23.8361 C   0  0  1  0  0  0
  -27.2429  -27.4027   20.0929 C   0  0  0  0  0  0
  -25.5922  -33.8599   24.2301 N   0  0  0  0  0  0
  -23.4083  -30.4867   21.5433 C   0  0  2  0  0  0
  -24.8562  -28.9425   20.1127 C   0  0  0  0  0  0
  -22.7424  -29.4655   22.4941 C   0  0  0  0  0  0
  -18.0283  -28.1392   22.8497 C   0  0  0  0  0  0
  -24.1492  -36.7309   23.2640 C   0  0  0  0  0  0
  -25.9401  -30.8195   21.3620 C   0  0  0  0  0  0
  -26.0164  -29.4485   20.7128 C   0  0  0  0  0  0
  -27.2070  -28.6813   20.7063 C   0  0  0  0  0  0
  -26.0574  -26.9121   19.4999 C   0  0  0  0  0  0
  -24.8731  -27.6739   19.5058 C   0  0  0  0  0  0
  -23.6198  -29.8140   20.1601 C   0  0  0  0  0  0
  -25.4122  -36.3097   24.0331 C   0  0  1  0  0  0
  -20.5872  -28.3693   23.1309 C   0  0  2  0  0  0
  -20.6772  -26.9421   22.5419 C   0  0  0  0  0  0
  -19.5740  -26.6395   21.5228 C   0  0  0  0  0  0
  -18.1920  -26.7943   22.1628 C   0  0  0  0  0  0
  -19.1528  -28.8859   23.2905 C   0  0  0  0  0  0
  -18.9457  -30.1473   23.8904 C   0  0  0  0  0  0
  -17.6454  -30.6603   24.0571 C   0  0  0  0  0  0
  -25.9050  -34.9464   23.5111 C   0  0  0  0  0  0
  -16.5351  -29.9103   23.6337 C   0  0  0  0  0  0
  -16.7273  -28.6522   23.0351 C   0  0  0  0  0  0
  -26.4485  -31.6590   25.0703 C   0  0  0  0  0  0
  -25.3753  -31.3667   26.1446 C   0  0  0  0  0  0
  -27.0358  -30.3050   24.6092 C   0  0  0  0  0  0
  -27.6037  -32.4315   25.7498 C   0  0  0  0  0  0
  -27.5576  -37.1833   24.8467 C   0  0  0  0  0  0
  -21.4145  -29.3048   22.3699 N   0  0  0  0  0  0
  -26.4302  -37.3788   23.9391 N   0  0  0  0  0  0
  -24.6735  -31.0722   22.0951 N   0  0  0  0  0  0
  -23.4184  -28.8210   23.3001 O   0  0  0  0  0  0
  -28.4153  -26.6626   20.1231 O   0  0  0  0  0  0
  -26.5604  -34.8917   22.4667 O   0  0  0  0  0  0
  -23.5380  -32.1389   23.7448 O   0  0  0  0  0  0
  -28.3236  -21.8491   18.7135 C   0  0  0  0  0  0
  -28.9820  -22.2784   20.9997 C   0  0  0  0  0  0
  -28.2709  -23.2405   18.4667 C   0  0  0  0  0  0
  -28.9216  -23.6772   20.7542 C   0  0  0  0  0  0
  -28.7021  -21.3340   19.9758 C   0  0  0  0  0  0
  -28.5783  -24.1803   19.4763 C   0  0  0  0  0  0
  -29.1002  -19.3046   21.6090 C   0  0  0  0  0  0
  -29.7817  -19.1020   19.2160 C   0  0  0  0  0  0
  -29.0854  -17.7568   21.7414 C   0  0  0  0  0  0
  -29.7785  -17.5515   19.3263 C   0  0  0  0  0  0
  -28.7785  -19.7928   20.1749 C   0  0  2  0  0  0
  -30.0369  -17.0222   20.7614 C   0  0  2  0  0  0
  -28.6760  -25.6762   19.1012 C   0  0  0  0  0  0
  -29.8228  -15.5583   20.8616 N   0  0  0  0  0  0
  -31.4726  -12.4436   19.1300 H   0  0  0  0  0  0
  -30.3376  -11.3235   19.8363 H   0  0  0  0  0  0
  -29.7435  -11.7803   17.4355 H   0  0  0  0  0  0
  -29.6595  -13.4938   17.7650 H   0  0  0  0  0  0
  -27.8259  -11.3108   18.8108 H   0  0  0  0  0  0
  -27.3698  -12.6460   17.7861 H   0  0  0  0  0  0
  -27.6916  -14.2523   19.5688 H   0  0  0  0  0  0
  -28.6902  -11.9649   21.3405 H   0  0  0  0  0  0
  -28.4668  -13.6048   21.8703 H   0  0  0  0  0  0
  -25.2744   -9.5694   22.4752 H   0  0  0  0  0  0
  -24.0004   -7.4642   22.7488 H   0  0  0  0  0  0
  -21.0838   -8.8744   19.8929 H   0  0  0  0  0  0
  -22.3684  -10.9654   19.6151 H   0  0  0  0  0  0
  -21.2008   -7.6144   23.9700 H   0  0  0  0  0  0
  -21.1501   -6.0534   25.9079 H   0  0  0  0  0  0
  -22.0587   -2.7602   23.2860 H   0  0  0  0  0  0
  -22.4149  -11.9847   22.4722 H   0  0  0  0  0  0
  -21.1098  -13.1182   22.2601 H   0  0  0  0  0  0
  -24.6527  -15.8371   20.5040 H   0  0  0  0  0  0
  -26.2679  -15.6248   20.0529 H   0  0  0  0  0  0
  -26.7154  -32.5502   23.1137 H   0  0  0  0  0  0
  -25.0090  -33.9747   25.0458 H   0  0  0  0  0  0
  -22.6988  -31.3040   21.3994 H   0  0  0  0  0  0
  -23.3758  -35.9633   23.3284 H   0  0  0  0  0  0
  -24.3566  -36.8949   22.2052 H   0  0  0  0  0  0
  -23.7249  -37.6508   23.6675 H   0  0  0  0  0  0
  -26.0558  -31.5813   20.5893 H   0  0  0  0  0  0
  -26.8300  -30.8772   21.9785 H   0  0  0  0  0  0
  -28.1023  -29.0684   21.1738 H   0  0  0  0  0  0
  -26.0306  -25.9294   19.0503 H   0  0  0  0  0  0
  -23.9793  -27.2723   19.0482 H   0  0  0  0  0  0
  -23.7344  -30.5870   19.3993 H   0  0  0  0  0  0
  -22.7430  -29.2354   19.8616 H   0  0  0  0  0  0
  -25.1310  -36.1955   25.0829 H   0  0  0  0  0  0
  -20.9985  -28.3284   24.1419 H   0  0  0  0  0  0
  -20.5712  -26.2288   23.3609 H   0  0  0  0  0  0
  -21.6639  -26.7469   22.1193 H   0  0  0  0  0  0
  -19.6890  -25.6318   21.1230 H   0  0  0  0  0  0
  -19.6677  -27.3226   20.6779 H   0  0  0  0  0  0
  -17.4195  -26.6734   21.4017 H   0  0  0  0  0  0
  -18.0279  -26.0083   22.9015 H   0  0  0  0  0  0
  -19.7941  -30.7305   24.2245 H   0  0  0  0  0  0
  -17.5017  -31.6268   24.5201 H   0  0  0  0  0  0
  -15.5356  -30.3006   23.7662 H   0  0  0  0  0  0
  -15.8673  -28.0864   22.7026 H   0  0  0  0  0  0
  -24.5921  -30.7026   25.7771 H   0  0  0  0  0  0
  -24.8948  -32.2807   26.4938 H   0  0  0  0  0  0
  -25.8119  -30.8798   27.0176 H   0  0  0  0  0  0
  -26.2919  -29.6769   24.1179 H   0  0  0  0  0  0
  -27.4189  -29.7325   25.4552 H   0  0  0  0  0  0
  -27.8706  -30.4402   23.9211 H   0  0  0  0  0  0
  -27.2660  -33.3635   26.2044 H   0  0  0  0  0  0
  -28.3885  -32.6840   25.0355 H   0  0  0  0  0  0
  -28.0651  -31.8437   26.5447 H   0  0  0  0  0  0
  -28.2613  -38.0112   24.7499 H   0  0  0  0  0  0
  -28.1054  -36.2637   24.6342 H   0  0  0  0  0  0
  -27.2264  -37.1558   25.8863 H   0  0  0  0  0  0
  -20.9304  -29.8774   21.6932 H   0  0  0  0  0  0
  -26.0179  -38.2867   24.1363 H   0  0  0  0  0  0
  -28.0899  -21.1717   17.9048 H   0  0  0  0  0  0
  -29.2642  -21.9443   21.9874 H   0  0  0  0  0  0
  -28.0230  -23.5841   17.4718 H   0  0  0  0  0  0
  -29.1801  -24.3673   21.5446 H   0  0  0  0  0  0
  -30.0771  -19.6804   21.9176 H   0  0  0  0  0  0
  -28.3730  -19.7189   22.3078 H   0  0  0  0  0  0
  -29.5560  -19.3693   18.1838 H   0  0  0  0  0  0
  -30.7853  -19.4831   19.4085 H   0  0  0  0  0  0
  -28.0631  -17.4062   21.5884 H   0  0  0  0  0  0
  -29.3450  -17.4850   22.7649 H   0  0  0  0  0  0
  -30.5322  -17.1483   18.6486 H   0  0  0  0  0  0
  -28.8189  -17.1794   18.9640 H   0  0  0  0  0  0
  -27.7803  -19.4271   19.9253 H   0  0  0  0  0  0
  -31.0684  -17.2478   21.0400 H   0  0  0  0  0  0
  -28.1050  -25.8807   18.1949 H   0  0  0  0  0  0
  -29.7130  -25.8294   18.8006 H   0  0  0  0  0  0
  -28.9010  -15.2674   21.1500 H   0  0  0  0  0  0
  1 25  1  0  0  0
  1 30  2  0  0  0
  1 84  1  0  0  0
  2  3  1  0  0  0
  2 25  1  0  0  0
  2 85  1  0  0  0
  2 86  1  0  0  0
  3  4  1  0  0  0
  3 87  1  0  0  0
  3 88  1  0  0  0
  4  5  1  0  0  0
  4 89  1  0  0  0
  4 90  1  0  0  0
  5  6  1  0  0  0
  5 26  1  0  0  0
  5 91  1  0  0  0
  6 25  1  0  0  0
  6 92  1  0  0  0
  6 93  1  0  0  0
  7  8  2  0  0  0
  7 26  1  0  0  0
  7 29  1  0  0  0
  8  9  1  0  0  0
  8 22  1  0  0  0
  9 10  1  0  0  0
  9 27  2  0  0  0
 10 11  2  0  0  0
 10 15  1  0  0  0
 11 12  1  0  0  0
 11 94  1  0  0  0
 12 13  2  0  0  0
 12 95  1  0  0  0
 13 14  1  0  0  0
 13 31  1  0  0  0
 14 15  2  0  0  0
 14 96  1  0  0  0
 15 97  1  0  0  0
 16 17  2  0  0  0
 16 21  1  0  0  0
 16 31  1  0  0  0
 17 18  1  0  0  0
 17 98  1  0  0  0
 18 19  2  0  0  0
 18 99  1  0  0  0
 19 20  1  0  0  0
 19 24  1  0  0  0
 20 21  2  0  0  0
 20100  1  0  0  0
 21 23  1  0  0  0
 22 28  1  0  0  0
 22 32  2  0  0  0
 26 27  1  0  0  0
 28101  1  0  0  0
 28102  1  0  0  0
 29103  1  0  0  0
 29104  1  0  0  0
 33 34  1  0  0  0
 33 66  1  0  0  0
 33 70  2  0  0  0
 34 36  1  0  0  0
 34 59  1  0  0  0
 34105  1  0  0  0
 35 44  2  0  0  0
 35 45  1  0  0  0
 35 68  1  0  0  0
 36 56  1  0  0  0
 36106  1  0  0  0
 37 39  1  0  0  0
 37 47  1  0  0  0
 37 66  1  0  0  0
 37107  1  0  0  0
 38 43  2  0  0  0
 38 46  1  0  0  0
 38 47  1  0  0  0
 39 64  1  0  0  0
 39 67  2  0  0  0
 40 52  1  0  0  0
 40 53  2  0  0  0
 40 58  1  0  0  0
 41108  1  0  0  0
 41109  1  0  0  0
 41110  1  0  0  0
 41 48  1  0  0  0
 42 43  1  0  0  0
 42 66  1  0  0  0
 42111  1  0  0  0
 42112  1  0  0  0
 43 44  1  0  0  0
 44113  1  0  0  0
 45 46  2  0  0  0
 45114  1  0  0  0
 46115  1  0  0  0
 47116  1  0  0  0
 47117  1  0  0  0
 48 56  1  0  0  0
 48 65  1  0  0  0
 48118  1  0  0  0
 49 50  1  0  0  0
 49 53  1  0  0  0
 49 64  1  0  0  0
 49119  1  0  0  0
 50 51  1  0  0  0
 50120  1  0  0  0
 50121  1  0  0  0
 51 52  1  0  0  0
 51122  1  0  0  0
 51123  1  0  0  0
 52124  1  0  0  0
 52125  1  0  0  0
 53 54  1  0  0  0
 54 55  2  0  0  0
 54126  1  0  0  0
 55 57  1  0  0  0
 55127  1  0  0  0
 56 69  2  0  0  0
 57 58  2  0  0  0
 57128  1  0  0  0
 58129  1  0  0  0
 59 60  1  0  0  0
 59 61  1  0  0  0
 59 62  1  0  0  0
 60130  1  0  0  0
 60131  1  0  0  0
 60132  1  0  0  0
 61133  1  0  0  0
 61134  1  0  0  0
 61135  1  0  0  0
 62136  1  0  0  0
 62137  1  0  0  0
 62138  1  0  0  0
 63 65  1  0  0  0
 63139  1  0  0  0
 63140  1  0  0  0
 63141  1  0  0  0
 64142  1  0  0  0
 65143  1  0  0  0
 68 83  1  0  0  0
 71 73  2  0  0  0
 71 75  1  0  0  0
 71144  1  0  0  0
 72 74  1  0  0  0
 72 75  2  0  0  0
 72145  1  0  0  0
 73 76  1  0  0  0
 73146  1  0  0  0
 74 76  2  0  0  0
 74147  1  0  0  0
 75 81  1  0  0  0
 76 83  1  0  0  0
 77 79  1  0  0  0
 77 81  1  0  0  0
 77148  1  0  0  0
 77149  1  0  0  0
 78 80  1  0  0  0
 78 81  1  0  0  0
 78150  1  0  0  0
 78151  1  0  0  0
 79 82  1  0  0  0
 79152  1  0  0  0
 79153  1  0  0  0
 80 82  1  0  0  0
 80154  1  0  0  0
 80155  1  0  0  0
 81156  1  0  0  0
 82 84  1  0  0  0
 82157  1  0  0  0
 83158  1  0  0  0
 83159  1  0  0  0
 84160  1  0  0  0
M  ISO  4   1 100  68 101  83 101  84 100
M  END
> <chiral flag>
0

> <version>
0

> <s_m_source_file>
/data/baiqing/PycharmProjects/Reinvent-master-3.2/result/LINK_invent/BTK/process_docking_weight1_custom_sum_contain_oxygen_bond_distance_aromatic_linkinvent_7_9_3/rearranged_h_0124.sdf

> <i_m_source_file_index>
14

> <r_mmod_Potential_Energy-OPLS-2005>
-10.5654964447021

> <r_mmod_Stretch_Energy-OPLS-2005>
46.4833984375

> <r_mmod_Bend_Energy-OPLS-2005>
111.887908935547

> <r_mmod_Torsional_Energy-OPLS-2005>
227.869827270508

> <r_mmod_Improper_Torsional_Energy-OPLS-2005>
5.75639772415161

> <r_mmod_Van_der_Waal_Energy-OPLS-2005>
145.925445556641

> <r_mmod_Electrostatic_Energy-OPLS-2005>
-368.930633544922

> <r_mmod_Solvation_Energy-OPLS-2005>
-200.22119140625

> <b_mmod_Minimization_Converged-OPLS-2005>
0

> <r_mmod_RMS_Derivative-OPLS-2005>
1.85504686832428

$$$$
14
                    3D
 Structure written by MMmdl.
156165  0  0  1  0            999 V2000
  -30.5163  -14.8912   20.4429 C   0  0  0  0  0  0
  -30.4499  -12.5486   19.4905 C   0  0  0  0  0  0
  -29.5251  -12.5255   18.2502 C   0  0  0  0  0  0
  -28.0556  -12.3093   18.6670 C   0  0  0  0  0  0
  -27.6349  -13.2306   19.8414 C   0  0  2  0  0  0
  -28.6760  -13.2037   20.9808 C   0  0  0  0  0  0
  -25.2493  -13.8170   20.5684 C   0  0  0  0  0  0
  -24.1793  -13.0426   20.9233 C   0  0  0  0  0  0
  -24.6370  -11.6902   20.8744 C   0  0  0  0  0  0
  -23.9045  -10.4286   21.0417 C   0  0  0  0  0  0
  -24.3602   -9.4204   21.9196 C   0  0  0  0  0  0
  -23.6283   -8.2236   22.0759 C   0  0  0  0  0  0
  -22.4268   -8.0274   21.3553 C   0  0  0  0  0  0
  -21.9895   -9.0249   20.4657 C   0  0  0  0  0  0
  -22.7219  -10.2127   20.3069 C   0  0  0  0  0  0
  -21.6845   -6.0734   22.5286 C   0  0  0  0  0  0
  -21.4015   -6.5640   23.8220 C   0  0  0  0  0  0
  -21.3656   -5.6787   24.9180 C   0  0  0  0  0  0
  -21.6032   -4.3047   24.7229 C   0  0  0  0  0  0
  -21.8818   -3.8146   23.4347 C   0  0  0  0  0  0
  -21.9190   -4.6966   22.3407 C   0  0  0  0  0  0
  -22.7817  -13.5229   21.1879 C   0  0  0  0  0  0
  -22.1658   -4.2152   21.0983 F   0  0  0  0  0  0
  -21.5629   -3.4532   25.7744 F   0  0  0  0  0  0
  -29.9594  -13.6187   20.3987 N   0  0  0  0  0  0
  -26.2895  -12.9364   20.3205 N   0  0  0  0  0  0
  -25.9292  -11.6509   20.5701 N   0  0  0  0  0  0
  -22.0439  -12.8243   22.0426 N   0  0  0  0  0  0
  -25.4173  -15.1889   20.4073 N   0  0  0  0  0  0
  -31.7153  -15.0047   20.1574 O   0  0  0  0  0  0
  -21.6629   -6.8873   21.4247 O   0  0  0  0  0  0
  -22.3520  -14.5531   20.6702 O   0  0  0  0  0  0
  -24.6392  -31.8464   23.1884 C   0  0  0  0  0  0
  -25.9187  -32.4698   23.8256 C   0  0  1  0  0  0
  -27.2224  -27.1742   20.1652 C   0  0  0  0  0  0
  -25.5947  -33.8501   24.2187 N   0  0  0  0  0  0
  -23.4394  -30.4652   21.5328 C   0  0  2  0  0  0
  -24.8893  -28.8866   20.1199 C   0  0  0  0  0  0
  -22.7526  -29.4581   22.4875 C   0  0  0  0  0  0
  -18.0301  -28.1391   22.8478 C   0  0  0  0  0  0
  -24.1499  -36.7265   23.2639 C   0  0  0  0  0  0
  -25.9903  -30.7339   21.3790 C   0  0  0  0  0  0
  -26.0639  -29.3444   20.7310 C   0  0  0  0  0  0
  -27.2340  -28.5050   20.7332 C   0  0  0  0  0  0
  -26.0216  -26.7937   19.5328 C   0  0  0  0  0  0
  -24.8772  -27.6209   19.5093 C   0  0  0  0  0  0
  -23.6635  -29.7851   20.1556 C   0  0  0  0  0  0
  -25.4122  -36.3029   24.0317 C   0  0  1  0  0  0
  -20.5909  -28.3726   23.1244 C   0  0  2  0  0  0
  -20.6787  -26.9434   22.5405 C   0  0  0  0  0  0
  -19.5763  -26.6383   21.5211 C   0  0  0  0  0  0
  -18.1943  -26.7932   22.1620 C   0  0  0  0  0  0
  -19.1556  -28.8872   23.2853 C   0  0  0  0  0  0
  -18.9476  -30.1468   23.8874 C   0  0  0  0  0  0
  -17.6476  -30.6590   24.0562 C   0  0  0  0  0  0
  -25.9071  -34.9409   23.5056 C   0  0  0  0  0  0
  -16.5367  -29.9085   23.6340 C   0  0  0  0  0  0
  -16.7286  -28.6507   23.0354 C   0  0  0  0  0  0
  -26.4526  -31.6548   25.0678 C   0  0  0  0  0  0
  -25.3725  -31.3745   26.1388 C   0  0  0  0  0  0
  -27.0403  -30.2947   24.6241 C   0  0  0  0  0  0
  -27.6051  -32.4319   25.7472 C   0  0  0  0  0  0
  -27.5586  -37.1772   24.8452 C   0  0  0  0  0  0
  -21.4229  -29.3056   22.3615 N   0  0  0  0  0  0
  -26.4280  -37.3744   23.9421 N   0  0  0  0  0  0
  -24.7089  -31.0364   22.0891 N   0  0  0  0  0  0
  -23.4190  -28.8140   23.3022 O   0  0  0  0  0  0
  -28.3108  -26.2480   20.1552 O   0  0  0  0  0  0
  -26.5649  -34.8907   22.4634 O   0  0  0  0  0  0
  -23.5524  -32.1326   23.7134 O   0  0  0  0  0  0
  -28.3490  -19.6905   20.3876 C   0  0  0  0  0  0
  -28.4437  -18.2432   20.4274 C   0  0  0  0  0  0
  -30.6748  -19.7142   20.6147 C   0  0  0  0  0  0
  -29.4964  -20.5345   20.4721 C   0  0  0  0  0  0
  -29.6755  -17.5082   20.5387 C   0  0  0  0  0  0
  -30.9339  -22.6095   19.8752 C   0  0  0  0  0  0
  -29.3382  -23.7864   18.6232 C   0  0  0  0  0  0
  -29.5721  -22.1914   20.5009 C   0  0  1  0  0  0
  -28.5617  -23.3714   19.8704 C   0  0  1  0  0  0
  -28.1845  -24.7983   20.6658 C   0  0  0  0  0  0
  -30.7671  -18.3284   20.6274 N   0  0  0  0  0  0
  -29.6395  -15.9893   20.6013 N   0  0  0  0  0  0
  -30.7294  -23.8277   19.0793 N   0  3  0  0  0  0
  -31.4858  -12.7156   19.1878 H   0  0  0  0  0  0
  -30.4436  -11.5829   19.9988 H   0  0  0  0  0  0
  -29.8388  -11.7411   17.5602 H   0  0  0  0  0  0
  -29.6176  -13.4670   17.7047 H   0  0  0  0  0  0
  -27.9501  -11.2667   18.9693 H   0  0  0  0  0  0
  -27.3915  -12.4458   17.8133 H   0  0  0  0  0  0
  -27.6132  -14.2398   19.4294 H   0  0  0  0  0  0
  -28.7486  -12.2028   21.4104 H   0  0  0  0  0  0
  -28.3814  -13.8661   21.7970 H   0  0  0  0  0  0
  -25.2742   -9.5684   22.4775 H   0  0  0  0  0  0
  -23.9994   -7.4621   22.7469 H   0  0  0  0  0  0
  -21.0831   -8.8758   19.8962 H   0  0  0  0  0  0
  -22.3672  -10.9666   19.6176 H   0  0  0  0  0  0
  -21.2010   -7.6147   23.9731 H   0  0  0  0  0  0
  -21.1476   -6.0514   25.9082 H   0  0  0  0  0  0
  -22.0598   -2.7614   23.2845 H   0  0  0  0  0  0
  -22.4020  -11.9904   22.4837 H   0  0  0  0  0  0
  -21.1067  -13.1305   22.2621 H   0  0  0  0  0  0
  -24.6354  -15.8280   20.5021 H   0  0  0  0  0  0
  -26.2191  -15.6110   19.9597 H   0  0  0  0  0  0
  -26.7249  -32.5325   23.0985 H   0  0  0  0  0  0
  -25.0075  -33.9610   25.0321 H   0  0  0  0  0  0
  -22.7404  -31.2894   21.3763 H   0  0  0  0  0  0
  -23.3765  -35.9586   23.3245 H   0  0  0  0  0  0
  -24.3609  -36.8950   22.2066 H   0  0  0  0  0  0
  -23.7246  -37.6443   23.6712 H   0  0  0  0  0  0
  -26.1346  -31.4847   20.6007 H   0  0  0  0  0  0
  -26.8651  -30.7901   22.0155 H   0  0  0  0  0  0
  -28.1349  -28.8547   21.2177 H   0  0  0  0  0  0
  -25.9611  -25.8215   19.0635 H   0  0  0  0  0  0
  -23.9772  -27.2620   19.0295 H   0  0  0  0  0  0
  -23.7932  -30.5520   19.3915 H   0  0  0  0  0  0
  -22.7795  -29.2201   19.8548 H   0  0  0  0  0  0
  -25.1308  -36.1840   25.0805 H   0  0  0  0  0  0
  -21.0002  -28.3316   24.1364 H   0  0  0  0  0  0
  -20.5696  -26.2334   23.3619 H   0  0  0  0  0  0
  -21.6655  -26.7453   22.1201 H   0  0  0  0  0  0
  -19.6931  -25.6288   21.1253 H   0  0  0  0  0  0
  -19.6694  -27.3178   20.6728 H   0  0  0  0  0  0
  -17.4215  -26.6679   21.4019 H   0  0  0  0  0  0
  -18.0340  -26.0073   22.9016 H   0  0  0  0  0  0
  -19.7953  -30.7291   24.2225 H   0  0  0  0  0  0
  -17.5035  -31.6271   24.5165 H   0  0  0  0  0  0
  -15.5366  -30.2984   23.7678 H   0  0  0  0  0  0
  -15.8685  -28.0824   22.7077 H   0  0  0  0  0  0
  -24.5867  -30.7137   25.7709 H   0  0  0  0  0  0
  -24.8965  -32.2945   26.4792 H   0  0  0  0  0  0
  -25.8008  -30.8911   27.0179 H   0  0  0  0  0  0
  -26.3015  -29.6645   24.1272 H   0  0  0  0  0  0
  -27.4061  -29.7259   25.4803 H   0  0  0  0  0  0
  -27.8898  -30.4187   23.9520 H   0  0  0  0  0  0
  -27.2617  -33.3611   26.2036 H   0  0  0  0  0  0
  -28.3872  -32.6902   25.0317 H   0  0  0  0  0  0
  -28.0716  -31.8463   26.5405 H   0  0  0  0  0  0
  -28.2550  -38.0122   24.7560 H   0  0  0  0  0  0
  -28.1133  -36.2652   24.6187 H   0  0  0  0  0  0
  -27.2319  -37.1312   25.8856 H   0  0  0  0  0  0
  -20.9418  -29.8756   21.6796 H   0  0  0  0  0  0
  -26.0139  -38.2803   24.1446 H   0  0  0  0  0  0
  -27.3723  -20.1469   20.3091 H   0  0  0  0  0  0
  -27.5154  -17.6908   20.3723 H   0  0  0  0  0  0
  -31.6319  -20.1963   20.7425 H   0  0  0  0  0  0
  -31.2730  -21.8592   19.1601 H   0  0  0  0  0  0
  -31.7218  -22.7335   20.6191 H   0  0  0  0  0  0
  -29.0139  -24.7330   18.1889 H   0  0  0  0  0  0
  -29.2417  -23.0235   17.8478 H   0  0  0  0  0  0
  -29.6206  -22.4154   21.5672 H   0  0  0  0  0  0
  -27.6194  -22.9146   19.5672 H   0  0  0  0  0  0
  -28.8165  -24.7987   21.5543 H   0  0  0  0  0  0
  -27.1814  -24.6813   21.0772 H   0  0  0  0  0  0
  -28.7037  -15.6500   20.7467 H   0  0  0  0  0  0
  -31.3717  -23.8797   18.3052 H   0  0  0  0  0  0
  -30.8654  -24.6388   19.6603 H   0  0  0  0  0  0
  1 25  1  0  0  0
  1 30  2  0  0  0
  1 82  1  0  0  0
  2  3  1  0  0  0
  2 25  1  0  0  0
  2 84  1  0  0  0
  2 85  1  0  0  0
  3  4  1  0  0  0
  3 86  1  0  0  0
  3 87  1  0  0  0
  4  5  1  0  0  0
  4 88  1  0  0  0
  4 89  1  0  0  0
  5  6  1  0  0  0
  5 26  1  0  0  0
  5 90  1  0  0  0
  6 25  1  0  0  0
  6 91  1  0  0  0
  6 92  1  0  0  0
  7  8  2  0  0  0
  7 26  1  0  0  0
  7 29  1  0  0  0
  8  9  1  0  0  0
  8 22  1  0  0  0
  9 10  1  0  0  0
  9 27  2  0  0  0
 10 11  2  0  0  0
 10 15  1  0  0  0
 11 12  1  0  0  0
 11 93  1  0  0  0
 12 13  2  0  0  0
 12 94  1  0  0  0
 13 14  1  0  0  0
 13 31  1  0  0  0
 14 15  2  0  0  0
 14 95  1  0  0  0
 15 96  1  0  0  0
 16 17  2  0  0  0
 16 21  1  0  0  0
 16 31  1  0  0  0
 17 18  1  0  0  0
 17 97  1  0  0  0
 18 19  2  0  0  0
 18 98  1  0  0  0
 19 20  1  0  0  0
 19 24  1  0  0  0
 20 21  2  0  0  0
 20 99  1  0  0  0
 21 23  1  0  0  0
 22 28  1  0  0  0
 22 32  2  0  0  0
 26 27  1  0  0  0
 28100  1  0  0  0
 28101  1  0  0  0
 29102  1  0  0  0
 29103  1  0  0  0
 33 34  1  0  0  0
 33 66  1  0  0  0
 33 70  2  0  0  0
 34 36  1  0  0  0
 34 59  1  0  0  0
 34104  1  0  0  0
 35 44  2  0  0  0
 35 45  1  0  0  0
 35 68  1  0  0  0
 36 56  1  0  0  0
 36105  1  0  0  0
 37 39  1  0  0  0
 37 47  1  0  0  0
 37 66  1  0  0  0
 37106  1  0  0  0
 38 43  2  0  0  0
 38 46  1  0  0  0
 38 47  1  0  0  0
 39 64  1  0  0  0
 39 67  2  0  0  0
 40 52  1  0  0  0
 40 53  2  0  0  0
 40 58  1  0  0  0
 41107  1  0  0  0
 41108  1  0  0  0
 41109  1  0  0  0
 41 48  1  0  0  0
 42 43  1  0  0  0
 42 66  1  0  0  0
 42110  1  0  0  0
 42111  1  0  0  0
 43 44  1  0  0  0
 44112  1  0  0  0
 45 46  2  0  0  0
 45113  1  0  0  0
 46114  1  0  0  0
 47115  1  0  0  0
 47116  1  0  0  0
 48 56  1  0  0  0
 48 65  1  0  0  0
 48117  1  0  0  0
 49 50  1  0  0  0
 49 53  1  0  0  0
 49 64  1  0  0  0
 49118  1  0  0  0
 50 51  1  0  0  0
 50119  1  0  0  0
 50120  1  0  0  0
 51 52  1  0  0  0
 51121  1  0  0  0
 51122  1  0  0  0
 52123  1  0  0  0
 52124  1  0  0  0
 53 54  1  0  0  0
 54 55  2  0  0  0
 54125  1  0  0  0
 55 57  1  0  0  0
 55126  1  0  0  0
 56 69  2  0  0  0
 57 58  2  0  0  0
 57127  1  0  0  0
 58128  1  0  0  0
 59 60  1  0  0  0
 59 61  1  0  0  0
 59 62  1  0  0  0
 60129  1  0  0  0
 60130  1  0  0  0
 60131  1  0  0  0
 61132  1  0  0  0
 61133  1  0  0  0
 61134  1  0  0  0
 62135  1  0  0  0
 62136  1  0  0  0
 62137  1  0  0  0
 63 65  1  0  0  0
 63138  1  0  0  0
 63139  1  0  0  0
 63140  1  0  0  0
 64141  1  0  0  0
 65142  1  0  0  0
 68 80  1  0  0  0
 71 72  2  0  0  0
 71 74  1  0  0  0
 71143  1  0  0  0
 72 75  1  0  0  0
 72144  1  0  0  0
 73 74  2  0  0  0
 73 81  1  0  0  0
 73145  1  0  0  0
 74 78  1  0  0  0
 75 81  2  0  0  0
 75 82  1  0  0  0
 76 78  1  0  0  0
 76 83  1  0  0  0
 76146  1  0  0  0
 76147  1  0  0  0
 77 79  1  0  0  0
 77 83  1  0  0  0
 77148  1  0  0  0
 77149  1  0  0  0
 78 79  1  0  0  0
 78150  1  0  0  0
 79 80  1  0  0  0
 79151  1  0  0  0
 80152  1  0  0  0
 80153  1  0  0  0
 82154  1  0  0  0
 83155  1  0  0  0
 83156  1  0  0  0
M  CHG  1  83   1
M  ISO  4   1 100  68 101  80 101  82 100
M  END
> <chiral flag>
0

> <version>
0

> <s_m_source_file>
/data/baiqing/PycharmProjects/Reinvent-master-3.2/result/LINK_invent/BTK/process_docking_weight1_custom_sum_contain_oxygen_bond_distance_aromatic_linkinvent_7_9_3/rearranged_h_0124.sdf

> <i_m_source_file_index>
15

> <r_mmod_Potential_Energy-OPLS-2005>
172.296279907227

> <r_mmod_Stretch_Energy-OPLS-2005>
208.961410522461

> <r_mmod_Bend_Energy-OPLS-2005>
295.112884521484

> <r_mmod_Torsional_Energy-OPLS-2005>
312.048400878906

> <r_mmod_Improper_Torsional_Energy-OPLS-2005>
5.55614423751831

> <r_mmod_Van_der_Waal_Energy-OPLS-2005>
131.558929443359

> <r_mmod_Electrostatic_Energy-OPLS-2005>
-434.573394775391

> <r_mmod_Solvation_Energy-OPLS-2005>
-498.709747314453

> <b_mmod_Minimization_Converged-OPLS-2005>
0

> <r_mmod_RMS_Derivative-OPLS-2005>
2.02042889595032

$$$$
15
                    3D
 Structure written by MMmdl.
153162  0  0  1  0            999 V2000
  -30.4546  -15.2014   20.3669 C   0  0  0  0  0  0
  -30.4401  -12.7632   19.5114 C   0  0  0  0  0  0
  -29.5303  -12.5361   18.2795 C   0  0  0  0  0  0
  -28.0764  -12.2792   18.7161 C   0  0  0  0  0  0
  -27.6114  -13.2640   19.8179 C   0  0  2  0  0  0
  -28.6480  -13.4192   20.9486 C   0  0  0  0  0  0
  -25.2401  -13.8231   20.5728 C   0  0  0  0  0  0
  -24.1743  -13.0432   20.9269 C   0  0  0  0  0  0
  -24.6392  -11.6941   20.8787 C   0  0  0  0  0  0
  -23.9099  -10.4289   21.0429 C   0  0  0  0  0  0
  -24.3647   -9.4188   21.9198 C   0  0  0  0  0  0
  -23.6303   -8.2243   22.0757 C   0  0  0  0  0  0
  -22.4284   -8.0293   21.3551 C   0  0  0  0  0  0
  -21.9935   -9.0275   20.4661 C   0  0  0  0  0  0
  -22.7278  -10.2143   20.3069 C   0  0  0  0  0  0
  -21.6846   -6.0745   22.5282 C   0  0  0  0  0  0
  -21.4020   -6.5652   23.8217 C   0  0  0  0  0  0
  -21.3648   -5.6796   24.9181 C   0  0  0  0  0  0
  -21.6037   -4.3058   24.7232 C   0  0  0  0  0  0
  -21.8816   -3.8155   23.4346 C   0  0  0  0  0  0
  -21.9198   -4.6975   22.3409 C   0  0  0  0  0  0
  -22.7760  -13.5199   21.1909 C   0  0  0  0  0  0
  -22.1658   -4.2163   21.0972 F   0  0  0  0  0  0
  -21.5624   -3.4539   25.7737 F   0  0  0  0  0  0
  -29.8830  -13.9063   20.3171 N   0  0  0  0  0  0
  -26.2811  -12.9490   20.3201 N   0  0  0  0  0  0
  -25.9317  -11.6612   20.5744 N   0  0  0  0  0  0
  -22.0437  -12.8178   22.0471 N   0  0  0  0  0  0
  -25.4045  -15.1969   20.4136 N   0  0  0  0  0  0
  -31.6784  -15.2067   20.1768 O   0  0  0  0  0  0
  -21.6637   -6.8895   21.4238 O   0  0  0  0  0  0
  -22.3447  -14.5501   20.6747 O   0  0  0  0  0  0
  -24.6614  -31.8241   23.1765 C   0  0  0  0  0  0
  -25.9317  -32.4606   23.8194 C   0  0  1  0  0  0
  -27.1947  -26.9489   20.1623 C   0  0  0  0  0  0
  -25.5989  -33.8414   24.2087 N   0  0  0  0  0  0
  -23.4710  -30.4456   21.5239 C   0  0  2  0  0  0
  -24.9193  -28.8468   20.1056 C   0  0  0  0  0  0
  -22.7645  -29.4469   22.4779 C   0  0  0  0  0  0
  -18.0314  -28.1432   22.8476 C   0  0  0  0  0  0
  -24.1488  -36.7200   23.2645 C   0  0  0  0  0  0
  -26.0444  -30.6409   21.4036 C   0  0  0  0  0  0
  -26.1055  -29.2354   20.7421 C   0  0  0  0  0  0
  -27.2365  -28.3041   20.7523 C   0  0  0  0  0  0
  -25.9865  -26.7219   19.4653 C   0  0  0  0  0  0
  -24.8862  -27.6105   19.4473 C   0  0  0  0  0  0
  -23.7066  -29.7734   20.1452 C   0  0  0  0  0  0
  -25.4120  -36.2955   24.0309 C   0  0  1  0  0  0
  -20.5948  -28.3761   23.1207 C   0  0  2  0  0  0
  -20.6794  -26.9441   22.5430 C   0  0  0  0  0  0
  -19.5779  -26.6381   21.5246 C   0  0  0  0  0  0
  -18.1939  -26.7973   22.1611 C   0  0  0  0  0  0
  -19.1578  -28.8916   23.2837 C   0  0  0  0  0  0
  -18.9496  -30.1507   23.8866 C   0  0  0  0  0  0
  -17.6491  -30.6615   24.0566 C   0  0  0  0  0  0
  -25.9092  -34.9347   23.5007 C   0  0  0  0  0  0
  -16.5382  -29.9113   23.6342 C   0  0  0  0  0  0
  -16.7297  -28.6535   23.0368 C   0  0  0  0  0  0
  -26.4570  -31.6555   25.0715 C   0  0  0  0  0  0
  -25.3709  -31.3865   26.1399 C   0  0  0  0  0  0
  -27.0415  -30.2888   24.6463 C   0  0  0  0  0  0
  -27.6094  -32.4336   25.7467 C   0  0  0  0  0  0
  -27.5574  -37.1736   24.8459 C   0  0  0  0  0  0
  -21.4334  -29.3040   22.3548 N   0  0  0  0  0  0
  -26.4262  -37.3716   23.9437 N   0  0  0  0  0  0
  -24.7485  -30.9962   22.0867 N   0  0  0  0  0  0
  -23.4232  -28.8020   23.2989 O   0  0  0  0  0  0
  -28.1565  -25.8172   20.2554 O   0  0  0  0  0  0
  -26.5695  -34.8893   22.4601 O   0  0  0  0  0  0
  -23.5674  -32.1201   23.6875 O   0  0  0  0  0  0
  -28.0459  -20.0471   19.9030 C   0  0  0  0  0  0
  -29.6694  -22.1299   20.5294 C   0  0  0  0  0  0
  -27.5774  -21.4548   19.8406 C   0  0  0  0  0  0
  -28.3752  -22.6547   20.1368 C   0  0  0  0  0  0
  -29.3565  -19.6203   20.3204 C   0  0  0  0  0  0
  -25.0833  -21.8563   20.4838 C   0  0  0  0  0  0
  -25.0211  -20.6781   19.5437 C   0  0  0  0  0  0
  -26.1474  -21.6865   19.4218 C   0  0  0  0  0  0
  -27.7657  -24.2758   19.8879 C   0  0  0  0  0  0
  -30.1122  -18.0555   20.4214 C   0  0  0  0  0  0
  -30.0967  -20.7723   20.6168 N   0  0  0  0  0  0
  -29.6968  -16.4629   20.4217 N   0  0  0  0  0  0
  -31.4571  -12.9663   19.1728 H   0  0  0  0  0  0
  -30.5085  -11.8589   20.1174 H   0  0  0  0  0  0
  -29.8960  -11.6934   17.6918 H   0  0  0  0  0  0
  -29.5696  -13.4073   17.6258 H   0  0  0  0  0  0
  -28.0300  -11.2587   19.1009 H   0  0  0  0  0  0
  -27.4038  -12.3086   17.8575 H   0  0  0  0  0  0
  -27.5334  -14.2308   19.3180 H   0  0  0  0  0  0
  -28.8057  -12.4781   21.4789 H   0  0  0  0  0  0
  -28.3006  -14.1428   21.6870 H   0  0  0  0  0  0
  -25.2805   -9.5657   22.4765 H   0  0  0  0  0  0
  -24.0011   -7.4627   22.7471 H   0  0  0  0  0  0
  -21.0872   -8.8814   19.8969 H   0  0  0  0  0  0
  -22.3757  -10.9691   19.6180 H   0  0  0  0  0  0
  -21.2007   -7.6163   23.9730 H   0  0  0  0  0  0
  -21.1466   -6.0524   25.9080 H   0  0  0  0  0  0
  -22.0605   -2.7618   23.2842 H   0  0  0  0  0  0
  -22.4068  -11.9831   22.4844 H   0  0  0  0  0  0
  -21.1062  -13.1193   22.2715 H   0  0  0  0  0  0
  -24.6348  -15.8463   20.5229 H   0  0  0  0  0  0
  -26.2400  -15.6350   20.0493 H   0  0  0  0  0  0
  -26.7368  -32.5145   23.0884 H   0  0  0  0  0  0
  -25.0146  -33.9500   25.0234 H   0  0  0  0  0  0
  -22.7837  -31.2776   21.3604 H   0  0  0  0  0  0
  -23.3771  -35.9512   23.3280 H   0  0  0  0  0  0
  -24.3546  -36.8863   22.2064 H   0  0  0  0  0  0
  -23.7242  -37.6387   23.6700 H   0  0  0  0  0  0
  -26.2273  -31.3870   20.6286 H   0  0  0  0  0  0
  -26.9027  -30.6873   22.0619 H   0  0  0  0  0  0
  -28.1261  -28.5937   21.2939 H   0  0  0  0  0  0
  -25.8417  -25.7878   18.9492 H   0  0  0  0  0  0
  -23.9846  -27.3122   18.9255 H   0  0  0  0  0  0
  -23.8657  -30.5479   19.3957 H   0  0  0  0  0  0
  -22.8171  -29.2340   19.8211 H   0  0  0  0  0  0
  -25.1316  -36.1737   25.0806 H   0  0  0  0  0  0
  -21.0034  -28.3374   24.1338 H   0  0  0  0  0  0
  -20.5675  -26.2382   23.3670 H   0  0  0  0  0  0
  -21.6661  -26.7413   22.1244 H   0  0  0  0  0  0
  -19.6936  -25.6288   21.1289 H   0  0  0  0  0  0
  -19.6741  -27.3183   20.6776 H   0  0  0  0  0  0
  -17.4231  -26.6760   21.3991 H   0  0  0  0  0  0
  -18.0285  -26.0128   22.9003 H   0  0  0  0  0  0
  -19.7979  -30.7329   24.2220 H   0  0  0  0  0  0
  -17.5047  -31.6298   24.5180 H   0  0  0  0  0  0
  -15.5381  -30.3008   23.7707 H   0  0  0  0  0  0
  -15.8689  -28.0839   22.7108 H   0  0  0  0  0  0
  -24.5944  -30.7108   25.7804 H   0  0  0  0  0  0
  -24.8853  -32.3100   26.4575 H   0  0  0  0  0  0
  -25.7983  -30.9278   27.0329 H   0  0  0  0  0  0
  -26.3075  -29.6598   24.1422 H   0  0  0  0  0  0
  -27.3874  -29.7222   25.5127 H   0  0  0  0  0  0
  -27.9059  -30.4037   23.9910 H   0  0  0  0  0  0
  -27.2694  -33.3686   26.1933 H   0  0  0  0  0  0
  -28.3953  -32.6819   25.0310 H   0  0  0  0  0  0
  -28.0713  -31.8540   26.5480 H   0  0  0  0  0  0
  -28.2571  -38.0046   24.7500 H   0  0  0  0  0  0
  -28.1070  -36.2585   24.6241 H   0  0  0  0  0  0
  -27.2298  -37.1337   25.8857 H   0  0  0  0  0  0
  -20.9557  -29.8723   21.6680 H   0  0  0  0  0  0
  -26.0099  -38.2756   24.1496 H   0  0  0  0  0  0
  -27.3652  -19.2651   19.5960 H   0  0  0  0  0  0
  -30.4347  -22.8460   20.7840 H   0  0  0  0  0  0
  -25.3316  -21.6177   21.5176 H   0  0  0  0  0  0
  -24.3661  -22.6650   20.3465 H   0  0  0  0  0  0
  -24.2395  -20.7026   18.7837 H   0  0  0  0  0  0
  -25.2026  -19.7037   19.9913 H   0  0  0  0  0  0
  -26.0996  -22.3358   18.5506 H   0  0  0  0  0  0
  -26.7400  -24.1933   20.2429 H   0  0  0  0  0  0
  -27.6744  -24.3148   18.8014 H   0  0  0  0  0  0
  -30.6597  -18.1370   21.3613 H   0  0  0  0  0  0
  -30.8999  -18.1072   19.6700 H   0  0  0  0  0  0
  -28.6997  -16.3233   20.4864 H   0  0  0  0  0  0
  1 25  1  0  0  0
  1 30  2  0  0  0
  1 82  1  0  0  0
  2  3  1  0  0  0
  2 25  1  0  0  0
  2 83  1  0  0  0
  2 84  1  0  0  0
  3  4  1  0  0  0
  3 85  1  0  0  0
  3 86  1  0  0  0
  4  5  1  0  0  0
  4 87  1  0  0  0
  4 88  1  0  0  0
  5  6  1  0  0  0
  5 26  1  0  0  0
  5 89  1  0  0  0
  6 25  1  0  0  0
  6 90  1  0  0  0
  6 91  1  0  0  0
  7  8  2  0  0  0
  7 26  1  0  0  0
  7 29  1  0  0  0
  8  9  1  0  0  0
  8 22  1  0  0  0
  9 10  1  0  0  0
  9 27  2  0  0  0
 10 11  2  0  0  0
 10 15  1  0  0  0
 11 12  1  0  0  0
 11 92  1  0  0  0
 12 13  2  0  0  0
 12 93  1  0  0  0
 13 14  1  0  0  0
 13 31  1  0  0  0
 14 15  2  0  0  0
 14 94  1  0  0  0
 15 95  1  0  0  0
 16 17  2  0  0  0
 16 21  1  0  0  0
 16 31  1  0  0  0
 17 18  1  0  0  0
 17 96  1  0  0  0
 18 19  2  0  0  0
 18 97  1  0  0  0
 19 20  1  0  0  0
 19 24  1  0  0  0
 20 21  2  0  0  0
 20 98  1  0  0  0
 21 23  1  0  0  0
 22 28  1  0  0  0
 22 32  2  0  0  0
 26 27  1  0  0  0
 28 99  1  0  0  0
 28100  1  0  0  0
 29101  1  0  0  0
 29102  1  0  0  0
 33 34  1  0  0  0
 33 66  1  0  0  0
 33 70  2  0  0  0
 34 36  1  0  0  0
 34 59  1  0  0  0
 34103  1  0  0  0
 35 44  2  0  0  0
 35 45  1  0  0  0
 35 68  1  0  0  0
 36 56  1  0  0  0
 36104  1  0  0  0
 37 39  1  0  0  0
 37 47  1  0  0  0
 37 66  1  0  0  0
 37105  1  0  0  0
 38 43  2  0  0  0
 38 46  1  0  0  0
 38 47  1  0  0  0
 39 64  1  0  0  0
 39 67  2  0  0  0
 40 52  1  0  0  0
 40 53  2  0  0  0
 40 58  1  0  0  0
 41106  1  0  0  0
 41107  1  0  0  0
 41108  1  0  0  0
 41 48  1  0  0  0
 42 43  1  0  0  0
 42 66  1  0  0  0
 42109  1  0  0  0
 42110  1  0  0  0
 43 44  1  0  0  0
 44111  1  0  0  0
 45 46  2  0  0  0
 45112  1  0  0  0
 46113  1  0  0  0
 47114  1  0  0  0
 47115  1  0  0  0
 48 56  1  0  0  0
 48 65  1  0  0  0
 48116  1  0  0  0
 49 50  1  0  0  0
 49 53  1  0  0  0
 49 64  1  0  0  0
 49117  1  0  0  0
 50 51  1  0  0  0
 50118  1  0  0  0
 50119  1  0  0  0
 51 52  1  0  0  0
 51120  1  0  0  0
 51121  1  0  0  0
 52122  1  0  0  0
 52123  1  0  0  0
 53 54  1  0  0  0
 54 55  2  0  0  0
 54124  1  0  0  0
 55 57  1  0  0  0
 55125  1  0  0  0
 56 69  2  0  0  0
 57 58  2  0  0  0
 57126  1  0  0  0
 58127  1  0  0  0
 59 60  1  0  0  0
 59 61  1  0  0  0
 59 62  1  0  0  0
 60128  1  0  0  0
 60129  1  0  0  0
 60130  1  0  0  0
 61131  1  0  0  0
 61132  1  0  0  0
 61133  1  0  0  0
 62134  1  0  0  0
 62135  1  0  0  0
 62136  1  0  0  0
 63 65  1  0  0  0
 63137  1  0  0  0
 63138  1  0  0  0
 63139  1  0  0  0
 64140  1  0  0  0
 65141  1  0  0  0
 68 79  1  0  0  0
 71 73  2  0  0  0
 71 75  1  0  0  0
 71142  1  0  0  0
 72 74  2  0  0  0
 72 81  1  0  0  0
 72143  1  0  0  0
 73 74  1  0  0  0
 73 78  1  0  0  0
 74 79  1  0  0  0
 75 80  1  0  0  0
 75 81  2  0  0  0
 76 77  1  0  0  0
 76 78  1  0  0  0
 76144  1  0  0  0
 76145  1  0  0  0
 77 78  1  0  0  0
 77146  1  0  0  0
 77147  1  0  0  0
 78148  1  0  0  0
 79149  1  0  0  0
 79150  1  0  0  0
 80 82  1  0  0  0
 80151  1  0  0  0
 80152  1  0  0  0
 82153  1  0  0  0
M  ISO  4   1 100  68 101  79 101  82 100
M  END
> <chiral flag>
0

> <version>
0

> <s_m_source_file>
/data/baiqing/PycharmProjects/Reinvent-master-3.2/result/LINK_invent/BTK/process_docking_weight1_custom_sum_contain_oxygen_bond_distance_aromatic_linkinvent_7_9_3/rearranged_h_0124.sdf

> <i_m_source_file_index>
16

> <r_mmod_Potential_Energy-OPLS-2005>
889.077514648438

> <r_mmod_Stretch_Energy-OPLS-2005>
464.826629638672

> <r_mmod_Bend_Energy-OPLS-2005>
447.108489990234

> <r_mmod_Torsional_Energy-OPLS-2005>
238.753372192383

> <r_mmod_Improper_Torsional_Energy-OPLS-2005>
4.71230411529541

> <r_mmod_Van_der_Waal_Energy-OPLS-2005>
132.431381225586

> <r_mmod_Electrostatic_Energy-OPLS-2005>
-582.103149414062

> <r_mmod_Solvation_Energy-OPLS-2005>
-235.08837890625

> <b_mmod_Minimization_Converged-OPLS-2005>
0

> <r_mmod_RMS_Derivative-OPLS-2005>
4.33017349243164

$$$$
16
                    3D
 Structure written by MMmdl.
165173  0  0  1  0            999 V2000
  -30.5314  -14.9369   20.4329 C   0  0  0  0  0  0
  -30.4437  -12.5872   19.4743 C   0  0  0  0  0  0
  -29.5154  -12.5249   18.2398 C   0  0  0  0  0  0
  -28.0492  -12.3092   18.6654 C   0  0  0  0  0  0
  -27.6272  -13.2410   19.8313 C   0  0  2  0  0  0
  -28.6753  -13.2620   20.9617 C   0  0  0  0  0  0
  -25.2457  -13.8194   20.5696 C   0  0  0  0  0  0
  -24.1776  -13.0427   20.9237 C   0  0  0  0  0  0
  -24.6383  -11.6912   20.8762 C   0  0  0  0  0  0
  -23.9062  -10.4288   21.0413 C   0  0  0  0  0  0
  -24.3610   -9.4203   21.9186 C   0  0  0  0  0  0
  -23.6290   -8.2235   22.0751 C   0  0  0  0  0  0
  -22.4273   -8.0275   21.3541 C   0  0  0  0  0  0
  -21.9911   -9.0247   20.4642 C   0  0  0  0  0  0
  -22.7237  -10.2129   20.3056 C   0  0  0  0  0  0
  -21.6848   -6.0737   22.5279 C   0  0  0  0  0  0
  -21.4012   -6.5641   23.8215 C   0  0  0  0  0  0
  -21.3661   -5.6793   24.9173 C   0  0  0  0  0  0
  -21.6048   -4.3056   24.7221 C   0  0  0  0  0  0
  -21.8820   -3.8146   23.4342 C   0  0  0  0  0  0
  -21.9189   -4.6965   22.3401 C   0  0  0  0  0  0
  -22.7798  -13.5203   21.1894 C   0  0  0  0  0  0
  -22.1658   -4.2150   21.0978 F   0  0  0  0  0  0
  -21.5631   -3.4541   25.7735 F   0  0  0  0  0  0
  -29.9432  -13.6794   20.3501 N   0  0  0  0  0  0
  -26.2873  -12.9412   20.3220 N   0  0  0  0  0  0
  -25.9310  -11.6553   20.5731 N   0  0  0  0  0  0
  -22.0439  -12.8199   22.0447 N   0  0  0  0  0  0
  -25.4106  -15.1923   20.4098 N   0  0  0  0  0  0
  -31.7522  -15.0138   20.2627 O   0  0  0  0  0  0
  -21.6634   -6.8876   21.4241 O   0  0  0  0  0  0
  -22.3492  -14.5512   20.6736 O   0  0  0  0  0  0
  -24.6420  -31.8443   23.1868 C   0  0  0  0  0  0
  -25.9192  -32.4696   23.8265 C   0  0  1  0  0  0
  -27.2229  -27.1398   20.1721 C   0  0  0  0  0  0
  -25.5942  -33.8502   24.2187 N   0  0  0  0  0  0
  -23.4461  -30.4603   21.5327 C   0  0  2  0  0  0
  -24.8960  -28.8745   20.1240 C   0  0  0  0  0  0
  -22.7558  -29.4550   22.4877 C   0  0  0  0  0  0
  -18.0305  -28.1396   22.8479 C   0  0  0  0  0  0
  -24.1494  -36.7257   23.2643 C   0  0  0  0  0  0
  -25.9993  -30.7202   21.3824 C   0  0  0  0  0  0
  -26.0726  -29.3256   20.7371 C   0  0  0  0  0  0
  -27.2406  -28.4767   20.7368 C   0  0  0  0  0  0
  -26.0200  -26.7748   19.5366 C   0  0  0  0  0  0
  -24.8806  -27.6109   19.5098 C   0  0  0  0  0  0
  -23.6739  -29.7797   20.1562 C   0  0  0  0  0  0
  -25.4124  -36.3033   24.0318 C   0  0  1  0  0  0
  -20.5914  -28.3719   23.1246 C   0  0  2  0  0  0
  -20.6790  -26.9425   22.5407 C   0  0  0  0  0  0
  -19.5766  -26.6384   21.5213 C   0  0  0  0  0  0
  -18.1946  -26.7935   22.1623 C   0  0  0  0  0  0
  -19.1559  -28.8876   23.2855 C   0  0  0  0  0  0
  -18.9474  -30.1472   23.8880 C   0  0  0  0  0  0
  -17.6471  -30.6591   24.0560 C   0  0  0  0  0  0
  -25.9072  -34.9408   23.5063 C   0  0  0  0  0  0
  -16.5363  -29.9085   23.6332 C   0  0  0  0  0  0
  -16.7289  -28.6504   23.0353 C   0  0  0  0  0  0
  -26.4520  -31.6560   25.0702 C   0  0  0  0  0  0
  -25.3710  -31.3740   26.1401 C   0  0  0  0  0  0
  -27.0381  -30.2961   24.6263 C   0  0  0  0  0  0
  -27.6057  -32.4319   25.7486 C   0  0  0  0  0  0
  -27.5578  -37.1785   24.8464 C   0  0  0  0  0  0
  -21.4253  -29.3045   22.3619 N   0  0  0  0  0  0
  -26.4288  -37.3744   23.9408 N   0  0  0  0  0  0
  -24.7157  -31.0302   22.0896 N   0  0  0  0  0  0
  -23.4202  -28.8106   23.3033 O   0  0  0  0  0  0
  -28.3144  -26.2102   20.0949 O   0  0  0  0  0  0
  -26.5661  -34.8906   22.4645 O   0  0  0  0  0  0
  -23.5541  -32.1314   23.7092 O   0  0  0  0  0  0
  -28.8392  -20.3799   20.7465 C   0  0  0  0  0  0
  -30.0087  -19.1960   18.8445 C   0  0  0  0  0  0
  -29.8318  -19.1027   20.3591 C   0  0  2  0  0  0
  -29.1586  -21.9189   20.1736 C   0  0  1  0  0  0
  -29.6166  -21.7515   18.6717 C   0  0  2  0  0  0
  -28.2696  -23.3267   17.1317 C   0  0  0  0  0  0
  -28.7153  -21.0415   16.3019 C   0  0  0  0  0  0
  -28.1082  -23.2278   20.4165 C   0  0  0  0  0  0
  -29.8658  -17.5604   21.0701 C   0  0  0  0  0  0
  -28.4072  -24.8448   20.8216 C   0  0  0  0  0  0
  -28.4856  -21.8652   17.5913 C   0  0  0  0  0  0
  -29.7160  -16.1004   20.4862 N   0  0  0  0  0  0
  -30.4987  -20.5556   18.4531 N   0  3  0  0  0  0
  -31.4732  -12.7627   19.1586 H   0  0  0  0  0  0
  -30.4478  -11.6355   20.0081 H   0  0  0  0  0  0
  -29.8314  -11.7272   17.5664 H   0  0  0  0  0  0
  -29.5982  -13.4532   17.6726 H   0  0  0  0  0  0
  -27.9480  -11.2679   18.9737 H   0  0  0  0  0  0
  -27.3812  -12.4398   17.8132 H   0  0  0  0  0  0
  -27.5896  -14.2430   19.4037 H   0  0  0  0  0  0
  -28.7679  -12.2831   21.4345 H   0  0  0  0  0  0
  -28.3800  -13.9596   21.7469 H   0  0  0  0  0  0
  -25.2748   -9.5683   22.4769 H   0  0  0  0  0  0
  -23.9998   -7.4625   22.7471 H   0  0  0  0  0  0
  -21.0841   -8.8766   19.8947 H   0  0  0  0  0  0
  -22.3689  -10.9670   19.6171 H   0  0  0  0  0  0
  -21.2006   -7.6149   23.9722 H   0  0  0  0  0  0
  -21.1484   -6.0517   25.9079 H   0  0  0  0  0  0
  -22.0597   -2.7607   23.2837 H   0  0  0  0  0  0
  -22.4039  -11.9853   22.4837 H   0  0  0  0  0  0
  -21.1056  -13.1229   22.2654 H   0  0  0  0  0  0
  -24.6368  -15.8385   20.5215 H   0  0  0  0  0  0
  -26.2443  -15.6364   20.0498 H   0  0  0  0  0  0
  -26.7260  -32.5314   23.0999 H   0  0  0  0  0  0
  -25.0061  -33.9617   25.0316 H   0  0  0  0  0  0
  -22.7486  -31.2852   21.3733 H   0  0  0  0  0  0
  -23.3760  -35.9584   23.3288 H   0  0  0  0  0  0
  -24.3579  -36.8905   22.2060 H   0  0  0  0  0  0
  -23.7244  -37.6448   23.6690 H   0  0  0  0  0  0
  -26.1476  -31.4685   20.6029 H   0  0  0  0  0  0
  -26.8729  -30.7800   22.0198 H   0  0  0  0  0  0
  -28.1497  -28.8297   21.2034 H   0  0  0  0  0  0
  -25.9601  -25.8081   19.0565 H   0  0  0  0  0  0
  -23.9822  -27.2596   19.0210 H   0  0  0  0  0  0
  -23.8138  -30.5483   19.3957 H   0  0  0  0  0  0
  -22.7891  -29.2205   19.8470 H   0  0  0  0  0  0
  -25.1313  -36.1861   25.0810 H   0  0  0  0  0  0
  -21.0006  -28.3306   24.1368 H   0  0  0  0  0  0
  -20.5685  -26.2332   23.3622 H   0  0  0  0  0  0
  -21.6656  -26.7435   22.1205 H   0  0  0  0  0  0
  -19.6927  -25.6290   21.1255 H   0  0  0  0  0  0
  -19.6704  -27.3184   20.6735 H   0  0  0  0  0  0
  -17.4216  -26.6680   21.4026 H   0  0  0  0  0  0
  -18.0345  -26.0083   22.9024 H   0  0  0  0  0  0
  -19.7949  -30.7293   24.2242 H   0  0  0  0  0  0
  -17.5023  -31.6269   24.5165 H   0  0  0  0  0  0
  -15.5363  -30.2979   23.7663 H   0  0  0  0  0  0
  -15.8691  -28.0815   22.7074 H   0  0  0  0  0  0
  -24.5894  -30.7085   25.7716 H   0  0  0  0  0  0
  -24.8892  -32.2917   26.4783 H   0  0  0  0  0  0
  -25.7997  -30.8938   27.0205 H   0  0  0  0  0  0
  -26.2987  -29.6685   24.1275 H   0  0  0  0  0  0
  -27.4011  -29.7258   25.4823 H   0  0  0  0  0  0
  -27.8887  -30.4205   23.9559 H   0  0  0  0  0  0
  -27.2658  -33.3636   26.2019 H   0  0  0  0  0  0
  -28.3892  -32.6849   25.0332 H   0  0  0  0  0  0
  -28.0698  -31.8470   26.5438 H   0  0  0  0  0  0
  -28.2584  -38.0091   24.7512 H   0  0  0  0  0  0
  -28.1085  -36.2620   24.6289 H   0  0  0  0  0  0
  -27.2295  -37.1428   25.8866 H   0  0  0  0  0  0
  -20.9465  -29.8748   21.6788 H   0  0  0  0  0  0
  -26.0156  -38.2813   24.1406 H   0  0  0  0  0  0
  -28.7747  -20.4373   21.8336 H   0  0  0  0  0  0
  -27.8325  -20.1145   20.4216 H   0  0  0  0  0  0
  -29.0697  -18.9489   18.3519 H   0  0  0  0  0  0
  -30.7393  -18.4565   18.5139 H   0  0  0  0  0  0
  -30.7837  -19.4749   20.7425 H   0  0  0  0  0  0
  -30.0572  -22.2029   20.7236 H   0  0  0  0  0  0
  -30.2888  -22.5889   18.4751 H   0  0  0  0  0  0
  -28.1825  -24.0438   17.9437 H   0  0  0  0  0  0
  -27.3641  -23.4176   16.5309 H   0  0  0  0  0  0
  -29.1012  -23.6693   16.5147 H   0  0  0  0  0  0
  -28.6844  -19.9666   16.4675 H   0  0  0  0  0  0
  -29.6649  -21.2887   15.8248 H   0  0  0  0  0  0
  -27.9315  -21.2460   15.5711 H   0  0  0  0  0  0
  -27.5988  -22.8884   21.3190 H   0  0  0  0  0  0
  -27.2845  -23.1900   19.7068 H   0  0  0  0  0  0
  -29.1272  -17.6002   21.8711 H   0  0  0  0  0  0
  -30.8117  -17.5133   21.6128 H   0  0  0  0  0  0
  -29.4184  -24.8434   21.2282 H   0  0  0  0  0  0
  -27.7912  -25.0159   21.7056 H   0  0  0  0  0  0
  -27.5596  -21.5018   18.0398 H   0  0  0  0  0  0
  -28.7453  -15.8464   20.3787 H   0  0  0  0  0  0
  -30.7229  -20.5300   17.4711 H   0  0  0  0  0  0
  -31.3672  -20.7197   18.9361 H   0  0  0  0  0  0
  1 25  1  0  0  0
  1 30  2  0  0  0
  1 82  1  0  0  0
  2  3  1  0  0  0
  2 25  1  0  0  0
  2 84  1  0  0  0
  2 85  1  0  0  0
  3  4  1  0  0  0
  3 86  1  0  0  0
  3 87  1  0  0  0
  4  5  1  0  0  0
  4 88  1  0  0  0
  4 89  1  0  0  0
  5  6  1  0  0  0
  5 26  1  0  0  0
  5 90  1  0  0  0
  6 25  1  0  0  0
  6 91  1  0  0  0
  6 92  1  0  0  0
  7  8  2  0  0  0
  7 26  1  0  0  0
  7 29  1  0  0  0
  8  9  1  0  0  0
  8 22  1  0  0  0
  9 10  1  0  0  0
  9 27  2  0  0  0
 10 11  2  0  0  0
 10 15  1  0  0  0
 11 12  1  0  0  0
 11 93  1  0  0  0
 12 13  2  0  0  0
 12 94  1  0  0  0
 13 14  1  0  0  0
 13 31  1  0  0  0
 14 15  2  0  0  0
 14 95  1  0  0  0
 15 96  1  0  0  0
 16 17  2  0  0  0
 16 21  1  0  0  0
 16 31  1  0  0  0
 17 18  1  0  0  0
 17 97  1  0  0  0
 18 19  2  0  0  0
 18 98  1  0  0  0
 19 20  1  0  0  0
 19 24  1  0  0  0
 20 21  2  0  0  0
 20 99  1  0  0  0
 21 23  1  0  0  0
 22 28  1  0  0  0
 22 32  2  0  0  0
 26 27  1  0  0  0
 28100  1  0  0  0
 28101  1  0  0  0
 29102  1  0  0  0
 29103  1  0  0  0
 33 34  1  0  0  0
 33 66  1  0  0  0
 33 70  2  0  0  0
 34 36  1  0  0  0
 34 59  1  0  0  0
 34104  1  0  0  0
 35 44  2  0  0  0
 35 45  1  0  0  0
 35 68  1  0  0  0
 36 56  1  0  0  0
 36105  1  0  0  0
 37 39  1  0  0  0
 37 47  1  0  0  0
 37 66  1  0  0  0
 37106  1  0  0  0
 38 43  2  0  0  0
 38 46  1  0  0  0
 38 47  1  0  0  0
 39 64  1  0  0  0
 39 67  2  0  0  0
 40 52  1  0  0  0
 40 53  2  0  0  0
 40 58  1  0  0  0
 41107  1  0  0  0
 41108  1  0  0  0
 41109  1  0  0  0
 41 48  1  0  0  0
 42 43  1  0  0  0
 42 66  1  0  0  0
 42110  1  0  0  0
 42111  1  0  0  0
 43 44  1  0  0  0
 44112  1  0  0  0
 45 46  2  0  0  0
 45113  1  0  0  0
 46114  1  0  0  0
 47115  1  0  0  0
 47116  1  0  0  0
 48 56  1  0  0  0
 48 65  1  0  0  0
 48117  1  0  0  0
 49 50  1  0  0  0
 49 53  1  0  0  0
 49 64  1  0  0  0
 49118  1  0  0  0
 50 51  1  0  0  0
 50119  1  0  0  0
 50120  1  0  0  0
 51 52  1  0  0  0
 51121  1  0  0  0
 51122  1  0  0  0
 52123  1  0  0  0
 52124  1  0  0  0
 53 54  1  0  0  0
 54 55  2  0  0  0
 54125  1  0  0  0
 55 57  1  0  0  0
 55126  1  0  0  0
 56 69  2  0  0  0
 57 58  2  0  0  0
 57127  1  0  0  0
 58128  1  0  0  0
 59 60  1  0  0  0
 59 61  1  0  0  0
 59 62  1  0  0  0
 60129  1  0  0  0
 60130  1  0  0  0
 60131  1  0  0  0
 61132  1  0  0  0
 61133  1  0  0  0
 61134  1  0  0  0
 62135  1  0  0  0
 62136  1  0  0  0
 62137  1  0  0  0
 63 65  1  0  0  0
 63138  1  0  0  0
 63139  1  0  0  0
 63140  1  0  0  0
 64141  1  0  0  0
 65142  1  0  0  0
 68 80  1  0  0  0
 71 73  1  0  0  0
 71 74  1  0  0  0
 71143  1  0  0  0
 71144  1  0  0  0
 72 73  1  0  0  0
 72 83  1  0  0  0
 72145  1  0  0  0
 72146  1  0  0  0
 73 79  1  0  0  0
 73147  1  0  0  0
 74 75  1  0  0  0
 74 78  1  0  0  0
 74148  1  0  0  0
 75 81  1  0  0  0
 75 83  1  0  0  0
 75149  1  0  0  0
 76150  1  0  0  0
 76151  1  0  0  0
 76152  1  0  0  0
 76 81  1  0  0  0
 77 81  1  0  0  0
 77153  1  0  0  0
 77154  1  0  0  0
 77155  1  0  0  0
 78 80  1  0  0  0
 78156  1  0  0  0
 78157  1  0  0  0
 79 82  1  0  0  0
 79158  1  0  0  0
 79159  1  0  0  0
 80160  1  0  0  0
 80161  1  0  0  0
 81162  1  0  0  0
 82163  1  0  0  0
 83164  1  0  0  0
 83165  1  0  0  0
M  CHG  1  83   1
M  ISO  4   1 100  68 101  80 101  82 100
M  END
> <chiral flag>
0

> <version>
0

> <s_m_source_file>
/data/baiqing/PycharmProjects/Reinvent-master-3.2/result/LINK_invent/BTK/process_docking_weight1_custom_sum_contain_oxygen_bond_distance_aromatic_linkinvent_7_9_3/rearranged_h_0124.sdf

> <i_m_source_file_index>
17

> <r_mmod_Potential_Energy-OPLS-2005>
548.480712890625

> <r_mmod_Stretch_Energy-OPLS-2005>
267.918792724609

> <r_mmod_Bend_Energy-OPLS-2005>
366.731262207031

> <r_mmod_Torsional_Energy-OPLS-2005>
342.350128173828

> <r_mmod_Improper_Torsional_Energy-OPLS-2005>
6.02538347244263

> <r_mmod_Van_der_Waal_Energy-OPLS-2005>
117.32982635498

> <r_mmod_Electrostatic_Energy-OPLS-2005>
-281.274566650391

> <r_mmod_Solvation_Energy-OPLS-2005>
-452.738586425781

> <b_mmod_Minimization_Converged-OPLS-2005>
0

> <r_mmod_RMS_Derivative-OPLS-2005>
0.699812054634094

$$$$
17
                    3D
 Structure written by MMmdl.
175184  0  0  1  0            999 V2000
  -30.5714  -14.8332   20.4613 C   0  0  0  0  0  0
  -30.4419  -12.5213   19.4659 C   0  0  0  0  0  0
  -29.5113  -12.5214   18.2319 C   0  0  0  0  0  0
  -28.0401  -12.3272   18.6504 C   0  0  0  0  0  0
  -27.6335  -13.2382   19.8382 C   0  0  2  0  0  0
  -28.6821  -13.2044   20.9701 C   0  0  0  0  0  0
  -25.2483  -13.8170   20.5740 C   0  0  0  0  0  0
  -24.1781  -13.0414   20.9244 C   0  0  0  0  0  0
  -24.6387  -11.6901   20.8744 C   0  0  0  0  0  0
  -23.9065  -10.4277   21.0397 C   0  0  0  0  0  0
  -24.3612   -9.4198   21.9180 C   0  0  0  0  0  0
  -23.6286   -8.2234   22.0746 C   0  0  0  0  0  0
  -22.4269   -8.0270   21.3539 C   0  0  0  0  0  0
  -21.9905   -9.0246   20.4642 C   0  0  0  0  0  0
  -22.7233  -10.2124   20.3047 C   0  0  0  0  0  0
  -21.6850   -6.0732   22.5283 C   0  0  0  0  0  0
  -21.4015   -6.5637   23.8218 C   0  0  0  0  0  0
  -21.3660   -5.6789   24.9180 C   0  0  0  0  0  0
  -21.6039   -4.3050   24.7227 C   0  0  0  0  0  0
  -21.8817   -3.8145   23.4347 C   0  0  0  0  0  0
  -21.9194   -4.6962   22.3407 C   0  0  0  0  0  0
  -22.7804  -13.5203   21.1894 C   0  0  0  0  0  0
  -22.1659   -4.2150   21.0982 F   0  0  0  0  0  0
  -21.5630   -3.4532   25.7737 F   0  0  0  0  0  0
  -29.9687  -13.5914   20.3765 N   0  0  0  0  0  0
  -26.2898  -12.9402   20.3227 N   0  0  0  0  0  0
  -25.9312  -11.6540   20.5702 N   0  0  0  0  0  0
  -22.0440  -12.8196   22.0440 N   0  0  0  0  0  0
  -25.4113  -15.1886   20.4240 N   0  0  0  0  0  0
  -31.7780  -14.9354   20.2225 O   0  0  0  0  0  0
  -21.6633   -6.8868   21.4239 O   0  0  0  0  0  0
  -22.3496  -14.5518   20.6745 O   0  0  0  0  0  0
  -24.6374  -31.8489   23.1915 C   0  0  0  0  0  0
  -25.9174  -32.4718   23.8284 C   0  0  1  0  0  0
  -27.2224  -27.2009   20.1425 C   0  0  0  0  0  0
  -25.5945  -33.8520   24.2214 N   0  0  0  0  0  0
  -23.4369  -30.4688   21.5362 C   0  0  2  0  0  0
  -24.8840  -28.8979   20.1158 C   0  0  0  0  0  0
  -22.7530  -29.4572   22.4888 C   0  0  0  0  0  0
  -18.0297  -28.1391   22.8481 C   0  0  0  0  0  0
  -24.1492  -36.7264   23.2642 C   0  0  0  0  0  0
  -25.9867  -30.7438   21.3778 C   0  0  0  0  0  0
  -26.0589  -29.3588   20.7226 C   0  0  0  0  0  0
  -27.2317  -28.5271   20.7136 C   0  0  0  0  0  0
  -26.0196  -26.8127   19.5183 C   0  0  0  0  0  0
  -24.8726  -27.6355   19.5004 C   0  0  0  0  0  0
  -23.6589  -29.7948   20.1561 C   0  0  0  0  0  0
  -25.4122  -36.3046   24.0322 C   0  0  1  0  0  0
  -20.5904  -28.3708   23.1255 C   0  0  2  0  0  0
  -20.6784  -26.9419   22.5407 C   0  0  0  0  0  0
  -19.5759  -26.6385   21.5212 C   0  0  0  0  0  0
  -18.1939  -26.7933   22.1622 C   0  0  0  0  0  0
  -19.1552  -28.8866   23.2862 C   0  0  0  0  0  0
  -18.9473  -30.1466   23.8884 C   0  0  0  0  0  0
  -17.6470  -30.6591   24.0560 C   0  0  0  0  0  0
  -25.9068  -34.9421   23.5075 C   0  0  0  0  0  0
  -16.5361  -29.9086   23.6332 C   0  0  0  0  0  0
  -16.7283  -28.6502   23.0354 C   0  0  0  0  0  0
  -26.4520  -31.6563   25.0701 C   0  0  0  0  0  0
  -25.3725  -31.3727   26.1409 C   0  0  0  0  0  0
  -27.0379  -30.2971   24.6232 C   0  0  0  0  0  0
  -27.6064  -32.4314   25.7484 C   0  0  0  0  0  0
  -27.5580  -37.1787   24.8466 C   0  0  0  0  0  0
  -21.4231  -29.3044   22.3634 N   0  0  0  0  0  0
  -26.4290  -37.3755   23.9411 N   0  0  0  0  0  0
  -24.7066  -31.0402   22.0913 N   0  0  0  0  0  0
  -23.4202  -28.8128   23.3021 O   0  0  0  0  0  0
  -28.3300  -26.3032   20.1470 O   0  0  0  0  0  0
  -26.5649  -34.8910   22.4650 O   0  0  0  0  0  0
  -23.5510  -32.1333   23.7179 O   0  0  0  0  0  0
  -26.0688  -17.8996   18.7560 C   0  0  0  0  0  0
  -27.7407  -17.4982   17.0330 C   0  0  0  0  0  0
  -27.0741  -18.3578   19.6306 C   0  0  0  0  0  0
  -28.7426  -17.9777   17.8960 C   0  0  0  0  0  0
  -26.3980  -17.4460   17.4615 C   0  0  0  0  0  0
  -28.4202  -18.3921   19.2065 C   0  0  0  0  0  0
  -27.9578  -22.1683   19.6972 C   0  0  0  0  0  0
  -29.5730  -22.6697   21.4464 C   0  0  0  0  0  0
  -27.9441  -23.7324   19.2911 C   0  0  0  0  0  0
  -29.5451  -24.2149   21.0440 C   0  0  0  0  0  0
  -29.2805  -21.5771   20.3391 C   0  0  1  0  0  0
  -28.2200  -24.8002   20.4328 C   0  0  1  0  0  0
  -25.4655  -15.3410   16.4425 C   0  0  0  0  0  0
  -25.2944  -17.5406   15.1775 C   0  0  0  0  0  0
  -30.0136  -17.4435   21.0346 C   0  0  0  0  0  0
  -25.3185  -16.8661   16.5581 C   0  0  0  0  0  0
  -29.5431  -18.7737   20.1622 C   0  0  2  0  0  0
  -29.7621  -15.9620   20.6275 N   0  0  0  0  0  0
  -29.2684  -20.1156   20.9181 N   0  3  0  0  0  0
  -31.4763  -12.6772   19.1555 H   0  0  0  0  0  0
  -30.4215  -11.5536   19.9696 H   0  0  0  0  0  0
  -29.8077  -11.7376   17.5331 H   0  0  0  0  0  0
  -29.6134  -13.4662   17.6955 H   0  0  0  0  0  0
  -27.9132  -11.2811   18.9302 H   0  0  0  0  0  0
  -27.3791  -12.4979   17.7996 H   0  0  0  0  0  0
  -27.6121  -14.2526   19.4382 H   0  0  0  0  0  0
  -28.7448  -12.2109   21.4170 H   0  0  0  0  0  0
  -28.4036  -13.8859   21.7756 H   0  0  0  0  0  0
  -25.2744   -9.5684   22.4768 H   0  0  0  0  0  0
  -23.9997   -7.4621   22.7457 H   0  0  0  0  0  0
  -21.0842   -8.8762   19.8946 H   0  0  0  0  0  0
  -22.3681  -10.9669   19.6164 H   0  0  0  0  0  0
  -21.2002   -7.6141   23.9727 H   0  0  0  0  0  0
  -21.1485   -6.0510   25.9085 H   0  0  0  0  0  0
  -22.0598   -2.7610   23.2844 H   0  0  0  0  0  0
  -22.4052  -11.9858   22.4836 H   0  0  0  0  0  0
  -21.1061  -13.1229   22.2644 H   0  0  0  0  0  0
  -24.6195  -15.8131   20.5183 H   0  0  0  0  0  0
  -26.2076  -15.6320   19.9855 H   0  0  0  0  0  0
  -26.7236  -32.5348   23.1014 H   0  0  0  0  0  0
  -25.0080  -33.9639   25.0353 H   0  0  0  0  0  0
  -22.7361  -31.2924   21.3838 H   0  0  0  0  0  0
  -23.3759  -35.9591   23.3293 H   0  0  0  0  0  0
  -24.3581  -36.8903   22.2059 H   0  0  0  0  0  0
  -23.7241  -37.6458   23.6679 H   0  0  0  0  0  0
  -26.1317  -31.4999   20.6049 H   0  0  0  0  0  0
  -26.8616  -30.7949   22.0145 H   0  0  0  0  0  0
  -28.1361  -28.8817   21.1881 H   0  0  0  0  0  0
  -25.9507  -25.8486   19.0401 H   0  0  0  0  0  0
  -23.9740  -27.2777   19.0169 H   0  0  0  0  0  0
  -23.7908  -30.5670   19.3972 H   0  0  0  0  0  0
  -22.7750  -29.2328   19.8500 H   0  0  0  0  0  0
  -25.1306  -36.1881   25.0815 H   0  0  0  0  0  0
  -20.9995  -28.3295   24.1377 H   0  0  0  0  0  0
  -20.5680  -26.2322   23.3619 H   0  0  0  0  0  0
  -21.6654  -26.7439   22.1203 H   0  0  0  0  0  0
  -19.6923  -25.6291   21.1252 H   0  0  0  0  0  0
  -19.6698  -27.3188   20.6734 H   0  0  0  0  0  0
  -17.4209  -26.6676   21.4024 H   0  0  0  0  0  0
  -18.0341  -26.0077   22.9022 H   0  0  0  0  0  0
  -19.7950  -30.7286   24.2247 H   0  0  0  0  0  0
  -17.5026  -31.6271   24.5164 H   0  0  0  0  0  0
  -15.5361  -30.2984   23.7664 H   0  0  0  0  0  0
  -15.8684  -28.0818   22.7076 H   0  0  0  0  0  0
  -24.5916  -30.7062   25.7731 H   0  0  0  0  0  0
  -24.8900  -32.2898   26.4797 H   0  0  0  0  0  0
  -25.8030  -30.8929   27.0207 H   0  0  0  0  0  0
  -26.2976  -29.6698   24.1254 H   0  0  0  0  0  0
  -27.4035  -29.7262   25.4776 H   0  0  0  0  0  0
  -27.8862  -30.4226   23.9502 H   0  0  0  0  0  0
  -27.2669  -33.3627   26.2028 H   0  0  0  0  0  0
  -28.3896  -32.6850   25.0327 H   0  0  0  0  0  0
  -28.0708  -31.8457   26.5427 H   0  0  0  0  0  0
  -28.2587  -38.0094   24.7520 H   0  0  0  0  0  0
  -28.1086  -36.2623   24.6283 H   0  0  0  0  0  0
  -27.2298  -37.1424   25.8869 H   0  0  0  0  0  0
  -20.9431  -29.8748   21.6813 H   0  0  0  0  0  0
  -26.0161  -38.2825   24.1411 H   0  0  0  0  0  0
  -25.0440  -17.8619   19.1006 H   0  0  0  0  0  0
  -28.0156  -17.1479   16.0476 H   0  0  0  0  0  0
  -26.7998  -18.6539   20.6331 H   0  0  0  0  0  0
  -29.7692  -17.9808   17.5553 H   0  0  0  0  0  0
  -27.7151  -21.5778   18.8129 H   0  0  0  0  0  0
  -27.1334  -21.9999   20.3909 H   0  0  0  0  0  0
  -28.8569  -22.5358   22.2589 H   0  0  0  0  0  0
  -30.5481  -22.4602   21.8876 H   0  0  0  0  0  0
  -26.9808  -23.9431   18.8305 H   0  0  0  0  0  0
  -28.6768  -23.8831   18.4973 H   0  0  0  0  0  0
  -30.3570  -24.3965   20.3381 H   0  0  0  0  0  0
  -29.7983  -24.8018   21.9272 H   0  0  0  0  0  0
  -30.0803  -21.6243   19.5986 H   0  0  0  0  0  0
  -27.4342  -24.6911   21.1818 H   0  0  0  0  0  0
  -25.4057  -14.8656   17.4223 H   0  0  0  0  0  0
  -26.4212  -15.0610   15.9980 H   0  0  0  0  0  0
  -24.6758  -14.9146   15.8240 H   0  0  0  0  0  0
  -25.1646  -18.6191   15.2725 H   0  0  0  0  0  0
  -24.4695  -17.1624   14.5737 H   0  0  0  0  0  0
  -26.2130  -17.3641   14.6178 H   0  0  0  0  0  0
  -29.5005  -17.5216   21.9933 H   0  0  0  0  0  0
  -31.0698  -17.5510   21.2841 H   0  0  0  0  0  0
  -24.3530  -17.0645   17.0260 H   0  0  0  0  0  0
  -30.4008  -19.0096   19.5308 H   0  0  0  0  0  0
  -28.7819  -15.7236   20.6364 H   0  0  0  0  0  0
  -28.4228  -19.9968   21.4495 H   0  0  0  0  0  0
  -30.0098  -20.1343   21.5991 H   0  0  0  0  0  0
  1 25  1  0  0  0
  1 30  2  0  0  0
  1 88  1  0  0  0
  2  3  1  0  0  0
  2 25  1  0  0  0
  2 90  1  0  0  0
  2 91  1  0  0  0
  3  4  1  0  0  0
  3 92  1  0  0  0
  3 93  1  0  0  0
  4  5  1  0  0  0
  4 94  1  0  0  0
  4 95  1  0  0  0
  5  6  1  0  0  0
  5 26  1  0  0  0
  5 96  1  0  0  0
  6 25  1  0  0  0
  6 97  1  0  0  0
  6 98  1  0  0  0
  7  8  2  0  0  0
  7 26  1  0  0  0
  7 29  1  0  0  0
  8  9  1  0  0  0
  8 22  1  0  0  0
  9 10  1  0  0  0
  9 27  2  0  0  0
 10 11  2  0  0  0
 10 15  1  0  0  0
 11 12  1  0  0  0
 11 99  1  0  0  0
 12 13  2  0  0  0
 12100  1  0  0  0
 13 14  1  0  0  0
 13 31  1  0  0  0
 14 15  2  0  0  0
 14101  1  0  0  0
 15102  1  0  0  0
 16 17  2  0  0  0
 16 21  1  0  0  0
 16 31  1  0  0  0
 17 18  1  0  0  0
 17103  1  0  0  0
 18 19  2  0  0  0
 18104  1  0  0  0
 19 20  1  0  0  0
 19 24  1  0  0  0
 20 21  2  0  0  0
 20105  1  0  0  0
 21 23  1  0  0  0
 22 28  1  0  0  0
 22 32  2  0  0  0
 26 27  1  0  0  0
 28106  1  0  0  0
 28107  1  0  0  0
 29108  1  0  0  0
 29109  1  0  0  0
 33 34  1  0  0  0
 33 66  1  0  0  0
 33 70  2  0  0  0
 34 36  1  0  0  0
 34 59  1  0  0  0
 34110  1  0  0  0
 35 44  2  0  0  0
 35 45  1  0  0  0
 35 68  1  0  0  0
 36 56  1  0  0  0
 36111  1  0  0  0
 37 39  1  0  0  0
 37 47  1  0  0  0
 37 66  1  0  0  0
 37112  1  0  0  0
 38 43  2  0  0  0
 38 46  1  0  0  0
 38 47  1  0  0  0
 39 64  1  0  0  0
 39 67  2  0  0  0
 40 52  1  0  0  0
 40 53  2  0  0  0
 40 58  1  0  0  0
 41113  1  0  0  0
 41114  1  0  0  0
 41115  1  0  0  0
 41 48  1  0  0  0
 42 43  1  0  0  0
 42 66  1  0  0  0
 42116  1  0  0  0
 42117  1  0  0  0
 43 44  1  0  0  0
 44118  1  0  0  0
 45 46  2  0  0  0
 45119  1  0  0  0
 46120  1  0  0  0
 47121  1  0  0  0
 47122  1  0  0  0
 48 56  1  0  0  0
 48 65  1  0  0  0
 48123  1  0  0  0
 49 50  1  0  0  0
 49 53  1  0  0  0
 49 64  1  0  0  0
 49124  1  0  0  0
 50 51  1  0  0  0
 50125  1  0  0  0
 50126  1  0  0  0
 51 52  1  0  0  0
 51127  1  0  0  0
 51128  1  0  0  0
 52129  1  0  0  0
 52130  1  0  0  0
 53 54  1  0  0  0
 54 55  2  0  0  0
 54131  1  0  0  0
 55 57  1  0  0  0
 55132  1  0  0  0
 56 69  2  0  0  0
 57 58  2  0  0  0
 57133  1  0  0  0
 58134  1  0  0  0
 59 60  1  0  0  0
 59 61  1  0  0  0
 59 62  1  0  0  0
 60135  1  0  0  0
 60136  1  0  0  0
 60137  1  0  0  0
 61138  1  0  0  0
 61139  1  0  0  0
 61140  1  0  0  0
 62141  1  0  0  0
 62142  1  0  0  0
 62143  1  0  0  0
 63 65  1  0  0  0
 63144  1  0  0  0
 63145  1  0  0  0
 63146  1  0  0  0
 64147  1  0  0  0
 65148  1  0  0  0
 68 82  1  0  0  0
 71 73  2  0  0  0
 71 75  1  0  0  0
 71149  1  0  0  0
 72 74  1  0  0  0
 72 75  2  0  0  0
 72150  1  0  0  0
 73 76  1  0  0  0
 73151  1  0  0  0
 74 76  2  0  0  0
 74152  1  0  0  0
 75 86  1  0  0  0
 76 87  1  0  0  0
 77 79  1  0  0  0
 77 81  1  0  0  0
 77153  1  0  0  0
 77154  1  0  0  0
 78 80  1  0  0  0
 78 81  1  0  0  0
 78155  1  0  0  0
 78156  1  0  0  0
 79 82  1  0  0  0
 79157  1  0  0  0
 79158  1  0  0  0
 80 82  1  0  0  0
 80159  1  0  0  0
 80160  1  0  0  0
 81 89  1  0  0  0
 81161  1  0  0  0
 82162  1  0  0  0
 83163  1  0  0  0
 83164  1  0  0  0
 83165  1  0  0  0
 83 86  1  0  0  0
 84 86  1  0  0  0
 84166  1  0  0  0
 84167  1  0  0  0
 84168  1  0  0  0
 85 88  1  0  0  0
 85169  1  0  0  0
 85170  1  0  0  0
 85 87  1  0  0  0
 86171  1  0  0  0
 87 89  1  0  0  0
 87172  1  0  0  0
 88173  1  0  0  0
 89174  1  0  0  0
 89175  1  0  0  0
M  CHG  1  89   1
M  ISO  4   1 100  68 101  82 101  88 100
M  END
> <chiral flag>
0

> <version>
0

> <s_m_source_file>
/data/baiqing/PycharmProjects/Reinvent-master-3.2/result/LINK_invent/BTK/process_docking_weight1_custom_sum_contain_oxygen_bond_distance_aromatic_linkinvent_7_9_3/rearranged_h_0124.sdf

> <i_m_source_file_index>
18

> <r_mmod_Potential_Energy-OPLS-2005>
78.2524337768555

> <r_mmod_Stretch_Energy-OPLS-2005>
170.736602783203

> <r_mmod_Bend_Energy-OPLS-2005>
243.787506103516

> <r_mmod_Torsional_Energy-OPLS-2005>
254.356414794922

> <r_mmod_Improper_Torsional_Energy-OPLS-2005>
5.0856146812439

> <r_mmod_Van_der_Waal_Energy-OPLS-2005>
111.964515686035

> <r_mmod_Electrostatic_Energy-OPLS-2005>
-366.594665527344

> <r_mmod_Solvation_Energy-OPLS-2005>
-465.984252929688

> <b_mmod_Minimization_Converged-OPLS-2005>
0

> <r_mmod_RMS_Derivative-OPLS-2005>
0.96528148651123

$$$$
18
                    3D
 Structure written by MMmdl.
149157  0  0  1  0            999 V2000
  -30.4755  -15.1925   20.3635 C   0  0  0  0  0  0
  -30.4377  -12.7531   19.5074 C   0  0  0  0  0  0
  -29.5250  -12.5633   18.2709 C   0  0  0  0  0  0
  -28.0713  -12.3047   18.7037 C   0  0  0  0  0  0
  -27.6183  -13.2688   19.8283 C   0  0  2  0  0  0
  -28.6616  -13.4042   20.9586 C   0  0  0  0  0  0
  -25.2431  -13.8248   20.5729 C   0  0  0  0  0  0
  -24.1768  -13.0437   20.9261 C   0  0  0  0  0  0
  -24.6424  -11.6939   20.8798 C   0  0  0  0  0  0
  -23.9117  -10.4291   21.0431 C   0  0  0  0  0  0
  -24.3656   -9.4187   21.9198 C   0  0  0  0  0  0
  -23.6304   -8.2236   22.0759 C   0  0  0  0  0  0
  -22.4283   -8.0300   21.3555 C   0  0  0  0  0  0
  -21.9944   -9.0281   20.4652 C   0  0  0  0  0  0
  -22.7296  -10.2143   20.3061 C   0  0  0  0  0  0
  -21.6850   -6.0755   22.5275 C   0  0  0  0  0  0
  -21.4016   -6.5647   23.8215 C   0  0  0  0  0  0
  -21.3653   -5.6790   24.9173 C   0  0  0  0  0  0
  -21.6039   -4.3056   24.7218 C   0  0  0  0  0  0
  -21.8821   -3.8158   23.4336 C   0  0  0  0  0  0
  -21.9187   -4.6978   22.3396 C   0  0  0  0  0  0
  -22.7789  -13.5208   21.1885 C   0  0  0  0  0  0
  -22.1651   -4.2165   21.0974 F   0  0  0  0  0  0
  -21.5624   -3.4538   25.7730 F   0  0  0  0  0  0
  -29.8981  -13.8969   20.3297 N   0  0  0  0  0  0
  -26.2860  -12.9502   20.3259 N   0  0  0  0  0  0
  -25.9362  -11.6618   20.5777 N   0  0  0  0  0  0
  -22.0411  -12.8212   22.0425 N   0  0  0  0  0  0
  -25.4041  -15.1961   20.4073 N   0  0  0  0  0  0
  -31.6929  -15.1892   20.1349 O   0  0  0  0  0  0
  -21.6631   -6.8907   21.4245 O   0  0  0  0  0  0
  -22.3479  -14.5501   20.6698 O   0  0  0  0  0  0
  -24.6611  -31.8245   23.1689 C   0  0  0  0  0  0
  -25.9289  -32.4588   23.8170 C   0  0  1  0  0  0
  -27.2176  -26.9451   20.1989 C   0  0  0  0  0  0
  -25.5979  -33.8400   24.2099 N   0  0  0  0  0  0
  -23.4760  -30.4378   21.5143 C   0  0  2  0  0  0
  -24.9314  -28.8264   20.1134 C   0  0  0  0  0  0
  -22.7657  -29.4474   22.4738 C   0  0  0  0  0  0
  -18.0342  -28.1399   22.8514 C   0  0  0  0  0  0
  -24.1491  -36.7202   23.2668 C   0  0  0  0  0  0
  -26.0439  -30.6369   21.3987 C   0  0  0  0  0  0
  -26.1129  -29.2265   20.7519 C   0  0  0  0  0  0
  -27.2521  -28.3051   20.7762 C   0  0  0  0  0  0
  -26.0083  -26.6945   19.5134 C   0  0  0  0  0  0
  -24.9013  -27.5767   19.4759 C   0  0  0  0  0  0
  -23.7167  -29.7515   20.1419 C   0  0  0  0  0  0
  -25.4137  -36.2964   24.0315 C   0  0  1  0  0  0
  -20.5976  -28.3758   23.1190 C   0  0  2  0  0  0
  -20.6817  -26.9434   22.5400 C   0  0  0  0  0  0
  -19.5762  -26.6378   21.5239 C   0  0  0  0  0  0
  -18.1958  -26.7933   22.1671 C   0  0  0  0  0  0
  -19.1605  -28.8892   23.2846 C   0  0  0  0  0  0
  -18.9504  -30.1490   23.8872 C   0  0  0  0  0  0
  -17.6493  -30.6597   24.0556 C   0  0  0  0  0  0
  -25.9087  -34.9347   23.5018 C   0  0  0  0  0  0
  -16.5388  -29.9073   23.6335 C   0  0  0  0  0  0
  -16.7323  -28.6486   23.0388 C   0  0  0  0  0  0
  -26.4544  -31.6510   25.0679 C   0  0  0  0  0  0
  -25.3717  -31.3743   26.1372 C   0  0  0  0  0  0
  -27.0474  -30.2911   24.6350 C   0  0  0  0  0  0
  -27.6007  -32.4320   25.7519 C   0  0  0  0  0  0
  -27.5543  -37.1819   24.8499 C   0  0  0  0  0  0
  -21.4329  -29.3051   22.3508 N   0  0  0  0  0  0
  -26.4301  -37.3669   23.9355 N   0  0  0  0  0  0
  -24.7486  -30.9937   22.0808 N   0  0  0  0  0  0
  -23.4223  -28.8047   23.2974 O   0  0  0  0  0  0
  -28.2162  -25.8411   20.2143 O   0  0  0  0  0  0
  -26.5669  -34.8875   22.4595 O   0  0  0  0  0  0
  -23.5684  -32.1217   23.6776 O   0  0  0  0  0  0
  -29.9106  -22.2327   20.5878 C   0  0  0  0  0  0
  -30.3328  -20.8160   20.5603 C   0  0  0  0  0  0
  -27.7987  -21.4860   20.1312 C   0  0  0  0  0  0
  -28.5680  -22.7195   20.3562 C   0  0  0  0  0  0
  -29.4970  -19.6475   20.3396 C   0  0  0  0  0  0
  -27.8953  -24.4560   22.1660 C   0  0  0  0  0  0
  -30.1560  -18.0397   20.1792 C   0  0  0  0  0  0
  -27.8790  -24.2999   20.6401 C   0  0  1  0  0  0
  -28.2024  -20.1081   20.1037 N   0  0  0  0  0  0
  -29.7378  -16.4658   20.4389 N   0  0  0  0  0  0
  -31.4596  -12.9362   19.1723 H   0  0  0  0  0  0
  -30.4863  -11.8345   20.0945 H   0  0  0  0  0  0
  -29.8830  -11.7400   17.6514 H   0  0  0  0  0  0
  -29.5637  -13.4578   17.6469 H   0  0  0  0  0  0
  -28.0153  -11.2753   19.0601 H   0  0  0  0  0  0
  -27.3980  -12.3685   17.8470 H   0  0  0  0  0  0
  -27.5479  -14.2456   19.3491 H   0  0  0  0  0  0
  -28.8164  -12.4518   21.4677 H   0  0  0  0  0  0
  -28.3246  -14.1113   21.7166 H   0  0  0  0  0  0
  -25.2803   -9.5639   22.4790 H   0  0  0  0  0  0
  -23.9989   -7.4625   22.7493 H   0  0  0  0  0  0
  -21.0869   -8.8844   19.8964 H   0  0  0  0  0  0
  -22.3785  -10.9705   19.6179 H   0  0  0  0  0  0
  -21.2012   -7.6155   23.9731 H   0  0  0  0  0  0
  -21.1466   -6.0515   25.9079 H   0  0  0  0  0  0
  -22.0602   -2.7621   23.2830 H   0  0  0  0  0  0
  -22.4022  -11.9893   22.4851 H   0  0  0  0  0  0
  -21.1021  -13.1256   22.2595 H   0  0  0  0  0  0
  -24.6266  -15.8417   20.4974 H   0  0  0  0  0  0
  -26.2281  -15.6266   20.0069 H   0  0  0  0  0  0
  -26.7365  -32.5130   23.0892 H   0  0  0  0  0  0
  -25.0127  -33.9484   25.0257 H   0  0  0  0  0  0
  -22.7912  -31.2694   21.3373 H   0  0  0  0  0  0
  -23.3723  -35.9571   23.3412 H   0  0  0  0  0  0
  -24.3540  -36.8748   22.2065 H   0  0  0  0  0  0
  -23.7316  -37.6444   23.6667 H   0  0  0  0  0  0
  -26.2200  -31.3705   20.6111 H   0  0  0  0  0  0
  -26.9072  -30.6993   22.0483 H   0  0  0  0  0  0
  -28.1411  -28.6032   21.3138 H   0  0  0  0  0  0
  -25.8912  -25.7457   19.0129 H   0  0  0  0  0  0
  -24.0055  -27.2589   18.9589 H   0  0  0  0  0  0
  -23.8659  -30.5123   19.3740 H   0  0  0  0  0  0
  -22.8301  -29.1944   19.8327 H   0  0  0  0  0  0
  -25.1354  -36.1778   25.0816 H   0  0  0  0  0  0
  -21.0120  -28.3362   24.1290 H   0  0  0  0  0  0
  -20.5717  -26.2368   23.3644 H   0  0  0  0  0  0
  -21.6668  -26.7387   22.1179 H   0  0  0  0  0  0
  -19.6897  -25.6279   21.1274 H   0  0  0  0  0  0
  -19.6673  -27.3189   20.6771 H   0  0  0  0  0  0
  -17.4215  -26.6706   21.4090 H   0  0  0  0  0  0
  -18.0340  -26.0089   22.9081 H   0  0  0  0  0  0
  -19.7972  -30.7328   24.2236 H   0  0  0  0  0  0
  -17.5026  -31.6288   24.5138 H   0  0  0  0  0  0
  -15.5381  -30.2952   23.7659 H   0  0  0  0  0  0
  -15.8741  -28.0768   22.7130 H   0  0  0  0  0  0
  -24.5877  -30.7094   25.7728 H   0  0  0  0  0  0
  -24.8947  -32.2954   26.4731 H   0  0  0  0  0  0
  -25.8017  -30.8973   27.0192 H   0  0  0  0  0  0
  -26.3166  -29.6574   24.1314 H   0  0  0  0  0  0
  -27.4054  -29.7239   25.4945 H   0  0  0  0  0  0
  -27.9063  -30.4155   23.9754 H   0  0  0  0  0  0
  -27.2523  -33.3634   26.1988 H   0  0  0  0  0  0
  -28.3907  -32.6846   25.0442 H   0  0  0  0  0  0
  -28.0569  -31.8517   26.5538 H   0  0  0  0  0  0
  -28.2649  -38.0009   24.7308 H   0  0  0  0  0  0
  -28.0947  -36.2523   24.6642 H   0  0  0  0  0  0
  -27.2224  -37.1845   25.8897 H   0  0  0  0  0  0
  -20.9559  -29.8768   21.6678 H   0  0  0  0  0  0
  -26.0159  -38.2766   24.1181 H   0  0  0  0  0  0
  -30.6638  -22.9659   20.8367 H   0  0  0  0  0  0
  -31.3848  -20.6253   20.7242 H   0  0  0  0  0  0
  -26.7321  -21.6044   20.0054 H   0  0  0  0  0  0
  -27.2257  -25.2485   22.4971 H   0  0  0  0  0  0
  -28.9010  -24.7069   22.5087 H   0  0  0  0  0  0
  -27.6011  -23.5393   22.6775 H   0  0  0  0  0  0
  -30.4896  -18.0337   19.1404 H   0  0  0  0  0  0
  -31.0921  -18.1127   20.7341 H   0  0  0  0  0  0
  -26.8370  -24.1569   20.3506 H   0  0  0  0  0  0
  -28.7508  -16.3444   20.6080 H   0  0  0  0  0  0
  1 25  1  0  0  0
  1 30  2  0  0  0
  1 80  1  0  0  0
  2  3  1  0  0  0
  2 25  1  0  0  0
  2 81  1  0  0  0
  2 82  1  0  0  0
  3  4  1  0  0  0
  3 83  1  0  0  0
  3 84  1  0  0  0
  4  5  1  0  0  0
  4 85  1  0  0  0
  4 86  1  0  0  0
  5  6  1  0  0  0
  5 26  1  0  0  0
  5 87  1  0  0  0
  6 25  1  0  0  0
  6 88  1  0  0  0
  6 89  1  0  0  0
  7  8  2  0  0  0
  7 26  1  0  0  0
  7 29  1  0  0  0
  8  9  1  0  0  0
  8 22  1  0  0  0
  9 10  1  0  0  0
  9 27  2  0  0  0
 10 11  2  0  0  0
 10 15  1  0  0  0
 11 12  1  0  0  0
 11 90  1  0  0  0
 12 13  2  0  0  0
 12 91  1  0  0  0
 13 14  1  0  0  0
 13 31  1  0  0  0
 14 15  2  0  0  0
 14 92  1  0  0  0
 15 93  1  0  0  0
 16 17  2  0  0  0
 16 21  1  0  0  0
 16 31  1  0  0  0
 17 18  1  0  0  0
 17 94  1  0  0  0
 18 19  2  0  0  0
 18 95  1  0  0  0
 19 20  1  0  0  0
 19 24  1  0  0  0
 20 21  2  0  0  0
 20 96  1  0  0  0
 21 23  1  0  0  0
 22 28  1  0  0  0
 22 32  2  0  0  0
 26 27  1  0  0  0
 28 97  1  0  0  0
 28 98  1  0  0  0
 29 99  1  0  0  0
 29100  1  0  0  0
 33 34  1  0  0  0
 33 66  1  0  0  0
 33 70  2  0  0  0
 34 36  1  0  0  0
 34 59  1  0  0  0
 34101  1  0  0  0
 35 44  2  0  0  0
 35 45  1  0  0  0
 35 68  1  0  0  0
 36 56  1  0  0  0
 36102  1  0  0  0
 37 39  1  0  0  0
 37 47  1  0  0  0
 37 66  1  0  0  0
 37103  1  0  0  0
 38 43  2  0  0  0
 38 46  1  0  0  0
 38 47  1  0  0  0
 39 64  1  0  0  0
 39 67  2  0  0  0
 40 52  1  0  0  0
 40 53  2  0  0  0
 40 58  1  0  0  0
 41104  1  0  0  0
 41105  1  0  0  0
 41106  1  0  0  0
 41 48  1  0  0  0
 42 43  1  0  0  0
 42 66  1  0  0  0
 42107  1  0  0  0
 42108  1  0  0  0
 43 44  1  0  0  0
 44109  1  0  0  0
 45 46  2  0  0  0
 45110  1  0  0  0
 46111  1  0  0  0
 47112  1  0  0  0
 47113  1  0  0  0
 48 56  1  0  0  0
 48 65  1  0  0  0
 48114  1  0  0  0
 49 50  1  0  0  0
 49 53  1  0  0  0
 49 64  1  0  0  0
 49115  1  0  0  0
 50 51  1  0  0  0
 50116  1  0  0  0
 50117  1  0  0  0
 51 52  1  0  0  0
 51118  1  0  0  0
 51119  1  0  0  0
 52120  1  0  0  0
 52121  1  0  0  0
 53 54  1  0  0  0
 54 55  2  0  0  0
 54122  1  0  0  0
 55 57  1  0  0  0
 55123  1  0  0  0
 56 69  2  0  0  0
 57 58  2  0  0  0
 57124  1  0  0  0
 58125  1  0  0  0
 59 60  1  0  0  0
 59 61  1  0  0  0
 59 62  1  0  0  0
 60126  1  0  0  0
 60127  1  0  0  0
 60128  1  0  0  0
 61129  1  0  0  0
 61130  1  0  0  0
 61131  1  0  0  0
 62132  1  0  0  0
 62133  1  0  0  0
 62134  1  0  0  0
 63 65  1  0  0  0
 63135  1  0  0  0
 63136  1  0  0  0
 63137  1  0  0  0
 64138  1  0  0  0
 65139  1  0  0  0
 68 78  1  0  0  0
 71 72  2  0  0  0
 71 74  1  0  0  0
 71140  1  0  0  0
 72 75  1  0  0  0
 72141  1  0  0  0
 73 74  2  0  0  0
 73 79  1  0  0  0
 73142  1  0  0  0
 74 78  1  0  0  0
 75 77  1  0  0  0
 75 79  2  0  0  0
 76143  1  0  0  0
 76144  1  0  0  0
 76145  1  0  0  0
 76 78  1  0  0  0
 77 80  1  0  0  0
 77146  1  0  0  0
 77147  1  0  0  0
 78148  1  0  0  0
 80149  1  0  0  0
M  ISO  4   1 100  68 101  78 101  80 100
M  END
> <chiral flag>
0

> <version>
0

> <s_m_source_file>
/data/baiqing/PycharmProjects/Reinvent-master-3.2/result/LINK_invent/BTK/process_docking_weight1_custom_sum_contain_oxygen_bond_distance_aromatic_linkinvent_7_9_3/rearranged_h_0124.sdf

> <i_m_source_file_index>
19

> <r_mmod_Potential_Energy-OPLS-2005>
879.717529296875

> <r_mmod_Stretch_Energy-OPLS-2005>
472.195190429688

> <r_mmod_Bend_Energy-OPLS-2005>
445.985900878906

> <r_mmod_Torsional_Energy-OPLS-2005>
231.798675537109

> <r_mmod_Improper_Torsional_Energy-OPLS-2005>
8.06352043151855

> <r_mmod_Van_der_Waal_Energy-OPLS-2005>
130.676345825195

> <r_mmod_Electrostatic_Energy-OPLS-2005>
-586.999572753906

> <r_mmod_Solvation_Energy-OPLS-2005>
-224.122375488281

> <b_mmod_Minimization_Converged-OPLS-2005>
0

> <r_mmod_RMS_Derivative-OPLS-2005>
3.0020649433136

$$$$
19
                    3D
 Structure written by MMmdl.
192201  0  0  1  0            999 V2000
  -30.6756  -14.6278   20.5282 C   0  0  0  0  0  0
  -30.4224  -12.3980   19.4508 C   0  0  0  0  0  0
  -29.5019  -12.5221   18.2201 C   0  0  0  0  0  0
  -28.0245  -12.3689   18.6278 C   0  0  0  0  0  0
  -27.6493  -13.2332   19.8611 C   0  0  2  0  0  0
  -28.6949  -13.1048   20.9909 C   0  0  0  0  0  0
  -25.2520  -13.8203   20.5704 C   0  0  0  0  0  0
  -24.1811  -13.0463   20.9211 C   0  0  0  0  0  0
  -24.6384  -11.6930   20.8745 C   0  0  0  0  0  0
  -23.9048  -10.4304   21.0406 C   0  0  0  0  0  0
  -24.3595   -9.4222   21.9178 C   0  0  0  0  0  0
  -23.6294   -8.2248   22.0732 C   0  0  0  0  0  0
  -22.4271   -8.0287   21.3553 C   0  0  0  0  0  0
  -21.9920   -9.0252   20.4644 C   0  0  0  0  0  0
  -22.7226  -10.2138   20.3043 C   0  0  0  0  0  0
  -21.6856   -6.0758   22.5293 C   0  0  0  0  0  0
  -21.4011   -6.5649   23.8231 C   0  0  0  0  0  0
  -21.3665   -5.6794   24.9191 C   0  0  0  0  0  0
  -21.6048   -4.3049   24.7235 C   0  0  0  0  0  0
  -21.8817   -3.8164   23.4346 C   0  0  0  0  0  0
  -21.9189   -4.6993   22.3413 C   0  0  0  0  0  0
  -22.7824  -13.5253   21.1874 C   0  0  0  0  0  0
  -22.1652   -4.2174   21.0996 F   0  0  0  0  0  0
  -21.5621   -3.4522   25.7742 F   0  0  0  0  0  0
  -30.0098  -13.4305   20.4238 N   0  0  0  0  0  0
  -26.2973  -12.9416   20.3329 N   0  0  0  0  0  0
  -25.9326  -11.6555   20.5760 N   0  0  0  0  0  0
  -22.0444  -12.8263   22.0411 N   0  0  0  0  0  0
  -25.4239  -15.1930   20.4137 N   0  0  0  0  0  0
  -31.8127  -14.7509   20.0652 O   0  0  0  0  0  0
  -21.6633   -6.8893   21.4252 O   0  0  0  0  0  0
  -22.3548  -14.5605   20.6767 O   0  0  0  0  0  0
  -24.6270  -31.8597   23.2009 C   0  0  0  0  0  0
  -25.9127  -32.4753   23.8326 C   0  0  1  0  0  0
  -27.2076  -27.3034   20.1106 C   0  0  0  0  0  0
  -25.5950  -33.8555   24.2262 N   0  0  0  0  0  0
  -23.4184  -30.4874   21.5439 C   0  0  2  0  0  0
  -24.8610  -28.9480   20.1028 C   0  0  0  0  0  0
  -22.7473  -29.4644   22.4905 C   0  0  0  0  0  0
  -18.0290  -28.1383   22.8482 C   0  0  0  0  0  0
  -24.1503  -36.7293   23.2636 C   0  0  0  0  0  0
  -25.9640  -30.7790   21.3820 C   0  0  0  0  0  0
  -26.0321  -29.4112   20.7162 C   0  0  0  0  0  0
  -27.2088  -28.6012   20.7127 C   0  0  0  0  0  0
  -26.0156  -26.9077   19.4576 C   0  0  0  0  0  0
  -24.8583  -27.7042   19.4586 C   0  0  0  0  0  0
  -23.6288  -29.8271   20.1575 C   0  0  0  0  0  0
  -25.4125  -36.3068   24.0321 C   0  0  1  0  0  0
  -20.5887  -28.3712   23.1251 C   0  0  2  0  0  0
  -20.6785  -26.9433   22.5390 C   0  0  0  0  0  0
  -19.5754  -26.6390   21.5199 C   0  0  0  0  0  0
  -18.1932  -26.7928   22.1610 C   0  0  0  0  0  0
  -19.1539  -28.8866   23.2861 C   0  0  0  0  0  0
  -18.9462  -30.1466   23.8880 C   0  0  0  0  0  0
  -17.6462  -30.6587   24.0560 C   0  0  0  0  0  0
  -25.9066  -34.9437   23.5094 C   0  0  0  0  0  0
  -16.5356  -29.9084   23.6330 C   0  0  0  0  0  0
  -16.7278  -28.6496   23.0360 C   0  0  0  0  0  0
  -26.4508  -31.6556   25.0698 C   0  0  0  0  0  0
  -25.3722  -31.3695   26.1401 C   0  0  0  0  0  0
  -27.0365  -30.2966   24.6198 C   0  0  0  0  0  0
  -27.6068  -32.4296   25.7464 C   0  0  0  0  0  0
  -27.5588  -37.1793   24.8453 C   0  0  0  0  0  0
  -21.4188  -29.3063   22.3642 N   0  0  0  0  0  0
  -26.4304  -37.3758   23.9392 N   0  0  0  0  0  0
  -24.6879  -31.0601   22.0970 N   0  0  0  0  0  0
  -23.4199  -28.8180   23.2983 O   0  0  0  0  0  0
  -28.3007  -26.4180   20.1795 O   0  0  0  0  0  0
  -26.5638  -34.8907   22.4663 O   0  0  0  0  0  0
  -23.5443  -32.1419   23.7336 O   0  0  0  0  0  0
  -34.2955  -19.9530   18.6324 C   0  0  0  0  0  0
  -35.2568  -18.8124   18.2728 C   0  0  0  0  0  0
  -34.0214  -19.9998   20.1440 C   0  0  0  0  0  0
  -34.7267  -17.4586   18.7772 C   0  0  0  0  0  0
  -31.4340  -17.2679   22.4378 C   0  0  0  0  0  0
  -30.3833  -16.1297   22.4161 C   0  0  0  0  0  0
  -29.5419  -16.9026   20.2433 C   0  0  0  0  0  0
  -29.7355  -18.3632   20.8743 C   0  0  1  0  0  0
  -33.5152  -18.6569   20.7055 C   0  0  2  0  0  0
  -31.1750  -18.4395   21.4391 C   0  0  2  0  0  0
  -34.4018  -17.4545   20.2904 C   0  0  2  0  0  0
  -30.7914  -21.4567   19.2823 C   0  0  0  0  0  0
  -35.4080  -15.2591   22.3753 C   0  0  0  0  0  0
  -37.6760  -16.2647   21.8851 C   0  0  0  0  0  0
  -29.2007  -19.6177   20.0186 C   0  0  0  0  0  0
  -29.0529  -23.8326   20.3866 C   0  0  0  0  0  0
  -28.5935  -22.3047   20.1865 C   0  0  0  0  0  0
  -28.0057  -24.9692   20.0091 C   0  0  0  0  0  0
  -29.6770  -21.1291   20.2899 C   0  0  2  0  0  0
  -36.2323  -16.0967   21.3759 C   0  0  0  0  0  0
  -30.0138  -15.7163   21.0573 N   0  0  0  0  0  0
  -32.1252  -18.4002   20.3293 N   0  0  0  0  0  0
  -35.6214  -17.4257   21.1318 N   0  3  0  0  0  0
  -31.4660  -12.4980   19.1459 H   0  0  0  0  0  0
  -30.3430  -11.4051   19.8985 H   0  0  0  0  0  0
  -29.7657  -11.7696   17.4763 H   0  0  0  0  0  0
  -29.6508  -13.4933   17.7448 H   0  0  0  0  0  0
  -27.8470  -11.3153   18.8446 H   0  0  0  0  0  0
  -27.3764  -12.6148   17.7848 H   0  0  0  0  0  0
  -27.6661  -14.2691   19.5233 H   0  0  0  0  0  0
  -28.6992  -12.0957   21.4035 H   0  0  0  0  0  0
  -28.4427  -13.7688   21.8178 H   0  0  0  0  0  0
  -25.2709   -9.5720   22.4779 H   0  0  0  0  0  0
  -24.0012   -7.4638   22.7446 H   0  0  0  0  0  0
  -21.0845   -8.8772   19.8954 H   0  0  0  0  0  0
  -22.3664  -10.9682   19.6159 H   0  0  0  0  0  0
  -21.1984   -7.6152   23.9738 H   0  0  0  0  0  0
  -21.1489   -6.0518   25.9098 H   0  0  0  0  0  0
  -22.0586   -2.7629   23.2828 H   0  0  0  0  0  0
  -22.3990  -11.9885   22.4784 H   0  0  0  0  0  0
  -21.1078  -13.1337   22.2611 H   0  0  0  0  0  0
  -24.6638  -15.8539   20.5307 H   0  0  0  0  0  0
  -26.2880  -15.6320   20.1224 H   0  0  0  0  0  0
  -26.7174  -32.5393   23.1046 H   0  0  0  0  0  0
  -25.0071  -33.9687   25.0388 H   0  0  0  0  0  0
  -22.7126  -31.3091   21.4045 H   0  0  0  0  0  0
  -23.3761  -35.9628   23.3285 H   0  0  0  0  0  0
  -24.3592  -36.8938   22.2054 H   0  0  0  0  0  0
  -23.7267  -37.6493   23.6672 H   0  0  0  0  0  0
  -26.1176  -31.5446   20.6206 H   0  0  0  0  0  0
  -26.8367  -30.8077   22.0227 H   0  0  0  0  0  0
  -28.1024  -28.9491   21.2115 H   0  0  0  0  0  0
  -25.9365  -25.9633   18.9411 H   0  0  0  0  0  0
  -23.9679  -27.3498   18.9563 H   0  0  0  0  0  0
  -23.7373  -30.6029   19.3992 H   0  0  0  0  0  0
  -22.7486  -29.2534   19.8627 H   0  0  0  0  0  0
  -25.1306  -36.1920   25.0815 H   0  0  0  0  0  0
  -20.9993  -28.3305   24.1365 H   0  0  0  0  0  0
  -20.5694  -26.2332   23.3601 H   0  0  0  0  0  0
  -21.6651  -26.7461   22.1174 H   0  0  0  0  0  0
  -19.6926  -25.6302   21.1228 H   0  0  0  0  0  0
  -19.6687  -27.3199   20.6726 H   0  0  0  0  0  0
  -17.4212  -26.6694   21.4005 H   0  0  0  0  0  0
  -18.0329  -26.0059   22.8993 H   0  0  0  0  0  0
  -19.7943  -30.7282   24.2236 H   0  0  0  0  0  0
  -17.5022  -31.6259   24.5169 H   0  0  0  0  0  0
  -15.5357  -30.2984   23.7653 H   0  0  0  0  0  0
  -15.8676  -28.0802   22.7091 H   0  0  0  0  0  0
  -24.5898  -30.7058   25.7693 H   0  0  0  0  0  0
  -24.8905  -32.2863   26.4814 H   0  0  0  0  0  0
  -25.8012  -30.8848   27.0179 H   0  0  0  0  0  0
  -26.2948  -29.6680   24.1251 H   0  0  0  0  0  0
  -27.4075  -29.7252   25.4720 H   0  0  0  0  0  0
  -27.8818  -30.4223   23.9424 H   0  0  0  0  0  0
  -27.2674  -33.3593   26.2038 H   0  0  0  0  0  0
  -28.3862  -32.6866   25.0278 H   0  0  0  0  0  0
  -28.0751  -31.8423   26.5372 H   0  0  0  0  0  0
  -28.2586  -38.0110   24.7517 H   0  0  0  0  0  0
  -28.1108  -36.2639   24.6260 H   0  0  0  0  0  0
  -27.2294  -37.1408   25.8851 H   0  0  0  0  0  0
  -20.9374  -29.8794   21.6849 H   0  0  0  0  0  0
  -26.0191  -38.2840   24.1367 H   0  0  0  0  0  0
  -33.3630  -19.8251   18.0832 H   0  0  0  0  0  0
  -34.7104  -20.9068   18.3044 H   0  0  0  0  0  0
  -36.2464  -19.0111   18.6848 H   0  0  0  0  0  0
  -35.3840  -18.7781   17.1908 H   0  0  0  0  0  0
  -33.3351  -20.8083   20.3921 H   0  0  0  0  0  0
  -34.9513  -20.2586   20.6523 H   0  0  0  0  0  0
  -35.4214  -16.6581   18.5251 H   0  0  0  0  0  0
  -33.8092  -17.2222   18.2349 H   0  0  0  0  0  0
  -32.4178  -16.8242   22.2977 H   0  0  0  0  0  0
  -31.4640  -17.6711   23.4524 H   0  0  0  0  0  0
  -29.4806  -16.4516   22.9323 H   0  0  0  0  0  0
  -30.7573  -15.2788   22.9919 H   0  0  0  0  0  0
  -30.0474  -16.8748   19.2766 H   0  0  0  0  0  0
  -28.4868  -16.7482   20.0254 H   0  0  0  0  0  0
  -29.0964  -18.3975   21.7573 H   0  0  0  0  0  0
  -33.5557  -18.7449   21.7921 H   0  0  0  0  0  0
  -31.2982  -19.3895   21.9639 H   0  0  0  0  0  0
  -33.8411  -16.5452   20.5028 H   0  0  0  0  0  0
  -31.4469  -20.6126   19.1116 H   0  0  0  0  0  0
  -31.4138  -22.2852   19.6195 H   0  0  0  0  0  0
  -30.3749  -21.7176   18.3077 H   0  0  0  0  0  0
  -35.8924  -14.2996   22.5574 H   0  0  0  0  0  0
  -34.4093  -15.0325   22.0053 H   0  0  0  0  0  0
  -35.3014  -15.7572   23.3410 H   0  0  0  0  0  0
  -38.1548  -15.2960   22.0191 H   0  0  0  0  0  0
  -37.7102  -16.7795   22.8454 H   0  0  0  0  0  0
  -38.2896  -16.8314   21.1850 H   0  0  0  0  0  0
  -28.1125  -19.5988   20.0969 H   0  0  0  0  0  0
  -29.3796  -19.3927   18.9659 H   0  0  0  0  0  0
  -29.9508  -24.0145   19.7989 H   0  0  0  0  0  0
  -29.3535  -23.9658   21.4270 H   0  0  0  0  0  0
  -28.1095  -22.2246   19.2116 H   0  0  0  0  0  0
  -27.8027  -22.0950   20.9084 H   0  0  0  0  0  0
  -27.0974  -24.7436   20.5714 H   0  0  0  0  0  0
  -27.7686  -24.8156   18.9558 H   0  0  0  0  0  0
  -30.0901  -21.1684   21.2975 H   0  0  0  0  0  0
  -36.2773  -15.5631   20.4257 H   0  0  0  0  0  0
  -31.8323  -19.0795   19.6360 H   0  0  0  0  0  0
  -35.3982  -17.8383   22.0222 H   0  0  0  0  0  0
  -36.3064  -18.0236   20.6969 H   0  0  0  0  0  0
  1 25  1  0  0  0
  1 30  2  0  0  0
  1 91  1  0  0  0
  2  3  1  0  0  0
  2 25  1  0  0  0
  2 94  1  0  0  0
  2 95  1  0  0  0
  3  4  1  0  0  0
  3 96  1  0  0  0
  3 97  1  0  0  0
  4  5  1  0  0  0
  4 98  1  0  0  0
  4 99  1  0  0  0
  5  6  1  0  0  0
  5 26  1  0  0  0
  5100  1  0  0  0
  6 25  1  0  0  0
  6101  1  0  0  0
  6102  1  0  0  0
  7  8  2  0  0  0
  7 26  1  0  0  0
  7 29  1  0  0  0
  8  9  1  0  0  0
  8 22  1  0  0  0
  9 10  1  0  0  0
  9 27  2  0  0  0
 10 11  2  0  0  0
 10 15  1  0  0  0
 11 12  1  0  0  0
 11103  1  0  0  0
 12 13  2  0  0  0
 12104  1  0  0  0
 13 14  1  0  0  0
 13 31  1  0  0  0
 14 15  2  0  0  0
 14105  1  0  0  0
 15106  1  0  0  0
 16 17  2  0  0  0
 16 21  1  0  0  0
 16 31  1  0  0  0
 17 18  1  0  0  0
 17107  1  0  0  0
 18 19  2  0  0  0
 18108  1  0  0  0
 19 20  1  0  0  0
 19 24  1  0  0  0
 20 21  2  0  0  0
 20109  1  0  0  0
 21 23  1  0  0  0
 22 28  1  0  0  0
 22 32  2  0  0  0
 26 27  1  0  0  0
 28110  1  0  0  0
 28111  1  0  0  0
 29112  1  0  0  0
 29113  1  0  0  0
 33 34  1  0  0  0
 33 66  1  0  0  0
 33 70  2  0  0  0
 34 36  1  0  0  0
 34 59  1  0  0  0
 34114  1  0  0  0
 35 44  2  0  0  0
 35 45  1  0  0  0
 35 68  1  0  0  0
 36 56  1  0  0  0
 36115  1  0  0  0
 37 39  1  0  0  0
 37 47  1  0  0  0
 37 66  1  0  0  0
 37116  1  0  0  0
 38 43  2  0  0  0
 38 46  1  0  0  0
 38 47  1  0  0  0
 39 64  1  0  0  0
 39 67  2  0  0  0
 40 52  1  0  0  0
 40 53  2  0  0  0
 40 58  1  0  0  0
 41117  1  0  0  0
 41118  1  0  0  0
 41119  1  0  0  0
 41 48  1  0  0  0
 42 43  1  0  0  0
 42 66  1  0  0  0
 42120  1  0  0  0
 42121  1  0  0  0
 43 44  1  0  0  0
 44122  1  0  0  0
 45 46  2  0  0  0
 45123  1  0  0  0
 46124  1  0  0  0
 47125  1  0  0  0
 47126  1  0  0  0
 48 56  1  0  0  0
 48 65  1  0  0  0
 48127  1  0  0  0
 49 50  1  0  0  0
 49 53  1  0  0  0
 49 64  1  0  0  0
 49128  1  0  0  0
 50 51  1  0  0  0
 50129  1  0  0  0
 50130  1  0  0  0
 51 52  1  0  0  0
 51131  1  0  0  0
 51132  1  0  0  0
 52133  1  0  0  0
 52134  1  0  0  0
 53 54  1  0  0  0
 54 55  2  0  0  0
 54135  1  0  0  0
 55 57  1  0  0  0
 55136  1  0  0  0
 56 69  2  0  0  0
 57 58  2  0  0  0
 57137  1  0  0  0
 58138  1  0  0  0
 59 60  1  0  0  0
 59 61  1  0  0  0
 59 62  1  0  0  0
 60139  1  0  0  0
 60140  1  0  0  0
 60141  1  0  0  0
 61142  1  0  0  0
 61143  1  0  0  0
 61144  1  0  0  0
 62145  1  0  0  0
 62146  1  0  0  0
 62147  1  0  0  0
 63 65  1  0  0  0
 63148  1  0  0  0
 63149  1  0  0  0
 63150  1  0  0  0
 64151  1  0  0  0
 65152  1  0  0  0
 68 88  1  0  0  0
 71 72  1  0  0  0
 71 73  1  0  0  0
 71153  1  0  0  0
 71154  1  0  0  0
 72 74  1  0  0  0
 72155  1  0  0  0
 72156  1  0  0  0
 73 79  1  0  0  0
 73157  1  0  0  0
 73158  1  0  0  0
 74 81  1  0  0  0
 74159  1  0  0  0
 74160  1  0  0  0
 75 76  1  0  0  0
 75 80  1  0  0  0
 75161  1  0  0  0
 75162  1  0  0  0
 76 91  1  0  0  0
 76163  1  0  0  0
 76164  1  0  0  0
 77 78  1  0  0  0
 77 91  1  0  0  0
 77165  1  0  0  0
 77166  1  0  0  0
 78 80  1  0  0  0
 78 85  1  0  0  0
 78167  1  0  0  0
 79 81  1  0  0  0
 79 92  1  0  0  0
 79168  1  0  0  0
 80 92  1  0  0  0
 80169  1  0  0  0
 81 93  1  0  0  0
 81170  1  0  0  0
 82171  1  0  0  0
 82172  1  0  0  0
 82173  1  0  0  0
 82 89  1  0  0  0
 83174  1  0  0  0
 83175  1  0  0  0
 83176  1  0  0  0
 83 90  1  0  0  0
 84 90  1  0  0  0
 84177  1  0  0  0
 84178  1  0  0  0
 84179  1  0  0  0
 85 89  1  0  0  0
 85180  1  0  0  0
 85181  1  0  0  0
 86 87  1  0  0  0
 86 88  1  0  0  0
 86182  1  0  0  0
 86183  1  0  0  0
 87 89  1  0  0  0
 87184  1  0  0  0
 87185  1  0  0  0
 88186  1  0  0  0
 88187  1  0  0  0
 89188  1  0  0  0
 90 93  1  0  0  0
 90189  1  0  0  0
 92190  1  0  0  0
 93191  1  0  0  0
 93192  1  0  0  0
M  CHG  1  93   1
M  ISO  4   1 100  68 101  88 101  91 100
M  END
> <chiral flag>
0

> <version>
0

> <s_m_source_file>
/data/baiqing/PycharmProjects/Reinvent-master-3.2/result/LINK_invent/BTK/process_docking_weight1_custom_sum_contain_oxygen_bond_distance_aromatic_linkinvent_7_9_3/rearranged_h_0124.sdf

> <i_m_source_file_index>
20

> <r_mmod_Potential_Energy-OPLS-2005>
244.213592529297

> <r_mmod_Stretch_Energy-OPLS-2005>
99.9192199707031

> <r_mmod_Bend_Energy-OPLS-2005>
170.680618286133

> <r_mmod_Torsional_Energy-OPLS-2005>
432.328887939453

> <r_mmod_Improper_Torsional_Energy-OPLS-2005>
5.08523225784302

> <r_mmod_Van_der_Waal_Energy-OPLS-2005>
130.415786743164

> <r_mmod_Electrostatic_Energy-OPLS-2005>
-258.034515380859

> <r_mmod_Solvation_Energy-OPLS-2005>
-388.666564941406

> <b_mmod_Minimization_Converged-OPLS-2005>
0

> <r_mmod_RMS_Derivative-OPLS-2005>
3.43883275985718

$$$$
20
                    3D
 Structure written by MMmdl.
167176  0  0  1  0            999 V2000
  -30.7366  -14.3826   20.5827 C   0  0  0  0  0  0
  -30.4109  -12.2533   19.4080 C   0  0  0  0  0  0
  -29.4822  -12.5063   18.2026 C   0  0  0  0  0  0
  -28.0050  -12.3797   18.6198 C   0  0  0  0  0  0
  -27.6680  -13.1983   19.8921 C   0  0  2  0  0  0
  -28.7113  -12.9400   21.0047 C   0  0  0  0  0  0
  -25.2615  -13.8144   20.5716 C   0  0  0  0  0  0
  -24.1845  -13.0436   20.9182 C   0  0  0  0  0  0
  -24.6380  -11.6894   20.8756 C   0  0  0  0  0  0
  -23.9044  -10.4284   21.0422 C   0  0  0  0  0  0
  -24.3585   -9.4205   21.9206 C   0  0  0  0  0  0
  -23.6287   -8.2223   22.0740 C   0  0  0  0  0  0
  -22.4276   -8.0266   21.3518 C   0  0  0  0  0  0
  -21.9894   -9.0254   20.4635 C   0  0  0  0  0  0
  -22.7218  -10.2137   20.3057 C   0  0  0  0  0  0
  -21.6836   -6.0736   22.5297 C   0  0  0  0  0  0
  -21.4013   -6.5647   23.8238 C   0  0  0  0  0  0
  -21.3652   -5.6790   24.9202 C   0  0  0  0  0  0
  -21.6045   -4.3058   24.7239 C   0  0  0  0  0  0
  -21.8820   -3.8150   23.4353 C   0  0  0  0  0  0
  -21.9181   -4.6968   22.3408 C   0  0  0  0  0  0
  -22.7871  -13.5249   21.1838 C   0  0  0  0  0  0
  -22.1643   -4.2146   21.0994 F   0  0  0  0  0  0
  -21.5627   -3.4541   25.7752 F   0  0  0  0  0  0
  -30.0516  -13.2176   20.4552 N   0  0  0  0  0  0
  -26.3055  -12.9303   20.3465 N   0  0  0  0  0  0
  -25.9317  -11.6470   20.5817 N   0  0  0  0  0  0
  -22.0500  -12.8254   22.0412 N   0  0  0  0  0  0
  -25.4384  -15.1856   20.4104 N   0  0  0  0  0  0
  -31.8418  -14.5869   20.0727 O   0  0  0  0  0  0
  -21.6621   -6.8871   21.4246 O   0  0  0  0  0  0
  -22.3565  -14.5551   20.6686 O   0  0  0  0  0  0
  -24.6111  -31.8706   23.2152 C   0  0  0  0  0  0
  -25.9049  -32.4842   23.8403 C   0  0  1  0  0  0
  -27.2361  -27.4842   20.0870 C   0  0  0  0  0  0
  -25.5928  -33.8644   24.2359 N   0  0  0  0  0  0
  -23.3948  -30.4935   21.5535 C   0  0  2  0  0  0
  -24.8452  -28.9688   20.1129 C   0  0  0  0  0  0
  -22.7376  -29.4669   22.5033 C   0  0  0  0  0  0
  -18.0245  -28.1378   22.8457 C   0  0  0  0  0  0
  -24.1481  -36.7315   23.2639 C   0  0  0  0  0  0
  -25.9169  -30.8505   21.3618 C   0  0  0  0  0  0
  -25.9978  -29.4835   20.7208 C   0  0  0  0  0  0
  -27.1976  -28.7405   20.7233 C   0  0  0  0  0  0
  -26.0824  -26.9942   19.4421 C   0  0  0  0  0  0
  -24.8782  -27.7172   19.4757 C   0  0  0  0  0  0
  -23.6027  -29.8268   20.1661 C   0  0  0  0  0  0
  -25.4110  -36.3131   24.0340 C   0  0  1  0  0  0
  -20.5834  -28.3644   23.1350 C   0  0  2  0  0  0
  -20.6762  -26.9397   22.5406 C   0  0  0  0  0  0
  -19.5744  -26.6386   21.5204 C   0  0  0  0  0  0
  -18.1915  -26.7918   22.1606 C   0  0  0  0  0  0
  -19.1496  -28.8831   23.2888 C   0  0  0  0  0  0
  -18.9443  -30.1442   23.8889 C   0  0  0  0  0  0
  -17.6457  -30.6584   24.0566 C   0  0  0  0  0  0
  -25.9033  -34.9485   23.5134 C   0  0  0  0  0  0
  -16.5345  -29.9079   23.6334 C   0  0  0  0  0  0
  -16.7238  -28.6507   23.0319 C   0  0  0  0  0  0
  -26.4511  -31.6566   25.0665 C   0  0  0  0  0  0
  -25.3808  -31.3595   26.1415 C   0  0  0  0  0  0
  -27.0308  -30.3021   24.5949 C   0  0  0  0  0  0
  -27.6106  -32.4256   25.7453 C   0  0  0  0  0  0
  -27.5579  -37.1826   24.8473 C   0  0  0  0  0  0
  -21.4115  -29.3027   22.3782 N   0  0  0  0  0  0
  -26.4296  -37.3810   23.9400 N   0  0  0  0  0  0
  -24.6580  -31.0849   22.1042 N   0  0  0  0  0  0
  -23.4185  -28.8213   23.3047 O   0  0  0  0  0  0
  -28.3779  -26.7251   20.0589 O   0  0  0  0  0  0
  -26.5558  -34.8927   22.4669 O   0  0  0  0  0  0
  -23.5315  -32.1462   23.7562 O   0  0  0  0  0  0
  -29.1762  -18.1528   18.9914 C   0  0  0  0  0  0
  -29.3527  -16.8536   19.4846 C   0  0  0  0  0  0
  -29.6488  -19.2402   19.7532 C   0  0  0  0  0  0
  -29.9975  -16.6618   20.7237 C   0  0  0  0  0  0
  -30.3255  -18.9593   20.9570 C   0  0  0  0  0  0
  -26.2627  -22.6315   19.1541 C   0  0  0  0  0  0
  -26.1125  -23.5983   20.3363 C   0  0  0  0  0  0
  -28.3713  -23.0195   20.3075 C   0  0  0  0  0  0
  -27.7713  -22.3009   19.0924 C   0  0  1  0  0  0
  -31.5048  -19.7029   22.9185 C   0  0  0  0  0  0
  -28.0652  -20.7996   19.0304 C   0  0  0  0  0  0
  -27.7086  -25.0225   21.6784 C   0  0  0  0  0  0
  -28.7292  -26.1196   21.3080 C   0  0  0  0  0  0
  -30.4655  -17.7030   21.4446 N   0  0  0  0  0  0
  -30.0736  -15.3508   21.2222 N   0  0  0  0  0  0
  -27.4659  -24.1592   20.5002 N   0  3  2  0  0  0
  -29.4238  -20.5406   19.3697 O   0  0  0  0  0  0
  -30.8331  -20.0060   21.6974 O   0  0  0  0  0  0
  -31.4595  -12.3193   19.1115 H   0  0  0  0  0  0
  -30.2773  -11.2369   19.7805 H   0  0  0  0  0  0
  -29.7009  -11.7968   17.4049 H   0  0  0  0  0  0
  -29.6628  -13.5004   17.7911 H   0  0  0  0  0  0
  -27.7965  -11.3250   18.7952 H   0  0  0  0  0  0
  -27.3508  -12.6844   17.8037 H   0  0  0  0  0  0
  -27.7250  -14.2495   19.6139 H   0  0  0  0  0  0
  -28.6655  -11.8997   21.3292 H   0  0  0  0  0  0
  -28.4864  -13.5247   21.8977 H   0  0  0  0  0  0
  -25.2698   -9.5689   22.4820 H   0  0  0  0  0  0
  -23.9993   -7.4606   22.7446 H   0  0  0  0  0  0
  -21.0814   -8.8772   19.8962 H   0  0  0  0  0  0
  -22.3667  -10.9683   19.6167 H   0  0  0  0  0  0
  -21.2033   -7.6159   23.9743 H   0  0  0  0  0  0
  -21.1464   -6.0521   25.9101 H   0  0  0  0  0  0
  -22.0602   -2.7608   23.2862 H   0  0  0  0  0  0
  -22.4064  -11.9881   22.4769 H   0  0  0  0  0  0
  -21.1165  -13.1353   22.2671 H   0  0  0  0  0  0
  -24.6691  -15.8400   20.5096 H   0  0  0  0  0  0
  -26.2989  -15.6243   20.1076 H   0  0  0  0  0  0
  -26.7137  -32.5605   23.1192 H   0  0  0  0  0  0
  -25.0179  -33.9810   25.0574 H   0  0  0  0  0  0
  -22.6800  -31.3072   21.4186 H   0  0  0  0  0  0
  -23.3748  -35.9646   23.3302 H   0  0  0  0  0  0
  -24.3590  -36.8896   22.2055 H   0  0  0  0  0  0
  -23.7221  -37.6523   23.6622 H   0  0  0  0  0  0
  -26.0121  -31.6120   20.5858 H   0  0  0  0  0  0
  -26.8123  -30.9146   21.9670 H   0  0  0  0  0  0
  -28.0854  -29.1353   21.1968 H   0  0  0  0  0  0
  -26.1129  -26.0615   18.9007 H   0  0  0  0  0  0
  -23.9985  -27.3210   18.9885 H   0  0  0  0  0  0
  -23.7107  -30.5997   19.4059 H   0  0  0  0  0  0
  -22.7322  -29.2403   19.8697 H   0  0  0  0  0  0
  -25.1287  -36.2005   25.0834 H   0  0  0  0  0  0
  -20.9900  -28.3188   24.1490 H   0  0  0  0  0  0
  -20.5714  -26.2234   23.3554 H   0  0  0  0  0  0
  -21.6639  -26.7493   22.1195 H   0  0  0  0  0  0
  -19.6904  -25.6306   21.1209 H   0  0  0  0  0  0
  -19.6698  -27.3209   20.6741 H   0  0  0  0  0  0
  -17.4196  -26.6645   21.3993 H   0  0  0  0  0  0
  -18.0334  -26.0058   22.9004 H   0  0  0  0  0  0
  -19.7935  -30.7232   24.2271 H   0  0  0  0  0  0
  -17.5023  -31.6262   24.5178 H   0  0  0  0  0  0
  -15.5353  -30.2992   23.7669 H   0  0  0  0  0  0
  -15.8622  -28.0844   22.7027 H   0  0  0  0  0  0
  -24.6066  -30.6851   25.7723 H   0  0  0  0  0  0
  -24.8922  -32.2706   26.4881 H   0  0  0  0  0  0
  -25.8226  -30.8777   27.0144 H   0  0  0  0  0  0
  -26.2760  -29.6812   24.1105 H   0  0  0  0  0  0
  -27.4192  -29.7237   25.4341 H   0  0  0  0  0  0
  -27.8563  -30.4351   23.8954 H   0  0  0  0  0  0
  -27.2747  -33.3565   26.2050 H   0  0  0  0  0  0
  -28.3946  -32.6785   25.0295 H   0  0  0  0  0  0
  -28.0731  -31.8337   26.5368 H   0  0  0  0  0  0
  -28.2611  -38.0113   24.7528 H   0  0  0  0  0  0
  -28.1047  -36.2642   24.6295 H   0  0  0  0  0  0
  -27.2268  -37.1458   25.8865 H   0  0  0  0  0  0
  -20.9271  -29.8757   21.7015 H   0  0  0  0  0  0
  -26.0183  -38.2880   24.1402 H   0  0  0  0  0  0
  -28.6757  -18.3044   18.0469 H   0  0  0  0  0  0
  -28.9965  -16.0223   18.8974 H   0  0  0  0  0  0
  -25.9486  -23.1154   18.2263 H   0  0  0  0  0  0
  -25.6308  -21.7518   19.2836 H   0  0  0  0  0  0
  -25.8288  -23.0518   21.2380 H   0  0  0  0  0  0
  -25.3468  -24.3535   20.1572 H   0  0  0  0  0  0
  -29.4045  -23.3254   20.1387 H   0  0  0  0  0  0
  -28.3477  -22.3767   21.1907 H   0  0  0  0  0  0
  -28.1907  -22.7659   18.1988 H   0  0  0  0  0  0
  -31.9620  -20.6071   23.3172 H   0  0  0  0  0  0
  -32.3052  -18.9726   22.7843 H   0  0  0  0  0  0
  -30.8053  -19.3295   23.6676 H   0  0  0  0  0  0
  -27.8466  -20.4309   18.0267 H   0  0  0  0  0  0
  -27.4042  -20.2711   19.7223 H   0  0  0  0  0  0
  -26.7750  -25.5013   21.9770 H   0  0  0  0  0  0
  -28.0472  -24.4387   22.5344 H   0  0  0  0  0  0
  -29.7210  -25.6816   21.1984 H   0  0  0  0  0  0
  -28.8102  -26.8644   22.0996 H   0  0  0  0  0  0
  -29.2499  -15.0324   21.7062 H   0  0  0  0  0  0
  -27.6122  -24.7635   19.7037 H   0  0  0  0  0  0
  1 25  1  0  0  0
  1 30  2  0  0  0
  1 85  1  0  0  0
  2  3  1  0  0  0
  2 25  1  0  0  0
  2 89  1  0  0  0
  2 90  1  0  0  0
  3  4  1  0  0  0
  3 91  1  0  0  0
  3 92  1  0  0  0
  4  5  1  0  0  0
  4 93  1  0  0  0
  4 94  1  0  0  0
  5  6  1  0  0  0
  5 26  1  0  0  0
  5 95  1  0  0  0
  6 25  1  0  0  0
  6 96  1  0  0  0
  6 97  1  0  0  0
  7  8  2  0  0  0
  7 26  1  0  0  0
  7 29  1  0  0  0
  8  9  1  0  0  0
  8 22  1  0  0  0
  9 10  1  0  0  0
  9 27  2  0  0  0
 10 11  2  0  0  0
 10 15  1  0  0  0
 11 12  1  0  0  0
 11 98  1  0  0  0
 12 13  2  0  0  0
 12 99  1  0  0  0
 13 14  1  0  0  0
 13 31  1  0  0  0
 14 15  2  0  0  0
 14100  1  0  0  0
 15101  1  0  0  0
 16 17  2  0  0  0
 16 21  1  0  0  0
 16 31  1  0  0  0
 17 18  1  0  0  0
 17102  1  0  0  0
 18 19  2  0  0  0
 18103  1  0  0  0
 19 20  1  0  0  0
 19 24  1  0  0  0
 20 21  2  0  0  0
 20104  1  0  0  0
 21 23  1  0  0  0
 22 28  1  0  0  0
 22 32  2  0  0  0
 26 27  1  0  0  0
 28105  1  0  0  0
 28106  1  0  0  0
 29107  1  0  0  0
 29108  1  0  0  0
 33 34  1  0  0  0
 33 66  1  0  0  0
 33 70  2  0  0  0
 34 36  1  0  0  0
 34 59  1  0  0  0
 34109  1  0  0  0
 35 44  2  0  0  0
 35 45  1  0  0  0
 35 68  1  0  0  0
 36 56  1  0  0  0
 36110  1  0  0  0
 37 39  1  0  0  0
 37 47  1  0  0  0
 37 66  1  0  0  0
 37111  1  0  0  0
 38 43  2  0  0  0
 38 46  1  0  0  0
 38 47  1  0  0  0
 39 64  1  0  0  0
 39 67  2  0  0  0
 40 52  1  0  0  0
 40 53  2  0  0  0
 40 58  1  0  0  0
 41112  1  0  0  0
 41113  1  0  0  0
 41114  1  0  0  0
 41 48  1  0  0  0
 42 43  1  0  0  0
 42 66  1  0  0  0
 42115  1  0  0  0
 42116  1  0  0  0
 43 44  1  0  0  0
 44117  1  0  0  0
 45 46  2  0  0  0
 45118  1  0  0  0
 46119  1  0  0  0
 47120  1  0  0  0
 47121  1  0  0  0
 48 56  1  0  0  0
 48 65  1  0  0  0
 48122  1  0  0  0
 49 50  1  0  0  0
 49 53  1  0  0  0
 49 64  1  0  0  0
 49123  1  0  0  0
 50 51  1  0  0  0
 50124  1  0  0  0
 50125  1  0  0  0
 51 52  1  0  0  0
 51126  1  0  0  0
 51127  1  0  0  0
 52128  1  0  0  0
 52129  1  0  0  0
 53 54  1  0  0  0
 54 55  2  0  0  0
 54130  1  0  0  0
 55 57  1  0  0  0
 55131  1  0  0  0
 56 69  2  0  0  0
 57 58  2  0  0  0
 57132  1  0  0  0
 58133  1  0  0  0
 59 60  1  0  0  0
 59 61  1  0  0  0
 59 62  1  0  0  0
 60134  1  0  0  0
 60135  1  0  0  0
 60136  1  0  0  0
 61137  1  0  0  0
 61138  1  0  0  0
 61139  1  0  0  0
 62140  1  0  0  0
 62141  1  0  0  0
 62142  1  0  0  0
 63 65  1  0  0  0
 63143  1  0  0  0
 63144  1  0  0  0
 63145  1  0  0  0
 64146  1  0  0  0
 65147  1  0  0  0
 68 83  1  0  0  0
 71 72  2  0  0  0
 71 73  1  0  0  0
 71148  1  0  0  0
 72 74  1  0  0  0
 72149  1  0  0  0
 73 75  2  0  0  0
 73 87  1  0  0  0
 74 84  2  0  0  0
 74 85  1  0  0  0
 75 84  1  0  0  0
 75 88  1  0  0  0
 76 77  1  0  0  0
 76 79  1  0  0  0
 76150  1  0  0  0
 76151  1  0  0  0
 77 86  1  0  0  0
 77152  1  0  0  0
 77153  1  0  0  0
 78 79  1  0  0  0
 78 86  1  0  0  0
 78154  1  0  0  0
 78155  1  0  0  0
 79 81  1  0  0  0
 79156  1  0  0  0
 80 88  1  0  0  0
 80157  1  0  0  0
 80158  1  0  0  0
 80159  1  0  0  0
 81 87  1  0  0  0
 81160  1  0  0  0
 81161  1  0  0  0
 82 83  1  0  0  0
 82162  1  0  0  0
 82163  1  0  0  0
 82 86  1  0  0  0
 83164  1  0  0  0
 83165  1  0  0  0
 85166  1  0  0  0
 86167  1  0  0  0
M  CHG  1  86   1
M  ISO  4   1 100  68 101  83 101  85 100
M  END
> <chiral flag>
0

> <version>
0

> <s_m_source_file>
/data/baiqing/PycharmProjects/Reinvent-master-3.2/result/LINK_invent/BTK/process_docking_weight1_custom_sum_contain_oxygen_bond_distance_aromatic_linkinvent_7_9_3/rearranged_h_0124.sdf

> <i_m_source_file_index>
21

> <r_mmod_Potential_Energy-OPLS-2005>
-154.08821105957

> <r_mmod_Stretch_Energy-OPLS-2005>
32.0620079040527

> <r_mmod_Bend_Energy-OPLS-2005>
128.188446044922

> <r_mmod_Torsional_Energy-OPLS-2005>
347.724945068359

> <r_mmod_Improper_Torsional_Energy-OPLS-2005>
5.58261919021606

> <r_mmod_Van_der_Waal_Energy-OPLS-2005>
159.926940917969

> <r_mmod_Electrostatic_Energy-OPLS-2005>
-416.618896484375

> <r_mmod_Solvation_Energy-OPLS-2005>
-419.431854248047

> <b_mmod_Minimization_Converged-OPLS-2005>
0

> <r_mmod_RMS_Derivative-OPLS-2005>
3.92382454872131

$$$$
21
                    3D
 Structure written by MMmdl.
165174  0  0  1  0            999 V2000
  -30.6325  -14.6269   20.5028 C   0  0  0  0  0  0
  -30.4380  -12.3829   19.4529 C   0  0  0  0  0  0
  -29.5091  -12.5037   18.2240 C   0  0  0  0  0  0
  -28.0312  -12.3439   18.6345 C   0  0  0  0  0  0
  -27.6543  -13.2146   19.8625 C   0  0  2  0  0  0
  -28.6983  -13.0669   20.9932 C   0  0  0  0  0  0
  -25.2569  -13.8170   20.5674 C   0  0  0  0  0  0
  -24.1838  -13.0440   20.9197 C   0  0  0  0  0  0
  -24.6398  -11.6909   20.8742 C   0  0  0  0  0  0
  -23.9066  -10.4295   21.0409 C   0  0  0  0  0  0
  -24.3616   -9.4210   21.9186 C   0  0  0  0  0  0
  -23.6293   -8.2243   22.0756 C   0  0  0  0  0  0
  -22.4276   -8.0281   21.3543 C   0  0  0  0  0  0
  -21.9910   -9.0256   20.4644 C   0  0  0  0  0  0
  -22.7240  -10.2136   20.3057 C   0  0  0  0  0  0
  -21.6852   -6.0736   22.5282 C   0  0  0  0  0  0
  -21.4011   -6.5641   23.8215 C   0  0  0  0  0  0
  -21.3660   -5.6793   24.9175 C   0  0  0  0  0  0
  -21.6045   -4.3055   24.7228 C   0  0  0  0  0  0
  -21.8819   -3.8147   23.4348 C   0  0  0  0  0  0
  -21.9193   -4.6963   22.3402 C   0  0  0  0  0  0
  -22.7861  -13.5236   21.1854 C   0  0  0  0  0  0
  -22.1663   -4.2150   21.0980 F   0  0  0  0  0  0
  -21.5629   -3.4537   25.7740 F   0  0  0  0  0  0
  -30.0175  -13.4035   20.4332 N   0  0  0  0  0  0
  -26.2990  -12.9342   20.3302 N   0  0  0  0  0  0
  -25.9325  -11.6502   20.5751 N   0  0  0  0  0  0
  -22.0491  -12.8231   22.0401 N   0  0  0  0  0  0
  -25.4276  -15.1890   20.4064 N   0  0  0  0  0  0
  -31.7983  -14.7714   20.1186 O   0  0  0  0  0  0
  -21.6639   -6.8879   21.4243 O   0  0  0  0  0  0
  -22.3556  -14.5545   20.6703 O   0  0  0  0  0  0
  -24.6250  -31.8620   23.2042 C   0  0  0  0  0  0
  -25.9107  -32.4787   23.8359 C   0  0  1  0  0  0
  -27.2179  -27.3292   20.1137 C   0  0  0  0  0  0
  -25.5928  -33.8586   24.2289 N   0  0  0  0  0  0
  -23.4170  -30.4890   21.5467 C   0  0  2  0  0  0
  -24.8613  -28.9474   20.1131 C   0  0  0  0  0  0
  -22.7466  -29.4653   22.4935 C   0  0  0  0  0  0
  -18.0289  -28.1395   22.8499 C   0  0  0  0  0  0
  -24.1488  -36.7299   23.2636 C   0  0  0  0  0  0
  -25.9578  -30.7977   21.3722 C   0  0  0  0  0  0
  -26.0310  -29.4250   20.7169 C   0  0  0  0  0  0
  -27.2133  -28.6282   20.7082 C   0  0  0  0  0  0
  -26.0249  -26.9099   19.4781 C   0  0  0  0  0  0
  -24.8597  -27.6947   19.4858 C   0  0  0  0  0  0
  -23.6308  -29.8271   20.1611 C   0  0  0  0  0  0
  -25.4110  -36.3087   24.0332 C   0  0  1  0  0  0
  -20.5893  -28.3702   23.1290 C   0  0  2  0  0  0
  -20.6789  -26.9430   22.5414 C   0  0  0  0  0  0
  -19.5759  -26.6400   21.5224 C   0  0  0  0  0  0
  -18.1937  -26.7944   22.1632 C   0  0  0  0  0  0
  -19.1544  -28.8862   23.2895 C   0  0  0  0  0  0
  -18.9462  -30.1463   23.8914 C   0  0  0  0  0  0
  -17.6465  -30.6598   24.0574 C   0  0  0  0  0  0
  -25.9051  -34.9458   23.5111 C   0  0  0  0  0  0
  -16.5356  -29.9107   23.6329 C   0  0  0  0  0  0
  -16.7276  -28.6519   23.0356 C   0  0  0  0  0  0
  -26.4498  -31.6581   25.0714 C   0  0  0  0  0  0
  -25.3738  -31.3717   26.1442 C   0  0  0  0  0  0
  -27.0322  -30.3001   24.6145 C   0  0  0  0  0  0
  -27.6049  -32.4313   25.7491 C   0  0  0  0  0  0
  -27.5581  -37.1804   24.8463 C   0  0  0  0  0  0
  -21.4182  -29.3059   22.3673 N   0  0  0  0  0  0
  -26.4286  -37.3782   23.9415 N   0  0  0  0  0  0
  -24.6859  -31.0656   22.0982 N   0  0  0  0  0  0
  -23.4201  -28.8183   23.2999 O   0  0  0  0  0  0
  -28.3408  -26.4902   20.1440 O   0  0  0  0  0  0
  -26.5613  -34.8923   22.4674 O   0  0  0  0  0  0
  -23.5421  -32.1405   23.7385 O   0  0  0  0  0  0
  -28.7280  -17.8619   20.9106 C   0  0  0  0  0  0
  -28.6619  -19.2696   20.6925 C   0  0  0  0  0  0
  -29.8168  -19.9761   20.2478 C   0  0  0  0  0  0
  -30.9648  -19.1458   20.0456 C   0  0  0  0  0  0
  -29.9057  -17.1113   20.6683 C   0  0  0  0  0  0
  -31.9611  -24.3606   20.4474 C   0  0  0  0  0  0
  -31.3433  -25.7371   20.4493 C   0  0  0  0  0  0
  -30.5447  -24.5524   20.9476 C   0  0  0  0  0  0
  -27.3321  -19.9674   20.9177 C   0  0  0  0  0  0
  -32.2731  -19.7088   19.5164 C   0  0  0  0  0  0
  -29.8654  -21.5143   19.8495 C   0  0  0  0  0  0
  -28.1113  -25.0333   20.2952 C   0  0  0  0  0  0
  -29.3417  -24.0353   20.1678 C   0  0  2  0  0  0
  -30.9999  -17.7944   20.2509 N   0  0  0  0  0  0
  -29.8256  -15.6707   20.8704 N   0  0  0  0  0  0
  -29.0403  -22.5839   20.5375 N   0  3  0  0  0  0
  -31.4801  -12.5032   19.1517 H   0  0  0  0  0  0
  -30.3685  -11.3867   19.8921 H   0  0  0  0  0  0
  -29.7721  -11.7519   17.4783 H   0  0  0  0  0  0
  -29.6548  -13.4733   17.7448 H   0  0  0  0  0  0
  -27.8668  -11.2907   18.8655 H   0  0  0  0  0  0
  -27.3779  -12.5744   17.7924 H   0  0  0  0  0  0
  -27.6729  -14.2497   19.5216 H   0  0  0  0  0  0
  -28.7057  -12.0453   21.3753 H   0  0  0  0  0  0
  -28.4435  -13.6986   21.8455 H   0  0  0  0  0  0
  -25.2761   -9.5689   22.4760 H   0  0  0  0  0  0
  -24.0004   -7.4633   22.7475 H   0  0  0  0  0  0
  -21.0840   -8.8773   19.8949 H   0  0  0  0  0  0
  -22.3700  -10.9673   19.6165 H   0  0  0  0  0  0
  -21.2000   -7.6150   23.9717 H   0  0  0  0  0  0
  -21.1482   -6.0523   25.9079 H   0  0  0  0  0  0
  -22.0597   -2.7610   23.2845 H   0  0  0  0  0  0
  -22.4090  -11.9887   22.4793 H   0  0  0  0  0  0
  -21.1106  -13.1263   22.2586 H   0  0  0  0  0  0
  -24.6507  -15.8349   20.4960 H   0  0  0  0  0  0
  -26.2568  -15.6216   20.0212 H   0  0  0  0  0  0
  -26.7174  -32.5462   23.1109 H   0  0  0  0  0  0
  -25.0080  -33.9729   25.0437 H   0  0  0  0  0  0
  -22.7114  -31.3103   21.4059 H   0  0  0  0  0  0
  -23.3750  -35.9631   23.3292 H   0  0  0  0  0  0
  -24.3591  -36.8925   22.2054 H   0  0  0  0  0  0
  -23.7237  -37.6502   23.6654 H   0  0  0  0  0  0
  -26.0849  -31.5601   20.6021 H   0  0  0  0  0  0
  -26.8409  -30.8483   21.9970 H   0  0  0  0  0  0
  -28.1114  -28.9915   21.1881 H   0  0  0  0  0  0
  -25.9538  -25.9729   18.9505 H   0  0  0  0  0  0
  -23.9660  -27.3279   18.9993 H   0  0  0  0  0  0
  -23.7518  -30.6045   19.4058 H   0  0  0  0  0  0
  -22.7506  -29.2575   19.8568 H   0  0  0  0  0  0
  -25.1290  -36.1937   25.0824 H   0  0  0  0  0  0
  -20.9995  -28.3282   24.1408 H   0  0  0  0  0  0
  -20.5721  -26.2310   23.3614 H   0  0  0  0  0  0
  -21.6651  -26.7485   22.1182 H   0  0  0  0  0  0
  -19.6923  -25.6312   21.1248 H   0  0  0  0  0  0
  -19.6689  -27.3222   20.6764 H   0  0  0  0  0  0
  -17.4210  -26.6705   21.4029 H   0  0  0  0  0  0
  -18.0324  -26.0087   22.9028 H   0  0  0  0  0  0
  -19.7938  -30.7281   24.2288 H   0  0  0  0  0  0
  -17.5020  -31.6280   24.5181 H   0  0  0  0  0  0
  -15.5357  -30.3019   23.7640 H   0  0  0  0  0  0
  -15.8679  -28.0846   22.7059 H   0  0  0  0  0  0
  -24.5927  -30.7045   25.7782 H   0  0  0  0  0  0
  -24.8911  -32.2879   26.4849 H   0  0  0  0  0  0
  -25.8080  -30.8919   27.0222 H   0  0  0  0  0  0
  -26.2877  -29.6765   24.1179 H   0  0  0  0  0  0
  -27.4035  -29.7242   25.4634 H   0  0  0  0  0  0
  -27.8748  -30.4285   23.9345 H   0  0  0  0  0  0
  -27.2648  -33.3615   26.2054 H   0  0  0  0  0  0
  -28.3871  -32.6870   25.0331 H   0  0  0  0  0  0
  -28.0696  -31.8441   26.5423 H   0  0  0  0  0  0
  -28.2584  -38.0115   24.7527 H   0  0  0  0  0  0
  -28.1092  -36.2649   24.6261 H   0  0  0  0  0  0
  -27.2307  -37.1420   25.8867 H   0  0  0  0  0  0
  -20.9349  -29.8773   21.6885 H   0  0  0  0  0  0
  -26.0170  -38.2855   24.1425 H   0  0  0  0  0  0
  -27.8388  -17.3470   21.2483 H   0  0  0  0  0  0
  -32.7306  -24.1514   21.1886 H   0  0  0  0  0  0
  -32.1121  -23.8917   19.4769 H   0  0  0  0  0  0
  -31.0699  -26.1658   19.4866 H   0  0  0  0  0  0
  -31.6985  -26.4506   21.1905 H   0  0  0  0  0  0
  -30.4096  -24.5177   22.0278 H   0  0  0  0  0  0
  -26.5306  -19.2477   21.0862 H   0  0  0  0  0  0
  -27.0497  -20.5606   20.0484 H   0  0  0  0  0  0
  -27.3788  -20.6110   21.7960 H   0  0  0  0  0  0
  -32.7190  -20.3938   20.2378 H   0  0  0  0  0  0
  -32.1135  -20.2416   18.5785 H   0  0  0  0  0  0
  -33.0009  -18.9203   19.3199 H   0  0  0  0  0  0
  -29.6613  -21.5742   18.7795 H   0  0  0  0  0  0
  -30.8960  -21.8425   19.9638 H   0  0  0  0  0  0
  -27.6517  -24.8941   21.2748 H   0  0  0  0  0  0
  -27.3855  -24.6718   19.5725 H   0  0  0  0  0  0
  -29.6128  -24.0436   19.1106 H   0  0  0  0  0  0
  -28.9300  -15.3569   21.2045 H   0  0  0  0  0  0
  -29.1377  -22.4834   21.5359 H   0  0  0  0  0  0
  -28.0764  -22.4041   20.3063 H   0  0  0  0  0  0
  1 25  1  0  0  0
  1 30  2  0  0  0
  1 85  1  0  0  0
  2  3  1  0  0  0
  2 25  1  0  0  0
  2 87  1  0  0  0
  2 88  1  0  0  0
  3  4  1  0  0  0
  3 89  1  0  0  0
  3 90  1  0  0  0
  4  5  1  0  0  0
  4 91  1  0  0  0
  4 92  1  0  0  0
  5  6  1  0  0  0
  5 26  1  0  0  0
  5 93  1  0  0  0
  6 25  1  0  0  0
  6 94  1  0  0  0
  6 95  1  0  0  0
  7  8  2  0  0  0
  7 26  1  0  0  0
  7 29  1  0  0  0
  8  9  1  0  0  0
  8 22  1  0  0  0
  9 10  1  0  0  0
  9 27  2  0  0  0
 10 11  2  0  0  0
 10 15  1  0  0  0
 11 12  1  0  0  0
 11 96  1  0  0  0
 12 13  2  0  0  0
 12 97  1  0  0  0
 13 14  1  0  0  0
 13 31  1  0  0  0
 14 15  2  0  0  0
 14 98  1  0  0  0
 15 99  1  0  0  0
 16 17  2  0  0  0
 16 21  1  0  0  0
 16 31  1  0  0  0
 17 18  1  0  0  0
 17100  1  0  0  0
 18 19  2  0  0  0
 18101  1  0  0  0
 19 20  1  0  0  0
 19 24  1  0  0  0
 20 21  2  0  0  0
 20102  1  0  0  0
 21 23  1  0  0  0
 22 28  1  0  0  0
 22 32  2  0  0  0
 26 27  1  0  0  0
 28103  1  0  0  0
 28104  1  0  0  0
 29105  1  0  0  0
 29106  1  0  0  0
 33 34  1  0  0  0
 33 66  1  0  0  0
 33 70  2  0  0  0
 34 36  1  0  0  0
 34 59  1  0  0  0
 34107  1  0  0  0
 35 44  2  0  0  0
 35 45  1  0  0  0
 35 68  1  0  0  0
 36 56  1  0  0  0
 36108  1  0  0  0
 37 39  1  0  0  0
 37 47  1  0  0  0
 37 66  1  0  0  0
 37109  1  0  0  0
 38 43  2  0  0  0
 38 46  1  0  0  0
 38 47  1  0  0  0
 39 64  1  0  0  0
 39 67  2  0  0  0
 40 52  1  0  0  0
 40 53  2  0  0  0
 40 58  1  0  0  0
 41110  1  0  0  0
 41111  1  0  0  0
 41112  1  0  0  0
 41 48  1  0  0  0
 42 43  1  0  0  0
 42 66  1  0  0  0
 42113  1  0  0  0
 42114  1  0  0  0
 43 44  1  0  0  0
 44115  1  0  0  0
 45 46  2  0  0  0
 45116  1  0  0  0
 46117  1  0  0  0
 47118  1  0  0  0
 47119  1  0  0  0
 48 56  1  0  0  0
 48 65  1  0  0  0
 48120  1  0  0  0
 49 50  1  0  0  0
 49 53  1  0  0  0
 49 64  1  0  0  0
 49121  1  0  0  0
 50 51  1  0  0  0
 50122  1  0  0  0
 50123  1  0  0  0
 51 52  1  0  0  0
 51124  1  0  0  0
 51125  1  0  0  0
 52126  1  0  0  0
 52127  1  0  0  0
 53 54  1  0  0  0
 54 55  2  0  0  0
 54128  1  0  0  0
 55 57  1  0  0  0
 55129  1  0  0  0
 56 69  2  0  0  0
 57 58  2  0  0  0
 57130  1  0  0  0
 58131  1  0  0  0
 59 60  1  0  0  0
 59 61  1  0  0  0
 59 62  1  0  0  0
 60132  1  0  0  0
 60133  1  0  0  0
 60134  1  0  0  0
 61135  1  0  0  0
 61136  1  0  0  0
 61137  1  0  0  0
 62138  1  0  0  0
 62139  1  0  0  0
 62140  1  0  0  0
 63 65  1  0  0  0
 63141  1  0  0  0
 63142  1  0  0  0
 63143  1  0  0  0
 64144  1  0  0  0
 65145  1  0  0  0
 68 82  1  0  0  0
 71 72  2  0  0  0
 71 75  1  0  0  0
 71146  1  0  0  0
 72 73  1  0  0  0
 72 79  1  0  0  0
 73 74  2  0  0  0
 73 81  1  0  0  0
 74 80  1  0  0  0
 74 84  1  0  0  0
 75 84  2  0  0  0
 75 85  1  0  0  0
 76 77  1  0  0  0
 76147  1  0  0  0
 76148  1  0  0  0
 76 78  1  0  0  0
 77 78  1  0  0  0
 77149  1  0  0  0
 77150  1  0  0  0
 78 83  1  0  0  0
 78151  1  0  0  0
 79152  1  0  0  0
 79153  1  0  0  0
 79154  1  0  0  0
 80155  1  0  0  0
 80156  1  0  0  0
 80157  1  0  0  0
 81 86  1  0  0  0
 81158  1  0  0  0
 81159  1  0  0  0
 82160  1  0  0  0
 82161  1  0  0  0
 82 83  1  0  0  0
 83 86  1  0  0  0
 83162  1  0  0  0
 85163  1  0  0  0
 86164  1  0  0  0
 86165  1  0  0  0
M  CHG  1  86   1
M  ISO  4   1 100  68 101  82 101  85 100
M  END
> <chiral flag>
0

> <version>
0

> <s_m_source_file>
/data/baiqing/PycharmProjects/Reinvent-master-3.2/result/LINK_invent/BTK/process_docking_weight1_custom_sum_contain_oxygen_bond_distance_aromatic_linkinvent_7_9_3/rearranged_h_0124.sdf

> <i_m_source_file_index>
22

> <r_mmod_Potential_Energy-OPLS-2005>
-141.841674804688

> <r_mmod_Stretch_Energy-OPLS-2005>
78.8571243286133

> <r_mmod_Bend_Energy-OPLS-2005>
145.975875854492

> <r_mmod_Torsional_Energy-OPLS-2005>
257.629089355469

> <r_mmod_Improper_Torsional_Energy-OPLS-2005>
4.65186214447021

> <r_mmod_Van_der_Waal_Energy-OPLS-2005>
144.908096313477

> <r_mmod_Electrostatic_Energy-OPLS-2005>
-337.233306884766

> <r_mmod_Solvation_Energy-OPLS-2005>
-480.007263183594

> <b_mmod_Minimization_Converged-OPLS-2005>
0

> <r_mmod_RMS_Derivative-OPLS-2005>
0.877284526824951

$$$$
22
                    3D
 Structure written by MMmdl.
163172  0  0  1  0            999 V2000
  -30.8652  -14.0647   20.4666 C   0  0  0  0  0  0
  -31.2822  -11.8101   19.1502 C   0  0  0  0  0  0
  -29.9586  -12.1084   17.7513 C   0  0  0  0  0  0
  -28.2480  -12.7533   18.1839 C   0  0  0  0  0  0
  -27.7829  -13.5297   19.8437 C   0  0  2  0  0  0
  -28.8828  -13.2855   21.4275 C   0  0  0  0  0  0
  -25.6377  -14.3200   20.7180 C   0  0  0  0  0  0
  -24.0846  -13.6369   21.0012 C   0  0  0  0  0  0
  -24.1462  -12.2913   21.0047 C   0  0  0  0  0  0
  -23.7501  -10.7613   21.0491 C   0  0  0  0  0  0
  -24.2930   -9.7180   21.8906 C   0  0  0  0  0  0
  -23.6707   -8.4333   22.0392 C   0  0  0  0  0  0
  -22.4799   -8.1255   21.3350 C   0  0  0  0  0  0
  -22.0038   -9.0957   20.4313 C   0  0  0  0  0  0
  -22.6234  -10.3602   20.2965 C   0  0  0  0  0  0
  -21.7464   -6.1167   22.5167 C   0  0  0  0  0  0
  -21.4502   -6.5978   23.8129 C   0  0  0  0  0  0
  -21.3868   -5.7039   24.9048 C   0  0  0  0  0  0
  -21.6019   -4.3275   24.7086 C   0  0  0  0  0  0
  -21.8704   -3.8409   23.4180 C   0  0  0  0  0  0
  -21.9353   -4.7277   22.3283 C   0  0  0  0  0  0
  -22.5894  -13.9642   21.2863 C   0  0  0  0  0  0
  -22.1714   -4.2392   21.0871 F   0  0  0  0  0  0
  -21.5530   -3.4720   25.7571 F   0  0  0  0  0  0
  -30.6145  -12.8673   20.6971 N   0  0  0  0  0  0
  -26.4007  -13.8370   20.1569 N   0  0  0  0  0  0
  -24.9914  -13.4144   20.7244 N   0  0  0  0  0  0
  -21.9435  -13.2003   22.1814 N   0  0  0  0  0  0
  -26.5967  -15.4425   20.7925 N   0  0  0  0  0  0
  -31.7924  -14.6873   19.9546 O   0  0  0  0  0  0
  -21.7673   -6.9367   21.4078 O   0  0  0  0  0  0
  -21.9719  -14.7415   20.5826 O   0  0  0  0  0  0
  -24.6954  -31.7828   23.1484 C   0  0  0  0  0  0
  -25.9508  -32.4332   23.7973 C   0  0  1  0  0  0
  -26.6237  -26.3190   20.2974 C   0  0  0  0  0  0
  -25.6036  -33.8185   24.1815 N   0  0  0  0  0  0
  -23.4987  -30.4190   21.5148 C   0  0  2  0  0  0
  -24.8590  -28.7490   20.0657 C   0  0  0  0  0  0
  -22.7700  -29.4277   22.4646 C   0  0  0  0  0  0
  -18.0320  -28.1365   22.8502 C   0  0  0  0  0  0
  -24.1540  -36.7163   23.2642 C   0  0  0  0  0  0
  -26.0773  -30.3752   21.4628 C   0  0  0  0  0  0
  -26.0330  -28.9213   20.8037 C   0  0  0  0  0  0
  -26.9322  -27.7121   20.9000 C   0  0  0  0  0  0
  -25.6035  -26.4922   19.3665 C   0  0  0  0  0  0
  -24.7246  -27.5929   19.2955 C   0  0  0  0  0  0
  -23.7304  -29.7814   20.1204 C   0  0  0  0  0  0
  -25.4187  -36.2811   24.0219 C   0  0  1  0  0  0
  -20.5962  -28.3737   23.1148 C   0  0  2  0  0  0
  -20.6771  -26.9403   22.5386 C   0  0  0  0  0  0
  -19.5731  -26.6337   21.5219 C   0  0  0  0  0  0
  -18.1937  -26.7905   22.1668 C   0  0  0  0  0  0
  -19.1580  -28.8883   23.2827 C   0  0  0  0  0  0
  -18.9490  -30.1489   23.8846 C   0  0  0  0  0  0
  -17.6478  -30.6578   24.0547 C   0  0  0  0  0  0
  -25.9166  -34.9205   23.4869 C   0  0  0  0  0  0
  -16.5374  -29.9047   23.6354 C   0  0  0  0  0  0
  -16.7310  -28.6452   23.0411 C   0  0  0  0  0  0
  -26.4607  -31.6476   25.0700 C   0  0  0  0  0  0
  -25.3641  -31.3955   26.1330 C   0  0  0  0  0  0
  -27.0466  -30.2733   24.6785 C   0  0  0  0  0  0
  -27.6033  -32.4383   25.7505 C   0  0  0  0  0  0
  -27.5513  -37.1816   24.8484 C   0  0  0  0  0  0
  -21.4348  -29.3006   22.3471 N   0  0  0  0  0  0
  -26.4304  -37.3567   23.9306 N   0  0  0  0  0  0
  -24.7909  -30.9021   22.0907 N   0  0  0  0  0  0
  -23.4179  -28.7845   23.2932 O   0  0  0  0  0  0
  -26.9975  -24.7790   20.5038 O   0  0  0  0  0  0
  -26.5840  -34.8795   22.4510 O   0  0  0  0  0  0
  -23.5969  -32.1119   23.6334 O   0  0  0  0  0  0
  -25.1943  -19.6552   20.1516 C   0  0  0  0  0  0
  -26.2218  -20.6259   21.9235 C   0  0  0  0  0  0
  -25.8630  -21.1669   20.6825 C   0  0  0  0  0  0
  -25.0642  -18.2068   20.8191 C   0  0  0  0  0  0
  -24.4777  -14.7367   18.7879 C   0  0  0  0  0  0
  -25.1430  -14.9444   22.7984 C   0  0  0  0  0  0
  -25.3595  -12.3459   18.7794 C   0  0  0  0  0  0
  -26.2254  -12.7437   22.5000 C   0  0  0  0  0  0
  -24.3965  -16.2678   20.8023 C   0  0  1  0  0  0
  -26.0981  -23.1272   20.1847 C   0  0  0  0  0  0
  -29.1070  -11.4002   20.0096 C   0  0  0  0  0  0
  -27.6551  -10.7973   20.5265 C   0  0  0  0  0  0
  -30.0592  -13.4331   19.6724 N   0  0  0  0  0  0
  -26.4054  -11.6131   20.6340 N   0  3  1  0  0  0
  -25.9143  -18.8200   22.2864 S   0  0  0  0  0  0
  -32.2528  -12.1851   18.8170 H   0  0  0  0  0  0
  -31.4549  -10.7535   19.3716 H   0  0  0  0  0  0
  -29.8809  -11.2292   17.1105 H   0  0  0  0  0  0
  -30.3926  -12.8529   17.0811 H   0  0  0  0  0  0
  -27.7161  -11.8229   18.0288 H   0  0  0  0  0  0
  -27.8946  -13.4010   17.3825 H   0  0  0  0  0  0
  -28.1011  -14.5021   19.4398 H   0  0  0  0  0  0
  -28.7162  -12.4686   22.1186 H   0  0  0  0  0  0
  -28.8971  -14.1892   22.0434 H   0  0  0  0  0  0
  -25.1555   -9.9310   22.5040 H   0  0  0  0  0  0
  -24.1010   -7.7089   22.7167 H   0  0  0  0  0  0
  -21.1174   -8.8858   19.8495 H   0  0  0  0  0  0
  -22.1683  -11.0859   19.6384 H   0  0  0  0  0  0
  -21.2733   -7.6534   23.9700 H   0  0  0  0  0  0
  -21.1780   -6.0807   25.8958 H   0  0  0  0  0  0
  -22.0210   -2.7850   23.2612 H   0  0  0  0  0  0
  -22.4299  -12.5356   22.7617 H   0  0  0  0  0  0
  -20.9570  -13.3474   22.3414 H   0  0  0  0  0  0
  -26.0942  -16.1635   21.2951 H   0  0  0  0  0  0
  -26.7349  -15.7987   19.8545 H   0  0  0  0  0  0
  -26.7560  -32.4619   23.0612 H   0  0  0  0  0  0
  -24.9973  -33.9228   24.9817 H   0  0  0  0  0  0
  -22.8339  -31.2730   21.3617 H   0  0  0  0  0  0
  -23.3727  -35.9571   23.3277 H   0  0  0  0  0  0
  -24.3587  -36.8878   22.2064 H   0  0  0  0  0  0
  -23.7440  -37.6375   23.6784 H   0  0  0  0  0  0
  -26.3372  -31.0807   20.6707 H   0  0  0  0  0  0
  -26.9265  -30.4084   22.1344 H   0  0  0  0  0  0
  -27.7688  -27.7806   21.5815 H   0  0  0  0  0  0
  -25.3122  -25.6280   18.7827 H   0  0  0  0  0  0
  -23.8612  -27.5004   18.6496 H   0  0  0  0  0  0
  -23.9648  -30.5681   19.4003 H   0  0  0  0  0  0
  -22.8051  -29.3231   19.7663 H   0  0  0  0  0  0
  -25.1445  -36.1540   25.0712 H   0  0  0  0  0  0
  -21.0061  -28.3317   24.1274 H   0  0  0  0  0  0
  -20.5621  -26.2370   23.3635 H   0  0  0  0  0  0
  -21.6631  -26.7345   22.1208 H   0  0  0  0  0  0
  -19.6884  -25.6218   21.1315 H   0  0  0  0  0  0
  -19.6630  -27.3088   20.6689 H   0  0  0  0  0  0
  -17.4192  -26.6660   21.4093 H   0  0  0  0  0  0
  -18.0352  -26.0035   22.9052 H   0  0  0  0  0  0
  -19.7964  -30.7326   24.2174 H   0  0  0  0  0  0
  -17.5017  -31.6259   24.5135 H   0  0  0  0  0  0
  -15.5368  -30.2930   23.7651 H   0  0  0  0  0  0
  -15.8721  -28.0715   22.7187 H   0  0  0  0  0  0
  -24.5629  -30.7568   25.7615 H   0  0  0  0  0  0
  -24.9116  -32.3279   26.4697 H   0  0  0  0  0  0
  -25.7720  -30.9037   27.0171 H   0  0  0  0  0  0
  -26.3093  -29.6301   24.1975 H   0  0  0  0  0  0
  -27.3906  -29.7280   25.5581 H   0  0  0  0  0  0
  -27.9133  -30.3697   24.0254 H   0  0  0  0  0  0
  -27.2599  -33.3905   26.1547 H   0  0  0  0  0  0
  -28.4093  -32.6560   25.0498 H   0  0  0  0  0  0
  -28.0358  -31.8856   26.5852 H   0  0  0  0  0  0
  -28.2616  -38.0001   24.7220 H   0  0  0  0  0  0
  -28.0912  -36.2499   24.6729 H   0  0  0  0  0  0
  -27.2142  -37.1931   25.8863 H   0  0  0  0  0  0
  -20.9567  -29.8825   21.6714 H   0  0  0  0  0  0
  -26.0082  -38.2637   24.1102 H   0  0  0  0  0  0
  -24.7455  -19.7298   19.1604 H   0  0  0  0  0  0
  -26.6614  -21.1977   22.7434 H   0  0  0  0  0  0
  -23.5381  -14.7831   18.2390 H   0  0  0  0  0  0
  -25.1582  -15.2612   18.1107 H   0  0  0  0  0  0
  -25.8693  -15.5608   23.3358 H   0  0  0  0  0  0
  -24.3269  -14.8495   23.5173 H   0  0  0  0  0  0
  -25.8169  -12.1607   17.8187 H   0  0  0  0  0  0
  -24.5057  -11.6920   18.6284 H   0  0  0  0  0  0
  -25.6176  -12.0789   23.1145 H   0  0  0  0  0  0
  -27.0927  -12.7185   23.1487 H   0  0  0  0  0  0
  -23.3562  -16.4966   20.9875 H   0  0  0  0  0  0
  -25.0634  -23.4858   20.1801 H   0  0  0  0  0  0
  -26.3097  -23.0499   19.1153 H   0  0  0  0  0  0
  -29.2146  -10.6267   19.2370 H   0  0  0  0  0  0
  -29.6872  -10.8118   20.7367 H   0  0  0  0  0  0
  -27.8053  -10.4061   21.5348 H   0  0  0  0  0  0
  -27.4047   -9.9041   19.9515 H   0  0  0  0  0  0
  -30.0109  -13.7893   18.7301 H   0  0  0  0  0  0
  -27.0260  -12.3712   20.3935 H   0  0  0  0  0  0
  1 25  1  0  0  0
  1 30  2  0  0  0
  1 83  1  0  0  0
  2  3  1  0  0  0
  2 25  1  0  0  0
  2 86  1  0  0  0
  2 87  1  0  0  0
  3  4  1  0  0  0
  3 88  1  0  0  0
  3 89  1  0  0  0
  4  5  1  0  0  0
  4 90  1  0  0  0
  4 91  1  0  0  0
  5  6  1  0  0  0
  5 26  1  0  0  0
  5 92  1  0  0  0
  6 25  1  0  0  0
  6 93  1  0  0  0
  6 94  1  0  0  0
  7  8  2  0  0  0
  7 26  1  0  0  0
  7 29  1  0  0  0
  8  9  1  0  0  0
  8 22  1  0  0  0
  9 10  1  0  0  0
  9 27  2  0  0  0
 10 11  2  0  0  0
 10 15  1  0  0  0
 11 12  1  0  0  0
 11 95  1  0  0  0
 12 13  2  0  0  0
 12 96  1  0  0  0
 13 14  1  0  0  0
 13 31  1  0  0  0
 14 15  2  0  0  0
 14 97  1  0  0  0
 15 98  1  0  0  0
 16 17  2  0  0  0
 16 21  1  0  0  0
 16 31  1  0  0  0
 17 18  1  0  0  0
 17 99  1  0  0  0
 18 19  2  0  0  0
 18100  1  0  0  0
 19 20  1  0  0  0
 19 24  1  0  0  0
 20 21  2  0  0  0
 20101  1  0  0  0
 21 23  1  0  0  0
 22 28  1  0  0  0
 22 32  2  0  0  0
 26 27  1  0  0  0
 28102  1  0  0  0
 28103  1  0  0  0
 29104  1  0  0  0
 29105  1  0  0  0
 33 34  1  0  0  0
 33 66  1  0  0  0
 33 70  2  0  0  0
 34 36  1  0  0  0
 34 59  1  0  0  0
 34106  1  0  0  0
 35 44  2  0  0  0
 35 45  1  0  0  0
 35 68  1  0  0  0
 36 56  1  0  0  0
 36107  1  0  0  0
 37 39  1  0  0  0
 37 47  1  0  0  0
 37 66  1  0  0  0
 37108  1  0  0  0
 38 43  2  0  0  0
 38 46  1  0  0  0
 38 47  1  0  0  0
 39 64  1  0  0  0
 39 67  2  0  0  0
 40 52  1  0  0  0
 40 53  2  0  0  0
 40 58  1  0  0  0
 41109  1  0  0  0
 41110  1  0  0  0
 41111  1  0  0  0
 41 48  1  0  0  0
 42 43  1  0  0  0
 42 66  1  0  0  0
 42112  1  0  0  0
 42113  1  0  0  0
 43 44  1  0  0  0
 44114  1  0  0  0
 45 46  2  0  0  0
 45115  1  0  0  0
 46116  1  0  0  0
 47117  1  0  0  0
 47118  1  0  0  0
 48 56  1  0  0  0
 48 65  1  0  0  0
 48119  1  0  0  0
 49 50  1  0  0  0
 49 53  1  0  0  0
 49 64  1  0  0  0
 49120  1  0  0  0
 50 51  1  0  0  0
 50121  1  0  0  0
 50122  1  0  0  0
 51 52  1  0  0  0
 51123  1  0  0  0
 51124  1  0  0  0
 52125  1  0  0  0
 52126  1  0  0  0
 53 54  1  0  0  0
 54 55  2  0  0  0
 54127  1  0  0  0
 55 57  1  0  0  0
 55128  1  0  0  0
 56 69  2  0  0  0
 57 58  2  0  0  0
 57129  1  0  0  0
 58130  1  0  0  0
 59 60  1  0  0  0
 59 61  1  0  0  0
 59 62  1  0  0  0
 60131  1  0  0  0
 60132  1  0  0  0
 60133  1  0  0  0
 61134  1  0  0  0
 61135  1  0  0  0
 61136  1  0  0  0
 62137  1  0  0  0
 62138  1  0  0  0
 62139  1  0  0  0
 63 65  1  0  0  0
 63140  1  0  0  0
 63141  1  0  0  0
 63142  1  0  0  0
 64143  1  0  0  0
 65144  1  0  0  0
 68 80  1  0  0  0
 71 73  1  0  0  0
 71 74  2  0  0  0
 71145  1  0  0  0
 72 73  2  0  0  0
 72 85  1  0  0  0
 72146  1  0  0  0
 73 80  1  0  0  0
 74 85  1  0  0  0
 74 79  1  0  0  0
 75 77  1  0  0  0
 75 79  1  0  0  0
 75147  1  0  0  0
 75148  1  0  0  0
 76 78  1  0  0  0
 76 79  1  0  0  0
 76149  1  0  0  0
 76150  1  0  0  0
 77 84  1  0  0  0
 77151  1  0  0  0
 77152  1  0  0  0
 78 84  1  0  0  0
 78153  1  0  0  0
 78154  1  0  0  0
 79155  1  0  0  0
 80156  1  0  0  0
 80157  1  0  0  0
 81 82  1  0  0  0
 81 83  1  0  0  0
 81158  1  0  0  0
 81159  1  0  0  0
 82160  1  0  0  0
 82161  1  0  0  0
 82 84  1  0  0  0
 83162  1  0  0  0
 84163  1  0  0  0
M  CHG  1  84   1
M  ISO  4   1 100  68 101  80 101  83 100
M  END
> <chiral flag>
0

> <version>
0

> <s_m_source_file>
/data/baiqing/PycharmProjects/Reinvent-master-3.2/result/LINK_invent/BTK/process_docking_weight1_custom_sum_contain_oxygen_bond_distance_aromatic_linkinvent_7_9_3/rearranged_h_0124.sdf

> <i_m_source_file_index>
23

> <r_mmod_Potential_Energy-OPLS-2005>
20064.861328125

> <r_mmod_Stretch_Energy-OPLS-2005>
10722.0888671875

> <r_mmod_Bend_Energy-OPLS-2005>
2991.51879882812

> <r_mmod_Torsional_Energy-OPLS-2005>
545.490234375

> <r_mmod_Improper_Torsional_Energy-OPLS-2005>
83.5834045410156

> <r_mmod_Van_der_Waal_Energy-OPLS-2005>
4242.94140625

> <r_mmod_Electrostatic_Energy-OPLS-2005>
-336.674591064453

> <r_mmod_Solvation_Energy-OPLS-2005>
-426.858642578125

> <b_mmod_Minimization_Converged-OPLS-2005>
0

> <r_mmod_RMS_Derivative-OPLS-2005>
11.6293659210205

$$$$
23
                    3D
 Structure written by MMmdl.
152160  0  0  1  0            999 V2000
  -30.5298  -14.8727   20.4322 C   0  0  0  0  0  0
  -30.4524  -12.5343   19.4823 C   0  0  0  0  0  0
  -29.5220  -12.5211   18.2458 C   0  0  0  0  0  0
  -28.0511  -12.3177   18.6619 C   0  0  0  0  0  0
  -27.6383  -13.2312   19.8450 C   0  0  2  0  0  0
  -28.6847  -13.2012   20.9808 C   0  0  0  0  0  0
  -25.2505  -13.8180   20.5700 C   0  0  0  0  0  0
  -24.1801  -13.0427   20.9217 C   0  0  0  0  0  0
  -24.6396  -11.6909   20.8756 C   0  0  0  0  0  0
  -23.9071  -10.4288   21.0414 C   0  0  0  0  0  0
  -24.3622   -9.4202   21.9190 C   0  0  0  0  0  0
  -23.6292   -8.2240   22.0759 C   0  0  0  0  0  0
  -22.4274   -8.0284   21.3547 C   0  0  0  0  0  0
  -21.9913   -9.0259   20.4648 C   0  0  0  0  0  0
  -22.7247  -10.2134   20.3057 C   0  0  0  0  0  0
  -21.6851   -6.0736   22.5279 C   0  0  0  0  0  0
  -21.4015   -6.5639   23.8211 C   0  0  0  0  0  0
  -21.3657   -5.6793   24.9174 C   0  0  0  0  0  0
  -21.6043   -4.3055   24.7225 C   0  0  0  0  0  0
  -21.8816   -3.8147   23.4345 C   0  0  0  0  0  0
  -21.9193   -4.6964   22.3403 C   0  0  0  0  0  0
  -22.7823  -13.5218   21.1869 C   0  0  0  0  0  0
  -22.1663   -4.2152   21.0978 F   0  0  0  0  0  0
  -21.5627   -3.4537   25.7734 F   0  0  0  0  0  0
  -29.9720  -13.6026   20.3946 N   0  0  0  0  0  0
  -26.2922  -12.9381   20.3253 N   0  0  0  0  0  0
  -25.9324  -11.6531   20.5744 N   0  0  0  0  0  0
  -22.0464  -12.8215   22.0419 N   0  0  0  0  0  0
  -25.4163  -15.1910   20.4124 N   0  0  0  0  0  0
  -31.7316  -14.9960   20.1641 O   0  0  0  0  0  0
  -21.6638   -6.8886   21.4242 O   0  0  0  0  0  0
  -22.3517  -14.5528   20.6720 O   0  0  0  0  0  0
  -24.6386  -31.8478   23.1910 C   0  0  0  0  0  0
  -25.9179  -32.4714   23.8285 C   0  0  1  0  0  0
  -27.2220  -27.1859   20.1526 C   0  0  0  0  0  0
  -25.5947  -33.8519   24.2210 N   0  0  0  0  0  0
  -23.4399  -30.4673   21.5359 C   0  0  2  0  0  0
  -24.8902  -28.8971   20.1147 C   0  0  0  0  0  0
  -22.7541  -29.4572   22.4887 C   0  0  0  0  0  0
  -18.0300  -28.1385   22.8482 C   0  0  0  0  0  0
  -24.1490  -36.7267   23.2641 C   0  0  0  0  0  0
  -25.9915  -30.7383   21.3814 C   0  0  0  0  0  0
  -26.0656  -29.3523   20.7269 C   0  0  0  0  0  0
  -27.2361  -28.5130   20.7265 C   0  0  0  0  0  0
  -26.0242  -26.8168   19.5056 C   0  0  0  0  0  0
  -24.8786  -27.6405   19.4896 C   0  0  0  0  0  0
  -23.6644  -29.7937   20.1558 C   0  0  0  0  0  0
  -25.4120  -36.3045   24.0317 C   0  0  1  0  0  0
  -20.5908  -28.3714   23.1247 C   0  0  2  0  0  0
  -20.6790  -26.9425   22.5395 C   0  0  0  0  0  0
  -19.5758  -26.6380   21.5208 C   0  0  0  0  0  0
  -18.1941  -26.7927   22.1623 C   0  0  0  0  0  0
  -19.1554  -28.8867   23.2856 C   0  0  0  0  0  0
  -18.9472  -30.1465   23.8877 C   0  0  0  0  0  0
  -17.6468  -30.6590   24.0551 C   0  0  0  0  0  0
  -25.9065  -34.9417   23.5068 C   0  0  0  0  0  0
  -16.5360  -29.9079   23.6329 C   0  0  0  0  0  0
  -16.7285  -28.6496   23.0357 C   0  0  0  0  0  0
  -26.4520  -31.6568   25.0710 C   0  0  0  0  0  0
  -25.3720  -31.3745   26.1417 C   0  0  0  0  0  0
  -27.0381  -30.2971   24.6256 C   0  0  0  0  0  0
  -27.6052  -32.4330   25.7498 C   0  0  0  0  0  0
  -27.5576  -37.1789   24.8466 C   0  0  0  0  0  0
  -21.4238  -29.3055   22.3636 N   0  0  0  0  0  0
  -26.4289  -37.3753   23.9406 N   0  0  0  0  0  0
  -24.7095  -31.0378   22.0920 N   0  0  0  0  0  0
  -23.4203  -28.8115   23.3018 O   0  0  0  0  0  0
  -28.2952  -26.2407   20.1646 O   0  0  0  0  0  0
  -26.5652  -34.8909   22.4647 O   0  0  0  0  0  0
  -23.5517  -32.1338   23.7160 O   0  0  0  0  0  0
  -28.2628  -19.5114   19.8378 C   0  0  0  0  0  0
  -28.5170  -18.0926   19.8110 C   0  0  0  0  0  0
  -30.2206  -19.7379   21.1049 C   0  0  0  0  0  0
  -29.0935  -20.4322   20.5425 C   0  0  0  0  0  0
  -29.6314  -17.4681   20.4513 C   0  0  0  0  0  0
  -27.1837  -21.8513   21.4898 C   0  0  0  0  0  0
  -28.7507  -23.3717   20.0878 C   0  0  0  0  0  0
  -28.0638  -24.7955   20.6374 C   0  0  0  0  0  0
  -28.6253  -21.9540   20.9575 C   0  0  2  0  0  0
  -30.4771  -18.3656   21.0588 N   0  0  0  0  0  0
  -29.6365  -15.9558   20.5365 N   0  0  0  0  0  0
  -31.4848  -12.7022   19.1714 H   0  0  0  0  0  0
  -30.4440  -11.5670   19.9876 H   0  0  0  0  0  0
  -29.8269  -11.7363   17.5524 H   0  0  0  0  0  0
  -29.6206  -13.4631   17.7034 H   0  0  0  0  0  0
  -27.9322  -11.2717   18.9473 H   0  0  0  0  0  0
  -27.3903  -12.4781   17.8091 H   0  0  0  0  0  0
  -27.6156  -14.2427   19.4404 H   0  0  0  0  0  0
  -28.7527  -12.2062   21.4231 H   0  0  0  0  0  0
  -28.3979  -13.8747   21.7904 H   0  0  0  0  0  0
  -25.2765   -9.5670   22.4772 H   0  0  0  0  0  0
  -23.9993   -7.4630   22.7478 H   0  0  0  0  0  0
  -21.0843   -8.8781   19.8957 H   0  0  0  0  0  0
  -22.3707  -10.9677   19.6168 H   0  0  0  0  0  0
  -21.2009   -7.6149   23.9713 H   0  0  0  0  0  0
  -21.1481   -6.0526   25.9076 H   0  0  0  0  0  0
  -22.0597   -2.7610   23.2844 H   0  0  0  0  0  0
  -22.4083  -11.9882   22.4815 H   0  0  0  0  0  0
  -21.1081  -13.1252   22.2616 H   0  0  0  0  0  0
  -24.6405  -15.8343   20.5257 H   0  0  0  0  0  0
  -26.2433  -15.6369   20.0412 H   0  0  0  0  0  0
  -26.7247  -32.5343   23.1023 H   0  0  0  0  0  0
  -25.0077  -33.9639   25.0345 H   0  0  0  0  0  0
  -22.7402  -31.2912   21.3815 H   0  0  0  0  0  0
  -23.3752  -35.9599   23.3297 H   0  0  0  0  0  0
  -24.3578  -36.8905   22.2058 H   0  0  0  0  0  0
  -23.7244  -37.6461   23.6681 H   0  0  0  0  0  0
  -26.1380  -31.4938   20.6080 H   0  0  0  0  0  0
  -26.8654  -30.7912   22.0194 H   0  0  0  0  0  0
  -28.1372  -28.8599   21.2127 H   0  0  0  0  0  0
  -25.9620  -25.8551   19.0163 H   0  0  0  0  0  0
  -23.9816  -27.2878   18.9993 H   0  0  0  0  0  0
  -23.7975  -30.5658   19.3971 H   0  0  0  0  0  0
  -22.7809  -29.2314   19.8480 H   0  0  0  0  0  0
  -25.1305  -36.1877   25.0810 H   0  0  0  0  0  0
  -20.9989  -28.3289   24.1371 H   0  0  0  0  0  0
  -20.5690  -26.2324   23.3605 H   0  0  0  0  0  0
  -21.6657  -26.7434   22.1192 H   0  0  0  0  0  0
  -19.6917  -25.6284   21.1254 H   0  0  0  0  0  0
  -19.6697  -27.3179   20.6729 H   0  0  0  0  0  0
  -17.4207  -26.6665   21.4031 H   0  0  0  0  0  0
  -18.0335  -26.0075   22.9023 H   0  0  0  0  0  0
  -19.7949  -30.7292   24.2230 H   0  0  0  0  0  0
  -17.5019  -31.6272   24.5144 H   0  0  0  0  0  0
  -15.5358  -30.2975   23.7656 H   0  0  0  0  0  0
  -15.8688  -28.0806   22.7082 H   0  0  0  0  0  0
  -24.5901  -30.7089   25.7743 H   0  0  0  0  0  0
  -24.8909  -32.2925   26.4800 H   0  0  0  0  0  0
  -25.8018  -30.8951   27.0220 H   0  0  0  0  0  0
  -26.2989  -29.6697   24.1264 H   0  0  0  0  0  0
  -27.4015  -29.7260   25.4810 H   0  0  0  0  0  0
  -27.8885  -30.4218   23.9549 H   0  0  0  0  0  0
  -27.2639  -33.3641   26.2035 H   0  0  0  0  0  0
  -28.3888  -32.6875   25.0350 H   0  0  0  0  0  0
  -28.0693  -31.8485   26.5453 H   0  0  0  0  0  0
  -28.2586  -38.0091   24.7506 H   0  0  0  0  0  0
  -28.1076  -36.2618   24.6298 H   0  0  0  0  0  0
  -27.2293  -37.1445   25.8870 H   0  0  0  0  0  0
  -20.9442  -29.8777   21.6828 H   0  0  0  0  0  0
  -26.0158  -38.2822   24.1408 H   0  0  0  0  0  0
  -27.3534  -19.8739   19.3810 H   0  0  0  0  0  0
  -27.7876  -17.4698   19.3123 H   0  0  0  0  0  0
  -30.9203  -20.2960   21.7092 H   0  0  0  0  0  0
  -27.0833  -21.0304   22.2007 H   0  0  0  0  0  0
  -26.4692  -21.6825   20.6838 H   0  0  0  0  0  0
  -26.8754  -22.7535   22.0168 H   0  0  0  0  0  0
  -29.8128  -23.5588   19.9292 H   0  0  0  0  0  0
  -28.3443  -23.1888   19.0928 H   0  0  0  0  0  0
  -28.3225  -24.8431   21.6954 H   0  0  0  0  0  0
  -26.9880  -24.6247   20.6475 H   0  0  0  0  0  0
  -29.2325  -22.1524   21.8420 H   0  0  0  0  0  0
  -28.7017  -15.5925   20.6120 H   0  0  0  0  0  0
  1 25  1  0  0  0
  1 30  2  0  0  0
  1 81  1  0  0  0
  2  3  1  0  0  0
  2 25  1  0  0  0
  2 82  1  0  0  0
  2 83  1  0  0  0
  3  4  1  0  0  0
  3 84  1  0  0  0
  3 85  1  0  0  0
  4  5  1  0  0  0
  4 86  1  0  0  0
  4 87  1  0  0  0
  5  6  1  0  0  0
  5 26  1  0  0  0
  5 88  1  0  0  0
  6 25  1  0  0  0
  6 89  1  0  0  0
  6 90  1  0  0  0
  7  8  2  0  0  0
  7 26  1  0  0  0
  7 29  1  0  0  0
  8  9  1  0  0  0
  8 22  1  0  0  0
  9 10  1  0  0  0
  9 27  2  0  0  0
 10 11  2  0  0  0
 10 15  1  0  0  0
 11 12  1  0  0  0
 11 91  1  0  0  0
 12 13  2  0  0  0
 12 92  1  0  0  0
 13 14  1  0  0  0
 13 31  1  0  0  0
 14 15  2  0  0  0
 14 93  1  0  0  0
 15 94  1  0  0  0
 16 17  2  0  0  0
 16 21  1  0  0  0
 16 31  1  0  0  0
 17 18  1  0  0  0
 17 95  1  0  0  0
 18 19  2  0  0  0
 18 96  1  0  0  0
 19 20  1  0  0  0
 19 24  1  0  0  0
 20 21  2  0  0  0
 20 97  1  0  0  0
 21 23  1  0  0  0
 22 28  1  0  0  0
 22 32  2  0  0  0
 26 27  1  0  0  0
 28 98  1  0  0  0
 28 99  1  0  0  0
 29100  1  0  0  0
 29101  1  0  0  0
 33 34  1  0  0  0
 33 66  1  0  0  0
 33 70  2  0  0  0
 34 36  1  0  0  0
 34 59  1  0  0  0
 34102  1  0  0  0
 35 44  2  0  0  0
 35 45  1  0  0  0
 35 68  1  0  0  0
 36 56  1  0  0  0
 36103  1  0  0  0
 37 39  1  0  0  0
 37 47  1  0  0  0
 37 66  1  0  0  0
 37104  1  0  0  0
 38 43  2  0  0  0
 38 46  1  0  0  0
 38 47  1  0  0  0
 39 64  1  0  0  0
 39 67  2  0  0  0
 40 52  1  0  0  0
 40 53  2  0  0  0
 40 58  1  0  0  0
 41105  1  0  0  0
 41106  1  0  0  0
 41107  1  0  0  0
 41 48  1  0  0  0
 42 43  1  0  0  0
 42 66  1  0  0  0
 42108  1  0  0  0
 42109  1  0  0  0
 43 44  1  0  0  0
 44110  1  0  0  0
 45 46  2  0  0  0
 45111  1  0  0  0
 46112  1  0  0  0
 47113  1  0  0  0
 47114  1  0  0  0
 48 56  1  0  0  0
 48 65  1  0  0  0
 48115  1  0  0  0
 49 50  1  0  0  0
 49 53  1  0  0  0
 49 64  1  0  0  0
 49116  1  0  0  0
 50 51  1  0  0  0
 50117  1  0  0  0
 50118  1  0  0  0
 51 52  1  0  0  0
 51119  1  0  0  0
 51120  1  0  0  0
 52121  1  0  0  0
 52122  1  0  0  0
 53 54  1  0  0  0
 54 55  2  0  0  0
 54123  1  0  0  0
 55 57  1  0  0  0
 55124  1  0  0  0
 56 69  2  0  0  0
 57 58  2  0  0  0
 57125  1  0  0  0
 58126  1  0  0  0
 59 60  1  0  0  0
 59 61  1  0  0  0
 59 62  1  0  0  0
 60127  1  0  0  0
 60128  1  0  0  0
 60129  1  0  0  0
 61130  1  0  0  0
 61131  1  0  0  0
 61132  1  0  0  0
 62133  1  0  0  0
 62134  1  0  0  0
 62135  1  0  0  0
 63 65  1  0  0  0
 63136  1  0  0  0
 63137  1  0  0  0
 63138  1  0  0  0
 64139  1  0  0  0
 65140  1  0  0  0
 68 78  1  0  0  0
 71 72  2  0  0  0
 71 74  1  0  0  0
 71141  1  0  0  0
 72 75  1  0  0  0
 72142  1  0  0  0
 73 74  2  0  0  0
 73 80  1  0  0  0
 73143  1  0  0  0
 74 79  1  0  0  0
 75 80  2  0  0  0
 75 81  1  0  0  0
 76144  1  0  0  0
 76145  1  0  0  0
 76146  1  0  0  0
 76 79  1  0  0  0
 77 78  1  0  0  0
 77 79  1  0  0  0
 77147  1  0  0  0
 77148  1  0  0  0
 78149  1  0  0  0
 78150  1  0  0  0
 79151  1  0  0  0
 81152  1  0  0  0
M  ISO  4   1 100  68 101  78 101  81 100
M  END
> <chiral flag>
0

> <version>
0

> <s_m_source_file>
/data/baiqing/PycharmProjects/Reinvent-master-3.2/result/LINK_invent/BTK/process_docking_weight1_custom_sum_contain_oxygen_bond_distance_aromatic_linkinvent_7_9_3/rearranged_h_0124.sdf

> <i_m_source_file_index>
24

> <r_mmod_Potential_Energy-OPLS-2005>
271.373565673828

> <r_mmod_Stretch_Energy-OPLS-2005>
192.267364501953

> <r_mmod_Bend_Energy-OPLS-2005>
243.53141784668

> <r_mmod_Torsional_Energy-OPLS-2005>
251.378082275391

> <r_mmod_Improper_Torsional_Energy-OPLS-2005>
9.41740608215332

> <r_mmod_Van_der_Waal_Energy-OPLS-2005>
133.075057983398

> <r_mmod_Electrostatic_Energy-OPLS-2005>
-473.130187988281

> <r_mmod_Solvation_Energy-OPLS-2005>
-230.201721191406

> <b_mmod_Minimization_Converged-OPLS-2005>
0

> <r_mmod_RMS_Derivative-OPLS-2005>
0.718842566013336

$$$$
24
                    3D
 Structure written by MMmdl.
154162  0  0  1  0            999 V2000
  -30.6684  -14.5676   20.5351 C   0  0  0  0  0  0
  -30.4265  -12.3587   19.4379 C   0  0  0  0  0  0
  -29.4985  -12.5034   18.2135 C   0  0  0  0  0  0
  -28.0213  -12.3526   18.6279 C   0  0  0  0  0  0
  -27.6540  -13.2162   19.8644 C   0  0  2  0  0  0
  -28.6973  -13.0519   20.9914 C   0  0  0  0  0  0
  -25.2562  -13.8184   20.5688 C   0  0  0  0  0  0
  -24.1826  -13.0445   20.9182 C   0  0  0  0  0  0
  -24.6392  -11.6914   20.8732 C   0  0  0  0  0  0
  -23.9060  -10.4294   21.0404 C   0  0  0  0  0  0
  -24.3613   -9.4210   21.9183 C   0  0  0  0  0  0
  -23.6291   -8.2244   22.0753 C   0  0  0  0  0  0
  -22.4274   -8.0282   21.3544 C   0  0  0  0  0  0
  -21.9906   -9.0254   20.4647 C   0  0  0  0  0  0
  -22.7231  -10.2135   20.3055 C   0  0  0  0  0  0
  -21.6854   -6.0735   22.5278 C   0  0  0  0  0  0
  -21.4017   -6.5640   23.8212 C   0  0  0  0  0  0
  -21.3659   -5.6791   24.9173 C   0  0  0  0  0  0
  -21.6044   -4.3052   24.7226 C   0  0  0  0  0  0
  -21.8817   -3.8146   23.4345 C   0  0  0  0  0  0
  -21.9192   -4.6961   22.3403 C   0  0  0  0  0  0
  -22.7846  -13.5234   21.1845 C   0  0  0  0  0  0
  -22.1660   -4.2147   21.0980 F   0  0  0  0  0  0
  -21.5628   -3.4539   25.7739 F   0  0  0  0  0  0
  -30.0158  -13.3730   20.4258 N   0  0  0  0  0  0
  -26.2990  -12.9363   20.3323 N   0  0  0  0  0  0
  -25.9320  -11.6515   20.5753 N   0  0  0  0  0  0
  -22.0487  -12.8230   22.0406 N   0  0  0  0  0  0
  -25.4276  -15.1909   20.4127 N   0  0  0  0  0  0
  -31.8228  -14.7185   20.1274 O   0  0  0  0  0  0
  -21.6640   -6.8879   21.4240 O   0  0  0  0  0  0
  -22.3530  -14.5539   20.6690 O   0  0  0  0  0  0
  -24.6216  -31.8635   23.2054 C   0  0  0  0  0  0
  -25.9083  -32.4799   23.8370 C   0  0  1  0  0  0
  -27.2273  -27.3627   20.1005 C   0  0  0  0  0  0
  -25.5913  -33.8598   24.2296 N   0  0  0  0  0  0
  -23.4121  -30.4878   21.5476 C   0  0  2  0  0  0
  -24.8564  -28.9462   20.1134 C   0  0  0  0  0  0
  -22.7445  -29.4640   22.4956 C   0  0  0  0  0  0
  -18.0280  -28.1380   22.8487 C   0  0  0  0  0  0
  -24.1488  -36.7306   23.2637 C   0  0  0  0  0  0
  -25.9490  -30.8063   21.3696 C   0  0  0  0  0  0
  -26.0222  -29.4359   20.7139 C   0  0  0  0  0  0
  -27.2081  -28.6528   20.7026 C   0  0  0  0  0  0
  -26.0327  -26.9058   19.4956 C   0  0  0  0  0  0
  -24.8604  -27.6836   19.5008 C   0  0  0  0  0  0
  -23.6237  -29.8229   20.1620 C   0  0  0  0  0  0
  -25.4110  -36.3098   24.0332 C   0  0  1  0  0  0
  -20.5877  -28.3677   23.1297 C   0  0  2  0  0  0
  -20.6769  -26.9406   22.5412 C   0  0  0  0  0  0
  -19.5746  -26.6383   21.5210 C   0  0  0  0  0  0
  -18.1925  -26.7923   22.1625 C   0  0  0  0  0  0
  -19.1532  -28.8843   23.2889 C   0  0  0  0  0  0
  -18.9459  -30.1446   23.8904 C   0  0  0  0  0  0
  -17.6461  -30.6585   24.0565 C   0  0  0  0  0  0
  -25.9043  -34.9465   23.5113 C   0  0  0  0  0  0
  -16.5350  -29.9086   23.6326 C   0  0  0  0  0  0
  -16.7269  -28.6504   23.0346 C   0  0  0  0  0  0
  -26.4481  -31.6598   25.0725 C   0  0  0  0  0  0
  -25.3727  -31.3728   26.1463 C   0  0  0  0  0  0
  -27.0317  -30.3029   24.6149 C   0  0  0  0  0  0
  -27.6045  -32.4327   25.7495 C   0  0  0  0  0  0
  -27.5583  -37.1806   24.8460 C   0  0  0  0  0  0
  -21.4165  -29.3041   22.3699 N   0  0  0  0  0  0
  -26.4291  -37.3788   23.9411 N   0  0  0  0  0  0
  -24.6796  -31.0682   22.0984 N   0  0  0  0  0  0
  -23.4193  -28.8178   23.3015 O   0  0  0  0  0  0
  -28.3829  -26.5809   20.1295 O   0  0  0  0  0  0
  -26.5610  -34.8926   22.4678 O   0  0  0  0  0  0
  -23.5391  -32.1413   23.7411 O   0  0  0  0  0  0
  -29.4237  -18.1192   20.4818 C   0  0  0  0  0  0
  -27.8494  -24.0403   20.4213 C   0  0  0  0  0  0
  -29.6844  -24.4415   19.6572 C   0  0  0  0  0  0
  -28.3633  -25.2297   19.5687 C   0  0  2  0  0  0
  -30.3819  -17.0468   21.0826 C   0  0  0  0  0  0
  -28.9540  -20.6068   20.1102 C   0  0  0  0  0  0
  -29.5071  -22.0361   20.4985 C   0  0  0  0  0  0
  -29.7045  -19.4374   20.6673 N   0  0  0  0  0  0
  -29.9393  -15.6258   20.9707 N   0  0  0  0  0  0
  -28.8832  -23.2052   19.7707 N   0  3  1  0  0  0
  -28.4331  -17.7523   19.8479 O   0  0  0  0  0  0
  -31.4694  -12.4686   19.1355 H   0  0  0  0  0  0
  -30.3457  -11.3590   19.8674 H   0  0  0  0  0  0
  -29.7519  -11.7583   17.4582 H   0  0  0  0  0  0
  -29.6518  -13.4774   17.7458 H   0  0  0  0  0  0
  -27.8480  -11.2991   18.8499 H   0  0  0  0  0  0
  -27.3671  -12.5971   17.7901 H   0  0  0  0  0  0
  -27.6802  -14.2559   19.5361 H   0  0  0  0  0  0
  -28.6947  -12.0287   21.3705 H   0  0  0  0  0  0
  -28.4530  -13.6850   21.8454 H   0  0  0  0  0  0
  -25.2760   -9.5690   22.4755 H   0  0  0  0  0  0
  -24.0001   -7.4640   22.7476 H   0  0  0  0  0  0
  -21.0836   -8.8772   19.8960 H   0  0  0  0  0  0
  -22.3688  -10.9672   19.6163 H   0  0  0  0  0  0
  -21.2013   -7.6150   23.9713 H   0  0  0  0  0  0
  -21.1483   -6.0524   25.9075 H   0  0  0  0  0  0
  -22.0598   -2.7608   23.2845 H   0  0  0  0  0  0
  -22.4100  -11.9894   22.4801 H   0  0  0  0  0  0
  -21.1105  -13.1257   22.2611 H   0  0  0  0  0  0
  -24.6621  -15.8457   20.5314 H   0  0  0  0  0  0
  -26.2805  -15.6368   20.0955 H   0  0  0  0  0  0
  -26.7151  -32.5480   23.1122 H   0  0  0  0  0  0
  -25.0068  -33.9751   25.0446 H   0  0  0  0  0  0
  -22.7040  -31.3072   21.4071 H   0  0  0  0  0  0
  -23.3750  -35.9640   23.3297 H   0  0  0  0  0  0
  -24.3582  -36.8929   22.2052 H   0  0  0  0  0  0
  -23.7241  -37.6509   23.6658 H   0  0  0  0  0  0
  -26.0733  -31.5704   20.6011 H   0  0  0  0  0  0
  -26.8323  -30.8559   21.9946 H   0  0  0  0  0  0
  -28.1066  -29.0276   21.1731 H   0  0  0  0  0  0
  -25.9690  -25.9389   19.0210 H   0  0  0  0  0  0
  -23.9632  -27.2998   19.0350 H   0  0  0  0  0  0
  -23.7411  -30.5994   19.4053 H   0  0  0  0  0  0
  -22.7441  -29.2512   19.8607 H   0  0  0  0  0  0
  -25.1287  -36.1954   25.0824 H   0  0  0  0  0  0
  -20.9970  -28.3248   24.1416 H   0  0  0  0  0  0
  -20.5669  -26.2286   23.3607 H   0  0  0  0  0  0
  -21.6641  -26.7440   22.1208 H   0  0  0  0  0  0
  -19.6910  -25.6294   21.1237 H   0  0  0  0  0  0
  -19.6687  -27.3196   20.6741 H   0  0  0  0  0  0
  -17.4196  -26.6667   21.4028 H   0  0  0  0  0  0
  -18.0332  -26.0063   22.9022 H   0  0  0  0  0  0
  -19.7935  -30.7256   24.2283 H   0  0  0  0  0  0
  -17.5016  -31.6265   24.5169 H   0  0  0  0  0  0
  -15.5350  -30.2992   23.7644 H   0  0  0  0  0  0
  -15.8668  -28.0826   22.7054 H   0  0  0  0  0  0
  -24.5893  -30.7084   25.7800 H   0  0  0  0  0  0
  -24.8926  -32.2894   26.4902 H   0  0  0  0  0  0
  -25.8062  -30.8900   27.0230 H   0  0  0  0  0  0
  -26.2879  -29.6790   24.1178 H   0  0  0  0  0  0
  -27.4037  -29.7273   25.4634 H   0  0  0  0  0  0
  -27.8738  -30.4331   23.9347 H   0  0  0  0  0  0
  -27.2652  -33.3616   26.2093 H   0  0  0  0  0  0
  -28.3845  -32.6908   25.0320 H   0  0  0  0  0  0
  -28.0725  -31.8442   26.5397 H   0  0  0  0  0  0
  -28.2590  -38.0114   24.7524 H   0  0  0  0  0  0
  -28.1089  -36.2645   24.6261 H   0  0  0  0  0  0
  -27.2305  -37.1427   25.8864 H   0  0  0  0  0  0
  -20.9330  -29.8774   21.6927 H   0  0  0  0  0  0
  -26.0175  -38.2864   24.1418 H   0  0  0  0  0  0
  -26.8288  -23.7275   20.2008 H   0  0  0  0  0  0
  -28.0065  -24.1719   21.4939 H   0  0  0  0  0  0
  -30.2648  -24.6631   20.5556 H   0  0  0  0  0  0
  -30.3032  -24.4874   18.7607 H   0  0  0  0  0  0
  -27.9928  -25.2148   18.5404 H   0  0  0  0  0  0
  -30.5211  -17.2687   22.1411 H   0  0  0  0  0  0
  -31.3581  -17.1794   20.6138 H   0  0  0  0  0  0
  -28.9512  -20.5071   19.0236 H   0  0  0  0  0  0
  -27.9114  -20.5305   20.4232 H   0  0  0  0  0  0
  -30.5715  -22.0496   20.2621 H   0  0  0  0  0  0
  -29.4383  -22.1934   21.5749 H   0  0  0  0  0  0
  -30.5351  -19.6449   21.2077 H   0  0  0  0  0  0
  -28.9753  -15.4463   21.2070 H   0  0  0  0  0  0
  -28.5864  -22.9299   18.8469 H   0  0  0  0  0  0
  1 25  1  0  0  0
  1 30  2  0  0  0
  1 79  1  0  0  0
  2  3  1  0  0  0
  2 25  1  0  0  0
  2 82  1  0  0  0
  2 83  1  0  0  0
  3  4  1  0  0  0
  3 84  1  0  0  0
  3 85  1  0  0  0
  4  5  1  0  0  0
  4 86  1  0  0  0
  4 87  1  0  0  0
  5  6  1  0  0  0
  5 26  1  0  0  0
  5 88  1  0  0  0
  6 25  1  0  0  0
  6 89  1  0  0  0
  6 90  1  0  0  0
  7  8  2  0  0  0
  7 26  1  0  0  0
  7 29  1  0  0  0
  8  9  1  0  0  0
  8 22  1  0  0  0
  9 10  1  0  0  0
  9 27  2  0  0  0
 10 11  2  0  0  0
 10 15  1  0  0  0
 11 12  1  0  0  0
 11 91  1  0  0  0
 12 13  2  0  0  0
 12 92  1  0  0  0
 13 14  1  0  0  0
 13 31  1  0  0  0
 14 15  2  0  0  0
 14 93  1  0  0  0
 15 94  1  0  0  0
 16 17  2  0  0  0
 16 21  1  0  0  0
 16 31  1  0  0  0
 17 18  1  0  0  0
 17 95  1  0  0  0
 18 19  2  0  0  0
 18 96  1  0  0  0
 19 20  1  0  0  0
 19 24  1  0  0  0
 20 21  2  0  0  0
 20 97  1  0  0  0
 21 23  1  0  0  0
 22 28  1  0  0  0
 22 32  2  0  0  0
 26 27  1  0  0  0
 28 98  1  0  0  0
 28 99  1  0  0  0
 29100  1  0  0  0
 29101  1  0  0  0
 33 34  1  0  0  0
 33 66  1  0  0  0
 33 70  2  0  0  0
 34 36  1  0  0  0
 34 59  1  0  0  0
 34102  1  0  0  0
 35 44  2  0  0  0
 35 45  1  0  0  0
 35 68  1  0  0  0
 36 56  1  0  0  0
 36103  1  0  0  0
 37 39  1  0  0  0
 37 47  1  0  0  0
 37 66  1  0  0  0
 37104  1  0  0  0
 38 43  2  0  0  0
 38 46  1  0  0  0
 38 47  1  0  0  0
 39 64  1  0  0  0
 39 67  2  0  0  0
 40 52  1  0  0  0
 40 53  2  0  0  0
 40 58  1  0  0  0
 41105  1  0  0  0
 41106  1  0  0  0
 41107  1  0  0  0
 41 48  1  0  0  0
 42 43  1  0  0  0
 42 66  1  0  0  0
 42108  1  0  0  0
 42109  1  0  0  0
 43 44  1  0  0  0
 44110  1  0  0  0
 45 46  2  0  0  0
 45111  1  0  0  0
 46112  1  0  0  0
 47113  1  0  0  0
 47114  1  0  0  0
 48 56  1  0  0  0
 48 65  1  0  0  0
 48115  1  0  0  0
 49 50  1  0  0  0
 49 53  1  0  0  0
 49 64  1  0  0  0
 49116  1  0  0  0
 50 51  1  0  0  0
 50117  1  0  0  0
 50118  1  0  0  0
 51 52  1  0  0  0
 51119  1  0  0  0
 51120  1  0  0  0
 52121  1  0  0  0
 52122  1  0  0  0
 53 54  1  0  0  0
 54 55  2  0  0  0
 54123  1  0  0  0
 55 57  1  0  0  0
 55124  1  0  0  0
 56 69  2  0  0  0
 57 58  2  0  0  0
 57125  1  0  0  0
 58126  1  0  0  0
 59 60  1  0  0  0
 59 61  1  0  0  0
 59 62  1  0  0  0
 60127  1  0  0  0
 60128  1  0  0  0
 60129  1  0  0  0
 61130  1  0  0  0
 61131  1  0  0  0
 61132  1  0  0  0
 62133  1  0  0  0
 62134  1  0  0  0
 62135  1  0  0  0
 63 65  1  0  0  0
 63136  1  0  0  0
 63137  1  0  0  0
 63138  1  0  0  0
 64139  1  0  0  0
 65140  1  0  0  0
 68 74  1  0  0  0
 71 75  1  0  0  0
 71 78  1  0  0  0
 71 81  2  0  0  0
 72 74  1  0  0  0
 72 80  1  0  0  0
 72141  1  0  0  0
 72142  1  0  0  0
 73 74  1  0  0  0
 73 80  1  0  0  0
 73143  1  0  0  0
 73144  1  0  0  0
 74145  1  0  0  0
 75 79  1  0  0  0
 75146  1  0  0  0
 75147  1  0  0  0
 76 77  1  0  0  0
 76 78  1  0  0  0
 76148  1  0  0  0
 76149  1  0  0  0
 77150  1  0  0  0
 77151  1  0  0  0
 77 80  1  0  0  0
 78152  1  0  0  0
 79153  1  0  0  0
 80154  1  0  0  0
M  CHG  1  80   1
M  ISO  4   1 100  68 101  74 101  79 100
M  END
> <chiral flag>
0

> <version>
0

> <s_m_source_file>
/data/baiqing/PycharmProjects/Reinvent-master-3.2/result/LINK_invent/BTK/process_docking_weight1_custom_sum_contain_oxygen_bond_distance_aromatic_linkinvent_7_9_3/rearranged_h_0124.sdf

> <i_m_source_file_index>
25

> <r_mmod_Potential_Energy-OPLS-2005>
-416.293579101562

> <r_mmod_Stretch_Energy-OPLS-2005>
56.2359619140625

> <r_mmod_Bend_Energy-OPLS-2005>
138.035842895508

> <r_mmod_Torsional_Energy-OPLS-2005>
200.842590332031

> <r_mmod_Improper_Torsional_Energy-OPLS-2005>
3.22008228302002

> <r_mmod_Van_der_Waal_Energy-OPLS-2005>
129.526840209961

> <r_mmod_Electrostatic_Energy-OPLS-2005>
-448.190277099609

> <r_mmod_Solvation_Energy-OPLS-2005>
-524.874206542969

> <b_mmod_Minimization_Converged-OPLS-2005>
0

> <r_mmod_RMS_Derivative-OPLS-2005>
0.553357481956482

$$$$
25
                    3D
 Structure written by MMmdl.
160169  0  0  1  0            999 V2000
  -30.6569  -14.5763   20.4988 C   0  0  0  0  0  0
  -30.4272  -12.3544   19.4351 C   0  0  0  0  0  0
  -29.4957  -12.4961   18.2114 C   0  0  0  0  0  0
  -28.0192  -12.3443   18.6276 C   0  0  0  0  0  0
  -27.6506  -13.2102   19.8627 C   0  0  2  0  0  0
  -28.6984  -13.0594   20.9893 C   0  0  0  0  0  0
  -25.2556  -13.8154   20.5692 C   0  0  0  0  0  0
  -24.1817  -13.0429   20.9195 C   0  0  0  0  0  0
  -24.6380  -11.6899   20.8746 C   0  0  0  0  0  0
  -23.9053  -10.4281   21.0392 C   0  0  0  0  0  0
  -24.3614   -9.4200   21.9173 C   0  0  0  0  0  0
  -23.6294   -8.2234   22.0744 C   0  0  0  0  0  0
  -22.4277   -8.0266   21.3533 C   0  0  0  0  0  0
  -21.9906   -9.0236   20.4630 C   0  0  0  0  0  0
  -22.7230  -10.2120   20.3034 C   0  0  0  0  0  0
  -21.6846   -6.0726   22.5276 C   0  0  0  0  0  0
  -21.4000   -6.5634   23.8211 C   0  0  0  0  0  0
  -21.3667   -5.6791   24.9179 C   0  0  0  0  0  0
  -21.6052   -4.3055   24.7223 C   0  0  0  0  0  0
  -21.8819   -3.8141   23.4350 C   0  0  0  0  0  0
  -21.9188   -4.6952   22.3406 C   0  0  0  0  0  0
  -22.7842  -13.5229   21.1854 C   0  0  0  0  0  0
  -22.1656   -4.2136   21.0979 F   0  0  0  0  0  0
  -21.5645   -3.4540   25.7741 F   0  0  0  0  0  0
  -30.0153  -13.3732   20.4164 N   0  0  0  0  0  0
  -26.2974  -12.9325   20.3336 N   0  0  0  0  0  0
  -25.9302  -11.6488   20.5759 N   0  0  0  0  0  0
  -22.0483  -12.8203   22.0402 N   0  0  0  0  0  0
  -25.4291  -15.1879   20.4117 N   0  0  0  0  0  0
  -31.8309  -14.7184   20.1437 O   0  0  0  0  0  0
  -21.6644   -6.8863   21.4234 O   0  0  0  0  0  0
  -22.3522  -14.5538   20.6713 O   0  0  0  0  0  0
  -24.6204  -31.8650   23.2048 C   0  0  0  0  0  0
  -25.9076  -32.4805   23.8371 C   0  0  1  0  0  0
  -27.2264  -27.3797   20.1067 C   0  0  0  0  0  0
  -25.5922  -33.8605   24.2305 N   0  0  0  0  0  0
  -23.4117  -30.4863   21.5480 C   0  0  2  0  0  0
  -24.8600  -28.9490   20.1099 C   0  0  0  0  0  0
  -22.7443  -29.4636   22.4973 C   0  0  0  0  0  0
  -18.0271  -28.1363   22.8486 C   0  0  0  0  0  0
  -24.1488  -36.7297   23.2635 C   0  0  0  0  0  0
  -25.9465  -30.8137   21.3660 C   0  0  0  0  0  0
  -26.0252  -29.4446   20.7102 C   0  0  0  0  0  0
  -27.2165  -28.6691   20.7038 C   0  0  0  0  0  0
  -26.0481  -26.9202   19.4828 C   0  0  0  0  0  0
  -24.8690  -27.6886   19.4889 C   0  0  0  0  0  0
  -23.6222  -29.8205   20.1624 C   0  0  0  0  0  0
  -25.4111  -36.3104   24.0335 C   0  0  1  0  0  0
  -20.5871  -28.3659   23.1308 C   0  0  2  0  0  0
  -20.6761  -26.9396   22.5411 C   0  0  0  0  0  0
  -19.5747  -26.6377   21.5202 C   0  0  0  0  0  0
  -18.1924  -26.7915   22.1606 C   0  0  0  0  0  0
  -19.1525  -28.8825   23.2894 C   0  0  0  0  0  0
  -18.9455  -30.1431   23.8902 C   0  0  0  0  0  0
  -17.6459  -30.6572   24.0550 C   0  0  0  0  0  0
  -25.9046  -34.9471   23.5117 C   0  0  0  0  0  0
  -16.5346  -29.9070   23.6328 C   0  0  0  0  0  0
  -16.7261  -28.6484   23.0353 C   0  0  0  0  0  0
  -26.4481  -31.6591   25.0717 C   0  0  0  0  0  0
  -25.3730  -31.3712   26.1462 C   0  0  0  0  0  0
  -27.0302  -30.3032   24.6111 C   0  0  0  0  0  0
  -27.6061  -32.4300   25.7483 C   0  0  0  0  0  0
  -27.5588  -37.1799   24.8459 C   0  0  0  0  0  0
  -21.4163  -29.3031   22.3722 N   0  0  0  0  0  0
  -26.4284  -37.3804   23.9426 N   0  0  0  0  0  0
  -24.6783  -31.0696   22.0976 N   0  0  0  0  0  0
  -23.4194  -28.8182   23.3035 O   0  0  0  0  0  0
  -28.3159  -26.5194   20.1492 O   0  0  0  0  0  0
  -26.5603  -34.8933   22.4676 O   0  0  0  0  0  0
  -23.5381  -32.1429   23.7399 O   0  0  0  0  0  0
  -29.6227  -22.1871   19.4648 C   0  0  0  0  0  0
  -29.4838  -21.8773   21.8576 C   0  0  0  0  0  0
  -29.0832  -23.5009   19.5926 C   0  0  0  0  0  0
  -28.9452  -23.1828   21.9817 C   0  0  0  0  0  0
  -29.8527  -21.3570   20.5973 C   0  0  0  0  0  0
  -28.7585  -24.0345   20.8637 C   0  0  0  0  0  0
  -29.6601  -16.4625   21.8223 C   0  0  0  0  0  0
  -29.4985  -16.4695   19.3940 C   0  0  0  0  0  0
  -30.2955  -17.8941   21.7733 C   0  0  0  0  0  0
  -30.1709  -17.8715   19.3394 C   0  0  0  0  0  0
  -30.6614  -20.0307   20.4925 C   0  0  0  0  0  0
  -28.1197  -25.4330   21.1019 C   0  0  0  0  0  0
  -29.8455  -15.6749   20.5902 N   0  0  0  0  0  0
  -29.9463  -18.6996   20.5599 N   0  3  0  0  0  0
  -31.4690  -12.4689   19.1303 H   0  0  0  0  0  0
  -30.3470  -11.3558   19.8676 H   0  0  0  0  0  0
  -29.7484  -11.7498   17.4568 H   0  0  0  0  0  0
  -29.6466  -13.4680   17.7394 H   0  0  0  0  0  0
  -27.8477  -11.2909   18.8515 H   0  0  0  0  0  0
  -27.3645  -12.5852   17.7891 H   0  0  0  0  0  0
  -27.6667  -14.2451   19.5266 H   0  0  0  0  0  0
  -28.6965  -12.0415   21.3816 H   0  0  0  0  0  0
  -28.4606  -13.7142   21.8293 H   0  0  0  0  0  0
  -25.2750   -9.5688   22.4763 H   0  0  0  0  0  0
  -24.0006   -7.4616   22.7460 H   0  0  0  0  0  0
  -21.0838   -8.8732   19.8935 H   0  0  0  0  0  0
  -22.3668  -10.9653   19.6147 H   0  0  0  0  0  0
  -21.1977   -7.6138   23.9709 H   0  0  0  0  0  0
  -21.1502   -6.0522   25.9084 H   0  0  0  0  0  0
  -22.0597   -2.7597   23.2849 H   0  0  0  0  0  0
  -22.4095  -11.9859   22.4776 H   0  0  0  0  0  0
  -21.1096  -13.1206   22.2597 H   0  0  0  0  0  0
  -24.6670  -15.8475   20.5242 H   0  0  0  0  0  0
  -26.2898  -15.6234   20.1093 H   0  0  0  0  0  0
  -26.7147  -32.5504   23.1128 H   0  0  0  0  0  0
  -25.0101  -33.9767   25.0471 H   0  0  0  0  0  0
  -22.7024  -31.3046   21.4065 H   0  0  0  0  0  0
  -23.3772  -35.9604   23.3268 H   0  0  0  0  0  0
  -24.3604  -36.8939   22.2056 H   0  0  0  0  0  0
  -23.7198  -37.6476   23.6668 H   0  0  0  0  0  0
  -26.0665  -31.5782   20.5975 H   0  0  0  0  0  0
  -26.8311  -30.8650   21.9883 H   0  0  0  0  0  0
  -28.1120  -29.0394   21.1833 H   0  0  0  0  0  0
  -26.0365  -25.9462   19.0145 H   0  0  0  0  0  0
  -23.9761  -27.3012   19.0176 H   0  0  0  0  0  0
  -23.7293  -30.5975   19.4040 H   0  0  0  0  0  0
  -22.7451  -29.2416   19.8664 H   0  0  0  0  0  0
  -25.1279  -36.1956   25.0824 H   0  0  0  0  0  0
  -20.9945  -28.3209   24.1434 H   0  0  0  0  0  0
  -20.5640  -26.2269   23.3597 H   0  0  0  0  0  0
  -21.6638  -26.7428   22.1219 H   0  0  0  0  0  0
  -19.6916  -25.6293   21.1226 H   0  0  0  0  0  0
  -19.6697  -27.3186   20.6734 H   0  0  0  0  0  0
  -17.4205  -26.6671   21.3998 H   0  0  0  0  0  0
  -18.0323  -26.0037   22.8979 H   0  0  0  0  0  0
  -19.7939  -30.7238   24.2277 H   0  0  0  0  0  0
  -17.5021  -31.6260   24.5140 H   0  0  0  0  0  0
  -15.5352  -30.2971   23.7658 H   0  0  0  0  0  0
  -15.8658  -28.0797   22.7077 H   0  0  0  0  0  0
  -24.5926  -30.7029   25.7815 H   0  0  0  0  0  0
  -24.8893  -32.2855   26.4896 H   0  0  0  0  0  0
  -25.8080  -30.8914   27.0236 H   0  0  0  0  0  0
  -26.2851  -29.6803   24.1146 H   0  0  0  0  0  0
  -27.4049  -29.7264   25.4578 H   0  0  0  0  0  0
  -27.8703  -30.4352   23.9283 H   0  0  0  0  0  0
  -27.2701  -33.3606   26.2069 H   0  0  0  0  0  0
  -28.3876  -32.6835   25.0303 H   0  0  0  0  0  0
  -28.0722  -31.8402   26.5388 H   0  0  0  0  0  0
  -28.2575  -38.0127   24.7567 H   0  0  0  0  0  0
  -28.1111  -36.2666   24.6198 H   0  0  0  0  0  0
  -27.2326  -37.1335   25.8864 H   0  0  0  0  0  0
  -20.9320  -29.8778   21.6972 H   0  0  0  0  0  0
  -26.0166  -38.2874   24.1458 H   0  0  0  0  0  0
  -29.9031  -21.8336   18.4822 H   0  0  0  0  0  0
  -29.6508  -21.2914   22.7515 H   0  0  0  0  0  0
  -28.9293  -24.1043   18.7084 H   0  0  0  0  0  0
  -28.6796  -23.5414   22.9667 H   0  0  0  0  0  0
  -28.5876  -16.5479   22.0033 H   0  0  0  0  0  0
  -30.0598  -15.9188   22.6801 H   0  0  0  0  0  0
  -29.7484  -15.9187   18.4847 H   0  0  0  0  0  0
  -28.4149  -16.5906   19.3697 H   0  0  0  0  0  0
  -31.3799  -17.7860   21.8193 H   0  0  0  0  0  0
  -30.0107  -18.4498   22.6679 H   0  0  0  0  0  0
  -29.8070  -18.4173   18.4668 H   0  0  0  0  0  0
  -31.2442  -17.7374   19.1892 H   0  0  0  0  0  0
  -31.4214  -20.0680   21.2737 H   0  0  0  0  0  0
  -31.2416  -20.0863   19.5703 H   0  0  0  0  0  0
  -28.5020  -25.8047   22.0536 H   0  0  0  0  0  0
  -27.0588  -25.2485   21.2800 H   0  0  0  0  0  0
  -28.9610  -18.9131   20.6051 H   0  0  0  0  0  0
  1 25  1  0  0  0
  1 30  2  0  0  0
  1 83  1  0  0  0
  2  3  1  0  0  0
  2 25  1  0  0  0
  2 85  1  0  0  0
  2 86  1  0  0  0
  3  4  1  0  0  0
  3 87  1  0  0  0
  3 88  1  0  0  0
  4  5  1  0  0  0
  4 89  1  0  0  0
  4 90  1  0  0  0
  5  6  1  0  0  0
  5 26  1  0  0  0
  5 91  1  0  0  0
  6 25  1  0  0  0
  6 92  1  0  0  0
  6 93  1  0  0  0
  7  8  2  0  0  0
  7 26  1  0  0  0
  7 29  1  0  0  0
  8  9  1  0  0  0
  8 22  1  0  0  0
  9 10  1  0  0  0
  9 27  2  0  0  0
 10 11  2  0  0  0
 10 15  1  0  0  0
 11 12  1  0  0  0
 11 94  1  0  0  0
 12 13  2  0  0  0
 12 95  1  0  0  0
 13 14  1  0  0  0
 13 31  1  0  0  0
 14 15  2  0  0  0
 14 96  1  0  0  0
 15 97  1  0  0  0
 16 17  2  0  0  0
 16 21  1  0  0  0
 16 31  1  0  0  0
 17 18  1  0  0  0
 17 98  1  0  0  0
 18 19  2  0  0  0
 18 99  1  0  0  0
 19 20  1  0  0  0
 19 24  1  0  0  0
 20 21  2  0  0  0
 20100  1  0  0  0
 21 23  1  0  0  0
 22 28  1  0  0  0
 22 32  2  0  0  0
 26 27  1  0  0  0
 28101  1  0  0  0
 28102  1  0  0  0
 29103  1  0  0  0
 29104  1  0  0  0
 33 34  1  0  0  0
 33 66  1  0  0  0
 33 70  2  0  0  0
 34 36  1  0  0  0
 34 59  1  0  0  0
 34105  1  0  0  0
 35 44  2  0  0  0
 35 45  1  0  0  0
 35 68  1  0  0  0
 36 56  1  0  0  0
 36106  1  0  0  0
 37 39  1  0  0  0
 37 47  1  0  0  0
 37 66  1  0  0  0
 37107  1  0  0  0
 38 43  2  0  0  0
 38 46  1  0  0  0
 38 47  1  0  0  0
 39 64  1  0  0  0
 39 67  2  0  0  0
 40 52  1  0  0  0
 40 53  2  0  0  0
 40 58  1  0  0  0
 41108  1  0  0  0
 41109  1  0  0  0
 41110  1  0  0  0
 41 48  1  0  0  0
 42 43  1  0  0  0
 42 66  1  0  0  0
 42111  1  0  0  0
 42112  1  0  0  0
 43 44  1  0  0  0
 44113  1  0  0  0
 45 46  2  0  0  0
 45114  1  0  0  0
 46115  1  0  0  0
 47116  1  0  0  0
 47117  1  0  0  0
 48 56  1  0  0  0
 48 65  1  0  0  0
 48118  1  0  0  0
 49 50  1  0  0  0
 49 53  1  0  0  0
 49 64  1  0  0  0
 49119  1  0  0  0
 50 51  1  0  0  0
 50120  1  0  0  0
 50121  1  0  0  0
 51 52  1  0  0  0
 51122  1  0  0  0
 51123  1  0  0  0
 52124  1  0  0  0
 52125  1  0  0  0
 53 54  1  0  0  0
 54 55  2  0  0  0
 54126  1  0  0  0
 55 57  1  0  0  0
 55127  1  0  0  0
 56 69  2  0  0  0
 57 58  2  0  0  0
 57128  1  0  0  0
 58129  1  0  0  0
 59 60  1  0  0  0
 59 61  1  0  0  0
 59 62  1  0  0  0
 60130  1  0  0  0
 60131  1  0  0  0
 60132  1  0  0  0
 61133  1  0  0  0
 61134  1  0  0  0
 61135  1  0  0  0
 62136  1  0  0  0
 62137  1  0  0  0
 62138  1  0  0  0
 63 65  1  0  0  0
 63139  1  0  0  0
 63140  1  0  0  0
 63141  1  0  0  0
 64142  1  0  0  0
 65143  1  0  0  0
 68 82  1  0  0  0
 71 73  2  0  0  0
 71 75  1  0  0  0
 71144  1  0  0  0
 72 74  1  0  0  0
 72 75  2  0  0  0
 72145  1  0  0  0
 73 76  1  0  0  0
 73146  1  0  0  0
 74 76  2  0  0  0
 74147  1  0  0  0
 75 81  1  0  0  0
 76 82  1  0  0  0
 77 79  1  0  0  0
 77 83  1  0  0  0
 77148  1  0  0  0
 77149  1  0  0  0
 78 80  1  0  0  0
 78 83  1  0  0  0
 78150  1  0  0  0
 78151  1  0  0  0
 79 84  1  0  0  0
 79152  1  0  0  0
 79153  1  0  0  0
 80 84  1  0  0  0
 80154  1  0  0  0
 80155  1  0  0  0
 81156  1  0  0  0
 81157  1  0  0  0
 81 84  1  0  0  0
 82158  1  0  0  0
 82159  1  0  0  0
 84160  1  0  0  0
M  CHG  1  84   1
M  ISO  4   1 100  68 101  82 101  83 100
M  END
> <chiral flag>
0

> <version>
0

> <s_m_source_file>
/data/baiqing/PycharmProjects/Reinvent-master-3.2/result/LINK_invent/BTK/process_docking_weight1_custom_sum_contain_oxygen_bond_distance_aromatic_linkinvent_7_9_3/rearranged_h_0124.sdf

> <i_m_source_file_index>
26

> <r_mmod_Potential_Energy-OPLS-2005>
134.961364746094

> <r_mmod_Stretch_Energy-OPLS-2005>
56.9851684570312

> <r_mmod_Bend_Energy-OPLS-2005>
117.462478637695

> <r_mmod_Torsional_Energy-OPLS-2005>
425.639801025391

> <r_mmod_Improper_Torsional_Energy-OPLS-2005>
13.7538900375366

> <r_mmod_Van_der_Waal_Energy-OPLS-2005>
140.185668945312

> <r_mmod_Electrostatic_Energy-OPLS-2005>
-216.348770141602

> <r_mmod_Solvation_Energy-OPLS-2005>
-435.941467285156

> <b_mmod_Minimization_Converged-OPLS-2005>
0

> <r_mmod_RMS_Derivative-OPLS-2005>
1.71092414855957

$$$$
26
                    3D
 Structure written by MMmdl.
168177  0  0  1  0            999 V2000
  -30.6322  -14.6236   20.5144 C   0  0  0  0  0  0
  -30.4361  -12.3849   19.4476 C   0  0  0  0  0  0
  -29.5138  -12.5125   18.2162 C   0  0  0  0  0  0
  -28.0314  -12.3579   18.6197 C   0  0  0  0  0  0
  -27.6530  -13.2188   19.8567 C   0  0  2  0  0  0
  -28.6948  -13.0672   20.9863 C   0  0  0  0  0  0
  -25.2549  -13.8166   20.5611 C   0  0  0  0  0  0
  -24.1830  -13.0434   20.9161 C   0  0  0  0  0  0
  -24.6413  -11.6909   20.8716 C   0  0  0  0  0  0
  -23.9096  -10.4296   21.0393 C   0  0  0  0  0  0
  -24.3636   -9.4214   21.9177 C   0  0  0  0  0  0
  -23.6303   -8.2251   22.0762 C   0  0  0  0  0  0
  -22.4274   -8.0299   21.3561 C   0  0  0  0  0  0
  -21.9918   -9.0279   20.4659 C   0  0  0  0  0  0
  -22.7265  -10.2147   20.3059 C   0  0  0  0  0  0
  -21.6854   -6.0746   22.5290 C   0  0  0  0  0  0
  -21.4022   -6.5647   23.8224 C   0  0  0  0  0  0
  -21.3647   -5.6791   24.9182 C   0  0  0  0  0  0
  -21.6030   -4.3055   24.7230 C   0  0  0  0  0  0
  -21.8812   -3.8160   23.4352 C   0  0  0  0  0  0
  -21.9192   -4.6976   22.3407 C   0  0  0  0  0  0
  -22.7850  -13.5235   21.1834 C   0  0  0  0  0  0
  -22.1659   -4.2157   21.0986 F   0  0  0  0  0  0
  -21.5615   -3.4537   25.7743 F   0  0  0  0  0  0
  -30.0094  -13.4077   20.4219 N   0  0  0  0  0  0
  -26.2983  -12.9355   20.3251 N   0  0  0  0  0  0
  -25.9335  -11.6509   20.5689 N   0  0  0  0  0  0
  -22.0470  -12.8245   22.0381 N   0  0  0  0  0  0
  -25.4232  -15.1883   20.3968 N   0  0  0  0  0  0
  -31.8010  -14.7795   20.1564 O   0  0  0  0  0  0
  -21.6643   -6.8891   21.4252 O   0  0  0  0  0  0
  -22.3541  -14.5552   20.6704 O   0  0  0  0  0  0
  -24.6250  -31.8598   23.2012 C   0  0  0  0  0  0
  -25.9115  -32.4767   23.8342 C   0  0  1  0  0  0
  -27.2200  -27.3179   20.1173 C   0  0  0  0  0  0
  -25.5942  -33.8565   24.2275 N   0  0  0  0  0  0
  -23.4177  -30.4808   21.5440 C   0  0  2  0  0  0
  -24.8633  -28.9327   20.1110 C   0  0  0  0  0  0
  -22.7480  -29.4605   22.4939 C   0  0  0  0  0  0
  -18.0293  -28.1373   22.8476 C   0  0  0  0  0  0
  -24.1495  -36.7287   23.2633 C   0  0  0  0  0  0
  -25.9565  -30.7853   21.3765 C   0  0  0  0  0  0
  -26.0267  -29.4103   20.7248 C   0  0  0  0  0  0
  -27.2053  -28.6101   20.7260 C   0  0  0  0  0  0
  -26.0447  -26.9037   19.4559 C   0  0  0  0  0  0
  -24.8701  -27.6822   19.4723 C   0  0  0  0  0  0
  -23.6334  -29.8149   20.1591 C   0  0  0  0  0  0
  -25.4121  -36.3072   24.0322 C   0  0  1  0  0  0
  -20.5887  -28.3666   23.1285 C   0  0  2  0  0  0
  -20.6771  -26.9390   22.5410 C   0  0  0  0  0  0
  -19.5752  -26.6367   21.5207 C   0  0  0  0  0  0
  -18.1934  -26.7914   22.1620 C   0  0  0  0  0  0
  -19.1546  -28.8842   23.2867 C   0  0  0  0  0  0
  -18.9467  -30.1452   23.8874 C   0  0  0  0  0  0
  -17.6462  -30.6571   24.0552 C   0  0  0  0  0  0
  -25.9061  -34.9444   23.5099 C   0  0  0  0  0  0
  -16.5353  -29.9064   23.6324 C   0  0  0  0  0  0
  -16.7280  -28.6487   23.0332 C   0  0  0  0  0  0
  -26.4504  -31.6571   25.0709 C   0  0  0  0  0  0
  -25.3748  -31.3717   26.1441 C   0  0  0  0  0  0
  -27.0337  -30.2989   24.6172 C   0  0  0  0  0  0
  -27.6058  -32.4308   25.7483 C   0  0  0  0  0  0
  -27.5584  -37.1803   24.8465 C   0  0  0  0  0  0
  -21.4194  -29.3023   22.3696 N   0  0  0  0  0  0
  -26.4301  -37.3768   23.9406 N   0  0  0  0  0  0
  -24.6845  -31.0615   22.0962 N   0  0  0  0  0  0
  -23.4218  -28.8153   23.3015 O   0  0  0  0  0  0
  -28.3699  -26.5155   20.1174 O   0  0  0  0  0  0
  -26.5612  -34.8908   22.4658 O   0  0  0  0  0  0
  -23.5427  -32.1402   23.7347 O   0  0  0  0  0  0
  -27.3324  -24.2235   20.4798 C   0  0  0  0  0  0
  -29.7552  -23.1980   19.7652 C   0  0  0  0  0  0
  -27.4801  -22.8011   20.4052 C   0  0  0  0  0  0
  -28.7388  -22.2415   20.0207 C   0  0  0  0  0  0
  -28.3978  -25.0967   20.1413 C   0  0  0  0  0  0
  -25.2541  -22.2954   21.7212 C   0  0  0  0  0  0
  -23.8877  -21.7469   21.2585 C   0  0  0  0  0  0
  -25.4048  -21.7143   19.3720 C   0  0  0  0  0  0
  -26.2651  -21.8936   20.6272 C   0  0  1  0  0  0
  -24.1395  -21.0400   19.9126 C   0  0  2  0  0  0
  -28.9641  -20.7151   19.6478 C   0  0  0  0  0  0
  -30.1865  -17.1456   21.0596 C   0  0  0  0  0  0
  -29.3660  -18.2312   20.2296 C   0  0  0  0  0  0
  -29.5994  -24.5535   19.8221 N   0  0  0  0  0  0
  -29.8412  -15.6907   20.8519 N   0  0  0  0  0  0
  -22.9939  -21.0930   18.9839 N   0  3  0  0  0  0
  -29.5005  -19.6954   20.6360 N   0  3  0  0  0  0
  -31.4819  -12.4991   19.1586 H   0  0  0  0  0  0
  -30.3561  -11.3870   19.8830 H   0  0  0  0  0  0
  -29.7810  -11.7656   17.4663 H   0  0  0  0  0  0
  -29.6701  -13.4846   17.7443 H   0  0  0  0  0  0
  -27.8513  -11.3034   18.8315 H   0  0  0  0  0  0
  -27.3864  -12.6090   17.7774 H   0  0  0  0  0  0
  -27.6759  -14.2556   19.5226 H   0  0  0  0  0  0
  -28.6994  -12.0458   21.3679 H   0  0  0  0  0  0
  -28.4448  -13.6994   21.8395 H   0  0  0  0  0  0
  -25.2793   -9.5671   22.4731 H   0  0  0  0  0  0
  -24.0024   -7.4630   22.7466 H   0  0  0  0  0  0
  -21.0856   -8.8809   19.8952 H   0  0  0  0  0  0
  -22.3756  -10.9685   19.6150 H   0  0  0  0  0  0
  -21.2038   -7.6154   23.9733 H   0  0  0  0  0  0
  -21.1458   -6.0522   25.9077 H   0  0  0  0  0  0
  -22.0605   -2.7626   23.2854 H   0  0  0  0  0  0
  -22.4093  -11.9955   22.4847 H   0  0  0  0  0  0
  -21.1075  -13.1266   22.2533 H   0  0  0  0  0  0
  -24.6397  -15.8292   20.4691 H   0  0  0  0  0  0
  -26.2519  -15.6175   20.0075 H   0  0  0  0  0  0
  -26.7170  -32.5438   23.1073 H   0  0  0  0  0  0
  -25.0117  -33.9711   25.0438 H   0  0  0  0  0  0
  -22.7094  -31.2984   21.4011 H   0  0  0  0  0  0
  -23.3748  -35.9630   23.3314 H   0  0  0  0  0  0
  -24.3579  -36.8899   22.2044 H   0  0  0  0  0  0
  -23.7268  -37.6501   23.6651 H   0  0  0  0  0  0
  -26.0952  -31.5466   20.6070 H   0  0  0  0  0  0
  -26.8338  -30.8315   22.0099 H   0  0  0  0  0  0
  -28.1023  -28.9741   21.2075 H   0  0  0  0  0  0
  -26.0189  -25.9632   18.9257 H   0  0  0  0  0  0
  -23.9816  -27.3161   18.9773 H   0  0  0  0  0  0
  -23.7573  -30.5887   19.4006 H   0  0  0  0  0  0
  -22.7528  -29.2454   19.8564 H   0  0  0  0  0  0
  -25.1305  -36.1913   25.0815 H   0  0  0  0  0  0
  -20.9973  -28.3231   24.1403 H   0  0  0  0  0  0
  -20.5652  -26.2272   23.3602 H   0  0  0  0  0  0
  -21.6642  -26.7398   22.1224 H   0  0  0  0  0  0
  -19.6897  -25.6275   21.1244 H   0  0  0  0  0  0
  -19.6694  -27.3164   20.6731 H   0  0  0  0  0  0
  -17.4202  -26.6664   21.4025 H   0  0  0  0  0  0
  -18.0329  -26.0060   22.9022 H   0  0  0  0  0  0
  -19.7943  -30.7285   24.2217 H   0  0  0  0  0  0
  -17.5012  -31.6246   24.5165 H   0  0  0  0  0  0
  -15.5351  -30.2948   23.7660 H   0  0  0  0  0  0
  -15.8685  -28.0801   22.7030 H   0  0  0  0  0  0
  -24.5912  -30.7069   25.7782 H   0  0  0  0  0  0
  -24.8945  -32.2886   26.4870 H   0  0  0  0  0  0
  -25.8076  -30.8898   27.0218 H   0  0  0  0  0  0
  -26.2903  -29.6737   24.1203 H   0  0  0  0  0  0
  -27.4035  -29.7245   25.4678 H   0  0  0  0  0  0
  -27.8783  -30.4260   23.9391 H   0  0  0  0  0  0
  -27.2660  -33.3602   26.2067 H   0  0  0  0  0  0
  -28.3864  -32.6885   25.0308 H   0  0  0  0  0  0
  -28.0734  -31.8435   26.5400 H   0  0  0  0  0  0
  -28.2601  -38.0095   24.7498 H   0  0  0  0  0  0
  -28.1085  -36.2628   24.6314 H   0  0  0  0  0  0
  -27.2306  -37.1480   25.8869 H   0  0  0  0  0  0
  -20.9370  -29.8764   21.6919 H   0  0  0  0  0  0
  -26.0178  -38.2852   24.1375 H   0  0  0  0  0  0
  -26.3853  -24.6573   20.7530 H   0  0  0  0  0  0
  -30.7287  -22.8669   19.4333 H   0  0  0  0  0  0
  -25.5532  -21.9110   22.6973 H   0  0  0  0  0  0
  -25.1564  -23.3725   21.8342 H   0  0  0  0  0  0
  -23.1920  -22.5786   21.1376 H   0  0  0  0  0  0
  -23.4511  -21.0681   21.9923 H   0  0  0  0  0  0
  -25.8998  -21.1308   18.5958 H   0  0  0  0  0  0
  -25.1614  -22.6908   18.9501 H   0  0  0  0  0  0
  -26.6281  -20.9100   20.9274 H   0  0  0  0  0  0
  -24.3666  -19.9896   20.1071 H   0  0  0  0  0  0
  -29.6374  -20.6975   18.7898 H   0  0  0  0  0  0
  -28.0305  -20.3224   19.2478 H   0  0  0  0  0  0
  -30.0395  -17.3443   22.1224 H   0  0  0  0  0  0
  -31.2527  -17.2905   20.8781 H   0  0  0  0  0  0
  -28.3065  -17.9726   20.2503 H   0  0  0  0  0  0
  -29.6742  -18.1435   19.1869 H   0  0  0  0  0  0
  -28.8923  -15.4396   21.0831 H   0  0  0  0  0  0
  -22.7114  -22.0382   18.7965 H   0  0  0  0  0  0
  -22.2073  -20.5975   19.3670 H   0  0  0  0  0  0
  -23.2304  -20.6568   18.1097 H   0  0  0  0  0  0
  -29.0357  -19.8164   21.5216 H   0  0  0  0  0  0
  -30.4778  -19.8926   20.7800 H   0  0  0  0  0  0
  1 25  1  0  0  0
  1 30  2  0  0  0
  1 85  1  0  0  0
  2  3  1  0  0  0
  2 25  1  0  0  0
  2 88  1  0  0  0
  2 89  1  0  0  0
  3  4  1  0  0  0
  3 90  1  0  0  0
  3 91  1  0  0  0
  4  5  1  0  0  0
  4 92  1  0  0  0
  4 93  1  0  0  0
  5  6  1  0  0  0
  5 26  1  0  0  0
  5 94  1  0  0  0
  6 25  1  0  0  0
  6 95  1  0  0  0
  6 96  1  0  0  0
  7  8  2  0  0  0
  7 26  1  0  0  0
  7 29  1  0  0  0
  8  9  1  0  0  0
  8 22  1  0  0  0
  9 10  1  0  0  0
  9 27  2  0  0  0
 10 11  2  0  0  0
 10 15  1  0  0  0
 11 12  1  0  0  0
 11 97  1  0  0  0
 12 13  2  0  0  0
 12 98  1  0  0  0
 13 14  1  0  0  0
 13 31  1  0  0  0
 14 15  2  0  0  0
 14 99  1  0  0  0
 15100  1  0  0  0
 16 17  2  0  0  0
 16 21  1  0  0  0
 16 31  1  0  0  0
 17 18  1  0  0  0
 17101  1  0  0  0
 18 19  2  0  0  0
 18102  1  0  0  0
 19 20  1  0  0  0
 19 24  1  0  0  0
 20 21  2  0  0  0
 20103  1  0  0  0
 21 23  1  0  0  0
 22 28  1  0  0  0
 22 32  2  0  0  0
 26 27  1  0  0  0
 28104  1  0  0  0
 28105  1  0  0  0
 29106  1  0  0  0
 29107  1  0  0  0
 33 34  1  0  0  0
 33 66  1  0  0  0
 33 70  2  0  0  0
 34 36  1  0  0  0
 34 59  1  0  0  0
 34108  1  0  0  0
 35 44  2  0  0  0
 35 45  1  0  0  0
 35 68  1  0  0  0
 36 56  1  0  0  0
 36109  1  0  0  0
 37 39  1  0  0  0
 37 47  1  0  0  0
 37 66  1  0  0  0
 37110  1  0  0  0
 38 43  2  0  0  0
 38 46  1  0  0  0
 38 47  1  0  0  0
 39 64  1  0  0  0
 39 67  2  0  0  0
 40 52  1  0  0  0
 40 53  2  0  0  0
 40 58  1  0  0  0
 41111  1  0  0  0
 41112  1  0  0  0
 41113  1  0  0  0
 41 48  1  0  0  0
 42 43  1  0  0  0
 42 66  1  0  0  0
 42114  1  0  0  0
 42115  1  0  0  0
 43 44  1  0  0  0
 44116  1  0  0  0
 45 46  2  0  0  0
 45117  1  0  0  0
 46118  1  0  0  0
 47119  1  0  0  0
 47120  1  0  0  0
 48 56  1  0  0  0
 48 65  1  0  0  0
 48121  1  0  0  0
 49 50  1  0  0  0
 49 53  1  0  0  0
 49 64  1  0  0  0
 49122  1  0  0  0
 50 51  1  0  0  0
 50123  1  0  0  0
 50124  1  0  0  0
 51 52  1  0  0  0
 51125  1  0  0  0
 51126  1  0  0  0
 52127  1  0  0  0
 52128  1  0  0  0
 53 54  1  0  0  0
 54 55  2  0  0  0
 54129  1  0  0  0
 55 57  1  0  0  0
 55130  1  0  0  0
 56 69  2  0  0  0
 57 58  2  0  0  0
 57131  1  0  0  0
 58132  1  0  0  0
 59 60  1  0  0  0
 59 61  1  0  0  0
 59 62  1  0  0  0
 60133  1  0  0  0
 60134  1  0  0  0
 60135  1  0  0  0
 61136  1  0  0  0
 61137  1  0  0  0
 61138  1  0  0  0
 62139  1  0  0  0
 62140  1  0  0  0
 62141  1  0  0  0
 63 65  1  0  0  0
 63142  1  0  0  0
 63143  1  0  0  0
 63144  1  0  0  0
 64145  1  0  0  0
 65146  1  0  0  0
 68 75  1  0  0  0
 71 73  2  0  0  0
 71 75  1  0  0  0
 71147  1  0  0  0
 72 74  2  0  0  0
 72 84  1  0  0  0
 72148  1  0  0  0
 73 74  1  0  0  0
 73 79  1  0  0  0
 74 81  1  0  0  0
 75 84  2  0  0  0
 76 77  1  0  0  0
 76 79  1  0  0  0
 76149  1  0  0  0
 76150  1  0  0  0
 77 80  1  0  0  0
 77151  1  0  0  0
 77152  1  0  0  0
 78 79  1  0  0  0
 78 80  1  0  0  0
 78153  1  0  0  0
 78154  1  0  0  0
 79155  1  0  0  0
 80 86  1  0  0  0
 80156  1  0  0  0
 81 87  1  0  0  0
 81157  1  0  0  0
 81158  1  0  0  0
 82 83  1  0  0  0
 82 85  1  0  0  0
 82159  1  0  0  0
 82160  1  0  0  0
 83 87  1  0  0  0
 83161  1  0  0  0
 83162  1  0  0  0
 85163  1  0  0  0
 86164  1  0  0  0
 86165  1  0  0  0
 86166  1  0  0  0
 87167  1  0  0  0
 87168  1  0  0  0
M  CHG  2  86   1  87   1
M  ISO  4   1 100  68 101  75 101  85 100
M  END
> <chiral flag>
0

> <version>
0

> <s_m_source_file>
/data/baiqing/PycharmProjects/Reinvent-master-3.2/result/LINK_invent/BTK/process_docking_weight1_custom_sum_contain_oxygen_bond_distance_aromatic_linkinvent_7_9_3/rearranged_h_0124.sdf

> <i_m_source_file_index>
27

> <r_mmod_Potential_Energy-OPLS-2005>
-487.158172607422

> <r_mmod_Stretch_Energy-OPLS-2005>
79.0735015869141

> <r_mmod_Bend_Energy-OPLS-2005>
176.004486083984

> <r_mmod_Torsional_Energy-OPLS-2005>
246.325958251953

> <r_mmod_Improper_Torsional_Energy-OPLS-2005>
5.89460897445679

> <r_mmod_Van_der_Waal_Energy-OPLS-2005>
140.914428710938

> <r_mmod_Electrostatic_Energy-OPLS-2005>
-147.649200439453

> <r_mmod_Solvation_Energy-OPLS-2005>
-1031.015625

> <b_mmod_Minimization_Converged-OPLS-2005>
0

> <r_mmod_RMS_Derivative-OPLS-2005>
2.60825538635254

$$$$
27
                    3D
 Structure written by MMmdl.
153162  0  0  1  0            999 V2000
  -30.2922  -15.6237   20.3252 C   0  0  0  0  0  0
  -30.4293  -13.0643   19.5517 C   0  0  0  0  0  0
  -29.5544  -12.6575   18.3299 C   0  0  0  0  0  0
  -28.1248  -12.3037   18.7665 C   0  0  0  0  0  0
  -27.5996  -13.3069   19.8179 C   0  0  2  0  0  0
  -28.6145  -13.6235   20.9431 C   0  0  0  0  0  0
  -25.2334  -13.8284   20.5791 C   0  0  0  0  0  0
  -24.1720  -13.0436   20.9288 C   0  0  0  0  0  0
  -24.6416  -11.6947   20.8759 C   0  0  0  0  0  0
  -23.9117  -10.4294   21.0394 C   0  0  0  0  0  0
  -24.3652   -9.4208   21.9177 C   0  0  0  0  0  0
  -23.6314   -8.2248   22.0751 C   0  0  0  0  0  0
  -22.4294   -8.0287   21.3542 C   0  0  0  0  0  0
  -21.9937   -9.0261   20.4643 C   0  0  0  0  0  0
  -22.7279  -10.2135   20.3049 C   0  0  0  0  0  0
  -21.6859   -6.0740   22.5279 C   0  0  0  0  0  0
  -21.4017   -6.5640   23.8213 C   0  0  0  0  0  0
  -21.3662   -5.6793   24.9174 C   0  0  0  0  0  0
  -21.6044   -4.3055   24.7224 C   0  0  0  0  0  0
  -21.8817   -3.8149   23.4344 C   0  0  0  0  0  0
  -21.9195   -4.6966   22.3401 C   0  0  0  0  0  0
  -22.7732  -13.5170   21.1923 C   0  0  0  0  0  0
  -22.1663   -4.2152   21.0978 F   0  0  0  0  0  0
  -21.5631   -3.4538   25.7737 F   0  0  0  0  0  0
  -29.7986  -14.2436   20.3032 N   0  0  0  0  0  0
  -26.2783  -12.9613   20.3232 N   0  0  0  0  0  0
  -25.9363  -11.6686   20.5697 N   0  0  0  0  0  0
  -22.0393  -12.8148   22.0474 N   0  0  0  0  0  0
  -25.3930  -15.2026   20.4232 N   0  0  0  0  0  0
  -31.5190  -15.5849   20.0990 O   0  0  0  0  0  0
  -21.6649   -6.8887   21.4243 O   0  0  0  0  0  0
  -22.3407  -14.5467   20.6756 O   0  0  0  0  0  0
  -24.6843  -31.7982   23.1508 C   0  0  0  0  0  0
  -25.9420  -32.4456   23.8057 C   0  0  1  0  0  0
  -27.2298  -26.6958   20.2091 C   0  0  0  0  0  0
  -25.6000  -33.8283   24.1946 N   0  0  0  0  0  0
  -23.5117  -30.3995   21.5040 C   0  0  2  0  0  0
  -24.9714  -28.7416   20.1133 C   0  0  0  0  0  0
  -22.7774  -29.4302   22.4699 C   0  0  0  0  0  0
  -18.0341  -28.1424   22.8455 C   0  0  0  0  0  0
  -24.1495  -36.7146   23.2652 C   0  0  0  0  0  0
  -26.0923  -30.5276   21.4184 C   0  0  0  0  0  0
  -26.1584  -29.0926   20.7666 C   0  0  0  0  0  0
  -27.2692  -28.0956   20.7875 C   0  0  0  0  0  0
  -26.0140  -26.5612   19.4898 C   0  0  0  0  0  0
  -24.9391  -27.5016   19.4516 C   0  0  0  0  0  0
  -23.7669  -29.6966   20.1387 C   0  0  0  0  0  0
  -25.4146  -36.2887   24.0282 C   0  0  1  0  0  0
  -20.5978  -28.3782   23.1139 C   0  0  2  0  0  0
  -20.6806  -26.9438   22.5407 C   0  0  0  0  0  0
  -19.5783  -26.6370   21.5219 C   0  0  0  0  0  0
  -18.1965  -26.7952   22.1619 C   0  0  0  0  0  0
  -19.1608  -28.8928   23.2779 C   0  0  0  0  0  0
  -18.9512  -30.1513   23.8824 C   0  0  0  0  0  0
  -17.6501  -30.6605   24.0551 C   0  0  0  0  0  0
  -25.9126  -34.9278   23.4951 C   0  0  0  0  0  0
  -16.5391  -29.9085   23.6351 C   0  0  0  0  0  0
  -16.7321  -28.6510   23.0365 C   0  0  0  0  0  0
  -26.4598  -31.6496   25.0683 C   0  0  0  0  0  0
  -25.3665  -31.3826   26.1302 C   0  0  0  0  0  0
  -27.0526  -30.2827   24.6597 C   0  0  0  0  0  0
  -27.6052  -32.4355   25.7495 C   0  0  0  0  0  0
  -27.5564  -37.1729   24.8466 C   0  0  0  0  0  0
  -21.4419  -29.3024   22.3454 N   0  0  0  0  0  0
  -26.4270  -37.3650   23.9409 N   0  0  0  0  0  0
  -24.7862  -30.9418   22.0767 N   0  0  0  0  0  0
  -23.4212  -28.7905   23.3050 O   0  0  0  0  0  0
  -28.1692  -25.4579   20.3337 O   0  0  0  0  0  0
  -26.5763  -34.8858   22.4566 O   0  0  0  0  0  0
  -23.5860  -32.1060   23.6455 O   0  0  0  0  0  0
  -28.5684  -19.5292   21.3084 C   0  0  0  0  0  0
  -28.6322  -22.0446   20.2722 C   0  0  0  0  0  0
  -28.2424  -21.0214   21.2753 C   0  0  0  0  0  0
  -29.3947  -21.1275   19.3696 C   0  0  0  0  0  0
  -29.3568  -18.6679   20.3884 C   0  0  0  0  0  0
  -29.8403  -21.7736   18.0622 C   0  0  0  0  0  0
  -29.6383  -23.3136   17.9724 C   0  0  0  0  0  0
  -28.2325  -23.8263   18.3775 C   0  0  0  0  0  0
  -27.9984  -23.7627   19.8990 C   0  0  2  0  0  0
  -27.3360  -21.5140   22.3860 C   0  0  0  0  0  0
  -29.7239  -19.6833   19.4384 N   0  0  0  0  0  0
  -29.4792  -16.9455   20.4814 N   0  0  0  0  0  0
  -31.4260  -13.3214   19.1919 H   0  0  0  0  0  0
  -30.5828  -12.2127   20.2168 H   0  0  0  0  0  0
  -30.0056  -11.8187   17.7982 H   0  0  0  0  0  0
  -29.5218  -13.4872   17.6223 H   0  0  0  0  0  0
  -28.1454  -11.3023   19.1982 H   0  0  0  0  0  0
  -27.4572  -12.2552   17.9052 H   0  0  0  0  0  0
  -27.4685  -14.2337   19.2577 H   0  0  0  0  0  0
  -28.8651  -12.7338   21.5232 H   0  0  0  0  0  0
  -28.1820  -14.3353   21.6478 H   0  0  0  0  0  0
  -25.2790   -9.5683   22.4763 H   0  0  0  0  0  0
  -24.0016   -7.4639   22.7474 H   0  0  0  0  0  0
  -21.0866   -8.8787   19.8953 H   0  0  0  0  0  0
  -22.3733  -10.9675   19.6165 H   0  0  0  0  0  0
  -21.2009   -7.6148   23.9718 H   0  0  0  0  0  0
  -21.1486   -6.0521   25.9078 H   0  0  0  0  0  0
  -22.0594   -2.7612   23.2843 H   0  0  0  0  0  0
  -22.4032  -11.9828   22.4878 H   0  0  0  0  0  0
  -21.1000  -13.1148   22.2669 H   0  0  0  0  0  0
  -24.6179  -15.8475   20.5338 H   0  0  0  0  0  0
  -26.2215  -15.6420   20.0454 H   0  0  0  0  0  0
  -26.7503  -32.4926   23.0768 H   0  0  0  0  0  0
  -25.0071  -33.9320   25.0049 H   0  0  0  0  0  0
  -22.8378  -31.2373   21.3133 H   0  0  0  0  0  0
  -23.3773  -35.9459   23.3268 H   0  0  0  0  0  0
  -24.3564  -36.8849   22.2076 H   0  0  0  0  0  0
  -23.7240  -37.6309   23.6754 H   0  0  0  0  0  0
  -26.2978  -31.2528   20.6300 H   0  0  0  0  0  0
  -26.9423  -30.5945   22.0850 H   0  0  0  0  0  0
  -28.1552  -28.3651   21.3446 H   0  0  0  0  0  0
  -25.8432  -25.6224   18.9831 H   0  0  0  0  0  0
  -24.0440  -27.2249   18.9116 H   0  0  0  0  0  0
  -23.9412  -30.4571   19.3767 H   0  0  0  0  0  0
  -22.8722  -29.1623   19.8142 H   0  0  0  0  0  0
  -25.1354  -36.1648   25.0772 H   0  0  0  0  0  0
  -21.0064  -28.3408   24.1263 H   0  0  0  0  0  0
  -20.5666  -26.2405   23.3672 H   0  0  0  0  0  0
  -21.6667  -26.7375   22.1228 H   0  0  0  0  0  0
  -19.6937  -25.6260   21.1298 H   0  0  0  0  0  0
  -19.6730  -27.3140   20.6719 H   0  0  0  0  0  0
  -17.4236  -26.6698   21.4020 H   0  0  0  0  0  0
  -18.0349  -26.0112   22.9033 H   0  0  0  0  0  0
  -19.7986  -30.7351   24.2158 H   0  0  0  0  0  0
  -17.5048  -31.6277   24.5166 H   0  0  0  0  0  0
  -15.5387  -30.2961   23.7720 H   0  0  0  0  0  0
  -15.8722  -28.0803   22.7119 H   0  0  0  0  0  0
  -24.5873  -30.7147   25.7608 H   0  0  0  0  0  0
  -24.8831  -32.3054   26.4519 H   0  0  0  0  0  0
  -25.7842  -30.9129   27.0216 H   0  0  0  0  0  0
  -26.3245  -29.6444   24.1582 H   0  0  0  0  0  0
  -27.3934  -29.7272   25.5344 H   0  0  0  0  0  0
  -27.9235  -30.3942   24.0137 H   0  0  0  0  0  0
  -27.2598  -33.3727   26.1871 H   0  0  0  0  0  0
  -28.3963  -32.6803   25.0394 H   0  0  0  0  0  0
  -28.0612  -31.8619   26.5574 H   0  0  0  0  0  0
  -28.2549  -38.0053   24.7507 H   0  0  0  0  0  0
  -28.1090  -36.2575   24.6295 H   0  0  0  0  0  0
  -27.2281  -37.1370   25.8868 H   0  0  0  0  0  0
  -20.9725  -29.8673   21.6514 H   0  0  0  0  0  0
  -26.0095  -38.2696   24.1421 H   0  0  0  0  0  0
  -28.1256  -18.9879   22.1335 H   0  0  0  0  0  0
  -29.2845  -21.2962   17.2545 H   0  0  0  0  0  0
  -30.8910  -21.5364   17.8902 H   0  0  0  0  0  0
  -29.8568  -23.6296   16.9521 H   0  0  0  0  0  0
  -30.3805  -23.8080   18.6003 H   0  0  0  0  0  0
  -27.4850  -23.2143   17.8707 H   0  0  0  0  0  0
  -28.0786  -24.8408   18.0090 H   0  0  0  0  0  0
  -26.9271  -23.6299   20.0542 H   0  0  0  0  0  0
  -27.5679  -21.0165   23.3280 H   0  0  0  0  0  0
  -26.2933  -21.3130   22.1399 H   0  0  0  0  0  0
  -27.4486  -22.5867   22.5442 H   0  0  0  0  0  0
  -28.5830  -16.6151   20.8030 H   0  0  0  0  0  0
  1 25  1  0  0  0
  1 30  2  0  0  0
  1 82  1  0  0  0
  2  3  1  0  0  0
  2 25  1  0  0  0
  2 83  1  0  0  0
  2 84  1  0  0  0
  3  4  1  0  0  0
  3 85  1  0  0  0
  3 86  1  0  0  0
  4  5  1  0  0  0
  4 87  1  0  0  0
  4 88  1  0  0  0
  5  6  1  0  0  0
  5 26  1  0  0  0
  5 89  1  0  0  0
  6 25  1  0  0  0
  6 90  1  0  0  0
  6 91  1  0  0  0
  7  8  2  0  0  0
  7 26  1  0  0  0
  7 29  1  0  0  0
  8  9  1  0  0  0
  8 22  1  0  0  0
  9 10  1  0  0  0
  9 27  2  0  0  0
 10 11  2  0  0  0
 10 15  1  0  0  0
 11 12  1  0  0  0
 11 92  1  0  0  0
 12 13  2  0  0  0
 12 93  1  0  0  0
 13 14  1  0  0  0
 13 31  1  0  0  0
 14 15  2  0  0  0
 14 94  1  0  0  0
 15 95  1  0  0  0
 16 17  2  0  0  0
 16 21  1  0  0  0
 16 31  1  0  0  0
 17 18  1  0  0  0
 17 96  1  0  0  0
 18 19  2  0  0  0
 18 97  1  0  0  0
 19 20  1  0  0  0
 19 24  1  0  0  0
 20 21  2  0  0  0
 20 98  1  0  0  0
 21 23  1  0  0  0
 22 28  1  0  0  0
 22 32  2  0  0  0
 26 27  1  0  0  0
 28 99  1  0  0  0
 28100  1  0  0  0
 29101  1  0  0  0
 29102  1  0  0  0
 33 34  1  0  0  0
 33 66  1  0  0  0
 33 70  2  0  0  0
 34 36  1  0  0  0
 34 59  1  0  0  0
 34103  1  0  0  0
 35 44  2  0  0  0
 35 45  1  0  0  0
 35 68  1  0  0  0
 36 56  1  0  0  0
 36104  1  0  0  0
 37 39  1  0  0  0
 37 47  1  0  0  0
 37 66  1  0  0  0
 37105  1  0  0  0
 38 43  2  0  0  0
 38 46  1  0  0  0
 38 47  1  0  0  0
 39 64  1  0  0  0
 39 67  2  0  0  0
 40 52  1  0  0  0
 40 53  2  0  0  0
 40 58  1  0  0  0
 41106  1  0  0  0
 41107  1  0  0  0
 41108  1  0  0  0
 41 48  1  0  0  0
 42 43  1  0  0  0
 42 66  1  0  0  0
 42109  1  0  0  0
 42110  1  0  0  0
 43 44  1  0  0  0
 44111  1  0  0  0
 45 46  2  0  0  0
 45112  1  0  0  0
 46113  1  0  0  0
 47114  1  0  0  0
 47115  1  0  0  0
 48 56  1  0  0  0
 48 65  1  0  0  0
 48116  1  0  0  0
 49 50  1  0  0  0
 49 53  1  0  0  0
 49 64  1  0  0  0
 49117  1  0  0  0
 50 51  1  0  0  0
 50118  1  0  0  0
 50119  1  0  0  0
 51 52  1  0  0  0
 51120  1  0  0  0
 51121  1  0  0  0
 52122  1  0  0  0
 52123  1  0  0  0
 53 54  1  0  0  0
 54 55  2  0  0  0
 54124  1  0  0  0
 55 57  1  0  0  0
 55125  1  0  0  0
 56 69  2  0  0  0
 57 58  2  0  0  0
 57126  1  0  0  0
 58127  1  0  0  0
 59 60  1  0  0  0
 59 61  1  0  0  0
 59 62  1  0  0  0
 60128  1  0  0  0
 60129  1  0  0  0
 60130  1  0  0  0
 61131  1  0  0  0
 61132  1  0  0  0
 61133  1  0  0  0
 62134  1  0  0  0
 62135  1  0  0  0
 62136  1  0  0  0
 63 65  1  0  0  0
 63137  1  0  0  0
 63138  1  0  0  0
 63139  1  0  0  0
 64140  1  0  0  0
 65141  1  0  0  0
 68 79  1  0  0  0
 71 73  2  0  0  0
 71 75  1  0  0  0
 71142  1  0  0  0
 72 73  1  0  0  0
 72 74  2  0  0  0
 72 79  1  0  0  0
 73 80  1  0  0  0
 74 76  1  0  0  0
 74 81  1  0  0  0
 75 81  2  0  0  0
 75 82  1  0  0  0
 76 77  1  0  0  0
 76143  1  0  0  0
 76144  1  0  0  0
 77 78  1  0  0  0
 77145  1  0  0  0
 77146  1  0  0  0
 78 79  1  0  0  0
 78147  1  0  0  0
 78148  1  0  0  0
 79149  1  0  0  0
 80150  1  0  0  0
 80151  1  0  0  0
 80152  1  0  0  0
 82153  1  0  0  0
M  ISO  4   1 100  68 101  79 101  82 100
M  END
> <chiral flag>
0

> <version>
0

> <s_m_source_file>
/data/baiqing/PycharmProjects/Reinvent-master-3.2/result/LINK_invent/BTK/process_docking_weight1_custom_sum_contain_oxygen_bond_distance_aromatic_linkinvent_7_9_3/rearranged_h_0124.sdf

> <i_m_source_file_index>
28

> <r_mmod_Potential_Energy-OPLS-2005>
2215.9599609375

> <r_mmod_Stretch_Energy-OPLS-2005>
945.46240234375

> <r_mmod_Bend_Energy-OPLS-2005>
680.062072753906

> <r_mmod_Torsional_Energy-OPLS-2005>
246.730895996094

> <r_mmod_Improper_Torsional_Energy-OPLS-2005>
8.60554790496826

> <r_mmod_Van_der_Waal_Energy-OPLS-2005>
136.646957397461

> <r_mmod_Electrostatic_Energy-OPLS-2005>
-470.546051025391

> <r_mmod_Solvation_Energy-OPLS-2005>
-235.245849609375

> <b_mmod_Minimization_Converged-OPLS-2005>
0

> <r_mmod_RMS_Derivative-OPLS-2005>
0.380416333675385

$$$$
28
                    3D
 Structure written by MMmdl.
184194  0  0  1  0            999 V2000
  -30.7488  -14.4671   20.5757 C   0  0  0  0  0  0
  -30.4100  -12.2825   19.4327 C   0  0  0  0  0  0
  -29.4905  -12.4968   18.2144 C   0  0  0  0  0  0
  -28.0125  -12.3615   18.6267 C   0  0  0  0  0  0
  -27.6573  -13.2109   19.8769 C   0  0  2  0  0  0
  -28.6917  -13.0198   21.0082 C   0  0  0  0  0  0
  -25.2558  -13.8162   20.5706 C   0  0  0  0  0  0
  -24.1809  -13.0443   20.9180 C   0  0  0  0  0  0
  -24.6365  -11.6911   20.8735 C   0  0  0  0  0  0
  -23.9030  -10.4303   21.0397 C   0  0  0  0  0  0
  -24.3591   -9.4218   21.9176 C   0  0  0  0  0  0
  -23.6283   -8.2243   22.0743 C   0  0  0  0  0  0
  -22.4261   -8.0273   21.3539 C   0  0  0  0  0  0
  -21.9897   -9.0235   20.4627 C   0  0  0  0  0  0
  -22.7208  -10.2128   20.3045 C   0  0  0  0  0  0
  -21.6847   -6.0722   22.5265 C   0  0  0  0  0  0
  -21.4018   -6.5631   23.8198 C   0  0  0  0  0  0
  -21.3670   -5.6788   24.9168 C   0  0  0  0  0  0
  -21.6045   -4.3053   24.7225 C   0  0  0  0  0  0
  -21.8824   -3.8132   23.4347 C   0  0  0  0  0  0
  -21.9197   -4.6945   22.3395 C   0  0  0  0  0  0
  -22.7831  -13.5233   21.1839 C   0  0  0  0  0  0
  -22.1656   -4.2127   21.0978 F   0  0  0  0  0  0
  -21.5641   -3.4542   25.7741 F   0  0  0  0  0  0
  -30.0264  -13.2689   20.4517 N   0  0  0  0  0  0
  -26.2995  -12.9350   20.3373 N   0  0  0  0  0  0
  -25.9295  -11.6508   20.5765 N   0  0  0  0  0  0
  -22.0482  -12.8219   22.0389 N   0  0  0  0  0  0
  -25.4315  -15.1884   20.4111 N   0  0  0  0  0  0
  -31.8605  -14.6614   20.0798 O   0  0  0  0  0  0
  -21.6643   -6.8860   21.4224 O   0  0  0  0  0  0
  -22.3525  -14.5555   20.6696 O   0  0  0  0  0  0
  -24.6124  -31.8730   23.2200 C   0  0  0  0  0  0
  -25.9010  -32.4883   23.8501 C   0  0  1  0  0  0
  -27.2226  -27.4500   20.0802 C   0  0  0  0  0  0
  -25.5863  -33.8681   24.2398 N   0  0  0  0  0  0
  -23.4021  -30.4974   21.5632 C   0  0  2  0  0  0
  -24.8473  -28.9820   20.1211 C   0  0  0  0  0  0
  -22.7454  -29.4620   22.5029 C   0  0  0  0  0  0
  -18.0246  -28.1335   22.8482 C   0  0  0  0  0  0
  -24.1482  -36.7359   23.2640 C   0  0  0  0  0  0
  -25.9325  -30.8450   21.3740 C   0  0  0  0  0  0
  -26.0135  -29.4800   20.7207 C   0  0  0  0  0  0
  -27.2097  -28.7209   20.7007 C   0  0  0  0  0  0
  -26.0457  -26.9864   19.4674 C   0  0  0  0  0  0
  -24.8560  -27.7293   19.4911 C   0  0  0  0  0  0
  -23.6111  -29.8480   20.1734 C   0  0  0  0  0  0
  -25.4106  -36.3162   24.0338 C   0  0  1  0  0  0
  -20.5845  -28.3608   23.1328 C   0  0  2  0  0  0
  -20.6726  -26.9336   22.5414 C   0  0  0  0  0  0
  -19.5721  -26.6345   21.5190 C   0  0  0  0  0  0
  -18.1899  -26.7876   22.1601 C   0  0  0  0  0  0
  -19.1500  -28.8791   23.2895 C   0  0  0  0  0  0
  -18.9426  -30.1401   23.8912 C   0  0  0  0  0  0
  -17.6440  -30.6556   24.0535 C   0  0  0  0  0  0
  -25.9018  -34.9512   23.5177 C   0  0  0  0  0  0
  -16.5320  -29.9052   23.6309 C   0  0  0  0  0  0
  -16.7239  -28.6451   23.0371 C   0  0  0  0  0  0
  -26.4452  -31.6652   25.0802 C   0  0  0  0  0  0
  -25.3741  -31.3662   26.1547 C   0  0  0  0  0  0
  -27.0304  -30.3133   24.6109 C   0  0  0  0  0  0
  -27.6051  -32.4362   25.7563 C   0  0  0  0  0  0
  -27.5587  -37.1823   24.8460 C   0  0  0  0  0  0
  -21.4180  -29.2997   22.3779 N   0  0  0  0  0  0
  -26.4304  -37.3831   23.9401 N   0  0  0  0  0  0
  -24.6685  -31.0838   22.1102 N   0  0  0  0  0  0
  -23.4251  -28.8090   23.2998 O   0  0  0  0  0  0
  -28.3627  -26.6813   19.9943 O   0  0  0  0  0  0
  -26.5626  -34.8938   22.4754 O   0  0  0  0  0  0
  -23.5314  -32.1445   23.7582 O   0  0  0  0  0  0
  -31.9692  -20.2756   24.8055 C   0  0  0  0  0  0
  -30.7104  -19.7264   25.1109 C   0  0  0  0  0  0
  -32.5439  -20.0490   23.5407 C   0  0  0  0  0  0
  -30.0188  -18.9663   24.1479 C   0  0  0  0  0  0
  -31.8541  -19.2867   22.5764 C   0  0  0  0  0  0
  -30.5791  -18.7462   22.8692 C   0  0  0  0  0  0
  -27.2220  -23.9932   17.6632 C   0  0  0  0  0  0
  -25.2622  -19.8490   19.0331 C   0  0  0  0  0  0
  -28.4531  -23.6621   18.5302 C   0  0  0  0  0  0
  -26.3760  -19.5551   20.0556 C   0  0  0  0  0  0
  -25.8982  -23.4537   18.2478 C   0  0  0  0  0  0
  -24.8810  -21.3301   19.0206 C   0  0  0  0  0  0
  -28.1078  -23.2093   19.9687 C   0  0  2  0  0  0
  -27.5998  -20.5218   19.9749 C   0  0  1  0  0  0
  -27.0663  -22.0122   19.9759 C   0  0  2  0  0  0
  -27.6608  -24.3904   20.9042 C   0  0  0  0  0  0
  -28.6144  -20.0780   21.0815 C   0  0  0  0  0  0
  -28.5328  -25.6834   21.0119 C   0  0  0  0  0  0
  -30.6804  -16.7449   21.2915 C   0  0  0  0  0  0
  -29.8086  -17.9202   21.8326 C   0  0  2  0  0  0
  -26.1180  -22.1098   18.8111 N   0  3  2  0  0  0
  -29.2802  -18.7824   20.7276 N   0  3  0  0  0  0
  -30.0491  -15.4559   21.2019 O   0  0  0  0  0  0
  -31.4580  -12.3700   19.1403 H   0  0  0  0  0  0
  -30.2915  -11.2724   19.8287 H   0  0  0  0  0  0
  -29.7256  -11.7740   17.4326 H   0  0  0  0  0  0
  -29.6642  -13.4842   17.7834 H   0  0  0  0  0  0
  -27.8235  -11.3068   18.8315 H   0  0  0  0  0  0
  -27.3611  -12.6300   17.7936 H   0  0  0  0  0  0
  -27.7007  -14.2550   19.5699 H   0  0  0  0  0  0
  -28.6475  -12.0016   21.3974 H   0  0  0  0  0  0
  -28.4675  -13.6703   21.8547 H   0  0  0  0  0  0
  -25.2730   -9.5711   22.4763 H   0  0  0  0  0  0
  -23.9987   -7.4649   22.7476 H   0  0  0  0  0  0
  -21.0833   -8.8749   19.8938 H   0  0  0  0  0  0
  -22.3645  -10.9670   19.6167 H   0  0  0  0  0  0
  -21.2015   -7.6143   23.9694 H   0  0  0  0  0  0
  -21.1484   -6.0525   25.9070 H   0  0  0  0  0  0
  -22.0602   -2.7597   23.2856 H   0  0  0  0  0  0
  -22.4112  -11.9878   22.4779 H   0  0  0  0  0  0
  -21.1083  -13.1207   22.2570 H   0  0  0  0  0  0
  -24.6718  -15.8502   20.5254 H   0  0  0  0  0  0
  -26.2935  -15.6164   20.1009 H   0  0  0  0  0  0
  -26.7074  -32.5648   23.1280 H   0  0  0  0  0  0
  -24.9974  -33.9836   25.0523 H   0  0  0  0  0  0
  -22.6889  -31.3143   21.4382 H   0  0  0  0  0  0
  -23.3754  -35.9699   23.3327 H   0  0  0  0  0  0
  -24.3553  -36.8959   22.2049 H   0  0  0  0  0  0
  -23.7199  -37.6536   23.6679 H   0  0  0  0  0  0
  -26.0342  -31.6130   20.6049 H   0  0  0  0  0  0
  -26.8227  -30.9068   21.9871 H   0  0  0  0  0  0
  -28.1175  -29.1036   21.1481 H   0  0  0  0  0  0
  -26.0482  -26.0574   18.9421 H   0  0  0  0  0  0
  -23.9675  -27.3479   19.0064 H   0  0  0  0  0  0
  -23.7258  -30.6368   19.4301 H   0  0  0  0  0  0
  -22.7329  -29.2765   19.8649 H   0  0  0  0  0  0
  -25.1265  -36.2069   25.0828 H   0  0  0  0  0  0
  -20.9902  -28.3136   24.1454 H   0  0  0  0  0  0
  -20.5602  -26.2191   23.3580 H   0  0  0  0  0  0
  -21.6597  -26.7343   22.1228 H   0  0  0  0  0  0
  -19.6892  -25.6259   21.1199 H   0  0  0  0  0  0
  -19.6684  -27.3158   20.6728 H   0  0  0  0  0  0
  -17.4151  -26.6596   21.4009 H   0  0  0  0  0  0
  -18.0300  -26.0017   22.8988 H   0  0  0  0  0  0
  -19.7923  -30.7172   24.2334 H   0  0  0  0  0  0
  -17.5002  -31.6252   24.5109 H   0  0  0  0  0  0
  -15.5330  -30.2980   23.7618 H   0  0  0  0  0  0
  -15.8617  -28.0770   22.7145 H   0  0  0  0  0  0
  -24.5992  -30.6926   25.7843 H   0  0  0  0  0  0
  -24.8832  -32.2750   26.5039 H   0  0  0  0  0  0
  -25.8108  -30.8818   27.0288 H   0  0  0  0  0  0
  -26.2811  -29.6885   24.1210 H   0  0  0  0  0  0
  -27.4145  -29.7354   25.4518 H   0  0  0  0  0  0
  -27.8637  -30.4508   23.9218 H   0  0  0  0  0  0
  -27.2722  -33.3685   26.2149 H   0  0  0  0  0  0
  -28.3863  -32.6847   25.0373 H   0  0  0  0  0  0
  -28.0744  -31.8481   26.5450 H   0  0  0  0  0  0
  -28.2581  -38.0146   24.7548 H   0  0  0  0  0  0
  -28.1080  -36.2644   24.6267 H   0  0  0  0  0  0
  -27.2295  -37.1472   25.8862 H   0  0  0  0  0  0
  -20.9322  -29.8821   21.7095 H   0  0  0  0  0  0
  -26.0213  -38.2908   24.1457 H   0  0  0  0  0  0
  -32.4963  -20.8640   25.5439 H   0  0  0  0  0  0
  -30.2739  -19.8895   26.0874 H   0  0  0  0  0  0
  -33.5162  -20.4642   23.3128 H   0  0  0  0  0  0
  -29.0554  -18.5470   24.4056 H   0  0  0  0  0  0
  -32.3245  -19.1198   21.6171 H   0  0  0  0  0  0
  -27.3742  -23.5616   16.6723 H   0  0  0  0  0  0
  -27.1633  -25.0638   17.4665 H   0  0  0  0  0  0
  -24.3809  -19.2471   19.2591 H   0  0  0  0  0  0
  -25.5858  -19.5500   18.0346 H   0  0  0  0  0  0
  -29.1507  -24.5001   18.5306 H   0  0  0  0  0  0
  -28.9981  -22.8512   18.0431 H   0  0  0  0  0  0
  -26.6866  -18.5192   19.9245 H   0  0  0  0  0  0
  -25.9387  -19.6027   21.0573 H   0  0  0  0  0  0
  -25.1520  -23.4245   17.4513 H   0  0  0  0  0  0
  -25.4642  -24.0776   19.0254 H   0  0  0  0  0  0
  -24.3877  -21.6343   19.9461 H   0  0  0  0  0  0
  -24.1653  -21.5070   18.2176 H   0  0  0  0  0  0
  -29.0417  -22.8497   20.3997 H   0  0  0  0  0  0
  -28.1037  -20.3843   19.0161 H   0  0  0  0  0  0
  -26.4788  -22.1277   20.8914 H   0  0  0  0  0  0
  -27.6468  -23.9713   21.9107 H   0  0  0  0  0  0
  -26.6255  -24.6729   20.7377 H   0  0  0  0  0  0
  -28.0947  -19.9888   22.0373 H   0  0  0  0  0  0
  -29.3955  -20.8212   21.2281 H   0  0  0  0  0  0
  -29.5904  -25.4196   21.0528 H   0  0  0  0  0  0
  -28.3275  -26.1675   21.9690 H   0  0  0  0  0  0
  -31.5392  -16.6193   21.9516 H   0  0  0  0  0  0
  -31.0984  -17.0294   20.3250 H   0  0  0  0  0  0
  -28.9500  -17.4838   22.3449 H   0  0  0  0  0  0
  -26.5817  -21.6362   18.0513 H   0  0  0  0  0  0
  -30.0387  -18.9999   20.0998 H   0  0  0  0  0  0
  -28.6245  -18.2234   20.2049 H   0  0  0  0  0  0
  1 25  1  0  0  0
  1 30  2  0  0  0
  1 93  1  0  0  0
  2  3  1  0  0  0
  2 25  1  0  0  0
  2 94  1  0  0  0
  2 95  1  0  0  0
  3  4  1  0  0  0
  3 96  1  0  0  0
  3 97  1  0  0  0
  4  5  1  0  0  0
  4 98  1  0  0  0
  4 99  1  0  0  0
  5  6  1  0  0  0
  5 26  1  0  0  0
  5100  1  0  0  0
  6 25  1  0  0  0
  6101  1  0  0  0
  6102  1  0  0  0
  7  8  2  0  0  0
  7 26  1  0  0  0
  7 29  1  0  0  0
  8  9  1  0  0  0
  8 22  1  0  0  0
  9 10  1  0  0  0
  9 27  2  0  0  0
 10 11  2  0  0  0
 10 15  1  0  0  0
 11 12  1  0  0  0
 11103  1  0  0  0
 12 13  2  0  0  0
 12104  1  0  0  0
 13 14  1  0  0  0
 13 31  1  0  0  0
 14 15  2  0  0  0
 14105  1  0  0  0
 15106  1  0  0  0
 16 17  2  0  0  0
 16 21  1  0  0  0
 16 31  1  0  0  0
 17 18  1  0  0  0
 17107  1  0  0  0
 18 19  2  0  0  0
 18108  1  0  0  0
 19 20  1  0  0  0
 19 24  1  0  0  0
 20 21  2  0  0  0
 20109  1  0  0  0
 21 23  1  0  0  0
 22 28  1  0  0  0
 22 32  2  0  0  0
 26 27  1  0  0  0
 28110  1  0  0  0
 28111  1  0  0  0
 29112  1  0  0  0
 29113  1  0  0  0
 33 34  1  0  0  0
 33 66  1  0  0  0
 33 70  2  0  0  0
 34 36  1  0  0  0
 34 59  1  0  0  0
 34114  1  0  0  0
 35 44  2  0  0  0
 35 45  1  0  0  0
 35 68  1  0  0  0
 36 56  1  0  0  0
 36115  1  0  0  0
 37 39  1  0  0  0
 37 47  1  0  0  0
 37 66  1  0  0  0
 37116  1  0  0  0
 38 43  2  0  0  0
 38 46  1  0  0  0
 38 47  1  0  0  0
 39 64  1  0  0  0
 39 67  2  0  0  0
 40 52  1  0  0  0
 40 53  2  0  0  0
 40 58  1  0  0  0
 41117  1  0  0  0
 41118  1  0  0  0
 41119  1  0  0  0
 41 48  1  0  0  0
 42 43  1  0  0  0
 42 66  1  0  0  0
 42120  1  0  0  0
 42121  1  0  0  0
 43 44  1  0  0  0
 44122  1  0  0  0
 45 46  2  0  0  0
 45123  1  0  0  0
 46124  1  0  0  0
 47125  1  0  0  0
 47126  1  0  0  0
 48 56  1  0  0  0
 48 65  1  0  0  0
 48127  1  0  0  0
 49 50  1  0  0  0
 49 53  1  0  0  0
 49 64  1  0  0  0
 49128  1  0  0  0
 50 51  1  0  0  0
 50129  1  0  0  0
 50130  1  0  0  0
 51 52  1  0  0  0
 51131  1  0  0  0
 51132  1  0  0  0
 52133  1  0  0  0
 52134  1  0  0  0
 53 54  1  0  0  0
 54 55  2  0  0  0
 54135  1  0  0  0
 55 57  1  0  0  0
 55136  1  0  0  0
 56 69  2  0  0  0
 57 58  2  0  0  0
 57137  1  0  0  0
 58138  1  0  0  0
 59 60  1  0  0  0
 59 61  1  0  0  0
 59 62  1  0  0  0
 60139  1  0  0  0
 60140  1  0  0  0
 60141  1  0  0  0
 61142  1  0  0  0
 61143  1  0  0  0
 61144  1  0  0  0
 62145  1  0  0  0
 62146  1  0  0  0
 62147  1  0  0  0
 63 65  1  0  0  0
 63148  1  0  0  0
 63149  1  0  0  0
 63150  1  0  0  0
 64151  1  0  0  0
 65152  1  0  0  0
 68 88  1  0  0  0
 71 72  2  0  0  0
 71 73  1  0  0  0
 71153  1  0  0  0
 72 74  1  0  0  0
 72154  1  0  0  0
 73 75  2  0  0  0
 73155  1  0  0  0
 74 76  2  0  0  0
 74156  1  0  0  0
 75 76  1  0  0  0
 75157  1  0  0  0
 76 90  1  0  0  0
 77 79  1  0  0  0
 77 81  1  0  0  0
 77158  1  0  0  0
 77159  1  0  0  0
 78 80  1  0  0  0
 78 82  1  0  0  0
 78160  1  0  0  0
 78161  1  0  0  0
 79 83  1  0  0  0
 79162  1  0  0  0
 79163  1  0  0  0
 80 84  1  0  0  0
 80164  1  0  0  0
 80165  1  0  0  0
 81166  1  0  0  0
 81167  1  0  0  0
 81 91  1  0  0  0
 82 91  1  0  0  0
 82168  1  0  0  0
 82169  1  0  0  0
 83 86  1  0  0  0
 83170  1  0  0  0
 83 85  1  0  0  0
 84 85  1  0  0  0
 84 87  1  0  0  0
 84171  1  0  0  0
 85 91  1  0  0  0
 85172  1  0  0  0
 86 88  1  0  0  0
 86173  1  0  0  0
 86174  1  0  0  0
 87 92  1  0  0  0
 87175  1  0  0  0
 87176  1  0  0  0
 88177  1  0  0  0
 88178  1  0  0  0
 89 93  1  0  0  0
 89179  1  0  0  0
 89180  1  0  0  0
 89 90  1  0  0  0
 90 92  1  0  0  0
 90181  1  0  0  0
 91182  1  0  0  0
 92183  1  0  0  0
 92184  1  0  0  0
M  CHG  2  91   1  92   1
M  ISO  4   1 100  68 101  88 101  93 100
M  END
> <chiral flag>
0

> <version>
0

> <s_m_source_file>
/data/baiqing/PycharmProjects/Reinvent-master-3.2/result/LINK_invent/BTK/process_docking_weight1_custom_sum_contain_oxygen_bond_distance_aromatic_linkinvent_7_9_3/rearranged_h_0124.sdf

> <i_m_source_file_index>
29

> <r_mmod_Potential_Energy-OPLS-2005>
-164.014984130859

> <r_mmod_Stretch_Energy-OPLS-2005>
53.0526466369629

> <r_mmod_Bend_Energy-OPLS-2005>
138.686889648438

> <r_mmod_Torsional_Energy-OPLS-2005>
307.884613037109

> <r_mmod_Improper_Torsional_Energy-OPLS-2005>
2.81578397750854

> <r_mmod_Van_der_Waal_Energy-OPLS-2005>
157.403564453125

> <r_mmod_Electrostatic_Energy-OPLS-2005>
83.8966522216797

> <r_mmod_Solvation_Energy-OPLS-2005>
-919.426574707031

> <b_mmod_Minimization_Converged-OPLS-2005>
0

> <r_mmod_RMS_Derivative-OPLS-2005>
3.69913053512573

$$$$
29
                    3D
 Structure written by MMmdl.
170179  0  0  1  0            999 V2000
  -30.8204  -14.2979   20.7545 C   0  0  0  0  0  0
  -30.4146  -12.2959   19.3763 C   0  0  0  0  0  0
  -29.4779  -12.5383   18.1822 C   0  0  0  0  0  0
  -28.0075  -12.3786   18.6045 C   0  0  0  0  0  0
  -27.6655  -13.2022   19.8725 C   0  0  2  0  0  0
  -28.7031  -12.9569   20.9909 C   0  0  0  0  0  0
  -25.2609  -13.8146   20.5658 C   0  0  0  0  0  0
  -24.1852  -13.0431   20.9160 C   0  0  0  0  0  0
  -24.6395  -11.6899   20.8712 C   0  0  0  0  0  0
  -23.9053  -10.4292   21.0386 C   0  0  0  0  0  0
  -24.3609   -9.4212   21.9172 C   0  0  0  0  0  0
  -23.6289   -8.2249   22.0748 C   0  0  0  0  0  0
  -22.4270   -8.0280   21.3547 C   0  0  0  0  0  0
  -21.9904   -9.0247   20.4640 C   0  0  0  0  0  0
  -22.7226  -10.2127   20.3041 C   0  0  0  0  0  0
  -21.6859   -6.0735   22.5280 C   0  0  0  0  0  0
  -21.4020   -6.5639   23.8214 C   0  0  0  0  0  0
  -21.3657   -5.6790   24.9174 C   0  0  0  0  0  0
  -21.6036   -4.3052   24.7226 C   0  0  0  0  0  0
  -21.8826   -3.8145   23.4347 C   0  0  0  0  0  0
  -21.9198   -4.6961   22.3403 C   0  0  0  0  0  0
  -22.7875  -13.5242   21.1819 C   0  0  0  0  0  0
  -22.1664   -4.2146   21.0980 F   0  0  0  0  0  0
  -21.5624   -3.4532   25.7738 F   0  0  0  0  0  0
  -30.0538  -13.2207   20.4593 N   0  0  0  0  0  0
  -26.3043  -12.9311   20.3337 N   0  0  0  0  0  0
  -25.9320  -11.6470   20.5721 N   0  0  0  0  0  0
  -22.0501  -12.8247   22.0378 N   0  0  0  0  0  0
  -25.4349  -15.1865   20.4073 N   0  0  0  0  0  0
  -31.7548  -14.6921   20.0488 O   0  0  0  0  0  0
  -21.6645   -6.8874   21.4238 O   0  0  0  0  0  0
  -22.3568  -14.5550   20.6670 O   0  0  0  0  0  0
  -24.6135  -31.8684   23.2075 C   0  0  0  0  0  0
  -25.9051  -32.4811   23.8339 C   0  0  1  0  0  0
  -27.2472  -27.4574   20.0707 C   0  0  0  0  0  0
  -25.5931  -33.8607   24.2290 N   0  0  0  0  0  0
  -23.3978  -30.4927   21.5473 C   0  0  2  0  0  0
  -24.8416  -28.9493   20.1197 C   0  0  0  0  0  0
  -22.7377  -29.4696   22.4980 C   0  0  0  0  0  0
  -18.0285  -28.1418   22.8502 C   0  0  0  0  0  0
  -24.1506  -36.7291   23.2635 C   0  0  0  0  0  0
  -25.9234  -30.8367   21.3551 C   0  0  0  0  0  0
  -25.9993  -29.4698   20.7085 C   0  0  0  0  0  0
  -27.1983  -28.7285   20.6860 C   0  0  0  0  0  0
  -26.0611  -26.9329   19.5034 C   0  0  0  0  0  0
  -24.8643  -27.6763   19.5240 C   0  0  0  0  0  0
  -23.6058  -29.8191   20.1636 C   0  0  0  0  0  0
  -25.4130  -36.3092   24.0331 C   0  0  1  0  0  0
  -20.5870  -28.3697   23.1329 C   0  0  2  0  0  0
  -20.6800  -26.9437   22.5419 C   0  0  0  0  0  0
  -19.5772  -26.6426   21.5228 C   0  0  0  0  0  0
  -18.1946  -26.7975   22.1623 C   0  0  0  0  0  0
  -19.1531  -28.8876   23.2923 C   0  0  0  0  0  0
  -18.9446  -30.1493   23.8911 C   0  0  0  0  0  0
  -17.6447  -30.6614   24.0594 C   0  0  0  0  0  0
  -25.9051  -34.9469   23.5102 C   0  0  0  0  0  0
  -16.5340  -29.9113   23.6347 C   0  0  0  0  0  0
  -16.7274  -28.6551   23.0327 C   0  0  0  0  0  0
  -26.4487  -31.6582   25.0658 C   0  0  0  0  0  0
  -25.3767  -31.3654   26.1406 C   0  0  0  0  0  0
  -27.0298  -30.3037   24.5992 C   0  0  0  0  0  0
  -27.6081  -32.4273   25.7417 C   0  0  0  0  0  0
  -27.5583  -37.1804   24.8471 C   0  0  0  0  0  0
  -21.4111  -29.3047   22.3705 N   0  0  0  0  0  0
  -26.4310  -37.3779   23.9407 N   0  0  0  0  0  0
  -24.6632  -31.0808   22.0951 N   0  0  0  0  0  0
  -23.4160  -28.8258   23.3037 O   0  0  0  0  0  0
  -28.4744  -26.8310   20.0444 O   0  0  0  0  0  0
  -26.5590  -34.8934   22.4642 O   0  0  0  0  0  0
  -23.5344  -32.1416   23.7503 O   0  0  0  0  0  0
  -29.9396  -24.5102   21.2924 C   0  0  0  0  0  0
  -30.1560  -23.4371   22.1733 C   0  0  0  0  0  0
  -29.2931  -22.3136   22.1152 C   0  0  0  0  0  0
  -28.8813  -24.4453   20.3739 C   0  0  0  0  0  0
  -28.2384  -22.3523   21.1549 C   0  0  0  0  0  0
  -28.4799  -19.3220   23.9636 C   0  0  0  0  0  0
  -28.5237  -20.8569   23.9748 C   0  0  0  0  0  0
  -30.1812  -20.0426   22.4447 C   0  0  0  0  0  0
  -29.8782  -18.9338   23.4640 C   0  0  2  0  0  0
  -31.3156  -23.5085   23.1513 C   0  0  0  0  0  0
  -27.2435  -21.2194   20.9765 C   0  0  0  0  0  0
  -28.6779  -25.5810   19.3817 C   0  0  0  0  0  0
  -31.5801  -15.6329   22.7037 C   0  0  0  0  0  0
  -31.3442  -17.1446   22.5247 C   0  0  0  0  0  0
  -28.0422  -23.3906   20.3106 N   0  0  0  0  0  0
  -29.5322  -21.2325   22.9870 N   0  0  0  0  0  0
  -30.6217  -14.7926   21.9823 N   0  0  0  0  0  0
  -29.9791  -17.5549   22.9269 N   0  3  0  0  0  0
  -31.4549  -12.4108   19.0659 H   0  0  0  0  0  0
  -30.3242  -11.2683   19.7318 H   0  0  0  0  0  0
  -29.7145  -11.8463   17.3729 H   0  0  0  0  0  0
  -29.6401  -13.5420   17.7847 H   0  0  0  0  0  0
  -27.8260  -11.3188   18.7879 H   0  0  0  0  0  0
  -27.3494  -12.6636   17.7826 H   0  0  0  0  0  0
  -27.7209  -14.2549   19.5928 H   0  0  0  0  0  0
  -28.6558  -11.9232   21.3372 H   0  0  0  0  0  0
  -28.4489  -13.5732   21.8534 H   0  0  0  0  0  0
  -25.2754   -9.5697   22.4739 H   0  0  0  0  0  0
  -24.0008   -7.4641   22.7468 H   0  0  0  0  0  0
  -21.0843   -8.8749   19.8943 H   0  0  0  0  0  0
  -22.3680  -10.9656   19.6141 H   0  0  0  0  0  0
  -21.2016   -7.6150   23.9715 H   0  0  0  0  0  0
  -21.1464   -6.0520   25.9078 H   0  0  0  0  0  0
  -22.0604   -2.7606   23.2845 H   0  0  0  0  0  0
  -22.4105  -11.9902   22.4767 H   0  0  0  0  0  0
  -21.1106  -13.1266   22.2533 H   0  0  0  0  0  0
  -24.6680  -15.8425   20.5085 H   0  0  0  0  0  0
  -26.2883  -15.6209   20.0783 H   0  0  0  0  0  0
  -26.7107  -32.5517   23.1086 H   0  0  0  0  0  0
  -25.0173  -33.9770   25.0496 H   0  0  0  0  0  0
  -22.6890  -31.3110   21.4066 H   0  0  0  0  0  0
  -23.3779  -35.9612   23.3310 H   0  0  0  0  0  0
  -24.3598  -36.8883   22.2044 H   0  0  0  0  0  0
  -23.7260  -37.6503   23.6636 H   0  0  0  0  0  0
  -26.0323  -31.5990   20.5824 H   0  0  0  0  0  0
  -26.8145  -30.8899   21.9692 H   0  0  0  0  0  0
  -28.0971  -29.1397   21.1251 H   0  0  0  0  0  0
  -26.0272  -25.9607   19.0360 H   0  0  0  0  0  0
  -23.9700  -27.2613   19.0806 H   0  0  0  0  0  0
  -23.7208  -30.5913   19.4012 H   0  0  0  0  0  0
  -22.7284  -29.2419   19.8655 H   0  0  0  0  0  0
  -25.1323  -36.1919   25.0825 H   0  0  0  0  0  0
  -20.9989  -28.3267   24.1439 H   0  0  0  0  0  0
  -20.5771  -26.2281   23.3588 H   0  0  0  0  0  0
  -21.6662  -26.7541   22.1153 H   0  0  0  0  0  0
  -19.6932  -25.6344   21.1242 H   0  0  0  0  0  0
  -19.6734  -27.3263   20.6782 H   0  0  0  0  0  0
  -17.4225  -26.6759   21.4008 H   0  0  0  0  0  0
  -18.0322  -26.0117   22.9010 H   0  0  0  0  0  0
  -19.7918  -30.7344   24.2243 H   0  0  0  0  0  0
  -17.4994  -31.6284   24.5213 H   0  0  0  0  0  0
  -15.5342  -30.3009   23.7700 H   0  0  0  0  0  0
  -15.8678  -28.0913   22.6966 H   0  0  0  0  0  0
  -24.5990  -30.6946   25.7733 H   0  0  0  0  0  0
  -24.8908  -32.2787   26.4843 H   0  0  0  0  0  0
  -25.8152  -30.8836   27.0151 H   0  0  0  0  0  0
  -26.2778  -29.6782   24.1163 H   0  0  0  0  0  0
  -27.4217  -29.7295   25.4394 H   0  0  0  0  0  0
  -27.8561  -30.4387   23.9010 H   0  0  0  0  0  0
  -27.2748  -33.3606   26.1969 H   0  0  0  0  0  0
  -28.3915  -32.6751   25.0242 H   0  0  0  0  0  0
  -28.0710  -31.8378   26.5342 H   0  0  0  0  0  0
  -28.2616  -38.0087   24.7502 H   0  0  0  0  0  0
  -28.1062  -36.2617   24.6324 H   0  0  0  0  0  0
  -27.2288  -37.1475   25.8870 H   0  0  0  0  0  0
  -20.9257  -29.8684   21.6868 H   0  0  0  0  0  0
  -26.0185  -38.2852   24.1401 H   0  0  0  0  0  0
  -30.5837  -25.3783   21.3079 H   0  0  0  0  0  0
  -27.7104  -18.9800   23.2715 H   0  0  0  0  0  0
  -28.2506  -18.9110   24.9481 H   0  0  0  0  0  0
  -28.8572  -21.2088   24.9526 H   0  0  0  0  0  0
  -27.5435  -21.3009   23.7997 H   0  0  0  0  0  0
  -29.7864  -19.7989   21.4584 H   0  0  0  0  0  0
  -31.2566  -20.1931   22.3390 H   0  0  0  0  0  0
  -30.5686  -19.0294   24.3049 H   0  0  0  0  0  0
  -31.8371  -24.4630   23.0791 H   0  0  0  0  0  0
  -32.0366  -22.7180   22.9443 H   0  0  0  0  0  0
  -30.9638  -23.3968   24.1769 H   0  0  0  0  0  0
  -27.7497  -20.2645   20.8622 H   0  0  0  0  0  0
  -26.6301  -21.3686   20.0872 H   0  0  0  0  0  0
  -26.5717  -21.1584   21.8301 H   0  0  0  0  0  0
  -27.9474  -25.3296   18.6161 H   0  0  0  0  0  0
  -29.6133  -25.6809   18.8298 H   0  0  0  0  0  0
  -31.5240  -15.3752   23.7618 H   0  0  0  0  0  0
  -32.6014  -15.3847   22.4049 H   0  0  0  0  0  0
  -31.5207  -17.4393   21.4892 H   0  0  0  0  0  0
  -32.0876  -17.6763   23.1208 H   0  0  0  0  0  0
  -29.8888  -14.3475   22.5170 H   0  0  0  0  0  0
  -29.3549  -17.4310   22.1466 H   0  0  0  0  0  0
  -29.6790  -16.9276   23.6546 H   0  0  0  0  0  0
  1 25  1  0  0  0
  1 30  2  0  0  0
  1 87  1  0  0  0
  2  3  1  0  0  0
  2 25  1  0  0  0
  2 89  1  0  0  0
  2 90  1  0  0  0
  3  4  1  0  0  0
  3 91  1  0  0  0
  3 92  1  0  0  0
  4  5  1  0  0  0
  4 93  1  0  0  0
  4 94  1  0  0  0
  5  6  1  0  0  0
  5 26  1  0  0  0
  5 95  1  0  0  0
  6 25  1  0  0  0
  6 96  1  0  0  0
  6 97  1  0  0  0
  7  8  2  0  0  0
  7 26  1  0  0  0
  7 29  1  0  0  0
  8  9  1  0  0  0
  8 22  1  0  0  0
  9 10  1  0  0  0
  9 27  2  0  0  0
 10 11  2  0  0  0
 10 15  1  0  0  0
 11 12  1  0  0  0
 11 98  1  0  0  0
 12 13  2  0  0  0
 12 99  1  0  0  0
 13 14  1  0  0  0
 13 31  1  0  0  0
 14 15  2  0  0  0
 14100  1  0  0  0
 15101  1  0  0  0
 16 17  2  0  0  0
 16 21  1  0  0  0
 16 31  1  0  0  0
 17 18  1  0  0  0
 17102  1  0  0  0
 18 19  2  0  0  0
 18103  1  0  0  0
 19 20  1  0  0  0
 19 24  1  0  0  0
 20 21  2  0  0  0
 20104  1  0  0  0
 21 23  1  0  0  0
 22 28  1  0  0  0
 22 32  2  0  0  0
 26 27  1  0  0  0
 28105  1  0  0  0
 28106  1  0  0  0
 29107  1  0  0  0
 29108  1  0  0  0
 33 34  1  0  0  0
 33 66  1  0  0  0
 33 70  2  0  0  0
 34 36  1  0  0  0
 34 59  1  0  0  0
 34109  1  0  0  0
 35 44  2  0  0  0
 35 45  1  0  0  0
 35 68  1  0  0  0
 36 56  1  0  0  0
 36110  1  0  0  0
 37 39  1  0  0  0
 37 47  1  0  0  0
 37 66  1  0  0  0
 37111  1  0  0  0
 38 43  2  0  0  0
 38 46  1  0  0  0
 38 47  1  0  0  0
 39 64  1  0  0  0
 39 67  2  0  0  0
 40 52  1  0  0  0
 40 53  2  0  0  0
 40 58  1  0  0  0
 41112  1  0  0  0
 41113  1  0  0  0
 41114  1  0  0  0
 41 48  1  0  0  0
 42 43  1  0  0  0
 42 66  1  0  0  0
 42115  1  0  0  0
 42116  1  0  0  0
 43 44  1  0  0  0
 44117  1  0  0  0
 45 46  2  0  0  0
 45118  1  0  0  0
 46119  1  0  0  0
 47120  1  0  0  0
 47121  1  0  0  0
 48 56  1  0  0  0
 48 65  1  0  0  0
 48122  1  0  0  0
 49 50  1  0  0  0
 49 53  1  0  0  0
 49 64  1  0  0  0
 49123  1  0  0  0
 50 51  1  0  0  0
 50124  1  0  0  0
 50125  1  0  0  0
 51 52  1  0  0  0
 51126  1  0  0  0
 51127  1  0  0  0
 52128  1  0  0  0
 52129  1  0  0  0
 53 54  1  0  0  0
 54 55  2  0  0  0
 54130  1  0  0  0
 55 57  1  0  0  0
 55131  1  0  0  0
 56 69  2  0  0  0
 57 58  2  0  0  0
 57132  1  0  0  0
 58133  1  0  0  0
 59 60  1  0  0  0
 59 61  1  0  0  0
 59 62  1  0  0  0
 60134  1  0  0  0
 60135  1  0  0  0
 60136  1  0  0  0
 61137  1  0  0  0
 61138  1  0  0  0
 61139  1  0  0  0
 62140  1  0  0  0
 62141  1  0  0  0
 62142  1  0  0  0
 63 65  1  0  0  0
 63143  1  0  0  0
 63144  1  0  0  0
 63145  1  0  0  0
 64146  1  0  0  0
 65147  1  0  0  0
 68 82  1  0  0  0
 71 72  2  0  0  0
 71 74  1  0  0  0
 71148  1  0  0  0
 72 73  1  0  0  0
 72 80  1  0  0  0
 73 75  2  0  0  0
 73 86  1  0  0  0
 74 82  1  0  0  0
 74 85  2  0  0  0
 75 81  1  0  0  0
 75 85  1  0  0  0
 76 77  1  0  0  0
 76 79  1  0  0  0
 76149  1  0  0  0
 76150  1  0  0  0
 77 86  1  0  0  0
 77151  1  0  0  0
 77152  1  0  0  0
 78 79  1  0  0  0
 78 86  1  0  0  0
 78153  1  0  0  0
 78154  1  0  0  0
 79 88  1  0  0  0
 79155  1  0  0  0
 80156  1  0  0  0
 80157  1  0  0  0
 80158  1  0  0  0
 81159  1  0  0  0
 81160  1  0  0  0
 81161  1  0  0  0
 82162  1  0  0  0
 82163  1  0  0  0
 83 84  1  0  0  0
 83 87  1  0  0  0
 83164  1  0  0  0
 83165  1  0  0  0
 84 88  1  0  0  0
 84166  1  0  0  0
 84167  1  0  0  0
 87168  1  0  0  0
 88169  1  0  0  0
 88170  1  0  0  0
M  CHG  1  88   1
M  ISO  4   1 100  68 101  82 101  87 100
M  END
> <chiral flag>
0

> <version>
0

> <s_m_source_file>
/data/baiqing/PycharmProjects/Reinvent-master-3.2/result/LINK_invent/BTK/process_docking_weight1_custom_sum_contain_oxygen_bond_distance_aromatic_linkinvent_7_9_3/rearranged_h_0124.sdf

> <i_m_source_file_index>
30

> <r_mmod_Potential_Energy-OPLS-2005>
-244.85595703125

> <r_mmod_Stretch_Energy-OPLS-2005>
34.1589164733887

> <r_mmod_Bend_Energy-OPLS-2005>
142.02214050293

> <r_mmod_Torsional_Energy-OPLS-2005>
320.307067871094

> <r_mmod_Improper_Torsional_Energy-OPLS-2005>
8.17728805541992

> <r_mmod_Van_der_Waal_Energy-OPLS-2005>
152.560653686523

> <r_mmod_Electrostatic_Energy-OPLS-2005>
-422.163970947266

> <r_mmod_Solvation_Energy-OPLS-2005>
-490.117218017578

> <b_mmod_Minimization_Converged-OPLS-2005>
0

> <r_mmod_RMS_Derivative-OPLS-2005>
2.05842065811157

$$$$
30
                    3D
 Structure written by MMmdl.
156164  0  0  1  0            999 V2000
  -30.5901  -14.8248   20.4381 C   0  0  0  0  0  0
  -30.4367  -12.5037   19.4899 C   0  0  0  0  0  0
  -29.5180  -12.5042   18.2472 C   0  0  0  0  0  0
  -28.0479  -12.3103   18.6638 C   0  0  0  0  0  0
  -27.6374  -13.2358   19.8407 C   0  0  2  0  0  0
  -28.6793  -13.2147   20.9803 C   0  0  0  0  0  0
  -25.2509  -13.8207   20.5684 C   0  0  0  0  0  0
  -24.1796  -13.0455   20.9212 C   0  0  0  0  0  0
  -24.6385  -11.6941   20.8742 C   0  0  0  0  0  0
  -23.9058  -10.4313   21.0402 C   0  0  0  0  0  0
  -24.3614   -9.4233   21.9174 C   0  0  0  0  0  0
  -23.6296   -8.2264   22.0749 C   0  0  0  0  0  0
  -22.4272   -8.0294   21.3549 C   0  0  0  0  0  0
  -21.9915   -9.0258   20.4642 C   0  0  0  0  0  0
  -22.7233  -10.2144   20.3048 C   0  0  0  0  0  0
  -21.6856   -6.0750   22.5286 C   0  0  0  0  0  0
  -21.4021   -6.5651   23.8220 C   0  0  0  0  0  0
  -21.3660   -5.6792   24.9175 C   0  0  0  0  0  0
  -21.6039   -4.3055   24.7222 C   0  0  0  0  0  0
  -21.8815   -3.8156   23.4345 C   0  0  0  0  0  0
  -21.9193   -4.6978   22.3404 C   0  0  0  0  0  0
  -22.7816  -13.5255   21.1841 C   0  0  0  0  0  0
  -22.1658   -4.2168   21.0979 F   0  0  0  0  0  0
  -21.5617   -3.4536   25.7733 F   0  0  0  0  0  0
  -29.9729  -13.5878   20.3935 N   0  0  0  0  0  0
  -26.2920  -12.9416   20.3238 N   0  0  0  0  0  0
  -25.9315  -11.6565   20.5737 N   0  0  0  0  0  0
  -22.0425  -12.8269   22.0387 N   0  0  0  0  0  0
  -25.4213  -15.1920   20.4065 N   0  0  0  0  0  0
  -31.7843  -14.9056   20.1369 O   0  0  0  0  0  0
  -21.6639   -6.8891   21.4245 O   0  0  0  0  0  0
  -22.3537  -14.5564   20.6664 O   0  0  0  0  0  0
  -24.6362  -31.8522   23.1957 C   0  0  0  0  0  0
  -25.9160  -32.4752   23.8324 C   0  0  1  0  0  0
  -27.2051  -27.2024   20.1449 C   0  0  0  0  0  0
  -25.5939  -33.8552   24.2243 N   0  0  0  0  0  0
  -23.4353  -30.4735   21.5405 C   0  0  2  0  0  0
  -24.8812  -28.9138   20.1086 C   0  0  0  0  0  0
  -22.7526  -29.4564   22.4884 C   0  0  0  0  0  0
  -18.0288  -28.1380   22.8494 C   0  0  0  0  0  0
  -24.1474  -36.7272   23.2638 C   0  0  0  0  0  0
  -25.9847  -30.7469   21.3835 C   0  0  0  0  0  0
  -26.0536  -29.3631   20.7285 C   0  0  0  0  0  0
  -27.2176  -28.5206   20.7335 C   0  0  0  0  0  0
  -26.0165  -26.8459   19.4724 C   0  0  0  0  0  0
  -24.8721  -27.6673   19.4651 C   0  0  0  0  0  0
  -23.6583  -29.8124   20.1545 C   0  0  0  0  0  0
  -25.4105  -36.3065   24.0323 C   0  0  1  0  0  0
  -20.5898  -28.3695   23.1258 C   0  0  2  0  0  0
  -20.6762  -26.9408   22.5404 C   0  0  0  0  0  0
  -19.5732  -26.6379   21.5206 C   0  0  0  0  0  0
  -18.1921  -26.7924   22.1628 C   0  0  0  0  0  0
  -19.1548  -28.8854   23.2872 C   0  0  0  0  0  0
  -18.9467  -30.1447   23.8900 C   0  0  0  0  0  0
  -17.6469  -30.6587   24.0556 C   0  0  0  0  0  0
  -25.9062  -34.9439   23.5086 C   0  0  0  0  0  0
  -16.5357  -29.9087   23.6323 C   0  0  0  0  0  0
  -16.7277  -28.6494   23.0370 C   0  0  0  0  0  0
  -26.4505  -31.6597   25.0734 C   0  0  0  0  0  0
  -25.3720  -31.3779   26.1455 C   0  0  0  0  0  0
  -27.0345  -30.3007   24.6242 C   0  0  0  0  0  0
  -27.6044  -32.4352   25.7526 C   0  0  0  0  0  0
  -27.5567  -37.1795   24.8469 C   0  0  0  0  0  0
  -21.4230  -29.3040   22.3647 N   0  0  0  0  0  0
  -26.4274  -37.3773   23.9423 N   0  0  0  0  0  0
  -24.7050  -31.0438   22.0962 N   0  0  0  0  0  0
  -23.4206  -28.8099   23.3004 O   0  0  0  0  0  0
  -28.2825  -26.2708   20.2088 O   0  0  0  0  0  0
  -26.5630  -34.8924   22.4657 O   0  0  0  0  0  0
  -23.5493  -32.1360   23.7217 O   0  0  0  0  0  0
  -29.3425  -22.6034   21.3868 C   0  0  0  0  0  0
  -28.6053  -22.3260   19.0457 C   0  0  0  0  0  0
  -28.5230  -23.9766   21.5191 C   0  0  0  0  0  0
  -28.7308  -23.9302   19.0453 C   0  0  0  0  0  0
  -28.8172  -21.5014   20.3870 C   0  0  1  0  0  0
  -28.0742  -24.7488   20.2148 C   0  0  2  0  0  0
  -30.2346  -17.4750   20.3761 C   0  0  0  0  0  0
  -29.1874  -18.7517   20.5262 C   0  0  0  0  0  0
  -29.8284  -15.9899   20.5974 N   0  0  0  0  0  0
  -29.6953  -20.2073   20.2735 N   0  3  0  0  0  0
  -31.4754  -12.6388   19.1856 H   0  0  0  0  0  0
  -30.4011  -11.5405   20.0021 H   0  0  0  0  0  0
  -29.8204  -11.7156   17.5561 H   0  0  0  0  0  0
  -29.6283  -13.4441   17.7035 H   0  0  0  0  0  0
  -27.9292  -11.2670   18.9598 H   0  0  0  0  0  0
  -27.3878  -12.4579   17.8089 H   0  0  0  0  0  0
  -27.6189  -14.2464   19.4318 H   0  0  0  0  0  0
  -28.7336  -12.2282   21.4415 H   0  0  0  0  0  0
  -28.3989  -13.9078   21.7745 H   0  0  0  0  0  0
  -25.2746   -9.5731   22.4759 H   0  0  0  0  0  0
  -24.0002   -7.4674   22.7483 H   0  0  0  0  0  0
  -21.0842   -8.8773   19.8959 H   0  0  0  0  0  0
  -22.3669  -10.9677   19.6166 H   0  0  0  0  0  0
  -21.2018   -7.6158   23.9734 H   0  0  0  0  0  0
  -21.1475   -6.0515   25.9076 H   0  0  0  0  0  0
  -22.0588   -2.7623   23.2825 H   0  0  0  0  0  0
  -22.4022  -11.9984   22.4877 H   0  0  0  0  0  0
  -21.1031  -13.1324   22.2495 H   0  0  0  0  0  0
  -24.6496  -15.8424   20.5032 H   0  0  0  0  0  0
  -26.2513  -15.6194   20.0170 H   0  0  0  0  0  0
  -26.7228  -32.5383   23.1065 H   0  0  0  0  0  0
  -25.0107  -33.9688   25.0396 H   0  0  0  0  0  0
  -22.7341  -31.2971   21.3948 H   0  0  0  0  0  0
  -23.3747  -35.9593   23.3303 H   0  0  0  0  0  0
  -24.3554  -36.8895   22.2051 H   0  0  0  0  0  0
  -23.7212  -37.6465   23.6665 H   0  0  0  0  0  0
  -26.1252  -31.5030   20.6091 H   0  0  0  0  0  0
  -26.8606  -30.8004   22.0188 H   0  0  0  0  0  0
  -28.1134  -28.8551   21.2389 H   0  0  0  0  0  0
  -25.9466  -25.9062   18.9467 H   0  0  0  0  0  0
  -23.9823  -27.3260   18.9537 H   0  0  0  0  0  0
  -23.7982  -30.5937   19.4066 H   0  0  0  0  0  0
  -22.7723  -29.2601   19.8376 H   0  0  0  0  0  0
  -25.1282  -36.1907   25.0813 H   0  0  0  0  0  0
  -20.9990  -28.3268   24.1377 H   0  0  0  0  0  0
  -20.5628  -26.2312   23.3615 H   0  0  0  0  0  0
  -21.6633  -26.7406   22.1211 H   0  0  0  0  0  0
  -19.6889  -25.6287   21.1241 H   0  0  0  0  0  0
  -19.6662  -27.3178   20.6728 H   0  0  0  0  0  0
  -17.4181  -26.6670   21.4040 H   0  0  0  0  0  0
  -18.0330  -26.0063   22.9027 H   0  0  0  0  0  0
  -19.7944  -30.7255   24.2292 H   0  0  0  0  0  0
  -17.5023  -31.6273   24.5148 H   0  0  0  0  0  0
  -15.5356  -30.2993   23.7641 H   0  0  0  0  0  0
  -15.8672  -28.0798   22.7118 H   0  0  0  0  0  0
  -24.5891  -30.7121   25.7810 H   0  0  0  0  0  0
  -24.8915  -32.2964   26.4846 H   0  0  0  0  0  0
  -25.8028  -30.9001   27.0265 H   0  0  0  0  0  0
  -26.2937  -29.6778   24.1219 H   0  0  0  0  0  0
  -27.3962  -29.7253   25.4775 H   0  0  0  0  0  0
  -27.8849  -30.4275   23.9533 H   0  0  0  0  0  0
  -27.2633  -33.3664   26.2070 H   0  0  0  0  0  0
  -28.3885  -32.6900   25.0383 H   0  0  0  0  0  0
  -28.0679  -31.8505   26.5486 H   0  0  0  0  0  0
  -28.2586  -38.0090   24.7517 H   0  0  0  0  0  0
  -28.1058  -36.2623   24.6291 H   0  0  0  0  0  0
  -27.2294  -37.1446   25.8874 H   0  0  0  0  0  0
  -20.9411  -29.8826   21.6903 H   0  0  0  0  0  0
  -26.0148  -38.2840   24.1447 H   0  0  0  0  0  0
  -29.4347  -22.1648   22.3812 H   0  0  0  0  0  0
  -30.3622  -22.8606   21.0958 H   0  0  0  0  0  0
  -29.3165  -21.9653   18.3031 H   0  0  0  0  0  0
  -27.6283  -22.0600   18.6396 H   0  0  0  0  0  0
  -29.1138  -24.6588   22.1301 H   0  0  0  0  0  0
  -27.6297  -23.7807   22.1156 H   0  0  0  0  0  0
  -28.3482  -24.3062   18.0958 H   0  0  0  0  0  0
  -29.7922  -24.1790   19.0374 H   0  0  0  0  0  0
  -27.8349  -21.1823   20.7444 H   0  0  0  0  0  0
  -27.0057  -24.5463   20.1502 H   0  0  0  0  0  0
  -31.0859  -17.6641   21.0321 H   0  0  0  0  0  0
  -30.6503  -17.5175   19.3683 H   0  0  0  0  0  0
  -28.3452  -18.5803   19.8554 H   0  0  0  0  0  0
  -28.7687  -18.7325   21.5326 H   0  0  0  0  0  0
  -28.8579  -15.8348   20.8262 H   0  0  0  0  0  0
  -30.4616  -20.3459   20.9117 H   0  0  0  0  0  0
  -30.1061  -20.2136   19.3543 H   0  0  0  0  0  0
  1 25  1  0  0  0
  1 30  2  0  0  0
  1 79  1  0  0  0
  2  3  1  0  0  0
  2 25  1  0  0  0
  2 81  1  0  0  0
  2 82  1  0  0  0
  3  4  1  0  0  0
  3 83  1  0  0  0
  3 84  1  0  0  0
  4  5  1  0  0  0
  4 85  1  0  0  0
  4 86  1  0  0  0
  5  6  1  0  0  0
  5 26  1  0  0  0
  5 87  1  0  0  0
  6 25  1  0  0  0
  6 88  1  0  0  0
  6 89  1  0  0  0
  7  8  2  0  0  0
  7 26  1  0  0  0
  7 29  1  0  0  0
  8  9  1  0  0  0
  8 22  1  0  0  0
  9 10  1  0  0  0
  9 27  2  0  0  0
 10 11  2  0  0  0
 10 15  1  0  0  0
 11 12  1  0  0  0
 11 90  1  0  0  0
 12 13  2  0  0  0
 12 91  1  0  0  0
 13 14  1  0  0  0
 13 31  1  0  0  0
 14 15  2  0  0  0
 14 92  1  0  0  0
 15 93  1  0  0  0
 16 17  2  0  0  0
 16 21  1  0  0  0
 16 31  1  0  0  0
 17 18  1  0  0  0
 17 94  1  0  0  0
 18 19  2  0  0  0
 18 95  1  0  0  0
 19 20  1  0  0  0
 19 24  1  0  0  0
 20 21  2  0  0  0
 20 96  1  0  0  0
 21 23  1  0  0  0
 22 28  1  0  0  0
 22 32  2  0  0  0
 26 27  1  0  0  0
 28 97  1  0  0  0
 28 98  1  0  0  0
 29 99  1  0  0  0
 29100  1  0  0  0
 33 34  1  0  0  0
 33 66  1  0  0  0
 33 70  2  0  0  0
 34 36  1  0  0  0
 34 59  1  0  0  0
 34101  1  0  0  0
 35 44  2  0  0  0
 35 45  1  0  0  0
 35 68  1  0  0  0
 36 56  1  0  0  0
 36102  1  0  0  0
 37 39  1  0  0  0
 37 47  1  0  0  0
 37 66  1  0  0  0
 37103  1  0  0  0
 38 43  2  0  0  0
 38 46  1  0  0  0
 38 47  1  0  0  0
 39 64  1  0  0  0
 39 67  2  0  0  0
 40 52  1  0  0  0
 40 53  2  0  0  0
 40 58  1  0  0  0
 41104  1  0  0  0
 41105  1  0  0  0
 41106  1  0  0  0
 41 48  1  0  0  0
 42 43  1  0  0  0
 42 66  1  0  0  0
 42107  1  0  0  0
 42108  1  0  0  0
 43 44  1  0  0  0
 44109  1  0  0  0
 45 46  2  0  0  0
 45110  1  0  0  0
 46111  1  0  0  0
 47112  1  0  0  0
 47113  1  0  0  0
 48 56  1  0  0  0
 48 65  1  0  0  0
 48114  1  0  0  0
 49 50  1  0  0  0
 49 53  1  0  0  0
 49 64  1  0  0  0
 49115  1  0  0  0
 50 51  1  0  0  0
 50116  1  0  0  0
 50117  1  0  0  0
 51 52  1  0  0  0
 51118  1  0  0  0
 51119  1  0  0  0
 52120  1  0  0  0
 52121  1  0  0  0
 53 54  1  0  0  0
 54 55  2  0  0  0
 54122  1  0  0  0
 55 57  1  0  0  0
 55123  1  0  0  0
 56 69  2  0  0  0
 57 58  2  0  0  0
 57124  1  0  0  0
 58125  1  0  0  0
 59 60  1  0  0  0
 59 61  1  0  0  0
 59 62  1  0  0  0
 60126  1  0  0  0
 60127  1  0  0  0
 60128  1  0  0  0
 61129  1  0  0  0
 61130  1  0  0  0
 61131  1  0  0  0
 62132  1  0  0  0
 62133  1  0  0  0
 62134  1  0  0  0
 63 65  1  0  0  0
 63135  1  0  0  0
 63136  1  0  0  0
 63137  1  0  0  0
 64138  1  0  0  0
 65139  1  0  0  0
 68 76  1  0  0  0
 71 73  1  0  0  0
 71 75  1  0  0  0
 71140  1  0  0  0
 71141  1  0  0  0
 72 74  1  0  0  0
 72 75  1  0  0  0
 72142  1  0  0  0
 72143  1  0  0  0
 73 76  1  0  0  0
 73144  1  0  0  0
 73145  1  0  0  0
 74 76  1  0  0  0
 74146  1  0  0  0
 74147  1  0  0  0
 75 80  1  0  0  0
 75148  1  0  0  0
 76149  1  0  0  0
 77 78  1  0  0  0
 77 79  1  0  0  0
 77150  1  0  0  0
 77151  1  0  0  0
 78 80  1  0  0  0
 78152  1  0  0  0
 78153  1  0  0  0
 79154  1  0  0  0
 80155  1  0  0  0
 80156  1  0  0  0
M  CHG  1  80   1
M  ISO  4   1 100  68 101  76 101  79 100
M  END
> <chiral flag>
0

> <version>
0

> <s_m_source_file>
/data/baiqing/PycharmProjects/Reinvent-master-3.2/result/LINK_invent/BTK/process_docking_weight1_custom_sum_contain_oxygen_bond_distance_aromatic_linkinvent_7_9_3/rearranged_h_0124.sdf

> <i_m_source_file_index>
31

> <r_mmod_Potential_Energy-OPLS-2005>
109.970108032227

> <r_mmod_Stretch_Energy-OPLS-2005>
166.52067565918

> <r_mmod_Bend_Energy-OPLS-2005>
208.302093505859

> <r_mmod_Torsional_Energy-OPLS-2005>
266.060607910156

> <r_mmod_Improper_Torsional_Energy-OPLS-2005>
5.09527206420898

> <r_mmod_Van_der_Waal_Energy-OPLS-2005>
123.2685546875

> <r_mmod_Electrostatic_Energy-OPLS-2005>
-295.378479003906

> <r_mmod_Solvation_Energy-OPLS-2005>
-489.438110351562

> <b_mmod_Minimization_Converged-OPLS-2005>
0

> <r_mmod_RMS_Derivative-OPLS-2005>
2.23052549362183

$$$$
31
                    3D
 Structure written by MMmdl.
159167  0  0  1  0            999 V2000
  -30.6177  -14.7985   20.4483 C   0  0  0  0  0  0
  -30.4305  -12.4929   19.4750 C   0  0  0  0  0  0
  -29.5076  -12.5062   18.2372 C   0  0  0  0  0  0
  -28.0388  -12.3189   18.6610 C   0  0  0  0  0  0
  -27.6368  -13.2385   19.8446 C   0  0  2  0  0  0
  -28.6840  -13.2174   20.9788 C   0  0  0  0  0  0
  -25.2496  -13.8212   20.5715 C   0  0  0  0  0  0
  -24.1796  -13.0451   20.9229 C   0  0  0  0  0  0
  -24.6397  -11.6932   20.8770 C   0  0  0  0  0  0
  -23.9081  -10.4305   21.0422 C   0  0  0  0  0  0
  -24.3628   -9.4217   21.9198 C   0  0  0  0  0  0
  -23.6302   -8.2251   22.0764 C   0  0  0  0  0  0
  -22.4286   -8.0289   21.3549 C   0  0  0  0  0  0
  -21.9927   -9.0268   20.4652 C   0  0  0  0  0  0
  -22.7257  -10.2146   20.3070 C   0  0  0  0  0  0
  -21.6852   -6.0745   22.5283 C   0  0  0  0  0  0
  -21.4008   -6.5646   23.8216 C   0  0  0  0  0  0
  -21.3658   -5.6801   24.9179 C   0  0  0  0  0  0
  -21.6045   -4.3064   24.7233 C   0  0  0  0  0  0
  -21.8814   -3.8157   23.4350 C   0  0  0  0  0  0
  -21.9190   -4.6973   22.3404 C   0  0  0  0  0  0
  -22.7816  -13.5228   21.1880 C   0  0  0  0  0  0
  -22.1660   -4.2159   21.0984 F   0  0  0  0  0  0
  -21.5630   -3.4546   25.7743 F   0  0  0  0  0  0
  -29.9746  -13.5777   20.3797 N   0  0  0  0  0  0
  -26.2919  -12.9429   20.3284 N   0  0  0  0  0  0
  -25.9328  -11.6568   20.5778 N   0  0  0  0  0  0
  -22.0457  -12.8225   22.0430 N   0  0  0  0  0  0
  -25.4182  -15.1941   20.4135 N   0  0  0  0  0  0
  -31.8201  -14.8508   20.1771 O   0  0  0  0  0  0
  -21.6644   -6.8892   21.4247 O   0  0  0  0  0  0
  -22.3508  -14.5537   20.6725 O   0  0  0  0  0  0
  -24.6349  -31.8513   23.1939 C   0  0  0  0  0  0
  -25.9157  -32.4736   23.8291 C   0  0  1  0  0  0
  -27.2254  -27.2278   20.1411 C   0  0  0  0  0  0
  -25.5936  -33.8542   24.2211 N   0  0  0  0  0  0
  -23.4347  -30.4698   21.5388 C   0  0  2  0  0  0
  -24.8832  -28.9061   20.1148 C   0  0  0  0  0  0
  -22.7517  -29.4573   22.4903 C   0  0  0  0  0  0
  -18.0290  -28.1393   22.8476 C   0  0  0  0  0  0
  -24.1487  -36.7276   23.2640 C   0  0  0  0  0  0
  -25.9822  -30.7519   21.3788 C   0  0  0  0  0  0
  -26.0568  -29.3704   20.7232 C   0  0  0  0  0  0
  -27.2320  -28.5473   20.7178 C   0  0  0  0  0  0
  -26.0292  -26.8365   19.5027 C   0  0  0  0  0  0
  -24.8763  -27.6481   19.4921 C   0  0  0  0  0  0
  -23.6563  -29.7983   20.1577 C   0  0  0  0  0  0
  -25.4122  -36.3057   24.0310 C   0  0  1  0  0  0
  -20.5896  -28.3707   23.1265 C   0  0  2  0  0  0
  -20.6783  -26.9420   22.5413 C   0  0  0  0  0  0
  -19.5763  -26.6383   21.5213 C   0  0  0  0  0  0
  -18.1933  -26.7935   22.1612 C   0  0  0  0  0  0
  -19.1543  -28.8864   23.2865 C   0  0  0  0  0  0
  -18.9468  -30.1468   23.8883 C   0  0  0  0  0  0
  -17.6463  -30.6598   24.0552 C   0  0  0  0  0  0
  -25.9068  -34.9431   23.5066 C   0  0  0  0  0  0
  -16.5352  -29.9091   23.6338 C   0  0  0  0  0  0
  -16.7275  -28.6514   23.0352 C   0  0  0  0  0  0
  -26.4508  -31.6590   25.0707 C   0  0  0  0  0  0
  -25.3703  -31.3749   26.1401 C   0  0  0  0  0  0
  -27.0388  -30.3002   24.6249 C   0  0  0  0  0  0
  -27.6034  -32.4368   25.7488 C   0  0  0  0  0  0
  -27.5578  -37.1787   24.8466 C   0  0  0  0  0  0
  -21.4219  -29.3049   22.3643 N   0  0  0  0  0  0
  -26.4288  -37.3767   23.9413 N   0  0  0  0  0  0
  -24.7028  -31.0433   22.0933 N   0  0  0  0  0  0
  -23.4190  -28.8106   23.3013 O   0  0  0  0  0  0
  -28.3244  -26.3279   20.1467 O   0  0  0  0  0  0
  -26.5650  -34.8912   22.4641 O   0  0  0  0  0  0
  -23.5494  -32.1362   23.7210 O   0  0  0  0  0  0
  -28.5842  -19.5399   20.9570 C   0  0  0  0  0  0
  -30.8620  -19.9797   20.2480 C   0  0  0  0  0  0
  -28.1481  -20.9973   20.4290 C   0  0  0  0  0  0
  -30.4436  -21.4087   19.7097 C   0  0  0  0  0  0
  -29.7914  -18.8265   20.2312 C   0  0  1  0  0  0
  -29.2434  -22.1402   20.4148 C   0  0  1  0  0  0
  -30.4317  -17.4154   20.8078 C   0  0  0  0  0  0
  -28.1459  -24.8694   20.5463 C   0  0  0  0  0  0
  -28.9364  -23.6495   19.7874 C   0  0  2  0  0  0
  -29.8884  -15.9804   20.6248 N   0  0  0  0  0  0
  -28.3964  -23.5065   18.4192 N   0  3  0  0  0  0
  -31.4691  -12.6197   19.1651 H   0  0  0  0  0  0
  -30.3858  -11.5279   19.9820 H   0  0  0  0  0  0
  -29.7987  -11.7189   17.5399 H   0  0  0  0  0  0
  -29.6203  -13.4503   17.7014 H   0  0  0  0  0  0
  -27.9155  -11.2745   18.9511 H   0  0  0  0  0  0
  -27.3738  -12.4790   17.8118 H   0  0  0  0  0  0
  -27.6186  -14.2513   19.4401 H   0  0  0  0  0  0
  -28.7361  -12.2350   21.4507 H   0  0  0  0  0  0
  -28.4139  -13.9251   21.7644 H   0  0  0  0  0  0
  -25.2765   -9.5690   22.4788 H   0  0  0  0  0  0
  -24.0006   -7.4641   22.7485 H   0  0  0  0  0  0
  -21.0861   -8.8797   19.8952 H   0  0  0  0  0  0
  -22.3720  -10.9697   19.6192 H   0  0  0  0  0  0
  -21.1994   -7.6155   23.9725 H   0  0  0  0  0  0
  -21.1483   -6.0529   25.9082 H   0  0  0  0  0  0
  -22.0591   -2.7618   23.2852 H   0  0  0  0  0  0
  -22.4052  -11.9867   22.4796 H   0  0  0  0  0  0
  -21.1093  -13.1284   22.2670 H   0  0  0  0  0  0
  -24.6508  -15.8473   20.5259 H   0  0  0  0  0  0
  -26.2653  -15.6350   20.0788 H   0  0  0  0  0  0
  -26.7214  -32.5369   23.1020 H   0  0  0  0  0  0
  -25.0067  -33.9667   25.0339 H   0  0  0  0  0  0
  -22.7340  -31.2928   21.3866 H   0  0  0  0  0  0
  -23.3751  -35.9604   23.3304 H   0  0  0  0  0  0
  -24.3565  -36.8922   22.2057 H   0  0  0  0  0  0
  -23.7242  -37.6463   23.6694 H   0  0  0  0  0  0
  -26.1282  -31.5088   20.6071 H   0  0  0  0  0  0
  -26.8562  -30.8011   22.0167 H   0  0  0  0  0  0
  -28.1338  -28.9040   21.1965 H   0  0  0  0  0  0
  -25.9741  -25.8783   19.0070 H   0  0  0  0  0  0
  -23.9801  -27.2894   19.0047 H   0  0  0  0  0  0
  -23.7841  -30.5724   19.4000 H   0  0  0  0  0  0
  -22.7740  -29.2342   19.8517 H   0  0  0  0  0  0
  -25.1303  -36.1878   25.0801 H   0  0  0  0  0  0
  -20.9979  -28.3288   24.1392 H   0  0  0  0  0  0
  -20.5695  -26.2307   23.3616 H   0  0  0  0  0  0
  -21.6649  -26.7452   22.1195 H   0  0  0  0  0  0
  -19.6928  -25.6289   21.1265 H   0  0  0  0  0  0
  -19.6714  -27.3166   20.6720 H   0  0  0  0  0  0
  -17.4208  -26.6683   21.4007 H   0  0  0  0  0  0
  -18.0328  -26.0075   22.9010 H   0  0  0  0  0  0
  -19.7939  -30.7289   24.2251 H   0  0  0  0  0  0
  -17.5019  -31.6282   24.5152 H   0  0  0  0  0  0
  -15.5354  -30.2981   23.7702 H   0  0  0  0  0  0
  -15.8668  -28.0842   22.7063 H   0  0  0  0  0  0
  -24.5890  -30.7091   25.7714 H   0  0  0  0  0  0
  -24.8863  -32.2917   26.4779 H   0  0  0  0  0  0
  -25.7974  -30.8951   27.0215 H   0  0  0  0  0  0
  -26.2998  -29.6711   24.1272 H   0  0  0  0  0  0
  -27.4056  -29.7309   25.4800 H   0  0  0  0  0  0
  -27.8872  -30.4272   23.9520 H   0  0  0  0  0  0
  -27.2622  -33.3697   26.1994 H   0  0  0  0  0  0
  -28.3866  -32.6905   25.0330 H   0  0  0  0  0  0
  -28.0681  -31.8553   26.5463 H   0  0  0  0  0  0
  -28.2575  -38.0103   24.7539 H   0  0  0  0  0  0
  -28.1097  -36.2634   24.6267 H   0  0  0  0  0  0
  -27.2299  -37.1401   25.8868 H   0  0  0  0  0  0
  -20.9414  -29.8773   21.6837 H   0  0  0  0  0  0
  -26.0155  -38.2828   24.1440 H   0  0  0  0  0  0
  -27.7183  -18.8780   20.9082 H   0  0  0  0  0  0
  -28.8232  -19.6232   22.0188 H   0  0  0  0  0  0
  -31.2262  -20.1004   21.2692 H   0  0  0  0  0  0
  -31.7303  -19.6501   19.6753 H   0  0  0  0  0  0
  -27.3030  -21.3411   21.0264 H   0  0  0  0  0  0
  -27.7564  -20.8724   19.4186 H   0  0  0  0  0  0
  -30.2283  -21.3108   18.6454 H   0  0  0  0  0  0
  -31.3212  -22.0552   19.7641 H   0  0  0  0  0  0
  -29.5071  -18.6579   19.1915 H   0  0  0  0  0  0
  -29.5457  -22.3038   21.4508 H   0  0  0  0  0  0
  -30.5874  -17.5432   21.8798 H   0  0  0  0  0  0
  -31.4421  -17.3781   20.3985 H   0  0  0  0  0  0
  -28.4645  -24.8384   21.5886 H   0  0  0  0  0  0
  -27.0865  -24.6177   20.5905 H   0  0  0  0  0  0
  -29.9319  -24.0768   19.6538 H   0  0  0  0  0  0
  -28.8952  -15.8625   20.7592 H   0  0  0  0  0  0
  -27.4742  -23.1064   18.4275 H   0  0  0  0  0  0
  -28.9914  -22.9211   17.8589 H   0  0  0  0  0  0
  -28.3461  -24.4049   17.9694 H   0  0  0  0  0  0
  1 25  1  0  0  0
  1 30  2  0  0  0
  1 80  1  0  0  0
  2  3  1  0  0  0
  2 25  1  0  0  0
  2 82  1  0  0  0
  2 83  1  0  0  0
  3  4  1  0  0  0
  3 84  1  0  0  0
  3 85  1  0  0  0
  4  5  1  0  0  0
  4 86  1  0  0  0
  4 87  1  0  0  0
  5  6  1  0  0  0
  5 26  1  0  0  0
  5 88  1  0  0  0
  6 25  1  0  0  0
  6 89  1  0  0  0
  6 90  1  0  0  0
  7  8  2  0  0  0
  7 26  1  0  0  0
  7 29  1  0  0  0
  8  9  1  0  0  0
  8 22  1  0  0  0
  9 10  1  0  0  0
  9 27  2  0  0  0
 10 11  2  0  0  0
 10 15  1  0  0  0
 11 12  1  0  0  0
 11 91  1  0  0  0
 12 13  2  0  0  0
 12 92  1  0  0  0
 13 14  1  0  0  0
 13 31  1  0  0  0
 14 15  2  0  0  0
 14 93  1  0  0  0
 15 94  1  0  0  0
 16 17  2  0  0  0
 16 21  1  0  0  0
 16 31  1  0  0  0
 17 18  1  0  0  0
 17 95  1  0  0  0
 18 19  2  0  0  0
 18 96  1  0  0  0
 19 20  1  0  0  0
 19 24  1  0  0  0
 20 21  2  0  0  0
 20 97  1  0  0  0
 21 23  1  0  0  0
 22 28  1  0  0  0
 22 32  2  0  0  0
 26 27  1  0  0  0
 28 98  1  0  0  0
 28 99  1  0  0  0
 29100  1  0  0  0
 29101  1  0  0  0
 33 34  1  0  0  0
 33 66  1  0  0  0
 33 70  2  0  0  0
 34 36  1  0  0  0
 34 59  1  0  0  0
 34102  1  0  0  0
 35 44  2  0  0  0
 35 45  1  0  0  0
 35 68  1  0  0  0
 36 56  1  0  0  0
 36103  1  0  0  0
 37 39  1  0  0  0
 37 47  1  0  0  0
 37 66  1  0  0  0
 37104  1  0  0  0
 38 43  2  0  0  0
 38 46  1  0  0  0
 38 47  1  0  0  0
 39 64  1  0  0  0
 39 67  2  0  0  0
 40 52  1  0  0  0
 40 53  2  0  0  0
 40 58  1  0  0  0
 41105  1  0  0  0
 41106  1  0  0  0
 41107  1  0  0  0
 41 48  1  0  0  0
 42 43  1  0  0  0
 42 66  1  0  0  0
 42108  1  0  0  0
 42109  1  0  0  0
 43 44  1  0  0  0
 44110  1  0  0  0
 45 46  2  0  0  0
 45111  1  0  0  0
 46112  1  0  0  0
 47113  1  0  0  0
 47114  1  0  0  0
 48 56  1  0  0  0
 48 65  1  0  0  0
 48115  1  0  0  0
 49 50  1  0  0  0
 49 53  1  0  0  0
 49 64  1  0  0  0
 49116  1  0  0  0
 50 51  1  0  0  0
 50117  1  0  0  0
 50118  1  0  0  0
 51 52  1  0  0  0
 51119  1  0  0  0
 51120  1  0  0  0
 52121  1  0  0  0
 52122  1  0  0  0
 53 54  1  0  0  0
 54 55  2  0  0  0
 54123  1  0  0  0
 55 57  1  0  0  0
 55124  1  0  0  0
 56 69  2  0  0  0
 57 58  2  0  0  0
 57125  1  0  0  0
 58126  1  0  0  0
 59 60  1  0  0  0
 59 61  1  0  0  0
 59 62  1  0  0  0
 60127  1  0  0  0
 60128  1  0  0  0
 60129  1  0  0  0
 61130  1  0  0  0
 61131  1  0  0  0
 61132  1  0  0  0
 62133  1  0  0  0
 62134  1  0  0  0
 62135  1  0  0  0
 63 65  1  0  0  0
 63136  1  0  0  0
 63137  1  0  0  0
 63138  1  0  0  0
 64139  1  0  0  0
 65140  1  0  0  0
 68 78  1  0  0  0
 71 73  1  0  0  0
 71 75  1  0  0  0
 71141  1  0  0  0
 71142  1  0  0  0
 72 74  1  0  0  0
 72 75  1  0  0  0
 72143  1  0  0  0
 72144  1  0  0  0
 73145  1  0  0  0
 73146  1  0  0  0
 73 76  1  0  0  0
 74 76  1  0  0  0
 74147  1  0  0  0
 74148  1  0  0  0
 75 77  1  0  0  0
 75149  1  0  0  0
 76 79  1  0  0  0
 76150  1  0  0  0
 77 80  1  0  0  0
 77151  1  0  0  0
 77152  1  0  0  0
 78 79  1  0  0  0
 78153  1  0  0  0
 78154  1  0  0  0
 79 81  1  0  0  0
 79155  1  0  0  0
 80156  1  0  0  0
 81157  1  0  0  0
 81158  1  0  0  0
 81159  1  0  0  0
M  CHG  1  81   1
M  ISO  4   1 100  68 101  78 101  80 100
M  END
> <chiral flag>
0

> <version>
0

> <s_m_source_file>
/data/baiqing/PycharmProjects/Reinvent-master-3.2/result/LINK_invent/BTK/process_docking_weight1_custom_sum_contain_oxygen_bond_distance_aromatic_linkinvent_7_9_3/rearranged_h_0124.sdf

> <i_m_source_file_index>
32

> <r_mmod_Potential_Energy-OPLS-2005>
105.75821685791

> <r_mmod_Stretch_Energy-OPLS-2005>
157.626968383789

> <r_mmod_Bend_Energy-OPLS-2005>
225.447448730469

> <r_mmod_Torsional_Energy-OPLS-2005>
272.315460205078

> <r_mmod_Improper_Torsional_Energy-OPLS-2005>
4.10552358627319

> <r_mmod_Van_der_Waal_Energy-OPLS-2005>
117.702911376953

> <r_mmod_Electrostatic_Energy-OPLS-2005>
-305.87646484375

> <r_mmod_Solvation_Energy-OPLS-2005>
-473.147644042969

> <b_mmod_Minimization_Converged-OPLS-2005>
0

> <r_mmod_RMS_Derivative-OPLS-2005>
1.44062352180481

$$$$
32
                    3D
 Structure written by MMmdl.
167176  0  0  1  0            999 V2000
  -30.5998  -14.7622   20.4495 C   0  0  0  0  0  0
  -30.4310  -12.4620   19.4828 C   0  0  0  0  0  0
  -29.5106  -12.5083   18.2424 C   0  0  0  0  0  0
  -28.0362  -12.3317   18.6531 C   0  0  0  0  0  0
  -27.6403  -13.2328   19.8529 C   0  0  2  0  0  0
  -28.6835  -13.1724   20.9904 C   0  0  0  0  0  0
  -25.2495  -13.8192   20.5690 C   0  0  0  0  0  0
  -24.1787  -13.0435   20.9196 C   0  0  0  0  0  0
  -24.6382  -11.6914   20.8740 C   0  0  0  0  0  0
  -23.9062  -10.4290   21.0401 C   0  0  0  0  0  0
  -24.3615   -9.4208   21.9180 C   0  0  0  0  0  0
  -23.6289   -8.2244   22.0758 C   0  0  0  0  0  0
  -22.4275   -8.0275   21.3545 C   0  0  0  0  0  0
  -21.9906   -9.0246   20.4649 C   0  0  0  0  0  0
  -22.7232  -10.2127   20.3055 C   0  0  0  0  0  0
  -21.6854   -6.0729   22.5271 C   0  0  0  0  0  0
  -21.4015   -6.5635   23.8201 C   0  0  0  0  0  0
  -21.3663   -5.6792   24.9165 C   0  0  0  0  0  0
  -21.6044   -4.3055   24.7220 C   0  0  0  0  0  0
  -21.8820   -3.8142   23.4343 C   0  0  0  0  0  0
  -21.9193   -4.6955   22.3397 C   0  0  0  0  0  0
  -22.7809  -13.5216   21.1854 C   0  0  0  0  0  0
  -22.1662   -4.2140   21.0976 F   0  0  0  0  0  0
  -21.5631   -3.4542   25.7736 F   0  0  0  0  0  0
  -29.9843  -13.5288   20.4109 N   0  0  0  0  0  0
  -26.2924  -12.9403   20.3290 N   0  0  0  0  0  0
  -25.9315  -11.6546   20.5759 N   0  0  0  0  0  0
  -22.0469  -12.8203   22.0417 N   0  0  0  0  0  0
  -25.4178  -15.1915   20.4103 N   0  0  0  0  0  0
  -31.7828  -14.8629   20.1125 O   0  0  0  0  0  0
  -21.6645   -6.8870   21.4235 O   0  0  0  0  0  0
  -22.3493  -14.5521   20.6702 O   0  0  0  0  0  0
  -24.6343  -31.8524   23.1969 C   0  0  0  0  0  0
  -25.9156  -32.4729   23.8322 C   0  0  1  0  0  0
  -27.2169  -27.2365   20.1174 C   0  0  0  0  0  0
  -25.5937  -33.8538   24.2231 N   0  0  0  0  0  0
  -23.4306  -30.4766   21.5410 C   0  0  2  0  0  0
  -24.8738  -28.9194   20.1091 C   0  0  0  0  0  0
  -22.7510  -29.4591   22.4904 C   0  0  0  0  0  0
  -18.0292  -28.1391   22.8485 C   0  0  0  0  0  0
  -24.1489  -36.7274   23.2641 C   0  0  0  0  0  0
  -25.9799  -30.7558   21.3811 C   0  0  0  0  0  0
  -26.0481  -29.3784   20.7177 C   0  0  0  0  0  0
  -27.2175  -28.5493   20.7100 C   0  0  0  0  0  0
  -26.0103  -26.8452   19.4931 C   0  0  0  0  0  0
  -24.8615  -27.6617   19.4895 C   0  0  0  0  0  0
  -23.6474  -29.8108   20.1573 C   0  0  0  0  0  0
  -25.4118  -36.3054   24.0319 C   0  0  1  0  0  0
  -20.5895  -28.3705   23.1263 C   0  0  2  0  0  0
  -20.6777  -26.9420   22.5411 C   0  0  0  0  0  0
  -19.5749  -26.6382   21.5219 C   0  0  0  0  0  0
  -18.1927  -26.7933   22.1624 C   0  0  0  0  0  0
  -19.1547  -28.8867   23.2867 C   0  0  0  0  0  0
  -18.9470  -30.1466   23.8884 C   0  0  0  0  0  0
  -17.6468  -30.6589   24.0566 C   0  0  0  0  0  0
  -25.9068  -34.9425   23.5082 C   0  0  0  0  0  0
  -16.5359  -29.9085   23.6342 C   0  0  0  0  0  0
  -16.7279  -28.6505   23.0358 C   0  0  0  0  0  0
  -26.4510  -31.6581   25.0739 C   0  0  0  0  0  0
  -25.3716  -31.3747   26.1448 C   0  0  0  0  0  0
  -27.0369  -30.2983   24.6279 C   0  0  0  0  0  0
  -27.6044  -32.4350   25.7510 C   0  0  0  0  0  0
  -27.5576  -37.1788   24.8461 C   0  0  0  0  0  0
  -21.4215  -29.3043   22.3645 N   0  0  0  0  0  0
  -26.4286  -37.3757   23.9409 N   0  0  0  0  0  0
  -24.7011  -31.0471   22.0952 N   0  0  0  0  0  0
  -23.4196  -28.8124   23.3009 O   0  0  0  0  0  0
  -28.3306  -26.3594   20.1940 O   0  0  0  0  0  0
  -26.5652  -34.8905   22.4658 O   0  0  0  0  0  0
  -23.5487  -32.1367   23.7244 O   0  0  0  0  0  0
  -28.2332  -23.7358   21.8764 C   0  0  0  0  0  0
  -28.7082  -21.3537   22.1245 C   0  0  0  0  0  0
  -28.3270  -22.5909   22.6939 C   0  0  0  0  0  0
  -28.5248  -23.6489   20.5066 C   0  0  0  0  0  0
  -28.9922  -21.2557   20.7507 C   0  0  0  0  0  0
  -27.1771  -21.5988   24.7672 C   0  0  0  0  0  0
  -29.3718  -22.8144   24.9831 C   0  0  0  0  0  0
  -26.9320  -21.8245   26.2713 C   0  0  0  0  0  0
  -29.0938  -23.0072   26.4857 C   0  0  0  0  0  0
  -28.0587  -22.7237   24.1868 C   0  0  0  0  0  0
  -28.3827  -24.9639   19.6031 C   0  0  0  0  0  0
  -29.2876  -18.6052   20.8407 C   0  0  0  0  0  0
  -30.1401  -17.3535   20.2420 C   0  0  0  0  0  0
  -28.8985  -22.4065   19.9713 N   0  0  0  0  0  0
  -29.3994  -19.9814   20.1870 N   0  0  0  0  0  0
  -29.8232  -15.9015   20.6355 N   0  0  0  0  0  0
  -28.2093  -21.9425   27.0103 N   0  3  0  0  0  0
  -31.4730  -12.5845   19.1832 H   0  0  0  0  0  0
  -30.3746  -11.4875   19.9705 H   0  0  0  0  0  0
  -29.7956  -11.7338   17.5294 H   0  0  0  0  0  0
  -29.6348  -13.4614   17.7256 H   0  0  0  0  0  0
  -27.8919  -11.2826   18.9157 H   0  0  0  0  0  0
  -27.3801  -12.5235   17.8034 H   0  0  0  0  0  0
  -27.6328  -14.2531   19.4693 H   0  0  0  0  0  0
  -28.7209  -12.1748   21.4305 H   0  0  0  0  0  0
  -28.4164  -13.8542   21.7994 H   0  0  0  0  0  0
  -25.2759   -9.5686   22.4752 H   0  0  0  0  0  0
  -23.9995   -7.4643   22.7485 H   0  0  0  0  0  0
  -21.0836   -8.8759   19.8960 H   0  0  0  0  0  0
  -22.3681  -10.9661   19.6166 H   0  0  0  0  0  0
  -21.2011   -7.6144   23.9696 H   0  0  0  0  0  0
  -21.1486   -6.0528   25.9065 H   0  0  0  0  0  0
  -22.0600   -2.7604   23.2845 H   0  0  0  0  0  0
  -22.4106  -11.9865   22.4791 H   0  0  0  0  0  0
  -21.1091  -13.1218   22.2645 H   0  0  0  0  0  0
  -24.6463  -15.8418   20.5134 H   0  0  0  0  0  0
  -26.2587  -15.6301   20.0581 H   0  0  0  0  0  0
  -26.7216  -32.5353   23.1051 H   0  0  0  0  0  0
  -25.0061  -33.9676   25.0360 H   0  0  0  0  0  0
  -22.7291  -31.3005   21.3943 H   0  0  0  0  0  0
  -23.3751  -35.9603   23.3297 H   0  0  0  0  0  0
  -24.3575  -36.8922   22.2059 H   0  0  0  0  0  0
  -23.7247  -37.6470   23.6684 H   0  0  0  0  0  0
  -26.1326  -31.5183   20.6158 H   0  0  0  0  0  0
  -26.8522  -30.7939   22.0226 H   0  0  0  0  0  0
  -28.1174  -28.8962   21.1985 H   0  0  0  0  0  0
  -25.8959  -25.8828   19.0233 H   0  0  0  0  0  0
  -23.9571  -27.3008   19.0175 H   0  0  0  0  0  0
  -23.7744  -30.5876   19.4027 H   0  0  0  0  0  0
  -22.7632  -29.2490   19.8509 H   0  0  0  0  0  0
  -25.1297  -36.1897   25.0810 H   0  0  0  0  0  0
  -20.9996  -28.3295   24.1382 H   0  0  0  0  0  0
  -20.5685  -26.2315   23.3620 H   0  0  0  0  0  0
  -21.6640  -26.7442   22.1193 H   0  0  0  0  0  0
  -19.6913  -25.6292   21.1251 H   0  0  0  0  0  0
  -19.6688  -27.3192   20.6749 H   0  0  0  0  0  0
  -17.4199  -26.6697   21.4023 H   0  0  0  0  0  0
  -18.0314  -26.0074   22.9022 H   0  0  0  0  0  0
  -19.7947  -30.7289   24.2236 H   0  0  0  0  0  0
  -17.5021  -31.6265   24.5173 H   0  0  0  0  0  0
  -15.5356  -30.2979   23.7673 H   0  0  0  0  0  0
  -15.8681  -28.0819   22.7079 H   0  0  0  0  0  0
  -24.5900  -30.7083   25.7782 H   0  0  0  0  0  0
  -24.8890  -32.2916   26.4841 H   0  0  0  0  0  0
  -25.8013  -30.8956   27.0253 H   0  0  0  0  0  0
  -26.2982  -29.6710   24.1278 H   0  0  0  0  0  0
  -27.3993  -29.7275   25.4841 H   0  0  0  0  0  0
  -27.8875  -30.4229   23.9572 H   0  0  0  0  0  0
  -27.2636  -33.3663   26.2042 H   0  0  0  0  0  0
  -28.3863  -32.6905   25.0347 H   0  0  0  0  0  0
  -28.0694  -31.8518   26.5468 H   0  0  0  0  0  0
  -28.2576  -38.0102   24.7520 H   0  0  0  0  0  0
  -28.1086  -36.2633   24.6263 H   0  0  0  0  0  0
  -27.2294  -37.1413   25.8863 H   0  0  0  0  0  0
  -20.9407  -29.8774   21.6856 H   0  0  0  0  0  0
  -26.0160  -38.2824   24.1424 H   0  0  0  0  0  0
  -27.9449  -24.6915   22.2940 H   0  0  0  0  0  0
  -28.8001  -20.4884   22.7619 H   0  0  0  0  0  0
  -26.2245  -21.5599   24.2379 H   0  0  0  0  0  0
  -27.6451  -20.6245   24.6302 H   0  0  0  0  0  0
  -29.9680  -21.9148   24.8255 H   0  0  0  0  0  0
  -29.9719  -23.6473   24.6145 H   0  0  0  0  0  0
  -26.3492  -21.0022   26.6876 H   0  0  0  0  0  0
  -26.3442  -22.7310   26.4235 H   0  0  0  0  0  0
  -28.6249  -23.9776   26.6554 H   0  0  0  0  0  0
  -30.0298  -23.0123   27.0455 H   0  0  0  0  0  0
  -27.5165  -23.6605   24.3297 H   0  0  0  0  0  0
  -27.5884  -24.7776   18.8864 H   0  0  0  0  0  0
  -29.2779  -24.9725   18.9814 H   0  0  0  0  0  0
  -29.5453  -18.6946   21.8956 H   0  0  0  0  0  0
  -28.2295  -18.3399   20.8193 H   0  0  0  0  0  0
  -31.1963  -17.5346   20.4481 H   0  0  0  0  0  0
  -30.0516  -17.3851   19.1557 H   0  0  0  0  0  0
  -29.5933  -19.9791   19.1912 H   0  0  0  0  0  0
  -28.8688  -15.7230   20.9105 H   0  0  0  0  0  0
  -28.6955  -21.0610   26.9836 H   0  0  0  0  0  0
  -28.0086  -22.1366   27.9789 H   0  0  0  0  0  0
  1 25  1  0  0  0
  1 30  2  0  0  0
  1 86  1  0  0  0
  2  3  1  0  0  0
  2 25  1  0  0  0
  2 88  1  0  0  0
  2 89  1  0  0  0
  3  4  1  0  0  0
  3 90  1  0  0  0
  3 91  1  0  0  0
  4  5  1  0  0  0
  4 92  1  0  0  0
  4 93  1  0  0  0
  5  6  1  0  0  0
  5 26  1  0  0  0
  5 94  1  0  0  0
  6 25  1  0  0  0
  6 95  1  0  0  0
  6 96  1  0  0  0
  7  8  2  0  0  0
  7 26  1  0  0  0
  7 29  1  0  0  0
  8  9  1  0  0  0
  8 22  1  0  0  0
  9 10  1  0  0  0
  9 27  2  0  0  0
 10 11  2  0  0  0
 10 15  1  0  0  0
 11 12  1  0  0  0
 11 97  1  0  0  0
 12 13  2  0  0  0
 12 98  1  0  0  0
 13 14  1  0  0  0
 13 31  1  0  0  0
 14 15  2  0  0  0
 14 99  1  0  0  0
 15100  1  0  0  0
 16 17  2  0  0  0
 16 21  1  0  0  0
 16 31  1  0  0  0
 17 18  1  0  0  0
 17101  1  0  0  0
 18 19  2  0  0  0
 18102  1  0  0  0
 19 20  1  0  0  0
 19 24  1  0  0  0
 20 21  2  0  0  0
 20103  1  0  0  0
 21 23  1  0  0  0
 22 28  1  0  0  0
 22 32  2  0  0  0
 26 27  1  0  0  0
 28104  1  0  0  0
 28105  1  0  0  0
 29106  1  0  0  0
 29107  1  0  0  0
 33 34  1  0  0  0
 33 66  1  0  0  0
 33 70  2  0  0  0
 34 36  1  0  0  0
 34 59  1  0  0  0
 34108  1  0  0  0
 35 44  2  0  0  0
 35 45  1  0  0  0
 35 68  1  0  0  0
 36 56  1  0  0  0
 36109  1  0  0  0
 37 39  1  0  0  0
 37 47  1  0  0  0
 37 66  1  0  0  0
 37110  1  0  0  0
 38 43  2  0  0  0
 38 46  1  0  0  0
 38 47  1  0  0  0
 39 64  1  0  0  0
 39 67  2  0  0  0
 40 52  1  0  0  0
 40 53  2  0  0  0
 40 58  1  0  0  0
 41111  1  0  0  0
 41112  1  0  0  0
 41113  1  0  0  0
 41 48  1  0  0  0
 42 43  1  0  0  0
 42 66  1  0  0  0
 42114  1  0  0  0
 42115  1  0  0  0
 43 44  1  0  0  0
 44116  1  0  0  0
 45 46  2  0  0  0
 45117  1  0  0  0
 46118  1  0  0  0
 47119  1  0  0  0
 47120  1  0  0  0
 48 56  1  0  0  0
 48 65  1  0  0  0
 48121  1  0  0  0
 49 50  1  0  0  0
 49 53  1  0  0  0
 49 64  1  0  0  0
 49122  1  0  0  0
 50 51  1  0  0  0
 50123  1  0  0  0
 50124  1  0  0  0
 51 52  1  0  0  0
 51125  1  0  0  0
 51126  1  0  0  0
 52127  1  0  0  0
 52128  1  0  0  0
 53 54  1  0  0  0
 54 55  2  0  0  0
 54129  1  0  0  0
 55 57  1  0  0  0
 55130  1  0  0  0
 56 69  2  0  0  0
 57 58  2  0  0  0
 57131  1  0  0  0
 58132  1  0  0  0
 59 60  1  0  0  0
 59 61  1  0  0  0
 59 62  1  0  0  0
 60133  1  0  0  0
 60134  1  0  0  0
 60135  1  0  0  0
 61136  1  0  0  0
 61137  1  0  0  0
 61138  1  0  0  0
 62139  1  0  0  0
 62140  1  0  0  0
 62141  1  0  0  0
 63 65  1  0  0  0
 63142  1  0  0  0
 63143  1  0  0  0
 63144  1  0  0  0
 64145  1  0  0  0
 65146  1  0  0  0
 68 81  1  0  0  0
 71 73  2  0  0  0
 71 74  1  0  0  0
 71147  1  0  0  0
 72 73  1  0  0  0
 72 75  2  0  0  0
 72148  1  0  0  0
 73 80  1  0  0  0
 74 81  1  0  0  0
 74 84  2  0  0  0
 75 84  1  0  0  0
 75 85  1  0  0  0
 76 78  1  0  0  0
 76 80  1  0  0  0
 76149  1  0  0  0
 76150  1  0  0  0
 77 79  1  0  0  0
 77 80  1  0  0  0
 77151  1  0  0  0
 77152  1  0  0  0
 78 87  1  0  0  0
 78153  1  0  0  0
 78154  1  0  0  0
 79 87  1  0  0  0
 79155  1  0  0  0
 79156  1  0  0  0
 80157  1  0  0  0
 81158  1  0  0  0
 81159  1  0  0  0
 82 83  1  0  0  0
 82 85  1  0  0  0
 82160  1  0  0  0
 82161  1  0  0  0
 83 86  1  0  0  0
 83162  1  0  0  0
 83163  1  0  0  0
 85164  1  0  0  0
 86165  1  0  0  0
 87166  1  0  0  0
 87167  1  0  0  0
M  CHG  1  87   1
M  ISO  4   1 100  68 101  81 101  86 100
M  END
> <chiral flag>
0

> <version>
0

> <s_m_source_file>
/data/baiqing/PycharmProjects/Reinvent-master-3.2/result/LINK_invent/BTK/process_docking_weight1_custom_sum_contain_oxygen_bond_distance_aromatic_linkinvent_7_9_3/rearranged_h_0124.sdf

> <i_m_source_file_index>
33

> <r_mmod_Potential_Energy-OPLS-2005>
-285.185729980469

> <r_mmod_Stretch_Energy-OPLS-2005>
133.377136230469

> <r_mmod_Bend_Energy-OPLS-2005>
187.737274169922

> <r_mmod_Torsional_Energy-OPLS-2005>
231.004196166992

> <r_mmod_Improper_Torsional_Energy-OPLS-2005>
6.36775588989258

> <r_mmod_Van_der_Waal_Energy-OPLS-2005>
144.962905883789

> <r_mmod_Electrostatic_Energy-OPLS-2005>
-563.907409667969

> <r_mmod_Solvation_Energy-OPLS-2005>
-518.753967285156

> <b_mmod_Minimization_Converged-OPLS-2005>
0

> <r_mmod_RMS_Derivative-OPLS-2005>
1.01314735412598

$$$$
33
                    3D
 Structure written by MMmdl.
170179  0  0  1  0            999 V2000
  -30.6610  -14.5769   20.5059 C   0  0  0  0  0  0
  -30.4254  -12.3544   19.4444 C   0  0  0  0  0  0
  -29.5011  -12.5001   18.2163 C   0  0  0  0  0  0
  -28.0209  -12.3539   18.6252 C   0  0  0  0  0  0
  -27.6522  -13.2129   19.8653 C   0  0  2  0  0  0
  -28.6964  -13.0424   20.9899 C   0  0  0  0  0  0
  -25.2555  -13.8167   20.5691 C   0  0  0  0  0  0
  -24.1815  -13.0439   20.9185 C   0  0  0  0  0  0
  -24.6380  -11.6908   20.8737 C   0  0  0  0  0  0
  -23.9047  -10.4294   21.0405 C   0  0  0  0  0  0
  -24.3602   -9.4211   21.9181 C   0  0  0  0  0  0
  -23.6280   -8.2245   22.0752 C   0  0  0  0  0  0
  -22.4264   -8.0278   21.3542 C   0  0  0  0  0  0
  -21.9894   -9.0253   20.4647 C   0  0  0  0  0  0
  -22.7218  -10.2135   20.3053 C   0  0  0  0  0  0
  -21.6852   -6.0727   22.5273 C   0  0  0  0  0  0
  -21.4018   -6.5632   23.8205 C   0  0  0  0  0  0
  -21.3662   -5.6785   24.9168 C   0  0  0  0  0  0
  -21.6047   -4.3048   24.7222 C   0  0  0  0  0  0
  -21.8823   -3.8139   23.4343 C   0  0  0  0  0  0
  -21.9194   -4.6955   22.3399 C   0  0  0  0  0  0
  -22.7839  -13.5237   21.1846 C   0  0  0  0  0  0
  -22.1662   -4.2143   21.0976 F   0  0  0  0  0  0
  -21.5628   -3.4531   25.7733 F   0  0  0  0  0  0
  -30.0107  -13.3758   20.4248 N   0  0  0  0  0  0
  -26.2981  -12.9342   20.3337 N   0  0  0  0  0  0
  -25.9303  -11.6498   20.5754 N   0  0  0  0  0  0
  -22.0477  -12.8239   22.0410 N   0  0  0  0  0  0
  -25.4269  -15.1885   20.4106 N   0  0  0  0  0  0
  -31.8360  -14.6862   20.1398 O   0  0  0  0  0  0
  -21.6634   -6.8871   21.4235 O   0  0  0  0  0  0
  -22.3526  -14.5540   20.6686 O   0  0  0  0  0  0
  -24.6203  -31.8631   23.2051 C   0  0  0  0  0  0
  -25.9075  -32.4792   23.8361 C   0  0  1  0  0  0
  -27.2279  -27.3700   20.0971 C   0  0  0  0  0  0
  -25.5907  -33.8591   24.2291 N   0  0  0  0  0  0
  -23.4100  -30.4873   21.5471 C   0  0  2  0  0  0
  -24.8541  -28.9474   20.1104 C   0  0  0  0  0  0
  -22.7437  -29.4637   22.4960 C   0  0  0  0  0  0
  -18.0279  -28.1376   22.8489 C   0  0  0  0  0  0
  -24.1487  -36.7299   23.2637 C   0  0  0  0  0  0
  -25.9455  -30.8084   21.3677 C   0  0  0  0  0  0
  -26.0182  -29.4393   20.7114 C   0  0  0  0  0  0
  -27.2030  -28.6573   20.7027 C   0  0  0  0  0  0
  -26.0323  -26.9033   19.5025 C   0  0  0  0  0  0
  -24.8594  -27.6816   19.5035 C   0  0  0  0  0  0
  -23.6203  -29.8220   20.1611 C   0  0  0  0  0  0
  -25.4106  -36.3088   24.0332 C   0  0  1  0  0  0
  -20.5873  -28.3669   23.1303 C   0  0  2  0  0  0
  -20.6769  -26.9398   22.5415 C   0  0  0  0  0  0
  -19.5747  -26.6381   21.5209 C   0  0  0  0  0  0
  -18.1926  -26.7921   22.1623 C   0  0  0  0  0  0
  -19.1531  -28.8840   23.2894 C   0  0  0  0  0  0
  -18.9455  -30.1444   23.8911 C   0  0  0  0  0  0
  -17.6458  -30.6580   24.0565 C   0  0  0  0  0  0
  -25.9040  -34.9456   23.5111 C   0  0  0  0  0  0
  -16.5349  -29.9084   23.6327 C   0  0  0  0  0  0
  -16.7268  -28.6497   23.0350 C   0  0  0  0  0  0
  -26.4476  -31.6589   25.0713 C   0  0  0  0  0  0
  -25.3734  -31.3720   26.1460 C   0  0  0  0  0  0
  -27.0306  -30.3020   24.6128 C   0  0  0  0  0  0
  -27.6046  -32.4315   25.7482 C   0  0  0  0  0  0
  -27.5581  -37.1794   24.8457 C   0  0  0  0  0  0
  -21.4159  -29.3031   22.3702 N   0  0  0  0  0  0
  -26.4284  -37.3781   23.9416 N   0  0  0  0  0  0
  -24.6771  -31.0687   22.0977 N   0  0  0  0  0  0
  -23.4184  -28.8182   23.3022 O   0  0  0  0  0  0
  -28.3901  -26.6033   20.1552 O   0  0  0  0  0  0
  -26.5609  -34.8920   22.4677 O   0  0  0  0  0  0
  -23.5383  -32.1408   23.7419 O   0  0  0  0  0  0
  -28.0906  -22.9260   19.6114 C   0  0  0  0  0  0
  -28.4052  -21.6045   20.0212 C   0  0  0  0  0  0
  -28.8721  -24.0463   19.9934 C   0  0  0  0  0  0
  -29.9871  -23.7980   20.8462 C   0  0  0  0  0  0
  -30.3041  -22.4619   21.2679 C   0  0  0  0  0  0
  -29.5230  -21.3427   20.8449 C   0  0  0  0  0  0
  -32.3162  -21.8911   24.5971 C   0  0  0  0  0  0
  -29.4935  -17.7001   22.0334 C   0  0  0  0  0  0
  -30.2318  -18.1042   19.7106 C   0  0  0  0  0  0
  -29.1363  -16.2240   21.6799 C   0  0  0  0  0  0
  -29.8389  -16.6373   19.3638 C   0  0  0  0  0  0
  -29.3936  -18.7085   20.8585 C   0  0  0  0  0  0
  -30.8873  -24.9540   21.2796 C   0  0  0  0  0  0
  -31.5173  -22.2183   22.1791 C   0  0  0  0  0  0
  -28.5906  -25.4268   19.3183 C   0  0  0  0  0  0
  -31.1326  -22.1886   23.6751 C   0  0  0  0  0  0
  -29.8641  -15.6967   20.5094 N   0  0  0  0  0  0
  -29.8885  -20.0374   21.2825 N   0  0  0  0  0  0
  -32.0844  -21.7771   25.8171 O   0  5  0  0  0  0
  -33.4638  -21.7744   24.1221 O   0  0  0  0  0  0
  -31.4696  -12.4582   19.1450 H   0  0  0  0  0  0
  -30.3384  -11.3562   19.8761 H   0  0  0  0  0  0
  -29.7553  -11.7541   17.4619 H   0  0  0  0  0  0
  -29.6599  -13.4736   17.7490 H   0  0  0  0  0  0
  -27.8431  -11.2993   18.8408 H   0  0  0  0  0  0
  -27.3707  -12.6062   17.7864 H   0  0  0  0  0  0
  -27.6771  -14.2528   19.5402 H   0  0  0  0  0  0
  -28.6971  -12.0148   21.3566 H   0  0  0  0  0  0
  -28.4487  -13.6587   21.8515 H   0  0  0  0  0  0
  -25.2753   -9.5690   22.4748 H   0  0  0  0  0  0
  -23.9993   -7.4639   22.7472 H   0  0  0  0  0  0
  -21.0825   -8.8770   19.8954 H   0  0  0  0  0  0
  -22.3679  -10.9668   19.6154 H   0  0  0  0  0  0
  -21.2012   -7.6140   23.9706 H   0  0  0  0  0  0
  -21.1479   -6.0515   25.9071 H   0  0  0  0  0  0
  -22.0601   -2.7600   23.2843 H   0  0  0  0  0  0
  -22.4082  -11.9904   22.4812 H   0  0  0  0  0  0
  -21.1098  -13.1273   22.2611 H   0  0  0  0  0  0
  -24.6627  -15.8454   20.5236 H   0  0  0  0  0  0
  -26.2836  -15.6265   20.0981 H   0  0  0  0  0  0
  -26.7143  -32.5472   23.1110 H   0  0  0  0  0  0
  -25.0057  -33.9740   25.0439 H   0  0  0  0  0  0
  -22.7011  -31.3058   21.4073 H   0  0  0  0  0  0
  -23.3748  -35.9632   23.3287 H   0  0  0  0  0  0
  -24.3590  -36.8929   22.2054 H   0  0  0  0  0  0
  -23.7239  -37.6497   23.6666 H   0  0  0  0  0  0
  -26.0695  -31.5736   20.6003 H   0  0  0  0  0  0
  -26.8293  -30.8582   21.9919 H   0  0  0  0  0  0
  -28.0991  -29.0317   21.1772 H   0  0  0  0  0  0
  -25.9577  -25.9226   19.0606 H   0  0  0  0  0  0
  -23.9599  -27.2911   19.0477 H   0  0  0  0  0  0
  -23.7348  -30.5981   19.4035 H   0  0  0  0  0  0
  -22.7416  -29.2475   19.8622 H   0  0  0  0  0  0
  -25.1283  -36.1936   25.0824 H   0  0  0  0  0  0
  -20.9969  -28.3240   24.1420 H   0  0  0  0  0  0
  -20.5668  -26.2273   23.3605 H   0  0  0  0  0  0
  -21.6641  -26.7436   22.1210 H   0  0  0  0  0  0
  -19.6908  -25.6295   21.1231 H   0  0  0  0  0  0
  -19.6685  -27.3200   20.6744 H   0  0  0  0  0  0
  -17.4194  -26.6668   21.4026 H   0  0  0  0  0  0
  -18.0329  -26.0061   22.9021 H   0  0  0  0  0  0
  -19.7935  -30.7253   24.2287 H   0  0  0  0  0  0
  -17.5015  -31.6266   24.5162 H   0  0  0  0  0  0
  -15.5349  -30.2987   23.7645 H   0  0  0  0  0  0
  -15.8668  -28.0817   22.7062 H   0  0  0  0  0  0
  -24.5897  -30.7073   25.7805 H   0  0  0  0  0  0
  -24.8936  -32.2889   26.4898 H   0  0  0  0  0  0
  -25.8078  -30.8896   27.0226 H   0  0  0  0  0  0
  -26.2861  -29.6780   24.1170 H   0  0  0  0  0  0
  -27.4045  -29.7257   25.4600 H   0  0  0  0  0  0
  -27.8712  -30.4315   23.9306 H   0  0  0  0  0  0
  -27.2655  -33.3609   26.2070 H   0  0  0  0  0  0
  -28.3848  -32.6883   25.0305 H   0  0  0  0  0  0
  -28.0719  -31.8433   26.5388 H   0  0  0  0  0  0
  -28.2576  -38.0114   24.7538 H   0  0  0  0  0  0
  -28.1099  -36.2648   24.6233 H   0  0  0  0  0  0
  -27.2314  -37.1389   25.8863 H   0  0  0  0  0  0
  -20.9318  -29.8746   21.6920 H   0  0  0  0  0  0
  -26.0161  -38.2851   24.1445 H   0  0  0  0  0  0
  -27.2457  -23.0712   18.9529 H   0  0  0  0  0  0
  -27.7767  -20.7943   19.6820 H   0  0  0  0  0  0
  -30.5098  -17.7116   22.4310 H   0  0  0  0  0  0
  -28.8516  -18.0315   22.8513 H   0  0  0  0  0  0
  -30.1308  -18.7238   18.8180 H   0  0  0  0  0  0
  -31.2900  -18.1270   19.9746 H   0  0  0  0  0  0
  -28.0670  -16.1455   21.4812 H   0  0  0  0  0  0
  -29.3339  -15.6037   22.5556 H   0  0  0  0  0  0
  -30.4798  -16.2780   18.5562 H   0  0  0  0  0  0
  -28.8280  -16.6260   18.9539 H   0  0  0  0  0  0
  -28.3509  -18.7865   20.5475 H   0  0  0  0  0  0
  -30.4902  -25.9383   21.0518 H   0  0  0  0  0  0
  -31.8571  -24.8816   20.7867 H   0  0  0  0  0  0
  -31.0476  -24.9364   22.3573 H   0  0  0  0  0  0
  -32.2897  -22.9662   22.0111 H   0  0  0  0  0  0
  -32.0101  -21.2866   21.9008 H   0  0  0  0  0  0
  -27.8409  -25.3071   18.5403 H   0  0  0  0  0  0
  -29.4908  -25.6484   18.7443 H   0  0  0  0  0  0
  -30.6938  -23.1443   23.9647 H   0  0  0  0  0  0
  -30.3649  -21.4315   23.8426 H   0  0  0  0  0  0
  -30.6527  -20.0106   21.9494 H   0  0  0  0  0  0
  1 25  1  0  0  0
  1 30  2  0  0  0
  1 87  1  0  0  0
  2  3  1  0  0  0
  2 25  1  0  0  0
  2 91  1  0  0  0
  2 92  1  0  0  0
  3  4  1  0  0  0
  3 93  1  0  0  0
  3 94  1  0  0  0
  4  5  1  0  0  0
  4 95  1  0  0  0
  4 96  1  0  0  0
  5  6  1  0  0  0
  5 26  1  0  0  0
  5 97  1  0  0  0
  6 25  1  0  0  0
  6 98  1  0  0  0
  6 99  1  0  0  0
  7  8  2  0  0  0
  7 26  1  0  0  0
  7 29  1  0  0  0
  8  9  1  0  0  0
  8 22  1  0  0  0
  9 10  1  0  0  0
  9 27  2  0  0  0
 10 11  2  0  0  0
 10 15  1  0  0  0
 11 12  1  0  0  0
 11100  1  0  0  0
 12 13  2  0  0  0
 12101  1  0  0  0
 13 14  1  0  0  0
 13 31  1  0  0  0
 14 15  2  0  0  0
 14102  1  0  0  0
 15103  1  0  0  0
 16 17  2  0  0  0
 16 21  1  0  0  0
 16 31  1  0  0  0
 17 18  1  0  0  0
 17104  1  0  0  0
 18 19  2  0  0  0
 18105  1  0  0  0
 19 20  1  0  0  0
 19 24  1  0  0  0
 20 21  2  0  0  0
 20106  1  0  0  0
 21 23  1  0  0  0
 22 28  1  0  0  0
 22 32  2  0  0  0
 26 27  1  0  0  0
 28107  1  0  0  0
 28108  1  0  0  0
 29109  1  0  0  0
 29110  1  0  0  0
 33 34  1  0  0  0
 33 66  1  0  0  0
 33 70  2  0  0  0
 34 36  1  0  0  0
 34 59  1  0  0  0
 34111  1  0  0  0
 35 44  2  0  0  0
 35 45  1  0  0  0
 35 68  1  0  0  0
 36 56  1  0  0  0
 36112  1  0  0  0
 37 39  1  0  0  0
 37 47  1  0  0  0
 37 66  1  0  0  0
 37113  1  0  0  0
 38 43  2  0  0  0
 38 46  1  0  0  0
 38 47  1  0  0  0
 39 64  1  0  0  0
 39 67  2  0  0  0
 40 52  1  0  0  0
 40 53  2  0  0  0
 40 58  1  0  0  0
 41114  1  0  0  0
 41115  1  0  0  0
 41116  1  0  0  0
 41 48  1  0  0  0
 42 43  1  0  0  0
 42 66  1  0  0  0
 42117  1  0  0  0
 42118  1  0  0  0
 43 44  1  0  0  0
 44119  1  0  0  0
 45 46  2  0  0  0
 45120  1  0  0  0
 46121  1  0  0  0
 47122  1  0  0  0
 47123  1  0  0  0
 48 56  1  0  0  0
 48 65  1  0  0  0
 48124  1  0  0  0
 49 50  1  0  0  0
 49 53  1  0  0  0
 49 64  1  0  0  0
 49125  1  0  0  0
 50 51  1  0  0  0
 50126  1  0  0  0
 50127  1  0  0  0
 51 52  1  0  0  0
 51128  1  0  0  0
 51129  1  0  0  0
 52130  1  0  0  0
 52131  1  0  0  0
 53 54  1  0  0  0
 54 55  2  0  0  0
 54132  1  0  0  0
 55 57  1  0  0  0
 55133  1  0  0  0
 56 69  2  0  0  0
 57 58  2  0  0  0
 57134  1  0  0  0
 58135  1  0  0  0
 59 60  1  0  0  0
 59 61  1  0  0  0
 59 62  1  0  0  0
 60136  1  0  0  0
 60137  1  0  0  0
 60138  1  0  0  0
 61139  1  0  0  0
 61140  1  0  0  0
 61141  1  0  0  0
 62142  1  0  0  0
 62143  1  0  0  0
 62144  1  0  0  0
 63 65  1  0  0  0
 63145  1  0  0  0
 63146  1  0  0  0
 63147  1  0  0  0
 64148  1  0  0  0
 65149  1  0  0  0
 68 85  1  0  0  0
 71 72  2  0  0  0
 71 73  1  0  0  0
 71150  1  0  0  0
 72 76  1  0  0  0
 72151  1  0  0  0
 73 74  2  0  0  0
 73 85  1  0  0  0
 74 75  1  0  0  0
 74 83  1  0  0  0
 75 76  2  0  0  0
 75 84  1  0  0  0
 76 88  1  0  0  0
 77 86  1  0  0  0
 77 89  1  0  0  0
 77 90  2  0  0  0
 78 80  1  0  0  0
 78 82  1  0  0  0
 78152  1  0  0  0
 78153  1  0  0  0
 79 81  1  0  0  0
 79 82  1  0  0  0
 79154  1  0  0  0
 79155  1  0  0  0
 80 87  1  0  0  0
 80156  1  0  0  0
 80157  1  0  0  0
 81 87  1  0  0  0
 81158  1  0  0  0
 81159  1  0  0  0
 82 88  1  0  0  0
 82160  1  0  0  0
 83161  1  0  0  0
 83162  1  0  0  0
 83163  1  0  0  0
 84 86  1  0  0  0
 84164  1  0  0  0
 84165  1  0  0  0
 85166  1  0  0  0
 85167  1  0  0  0
 86168  1  0  0  0
 86169  1  0  0  0
 88170  1  0  0  0
M  CHG  1  89  -1
M  ISO  4   1 100  68 101  85 101  87 100
M  END
> <chiral flag>
0

> <version>
0

> <s_m_source_file>
/data/baiqing/PycharmProjects/Reinvent-master-3.2/result/LINK_invent/BTK/process_docking_weight1_custom_sum_contain_oxygen_bond_distance_aromatic_linkinvent_7_9_3/rearranged_h_0124.sdf

> <i_m_source_file_index>
34

> <r_mmod_Potential_Energy-OPLS-2005>
-143.408187866211

> <r_mmod_Stretch_Energy-OPLS-2005>
61.3793106079102

> <r_mmod_Bend_Energy-OPLS-2005>
155.123291015625

> <r_mmod_Torsional_Energy-OPLS-2005>
324.682769775391

> <r_mmod_Improper_Torsional_Energy-OPLS-2005>
16.8657703399658

> <r_mmod_Van_der_Waal_Energy-OPLS-2005>
155.489456176758

> <r_mmod_Electrostatic_Energy-OPLS-2005>
-373.271606445312

> <r_mmod_Solvation_Energy-OPLS-2005>
-513.637878417969

> <b_mmod_Minimization_Converged-OPLS-2005>
0

> <r_mmod_RMS_Derivative-OPLS-2005>
0.885954260826111

$$$$
34
                    3D
 Structure written by MMmdl.
159168  0  0  1  0            999 V2000
  -30.6348  -14.5284   20.5221 C   0  0  0  0  0  0
  -30.4307  -12.3230   19.4333 C   0  0  0  0  0  0
  -29.5029  -12.5113   18.2115 C   0  0  0  0  0  0
  -28.0210  -12.3674   18.6196 C   0  0  0  0  0  0
  -27.6599  -13.2029   19.8783 C   0  0  2  0  0  0
  -28.7020  -12.9939   21.0028 C   0  0  0  0  0  0
  -25.2608  -13.8158   20.5722 C   0  0  0  0  0  0
  -24.1849  -13.0438   20.9180 C   0  0  0  0  0  0
  -24.6376  -11.6895   20.8722 C   0  0  0  0  0  0
  -23.9038  -10.4282   21.0384 C   0  0  0  0  0  0
  -24.3596   -9.4200   21.9174 C   0  0  0  0  0  0
  -23.6275   -8.2255   22.0747 C   0  0  0  0  0  0
  -22.4264   -8.0274   21.3544 C   0  0  0  0  0  0
  -21.9887   -9.0229   20.4640 C   0  0  0  0  0  0
  -22.7208  -10.2115   20.3040 C   0  0  0  0  0  0
  -21.6851   -6.0725   22.5276 C   0  0  0  0  0  0
  -21.3993   -6.5632   23.8202 C   0  0  0  0  0  0
  -21.3662   -5.6789   24.9172 C   0  0  0  0  0  0
  -21.6050   -4.3047   24.7224 C   0  0  0  0  0  0
  -21.8819   -3.8142   23.4350 C   0  0  0  0  0  0
  -21.9189   -4.6960   22.3408 C   0  0  0  0  0  0
  -22.7879  -13.5252   21.1850 C   0  0  0  0  0  0
  -22.1661   -4.2155   21.0988 F   0  0  0  0  0  0
  -21.5648   -3.4535   25.7736 F   0  0  0  0  0  0
  -30.0260  -13.3132   20.4447 N   0  0  0  0  0  0
  -26.3009  -12.9291   20.3387 N   0  0  0  0  0  0
  -25.9305  -11.6456   20.5777 N   0  0  0  0  0  0
  -22.0501  -12.8238   22.0389 N   0  0  0  0  0  0
  -25.4377  -15.1876   20.4164 N   0  0  0  0  0  0
  -31.7813  -14.7295   20.1061 O   0  0  0  0  0  0
  -21.6635   -6.8866   21.4234 O   0  0  0  0  0  0
  -22.3571  -14.5583   20.6724 O   0  0  0  0  0  0
  -24.6179  -31.8659   23.2066 C   0  0  0  0  0  0
  -25.9066  -32.4812   23.8382 C   0  0  1  0  0  0
  -27.2413  -27.4157   20.1088 C   0  0  0  0  0  0
  -25.5934  -33.8611   24.2335 N   0  0  0  0  0  0
  -23.4088  -30.4891   21.5438 C   0  0  2  0  0  0
  -24.8607  -28.9513   20.1124 C   0  0  0  0  0  0
  -22.7428  -29.4661   22.4931 C   0  0  0  0  0  0
  -18.0276  -28.1376   22.8479 C   0  0  0  0  0  0
  -24.1447  -36.7294   23.2585 C   0  0  0  0  0  0
  -25.9375  -30.8289   21.3644 C   0  0  0  0  0  0
  -26.0199  -29.4581   20.7161 C   0  0  0  0  0  0
  -27.2141  -28.6939   20.7182 C   0  0  0  0  0  0
  -26.0724  -26.9341   19.4869 C   0  0  0  0  0  0
  -24.8846  -27.6903   19.4876 C   0  0  0  0  0  0
  -23.6218  -29.8185   20.1597 C   0  0  0  0  0  0
  -25.4030  -36.3112   24.0353 C   0  0  1  0  0  0
  -20.5872  -28.3673   23.1286 C   0  0  2  0  0  0
  -20.6736  -26.9398   22.5399 C   0  0  0  0  0  0
  -19.5730  -26.6389   21.5192 C   0  0  0  0  0  0
  -18.1923  -26.7926   22.1614 C   0  0  0  0  0  0
  -19.1530  -28.8833   23.2897 C   0  0  0  0  0  0
  -18.9464  -30.1437   23.8930 C   0  0  0  0  0  0
  -17.6458  -30.6576   24.0567 C   0  0  0  0  0  0
  -25.9051  -34.9489   23.5146 C   0  0  0  0  0  0
  -16.5345  -29.9083   23.6309 C   0  0  0  0  0  0
  -16.7264  -28.6494   23.0335 C   0  0  0  0  0  0
  -26.4469  -31.6569   25.0708 C   0  0  0  0  0  0
  -25.3735  -31.3641   26.1454 C   0  0  0  0  0  0
  -27.0272  -30.2999   24.6074 C   0  0  0  0  0  0
  -27.6071  -32.4235   25.7480 C   0  0  0  0  0  0
  -27.5684  -37.1597   24.8306 C   0  0  0  0  0  0
  -21.4148  -29.3059   22.3691 N   0  0  0  0  0  0
  -26.4122  -37.3919   23.9685 N   0  0  0  0  0  0
  -24.6721  -31.0754   22.0969 N   0  0  0  0  0  0
  -23.4176  -28.8167   23.2966 O   0  0  0  0  0  0
  -28.3586  -26.6043   20.1064 O   0  0  0  0  0  0
  -26.5635  -34.8952   22.4730 O   0  0  0  0  0  0
  -23.5384  -32.1379   23.7502 O   0  0  0  0  0  0
  -30.0901  -22.3009   21.6814 C   0  0  0  0  0  0
  -29.9366  -23.7024   21.6904 C   0  0  0  0  0  0
  -28.0394  -22.1679   20.4496 C   0  0  0  0  0  0
  -29.1154  -21.4782   21.0677 C   0  0  0  0  0  0
  -28.8069  -24.2889   21.0827 C   0  0  0  0  0  0
  -30.5283  -19.3070   21.6019 C   0  0  0  0  0  0
  -28.6785  -19.1516   19.9015 C   0  0  0  0  0  0
  -30.4810  -17.7685   21.8174 C   0  0  0  0  0  0
  -28.6238  -17.6107   20.1153 C   0  0  0  0  0  0
  -29.1575  -19.9183   21.1700 C   0  0  2  0  0  0
  -29.9706  -16.9935   20.5819 C   0  0  2  0  0  0
  -28.4942  -25.7893   21.2909 C   0  0  0  0  0  0
  -27.8882  -23.5198   20.4493 N   0  0  0  0  0  0
  -29.8114  -15.5469   20.8655 N   0  0  0  0  0  0
  -31.4754  -12.4413   19.1378 H   0  0  0  0  0  0
  -30.3491  -11.3099   19.8320 H   0  0  0  0  0  0
  -29.7514  -11.7875   17.4333 H   0  0  0  0  0  0
  -29.6684  -13.4980   17.7746 H   0  0  0  0  0  0
  -27.8321  -11.3107   18.8114 H   0  0  0  0  0  0
  -27.3723  -12.6454   17.7881 H   0  0  0  0  0  0
  -27.6984  -14.2491   19.5776 H   0  0  0  0  0  0
  -28.6887  -11.9627   21.3598 H   0  0  0  0  0  0
  -28.4695  -13.6061   21.8745 H   0  0  0  0  0  0
  -25.2726   -9.5706   22.4759 H   0  0  0  0  0  0
  -23.9987   -7.4655   22.7464 H   0  0  0  0  0  0
  -21.0833   -8.8702   19.8950 H   0  0  0  0  0  0
  -22.3633  -10.9634   19.6152 H   0  0  0  0  0  0
  -21.1961   -7.6129   23.9725 H   0  0  0  0  0  0
  -21.1488   -6.0503   25.9077 H   0  0  0  0  0  0
  -22.0604   -2.7608   23.2837 H   0  0  0  0  0  0
  -22.4055  -11.9847   22.4731 H   0  0  0  0  0  0
  -21.1136  -13.1292   22.2606 H   0  0  0  0  0  0
  -24.6817  -15.8474   20.5613 H   0  0  0  0  0  0
  -26.2947  -15.6314   20.1115 H   0  0  0  0  0  0
  -26.7158  -32.5503   23.1178 H   0  0  0  0  0  0
  -25.0050  -33.9777   25.0450 H   0  0  0  0  0  0
  -22.7016  -31.3071   21.3952 H   0  0  0  0  0  0
  -23.3933  -35.9389   23.2729 H   0  0  0  0  0  0
  -24.3730  -36.9462   22.2144 H   0  0  0  0  0  0
  -23.6805  -37.6151   23.6903 H   0  0  0  0  0  0
  -26.0454  -31.5905   20.5914 H   0  0  0  0  0  0
  -26.8266  -30.8934   21.9785 H   0  0  0  0  0  0
  -28.1049  -29.0748   21.1998 H   0  0  0  0  0  0
  -26.0892  -25.9614   19.0153 H   0  0  0  0  0  0
  -23.9986  -27.3049   19.0011 H   0  0  0  0  0  0
  -23.7391  -30.5900   19.3983 H   0  0  0  0  0  0
  -22.7428  -29.2467   19.8567 H   0  0  0  0  0  0
  -25.1117  -36.1864   25.0808 H   0  0  0  0  0  0
  -21.0005  -28.3232   24.1388 H   0  0  0  0  0  0
  -20.5583  -26.2298   23.3600 H   0  0  0  0  0  0
  -21.6598  -26.7380   22.1213 H   0  0  0  0  0  0
  -19.6885  -25.6301   21.1233 H   0  0  0  0  0  0
  -19.6679  -27.3188   20.6717 H   0  0  0  0  0  0
  -17.4164  -26.6689   21.4031 H   0  0  0  0  0  0
  -18.0341  -26.0052   22.8995 H   0  0  0  0  0  0
  -19.7935  -30.7252   24.2331 H   0  0  0  0  0  0
  -17.4993  -31.6268   24.5157 H   0  0  0  0  0  0
  -15.5351  -30.2993   23.7596 H   0  0  0  0  0  0
  -15.8661  -28.0826   22.7041 H   0  0  0  0  0  0
  -24.5953  -30.6949   25.7769 H   0  0  0  0  0  0
  -24.8872  -32.2767   26.4899 H   0  0  0  0  0  0
  -25.8126  -30.8801   27.0190 H   0  0  0  0  0  0
  -26.2802  -29.6760   24.1148 H   0  0  0  0  0  0
  -27.4039  -29.7237   25.4533 H   0  0  0  0  0  0
  -27.8637  -30.4303   23.9211 H   0  0  0  0  0  0
  -27.2751  -33.3532   26.2107 H   0  0  0  0  0  0
  -28.3877  -32.6790   25.0302 H   0  0  0  0  0  0
  -28.0706  -31.8274   26.5350 H   0  0  0  0  0  0
  -28.2013  -38.0477   24.8534 H   0  0  0  0  0  0
  -28.1836  -36.3335   24.4707 H   0  0  0  0  0  0
  -27.2705  -36.9413   25.8573 H   0  0  0  0  0  0
  -20.9286  -29.8834   21.6972 H   0  0  0  0  0  0
  -25.9981  -38.2797   24.2406 H   0  0  0  0  0  0
  -30.9398  -21.8758   22.1920 H   0  0  0  0  0  0
  -30.6571  -24.3169   22.2160 H   0  0  0  0  0  0
  -27.2338  -21.6305   19.9766 H   0  0  0  0  0  0
  -31.2939  -19.5404   20.8567 H   0  0  0  0  0  0
  -30.8705  -19.7404   22.5433 H   0  0  0  0  0  0
  -27.6780  -19.4729   19.6073 H   0  0  0  0  0  0
  -29.3231  -19.3870   19.0531 H   0  0  0  0  0  0
  -29.8453  -17.5532   22.6786 H   0  0  0  0  0  0
  -31.4807  -17.4122   22.0803 H   0  0  0  0  0  0
  -28.2885  -17.1314   19.1925 H   0  0  0  0  0  0
  -27.8488  -17.3972   20.8550 H   0  0  0  0  0  0
  -28.4473  -19.6830   21.9667 H   0  0  0  0  0  0
  -30.6919  -17.1130   19.7705 H   0  0  0  0  0  0
  -29.2752  -26.2355   21.9083 H   0  0  0  0  0  0
  -27.5881  -25.8337   21.8973 H   0  0  0  0  0  0
  -28.8935  -15.2514   21.1663 H   0  0  0  0  0  0
  1 25  1  0  0  0
  1 30  2  0  0  0
  1 84  1  0  0  0
  2  3  1  0  0  0
  2 25  1  0  0  0
  2 85  1  0  0  0
  2 86  1  0  0  0
  3  4  1  0  0  0
  3 87  1  0  0  0
  3 88  1  0  0  0
  4  5  1  0  0  0
  4 89  1  0  0  0
  4 90  1  0  0  0
  5  6  1  0  0  0
  5 26  1  0  0  0
  5 91  1  0  0  0
  6 25  1  0  0  0
  6 92  1  0  0  0
  6 93  1  0  0  0
  7  8  2  0  0  0
  7 26  1  0  0  0
  7 29  1  0  0  0
  8  9  1  0  0  0
  8 22  1  0  0  0
  9 10  1  0  0  0
  9 27  2  0  0  0
 10 11  2  0  0  0
 10 15  1  0  0  0
 11 12  1  0  0  0
 11 94  1  0  0  0
 12 13  2  0  0  0
 12 95  1  0  0  0
 13 14  1  0  0  0
 13 31  1  0  0  0
 14 15  2  0  0  0
 14 96  1  0  0  0
 15 97  1  0  0  0
 16 17  2  0  0  0
 16 21  1  0  0  0
 16 31  1  0  0  0
 17 18  1  0  0  0
 17 98  1  0  0  0
 18 19  2  0  0  0
 18 99  1  0  0  0
 19 20  1  0  0  0
 19 24  1  0  0  0
 20 21  2  0  0  0
 20100  1  0  0  0
 21 23  1  0  0  0
 22 28  1  0  0  0
 22 32  2  0  0  0
 26 27  1  0  0  0
 28101  1  0  0  0
 28102  1  0  0  0
 29103  1  0  0  0
 29104  1  0  0  0
 33 34  1  0  0  0
 33 66  1  0  0  0
 33 70  2  0  0  0
 34 36  1  0  0  0
 34 59  1  0  0  0
 34105  1  0  0  0
 35 44  2  0  0  0
 35 45  1  0  0  0
 35 68  1  0  0  0
 36 56  1  0  0  0
 36106  1  0  0  0
 37 39  1  0  0  0
 37 47  1  0  0  0
 37 66  1  0  0  0
 37107  1  0  0  0
 38 43  2  0  0  0
 38 46  1  0  0  0
 38 47  1  0  0  0
 39 64  1  0  0  0
 39 67  2  0  0  0
 40 52  1  0  0  0
 40 53  2  0  0  0
 40 58  1  0  0  0
 41108  1  0  0  0
 41109  1  0  0  0
 41110  1  0  0  0
 41 48  1  0  0  0
 42 43  1  0  0  0
 42 66  1  0  0  0
 42111  1  0  0  0
 42112  1  0  0  0
 43 44  1  0  0  0
 44113  1  0  0  0
 45 46  2  0  0  0
 45114  1  0  0  0
 46115  1  0  0  0
 47116  1  0  0  0
 47117  1  0  0  0
 48 56  1  0  0  0
 48 65  1  0  0  0
 48118  1  0  0  0
 49 50  1  0  0  0
 49 53  1  0  0  0
 49 64  1  0  0  0
 49119  1  0  0  0
 50 51  1  0  0  0
 50120  1  0  0  0
 50121  1  0  0  0
 51 52  1  0  0  0
 51122  1  0  0  0
 51123  1  0  0  0
 52124  1  0  0  0
 52125  1  0  0  0
 53 54  1  0  0  0
 54 55  2  0  0  0
 54126  1  0  0  0
 55 57  1  0  0  0
 55127  1  0  0  0
 56 69  2  0  0  0
 57 58  2  0  0  0
 57128  1  0  0  0
 58129  1  0  0  0
 59 60  1  0  0  0
 59 61  1  0  0  0
 59 62  1  0  0  0
 60130  1  0  0  0
 60131  1  0  0  0
 60132  1  0  0  0
 61133  1  0  0  0
 61134  1  0  0  0
 61135  1  0  0  0
 62136  1  0  0  0
 62137  1  0  0  0
 62138  1  0  0  0
 63 65  1  0  0  0
 63139  1  0  0  0
 63140  1  0  0  0
 63141  1  0  0  0
 64142  1  0  0  0
 65143  1  0  0  0
 68 82  1  0  0  0
 71 72  2  0  0  0
 71 74  1  0  0  0
 71144  1  0  0  0
 72 75  1  0  0  0
 72145  1  0  0  0
 73 74  2  0  0  0
 73 83  1  0  0  0
 73146  1  0  0  0
 74 80  1  0  0  0
 75 82  1  0  0  0
 75 83  2  0  0  0
 76 78  1  0  0  0
 76 80  1  0  0  0
 76147  1  0  0  0
 76148  1  0  0  0
 77 79  1  0  0  0
 77 80  1  0  0  0
 77149  1  0  0  0
 77150  1  0  0  0
 78 81  1  0  0  0
 78151  1  0  0  0
 78152  1  0  0  0
 79 81  1  0  0  0
 79153  1  0  0  0
 79154  1  0  0  0
 80155  1  0  0  0
 81 84  1  0  0  0
 81156  1  0  0  0
 82157  1  0  0  0
 82158  1  0  0  0
 84159  1  0  0  0
M  ISO  4   1 100  68 101  82 101  84 100
M  END
> <chiral flag>
0

> <version>
0

> <s_m_source_file>
/data/baiqing/PycharmProjects/Reinvent-master-3.2/result/LINK_invent/BTK/process_docking_weight1_custom_sum_contain_oxygen_bond_distance_aromatic_linkinvent_7_9_3/rearranged_h_0124.sdf

> <i_m_source_file_index>
35

> <r_mmod_Potential_Energy-OPLS-2005>
-127.149742126465

> <r_mmod_Stretch_Energy-OPLS-2005>
48.1591873168945

> <r_mmod_Bend_Energy-OPLS-2005>
103.740798950195

> <r_mmod_Torsional_Energy-OPLS-2005>
255.845794677734

> <r_mmod_Improper_Torsional_Energy-OPLS-2005>
6.96788358688354

> <r_mmod_Van_der_Waal_Energy-OPLS-2005>
147.120758056641

> <r_mmod_Electrostatic_Energy-OPLS-2005>
-490.401977539062

> <r_mmod_Solvation_Energy-OPLS-2005>
-219.278106689453

> <b_mmod_Minimization_Converged-OPLS-2005>
0

> <r_mmod_RMS_Derivative-OPLS-2005>
4.25574254989624

$$$$
35
                    3D
 Structure written by MMmdl.
181190  0  0  1  0            999 V2000
  -30.2839  -14.9900   20.8161 C   0  0  0  0  0  0
  -30.4306  -12.7058   19.6094 C   0  0  0  0  0  0
  -29.5445  -12.5550   18.3532 C   0  0  0  0  0  0
  -28.0713  -12.2891   18.7244 C   0  0  0  0  0  0
  -27.5995  -13.2213   19.8719 C   0  0  2  0  0  0
  -28.5528  -13.1781   21.0620 C   0  0  0  0  0  0
  -25.2437  -13.8125   20.5681 C   0  0  0  0  0  0
  -24.1597  -13.0452   20.9135 C   0  0  0  0  0  0
  -24.6172  -11.6965   20.8704 C   0  0  0  0  0  0
  -23.8913  -10.4346   21.0444 C   0  0  0  0  0  0
  -24.3567   -9.4273   21.9167 C   0  0  0  0  0  0
  -23.6330   -8.2236   22.0725 C   0  0  0  0  0  0
  -22.4220   -8.0283   21.3599 C   0  0  0  0  0  0
  -21.9868   -9.0205   20.4602 C   0  0  0  0  0  0
  -22.7148  -10.2127   20.3055 C   0  0  0  0  0  0
  -21.6838   -6.0706   22.5268 C   0  0  0  0  0  0
  -21.4018   -6.5639   23.8195 C   0  0  0  0  0  0
  -21.3652   -5.6809   24.9167 C   0  0  0  0  0  0
  -21.6022   -4.3059   24.7233 C   0  0  0  0  0  0
  -21.8828   -3.8141   23.4358 C   0  0  0  0  0  0
  -21.9213   -4.6946   22.3412 C   0  0  0  0  0  0
  -22.7630  -13.5254   21.1865 C   0  0  0  0  0  0
  -22.1662   -4.2154   21.0990 F   0  0  0  0  0  0
  -21.5637   -3.4518   25.7748 F   0  0  0  0  0  0
  -29.8183  -13.6929   20.5709 N   0  0  0  0  0  0
  -26.2627  -12.9228   20.3048 N   0  0  0  0  0  0
  -25.9100  -11.6471   20.5671 N   0  0  0  0  0  0
  -22.0367  -12.8231   22.0515 N   0  0  0  0  0  0
  -25.4218  -15.1863   20.4103 N   0  0  0  0  0  0
  -31.4061  -15.2525   20.3206 O   0  0  0  0  0  0
  -21.6607   -6.8828   21.4233 O   0  0  0  0  0  0
  -22.3443  -14.5597   20.6734 O   0  0  0  0  0  0
  -24.6490  -31.8389   23.1870 C   0  0  0  0  0  0
  -25.9315  -32.4861   23.8208 C   0  0  1  0  0  0
  -27.0304  -27.2972   20.0752 C   0  0  0  0  0  0
  -25.5670  -33.8659   24.1972 N   0  0  0  0  0  0
  -23.4662  -30.4996   21.4965 C   0  0  2  0  0  0
  -24.8706  -29.0446   20.0107 C   0  0  0  0  0  0
  -22.7851  -29.3977   22.3628 C   0  0  0  0  0  0
  -18.0623  -28.1477   22.8986 C   0  0  0  0  0  0
  -24.1523  -36.7317   23.2586 C   0  0  0  0  0  0
  -25.9956  -30.7836   21.3689 C   0  0  0  0  0  0
  -26.0373  -29.4410   20.6777 C   0  0  0  0  0  0
  -27.1243  -28.5422   20.7408 C   0  0  0  0  0  0
  -25.9667  -27.1177   19.1944 C   0  0  0  0  0  0
  -24.8200  -27.8730   19.2905 C   0  0  0  0  0  0
  -23.6528  -29.9194   20.0742 C   0  0  0  0  0  0
  -25.4096  -36.3075   24.0339 C   0  0  1  0  0  0
  -20.6384  -28.3556   23.1015 C   0  0  2  0  0  0
  -20.8118  -26.8827   22.7421 C   0  0  0  0  0  0
  -19.6876  -26.2886   21.8538 C   0  0  0  0  0  0
  -18.2951  -26.6654   22.4765 C   0  0  0  0  0  0
  -19.2262  -28.9172   23.2174 C   0  0  0  0  0  0
  -19.0749  -30.3181   23.5840 C   0  0  0  0  0  0
  -17.7964  -30.8413   23.8131 C   0  0  0  0  0  0
  -25.8952  -34.9509   23.4946 C   0  0  0  0  0  0
  -16.6480  -29.9223   23.7350 C   0  0  0  0  0  0
  -16.7607  -28.6452   23.1264 C   0  0  0  0  0  0
  -26.4686  -31.6738   25.0731 C   0  0  0  0  0  0
  -25.3899  -31.3970   26.1389 C   0  0  0  0  0  0
  -27.0389  -30.3110   24.6375 C   0  0  0  0  0  0
  -27.6224  -32.4366   25.7604 C   0  0  0  0  0  0
  -27.5602  -37.1881   24.8462 C   0  0  0  0  0  0
  -21.4854  -29.2343   22.2055 N   0  0  0  0  0  0
  -26.4268  -37.3836   23.9459 N   0  0  0  0  0  0
  -24.7112  -31.0365   22.0873 N   0  0  0  0  0  0
  -23.3998  -28.7155   23.2515 O   0  0  0  0  0  0
  -27.6388  -26.1077   20.4182 O   0  0  0  0  0  0
  -26.5765  -34.8864   22.4708 O   0  0  0  0  0  0
  -23.5546  -32.1250   23.7199 O   0  0  0  0  0  0
  -24.7895  -21.8378   19.8736 C   0  0  0  0  0  0
  -23.1431  -23.1242   21.2313 C   0  0  0  0  0  0
  -25.8718  -22.8882   20.0636 C   0  0  0  0  0  0
  -23.9222  -24.4358   20.7816 C   0  0  0  0  0  0
  -28.4067  -19.7054   22.9797 C   0  0  0  0  0  0
  -26.2054  -18.7748   22.3803 C   0  0  0  0  0  0
  -27.7598  -20.5803   24.1830 C   0  0  0  0  0  0
  -23.7974  -21.6771   21.0368 C   0  0  1  0  0  0
  -25.4311  -24.3105   20.3407 C   0  0  1  0  0  0
  -27.7830  -18.2663   22.6298 C   0  0  1  0  0  0
  -25.5831  -20.1993   22.9775 C   0  0  2  0  0  0
  -26.0840  -23.3925   25.1767 C   0  0  0  0  0  0
  -24.7772  -21.2113   26.0898 C   0  0  0  0  0  0
  -24.2785  -21.0190   22.4294 C   0  0  0  0  0  0
  -28.6887  -17.3216   21.4378 C   0  0  0  0  0  0
  -26.6170  -25.1626   21.0986 C   0  0  0  0  0  0
  -25.5428  -21.9628   24.9347 C   0  0  0  0  0  0
  -29.5160  -15.9377   21.6317 N   0  0  0  0  0  0
  -26.3718  -21.1083   23.9142 N   0  3  1  0  0  0
  -31.4423  -13.0083   19.3521 H   0  0  0  0  0  0
  -30.5333  -11.7667   20.1434 H   0  0  0  0  0  0
  -29.9218  -11.7318   17.7549 H   0  0  0  0  0  0
  -29.5917  -13.4474   17.7490 H   0  0  0  0  0  0
  -28.0048  -11.2364   19.0703 H   0  0  0  0  0  0
  -27.4090  -12.3796   17.8506 H   0  0  0  0  0  0
  -27.6039  -14.2215   19.4642 H   0  0  0  0  0  0
  -28.6851  -12.1651   21.4555 H   0  0  0  0  0  0
  -28.1645  -13.7744   21.9041 H   0  0  0  0  0  0
  -25.2694   -9.5733   22.4753 H   0  0  0  0  0  0
  -23.9996   -7.4620   22.7474 H   0  0  0  0  0  0
  -21.0755   -8.8721   19.8947 H   0  0  0  0  0  0
  -22.3572  -10.9660   19.6177 H   0  0  0  0  0  0
  -21.1980   -7.6133   23.9720 H   0  0  0  0  0  0
  -21.1454   -6.0502   25.9071 H   0  0  0  0  0  0
  -22.0615   -2.7609   23.2848 H   0  0  0  0  0  0
  -22.4024  -11.9907   22.4818 H   0  0  0  0  0  0
  -21.1040  -13.1286   22.2654 H   0  0  0  0  0  0
  -24.6806  -15.8763   20.5337 H   0  0  0  0  0  0
  -26.3065  -15.6036   20.1537 H   0  0  0  0  0  0
  -26.7742  -32.5804   23.1142 H   0  0  0  0  0  0
  -25.0211  -33.9853   25.0359 H   0  0  0  0  0  0
  -22.7366  -31.2968   21.4854 H   0  0  0  0  0  0
  -23.3770  -35.9688   23.3301 H   0  0  0  0  0  0
  -24.3518  -36.8980   22.1960 H   0  0  0  0  0  0
  -23.7232  -37.6545   23.6625 H   0  0  0  0  0  0
  -26.2123  -31.5648   20.6136 H   0  0  0  0  0  0
  -26.8898  -30.7960   21.9929 H   0  0  0  0  0  0
  -27.9418  -28.7111   21.4230 H   0  0  0  0  0  0
  -25.9736  -26.3060   18.5100 H   0  0  0  0  0  0
  -23.9361  -27.5680   18.7494 H   0  0  0  0  0  0
  -23.6763  -30.7224   19.3256 H   0  0  0  0  0  0
  -22.7830  -29.3228   19.7833 H   0  0  0  0  0  0
  -25.1287  -36.2058   25.0915 H   0  0  0  0  0  0
  -21.1118  -28.4380   24.0518 H   0  0  0  0  0  0
  -20.7670  -26.2464   23.7057 H   0  0  0  0  0  0
  -21.7549  -26.6060   22.2867 H   0  0  0  0  0  0
  -19.7913  -25.2013   21.8772 H   0  0  0  0  0  0
  -19.9272  -26.5547   20.7915 H   0  0  0  0  0  0
  -17.4679  -26.1512   21.9801 H   0  0  0  0  0  0
  -18.3781  -26.1642   23.5035 H   0  0  0  0  0  0
  -19.9870  -30.9633   23.4557 H   0  0  0  0  0  0
  -17.7257  -31.9429   24.0418 H   0  0  0  0  0  0
  -15.6310  -30.2265   23.8536 H   0  0  0  0  0  0
  -15.9061  -27.9433   22.9782 H   0  0  0  0  0  0
  -24.6061  -30.7315   25.7796 H   0  0  0  0  0  0
  -24.8963  -32.3108   26.4784 H   0  0  0  0  0  0
  -25.8052  -30.9261   27.0300 H   0  0  0  0  0  0
  -26.2847  -29.6908   24.1524 H   0  0  0  0  0  0
  -27.4089  -29.7401   25.4939 H   0  0  0  0  0  0
  -27.8773  -30.4287   23.9449 H   0  0  0  0  0  0
  -27.2999  -33.3692   26.2252 H   0  0  0  0  0  0
  -28.4114  -32.6988   25.0536 H   0  0  0  0  0  0
  -28.0923  -31.8533   26.5589 H   0  0  0  0  0  0
  -28.2667  -38.0134   24.7518 H   0  0  0  0  0  0
  -28.1029  -36.2723   24.6312 H   0  0  0  0  0  0
  -27.2288  -37.1487   25.8824 H   0  0  0  0  0  0
  -21.1969  -29.5186   21.2762 H   0  0  0  0  0  0
  -26.0185  -38.2998   24.1462 H   0  0  0  0  0  0
  -25.3098  -20.8969   19.6251 H   0  0  0  0  0  0
  -24.2609  -22.1334   18.9456 H   0  0  0  0  0  0
  -22.2188  -23.1808   20.6554 H   0  0  0  0  0  0
  -22.7761  -23.2575   22.2671 H   0  0  0  0  0  0
  -26.4714  -22.9527   19.1658 H   0  0  0  0  0  0
  -26.4920  -22.5672   20.8843 H   0  0  0  0  0  0
  -23.7883  -25.2509   21.4963 H   0  0  0  0  0  0
  -23.3854  -24.8427   19.8872 H   0  0  0  0  0  0
  -29.4723  -19.5767   23.1620 H   0  0  0  0  0  0
  -28.3585  -20.3235   22.0870 H   0  0  0  0  0  0
  -25.5813  -17.9847   22.8913 H   0  0  0  0  0  0
  -26.0013  -18.7177   21.2890 H   0  0  0  0  0  0
  -28.4265  -21.4344   24.4962 H   0  0  0  0  0  0
  -27.6543  -19.9269   25.0410 H   0  0  0  0  0  0
  -23.0082  -21.0394   20.5890 H   0  0  0  0  0  0
  -25.2713  -24.6257   19.3277 H   0  0  0  0  0  0
  -27.8245  -17.6634   23.5561 H   0  0  0  0  0  0
  -25.1774  -19.7411   23.8329 H   0  0  0  0  0  0
  -25.2184  -24.0672   25.2230 H   0  0  0  0  0  0
  -26.7622  -23.7935   24.3971 H   0  0  0  0  0  0
  -26.4958  -23.4550   26.1826 H   0  0  0  0  0  0
  -24.5004  -22.0389   26.7851 H   0  0  0  0  0  0
  -25.3831  -20.4594   26.6017 H   0  0  0  0  0  0
  -23.7574  -20.8147   25.7790 H   0  0  0  0  0  0
  -23.4304  -20.7992   23.0746 H   0  0  0  0  0  0
  -24.5781  -21.9901   22.7133 H   0  0  0  0  0  0
  -28.1296  -17.3266   20.4919 H   0  0  0  0  0  0
  -29.4915  -18.0263   21.2079 H   0  0  0  0  0  0
  -27.1802  -24.4835   21.7709 H   0  0  0  0  0  0
  -26.0563  -25.7890   21.8371 H   0  0  0  0  0  0
  -24.5713  -22.3308   24.5297 H   0  0  0  0  0  0
  -30.2042  -16.2016   22.3578 H   0  0  0  0  0  0
  -26.6405  -21.8057   23.2764 H   0  0  0  0  0  0
  1 25  1  0  0  0
  1 30  2  0  0  0
  1 88  1  0  0  0
  2  3  1  0  0  0
  2 25  1  0  0  0
  2 90  1  0  0  0
  2 91  1  0  0  0
  3  4  1  0  0  0
  3 92  1  0  0  0
  3 93  1  0  0  0
  4  5  1  0  0  0
  4 94  1  0  0  0
  4 95  1  0  0  0
  5  6  1  0  0  0
  5 26  1  0  0  0
  5 96  1  0  0  0
  6 25  1  0  0  0
  6 97  1  0  0  0
  6 98  1  0  0  0
  7  8  2  0  0  0
  7 26  1  0  0  0
  7 29  1  0  0  0
  8  9  1  0  0  0
  8 22  1  0  0  0
  9 10  1  0  0  0
  9 27  2  0  0  0
 10 11  2  0  0  0
 10 15  1  0  0  0
 11 12  1  0  0  0
 11 99  1  0  0  0
 12 13  2  0  0  0
 12100  1  0  0  0
 13 14  1  0  0  0
 13 31  1  0  0  0
 14 15  2  0  0  0
 14101  1  0  0  0
 15102  1  0  0  0
 16 17  2  0  0  0
 16 21  1  0  0  0
 16 31  1  0  0  0
 17 18  1  0  0  0
 17103  1  0  0  0
 18 19  2  0  0  0
 18104  1  0  0  0
 19 20  1  0  0  0
 19 24  1  0  0  0
 20 21  2  0  0  0
 20105  1  0  0  0
 21 23  1  0  0  0
 22 28  1  0  0  0
 22 32  2  0  0  0
 26 27  1  0  0  0
 28106  1  0  0  0
 28107  1  0  0  0
 29108  1  0  0  0
 29109  1  0  0  0
 33 34  1  0  0  0
 33 66  1  0  0  0
 33 70  2  0  0  0
 34 36  1  0  0  0
 34 59  1  0  0  0
 34110  1  0  0  0
 35 44  2  0  0  0
 35 45  1  0  0  0
 35 68  1  0  0  0
 36 56  1  0  0  0
 36111  1  0  0  0
 37 39  1  0  0  0
 37 47  1  0  0  0
 37 66  1  0  0  0
 37112  1  0  0  0
 38 43  2  0  0  0
 38 46  1  0  0  0
 38 47  1  0  0  0
 39 64  1  0  0  0
 39 67  2  0  0  0
 40 52  1  0  0  0
 40 53  2  0  0  0
 40 58  1  0  0  0
 41113  1  0  0  0
 41114  1  0  0  0
 41115  1  0  0  0
 41 48  1  0  0  0
 42 43  1  0  0  0
 42 66  1  0  0  0
 42116  1  0  0  0
 42117  1  0  0  0
 43 44  1  0  0  0
 44118  1  0  0  0
 45 46  2  0  0  0
 45119  1  0  0  0
 46120  1  0  0  0
 47121  1  0  0  0
 47122  1  0  0  0
 48 56  1  0  0  0
 48 65  1  0  0  0
 48123  1  0  0  0
 49 50  1  0  0  0
 49 53  1  0  0  0
 49 64  1  0  0  0
 49124  1  0  0  0
 50 51  1  0  0  0
 50125  1  0  0  0
 50126  1  0  0  0
 51 52  1  0  0  0
 51127  1  0  0  0
 51128  1  0  0  0
 52129  1  0  0  0
 52130  1  0  0  0
 53 54  1  0  0  0
 54 55  2  0  0  0
 54131  1  0  0  0
 55 57  1  0  0  0
 55132  1  0  0  0
 56 69  2  0  0  0
 57 58  2  0  0  0
 57133  1  0  0  0
 58134  1  0  0  0
 59 60  1  0  0  0
 59 61  1  0  0  0
 59 62  1  0  0  0
 60135  1  0  0  0
 60136  1  0  0  0
 60137  1  0  0  0
 61138  1  0  0  0
 61139  1  0  0  0
 61140  1  0  0  0
 62141  1  0  0  0
 62142  1  0  0  0
 62143  1  0  0  0
 63 65  1  0  0  0
 63144  1  0  0  0
 63145  1  0  0  0
 63146  1  0  0  0
 64147  1  0  0  0
 65148  1  0  0  0
 68 86  1  0  0  0
 71 73  1  0  0  0
 71 78  1  0  0  0
 71149  1  0  0  0
 71150  1  0  0  0
 72 74  1  0  0  0
 72 78  1  0  0  0
 72151  1  0  0  0
 72152  1  0  0  0
 73 79  1  0  0  0
 73153  1  0  0  0
 73154  1  0  0  0
 74 79  1  0  0  0
 74155  1  0  0  0
 74156  1  0  0  0
 75 77  1  0  0  0
 75 80  1  0  0  0
 75157  1  0  0  0
 75158  1  0  0  0
 76 80  1  0  0  0
 76 81  1  0  0  0
 76159  1  0  0  0
 76160  1  0  0  0
 77161  1  0  0  0
 77162  1  0  0  0
 77 89  1  0  0  0
 78 84  1  0  0  0
 78163  1  0  0  0
 79 86  1  0  0  0
 79164  1  0  0  0
 80 85  1  0  0  0
 80165  1  0  0  0
 81 84  1  0  0  0
 81 89  1  0  0  0
 81166  1  0  0  0
 82167  1  0  0  0
 82168  1  0  0  0
 82169  1  0  0  0
 82 87  1  0  0  0
 83 87  1  0  0  0
 83170  1  0  0  0
 83171  1  0  0  0
 83172  1  0  0  0
 84173  1  0  0  0
 84174  1  0  0  0
 85 88  1  0  0  0
 85175  1  0  0  0
 85176  1  0  0  0
 86177  1  0  0  0
 86178  1  0  0  0
 87 89  1  0  0  0
 87179  1  0  0  0
 88180  1  0  0  0
 89181  1  0  0  0
M  CHG  1  89   1
M  ISO  4   1 100  68 101  86 101  88 100
M  END
> <chiral flag>
0

> <version>
0

> <s_m_source_file>
/data/baiqing/PycharmProjects/Reinvent-master-3.2/result/LINK_invent/BTK/process_docking_weight1_custom_sum_contain_oxygen_bond_distance_aromatic_linkinvent_7_9_3/rearranged_h_0124.sdf

> <i_m_source_file_index>
36

> <r_mmod_Potential_Energy-OPLS-2005>
1568.27783203125

> <r_mmod_Stretch_Energy-OPLS-2005>
432.713531494141

> <r_mmod_Bend_Energy-OPLS-2005>
620.021179199219

> <r_mmod_Torsional_Energy-OPLS-2005>
553.984069824219

> <r_mmod_Improper_Torsional_Energy-OPLS-2005>
14.9295387268066

> <r_mmod_Van_der_Waal_Energy-OPLS-2005>
159.758163452148

> <r_mmod_Electrostatic_Energy-OPLS-2005>
-228.288619995117

> <r_mmod_Solvation_Energy-OPLS-2005>
-425.738189697266

> <b_mmod_Minimization_Converged-OPLS-2005>
0

> <r_mmod_RMS_Derivative-OPLS-2005>
90.730712890625

$$$$
36
                    3D
 Structure written by MMmdl.
150158  0  0  1  0            999 V2000
  -30.5113  -15.0423   20.4138 C   0  0  0  0  0  0
  -30.4418  -12.6556   19.5026 C   0  0  0  0  0  0
  -29.5282  -12.5533   18.2588 C   0  0  0  0  0  0
  -28.0631  -12.3223   18.6761 C   0  0  0  0  0  0
  -27.6241  -13.2587   19.8316 C   0  0  2  0  0  0
  -28.6656  -13.3269   20.9672 C   0  0  0  0  0  0
  -25.2440  -13.8216   20.5712 C   0  0  0  0  0  0
  -24.1774  -13.0428   20.9237 C   0  0  0  0  0  0
  -24.6410  -11.6920   20.8754 C   0  0  0  0  0  0
  -23.9099  -10.4285   21.0410 C   0  0  0  0  0  0
  -24.3645   -9.4193   21.9184 C   0  0  0  0  0  0
  -23.6305   -8.2237   22.0761 C   0  0  0  0  0  0
  -22.4286   -8.0282   21.3550 C   0  0  0  0  0  0
  -21.9926   -9.0260   20.4654 C   0  0  0  0  0  0
  -22.7269  -10.2128   20.3062 C   0  0  0  0  0  0
  -21.6849   -6.0740   22.5279 C   0  0  0  0  0  0
  -21.4014   -6.5648   23.8211 C   0  0  0  0  0  0
  -21.3655   -5.6800   24.9171 C   0  0  0  0  0  0
  -21.6042   -4.3064   24.7221 C   0  0  0  0  0  0
  -21.8817   -3.8156   23.4344 C   0  0  0  0  0  0
  -21.9190   -4.6969   22.3401 C   0  0  0  0  0  0
  -22.7791  -13.5188   21.1880 C   0  0  0  0  0  0
  -22.1661   -4.2156   21.0977 F   0  0  0  0  0  0
  -21.5623   -3.4549   25.7734 F   0  0  0  0  0  0
  -29.9271  -13.7680   20.3582 N   0  0  0  0  0  0
  -26.2868  -12.9468   20.3217 N   0  0  0  0  0  0
  -25.9346  -11.6590   20.5728 N   0  0  0  0  0  0
  -22.0445  -12.8180   22.0436 N   0  0  0  0  0  0
  -25.4089  -15.1949   20.4140 N   0  0  0  0  0  0
  -31.7291  -15.0772   20.1937 O   0  0  0  0  0  0
  -21.6640   -6.8887   21.4245 O   0  0  0  0  0  0
  -22.3468  -14.5483   20.6706 O   0  0  0  0  0  0
  -24.6508  -31.8390   23.1834 C   0  0  0  0  0  0
  -25.9247  -32.4663   23.8253 C   0  0  1  0  0  0
  -27.2084  -27.0707   20.1472 C   0  0  0  0  0  0
  -25.5960  -33.8472   24.2159 N   0  0  0  0  0  0
  -23.4567  -30.4603   21.5306 C   0  0  2  0  0  0
  -24.9025  -28.8778   20.1098 C   0  0  0  0  0  0
  -22.7599  -29.4541   22.4827 C   0  0  0  0  0  0
  -18.0317  -28.1385   22.8477 C   0  0  0  0  0  0
  -24.1510  -36.7261   23.2642 C   0  0  0  0  0  0
  -26.0187  -30.6917   21.3912 C   0  0  0  0  0  0
  -26.0856  -29.2983   20.7289 C   0  0  0  0  0  0
  -27.2384  -28.4136   20.7260 C   0  0  0  0  0  0
  -25.9891  -26.7665   19.5001 C   0  0  0  0  0  0
  -24.8712  -27.6275   19.4778 C   0  0  0  0  0  0
  -23.6851  -29.7908   20.1506 C   0  0  0  0  0  0
  -25.4139  -36.3018   24.0308 C   0  0  1  0  0  0
  -20.5931  -28.3736   23.1201 C   0  0  2  0  0  0
  -20.6794  -26.9429   22.5394 C   0  0  0  0  0  0
  -19.5763  -26.6373   21.5207 C   0  0  0  0  0  0
  -18.1950  -26.7920   22.1625 C   0  0  0  0  0  0
  -19.1572  -28.8877   23.2832 C   0  0  0  0  0  0
  -18.9483  -30.1466   23.8869 C   0  0  0  0  0  0
  -17.6477  -30.6578   24.0558 C   0  0  0  0  0  0
  -25.9091  -34.9392   23.5048 C   0  0  0  0  0  0
  -16.5371  -29.9070   23.6326 C   0  0  0  0  0  0
  -16.7299  -28.6482   23.0360 C   0  0  0  0  0  0
  -26.4536  -31.6536   25.0711 C   0  0  0  0  0  0
  -25.3698  -31.3727   26.1386 C   0  0  0  0  0  0
  -27.0409  -30.2922   24.6326 C   0  0  0  0  0  0
  -27.6057  -32.4311   25.7496 C   0  0  0  0  0  0
  -27.5581  -37.1797   24.8455 C   0  0  0  0  0  0
  -21.4287  -29.3058   22.3570 N   0  0  0  0  0  0
  -26.4297  -37.3736   23.9391 N   0  0  0  0  0  0
  -24.7297  -31.0200   22.0891 N   0  0  0  0  0  0
  -23.4215  -28.8091   23.3006 O   0  0  0  0  0  0
  -28.2473  -26.0459   20.2255 O   0  0  0  0  0  0
  -26.5694  -34.8896   22.4641 O   0  0  0  0  0  0
  -23.5608  -32.1294   23.7011 O   0  0  0  0  0  0
  -31.2249  -18.2589   20.9783 C   0  0  0  0  0  0
  -29.0492  -18.9432   20.2848 C   0  0  0  0  0  0
  -31.4983  -19.6430   21.1217 C   0  0  0  0  0  0
  -29.9675  -17.7849   20.5463 C   0  0  0  0  0  0
  -29.3915  -20.3962   20.4378 C   0  0  0  0  0  0
  -28.1191  -24.4272   18.3547 C   0  0  0  0  0  0
  -28.9111  -23.1154   20.4384 C   0  0  0  0  0  0
  -28.0450  -24.5033   19.8904 C   0  0  1  0  0  0
  -30.6377  -20.6654   20.8705 N   0  0  0  0  0  0
  -29.7100  -16.2445   20.4666 N   0  0  0  0  0  0
  -28.5681  -21.5994   20.1689 O   0  0  0  0  0  0
  -31.4729  -12.8270   19.1904 H   0  0  0  0  0  0
  -30.4524  -11.7156   20.0562 H   0  0  0  0  0  0
  -29.8665  -11.7485   17.6045 H   0  0  0  0  0  0
  -29.6030  -13.4739   17.6766 H   0  0  0  0  0  0
  -27.9738  -11.2831   18.9929 H   0  0  0  0  0  0
  -27.3997  -12.4399   17.8187 H   0  0  0  0  0  0
  -27.5723  -14.2532   19.3881 H   0  0  0  0  0  0
  -28.7775  -12.3619   21.4634 H   0  0  0  0  0  0
  -28.3479  -14.0346   21.7341 H   0  0  0  0  0  0
  -25.2786   -9.5653   22.4766 H   0  0  0  0  0  0
  -24.0001   -7.4622   22.7481 H   0  0  0  0  0  0
  -21.0855   -8.8781   19.8965 H   0  0  0  0  0  0
  -22.3726  -10.9670   19.6177 H   0  0  0  0  0  0
  -21.2018   -7.6158   23.9713 H   0  0  0  0  0  0
  -21.1478   -6.0535   25.9069 H   0  0  0  0  0  0
  -22.0603   -2.7622   23.2840 H   0  0  0  0  0  0
  -22.4085  -11.9855   22.4832 H   0  0  0  0  0  0
  -21.1056  -13.1193   22.2641 H   0  0  0  0  0  0
  -24.6359  -15.8428   20.5230 H   0  0  0  0  0  0
  -26.2414  -15.6340   20.0450 H   0  0  0  0  0  0
  -26.7315  -32.5253   23.0977 H   0  0  0  0  0  0
  -25.0043  -33.9583   25.0261 H   0  0  0  0  0  0
  -22.7633  -31.2901   21.3745 H   0  0  0  0  0  0
  -23.3764  -35.9600   23.3285 H   0  0  0  0  0  0
  -24.3603  -36.8923   22.2062 H   0  0  0  0  0  0
  -23.7279  -37.6456   23.6701 H   0  0  0  0  0  0
  -26.1855  -31.4437   20.6197 H   0  0  0  0  0  0
  -26.8849  -30.7400   22.0393 H   0  0  0  0  0  0
  -28.1403  -28.7303   21.2302 H   0  0  0  0  0  0
  -25.8467  -25.8074   19.0287 H   0  0  0  0  0  0
  -23.9667  -27.3001   18.9844 H   0  0  0  0  0  0
  -23.8306  -30.5661   19.3970 H   0  0  0  0  0  0
  -22.7955  -29.2425   19.8356 H   0  0  0  0  0  0
  -25.1337  -36.1847   25.0801 H   0  0  0  0  0  0
  -21.0036  -28.3340   24.1318 H   0  0  0  0  0  0
  -20.5667  -26.2368   23.3637 H   0  0  0  0  0  0
  -21.6664  -26.7418   22.1211 H   0  0  0  0  0  0
  -19.6933  -25.6276   21.1258 H   0  0  0  0  0  0
  -19.6682  -27.3167   20.6720 H   0  0  0  0  0  0
  -17.4222  -26.6665   21.4027 H   0  0  0  0  0  0
  -18.0349  -26.0061   22.9017 H   0  0  0  0  0  0
  -19.7960  -30.7283   24.2232 H   0  0  0  0  0  0
  -17.5030  -31.6255   24.5164 H   0  0  0  0  0  0
  -15.5367  -30.2963   23.7649 H   0  0  0  0  0  0
  -15.8705  -28.0782   22.7094 H   0  0  0  0  0  0
  -24.5912  -30.7032   25.7703 H   0  0  0  0  0  0
  -24.8834  -32.2899   26.4719 H   0  0  0  0  0  0
  -25.7969  -30.8970   27.0224 H   0  0  0  0  0  0
  -26.3045  -29.6639   24.1296 H   0  0  0  0  0  0
  -27.3968  -29.7216   25.4916 H   0  0  0  0  0  0
  -27.8980  -30.4145   23.9697 H   0  0  0  0  0  0
  -27.2648  -33.3646   26.1986 H   0  0  0  0  0  0
  -28.3906  -32.6814   25.0344 H   0  0  0  0  0  0
  -28.0679  -31.8486   26.5476 H   0  0  0  0  0  0
  -28.2576  -38.0113   24.7508 H   0  0  0  0  0  0
  -28.1104  -36.2643   24.6282 H   0  0  0  0  0  0
  -27.2299  -37.1440   25.8858 H   0  0  0  0  0  0
  -20.9503  -29.8786   21.6754 H   0  0  0  0  0  0
  -26.0159  -38.2808   24.1365 H   0  0  0  0  0  0
  -32.0097  -17.5587   21.2273 H   0  0  0  0  0  0
  -28.0454  -18.7172   19.9543 H   0  0  0  0  0  0
  -32.4750  -19.9516   21.4639 H   0  0  0  0  0  0
  -27.7271  -23.4750   17.9966 H   0  0  0  0  0  0
  -29.1534  -24.5071   18.0197 H   0  0  0  0  0  0
  -27.5645  -25.2166   17.8515 H   0  0  0  0  0  0
  -28.9522  -23.1924   21.5245 H   0  0  0  0  0  0
  -29.9445  -23.2450   20.1149 H   0  0  0  0  0  0
  -27.0188  -24.2977   20.1938 H   0  0  0  0  0  0
  -28.7292  -16.0151   20.4520 H   0  0  0  0  0  0
  1 25  1  0  0  0
  1 30  2  0  0  0
  1 80  1  0  0  0
  2  3  1  0  0  0
  2 25  1  0  0  0
  2 82  1  0  0  0
  2 83  1  0  0  0
  3  4  1  0  0  0
  3 84  1  0  0  0
  3 85  1  0  0  0
  4  5  1  0  0  0
  4 86  1  0  0  0
  4 87  1  0  0  0
  5  6  1  0  0  0
  5 26  1  0  0  0
  5 88  1  0  0  0
  6 25  1  0  0  0
  6 89  1  0  0  0
  6 90  1  0  0  0
  7  8  2  0  0  0
  7 26  1  0  0  0
  7 29  1  0  0  0
  8  9  1  0  0  0
  8 22  1  0  0  0
  9 10  1  0  0  0
  9 27  2  0  0  0
 10 11  2  0  0  0
 10 15  1  0  0  0
 11 12  1  0  0  0
 11 91  1  0  0  0
 12 13  2  0  0  0
 12 92  1  0  0  0
 13 14  1  0  0  0
 13 31  1  0  0  0
 14 15  2  0  0  0
 14 93  1  0  0  0
 15 94  1  0  0  0
 16 17  2  0  0  0
 16 21  1  0  0  0
 16 31  1  0  0  0
 17 18  1  0  0  0
 17 95  1  0  0  0
 18 19  2  0  0  0
 18 96  1  0  0  0
 19 20  1  0  0  0
 19 24  1  0  0  0
 20 21  2  0  0  0
 20 97  1  0  0  0
 21 23  1  0  0  0
 22 28  1  0  0  0
 22 32  2  0  0  0
 26 27  1  0  0  0
 28 98  1  0  0  0
 28 99  1  0  0  0
 29100  1  0  0  0
 29101  1  0  0  0
 33 34  1  0  0  0
 33 66  1  0  0  0
 33 70  2  0  0  0
 34 36  1  0  0  0
 34 59  1  0  0  0
 34102  1  0  0  0
 35 44  2  0  0  0
 35 45  1  0  0  0
 35 68  1  0  0  0
 36 56  1  0  0  0
 36103  1  0  0  0
 37 39  1  0  0  0
 37 47  1  0  0  0
 37 66  1  0  0  0
 37104  1  0  0  0
 38 43  2  0  0  0
 38 46  1  0  0  0
 38 47  1  0  0  0
 39 64  1  0  0  0
 39 67  2  0  0  0
 40 52  1  0  0  0
 40 53  2  0  0  0
 40 58  1  0  0  0
 41105  1  0  0  0
 41106  1  0  0  0
 41107  1  0  0  0
 41 48  1  0  0  0
 42 43  1  0  0  0
 42 66  1  0  0  0
 42108  1  0  0  0
 42109  1  0  0  0
 43 44  1  0  0  0
 44110  1  0  0  0
 45 46  2  0  0  0
 45111  1  0  0  0
 46112  1  0  0  0
 47113  1  0  0  0
 47114  1  0  0  0
 48 56  1  0  0  0
 48 65  1  0  0  0
 48115  1  0  0  0
 49 50  1  0  0  0
 49 53  1  0  0  0
 49 64  1  0  0  0
 49116  1  0  0  0
 50 51  1  0  0  0
 50117  1  0  0  0
 50118  1  0  0  0
 51 52  1  0  0  0
 51119  1  0  0  0
 51120  1  0  0  0
 52121  1  0  0  0
 52122  1  0  0  0
 53 54  1  0  0  0
 54 55  2  0  0  0
 54123  1  0  0  0
 55 57  1  0  0  0
 55124  1  0  0  0
 56 69  2  0  0  0
 57 58  2  0  0  0
 57125  1  0  0  0
 58126  1  0  0  0
 59 60  1  0  0  0
 59 61  1  0  0  0
 59 62  1  0  0  0
 60127  1  0  0  0
 60128  1  0  0  0
 60129  1  0  0  0
 61130  1  0  0  0
 61131  1  0  0  0
 61132  1  0  0  0
 62133  1  0  0  0
 62134  1  0  0  0
 62135  1  0  0  0
 63 65  1  0  0  0
 63136  1  0  0  0
 63137  1  0  0  0
 63138  1  0  0  0
 64139  1  0  0  0
 65140  1  0  0  0
 68 78  1  0  0  0
 71 73  2  0  0  0
 71 74  1  0  0  0
 71141  1  0  0  0
 72 74  2  0  0  0
 72 75  1  0  0  0
 72142  1  0  0  0
 73 79  1  0  0  0
 73143  1  0  0  0
 74 80  1  0  0  0
 75 79  2  0  0  0
 75 81  1  0  0  0
 76144  1  0  0  0
 76145  1  0  0  0
 76146  1  0  0  0
 76 78  1  0  0  0
 77 78  1  0  0  0
 77 81  1  0  0  0
 77147  1  0  0  0
 77148  1  0  0  0
 78149  1  0  0  0
 80150  1  0  0  0
M  ISO  4   1 100  68 101  78 101  80 100
M  END
> <chiral flag>
0

> <version>
0

> <s_m_source_file>
/data/baiqing/PycharmProjects/Reinvent-master-3.2/result/LINK_invent/BTK/process_docking_weight1_custom_sum_contain_oxygen_bond_distance_aromatic_linkinvent_7_9_3/rearranged_h_0124.sdf

> <i_m_source_file_index>
37

> <r_mmod_Potential_Energy-OPLS-2005>
487.070281982422

> <r_mmod_Stretch_Energy-OPLS-2005>
332.119964599609

> <r_mmod_Bend_Energy-OPLS-2005>
291.000579833984

> <r_mmod_Torsional_Energy-OPLS-2005>
198.13639831543

> <r_mmod_Improper_Torsional_Energy-OPLS-2005>
5.67301177978516

> <r_mmod_Van_der_Waal_Energy-OPLS-2005>
135.522857666016

> <r_mmod_Electrostatic_Energy-OPLS-2005>
-514.715576171875

> <r_mmod_Solvation_Energy-OPLS-2005>
-220.192108154297

> <b_mmod_Minimization_Converged-OPLS-2005>
0

> <r_mmod_RMS_Derivative-OPLS-2005>
1.45008146762848

$$$$
37
                    3D
 Structure written by MMmdl.
166175  0  0  1  0            999 V2000
  -30.6712  -14.6626   20.4638 C   0  0  0  0  0  0
  -30.4173  -12.4040   19.4611 C   0  0  0  0  0  0
  -29.4997  -12.4919   18.2247 C   0  0  0  0  0  0
  -28.0248  -12.3366   18.6410 C   0  0  0  0  0  0
  -27.6419  -13.2338   19.8495 C   0  0  2  0  0  0
  -28.6887  -13.1610   20.9818 C   0  0  0  0  0  0
  -25.2522  -13.8217   20.5716 C   0  0  0  0  0  0
  -24.1804  -13.0455   20.9201 C   0  0  0  0  0  0
  -24.6397  -11.6933   20.8746 C   0  0  0  0  0  0
  -23.9074  -10.4301   21.0406 C   0  0  0  0  0  0
  -24.3625   -9.4216   21.9185 C   0  0  0  0  0  0
  -23.6301   -8.2248   22.0756 C   0  0  0  0  0  0
  -22.4283   -8.0284   21.3543 C   0  0  0  0  0  0
  -21.9918   -9.0257   20.4648 C   0  0  0  0  0  0
  -22.7244  -10.2138   20.3056 C   0  0  0  0  0  0
  -21.6854   -6.0737   22.5280 C   0  0  0  0  0  0
  -21.4014   -6.5644   23.8213 C   0  0  0  0  0  0
  -21.3659   -5.6797   24.9177 C   0  0  0  0  0  0
  -21.6044   -4.3057   24.7228 C   0  0  0  0  0  0
  -21.8816   -3.8148   23.4348 C   0  0  0  0  0  0
  -21.9195   -4.6964   22.3403 C   0  0  0  0  0  0
  -22.7823  -13.5231   21.1861 C   0  0  0  0  0  0
  -22.1662   -4.2151   21.0978 F   0  0  0  0  0  0
  -21.5631   -3.4540   25.7739 F   0  0  0  0  0  0
  -29.9932  -13.4726   20.3903 N   0  0  0  0  0  0
  -26.2948  -12.9431   20.3305 N   0  0  0  0  0  0
  -25.9332  -11.6565   20.5763 N   0  0  0  0  0  0
  -22.0476  -12.8216   22.0417 N   0  0  0  0  0  0
  -25.4237  -15.1935   20.4147 N   0  0  0  0  0  0
  -31.8709  -14.7064   20.1746 O   0  0  0  0  0  0
  -21.6644   -6.8883   21.4241 O   0  0  0  0  0  0
  -22.3497  -14.5531   20.6709 O   0  0  0  0  0  0
  -24.6273  -31.8581   23.2031 C   0  0  0  0  0  0
  -25.9115  -32.4772   23.8359 C   0  0  1  0  0  0
  -27.2123  -27.3027   20.1236 C   0  0  0  0  0  0
  -25.5927  -33.8574   24.2283 N   0  0  0  0  0  0
  -23.4221  -30.4838   21.5450 C   0  0  2  0  0  0
  -24.8691  -28.9413   20.1076 C   0  0  0  0  0  0
  -22.7479  -29.4617   22.4919 C   0  0  0  0  0  0
  -18.0284  -28.1390   22.8488 C   0  0  0  0  0  0
  -24.1489  -36.7292   23.2640 C   0  0  0  0  0  0
  -25.9658  -30.7838   21.3783 C   0  0  0  0  0  0
  -26.0389  -29.4112   20.7196 C   0  0  0  0  0  0
  -27.2175  -28.6030   20.7205 C   0  0  0  0  0  0
  -26.0297  -26.9018   19.4667 C   0  0  0  0  0  0
  -24.8674  -27.6923   19.4699 C   0  0  0  0  0  0
  -23.6375  -29.8223   20.1588 C   0  0  0  0  0  0
  -25.4116  -36.3082   24.0328 C   0  0  1  0  0  0
  -20.5889  -28.3691   23.1277 C   0  0  2  0  0  0
  -20.6780  -26.9412   22.5410 C   0  0  0  0  0  0
  -19.5751  -26.6384   21.5217 C   0  0  0  0  0  0
  -18.1931  -26.7936   22.1623 C   0  0  0  0  0  0
  -19.1540  -28.8853   23.2881 C   0  0  0  0  0  0
  -18.9466  -30.1461   23.8893 C   0  0  0  0  0  0
  -17.6466  -30.6592   24.0559 C   0  0  0  0  0  0
  -25.9045  -34.9449   23.5104 C   0  0  0  0  0  0
  -16.5354  -29.9093   23.6331 C   0  0  0  0  0  0
  -16.7272  -28.6509   23.0351 C   0  0  0  0  0  0
  -26.4496  -31.6588   25.0732 C   0  0  0  0  0  0
  -25.3722  -31.3737   26.1455 C   0  0  0  0  0  0
  -27.0340  -30.3010   24.6196 C   0  0  0  0  0  0
  -27.6055  -32.4323   25.7501 C   0  0  0  0  0  0
  -27.5579  -37.1805   24.8464 C   0  0  0  0  0  0
  -21.4191  -29.3044   22.3667 N   0  0  0  0  0  0
  -26.4291  -37.3780   23.9405 N   0  0  0  0  0  0
  -24.6906  -31.0585   22.0986 N   0  0  0  0  0  0
  -23.4199  -28.8142   23.2989 O   0  0  0  0  0  0
  -28.2848  -26.3966   20.1718 O   0  0  0  0  0  0
  -26.5614  -34.8920   22.4674 O   0  0  0  0  0  0
  -23.5436  -32.1378   23.7358 O   0  0  0  0  0  0
  -29.3260  -21.3683   21.7511 C   0  0  0  0  0  0
  -29.1983  -21.4039   19.3043 C   0  0  0  0  0  0
  -28.6149  -22.7658   21.8057 C   0  0  0  0  0  0
  -28.5089  -22.8272   19.3414 C   0  0  0  0  0  0
  -29.1801  -18.0635   19.3540 C   0  0  0  0  0  0
  -29.9252  -16.6759   19.3087 C   0  0  0  0  0  0
  -30.2960  -16.7617   21.6831 C   0  0  0  0  0  0
  -28.9283  -20.4772   20.5385 C   0  0  1  0  0  0
  -29.6191  -19.0114   20.5062 C   0  0  1  0  0  0
  -28.8285  -23.7208   20.5847 C   0  0  1  0  0  0
  -29.4929  -18.1162   21.7855 C   0  0  1  0  0  0
  -28.0345  -17.8511   22.2076 C   0  0  0  0  0  0
  -27.9531  -25.0636   20.7477 C   0  0  0  0  0  0
  -29.9588  -15.8514   20.5546 N   0  0  0  0  0  0
  -31.4623  -12.4972   19.1597 H   0  0  0  0  0  0
  -30.3302  -11.4270   19.9396 H   0  0  0  0  0  0
  -29.7670  -11.7211   17.5006 H   0  0  0  0  0  0
  -29.6439  -13.4493   17.7212 H   0  0  0  0  0  0
  -27.8676  -11.2879   18.8957 H   0  0  0  0  0  0
  -27.3689  -12.5434   17.7944 H   0  0  0  0  0  0
  -27.6407  -14.2582   19.4760 H   0  0  0  0  0  0
  -28.7034  -12.1714   21.4404 H   0  0  0  0  0  0
  -28.4438  -13.8693   21.7757 H   0  0  0  0  0  0
  -25.2770   -9.5692   22.4762 H   0  0  0  0  0  0
  -24.0013   -7.4639   22.7476 H   0  0  0  0  0  0
  -21.0851   -8.8769   19.8955 H   0  0  0  0  0  0
  -22.3701  -10.9672   19.6164 H   0  0  0  0  0  0
  -21.2001   -7.6153   23.9716 H   0  0  0  0  0  0
  -21.1487   -6.0528   25.9080 H   0  0  0  0  0  0
  -22.0596   -2.7612   23.2845 H   0  0  0  0  0  0
  -22.4098  -11.9873   22.4797 H   0  0  0  0  0  0
  -21.1090  -13.1227   22.2625 H   0  0  0  0  0  0
  -24.6660  -15.8553   20.5407 H   0  0  0  0  0  0
  -26.2917  -15.6313   20.1335 H   0  0  0  0  0  0
  -26.7168  -32.5435   23.1096 H   0  0  0  0  0  0
  -25.0080  -33.9717   25.0431 H   0  0  0  0  0  0
  -22.7173  -31.3058   21.4034 H   0  0  0  0  0  0
  -23.3753  -35.9621   23.3303 H   0  0  0  0  0  0
  -24.3583  -36.8907   22.2052 H   0  0  0  0  0  0
  -23.7239  -37.6496   23.6656 H   0  0  0  0  0  0
  -26.1017  -31.5470   20.6104 H   0  0  0  0  0  0
  -26.8449  -30.8308   22.0093 H   0  0  0  0  0  0
  -28.1106  -28.9538   21.2182 H   0  0  0  0  0  0
  -25.9895  -25.9492   18.9580 H   0  0  0  0  0  0
  -23.9752  -27.3308   18.9772 H   0  0  0  0  0  0
  -23.7586  -30.6007   19.4044 H   0  0  0  0  0  0
  -22.7570  -29.2532   19.8537 H   0  0  0  0  0  0
  -25.1304  -36.1934   25.0821 H   0  0  0  0  0  0
  -20.9984  -28.3264   24.1396 H   0  0  0  0  0  0
  -20.5689  -26.2295   23.3608 H   0  0  0  0  0  0
  -21.6647  -26.7442   22.1194 H   0  0  0  0  0  0
  -19.6909  -25.6296   21.1243 H   0  0  0  0  0  0
  -19.6697  -27.3191   20.6747 H   0  0  0  0  0  0
  -17.4205  -26.6675   21.4025 H   0  0  0  0  0  0
  -18.0327  -26.0092   22.9027 H   0  0  0  0  0  0
  -19.7944  -30.7277   24.2261 H   0  0  0  0  0  0
  -17.5022  -31.6276   24.5162 H   0  0  0  0  0  0
  -15.5358  -30.2992   23.7673 H   0  0  0  0  0  0
  -15.8667  -28.0831   22.7070 H   0  0  0  0  0  0
  -24.5892  -30.7091   25.7780 H   0  0  0  0  0  0
  -24.8922  -32.2912   26.4871 H   0  0  0  0  0  0
  -25.8043  -30.8915   27.0231 H   0  0  0  0  0  0
  -26.2917  -29.6758   24.1219 H   0  0  0  0  0  0
  -27.4033  -29.7273   25.4706 H   0  0  0  0  0  0
  -27.8790  -30.4301   23.9430 H   0  0  0  0  0  0
  -27.2667  -33.3631   26.2067 H   0  0  0  0  0  0
  -28.3874  -32.6865   25.0328 H   0  0  0  0  0  0
  -28.0708  -31.8447   26.5426 H   0  0  0  0  0  0
  -28.2602  -38.0095   24.7514 H   0  0  0  0  0  0
  -28.1074  -36.2634   24.6298 H   0  0  0  0  0  0
  -27.2299  -37.1456   25.8865 H   0  0  0  0  0  0
  -20.9364  -29.8777   21.6889 H   0  0  0  0  0  0
  -26.0176  -38.2854   24.1409 H   0  0  0  0  0  0
  -29.1009  -20.8382   22.6770 H   0  0  0  0  0  0
  -30.4067  -21.5177   21.7505 H   0  0  0  0  0  0
  -30.2748  -21.5415   19.1952 H   0  0  0  0  0  0
  -28.8784  -20.8924   18.3964 H   0  0  0  0  0  0
  -28.9336  -23.2782   22.7139 H   0  0  0  0  0  0
  -27.5442  -22.5939   21.9298 H   0  0  0  0  0  0
  -27.4295  -22.6796   19.2871 H   0  0  0  0  0  0
  -28.7726  -23.3765   18.4365 H   0  0  0  0  0  0
  -28.1043  -17.8949   19.4017 H   0  0  0  0  0  0
  -29.3433  -18.5658   18.4002 H   0  0  0  0  0  0
  -30.9532  -16.8655   18.9928 H   0  0  0  0  0  0
  -29.4828  -16.0735   18.5133 H   0  0  0  0  0  0
  -30.1809  -16.2084   22.6174 H   0  0  0  0  0  0
  -31.3598  -17.0014   21.6199 H   0  0  0  0  0  0
  -27.8502  -20.3189   20.5892 H   0  0  0  0  0  0
  -30.6859  -19.1948   20.3666 H   0  0  0  0  0  0
  -29.8825  -23.9998   20.5608 H   0  0  0  0  0  0
  -29.9510  -18.6726   22.6044 H   0  0  0  0  0  0
  -27.4915  -17.2585   21.4726 H   0  0  0  0  0  0
  -27.4855  -18.7804   22.3583 H   0  0  0  0  0  0
  -27.9959  -17.3020   23.1488 H   0  0  0  0  0  0
  -27.9210  -25.2736   21.8176 H   0  0  0  0  0  0
  -26.9282  -24.7750   20.5190 H   0  0  0  0  0  0
  1 25  1  0  0  0
  1 30  2  0  0  0
  1 84  1  0  0  0
  2  3  1  0  0  0
  2 25  1  0  0  0
  2 85  1  0  0  0
  2 86  1  0  0  0
  3  4  1  0  0  0
  3 87  1  0  0  0
  3 88  1  0  0  0
  4  5  1  0  0  0
  4 89  1  0  0  0
  4 90  1  0  0  0
  5  6  1  0  0  0
  5 26  1  0  0  0
  5 91  1  0  0  0
  6 25  1  0  0  0
  6 92  1  0  0  0
  6 93  1  0  0  0
  7  8  2  0  0  0
  7 26  1  0  0  0
  7 29  1  0  0  0
  8  9  1  0  0  0
  8 22  1  0  0  0
  9 10  1  0  0  0
  9 27  2  0  0  0
 10 11  2  0  0  0
 10 15  1  0  0  0
 11 12  1  0  0  0
 11 94  1  0  0  0
 12 13  2  0  0  0
 12 95  1  0  0  0
 13 14  1  0  0  0
 13 31  1  0  0  0
 14 15  2  0  0  0
 14 96  1  0  0  0
 15 97  1  0  0  0
 16 17  2  0  0  0
 16 21  1  0  0  0
 16 31  1  0  0  0
 17 18  1  0  0  0
 17 98  1  0  0  0
 18 19  2  0  0  0
 18 99  1  0  0  0
 19 20  1  0  0  0
 19 24  1  0  0  0
 20 21  2  0  0  0
 20100  1  0  0  0
 21 23  1  0  0  0
 22 28  1  0  0  0
 22 32  2  0  0  0
 26 27  1  0  0  0
 28101  1  0  0  0
 28102  1  0  0  0
 29103  1  0  0  0
 29104  1  0  0  0
 33 34  1  0  0  0
 33 66  1  0  0  0
 33 70  2  0  0  0
 34 36  1  0  0  0
 34 59  1  0  0  0
 34105  1  0  0  0
 35 44  2  0  0  0
 35 45  1  0  0  0
 35 68  1  0  0  0
 36 56  1  0  0  0
 36106  1  0  0  0
 37 39  1  0  0  0
 37 47  1  0  0  0
 37 66  1  0  0  0
 37107  1  0  0  0
 38 43  2  0  0  0
 38 46  1  0  0  0
 38 47  1  0  0  0
 39 64  1  0  0  0
 39 67  2  0  0  0
 40 52  1  0  0  0
 40 53  2  0  0  0
 40 58  1  0  0  0
 41108  1  0  0  0
 41109  1  0  0  0
 41110  1  0  0  0
 41 48  1  0  0  0
 42 43  1  0  0  0
 42 66  1  0  0  0
 42111  1  0  0  0
 42112  1  0  0  0
 43 44  1  0  0  0
 44113  1  0  0  0
 45 46  2  0  0  0
 45114  1  0  0  0
 46115  1  0  0  0
 47116  1  0  0  0
 47117  1  0  0  0
 48 56  1  0  0  0
 48 65  1  0  0  0
 48118  1  0  0  0
 49 50  1  0  0  0
 49 53  1  0  0  0
 49 64  1  0  0  0
 49119  1  0  0  0
 50 51  1  0  0  0
 50120  1  0  0  0
 50121  1  0  0  0
 51 52  1  0  0  0
 51122  1  0  0  0
 51123  1  0  0  0
 52124  1  0  0  0
 52125  1  0  0  0
 53 54  1  0  0  0
 54 55  2  0  0  0
 54126  1  0  0  0
 55 57  1  0  0  0
 55127  1  0  0  0
 56 69  2  0  0  0
 57 58  2  0  0  0
 57128  1  0  0  0
 58129  1  0  0  0
 59 60  1  0  0  0
 59 61  1  0  0  0
 59 62  1  0  0  0
 60130  1  0  0  0
 60131  1  0  0  0
 60132  1  0  0  0
 61133  1  0  0  0
 61134  1  0  0  0
 61135  1  0  0  0
 62136  1  0  0  0
 62137  1  0  0  0
 62138  1  0  0  0
 63 65  1  0  0  0
 63139  1  0  0  0
 63140  1  0  0  0
 63141  1  0  0  0
 64142  1  0  0  0
 65143  1  0  0  0
 68 83  1  0  0  0
 71 73  1  0  0  0
 71144  1  0  0  0
 71145  1  0  0  0
 71 78  1  0  0  0
 72 74  1  0  0  0
 72 78  1  0  0  0
 72146  1  0  0  0
 72147  1  0  0  0
 73 80  1  0  0  0
 73148  1  0  0  0
 73149  1  0  0  0
 74 80  1  0  0  0
 74150  1  0  0  0
 74151  1  0  0  0
 75 76  1  0  0  0
 75152  1  0  0  0
 75153  1  0  0  0
 75 79  1  0  0  0
 76 84  1  0  0  0
 76154  1  0  0  0
 76155  1  0  0  0
 77 81  1  0  0  0
 77 84  1  0  0  0
 77156  1  0  0  0
 77157  1  0  0  0
 78 79  1  0  0  0
 78158  1  0  0  0
 79 81  1  0  0  0
 79159  1  0  0  0
 80 83  1  0  0  0
 80160  1  0  0  0
 81 82  1  0  0  0
 81161  1  0  0  0
 82162  1  0  0  0
 82163  1  0  0  0
 82164  1  0  0  0
 83165  1  0  0  0
 83166  1  0  0  0
M  ISO  4   1 100  68 101  83 101  84 100
M  END
> <chiral flag>
0

> <version>
0

> <s_m_source_file>
/data/baiqing/PycharmProjects/Reinvent-master-3.2/result/LINK_invent/BTK/process_docking_weight1_custom_sum_contain_oxygen_bond_distance_aromatic_linkinvent_7_9_3/rearranged_h_0124.sdf

> <i_m_source_file_index>
38

> <r_mmod_Potential_Energy-OPLS-2005>
390.484771728516

> <r_mmod_Stretch_Energy-OPLS-2005>
92.1490478515625

> <r_mmod_Bend_Energy-OPLS-2005>
177.089736938477

> <r_mmod_Torsional_Energy-OPLS-2005>
382.357025146484

> <r_mmod_Improper_Torsional_Energy-OPLS-2005>
12.3984975814819

> <r_mmod_Van_der_Waal_Energy-OPLS-2005>
126.418304443359

> <r_mmod_Electrostatic_Energy-OPLS-2005>
-289.604125976562

> <r_mmod_Solvation_Energy-OPLS-2005>
-175.232543945312

> <b_mmod_Minimization_Converged-OPLS-2005>
0

> <r_mmod_RMS_Derivative-OPLS-2005>
0.926476418972015

$$$$
38
                    3D
 Structure written by MMmdl.
171180  0  0  1  0            999 V2000
  -30.6061  -14.7270   20.4696 C   0  0  0  0  0  0
  -30.4371  -12.4452   19.4666 C   0  0  0  0  0  0
  -29.5102  -12.5070   18.2336 C   0  0  0  0  0  0
  -28.0324  -12.3453   18.6440 C   0  0  0  0  0  0
  -27.6424  -13.2330   19.8565 C   0  0  2  0  0  0
  -28.6893  -13.1383   20.9861 C   0  0  0  0  0  0
  -25.2474  -13.8135   20.5716 C   0  0  0  0  0  0
  -24.1779  -13.0366   20.9216 C   0  0  0  0  0  0
  -24.6388  -11.6866   20.8762 C   0  0  0  0  0  0
  -23.9064  -10.4241   21.0414 C   0  0  0  0  0  0
  -24.3597   -9.4166   21.9198 C   0  0  0  0  0  0
  -23.6255   -8.2215   22.0760 C   0  0  0  0  0  0
  -22.4243   -8.0254   21.3549 C   0  0  0  0  0  0
  -21.9892   -9.0232   20.4660 C   0  0  0  0  0  0
  -22.7231  -10.2106   20.3070 C   0  0  0  0  0  0
  -21.6844   -6.0716   22.5279 C   0  0  0  0  0  0
  -21.4013   -6.5625   23.8207 C   0  0  0  0  0  0
  -21.3664   -5.6791   24.9176 C   0  0  0  0  0  0
  -21.6047   -4.3049   24.7235 C   0  0  0  0  0  0
  -21.8810   -3.8131   23.4355 C   0  0  0  0  0  0
  -21.9171   -4.6945   22.3409 C   0  0  0  0  0  0
  -22.7807  -13.5174   21.1835 C   0  0  0  0  0  0
  -22.1652   -4.2127   21.0990 F   0  0  0  0  0  0
  -21.5623   -3.4531   25.7749 F   0  0  0  0  0  0
  -29.9861  -13.5002   20.4028 N   0  0  0  0  0  0
  -26.2931  -12.9387   20.3310 N   0  0  0  0  0  0
  -25.9325  -11.6527   20.5777 N   0  0  0  0  0  0
  -22.0427  -12.8205   22.0421 N   0  0  0  0  0  0
  -25.4088  -15.1841   20.4203 N   0  0  0  0  0  0
  -31.7959  -14.8277   20.1582 O   0  0  0  0  0  0
  -21.6616   -6.8855   21.4235 O   0  0  0  0  0  0
  -22.3509  -14.5449   20.6638 O   0  0  0  0  0  0
  -24.6311  -31.8563   23.1956 C   0  0  0  0  0  0
  -25.9138  -32.4762   23.8307 C   0  0  1  0  0  0
  -27.2235  -27.2848   20.1366 C   0  0  0  0  0  0
  -25.5922  -33.8564   24.2235 N   0  0  0  0  0  0
  -23.4255  -30.4763   21.5393 C   0  0  2  0  0  0
  -24.8731  -28.9186   20.1135 C   0  0  0  0  0  0
  -22.7500  -29.4599   22.4923 C   0  0  0  0  0  0
  -18.0289  -28.1421   22.8484 C   0  0  0  0  0  0
  -24.1490  -36.7294   23.2638 C   0  0  0  0  0  0
  -25.9692  -30.7777   21.3689 C   0  0  0  0  0  0
  -26.0436  -29.3993   20.7167 C   0  0  0  0  0  0
  -27.2271  -28.5984   20.7055 C   0  0  0  0  0  0
  -26.0329  -26.8531   19.5182 C   0  0  0  0  0  0
  -24.8720  -27.6541   19.5004 C   0  0  0  0  0  0
  -23.6430  -29.8051   20.1565 C   0  0  0  0  0  0
  -25.4123  -36.3084   24.0311 C   0  0  1  0  0  0
  -20.5895  -28.3702   23.1280 C   0  0  2  0  0  0
  -20.6775  -26.9420   22.5410 C   0  0  0  0  0  0
  -19.5734  -26.6386   21.5226 C   0  0  0  0  0  0
  -18.1915  -26.7956   22.1636 C   0  0  0  0  0  0
  -19.1552  -28.8878   23.2880 C   0  0  0  0  0  0
  -18.9487  -30.1481   23.8907 C   0  0  0  0  0  0
  -17.6489  -30.6607   24.0597 C   0  0  0  0  0  0
  -25.9068  -34.9448   23.5092 C   0  0  0  0  0  0
  -16.5377  -29.9122   23.6342 C   0  0  0  0  0  0
  -16.7282  -28.6549   23.0344 C   0  0  0  0  0  0
  -26.4498  -31.6579   25.0691 C   0  0  0  0  0  0
  -25.3703  -31.3706   26.1391 C   0  0  0  0  0  0
  -27.0331  -30.2996   24.6154 C   0  0  0  0  0  0
  -27.6065  -32.4307   25.7462 C   0  0  0  0  0  0
  -27.5582  -37.1799   24.8464 C   0  0  0  0  0  0
  -21.4211  -29.3043   22.3664 N   0  0  0  0  0  0
  -26.4302  -37.3771   23.9401 N   0  0  0  0  0  0
  -24.6937  -31.0537   22.0919 N   0  0  0  0  0  0
  -23.4215  -28.8150   23.3017 O   0  0  0  0  0  0
  -28.3370  -26.4273   20.1244 O   0  0  0  0  0  0
  -26.5655  -34.8930   22.4674 O   0  0  0  0  0  0
  -23.5461  -32.1383   23.7259 O   0  0  0  0  0  0
  -27.4958  -20.6180   19.8570 C   0  0  0  0  0  0
  -28.0397  -18.2420   19.7992 C   0  0  0  0  0  0
  -27.1317  -19.2947   19.5374 C   0  0  0  0  0  0
  -28.7479  -20.9017   20.4201 C   0  0  0  0  0  0
  -29.2839  -18.5213   20.3917 C   0  0  0  0  0  0
  -24.2225  -17.8108   17.3741 C   0  0  0  0  0  0
  -25.6551  -17.9361   17.9164 C   0  0  0  0  0  0
  -23.2228  -17.5437   18.5101 C   0  0  0  0  0  0
  -24.7293  -18.7958   20.1237 C   0  0  0  0  0  0
  -25.7342  -19.0477   18.9827 C   0  0  1  0  0  0
  -23.2877  -18.6275   19.6031 C   0  0  2  0  0  0
  -22.3102  -18.3179   20.7475 C   0  0  0  0  0  0
  -29.0420  -22.3990   20.8800 C   0  0  0  0  0  0
  -30.2862  -17.3209   20.6996 C   0  0  0  0  0  0
  -28.5734  -23.6992   20.0211 C   0  0  0  0  0  0
  -28.2471  -25.0884   20.7832 C   0  0  0  0  0  0
  -29.6178  -19.8449   20.6874 N   0  0  0  0  0  0
  -29.8387  -15.8579   20.6860 N   0  0  0  0  0  0
  -31.4772  -12.5766   19.1614 H   0  0  0  0  0  0
  -30.3898  -11.4638   19.9406 H   0  0  0  0  0  0
  -29.7879  -11.7376   17.5112 H   0  0  0  0  0  0
  -29.6438  -13.4654   17.7297 H   0  0  0  0  0  0
  -27.8712  -11.2961   18.8927 H   0  0  0  0  0  0
  -27.3814  -12.5614   17.7952 H   0  0  0  0  0  0
  -27.6428  -14.2626   19.4961 H   0  0  0  0  0  0
  -28.7252  -12.1255   21.3920 H   0  0  0  0  0  0
  -28.4374  -13.7918   21.8215 H   0  0  0  0  0  0
  -25.2732   -9.5621   22.4793 H   0  0  0  0  0  0
  -23.9932   -7.4604   22.7480 H   0  0  0  0  0  0
  -21.0820   -8.8757   19.8979 H   0  0  0  0  0  0
  -22.3675  -10.9648   19.6190 H   0  0  0  0  0  0
  -21.2018   -7.6139   23.9712 H   0  0  0  0  0  0
  -21.1516   -6.0529   25.9089 H   0  0  0  0  0  0
  -22.0591   -2.7590   23.2864 H   0  0  0  0  0  0
  -22.4031  -11.9904   22.4898 H   0  0  0  0  0  0
  -21.1049  -13.1281   22.2582 H   0  0  0  0  0  0
  -24.6186  -15.8143   20.5006 H   0  0  0  0  0  0
  -26.2419  -15.6379   20.0761 H   0  0  0  0  0  0
  -26.7214  -32.5415   23.1055 H   0  0  0  0  0  0
  -24.9992  -33.9683   25.0330 H   0  0  0  0  0  0
  -22.7211  -31.2978   21.3917 H   0  0  0  0  0  0
  -23.3753  -35.9624   23.3309 H   0  0  0  0  0  0
  -24.3571  -36.8924   22.2054 H   0  0  0  0  0  0
  -23.7247  -37.6494   23.6669 H   0  0  0  0  0  0
  -26.1068  -31.5357   20.5965 H   0  0  0  0  0  0
  -26.8496  -30.8285   21.9984 H   0  0  0  0  0  0
  -28.1334  -28.9718   21.1623 H   0  0  0  0  0  0
  -25.9991  -25.8799   19.0485 H   0  0  0  0  0  0
  -23.9763  -27.2843   19.0193 H   0  0  0  0  0  0
  -23.7698  -30.5826   19.4015 H   0  0  0  0  0  0
  -22.7609  -29.2378   19.8515 H   0  0  0  0  0  0
  -25.1313  -36.1920   25.0799 H   0  0  0  0  0  0
  -21.0003  -28.3276   24.1396 H   0  0  0  0  0  0
  -20.5680  -26.2322   23.3620 H   0  0  0  0  0  0
  -21.6649  -26.7432   22.1215 H   0  0  0  0  0  0
  -19.6863  -25.6289   21.1269 H   0  0  0  0  0  0
  -19.6666  -27.3171   20.6737 H   0  0  0  0  0  0
  -17.4182  -26.6733   21.4036 H   0  0  0  0  0  0
  -18.0290  -26.0120   22.9046 H   0  0  0  0  0  0
  -19.7962  -30.7297   24.2277 H   0  0  0  0  0  0
  -17.5047  -31.6263   24.5245 H   0  0  0  0  0  0
  -15.5380  -30.3041   23.7683 H   0  0  0  0  0  0
  -15.8670  -28.0890   22.7054 H   0  0  0  0  0  0
  -24.5898  -30.7053   25.7678 H   0  0  0  0  0  0
  -24.8866  -32.2867   26.4790 H   0  0  0  0  0  0
  -25.7997  -30.8875   27.0181 H   0  0  0  0  0  0
  -26.2894  -29.6746   24.1197 H   0  0  0  0  0  0
  -27.4051  -29.7249   25.4647 H   0  0  0  0  0  0
  -27.8755  -30.4275   23.9356 H   0  0  0  0  0  0
  -27.2694  -33.3619   26.2016 H   0  0  0  0  0  0
  -28.3875  -32.6843   25.0285 H   0  0  0  0  0  0
  -28.0729  -31.8441   26.5382 H   0  0  0  0  0  0
  -28.2604  -38.0096   24.7529 H   0  0  0  0  0  0
  -28.1086  -36.2632   24.6289 H   0  0  0  0  0  0
  -27.2300  -37.1448   25.8867 H   0  0  0  0  0  0
  -20.9402  -29.8750   21.6856 H   0  0  0  0  0  0
  -26.0186  -38.2846   24.1403 H   0  0  0  0  0  0
  -26.7826  -21.4175   19.7115 H   0  0  0  0  0  0
  -27.7866  -17.2209   19.5588 H   0  0  0  0  0  0
  -24.1746  -17.0019   16.6453 H   0  0  0  0  0  0
  -23.9444  -18.7237   16.8469 H   0  0  0  0  0  0
  -26.3424  -18.1542   17.0982 H   0  0  0  0  0  0
  -25.9579  -16.9760   18.3328 H   0  0  0  0  0  0
  -23.4294  -16.5676   18.9481 H   0  0  0  0  0  0
  -22.2121  -17.4841   18.1052 H   0  0  0  0  0  0
  -24.7627  -19.6318   20.8225 H   0  0  0  0  0  0
  -25.0349  -17.9175   20.6914 H   0  0  0  0  0  0
  -25.4397  -19.9715   18.4823 H   0  0  0  0  0  0
  -22.9833  -19.5747   19.1549 H   0  0  0  0  0  0
  -22.5437  -17.3674   21.2292 H   0  0  0  0  0  0
  -21.2859  -18.2532   20.3787 H   0  0  0  0  0  0
  -22.3309  -19.0928   21.5153 H   0  0  0  0  0  0
  -30.1123  -22.4886   21.0650 H   0  0  0  0  0  0
  -28.5860  -22.4864   21.8666 H   0  0  0  0  0  0
  -30.7157  -17.5080   21.6844 H   0  0  0  0  0  0
  -31.1173  -17.4245   20.0002 H   0  0  0  0  0  0
  -27.6814  -23.4454   19.4500 H   0  0  0  0  0  0
  -29.3377  -23.8887   19.2665 H   0  0  0  0  0  0
  -28.9468  -25.1567   21.6164 H   0  0  0  0  0  0
  -27.2728  -24.9886   21.2636 H   0  0  0  0  0  0
  -28.8578  -15.7056   20.8566 H   0  0  0  0  0  0
  1 25  1  0  0  0
  1 30  2  0  0  0
  1 88  1  0  0  0
  2  3  1  0  0  0
  2 25  1  0  0  0
  2 89  1  0  0  0
  2 90  1  0  0  0
  3  4  1  0  0  0
  3 91  1  0  0  0
  3 92  1  0  0  0
  4  5  1  0  0  0
  4 93  1  0  0  0
  4 94  1  0  0  0
  5  6  1  0  0  0
  5 26  1  0  0  0
  5 95  1  0  0  0
  6 25  1  0  0  0
  6 96  1  0  0  0
  6 97  1  0  0  0
  7  8  2  0  0  0
  7 26  1  0  0  0
  7 29  1  0  0  0
  8  9  1  0  0  0
  8 22  1  0  0  0
  9 10  1  0  0  0
  9 27  2  0  0  0
 10 11  2  0  0  0
 10 15  1  0  0  0
 11 12  1  0  0  0
 11 98  1  0  0  0
 12 13  2  0  0  0
 12 99  1  0  0  0
 13 14  1  0  0  0
 13 31  1  0  0  0
 14 15  2  0  0  0
 14100  1  0  0  0
 15101  1  0  0  0
 16 17  2  0  0  0
 16 21  1  0  0  0
 16 31  1  0  0  0
 17 18  1  0  0  0
 17102  1  0  0  0
 18 19  2  0  0  0
 18103  1  0  0  0
 19 20  1  0  0  0
 19 24  1  0  0  0
 20 21  2  0  0  0
 20104  1  0  0  0
 21 23  1  0  0  0
 22 28  1  0  0  0
 22 32  2  0  0  0
 26 27  1  0  0  0
 28105  1  0  0  0
 28106  1  0  0  0
 29107  1  0  0  0
 29108  1  0  0  0
 33 34  1  0  0  0
 33 66  1  0  0  0
 33 70  2  0  0  0
 34 36  1  0  0  0
 34 59  1  0  0  0
 34109  1  0  0  0
 35 44  2  0  0  0
 35 45  1  0  0  0
 35 68  1  0  0  0
 36 56  1  0  0  0
 36110  1  0  0  0
 37 39  1  0  0  0
 37 47  1  0  0  0
 37 66  1  0  0  0
 37111  1  0  0  0
 38 43  2  0  0  0
 38 46  1  0  0  0
 38 47  1  0  0  0
 39 64  1  0  0  0
 39 67  2  0  0  0
 40 52  1  0  0  0
 40 53  2  0  0  0
 40 58  1  0  0  0
 41112  1  0  0  0
 41113  1  0  0  0
 41114  1  0  0  0
 41 48  1  0  0  0
 42 43  1  0  0  0
 42 66  1  0  0  0
 42115  1  0  0  0
 42116  1  0  0  0
 43 44  1  0  0  0
 44117  1  0  0  0
 45 46  2  0  0  0
 45118  1  0  0  0
 46119  1  0  0  0
 47120  1  0  0  0
 47121  1  0  0  0
 48 56  1  0  0  0
 48 65  1  0  0  0
 48122  1  0  0  0
 49 50  1  0  0  0
 49 53  1  0  0  0
 49 64  1  0  0  0
 49123  1  0  0  0
 50 51  1  0  0  0
 50124  1  0  0  0
 50125  1  0  0  0
 51 52  1  0  0  0
 51126  1  0  0  0
 51127  1  0  0  0
 52128  1  0  0  0
 52129  1  0  0  0
 53 54  1  0  0  0
 54 55  2  0  0  0
 54130  1  0  0  0
 55 57  1  0  0  0
 55131  1  0  0  0
 56 69  2  0  0  0
 57 58  2  0  0  0
 57132  1  0  0  0
 58133  1  0  0  0
 59 60  1  0  0  0
 59 61  1  0  0  0
 59 62  1  0  0  0
 60134  1  0  0  0
 60135  1  0  0  0
 60136  1  0  0  0
 61137  1  0  0  0
 61138  1  0  0  0
 61139  1  0  0  0
 62140  1  0  0  0
 62141  1  0  0  0
 62142  1  0  0  0
 63 65  1  0  0  0
 63143  1  0  0  0
 63144  1  0  0  0
 63145  1  0  0  0
 64146  1  0  0  0
 65147  1  0  0  0
 68 86  1  0  0  0
 71 73  2  0  0  0
 71 74  1  0  0  0
 71148  1  0  0  0
 72 73  1  0  0  0
 72 75  2  0  0  0
 72149  1  0  0  0
 73 80  1  0  0  0
 74 83  1  0  0  0
 74 87  2  0  0  0
 75 84  1  0  0  0
 75 87  1  0  0  0
 76 77  1  0  0  0
 76 78  1  0  0  0
 76150  1  0  0  0
 76151  1  0  0  0
 77 80  1  0  0  0
 77152  1  0  0  0
 77153  1  0  0  0
 78 81  1  0  0  0
 78154  1  0  0  0
 78155  1  0  0  0
 79 80  1  0  0  0
 79 81  1  0  0  0
 79156  1  0  0  0
 79157  1  0  0  0
 80158  1  0  0  0
 81 82  1  0  0  0
 81159  1  0  0  0
 82160  1  0  0  0
 82161  1  0  0  0
 82162  1  0  0  0
 83 85  1  0  0  0
 83163  1  0  0  0
 83164  1  0  0  0
 84 88  1  0  0  0
 84165  1  0  0  0
 84166  1  0  0  0
 85 86  1  0  0  0
 85167  1  0  0  0
 85168  1  0  0  0
 86169  1  0  0  0
 86170  1  0  0  0
 88171  1  0  0  0
M  ISO  4   1 100  68 101  86 101  88 100
M  END
> <chiral flag>
0

> <version>
0

> <s_m_source_file>
/data/baiqing/PycharmProjects/Reinvent-master-3.2/result/LINK_invent/BTK/process_docking_weight1_custom_sum_contain_oxygen_bond_distance_aromatic_linkinvent_7_9_3/rearranged_h_0124.sdf

> <i_m_source_file_index>
39

> <r_mmod_Potential_Energy-OPLS-2005>
-126.321136474609

> <r_mmod_Stretch_Energy-OPLS-2005>
116.366256713867

> <r_mmod_Bend_Energy-OPLS-2005>
165.624420166016

> <r_mmod_Torsional_Energy-OPLS-2005>
248.115005493164

> <r_mmod_Improper_Torsional_Energy-OPLS-2005>
5.17695474624634

> <r_mmod_Van_der_Waal_Energy-OPLS-2005>
124.255065917969

> <r_mmod_Electrostatic_Energy-OPLS-2005>
-648.802062988281

> <r_mmod_Solvation_Energy-OPLS-2005>
-209.185577392578

> <b_mmod_Minimization_Converged-OPLS-2005>
0

> <r_mmod_RMS_Derivative-OPLS-2005>
2.99526929855347

$$$$
39
                    3D
 Structure written by MMmdl.
156164  0  0  1  0            999 V2000
  -30.5199  -14.9625   20.4036 C   0  0  0  0  0  0
  -30.4496  -12.6067   19.4630 C   0  0  0  0  0  0
  -29.5214  -12.5351   18.2300 C   0  0  0  0  0  0
  -28.0517  -12.3249   18.6495 C   0  0  0  0  0  0
  -27.6257  -13.2500   19.8212 C   0  0  2  0  0  0
  -28.6781  -13.2804   20.9469 C   0  0  0  0  0  0
  -25.2457  -13.8216   20.5667 C   0  0  0  0  0  0
  -24.1791  -13.0433   20.9242 C   0  0  0  0  0  0
  -24.6414  -11.6917   20.8748 C   0  0  0  0  0  0
  -23.9095  -10.4285   21.0377 C   0  0  0  0  0  0
  -24.3647   -9.4212   21.9180 C   0  0  0  0  0  0
  -23.6302   -8.2259   22.0761 C   0  0  0  0  0  0
  -22.4299   -8.0286   21.3547 C   0  0  0  0  0  0
  -21.9918   -9.0259   20.4665 C   0  0  0  0  0  0
  -22.7246  -10.2132   20.3056 C   0  0  0  0  0  0
  -21.6878   -6.0735   22.5284 C   0  0  0  0  0  0
  -21.4011   -6.5633   23.8208 C   0  0  0  0  0  0
  -21.3655   -5.6796   24.9177 C   0  0  0  0  0  0
  -21.6063   -4.3061   24.7238 C   0  0  0  0  0  0
  -21.8819   -3.8150   23.4351 C   0  0  0  0  0  0
  -21.9190   -4.6963   22.3405 C   0  0  0  0  0  0
  -22.7804  -13.5188   21.1890 C   0  0  0  0  0  0
  -22.1661   -4.2142   21.0988 F   0  0  0  0  0  0
  -21.5630   -3.4542   25.7752 F   0  0  0  0  0  0
  -29.9433  -13.6996   20.3324 N   0  0  0  0  0  0
  -26.2879  -12.9450   20.3169 N   0  0  0  0  0  0
  -25.9342  -11.6567   20.5676 N   0  0  0  0  0  0
  -22.0444  -12.8189   22.0460 N   0  0  0  0  0  0
  -25.4075  -15.1942   20.3999 N   0  0  0  0  0  0
  -31.7448  -15.0480   20.2877 O   0  0  0  0  0  0
  -21.6646   -6.8889   21.4260 O   0  0  0  0  0  0
  -22.3479  -14.5484   20.6710 O   0  0  0  0  0  0
  -24.6447  -31.8379   23.1846 C   0  0  0  0  0  0
  -25.9205  -32.4659   23.8265 C   0  0  1  0  0  0
  -27.2417  -27.1303   20.1591 C   0  0  0  0  0  0
  -25.5945  -33.8471   24.2194 N   0  0  0  0  0  0
  -23.4507  -30.4504   21.5309 C   0  0  2  0  0  0
  -24.9048  -28.8650   20.1195 C   0  0  0  0  0  0
  -22.7576  -29.4484   22.4878 C   0  0  0  0  0  0
  -18.0294  -28.1358   22.8482 C   0  0  0  0  0  0
  -24.1485  -36.7258   23.2645 C   0  0  0  0  0  0
  -26.0042  -30.7122   21.3804 C   0  0  0  0  0  0
  -26.0804  -29.3176   20.7315 C   0  0  0  0  0  0
  -27.2504  -28.4685   20.7271 C   0  0  0  0  0  0
  -26.0355  -26.7655   19.5290 C   0  0  0  0  0  0
  -24.8955  -27.6026   19.5007 C   0  0  0  0  0  0
  -23.6788  -29.7660   20.1551 C   0  0  0  0  0  0
  -25.4116  -36.3024   24.0327 C   0  0  1  0  0  0
  -20.5906  -28.3687   23.1251 C   0  0  2  0  0  0
  -20.6761  -26.9390   22.5408 C   0  0  0  0  0  0
  -19.5746  -26.6356   21.5205 C   0  0  0  0  0  0
  -18.1924  -26.7898   22.1611 C   0  0  0  0  0  0
  -19.1547  -28.8846   23.2854 C   0  0  0  0  0  0
  -18.9455  -30.1446   23.8868 C   0  0  0  0  0  0
  -17.6450  -30.6560   24.0546 C   0  0  0  0  0  0
  -25.9066  -34.9392   23.5072 C   0  0  0  0  0  0
  -16.5346  -29.9037   23.6328 C   0  0  0  0  0  0
  -16.7280  -28.6452   23.0354 C   0  0  0  0  0  0
  -26.4539  -31.6518   25.0705 C   0  0  0  0  0  0
  -25.3748  -31.3686   26.1417 C   0  0  0  0  0  0
  -27.0398  -30.2911   24.6266 C   0  0  0  0  0  0
  -27.6049  -32.4303   25.7501 C   0  0  0  0  0  0
  -27.5583  -37.1782   24.8463 C   0  0  0  0  0  0
  -21.4263  -29.3023   22.3647 N   0  0  0  0  0  0
  -26.4276  -37.3744   23.9434 N   0  0  0  0  0  0
  -24.7196  -31.0231   22.0875 N   0  0  0  0  0  0
  -23.4205  -28.8031   23.3044 O   0  0  0  0  0  0
  -28.3392  -26.1954   20.1159 O   0  0  0  0  0  0
  -26.5656  -34.8894   22.4658 O   0  0  0  0  0  0
  -23.5569  -32.1241   23.7070 O   0  0  0  0  0  0
  -28.3054  -18.9908   18.0066 C   0  0  0  0  0  0
  -29.7373  -18.6494   18.3867 C   0  0  0  0  0  0
  -28.0678  -20.3249   18.7235 C   0  0  0  0  0  0
  -29.8101  -19.0350   19.8706 C   0  0  2  0  0  0
  -29.6509  -17.6351   20.8070 C   0  0  0  0  0  0
  -28.6209  -23.2586   19.7754 C   0  0  0  0  0  0
  -29.2452  -21.8013   20.4286 C   0  0  0  0  0  0
  -28.2854  -24.7074   20.5933 C   0  0  0  0  0  0
  -29.6750  -16.1061   20.3649 N   0  0  0  0  0  0
  -28.8471  -20.3141   19.9921 N   0  3  1  0  0  0
  -31.4743  -12.8001   19.1430 H   0  0  0  0  0  0
  -30.4669  -11.6583   20.0018 H   0  0  0  0  0  0
  -29.8411  -11.7422   17.5540 H   0  0  0  0  0  0
  -29.6038  -13.4676   17.6671 H   0  0  0  0  0  0
  -27.9409  -11.2795   18.9378 H   0  0  0  0  0  0
  -27.3923  -12.4762   17.7946 H   0  0  0  0  0  0
  -27.5772  -14.2511   19.3907 H   0  0  0  0  0  0
  -28.7783  -12.3018   21.4186 H   0  0  0  0  0  0
  -28.3739  -13.9797   21.7297 H   0  0  0  0  0  0
  -25.2791   -9.5694   22.4752 H   0  0  0  0  0  0
  -24.0024   -7.4659   22.7474 H   0  0  0  0  0  0
  -21.0860   -8.8767   19.8952 H   0  0  0  0  0  0
  -22.3705  -10.9677   19.6158 H   0  0  0  0  0  0
  -21.1999   -7.6140   23.9712 H   0  0  0  0  0  0
  -21.1480   -6.0526   25.9082 H   0  0  0  0  0  0
  -22.0596   -2.7604   23.2861 H   0  0  0  0  0  0
  -22.4013  -11.9850   22.4895 H   0  0  0  0  0  0
  -21.1045  -13.1198   22.2598 H   0  0  0  0  0  0
  -24.6300  -15.8390   20.5047 H   0  0  0  0  0  0
  -26.2368  -15.6352   20.0278 H   0  0  0  0  0  0
  -26.7280  -32.5261   23.1011 H   0  0  0  0  0  0
  -25.0108  -33.9592   25.0355 H   0  0  0  0  0  0
  -22.7550  -31.2739   21.3671 H   0  0  0  0  0  0
  -23.3743  -35.9579   23.3242 H   0  0  0  0  0  0
  -24.3600  -36.8950   22.2073 H   0  0  0  0  0  0
  -23.7216  -37.6432   23.6716 H   0  0  0  0  0  0
  -26.1498  -31.4595   20.5997 H   0  0  0  0  0  0
  -26.8790  -30.7742   22.0163 H   0  0  0  0  0  0
  -28.1569  -28.8195   21.1993 H   0  0  0  0  0  0
  -25.9733  -25.7968   19.0531 H   0  0  0  0  0  0
  -24.0003  -27.2513   19.0066 H   0  0  0  0  0  0
  -23.8113  -30.5299   19.3882 H   0  0  0  0  0  0
  -22.7967  -29.1984   19.8544 H   0  0  0  0  0  0
  -25.1294  -36.1843   25.0810 H   0  0  0  0  0  0
  -20.9986  -28.3238   24.1377 H   0  0  0  0  0  0
  -20.5608  -26.2306   23.3625 H   0  0  0  0  0  0
  -21.6630  -26.7351   22.1243 H   0  0  0  0  0  0
  -19.6905  -25.6259   21.1251 H   0  0  0  0  0  0
  -19.6679  -27.3152   20.6723 H   0  0  0  0  0  0
  -17.4202  -26.6656   21.4000 H   0  0  0  0  0  0
  -18.0304  -26.0023   22.8990 H   0  0  0  0  0  0
  -19.7928  -30.7271   24.2212 H   0  0  0  0  0  0
  -17.4989  -31.6240   24.5135 H   0  0  0  0  0  0
  -15.5338  -30.2914   23.7663 H   0  0  0  0  0  0
  -15.8681  -28.0754   22.7086 H   0  0  0  0  0  0
  -24.5932  -30.7020   25.7758 H   0  0  0  0  0  0
  -24.8941  -32.2853   26.4845 H   0  0  0  0  0  0
  -25.8077  -30.8871   27.0201 H   0  0  0  0  0  0
  -26.3001  -29.6623   24.1295 H   0  0  0  0  0  0
  -27.4028  -29.7218   25.4841 H   0  0  0  0  0  0
  -27.8907  -30.4137   23.9557 H   0  0  0  0  0  0
  -27.2610  -33.3616   26.2026 H   0  0  0  0  0  0
  -28.3900  -32.6846   25.0367 H   0  0  0  0  0  0
  -28.0669  -31.8462   26.5478 H   0  0  0  0  0  0
  -28.2545  -38.0126   24.7557 H   0  0  0  0  0  0
  -28.1127  -36.2666   24.6205 H   0  0  0  0  0  0
  -27.2337  -37.1334   25.8870 H   0  0  0  0  0  0
  -20.9460  -29.8792   21.6878 H   0  0  0  0  0  0
  -26.0125  -38.2800   24.1427 H   0  0  0  0  0  0
  -27.6267  -18.2233   18.3836 H   0  0  0  0  0  0
  -28.1609  -19.0576   16.9261 H   0  0  0  0  0  0
  -30.4243  -19.2662   17.8045 H   0  0  0  0  0  0
  -29.9929  -17.6100   18.1839 H   0  0  0  0  0  0
  -27.0095  -20.5142   18.9018 H   0  0  0  0  0  0
  -28.4438  -21.1168   18.0746 H   0  0  0  0  0  0
  -30.8234  -19.3960   20.0561 H   0  0  0  0  0  0
  -28.6953  -17.7384   21.3222 H   0  0  0  0  0  0
  -30.3856  -17.7180   21.6098 H   0  0  0  0  0  0
  -27.7092  -23.0208   19.2314 H   0  0  0  0  0  0
  -29.3227  -23.5306   18.9856 H   0  0  0  0  0  0
  -29.0632  -21.8324   21.5019 H   0  0  0  0  0  0
  -30.3319  -21.8617   20.3492 H   0  0  0  0  0  0
  -28.9891  -24.7076   21.4269 H   0  0  0  0  0  0
  -27.3204  -24.5734   21.0828 H   0  0  0  0  0  0
  -28.7375  -15.7968   20.1608 H   0  0  0  0  0  0
  -28.1709  -20.0389   20.6888 H   0  0  0  0  0  0
  1 25  1  0  0  0
  1 30  2  0  0  0
  1 79  1  0  0  0
  2  3  1  0  0  0
  2 25  1  0  0  0
  2 81  1  0  0  0
  2 82  1  0  0  0
  3  4  1  0  0  0
  3 83  1  0  0  0
  3 84  1  0  0  0
  4  5  1  0  0  0
  4 85  1  0  0  0
  4 86  1  0  0  0
  5  6  1  0  0  0
  5 26  1  0  0  0
  5 87  1  0  0  0
  6 25  1  0  0  0
  6 88  1  0  0  0
  6 89  1  0  0  0
  7  8  2  0  0  0
  7 26  1  0  0  0
  7 29  1  0  0  0
  8  9  1  0  0  0
  8 22  1  0  0  0
  9 10  1  0  0  0
  9 27  2  0  0  0
 10 11  2  0  0  0
 10 15  1  0  0  0
 11 12  1  0  0  0
 11 90  1  0  0  0
 12 13  2  0  0  0
 12 91  1  0  0  0
 13 14  1  0  0  0
 13 31  1  0  0  0
 14 15  2  0  0  0
 14 92  1  0  0  0
 15 93  1  0  0  0
 16 17  2  0  0  0
 16 21  1  0  0  0
 16 31  1  0  0  0
 17 18  1  0  0  0
 17 94  1  0  0  0
 18 19  2  0  0  0
 18 95  1  0  0  0
 19 20  1  0  0  0
 19 24  1  0  0  0
 20 21  2  0  0  0
 20 96  1  0  0  0
 21 23  1  0  0  0
 22 28  1  0  0  0
 22 32  2  0  0  0
 26 27  1  0  0  0
 28 97  1  0  0  0
 28 98  1  0  0  0
 29 99  1  0  0  0
 29100  1  0  0  0
 33 34  1  0  0  0
 33 66  1  0  0  0
 33 70  2  0  0  0
 34 36  1  0  0  0
 34 59  1  0  0  0
 34101  1  0  0  0
 35 44  2  0  0  0
 35 45  1  0  0  0
 35 68  1  0  0  0
 36 56  1  0  0  0
 36102  1  0  0  0
 37 39  1  0  0  0
 37 47  1  0  0  0
 37 66  1  0  0  0
 37103  1  0  0  0
 38 43  2  0  0  0
 38 46  1  0  0  0
 38 47  1  0  0  0
 39 64  1  0  0  0
 39 67  2  0  0  0
 40 52  1  0  0  0
 40 53  2  0  0  0
 40 58  1  0  0  0
 41104  1  0  0  0
 41105  1  0  0  0
 41106  1  0  0  0
 41 48  1  0  0  0
 42 43  1  0  0  0
 42 66  1  0  0  0
 42107  1  0  0  0
 42108  1  0  0  0
 43 44  1  0  0  0
 44109  1  0  0  0
 45 46  2  0  0  0
 45110  1  0  0  0
 46111  1  0  0  0
 47112  1  0  0  0
 47113  1  0  0  0
 48 56  1  0  0  0
 48 65  1  0  0  0
 48114  1  0  0  0
 49 50  1  0  0  0
 49 53  1  0  0  0
 49 64  1  0  0  0
 49115  1  0  0  0
 50 51  1  0  0  0
 50116  1  0  0  0
 50117  1  0  0  0
 51 52  1  0  0  0
 51118  1  0  0  0
 51119  1  0  0  0
 52120  1  0  0  0
 52121  1  0  0  0
 53 54  1  0  0  0
 54 55  2  0  0  0
 54122  1  0  0  0
 55 57  1  0  0  0
 55123  1  0  0  0
 56 69  2  0  0  0
 57 58  2  0  0  0
 57124  1  0  0  0
 58125  1  0  0  0
 59 60  1  0  0  0
 59 61  1  0  0  0
 59 62  1  0  0  0
 60126  1  0  0  0
 60127  1  0  0  0
 60128  1  0  0  0
 61129  1  0  0  0
 61130  1  0  0  0
 61131  1  0  0  0
 62132  1  0  0  0
 62133  1  0  0  0
 62134  1  0  0  0
 63 65  1  0  0  0
 63135  1  0  0  0
 63136  1  0  0  0
 63137  1  0  0  0
 64138  1  0  0  0
 65139  1  0  0  0
 68 78  1  0  0  0
 71 72  1  0  0  0
 71 73  1  0  0  0
 71140  1  0  0  0
 71141  1  0  0  0
 72 74  1  0  0  0
 72142  1  0  0  0
 72143  1  0  0  0
 73 80  1  0  0  0
 73144  1  0  0  0
 73145  1  0  0  0
 74 75  1  0  0  0
 74 80  1  0  0  0
 74146  1  0  0  0
 75 79  1  0  0  0
 75147  1  0  0  0
 75148  1  0  0  0
 76 77  1  0  0  0
 76 78  1  0  0  0
 76149  1  0  0  0
 76150  1  0  0  0
 77151  1  0  0  0
 77152  1  0  0  0
 77 80  1  0  0  0
 78153  1  0  0  0
 78154  1  0  0  0
 79155  1  0  0  0
 80156  1  0  0  0
M  CHG  1  80   1
M  ISO  4   1 100  68 101  78 101  79 100
M  END
> <chiral flag>
0

> <version>
0

> <s_m_source_file>
/data/baiqing/PycharmProjects/Reinvent-master-3.2/result/LINK_invent/BTK/process_docking_weight1_custom_sum_contain_oxygen_bond_distance_aromatic_linkinvent_7_9_3/rearranged_h_0124.sdf

> <i_m_source_file_index>
40

> <r_mmod_Potential_Energy-OPLS-2005>
574.618225097656

> <r_mmod_Stretch_Energy-OPLS-2005>
290.893432617188

> <r_mmod_Bend_Energy-OPLS-2005>
349.358947753906

> <r_mmod_Torsional_Energy-OPLS-2005>
352.151885986328

> <r_mmod_Improper_Torsional_Energy-OPLS-2005>
5.96300935745239

> <r_mmod_Van_der_Waal_Energy-OPLS-2005>
104.060279846191

> <r_mmod_Electrostatic_Energy-OPLS-2005>
-259.366516113281

> <r_mmod_Solvation_Energy-OPLS-2005>
-468.466613769531

> <b_mmod_Minimization_Converged-OPLS-2005>
0

> <r_mmod_RMS_Derivative-OPLS-2005>
3.68200254440308

$$$$
40
                    3D
 Structure written by MMmdl.
161170  0  0  1  0            999 V2000
  -30.1361  -14.3246   19.0788 C   0  0  0  0  0  0
  -30.5023  -12.1000   19.6106 C   0  0  0  0  0  0
  -29.2669  -11.4005   19.0678 C   0  0  0  0  0  0
  -27.9132  -11.8138   19.7552 C   0  0  0  0  0  0
  -27.7665  -13.3179   20.1681 C   0  0  2  0  0  0
  -28.9852  -13.5658   20.9978 C   0  0  0  0  0  0
  -25.6350  -15.1069   19.8753 C   0  0  0  0  0  0
  -24.1030  -14.9323   20.1384 C   0  0  0  0  0  0
  -24.9833  -13.0078   21.6926 C   0  0  0  0  0  0
  -24.2628  -11.1523   21.7368 C   0  0  0  0  0  0
  -24.7643   -9.8120   22.1344 C   0  0  0  0  0  0
  -24.0948   -8.4733   22.1167 C   0  0  0  0  0  0
  -22.8116   -8.1924   21.5371 C   0  0  0  0  0  0
  -22.2939   -9.3276   20.9656 C   0  0  0  0  0  0
  -22.9099  -10.5833   21.2618 C   0  0  0  0  0  0
  -21.8557   -6.1461   22.5405 C   0  0  0  0  0  0
  -21.5117   -6.6100   23.8326 C   0  0  0  0  0  0
  -21.3868   -5.7033   24.9090 C   0  0  0  0  0  0
  -21.5897   -4.3275   24.7065 C   0  0  0  0  0  0
  -21.8577   -3.8465   23.4131 C   0  0  0  0  0  0
  -21.9636   -4.7469   22.3335 C   0  0  0  0  0  0
  -22.5806  -15.3918   20.0059 C   0  0  0  0  0  0
  -22.1970   -4.2563   21.0894 F   0  0  0  0  0  0
  -21.5186   -3.4655   25.7496 F   0  0  0  0  0  0
  -30.0380  -13.3947   20.0205 N   0  0  0  0  0  0
  -26.5921  -13.9583   20.6080 N   0  0  0  0  0  0
  -26.2675  -12.9307   21.5284 N   0  0  0  0  0  0
  -21.4093  -14.6608   20.1182 N   0  0  0  0  0  0
  -26.1355  -16.2979   19.6498 N   0  0  0  0  0  0
  -31.1056  -15.0740   19.2995 O   0  0  0  0  0  0
  -22.0547   -7.0056   21.4711 O   0  0  0  0  0  0
  -22.3504  -16.5137   20.1650 O   0  0  0  0  0  0
  -24.7783  -31.6252   23.0755 C   0  0  0  0  0  0
  -25.9839  -32.3592   23.7603 C   0  0  1  0  0  0
  -26.2489  -25.0656   20.7393 C   0  0  0  0  0  0
  -25.5956  -33.7563   24.1252 N   0  0  0  0  0  0
  -23.6120  -30.2121   21.4553 C   0  0  2  0  0  0
  -24.8996  -28.2084   20.1829 C   0  0  0  0  0  0
  -22.7904  -29.3473   22.4464 C   0  0  0  0  0  0
  -18.0314  -28.1425   22.8422 C   0  0  0  0  0  0
  -24.1479  -36.6761   23.2696 C   0  0  0  0  0  0
  -26.1363  -29.7563   21.6222 C   0  0  0  0  0  0
  -25.9804  -28.1636   21.0508 C   0  0  0  0  0  0
  -26.6263  -26.6693   21.2500 C   0  0  0  0  0  0
  -25.4564  -25.6994   19.6496 C   0  0  0  0  0  0
  -24.8022  -27.0126   19.4247 C   0  0  0  0  0  0
  -23.8987  -29.4252   20.1198 C   0  0  0  0  0  0
  -25.4180  -36.2423   24.0214 C   0  0  1  0  0  0
  -20.5944  -28.3753   23.1038 C   0  0  2  0  0  0
  -20.6678  -26.9331   22.5468 C   0  0  0  0  0  0
  -19.5697  -26.6288   21.5236 C   0  0  0  0  0  0
  -18.1892  -26.7952   22.1603 C   0  0  0  0  0  0
  -19.1595  -28.8939   23.2693 C   0  0  0  0  0  0
  -18.9536  -30.1526   23.8752 C   0  0  0  0  0  0
  -17.6523  -30.6607   24.0542 C   0  0  0  0  0  0
  -25.9234  -34.8829   23.4692 C   0  0  0  0  0  0
  -16.5404  -29.9082   23.6362 C   0  0  0  0  0  0
  -16.7311  -28.6498   23.0394 C   0  0  0  0  0  0
  -26.4733  -31.6378   25.0781 C   0  0  0  0  0  0
  -25.3542  -31.4024   26.1223 C   0  0  0  0  0  0
  -27.0934  -30.2672   24.7669 C   0  0  0  0  0  0
  -27.5940  -32.4639   25.7532 C   0  0  0  0  0  0
  -27.5508  -37.1515   24.8470 C   0  0  0  0  0  0
  -21.4512  -29.2786   22.3198 N   0  0  0  0  0  0
  -26.4186  -37.3338   23.9435 N   0  0  0  0  0  0
  -24.9000  -30.6173   22.0937 N   0  0  0  0  0  0
  -23.3845  -28.7350   23.3357 O   0  0  0  0  0  0
  -26.4408  -23.1173   21.0552 O   0  0  0  0  0  0
  -26.6084  -34.8650   22.4456 O   0  0  0  0  0  0
  -23.6658  -32.0215   23.4839 O   0  0  0  0  0  0
  -22.7024  -13.4359   21.7558 C   0  0  0  0  0  0
  -23.1528  -12.7771   20.1453 C   0  0  0  0  0  0
  -23.4427  -14.6469   22.5471 C   0  0  0  0  0  0
  -24.6270  -12.9976   19.6086 C   0  0  0  0  0  0
  -26.3562  -14.6320   17.3629 C   0  0  0  0  0  0
  -26.9774  -12.5175   17.3136 C   0  0  0  0  0  0
  -27.9704  -15.2338   17.6247 C   0  0  0  0  0  0
  -28.5165  -13.2127   17.0634 C   0  0  0  0  0  0
  -25.5932  -13.2185   17.9983 C   0  0  0  0  0  0
  -24.4105  -12.9142   17.0684 C   0  0  0  0  0  0
  -25.5494  -17.7979   21.8952 C   0  0  0  0  0  0
  -25.7467  -20.6373   21.2279 C   0  0  0  0  0  0
  -24.9052  -15.2451   22.0109 N   0  0  0  0  0  0
  -29.1292  -14.2978   17.9646 N   0  0  0  0  0  0
  -31.2909  -12.1397   18.8534 H   0  0  0  0  0  0
  -30.9454  -11.5854   20.4671 H   0  0  0  0  0  0
  -29.3944  -10.3853   19.4466 H   0  0  0  0  0  0
  -29.2431  -11.0714   18.0476 H   0  0  0  0  0  0
  -28.0196  -11.2970   20.7157 H   0  0  0  0  0  0
  -26.9928  -11.3176   19.4530 H   0  0  0  0  0  0
  -27.5637  -13.8214   19.3229 H   0  0  0  0  0  0
  -29.0869  -12.9391   21.8852 H   0  0  0  0  0  0
  -28.9529  -14.6016   21.3300 H   0  0  0  0  0  0
  -25.7695   -9.8115   22.5360 H   0  0  0  0  0  0
  -24.6334   -7.6446   22.5530 H   0  0  0  0  0  0
  -21.2883   -9.2970   20.5754 H   0  0  0  0  0  0
  -22.0348  -11.2056   21.2480 H   0  0  0  0  0  0
  -21.3903   -7.6683   24.0044 H   0  0  0  0  0  0
  -21.1504   -6.0729   25.8965 H   0  0  0  0  0  0
  -21.9774   -2.7879   23.2539 H   0  0  0  0  0  0
  -21.4887  -13.7084   20.4463 H   0  0  0  0  0  0
  -20.5241  -15.1442   20.1685 H   0  0  0  0  0  0
  -25.6243  -16.9960   19.1304 H   0  0  0  0  0  0
  -27.1309  -16.4108   19.5510 H   0  0  0  0  0  0
  -26.8053  -32.3832   23.0418 H   0  0  0  0  0  0
  -24.9759  -33.8453   24.9176 H   0  0  0  0  0  0
  -23.0267  -31.0985   21.2034 H   0  0  0  0  0  0
  -23.3836  -35.8981   23.3156 H   0  0  0  0  0  0
  -24.3520  -36.8689   22.2152 H   0  0  0  0  0  0
  -23.7141  -37.5789   23.7004 H   0  0  0  0  0  0
  -26.5572  -30.3144   20.7846 H   0  0  0  0  0  0
  -26.9470  -29.7505   22.3306 H   0  0  0  0  0  0
  -27.3914  -26.6736   22.0136 H   0  0  0  0  0  0
  -25.1055  -24.9666   18.9359 H   0  0  0  0  0  0
  -24.0774  -27.0340   18.6197 H   0  0  0  0  0  0
  -24.2903  -30.1238   19.3820 H   0  0  0  0  0  0
  -22.9539  -29.0713   19.7077 H   0  0  0  0  0  0
  -25.1441  -36.0999   25.0695 H   0  0  0  0  0  0
  -20.9986  -28.3442   24.1188 H   0  0  0  0  0  0
  -20.5404  -26.2409   23.3805 H   0  0  0  0  0  0
  -21.6553  -26.7087   22.1408 H   0  0  0  0  0  0
  -19.6820  -25.6167   21.1347 H   0  0  0  0  0  0
  -19.6713  -27.3038   20.6734 H   0  0  0  0  0  0
  -17.4193  -26.6777   21.3980 H   0  0  0  0  0  0
  -18.0192  -26.0114   22.8992 H   0  0  0  0  0  0
  -19.8045  -30.7355   24.2062 H   0  0  0  0  0  0
  -17.5101  -31.6291   24.5160 H   0  0  0  0  0  0
  -15.5411  -30.2958   23.7758 H   0  0  0  0  0  0
  -15.8721  -28.0778   22.7187 H   0  0  0  0  0  0
  -24.5847  -30.7206   25.7577 H   0  0  0  0  0  0
  -24.8596  -32.3327   26.4033 H   0  0  0  0  0  0
  -25.7507  -30.9653   27.0402 H   0  0  0  0  0  0
  -26.3613  -29.5583   24.3807 H   0  0  0  0  0  0
  -27.4848  -29.8068   25.6754 H   0  0  0  0  0  0
  -27.9426  -30.3536   24.0887 H   0  0  0  0  0  0
  -27.2323  -33.4188   26.1356 H   0  0  0  0  0  0
  -28.4036  -32.6792   25.0550 H   0  0  0  0  0  0
  -28.0297  -31.9370   26.6032 H   0  0  0  0  0  0
  -28.2385  -37.9934   24.7591 H   0  0  0  0  0  0
  -28.1144  -36.2453   24.6211 H   0  0  0  0  0  0
  -27.2241  -37.0992   25.8870 H   0  0  0  0  0  0
  -21.0044  -29.8229   21.5957 H   0  0  0  0  0  0
  -25.9890  -38.2302   24.1548 H   0  0  0  0  0  0
  -21.7398  -13.1744   22.1642 H   0  0  0  0  0  0
  -22.4565  -12.2686   19.4859 H   0  0  0  0  0  0
  -23.0136  -15.1985   23.3663 H   0  0  0  0  0  0
  -26.2986  -14.5663   16.2709 H   0  0  0  0  0  0
  -25.6680  -15.4668   17.3964 H   0  0  0  0  0  0
  -27.0642  -11.4700   17.5092 H   0  0  0  0  0  0
  -26.7152  -12.3641   16.2641 H   0  0  0  0  0  0
  -28.2561  -15.8030   16.7331 H   0  0  0  0  0  0
  -28.0805  -15.9850   18.3833 H   0  0  0  0  0  0
  -28.4710  -13.6760   16.0601 H   0  0  0  0  0  0
  -29.2839  -12.5088   16.7829 H   0  0  0  0  0  0
  -24.0817  -11.8927   17.2483 H   0  0  0  0  0  0
  -24.6312  -13.0293   16.0053 H   0  0  0  0  0  0
  -23.5845  -13.5762   17.3183 H   0  0  0  0  0  0
  -25.4587  -17.9829   22.9676 H   0  0  0  0  0  0
  -26.6279  -17.6378   21.7691 H   0  0  0  0  0  0
  -24.6765  -20.8559   21.2670 H   0  0  0  0  0  0
  -25.9248  -20.4648   20.1683 H   0  0  0  0  0  0
  1 25  1  0  0  0
  1 30  2  0  0  0
  1 84  1  0  0  0
  2  3  1  0  0  0
  2 25  1  0  0  0
  2 85  1  0  0  0
  2 86  1  0  0  0
  3  4  1  0  0  0
  3 87  1  0  0  0
  3 88  1  0  0  0
  4  5  1  0  0  0
  4 89  1  0  0  0
  4 90  1  0  0  0
  5  6  1  0  0  0
  5 26  1  0  0  0
  5 91  1  0  0  0
  6 25  1  0  0  0
  6 92  1  0  0  0
  6 93  1  0  0  0
  7  8  2  0  0  0
  7 26  1  0  0  0
  7 29  1  0  0  0
  8  9  1  0  0  0
  8 22  1  0  0  0
  9 10  1  0  0  0
  9 27  2  0  0  0
 10 11  2  0  0  0
 10 15  1  0  0  0
 11 12  1  0  0  0
 11 94  1  0  0  0
 12 13  2  0  0  0
 12 95  1  0  0  0
 13 14  1  0  0  0
 13 31  1  0  0  0
 14 15  2  0  0  0
 14 96  1  0  0  0
 15 97  1  0  0  0
 16 17  2  0  0  0
 16 21  1  0  0  0
 16 31  1  0  0  0
 17 18  1  0  0  0
 17 98  1  0  0  0
 18 19  2  0  0  0
 18 99  1  0  0  0
 19 20  1  0  0  0
 19 24  1  0  0  0
 20 21  2  0  0  0
 20100  1  0  0  0
 21 23  1  0  0  0
 22 28  1  0  0  0
 22 32  2  0  0  0
 26 27  1  0  0  0
 28101  1  0  0  0
 28102  1  0  0  0
 29103  1  0  0  0
 29104  1  0  0  0
 33 34  1  0  0  0
 33 66  1  0  0  0
 33 70  2  0  0  0
 34 36  1  0  0  0
 34 59  1  0  0  0
 34105  1  0  0  0
 35 44  2  0  0  0
 35 45  1  0  0  0
 35 68  1  0  0  0
 36 56  1  0  0  0
 36106  1  0  0  0
 37 39  1  0  0  0
 37 47  1  0  0  0
 37 66  1  0  0  0
 37107  1  0  0  0
 38 43  2  0  0  0
 38 46  1  0  0  0
 38 47  1  0  0  0
 39 64  1  0  0  0
 39 67  2  0  0  0
 40 52  1  0  0  0
 40 53  2  0  0  0
 40 58  1  0  0  0
 41108  1  0  0  0
 41109  1  0  0  0
 41110  1  0  0  0
 41 48  1  0  0  0
 42 43  1  0  0  0
 42 66  1  0  0  0
 42111  1  0  0  0
 42112  1  0  0  0
 43 44  1  0  0  0
 44113  1  0  0  0
 45 46  2  0  0  0
 45114  1  0  0  0
 46115  1  0  0  0
 47116  1  0  0  0
 47117  1  0  0  0
 48 56  1  0  0  0
 48 65  1  0  0  0
 48118  1  0  0  0
 49 50  1  0  0  0
 49 53  1  0  0  0
 49 64  1  0  0  0
 49119  1  0  0  0
 50 51  1  0  0  0
 50120  1  0  0  0
 50121  1  0  0  0
 51 52  1  0  0  0
 51122  1  0  0  0
 51123  1  0  0  0
 52124  1  0  0  0
 52125  1  0  0  0
 53 54  1  0  0  0
 54 55  2  0  0  0
 54126  1  0  0  0
 55 57  1  0  0  0
 55127  1  0  0  0
 56 69  2  0  0  0
 57 58  2  0  0  0
 57128  1  0  0  0
 58129  1  0  0  0
 59 60  1  0  0  0
 59 61  1  0  0  0
 59 62  1  0  0  0
 60130  1  0  0  0
 60131  1  0  0  0
 60132  1  0  0  0
 61133  1  0  0  0
 61134  1  0  0  0
 61135  1  0  0  0
 62136  1  0  0  0
 62137  1  0  0  0
 62138  1  0  0  0
 63 65  1  0  0  0
 63139  1  0  0  0
 63140  1  0  0  0
 63141  1  0  0  0
 64142  1  0  0  0
 65143  1  0  0  0
 68 82  1  0  0  0
 71 72  1  0  0  0
 71 73  2  0  0  0
 71144  1  0  0  0
 72 74  2  0  0  0
 72145  1  0  0  0
 73 83  1  0  0  0
 73146  1  0  0  0
 74 79  1  0  0  0
 74 83  1  0  0  0
 75 77  1  0  0  0
 75 79  1  0  0  0
 75147  1  0  0  0
 75148  1  0  0  0
 76 78  1  0  0  0
 76 79  1  0  0  0
 76149  1  0  0  0
 76150  1  0  0  0
 77 84  1  0  0  0
 77151  1  0  0  0
 77152  1  0  0  0
 78 84  1  0  0  0
 78153  1  0  0  0
 78154  1  0  0  0
 79 80  1  0  0  0
 80155  1  0  0  0
 80156  1  0  0  0
 80157  1  0  0  0
 81 82  1  0  0  0
 81 83  1  0  0  0
 81158  1  0  0  0
 81159  1  0  0  0
 82160  1  0  0  0
 82161  1  0  0  0
M  ISO  4   1 100  68 101  82 101  84 100
M  END
> <chiral flag>
0

> <version>
0

> <s_m_source_file>
/data/baiqing/PycharmProjects/Reinvent-master-3.2/result/LINK_invent/BTK/process_docking_weight1_custom_sum_contain_oxygen_bond_distance_aromatic_linkinvent_7_9_3/rearranged_h_0124.sdf

> <i_m_source_file_index>
41

> <r_mmod_Potential_Energy-OPLS-2005>
33695.17578125

> <r_mmod_Stretch_Energy-OPLS-2005>
18453.970703125

> <r_mmod_Bend_Energy-OPLS-2005>
2387.18823242188

> <r_mmod_Torsional_Energy-OPLS-2005>
755.144836425781

> <r_mmod_Improper_Torsional_Energy-OPLS-2005>
84.9844207763672

> <r_mmod_Van_der_Waal_Energy-OPLS-2005>
4372.64306640625

> <r_mmod_Electrostatic_Energy-OPLS-2005>
-322.027526855469

> <r_mmod_Solvation_Energy-OPLS-2005>
-225.931060791016

> <b_mmod_Minimization_Converged-OPLS-2005>
0

> <r_mmod_RMS_Derivative-OPLS-2005>
21.8124237060547

$$$$
41
                    3D
 Structure written by MMmdl.
181190  0  0  1  0            999 V2000
  -30.6158  -14.6292   20.4772 C   0  0  0  0  0  0
  -30.4376  -12.3800   19.4571 C   0  0  0  0  0  0
  -29.5094  -12.5000   18.2268 C   0  0  0  0  0  0
  -28.0316  -12.3430   18.6361 C   0  0  0  0  0  0
  -27.6538  -13.2128   19.8645 C   0  0  2  0  0  0
  -28.6967  -13.0662   20.9966 C   0  0  0  0  0  0
  -25.2560  -13.8154   20.5649 C   0  0  0  0  0  0
  -24.1833  -13.0436   20.9184 C   0  0  0  0  0  0
  -24.6397  -11.6905   20.8736 C   0  0  0  0  0  0
  -23.9070  -10.4297   21.0406 C   0  0  0  0  0  0
  -24.3622   -9.4212   21.9181 C   0  0  0  0  0  0
  -23.6297   -8.2244   22.0752 C   0  0  0  0  0  0
  -22.4273   -8.0285   21.3543 C   0  0  0  0  0  0
  -21.9919   -9.0255   20.4639 C   0  0  0  0  0  0
  -22.7247  -10.2138   20.3056 C   0  0  0  0  0  0
  -21.6859   -6.0746   22.5276 C   0  0  0  0  0  0
  -21.4007   -6.5640   23.8210 C   0  0  0  0  0  0
  -21.3663   -5.6787   24.9169 C   0  0  0  0  0  0
  -21.6040   -4.3055   24.7215 C   0  0  0  0  0  0
  -21.8825   -3.8156   23.4334 C   0  0  0  0  0  0
  -21.9185   -4.6973   22.3394 C   0  0  0  0  0  0
  -22.7850  -13.5228   21.1844 C   0  0  0  0  0  0
  -22.1658   -4.2167   21.0970 F   0  0  0  0  0  0
  -21.5634   -3.4536   25.7725 F   0  0  0  0  0  0
  -30.0140  -13.4009   20.4347 N   0  0  0  0  0  0
  -26.2993  -12.9331   20.3310 N   0  0  0  0  0  0
  -25.9328  -11.6489   20.5759 N   0  0  0  0  0  0
  -22.0487  -12.8234   22.0398 N   0  0  0  0  0  0
  -25.4271  -15.1872   20.4021 N   0  0  0  0  0  0
  -31.7741  -14.7955   20.0858 O   0  0  0  0  0  0
  -21.6627   -6.8890   21.4238 O   0  0  0  0  0  0
  -22.3554  -14.5547   20.6704 O   0  0  0  0  0  0
  -24.6236  -31.8594   23.2017 C   0  0  0  0  0  0
  -25.9101  -32.4768   23.8345 C   0  0  1  0  0  0
  -27.2336  -27.3418   20.0984 C   0  0  0  0  0  0
  -25.5921  -33.8569   24.2261 N   0  0  0  0  0  0
  -23.4169  -30.4798   21.5438 C   0  0  2  0  0  0
  -24.8634  -28.9286   20.1145 C   0  0  0  0  0  0
  -22.7465  -29.4607   22.4951 C   0  0  0  0  0  0
  -18.0293  -28.1372   22.8470 C   0  0  0  0  0  0
  -24.1501  -36.7295   23.2634 C   0  0  0  0  0  0
  -25.9539  -30.7956   21.3678 C   0  0  0  0  0  0
  -26.0292  -29.4220   20.7118 C   0  0  0  0  0  0
  -27.2154  -28.6376   20.6969 C   0  0  0  0  0  0
  -26.0425  -26.8787   19.5007 C   0  0  0  0  0  0
  -24.8700  -27.6612   19.5045 C   0  0  0  0  0  0
  -23.6290  -29.8047   20.1616 C   0  0  0  0  0  0
  -25.4133  -36.3084   24.0318 C   0  0  1  0  0  0
  -20.5879  -28.3675   23.1298 C   0  0  2  0  0  0
  -20.6784  -26.9402   22.5437 C   0  0  0  0  0  0
  -19.5768  -26.6364   21.5225 C   0  0  0  0  0  0
  -18.1926  -26.7913   22.1608 C   0  0  0  0  0  0
  -19.1539  -28.8837   23.2862 C   0  0  0  0  0  0
  -18.9484  -30.1433   23.8879 C   0  0  0  0  0  0
  -17.6492  -30.6576   24.0560 C   0  0  0  0  0  0
  -25.9070  -34.9444   23.5094 C   0  0  0  0  0  0
  -16.5378  -29.9085   23.6316 C   0  0  0  0  0  0
  -16.7285  -28.6510   23.0335 C   0  0  0  0  0  0
  -26.4485  -31.6599   25.0735 C   0  0  0  0  0  0
  -25.3698  -31.3760   26.1454 C   0  0  0  0  0  0
  -27.0356  -30.3028   24.6215 C   0  0  0  0  0  0
  -27.6040  -32.4348   25.7509 C   0  0  0  0  0  0
  -27.5597  -37.1799   24.8456 C   0  0  0  0  0  0
  -21.4184  -29.3025   22.3699 N   0  0  0  0  0  0
  -26.4312  -37.3781   23.9397 N   0  0  0  0  0  0
  -24.6837  -31.0639   22.0926 N   0  0  0  0  0  0
  -23.4202  -28.8140   23.3021 O   0  0  0  0  0  0
  -28.3982  -26.5717   20.1272 O   0  0  0  0  0  0
  -26.5659  -34.8907   22.4676 O   0  0  0  0  0  0
  -23.5426  -32.1389   23.7368 O   0  0  0  0  0  0
  -24.6385  -23.1951   24.9845 C   0  0  0  0  0  0
  -24.8117  -22.3894   23.6894 C   0  0  0  0  0  0
  -24.7602  -24.6998   24.7054 C   0  0  0  0  0  0
  -26.1575  -22.7068   23.0227 C   0  0  0  0  0  0
  -26.1077  -25.0248   24.0454 C   0  0  0  0  0  0
  -28.5965  -17.5552   19.5368 C   0  0  0  0  0  0
  -28.5849  -19.0493   19.0816 C   0  0  0  0  0  0
  -30.0357  -19.6725   20.9325 C   0  0  0  0  0  0
  -26.3257  -24.2178   22.7484 C   0  0  0  0  0  0
  -30.0675  -18.1733   21.4362 C   0  0  1  0  0  0
  -29.8847  -17.1251   20.2882 C   0  0  1  0  0  0
  -31.3457  -17.8954   22.2440 C   0  0  0  0  0  0
  -27.7019  -24.5556   22.1390 C   0  0  0  0  0  0
  -28.7736  -22.6352   20.8094 C   0  0  0  0  0  0
  -28.6041  -21.4768   19.7441 C   0  0  0  0  0  0
  -28.4581  -25.1503   19.7348 C   0  0  0  0  0  0
  -27.9326  -24.0021   20.7038 C   0  0  2  0  0  0
  -29.7878  -15.6884   20.7358 N   0  0  0  0  0  0
  -28.7815  -20.0276   20.1981 N   0  3  1  0  0  0
  -31.4807  -12.5025   19.1564 H   0  0  0  0  0  0
  -30.3686  -11.3843   19.8969 H   0  0  0  0  0  0
  -29.7726  -11.7458   17.4837 H   0  0  0  0  0  0
  -29.6563  -13.4675   17.7440 H   0  0  0  0  0  0
  -27.8656  -11.2902   18.8645 H   0  0  0  0  0  0
  -27.3806  -12.5763   17.7932 H   0  0  0  0  0  0
  -27.6735  -14.2478   19.5248 H   0  0  0  0  0  0
  -28.7030  -12.0466   21.3832 H   0  0  0  0  0  0
  -28.4478  -13.7067   21.8450 H   0  0  0  0  0  0
  -25.2769   -9.5677   22.4749 H   0  0  0  0  0  0
  -24.0001   -7.4636   22.7477 H   0  0  0  0  0  0
  -21.0853   -8.8788   19.8935 H   0  0  0  0  0  0
  -22.3720  -10.9680   19.6166 H   0  0  0  0  0  0
  -21.2006   -7.6145   23.9726 H   0  0  0  0  0  0
  -21.1475   -6.0509   25.9072 H   0  0  0  0  0  0
  -22.0602   -2.7621   23.2822 H   0  0  0  0  0  0
  -22.4079  -11.9882   22.4777 H   0  0  0  0  0  0
  -21.1116  -13.1284   22.2616 H   0  0  0  0  0  0
  -24.6553  -15.8376   20.5017 H   0  0  0  0  0  0
  -26.2632  -15.6173   20.0321 H   0  0  0  0  0  0
  -26.7156  -32.5465   23.1094 H   0  0  0  0  0  0
  -25.0058  -33.9704   25.0398 H   0  0  0  0  0  0
  -22.7115  -31.3001   21.3974 H   0  0  0  0  0  0
  -23.3768  -35.9621   23.3301 H   0  0  0  0  0  0
  -24.3579  -36.8953   22.2049 H   0  0  0  0  0  0
  -23.7249  -37.6486   23.6683 H   0  0  0  0  0  0
  -26.0925  -31.5555   20.5972 H   0  0  0  0  0  0
  -26.8295  -30.8415   22.0048 H   0  0  0  0  0  0
  -28.1148  -29.0102   21.1673 H   0  0  0  0  0  0
  -25.9958  -25.9030   19.0394 H   0  0  0  0  0  0
  -23.9697  -27.2746   19.0462 H   0  0  0  0  0  0
  -23.7391  -30.5757   19.3988 H   0  0  0  0  0  0
  -22.7534  -29.2250   19.8647 H   0  0  0  0  0  0
  -25.1310  -36.1945   25.0812 H   0  0  0  0  0  0
  -20.9953  -28.3275   24.1430 H   0  0  0  0  0  0
  -20.5700  -26.2287   23.3645 H   0  0  0  0  0  0
  -21.6655  -26.7437   22.1236 H   0  0  0  0  0  0
  -19.6944  -25.6269   21.1267 H   0  0  0  0  0  0
  -19.6736  -27.3149   20.6732 H   0  0  0  0  0  0
  -17.4222  -26.6691   21.3978 H   0  0  0  0  0  0
  -18.0299  -26.0049   22.8986 H   0  0  0  0  0  0
  -19.7977  -30.7218   24.2282 H   0  0  0  0  0  0
  -17.5061  -31.6258   24.5158 H   0  0  0  0  0  0
  -15.5368  -30.2990   23.7644 H   0  0  0  0  0  0
  -15.8690  -28.0825   22.7053 H   0  0  0  0  0  0
  -24.5846  -30.7167   25.7739 H   0  0  0  0  0  0
  -24.8917  -32.2944   26.4876 H   0  0  0  0  0  0
  -25.7957  -30.8907   27.0242 H   0  0  0  0  0  0
  -26.2952  -29.6775   24.1213 H   0  0  0  0  0  0
  -27.4030  -29.7313   25.4746 H   0  0  0  0  0  0
  -27.8817  -30.4338   23.9464 H   0  0  0  0  0  0
  -27.2637  -33.3629   26.2121 H   0  0  0  0  0  0
  -28.3813  -32.6960   25.0312 H   0  0  0  0  0  0
  -28.0751  -31.8473   26.5413 H   0  0  0  0  0  0
  -28.2583  -38.0118   24.7527 H   0  0  0  0  0  0
  -28.1126  -36.2656   24.6257 H   0  0  0  0  0  0
  -27.2318  -37.1403   25.8855 H   0  0  0  0  0  0
  -20.9384  -29.8800   21.6940 H   0  0  0  0  0  0
  -26.0216  -38.2867   24.1399 H   0  0  0  0  0  0
  -25.3980  -22.8937   25.7091 H   0  0  0  0  0  0
  -23.6732  -22.9728   25.4403 H   0  0  0  0  0  0
  -23.9973  -22.6142   22.9981 H   0  0  0  0  0  0
  -24.7476  -21.3222   23.9052 H   0  0  0  0  0  0
  -24.6533  -25.2660   25.6309 H   0  0  0  0  0  0
  -23.9485  -25.0253   24.0534 H   0  0  0  0  0  0
  -26.2271  -22.1411   22.0947 H   0  0  0  0  0  0
  -26.9676  -22.3577   23.6660 H   0  0  0  0  0  0
  -26.9154  -24.8170   24.7497 H   0  0  0  0  0  0
  -26.1520  -26.0939   23.8334 H   0  0  0  0  0  0
  -28.4569  -16.9210   18.6602 H   0  0  0  0  0  0
  -27.7262  -17.3808   20.1700 H   0  0  0  0  0  0
  -27.6373  -19.2567   18.5810 H   0  0  0  0  0  0
  -29.3597  -19.2001   18.3278 H   0  0  0  0  0  0
  -30.8948  -19.8625   20.2873 H   0  0  0  0  0  0
  -30.1404  -20.3439   21.7856 H   0  0  0  0  0  0
  -25.5531  -24.5300   22.0417 H   0  0  0  0  0  0
  -29.2296  -18.0512   22.1271 H   0  0  0  0  0  0
  -30.7243  -17.2150   19.5938 H   0  0  0  0  0  0
  -32.2341  -17.9664   21.6154 H   0  0  0  0  0  0
  -31.3287  -16.8984   22.6853 H   0  0  0  0  0  0
  -31.4581  -18.6088   23.0616 H   0  0  0  0  0  0
  -28.4984  -24.2252   22.8083 H   0  0  0  0  0  0
  -27.7838  -25.6396   22.1590 H   0  0  0  0  0  0
  -29.8333  -22.8808   20.8934 H   0  0  0  0  0  0
  -28.5328  -22.1798   21.7694 H   0  0  0  0  0  0
  -29.2754  -21.6681   18.9059 H   0  0  0  0  0  0
  -27.5953  -21.5500   19.3350 H   0  0  0  0  0  0
  -28.0198  -25.0188   18.7451 H   0  0  0  0  0  0
  -29.5197  -24.9662   19.5736 H   0  0  0  0  0  0
  -26.9474  -23.7332   20.3198 H   0  0  0  0  0  0
  -28.8917  -15.4164   21.1092 H   0  0  0  0  0  0
  -28.0259  -19.8590   20.8447 H   0  0  0  0  0  0
  1 25  1  0  0  0
  1 30  2  0  0  0
  1 88  1  0  0  0
  2  3  1  0  0  0
  2 25  1  0  0  0
  2 90  1  0  0  0
  2 91  1  0  0  0
  3  4  1  0  0  0
  3 92  1  0  0  0
  3 93  1  0  0  0
  4  5  1  0  0  0
  4 94  1  0  0  0
  4 95  1  0  0  0
  5  6  1  0  0  0
  5 26  1  0  0  0
  5 96  1  0  0  0
  6 25  1  0  0  0
  6 97  1  0  0  0
  6 98  1  0  0  0
  7  8  2  0  0  0
  7 26  1  0  0  0
  7 29  1  0  0  0
  8  9  1  0  0  0
  8 22  1  0  0  0
  9 10  1  0  0  0
  9 27  2  0  0  0
 10 11  2  0  0  0
 10 15  1  0  0  0
 11 12  1  0  0  0
 11 99  1  0  0  0
 12 13  2  0  0  0
 12100  1  0  0  0
 13 14  1  0  0  0
 13 31  1  0  0  0
 14 15  2  0  0  0
 14101  1  0  0  0
 15102  1  0  0  0
 16 17  2  0  0  0
 16 21  1  0  0  0
 16 31  1  0  0  0
 17 18  1  0  0  0
 17103  1  0  0  0
 18 19  2  0  0  0
 18104  1  0  0  0
 19 20  1  0  0  0
 19 24  1  0  0  0
 20 21  2  0  0  0
 20105  1  0  0  0
 21 23  1  0  0  0
 22 28  1  0  0  0
 22 32  2  0  0  0
 26 27  1  0  0  0
 28106  1  0  0  0
 28107  1  0  0  0
 29108  1  0  0  0
 29109  1  0  0  0
 33 34  1  0  0  0
 33 66  1  0  0  0
 33 70  2  0  0  0
 34 36  1  0  0  0
 34 59  1  0  0  0
 34110  1  0  0  0
 35 44  2  0  0  0
 35 45  1  0  0  0
 35 68  1  0  0  0
 36 56  1  0  0  0
 36111  1  0  0  0
 37 39  1  0  0  0
 37 47  1  0  0  0
 37 66  1  0  0  0
 37112  1  0  0  0
 38 43  2  0  0  0
 38 46  1  0  0  0
 38 47  1  0  0  0
 39 64  1  0  0  0
 39 67  2  0  0  0
 40 52  1  0  0  0
 40 53  2  0  0  0
 40 58  1  0  0  0
 41113  1  0  0  0
 41114  1  0  0  0
 41115  1  0  0  0
 41 48  1  0  0  0
 42 43  1  0  0  0
 42 66  1  0  0  0
 42116  1  0  0  0
 42117  1  0  0  0
 43 44  1  0  0  0
 44118  1  0  0  0
 45 46  2  0  0  0
 45119  1  0  0  0
 46120  1  0  0  0
 47121  1  0  0  0
 47122  1  0  0  0
 48 56  1  0  0  0
 48 65  1  0  0  0
 48123  1  0  0  0
 49 50  1  0  0  0
 49 53  1  0  0  0
 49 64  1  0  0  0
 49124  1  0  0  0
 50 51  1  0  0  0
 50125  1  0  0  0
 50126  1  0  0  0
 51 52  1  0  0  0
 51127  1  0  0  0
 51128  1  0  0  0
 52129  1  0  0  0
 52130  1  0  0  0
 53 54  1  0  0  0
 54 55  2  0  0  0
 54131  1  0  0  0
 55 57  1  0  0  0
 55132  1  0  0  0
 56 69  2  0  0  0
 57 58  2  0  0  0
 57133  1  0  0  0
 58134  1  0  0  0
 59 60  1  0  0  0
 59 61  1  0  0  0
 59 62  1  0  0  0
 60135  1  0  0  0
 60136  1  0  0  0
 60137  1  0  0  0
 61138  1  0  0  0
 61139  1  0  0  0
 61140  1  0  0  0
 62141  1  0  0  0
 62142  1  0  0  0
 62143  1  0  0  0
 63 65  1  0  0  0
 63144  1  0  0  0
 63145  1  0  0  0
 63146  1  0  0  0
 64147  1  0  0  0
 65148  1  0  0  0
 68 86  1  0  0  0
 71 72  1  0  0  0
 71 73  1  0  0  0
 71149  1  0  0  0
 71150  1  0  0  0
 72 74  1  0  0  0
 72151  1  0  0  0
 72152  1  0  0  0
 73 75  1  0  0  0
 73153  1  0  0  0
 73154  1  0  0  0
 74 79  1  0  0  0
 74155  1  0  0  0
 74156  1  0  0  0
 75 79  1  0  0  0
 75157  1  0  0  0
 75158  1  0  0  0
 76 77  1  0  0  0
 76 81  1  0  0  0
 76159  1  0  0  0
 76160  1  0  0  0
 77 89  1  0  0  0
 77161  1  0  0  0
 77162  1  0  0  0
 78 80  1  0  0  0
 78 89  1  0  0  0
 78163  1  0  0  0
 78164  1  0  0  0
 79 83  1  0  0  0
 79165  1  0  0  0
 80 81  1  0  0  0
 80 82  1  0  0  0
 80166  1  0  0  0
 81 88  1  0  0  0
 81167  1  0  0  0
 82168  1  0  0  0
 82169  1  0  0  0
 82170  1  0  0  0
 83171  1  0  0  0
 83172  1  0  0  0
 83 87  1  0  0  0
 84 85  1  0  0  0
 84 87  1  0  0  0
 84173  1  0  0  0
 84174  1  0  0  0
 85175  1  0  0  0
 85176  1  0  0  0
 85 89  1  0  0  0
 86 87  1  0  0  0
 86177  1  0  0  0
 86178  1  0  0  0
 87179  1  0  0  0
 88180  1  0  0  0
 89181  1  0  0  0
M  CHG  1  89   1
M  ISO  4   1 100  68 101  86 101  88 100
M  END
> <chiral flag>
0

> <version>
0

> <s_m_source_file>
/data/baiqing/PycharmProjects/Reinvent-master-3.2/result/LINK_invent/BTK/process_docking_weight1_custom_sum_contain_oxygen_bond_distance_aromatic_linkinvent_7_9_3/rearranged_h_0124.sdf

> <i_m_source_file_index>
42

> <r_mmod_Potential_Energy-OPLS-2005>
26.0475883483887

> <r_mmod_Stretch_Energy-OPLS-2005>
78.4350128173828

> <r_mmod_Bend_Energy-OPLS-2005>
159.714080810547

> <r_mmod_Torsional_Energy-OPLS-2005>
294.390655517578

> <r_mmod_Improper_Torsional_Energy-OPLS-2005>
6.57128477096558

> <r_mmod_Van_der_Waal_Energy-OPLS-2005>
118.32991027832

> <r_mmod_Electrostatic_Energy-OPLS-2005>
-224.935928344727

> <r_mmod_Solvation_Energy-OPLS-2005>
-446.998718261719

> <b_mmod_Minimization_Converged-OPLS-2005>
0

> <r_mmod_RMS_Derivative-OPLS-2005>
2.95685410499573

$$$$
42
                    3D
 Structure written by MMmdl.
162171  0  0  1  0            999 V2000
  -30.7070  -14.4372   20.6040 C   0  0  0  0  0  0
  -30.4274  -12.3020   19.4104 C   0  0  0  0  0  0
  -29.4948  -12.5246   18.2000 C   0  0  0  0  0  0
  -28.0157  -12.3863   18.6122 C   0  0  0  0  0  0
  -27.6684  -13.2049   19.8841 C   0  0  2  0  0  0
  -28.7088  -12.9505   20.9983 C   0  0  0  0  0  0
  -25.2628  -13.8156   20.5710 C   0  0  0  0  0  0
  -24.1860  -13.0448   20.9136 C   0  0  0  0  0  0
  -24.6396  -11.6904   20.8700 C   0  0  0  0  0  0
  -23.9064  -10.4294   21.0391 C   0  0  0  0  0  0
  -24.3614   -9.4214   21.9180 C   0  0  0  0  0  0
  -23.6289   -8.2252   22.0758 C   0  0  0  0  0  0
  -22.4272   -8.0281   21.3539 C   0  0  0  0  0  0
  -21.9899   -9.0261   20.4653 C   0  0  0  0  0  0
  -22.7232  -10.2141   20.3053 C   0  0  0  0  0  0
  -21.6852   -6.0727   22.5279 C   0  0  0  0  0  0
  -21.4016   -6.5633   23.8212 C   0  0  0  0  0  0
  -21.3670   -5.6791   24.9176 C   0  0  0  0  0  0
  -21.6050   -4.3052   24.7234 C   0  0  0  0  0  0
  -21.8816   -3.8138   23.4354 C   0  0  0  0  0  0
  -21.9191   -4.6951   22.3408 C   0  0  0  0  0  0
  -22.7889  -13.5277   21.1802 C   0  0  0  0  0  0
  -22.1662   -4.2136   21.0986 F   0  0  0  0  0  0
  -21.5639   -3.4537   25.7747 F   0  0  0  0  0  0
  -30.0425  -13.2616   20.4547 N   0  0  0  0  0  0
  -26.3070  -12.9325   20.3402 N   0  0  0  0  0  0
  -25.9323  -11.6481   20.5724 N   0  0  0  0  0  0
  -22.0490  -12.8291   22.0331 N   0  0  0  0  0  0
  -25.4399  -15.1882   20.4232 N   0  0  0  0  0  0
  -31.8033  -14.6660   20.0847 O   0  0  0  0  0  0
  -21.6648   -6.8868   21.4236 O   0  0  0  0  0  0
  -22.3613  -14.5612   20.6671 O   0  0  0  0  0  0
  -24.6150  -31.8701   23.2102 C   0  0  0  0  0  0
  -25.9054  -32.4827   23.8402 C   0  0  1  0  0  0
  -27.2229  -27.4333   20.1010 C   0  0  0  0  0  0
  -25.5914  -33.8622   24.2340 N   0  0  0  0  0  0
  -23.4022  -30.4941   21.5513 C   0  0  2  0  0  0
  -24.8462  -28.9636   20.1124 C   0  0  0  0  0  0
  -22.7402  -29.4682   22.4994 C   0  0  0  0  0  0
  -18.0281  -28.1366   22.8477 C   0  0  0  0  0  0
  -24.1489  -36.7308   23.2632 C   0  0  0  0  0  0
  -25.9311  -30.8369   21.3626 C   0  0  0  0  0  0
  -26.0082  -29.4730   20.7065 C   0  0  0  0  0  0
  -27.2032  -28.7173   20.6923 C   0  0  0  0  0  0
  -26.0455  -26.9443   19.4914 C   0  0  0  0  0  0
  -24.8600  -27.6994   19.4995 C   0  0  0  0  0  0
  -23.6086  -29.8282   20.1648 C   0  0  0  0  0  0
  -25.4110  -36.3102   24.0332 C   0  0  1  0  0  0
  -20.5863  -28.3671   23.1315 C   0  0  2  0  0  0
  -20.6779  -26.9421   22.5390 C   0  0  0  0  0  0
  -19.5769  -26.6431   21.5169 C   0  0  0  0  0  0
  -18.1945  -26.7937   22.1577 C   0  0  0  0  0  0
  -19.1516  -28.8831   23.2905 C   0  0  0  0  0  0
  -18.9429  -30.1436   23.8916 C   0  0  0  0  0  0
  -17.6425  -30.6563   24.0565 C   0  0  0  0  0  0
  -25.9033  -34.9469   23.5126 C   0  0  0  0  0  0
  -16.5331  -29.9052   23.6318 C   0  0  0  0  0  0
  -16.7269  -28.6478   23.0326 C   0  0  0  0  0  0
  -26.4479  -31.6605   25.0729 C   0  0  0  0  0  0
  -25.3750  -31.3707   26.1478 C   0  0  0  0  0  0
  -27.0311  -30.3051   24.6101 C   0  0  0  0  0  0
  -27.6069  -32.4302   25.7490 C   0  0  0  0  0  0
  -27.5580  -37.1813   24.8466 C   0  0  0  0  0  0
  -21.4132  -29.3051   22.3727 N   0  0  0  0  0  0
  -26.4302  -37.3780   23.9397 N   0  0  0  0  0  0
  -24.6673  -31.0813   22.0996 N   0  0  0  0  0  0
  -23.4177  -28.8226   23.3039 O   0  0  0  0  0  0
  -28.3713  -26.6701   20.1377 O   0  0  0  0  0  0
  -26.5581  -34.8920   22.4678 O   0  0  0  0  0  0
  -23.5351  -32.1467   23.7507 O   0  0  0  0  0  0
  -28.8788  -18.8388   20.6342 C   0  0  0  0  0  0
  -27.0101  -17.8358   22.4370 C   0  0  0  0  0  0
  -27.6558  -19.5163   20.8137 C   0  0  0  0  0  0
  -26.7347  -19.0077   21.7178 C   0  0  0  0  0  0
  -29.0876  -17.6574   21.3900 C   0  0  0  0  0  0
  -25.4650  -19.8082   21.7530 C   0  0  0  0  0  0
  -25.6475  -20.8433   20.6168 C   0  0  0  0  0  0
  -27.0992  -20.7138   20.0584 C   0  0  1  0  0  0
  -30.3535  -16.8204   21.2519 C   0  0  0  0  0  0
  -28.3295  -24.3379   19.2817 C   0  0  0  0  0  0
  -27.4465  -23.0596   19.3070 C   0  0  0  0  0  0
  -28.1822  -25.2858   20.4923 C   0  0  0  0  0  0
  -28.1708  -17.1680   22.2641 N   0  0  0  0  0  0
  -30.0355  -15.3928   21.2539 N   0  0  0  0  0  0
  -27.8831  -21.9652   20.2215 N   0  3  0  0  0  0
  -31.4724  -12.4090   19.1123 H   0  0  0  0  0  0
  -30.3319  -11.2837   19.7904 H   0  0  0  0  0  0
  -29.7289  -11.8114   17.4092 H   0  0  0  0  0  0
  -29.6645  -13.5163   17.7758 H   0  0  0  0  0  0
  -27.8190  -11.3287   18.7884 H   0  0  0  0  0  0
  -27.3647  -12.6822   17.7893 H   0  0  0  0  0  0
  -27.7236  -14.2590   19.6115 H   0  0  0  0  0  0
  -28.6804  -11.9048   21.3086 H   0  0  0  0  0  0
  -28.4669  -13.5232   21.8942 H   0  0  0  0  0  0
  -25.2752   -9.5682   22.4765 H   0  0  0  0  0  0
  -23.9983   -7.4645   22.7491 H   0  0  0  0  0  0
  -21.0815   -8.8796   19.8971 H   0  0  0  0  0  0
  -22.3690  -10.9686   19.6168 H   0  0  0  0  0  0
  -21.2009   -7.6139   23.9714 H   0  0  0  0  0  0
  -21.1497   -6.0521   25.9082 H   0  0  0  0  0  0
  -22.0580   -2.7596   23.2868 H   0  0  0  0  0  0
  -22.4063  -11.9945   22.4738 H   0  0  0  0  0  0
  -21.1110  -13.1361   22.2497 H   0  0  0  0  0  0
  -24.6840  -15.8491   20.5606 H   0  0  0  0  0  0
  -26.3291  -15.6297   20.2261 H   0  0  0  0  0  0
  -26.7127  -32.5542   23.1172 H   0  0  0  0  0  0
  -25.0110  -33.9784   25.0518 H   0  0  0  0  0  0
  -22.6916  -31.3117   21.4135 H   0  0  0  0  0  0
  -23.3743  -35.9651   23.3315 H   0  0  0  0  0  0
  -24.3592  -36.8900   22.2043 H   0  0  0  0  0  0
  -23.7262  -37.6523   23.6640 H   0  0  0  0  0  0
  -26.0429  -31.6053   20.5959 H   0  0  0  0  0  0
  -26.8170  -30.8865   21.9841 H   0  0  0  0  0  0
  -28.0999  -29.1031   21.1576 H   0  0  0  0  0  0
  -26.0295  -25.9764   19.0140 H   0  0  0  0  0  0
  -23.9663  -27.3018   19.0379 H   0  0  0  0  0  0
  -23.7129  -30.6016   19.4036 H   0  0  0  0  0  0
  -22.7336  -29.2445   19.8723 H   0  0  0  0  0  0
  -25.1288  -36.1963   25.0827 H   0  0  0  0  0  0
  -20.9955  -28.3228   24.1439 H   0  0  0  0  0  0
  -20.5677  -26.2256   23.3556 H   0  0  0  0  0  0
  -21.6648  -26.7486   22.1165 H   0  0  0  0  0  0
  -19.6945  -25.6373   21.1118 H   0  0  0  0  0  0
  -19.6695  -27.3286   20.6728 H   0  0  0  0  0  0
  -17.4234  -26.6732   21.3949 H   0  0  0  0  0  0
  -18.0314  -26.0045   22.8930 H   0  0  0  0  0  0
  -19.7892  -30.7259   24.2295 H   0  0  0  0  0  0
  -17.4964  -31.6246   24.5148 H   0  0  0  0  0  0
  -15.5321  -30.2935   23.7607 H   0  0  0  0  0  0
  -15.8685  -28.0790   22.7007 H   0  0  0  0  0  0
  -24.5926  -30.7048   25.7813 H   0  0  0  0  0  0
  -24.8942  -32.2861   26.4930 H   0  0  0  0  0  0
  -25.8104  -30.8876   27.0238 H   0  0  0  0  0  0
  -26.2858  -29.6815   24.1145 H   0  0  0  0  0  0
  -27.4077  -29.7270   25.4552 H   0  0  0  0  0  0
  -27.8692  -30.4367   23.9252 H   0  0  0  0  0  0
  -27.2706  -33.3588   26.2109 H   0  0  0  0  0  0
  -28.3862  -32.6880   25.0306 H   0  0  0  0  0  0
  -28.0762  -31.8404   26.5376 H   0  0  0  0  0  0
  -28.2603  -38.0097   24.7487 H   0  0  0  0  0  0
  -28.1065  -36.2633   24.6317 H   0  0  0  0  0  0
  -27.2302  -37.1484   25.8868 H   0  0  0  0  0  0
  -20.9310  -29.8764   21.6930 H   0  0  0  0  0  0
  -26.0189  -38.2863   24.1381 H   0  0  0  0  0  0
  -29.6156  -19.1815   19.9202 H   0  0  0  0  0  0
  -26.2925  -17.4182   23.1280 H   0  0  0  0  0  0
  -25.3601  -20.2893   22.7267 H   0  0  0  0  0  0
  -24.5945  -19.1715   21.5902 H   0  0  0  0  0  0
  -25.4015  -21.8445   20.9693 H   0  0  0  0  0  0
  -24.9402  -20.6157   19.8189 H   0  0  0  0  0  0
  -27.0690  -20.4430   19.0011 H   0  0  0  0  0  0
  -31.0157  -17.0326   22.0911 H   0  0  0  0  0  0
  -30.8868  -17.1063   20.3434 H   0  0  0  0  0  0
  -29.3786  -24.0895   19.1221 H   0  0  0  0  0  0
  -28.0339  -24.8970   18.3926 H   0  0  0  0  0  0
  -27.4429  -22.6511   18.2958 H   0  0  0  0  0  0
  -26.4137  -23.3415   19.5161 H   0  0  0  0  0  0
  -28.9287  -25.0220   21.2419 H   0  0  0  0  0  0
  -27.2228  -25.1299   20.9903 H   0  0  0  0  0  0
  -29.1420  -15.1662   21.6668 H   0  0  0  0  0  0
  -28.8406  -21.7297   20.0229 H   0  0  0  0  0  0
  -27.8313  -22.2521   21.1843 H   0  0  0  0  0  0
  1 25  1  0  0  0
  1 30  2  0  0  0
  1 84  1  0  0  0
  2  3  1  0  0  0
  2 25  1  0  0  0
  2 86  1  0  0  0
  2 87  1  0  0  0
  3  4  1  0  0  0
  3 88  1  0  0  0
  3 89  1  0  0  0
  4  5  1  0  0  0
  4 90  1  0  0  0
  4 91  1  0  0  0
  5  6  1  0  0  0
  5 26  1  0  0  0
  5 92  1  0  0  0
  6 25  1  0  0  0
  6 93  1  0  0  0
  6 94  1  0  0  0
  7  8  2  0  0  0
  7 26  1  0  0  0
  7 29  1  0  0  0
  8  9  1  0  0  0
  8 22  1  0  0  0
  9 10  1  0  0  0
  9 27  2  0  0  0
 10 11  2  0  0  0
 10 15  1  0  0  0
 11 12  1  0  0  0
 11 95  1  0  0  0
 12 13  2  0  0  0
 12 96  1  0  0  0
 13 14  1  0  0  0
 13 31  1  0  0  0
 14 15  2  0  0  0
 14 97  1  0  0  0
 15 98  1  0  0  0
 16 17  2  0  0  0
 16 21  1  0  0  0
 16 31  1  0  0  0
 17 18  1  0  0  0
 17 99  1  0  0  0
 18 19  2  0  0  0
 18100  1  0  0  0
 19 20  1  0  0  0
 19 24  1  0  0  0
 20 21  2  0  0  0
 20101  1  0  0  0
 21 23  1  0  0  0
 22 28  1  0  0  0
 22 32  2  0  0  0
 26 27  1  0  0  0
 28102  1  0  0  0
 28103  1  0  0  0
 29104  1  0  0  0
 29105  1  0  0  0
 33 34  1  0  0  0
 33 66  1  0  0  0
 33 70  2  0  0  0
 34 36  1  0  0  0
 34 59  1  0  0  0
 34106  1  0  0  0
 35 44  2  0  0  0
 35 45  1  0  0  0
 35 68  1  0  0  0
 36 56  1  0  0  0
 36107  1  0  0  0
 37 39  1  0  0  0
 37 47  1  0  0  0
 37 66  1  0  0  0
 37108  1  0  0  0
 38 43  2  0  0  0
 38 46  1  0  0  0
 38 47  1  0  0  0
 39 64  1  0  0  0
 39 67  2  0  0  0
 40 52  1  0  0  0
 40 53  2  0  0  0
 40 58  1  0  0  0
 41109  1  0  0  0
 41110  1  0  0  0
 41111  1  0  0  0
 41 48  1  0  0  0
 42 43  1  0  0  0
 42 66  1  0  0  0
 42112  1  0  0  0
 42113  1  0  0  0
 43 44  1  0  0  0
 44114  1  0  0  0
 45 46  2  0  0  0
 45115  1  0  0  0
 46116  1  0  0  0
 47117  1  0  0  0
 47118  1  0  0  0
 48 56  1  0  0  0
 48 65  1  0  0  0
 48119  1  0  0  0
 49 50  1  0  0  0
 49 53  1  0  0  0
 49 64  1  0  0  0
 49120  1  0  0  0
 50 51  1  0  0  0
 50121  1  0  0  0
 50122  1  0  0  0
 51 52  1  0  0  0
 51123  1  0  0  0
 51124  1  0  0  0
 52125  1  0  0  0
 52126  1  0  0  0
 53 54  1  0  0  0
 54 55  2  0  0  0
 54127  1  0  0  0
 55 57  1  0  0  0
 55128  1  0  0  0
 56 69  2  0  0  0
 57 58  2  0  0  0
 57129  1  0  0  0
 58130  1  0  0  0
 59 60  1  0  0  0
 59 61  1  0  0  0
 59 62  1  0  0  0
 60131  1  0  0  0
 60132  1  0  0  0
 60133  1  0  0  0
 61134  1  0  0  0
 61135  1  0  0  0
 61136  1  0  0  0
 62137  1  0  0  0
 62138  1  0  0  0
 62139  1  0  0  0
 63 65  1  0  0  0
 63140  1  0  0  0
 63141  1  0  0  0
 63142  1  0  0  0
 64143  1  0  0  0
 65144  1  0  0  0
 68 82  1  0  0  0
 71 73  2  0  0  0
 71 75  1  0  0  0
 71145  1  0  0  0
 72 74  2  0  0  0
 72 83  1  0  0  0
 72146  1  0  0  0
 73 74  1  0  0  0
 73 78  1  0  0  0
 74 76  1  0  0  0
 75 79  1  0  0  0
 75 83  2  0  0  0
 76 77  1  0  0  0
 76147  1  0  0  0
 76148  1  0  0  0
 77 78  1  0  0  0
 77149  1  0  0  0
 77150  1  0  0  0
 78 85  1  0  0  0
 78151  1  0  0  0
 79 84  1  0  0  0
 79152  1  0  0  0
 79153  1  0  0  0
 80 81  1  0  0  0
 80 82  1  0  0  0
 80154  1  0  0  0
 80155  1  0  0  0
 81 85  1  0  0  0
 81156  1  0  0  0
 81157  1  0  0  0
 82158  1  0  0  0
 82159  1  0  0  0
 84160  1  0  0  0
 85161  1  0  0  0
 85162  1  0  0  0
M  CHG  1  85   1
M  ISO  4   1 100  68 101  82 101  84 100
M  END
> <chiral flag>
0

> <version>
0

> <s_m_source_file>
/data/baiqing/PycharmProjects/Reinvent-master-3.2/result/LINK_invent/BTK/process_docking_weight1_custom_sum_contain_oxygen_bond_distance_aromatic_linkinvent_7_9_3/rearranged_h_0124.sdf

> <i_m_source_file_index>
43

> <r_mmod_Potential_Energy-OPLS-2005>
-550.426025390625

> <r_mmod_Stretch_Energy-OPLS-2005>
37.0776176452637

> <r_mmod_Bend_Energy-OPLS-2005>
132.227966308594

> <r_mmod_Torsional_Energy-OPLS-2005>
239.065322875977

> <r_mmod_Improper_Torsional_Energy-OPLS-2005>
3.5203595161438

> <r_mmod_Van_der_Waal_Energy-OPLS-2005>
149.666259765625

> <r_mmod_Electrostatic_Energy-OPLS-2005>
-628.601013183594

> <r_mmod_Solvation_Energy-OPLS-2005>
-494.792510986328

> <b_mmod_Minimization_Converged-OPLS-2005>
0

> <r_mmod_RMS_Derivative-OPLS-2005>
2.19348764419556

$$$$
43
                    3D
 Structure written by MMmdl.
169180  0  0  1  0            999 V2000
  -30.7143  -14.4526   20.5558 C   0  0  0  0  0  0
  -30.4233  -12.2915   19.4104 C   0  0  0  0  0  0
  -29.4899  -12.5031   18.2000 C   0  0  0  0  0  0
  -28.0102  -12.3742   18.6153 C   0  0  0  0  0  0
  -27.6632  -13.2065   19.8786 C   0  0  2  0  0  0
  -28.7117  -12.9708   20.9902 C   0  0  0  0  0  0
  -25.2599  -13.8161   20.5739 C   0  0  0  0  0  0
  -24.1832  -13.0427   20.9174 C   0  0  0  0  0  0
  -24.6414  -11.6908   20.8729 C   0  0  0  0  0  0
  -23.9096  -10.4293   21.0404 C   0  0  0  0  0  0
  -24.3654   -9.4202   21.9174 C   0  0  0  0  0  0
  -23.6319   -8.2245   22.0744 C   0  0  0  0  0  0
  -22.4287   -8.0301   21.3554 C   0  0  0  0  0  0
  -21.9943   -9.0268   20.4641 C   0  0  0  0  0  0
  -22.7278  -10.2142   20.3048 C   0  0  0  0  0  0
  -21.6855   -6.0763   22.5294 C   0  0  0  0  0  0
  -21.4014   -6.5656   23.8231 C   0  0  0  0  0  0
  -21.3647   -5.6798   24.9185 C   0  0  0  0  0  0
  -21.6029   -4.3064   24.7228 C   0  0  0  0  0  0
  -21.8813   -3.8167   23.4350 C   0  0  0  0  0  0
  -21.9189   -4.6991   22.3408 C   0  0  0  0  0  0
  -22.7850  -13.5228   21.1822 C   0  0  0  0  0  0
  -22.1652   -4.2174   21.0984 F   0  0  0  0  0  0
  -21.5628   -3.4548   25.7741 F   0  0  0  0  0  0
  -30.0411  -13.2751   20.4341 N   0  0  0  0  0  0
  -26.3041  -12.9338   20.3415 N   0  0  0  0  0  0
  -25.9342  -11.6498   20.5775 N   0  0  0  0  0  0
  -22.0498  -12.8205   22.0380 N   0  0  0  0  0  0
  -25.4321  -15.1873   20.4263 N   0  0  0  0  0  0
  -31.8624  -14.6169   20.1295 O   0  0  0  0  0  0
  -21.6638   -6.8911   21.4260 O   0  0  0  0  0  0
  -22.3512  -14.5522   20.6670 O   0  0  0  0  0  0
  -24.6137  -31.8677   23.2106 C   0  0  0  0  0  0
  -25.9036  -32.4819   23.8403 C   0  0  1  0  0  0
  -27.2426  -27.4504   20.0739 C   0  0  0  0  0  0
  -25.5894  -33.8620   24.2326 N   0  0  0  0  0  0
  -23.4023  -30.4911   21.5497 C   0  0  2  0  0  0
  -24.8500  -28.9583   20.1102 C   0  0  0  0  0  0
  -22.7402  -29.4661   22.4980 C   0  0  0  0  0  0
  -18.0270  -28.1380   22.8499 C   0  0  0  0  0  0
  -24.1486  -36.7316   23.2639 C   0  0  0  0  0  0
  -25.9297  -30.8329   21.3659 C   0  0  0  0  0  0
  -26.0080  -29.4690   20.7104 C   0  0  0  0  0  0
  -27.2037  -28.7158   20.7019 C   0  0  0  0  0  0
  -26.0659  -26.9432   19.4839 C   0  0  0  0  0  0
  -24.8720  -27.6912   19.4996 C   0  0  0  0  0  0
  -23.6112  -29.8240   20.1636 C   0  0  0  0  0  0
  -25.4108  -36.3109   24.0336 C   0  0  1  0  0  0
  -20.5860  -28.3670   23.1315 C   0  0  2  0  0  0
  -20.6762  -26.9406   22.5419 C   0  0  0  0  0  0
  -19.5745  -26.6388   21.5214 C   0  0  0  0  0  0
  -18.1921  -26.7931   22.1623 C   0  0  0  0  0  0
  -19.1519  -28.8843   23.2906 C   0  0  0  0  0  0
  -18.9449  -30.1447   23.8916 C   0  0  0  0  0  0
  -17.6454  -30.6588   24.0571 C   0  0  0  0  0  0
  -25.9036  -34.9473   23.5131 C   0  0  0  0  0  0
  -16.5347  -29.9090   23.6326 C   0  0  0  0  0  0
  -16.7260  -28.6506   23.0353 C   0  0  0  0  0  0
  -26.4468  -31.6600   25.0729 C   0  0  0  0  0  0
  -25.3730  -31.3702   26.1474 C   0  0  0  0  0  0
  -27.0308  -30.3043   24.6114 C   0  0  0  0  0  0
  -27.6044  -32.4320   25.7488 C   0  0  0  0  0  0
  -27.5579  -37.1816   24.8464 C   0  0  0  0  0  0
  -21.4128  -29.3032   22.3709 N   0  0  0  0  0  0
  -26.4295  -37.3794   23.9403 N   0  0  0  0  0  0
  -24.6664  -31.0788   22.1001 N   0  0  0  0  0  0
  -23.4170  -28.8206   23.3030 O   0  0  0  0  0  0
  -28.3995  -26.7042   20.0936 O   0  0  0  0  0  0
  -26.5600  -34.8926   22.4691 O   0  0  0  0  0  0
  -23.5331  -32.1426   23.7504 O   0  0  0  0  0  0
  -27.9013  -23.5142   17.7585 C   0  0  0  0  0  0
  -27.2780  -22.2812   17.4954 C   0  0  0  0  0  0
  -29.0513  -19.9924   19.8175 C   0  0  0  0  0  0
  -29.2894  -22.4297   19.4392 C   0  0  0  0  0  0
  -28.6747  -21.1844   19.1510 C   0  0  0  0  0  0
  -28.4023  -18.7716   19.4947 C   0  0  0  0  0  0
  -28.9136  -23.6045   18.7376 C   0  0  0  0  0  0
  -27.6591  -21.1078   18.1679 C   0  0  0  0  0  0
  -27.4220  -18.8083   18.4683 C   0  0  0  0  0  0
  -27.3394  -16.4816   17.2489 C   0  0  0  0  0  0
  -26.3755  -17.3684   16.5187 C   0  0  0  0  0  0
  -29.0430  -17.5379   21.7394 C   0  0  0  0  0  0
  -29.6380  -16.1472   22.0437 C   0  0  0  0  0  0
  -29.7934  -16.5620   19.7173 C   0  0  0  0  0  0
  -28.6814  -17.4604   20.2546 C   0  0  2  0  0  0
  -26.6479  -17.6074   17.9932 C   0  0  0  0  0  0
  -29.6877  -24.9135   18.9440 C   0  0  0  0  0  0
  -28.9063  -26.2533   18.8351 C   0  0  0  0  0  0
  -27.0590  -19.9471   17.8470 N   0  0  0  0  0  0
  -29.9192  -15.5277   20.7436 N   0  0  0  0  0  0
  -31.4661  -12.3853   19.1031 H   0  0  0  0  0  0
  -30.3201  -11.2790   19.8023 H   0  0  0  0  0  0
  -29.7193  -11.7813   17.4146 H   0  0  0  0  0  0
  -29.6601  -13.4902   17.7681 H   0  0  0  0  0  0
  -27.8137  -11.3188   18.8046 H   0  0  0  0  0  0
  -27.3591  -12.6593   17.7873 H   0  0  0  0  0  0
  -27.7065  -14.2563   19.5896 H   0  0  0  0  0  0
  -28.6819  -11.9311   21.3195 H   0  0  0  0  0  0
  -28.4841  -13.5584   21.8763 H   0  0  0  0  0  0
  -25.2810   -9.5673   22.4731 H   0  0  0  0  0  0
  -24.0020   -7.4640   22.7470 H   0  0  0  0  0  0
  -21.0873   -8.8817   19.8949 H   0  0  0  0  0  0
  -22.3762  -10.9690   19.6152 H   0  0  0  0  0  0
  -21.2009   -7.6164   23.9743 H   0  0  0  0  0  0
  -21.1461   -6.0526   25.9086 H   0  0  0  0  0  0
  -22.0603   -2.7635   23.2838 H   0  0  0  0  0  0
  -22.4169  -11.9881   22.4745 H   0  0  0  0  0  0
  -21.1116  -13.1201   22.2617 H   0  0  0  0  0  0
  -24.6760  -15.8463   20.5736 H   0  0  0  0  0  0
  -26.3094  -15.6288   20.1933 H   0  0  0  0  0  0
  -26.7106  -32.5538   23.1171 H   0  0  0  0  0  0
  -25.0040  -33.9784   25.0469 H   0  0  0  0  0  0
  -22.6909  -31.3076   21.4112 H   0  0  0  0  0  0
  -23.3749  -35.9651   23.3309 H   0  0  0  0  0  0
  -24.3575  -36.8927   22.2051 H   0  0  0  0  0  0
  -23.7242  -37.6524   23.6655 H   0  0  0  0  0  0
  -26.0445  -31.6023   20.6014 H   0  0  0  0  0  0
  -26.8166  -30.8828   21.9860 H   0  0  0  0  0  0
  -28.0981  -29.1060   21.1681 H   0  0  0  0  0  0
  -26.0662  -25.9639   19.0263 H   0  0  0  0  0  0
  -23.9789  -27.2863   19.0437 H   0  0  0  0  0  0
  -23.7168  -30.6005   19.4048 H   0  0  0  0  0  0
  -22.7358  -29.2430   19.8693 H   0  0  0  0  0  0
  -25.1287  -36.1976   25.0831 H   0  0  0  0  0  0
  -20.9959  -28.3241   24.1435 H   0  0  0  0  0  0
  -20.5670  -26.2276   23.3602 H   0  0  0  0  0  0
  -21.6632  -26.7445   22.1218 H   0  0  0  0  0  0
  -19.6908  -25.6301   21.1238 H   0  0  0  0  0  0
  -19.6691  -27.3203   20.6747 H   0  0  0  0  0  0
  -17.4193  -26.6683   21.4020 H   0  0  0  0  0  0
  -18.0320  -26.0064   22.9008 H   0  0  0  0  0  0
  -19.7923  -30.7258   24.2298 H   0  0  0  0  0  0
  -17.5010  -31.6274   24.5166 H   0  0  0  0  0  0
  -15.5351  -30.3008   23.7635 H   0  0  0  0  0  0
  -15.8658  -28.0836   22.7058 H   0  0  0  0  0  0
  -24.5899  -30.7059   25.7800 H   0  0  0  0  0  0
  -24.8932  -32.2858   26.4943 H   0  0  0  0  0  0
  -25.8083  -30.8847   27.0218 H   0  0  0  0  0  0
  -26.2860  -29.6798   24.1167 H   0  0  0  0  0  0
  -27.4069  -29.7289   25.4586 H   0  0  0  0  0  0
  -27.8700  -30.4365   23.9278 H   0  0  0  0  0  0
  -27.2669  -33.3612   26.2095 H   0  0  0  0  0  0
  -28.3841  -32.6889   25.0303 H   0  0  0  0  0  0
  -28.0730  -31.8423   26.5379 H   0  0  0  0  0  0
  -28.2607  -38.0100   24.7505 H   0  0  0  0  0  0
  -28.1065  -36.2635   24.6308 H   0  0  0  0  0  0
  -27.2294  -37.1487   25.8865 H   0  0  0  0  0  0
  -20.9278  -29.8745   21.6930 H   0  0  0  0  0  0
  -26.0185  -38.2874   24.1407 H   0  0  0  0  0  0
  -27.6042  -24.3710   17.1708 H   0  0  0  0  0  0
  -26.5092  -22.2230   16.7385 H   0  0  0  0  0  0
  -29.8187  -20.0299   20.5749 H   0  0  0  0  0  0
  -30.0767  -22.4747   20.1784 H   0  0  0  0  0  0
  -28.3826  -16.6014   16.9651 H   0  0  0  0  0  0
  -27.0188  -15.4628   17.4544 H   0  0  0  0  0  0
  -25.4212  -16.9272   16.2426 H   0  0  0  0  0  0
  -26.7963  -18.0656   15.7970 H   0  0  0  0  0  0
  -29.8034  -18.2950   21.9276 H   0  0  0  0  0  0
  -28.1802  -17.7694   22.3653 H   0  0  0  0  0  0
  -28.9260  -15.5494   22.6108 H   0  0  0  0  0  0
  -30.5486  -16.2289   22.6407 H   0  0  0  0  0  0
  -30.7358  -17.1056   19.6251 H   0  0  0  0  0  0
  -29.5636  -16.1198   18.7501 H   0  0  0  0  0  0
  -27.7607  -16.8790   20.2181 H   0  0  0  0  0  0
  -25.8410  -17.3642   18.6815 H   0  0  0  0  0  0
  -30.4695  -24.9219   18.1834 H   0  0  0  0  0  0
  -30.2159  -24.8804   19.8967 H   0  0  0  0  0  0
  -28.1667  -26.2423   18.0374 H   0  0  0  0  0  0
  -29.6204  -27.0202   18.5339 H   0  0  0  0  0  0
  1 25  1  0  0  0
  1 30  2  0  0  0
  1 90  1  0  0  0
  2  3  1  0  0  0
  2 25  1  0  0  0
  2 91  1  0  0  0
  2 92  1  0  0  0
  3  4  1  0  0  0
  3 93  1  0  0  0
  3 94  1  0  0  0
  4  5  1  0  0  0
  4 95  1  0  0  0
  4 96  1  0  0  0
  5  6  1  0  0  0
  5 26  1  0  0  0
  5 97  1  0  0  0
  6 25  1  0  0  0
  6 98  1  0  0  0
  6 99  1  0  0  0
  7  8  2  0  0  0
  7 26  1  0  0  0
  7 29  1  0  0  0
  8  9  1  0  0  0
  8 22  1  0  0  0
  9 10  1  0  0  0
  9 27  2  0  0  0
 10 11  2  0  0  0
 10 15  1  0  0  0
 11 12  1  0  0  0
 11100  1  0  0  0
 12 13  2  0  0  0
 12101  1  0  0  0
 13 14  1  0  0  0
 13 31  1  0  0  0
 14 15  2  0  0  0
 14102  1  0  0  0
 15103  1  0  0  0
 16 17  2  0  0  0
 16 21  1  0  0  0
 16 31  1  0  0  0
 17 18  1  0  0  0
 17104  1  0  0  0
 18 19  2  0  0  0
 18105  1  0  0  0
 19 20  1  0  0  0
 19 24  1  0  0  0
 20 21  2  0  0  0
 20106  1  0  0  0
 21 23  1  0  0  0
 22 28  1  0  0  0
 22 32  2  0  0  0
 26 27  1  0  0  0
 28107  1  0  0  0
 28108  1  0  0  0
 29109  1  0  0  0
 29110  1  0  0  0
 33 34  1  0  0  0
 33 66  1  0  0  0
 33 70  2  0  0  0
 34 36  1  0  0  0
 34 59  1  0  0  0
 34111  1  0  0  0
 35 44  2  0  0  0
 35 45  1  0  0  0
 35 68  1  0  0  0
 36 56  1  0  0  0
 36112  1  0  0  0
 37 39  1  0  0  0
 37 47  1  0  0  0
 37 66  1  0  0  0
 37113  1  0  0  0
 38 43  2  0  0  0
 38 46  1  0  0  0
 38 47  1  0  0  0
 39 64  1  0  0  0
 39 67  2  0  0  0
 40 52  1  0  0  0
 40 53  2  0  0  0
 40 58  1  0  0  0
 41114  1  0  0  0
 41115  1  0  0  0
 41116  1  0  0  0
 41 48  1  0  0  0
 42 43  1  0  0  0
 42 66  1  0  0  0
 42117  1  0  0  0
 42118  1  0  0  0
 43 44  1  0  0  0
 44119  1  0  0  0
 45 46  2  0  0  0
 45120  1  0  0  0
 46121  1  0  0  0
 47122  1  0  0  0
 47123  1  0  0  0
 48 56  1  0  0  0
 48 65  1  0  0  0
 48124  1  0  0  0
 49 50  1  0  0  0
 49 53  1  0  0  0
 49 64  1  0  0  0
 49125  1  0  0  0
 50 51  1  0  0  0
 50126  1  0  0  0
 50127  1  0  0  0
 51 52  1  0  0  0
 51128  1  0  0  0
 51129  1  0  0  0
 52130  1  0  0  0
 52131  1  0  0  0
 53 54  1  0  0  0
 54 55  2  0  0  0
 54132  1  0  0  0
 55 57  1  0  0  0
 55133  1  0  0  0
 56 69  2  0  0  0
 57 58  2  0  0  0
 57134  1  0  0  0
 58135  1  0  0  0
 59 60  1  0  0  0
 59 61  1  0  0  0
 59 62  1  0  0  0
 60136  1  0  0  0
 60137  1  0  0  0
 60138  1  0  0  0
 61139  1  0  0  0
 61140  1  0  0  0
 61141  1  0  0  0
 62142  1  0  0  0
 62143  1  0  0  0
 62144  1  0  0  0
 63 65  1  0  0  0
 63145  1  0  0  0
 63146  1  0  0  0
 63147  1  0  0  0
 64148  1  0  0  0
 65149  1  0  0  0
 68 88  1  0  0  0
 71 72  2  0  0  0
 71 77  1  0  0  0
 71150  1  0  0  0
 72 78  1  0  0  0
 72151  1  0  0  0
 73 75  1  0  0  0
 73 76  2  0  0  0
 73152  1  0  0  0
 74 75  1  0  0  0
 74 77  2  0  0  0
 74153  1  0  0  0
 75 78  2  0  0  0
 76 79  1  0  0  0
 76 85  1  0  0  0
 77 87  1  0  0  0
 78 89  1  0  0  0
 79 89  2  0  0  0
 79 86  1  0  0  0
 80 81  1  0  0  0
 80 86  1  0  0  0
 80154  1  0  0  0
 80155  1  0  0  0
 81 86  1  0  0  0
 81156  1  0  0  0
 81157  1  0  0  0
 82 83  1  0  0  0
 82 85  1  0  0  0
 82158  1  0  0  0
 82159  1  0  0  0
 83 90  1  0  0  0
 83160  1  0  0  0
 83161  1  0  0  0
 84 85  1  0  0  0
 84 90  1  0  0  0
 84162  1  0  0  0
 84163  1  0  0  0
 85164  1  0  0  0
 86165  1  0  0  0
 87 88  1  0  0  0
 87166  1  0  0  0
 87167  1  0  0  0
 88168  1  0  0  0
 88169  1  0  0  0
M  ISO  4   1 100  68 101  88 101  90 100
M  END
> <chiral flag>
0

> <version>
0

> <s_m_source_file>
/data/baiqing/PycharmProjects/Reinvent-master-3.2/result/LINK_invent/BTK/process_docking_weight1_custom_sum_contain_oxygen_bond_distance_aromatic_linkinvent_7_9_3/rearranged_h_0124.sdf

> <i_m_source_file_index>
44

> <r_mmod_Potential_Energy-OPLS-2005>
86.7855377197266

> <r_mmod_Stretch_Energy-OPLS-2005>
39.0431594848633

> <r_mmod_Bend_Energy-OPLS-2005>
136.470184326172

> <r_mmod_Torsional_Energy-OPLS-2005>
377.242553710938

> <r_mmod_Improper_Torsional_Energy-OPLS-2005>
15.6536016464233

> <r_mmod_Van_der_Waal_Energy-OPLS-2005>
150.63948059082

> <r_mmod_Electrostatic_Energy-OPLS-2005>
-435.381011962891

> <r_mmod_Solvation_Energy-OPLS-2005>
-209.123138427734

> <b_mmod_Minimization_Converged-OPLS-2005>
0

> <r_mmod_RMS_Derivative-OPLS-2005>
1.83837842941284

$$$$
44
                    3D
 Structure written by MMmdl.
190199  0  0  1  0            999 V2000
  -30.7352  -14.4280   20.5408 C   0  0  0  0  0  0
  -30.4091  -12.2745   19.3978 C   0  0  0  0  0  0
  -29.4796  -12.4908   18.1876 C   0  0  0  0  0  0
  -28.0012  -12.3590   18.6085 C   0  0  0  0  0  0
  -27.6521  -13.1967   19.8686 C   0  0  2  0  0  0
  -28.7071  -12.9994   20.9824 C   0  0  0  0  0  0
  -25.2546  -13.8114   20.5706 C   0  0  0  0  0  0
  -24.1793  -13.0402   20.9186 C   0  0  0  0  0  0
  -24.6353  -11.6870   20.8749 C   0  0  0  0  0  0
  -23.9040  -10.4268   21.0395 C   0  0  0  0  0  0
  -24.3604   -9.4192   21.9167 C   0  0  0  0  0  0
  -23.6293   -8.2223   22.0738 C   0  0  0  0  0  0
  -22.4273   -8.0257   21.3532 C   0  0  0  0  0  0
  -21.9905   -9.0222   20.4625 C   0  0  0  0  0  0
  -22.7228  -10.2100   20.3038 C   0  0  0  0  0  0
  -21.6845   -6.0732   22.5293 C   0  0  0  0  0  0
  -21.4002   -6.5634   23.8233 C   0  0  0  0  0  0
  -21.3667   -5.6781   24.9190 C   0  0  0  0  0  0
  -21.6048   -4.3047   24.7245 C   0  0  0  0  0  0
  -21.8814   -3.8144   23.4369 C   0  0  0  0  0  0
  -21.9185   -4.6959   22.3416 C   0  0  0  0  0  0
  -22.7823  -13.5198   21.1901 C   0  0  0  0  0  0
  -22.1654   -4.2150   21.0990 F   0  0  0  0  0  0
  -21.5652   -3.4538   25.7768 F   0  0  0  0  0  0
  -30.0371  -13.2695   20.4104 N   0  0  0  0  0  0
  -26.2976  -12.9265   20.3397 N   0  0  0  0  0  0
  -25.9274  -11.6429   20.5781 N   0  0  0  0  0  0
  -22.0503  -12.8139   22.0450 N   0  0  0  0  0  0
  -25.4259  -15.1845   20.4137 N   0  0  0  0  0  0
  -31.8809  -14.5958   20.1254 O   0  0  0  0  0  0
  -21.6626   -6.8868   21.4249 O   0  0  0  0  0  0
  -22.3496  -14.5523   20.6804 O   0  0  0  0  0  0
  -24.6113  -31.8723   23.2137 C   0  0  0  0  0  0
  -25.9017  -32.4847   23.8423 C   0  0  1  0  0  0
  -27.2352  -27.4729   20.0838 C   0  0  0  0  0  0
  -25.5890  -33.8648   24.2367 N   0  0  0  0  0  0
  -23.3979  -30.4959   21.5535 C   0  0  2  0  0  0
  -24.8431  -28.9643   20.1175 C   0  0  0  0  0  0
  -22.7387  -29.4690   22.5022 C   0  0  0  0  0  0
  -18.0271  -28.1383   22.8498 C   0  0  0  0  0  0
  -24.1485  -36.7327   23.2637 C   0  0  0  0  0  0
  -25.9233  -30.8456   21.3628 C   0  0  0  0  0  0
  -26.0001  -29.4821   20.7134 C   0  0  0  0  0  0
  -27.2008  -28.7421   20.6961 C   0  0  0  0  0  0
  -26.0674  -26.9674   19.4717 C   0  0  0  0  0  0
  -24.8679  -27.7030   19.4970 C   0  0  0  0  0  0
  -23.6032  -29.8267   20.1681 C   0  0  0  0  0  0
  -25.4103  -36.3139   24.0350 C   0  0  1  0  0  0
  -20.5856  -28.3665   23.1324 C   0  0  2  0  0  0
  -20.6773  -26.9410   22.5412 C   0  0  0  0  0  0
  -19.5749  -26.6394   21.5214 C   0  0  0  0  0  0
  -18.1920  -26.7931   22.1616 C   0  0  0  0  0  0
  -19.1515  -28.8840   23.2912 C   0  0  0  0  0  0
  -18.9443  -30.1449   23.8926 C   0  0  0  0  0  0
  -17.6448  -30.6585   24.0569 C   0  0  0  0  0  0
  -25.9028  -34.9494   23.5160 C   0  0  0  0  0  0
  -16.5346  -29.9089   23.6329 C   0  0  0  0  0  0
  -16.7263  -28.6505   23.0355 C   0  0  0  0  0  0
  -26.4453  -31.6613   25.0736 C   0  0  0  0  0  0
  -25.3728  -31.3676   26.1487 C   0  0  0  0  0  0
  -27.0284  -30.3074   24.6066 C   0  0  0  0  0  0
  -27.6062  -32.4303   25.7477 C   0  0  0  0  0  0
  -27.5585  -37.1819   24.8463 C   0  0  0  0  0  0
  -21.4123  -29.3044   22.3736 N   0  0  0  0  0  0
  -26.4301  -37.3811   23.9414 N   0  0  0  0  0  0
  -24.6629  -31.0835   22.1024 N   0  0  0  0  0  0
  -23.4176  -28.8230   23.3045 O   0  0  0  0  0  0
  -28.4133  -26.7669   20.0666 O   0  0  0  0  0  0
  -26.5573  -34.8935   22.4712 O   0  0  0  0  0  0
  -23.5314  -32.1462   23.7548 O   0  0  0  0  0  0
  -33.7158  -22.9059   15.9770 C   0  0  0  0  0  0
  -33.9908  -23.5014   17.3686 C   0  0  0  0  0  0
  -32.2413  -22.4648   15.9826 C   0  0  0  0  0  0
  -29.7507  -20.2551   16.8103 C   0  0  0  0  0  0
  -29.5929  -20.6107   19.3042 C   0  0  0  0  0  0
  -29.4987  -21.7851   16.8106 C   0  0  0  0  0  0
  -32.6077  -23.7445   17.9865 C   0  0  2  0  0  0
  -31.8230  -22.5221   17.4659 C   0  0  1  0  0  0
  -30.1407  -19.6860   18.1985 C   0  0  1  0  0  0
  -30.0666  -22.0956   19.2056 C   0  0  2  0  0  0
  -32.0687  -25.1113   17.5132 C   0  0  0  0  0  0
  -29.7874  -22.5749   23.7925 C   0  0  0  0  0  0
  -30.0998  -22.8014   22.3115 C   0  0  0  0  0  0
  -28.8506  -22.6213   21.4298 C   0  0  0  0  0  0
  -29.3037  -24.5360   19.7771 C   0  0  0  0  0  0
  -29.4129  -16.3520   19.9202 C   0  0  0  0  0  0
  -30.3279  -17.5032   19.4498 C   0  0  0  0  0  0
  -28.3280  -25.4323   20.5563 C   0  0  0  0  0  0
  -29.0348  -23.0183   19.9372 C   0  0  1  0  0  0
  -30.0249  -15.4883   20.9371 N   0  0  0  0  0  0
  -30.3532  -22.5176   17.7879 N   0  3  2  0  0  0
  -29.6877  -18.2795   18.3586 N   0  3  0  0  0  0
  -31.4548  -12.3520   19.0919 H   0  0  0  0  0  0
  -30.2850  -11.2662   19.7961 H   0  0  0  0  0  0
  -29.7065  -11.7735   17.3982 H   0  0  0  0  0  0
  -29.6581  -13.4775   17.7580 H   0  0  0  0  0  0
  -27.8043  -11.3033   18.8001 H   0  0  0  0  0  0
  -27.3539  -12.6428   17.7781 H   0  0  0  0  0  0
  -27.6688  -14.2383   19.5612 H   0  0  0  0  0  0
  -28.6749  -11.9796   21.3672 H   0  0  0  0  0  0
  -28.4878  -13.6454   21.8333 H   0  0  0  0  0  0
  -25.2751   -9.5689   22.4735 H   0  0  0  0  0  0
  -24.0024   -7.4622   22.7447 H   0  0  0  0  0  0
  -21.0851   -8.8723   19.8929 H   0  0  0  0  0  0
  -22.3685  -10.9628   19.6151 H   0  0  0  0  0  0
  -21.1965   -7.6146   23.9729 H   0  0  0  0  0  0
  -21.1505   -6.0519   25.9088 H   0  0  0  0  0  0
  -22.0586   -2.7611   23.2865 H   0  0  0  0  0  0
  -22.4128  -11.9752   22.4734 H   0  0  0  0  0  0
  -21.1137  -13.1141   22.2742 H   0  0  0  0  0  0
  -24.6611  -15.8395   20.5304 H   0  0  0  0  0  0
  -26.2930  -15.6343   20.1525 H   0  0  0  0  0  0
  -26.7098  -32.5570   23.1203 H   0  0  0  0  0  0
  -25.0085  -33.9817   25.0540 H   0  0  0  0  0  0
  -22.6864  -31.3130   21.4152 H   0  0  0  0  0  0
  -23.3757  -35.9647   23.3300 H   0  0  0  0  0  0
  -24.3582  -36.8936   22.2051 H   0  0  0  0  0  0
  -23.7218  -37.6530   23.6638 H   0  0  0  0  0  0
  -26.0282  -31.6079   20.5902 H   0  0  0  0  0  0
  -26.8156  -30.9035   21.9743 H   0  0  0  0  0  0
  -28.0964  -29.1351   21.1562 H   0  0  0  0  0  0
  -26.0814  -26.0140   18.9621 H   0  0  0  0  0  0
  -23.9805  -27.3034   19.0262 H   0  0  0  0  0  0
  -23.7096  -30.6017   19.4083 H   0  0  0  0  0  0
  -22.7282  -29.2441   19.8741 H   0  0  0  0  0  0
  -25.1276  -36.2026   25.0843 H   0  0  0  0  0  0
  -20.9952  -28.3234   24.1444 H   0  0  0  0  0  0
  -20.5694  -26.2275   23.3589 H   0  0  0  0  0  0
  -21.6640  -26.7470   22.1191 H   0  0  0  0  0  0
  -19.6912  -25.6307   21.1235 H   0  0  0  0  0  0
  -19.6690  -27.3214   20.6748 H   0  0  0  0  0  0
  -17.4194  -26.6690   21.4013 H   0  0  0  0  0  0
  -18.0322  -26.0066   22.9001 H   0  0  0  0  0  0
  -19.7922  -30.7260   24.2309 H   0  0  0  0  0  0
  -17.5004  -31.6269   24.5161 H   0  0  0  0  0  0
  -15.5347  -30.3002   23.7641 H   0  0  0  0  0  0
  -15.8659  -28.0836   22.7066 H   0  0  0  0  0  0
  -24.5910  -30.7023   25.7804 H   0  0  0  0  0  0
  -24.8893  -32.2804   26.4982 H   0  0  0  0  0  0
  -25.8086  -30.8806   27.0221 H   0  0  0  0  0  0
  -26.2814  -29.6838   24.1143 H   0  0  0  0  0  0
  -27.4117  -29.7305   25.4494 H   0  0  0  0  0  0
  -27.8619  -30.4439   23.9171 H   0  0  0  0  0  0
  -27.2746  -33.3622   26.2070 H   0  0  0  0  0  0
  -28.3855  -32.6825   25.0271 H   0  0  0  0  0  0
  -28.0745  -31.8400   26.5366 H   0  0  0  0  0  0
  -28.2608  -38.0113   24.7536 H   0  0  0  0  0  0
  -28.1085  -36.2653   24.6274 H   0  0  0  0  0  0
  -27.2303  -37.1455   25.8865 H   0  0  0  0  0  0
  -20.9285  -29.8754   21.6947 H   0  0  0  0  0  0
  -26.0205  -38.2902   24.1400 H   0  0  0  0  0  0
  -34.3869  -22.0679   15.7805 H   0  0  0  0  0  0
  -33.8863  -23.6458   15.1944 H   0  0  0  0  0  0
  -34.6065  -24.4013   17.3271 H   0  0  0  0  0  0
  -34.5374  -22.7730   17.9711 H   0  0  0  0  0  0
  -32.1323  -21.4726   15.5459 H   0  0  0  0  0  0
  -31.6541  -23.1595   15.3800 H   0  0  0  0  0  0
  -30.5350  -20.0064   16.0975 H   0  0  0  0  0  0
  -28.8527  -19.7734   16.4205 H   0  0  0  0  0  0
  -29.8686  -20.2335   20.2877 H   0  0  0  0  0  0
  -28.5026  -20.5689   19.2686 H   0  0  0  0  0  0
  -28.4580  -21.9706   17.0816 H   0  0  0  0  0  0
  -29.5945  -22.1946   15.8051 H   0  0  0  0  0  0
  -32.6686  -23.7387   19.0753 H   0  0  0  0  0  0
  -32.2638  -21.6380   17.9292 H   0  0  0  0  0  0
  -31.2296  -19.6743   18.2627 H   0  0  0  0  0  0
  -31.0060  -22.1769   19.7535 H   0  0  0  0  0  0
  -32.1811  -25.2479   16.4371 H   0  0  0  0  0  0
  -32.6114  -25.9258   17.9938 H   0  0  0  0  0  0
  -31.0183  -25.2557   17.7372 H   0  0  0  0  0  0
  -30.6835  -22.6968   24.4020 H   0  0  0  0  0  0
  -29.4022  -21.5696   23.9655 H   0  0  0  0  0  0
  -29.0412  -23.2852   24.1502 H   0  0  0  0  0  0
  -30.8840  -22.1068   22.0101 H   0  0  0  0  0  0
  -30.5122  -23.8035   22.1924 H   0  0  0  0  0  0
  -28.0297  -23.1916   21.8635 H   0  0  0  0  0  0
  -28.5019  -21.5920   21.5111 H   0  0  0  0  0  0
  -30.3291  -24.7915   20.0510 H   0  0  0  0  0  0
  -29.1784  -24.7911   18.7262 H   0  0  0  0  0  0
  -29.1252  -15.7642   19.0471 H   0  0  0  0  0  0
  -28.4928  -16.7615   20.3400 H   0  0  0  0  0  0
  -31.2840  -17.1247   19.0836 H   0  0  0  0  0  0
  -30.5586  -18.1423   20.3019 H   0  0  0  0  0  0
  -28.5810  -25.4496   21.6171 H   0  0  0  0  0  0
  -27.3250  -25.0119   20.4942 H   0  0  0  0  0  0
  -28.0649  -22.8498   19.4656 H   0  0  0  0  0  0
  -30.5377  -16.0372   21.6141 H   0  0  0  0  0  0
  -30.0764  -23.4878   17.7225 H   0  0  0  0  0  0
  -29.8809  -17.7872   17.4990 H   0  0  0  0  0  0
  -28.6885  -18.2632   18.4859 H   0  0  0  0  0  0
  1 25  1  0  0  0
  1 30  2  0  0  0
  1 90  1  0  0  0
  2  3  1  0  0  0
  2 25  1  0  0  0
  2 93  1  0  0  0
  2 94  1  0  0  0
  3  4  1  0  0  0
  3 95  1  0  0  0
  3 96  1  0  0  0
  4  5  1  0  0  0
  4 97  1  0  0  0
  4 98  1  0  0  0
  5  6  1  0  0  0
  5 26  1  0  0  0
  5 99  1  0  0  0
  6 25  1  0  0  0
  6100  1  0  0  0
  6101  1  0  0  0
  7  8  2  0  0  0
  7 26  1  0  0  0
  7 29  1  0  0  0
  8  9  1  0  0  0
  8 22  1  0  0  0
  9 10  1  0  0  0
  9 27  2  0  0  0
 10 11  2  0  0  0
 10 15  1  0  0  0
 11 12  1  0  0  0
 11102  1  0  0  0
 12 13  2  0  0  0
 12103  1  0  0  0
 13 14  1  0  0  0
 13 31  1  0  0  0
 14 15  2  0  0  0
 14104  1  0  0  0
 15105  1  0  0  0
 16 17  2  0  0  0
 16 21  1  0  0  0
 16 31  1  0  0  0
 17 18  1  0  0  0
 17106  1  0  0  0
 18 19  2  0  0  0
 18107  1  0  0  0
 19 20  1  0  0  0
 19 24  1  0  0  0
 20 21  2  0  0  0
 20108  1  0  0  0
 21 23  1  0  0  0
 22 28  1  0  0  0
 22 32  2  0  0  0
 26 27  1  0  0  0
 28109  1  0  0  0
 28110  1  0  0  0
 29111  1  0  0  0
 29112  1  0  0  0
 33 34  1  0  0  0
 33 66  1  0  0  0
 33 70  2  0  0  0
 34 36  1  0  0  0
 34 59  1  0  0  0
 34113  1  0  0  0
 35 44  2  0  0  0
 35 45  1  0  0  0
 35 68  1  0  0  0
 36 56  1  0  0  0
 36114  1  0  0  0
 37 39  1  0  0  0
 37 47  1  0  0  0
 37 66  1  0  0  0
 37115  1  0  0  0
 38 43  2  0  0  0
 38 46  1  0  0  0
 38 47  1  0  0  0
 39 64  1  0  0  0
 39 67  2  0  0  0
 40 52  1  0  0  0
 40 53  2  0  0  0
 40 58  1  0  0  0
 41116  1  0  0  0
 41117  1  0  0  0
 41118  1  0  0  0
 41 48  1  0  0  0
 42 43  1  0  0  0
 42 66  1  0  0  0
 42119  1  0  0  0
 42120  1  0  0  0
 43 44  1  0  0  0
 44121  1  0  0  0
 45 46  2  0  0  0
 45122  1  0  0  0
 46123  1  0  0  0
 47124  1  0  0  0
 47125  1  0  0  0
 48 56  1  0  0  0
 48 65  1  0  0  0
 48126  1  0  0  0
 49 50  1  0  0  0
 49 53  1  0  0  0
 49 64  1  0  0  0
 49127  1  0  0  0
 50 51  1  0  0  0
 50128  1  0  0  0
 50129  1  0  0  0
 51 52  1  0  0  0
 51130  1  0  0  0
 51131  1  0  0  0
 52132  1  0  0  0
 52133  1  0  0  0
 53 54  1  0  0  0
 54 55  2  0  0  0
 54134  1  0  0  0
 55 57  1  0  0  0
 55135  1  0  0  0
 56 69  2  0  0  0
 57 58  2  0  0  0
 57136  1  0  0  0
 58137  1  0  0  0
 59 60  1  0  0  0
 59 61  1  0  0  0
 59 62  1  0  0  0
 60138  1  0  0  0
 60139  1  0  0  0
 60140  1  0  0  0
 61141  1  0  0  0
 61142  1  0  0  0
 61143  1  0  0  0
 62144  1  0  0  0
 62145  1  0  0  0
 62146  1  0  0  0
 63 65  1  0  0  0
 63147  1  0  0  0
 63148  1  0  0  0
 63149  1  0  0  0
 64150  1  0  0  0
 65151  1  0  0  0
 68 88  1  0  0  0
 71 72  1  0  0  0
 71 73  1  0  0  0
 71152  1  0  0  0
 71153  1  0  0  0
 72 77  1  0  0  0
 72154  1  0  0  0
 72155  1  0  0  0
 73156  1  0  0  0
 73157  1  0  0  0
 73 78  1  0  0  0
 74 76  1  0  0  0
 74 79  1  0  0  0
 74158  1  0  0  0
 74159  1  0  0  0
 75 79  1  0  0  0
 75160  1  0  0  0
 75161  1  0  0  0
 75 80  1  0  0  0
 76162  1  0  0  0
 76163  1  0  0  0
 76 91  1  0  0  0
 77 78  1  0  0  0
 77 81  1  0  0  0
 77164  1  0  0  0
 78 91  1  0  0  0
 78165  1  0  0  0
 79 92  1  0  0  0
 79166  1  0  0  0
 80 89  1  0  0  0
 80 91  1  0  0  0
 80167  1  0  0  0
 81168  1  0  0  0
 81169  1  0  0  0
 81170  1  0  0  0
 82 83  1  0  0  0
 82171  1  0  0  0
 82172  1  0  0  0
 82173  1  0  0  0
 83 84  1  0  0  0
 83174  1  0  0  0
 83175  1  0  0  0
 84176  1  0  0  0
 84177  1  0  0  0
 84 89  1  0  0  0
 85 88  1  0  0  0
 85 89  1  0  0  0
 85178  1  0  0  0
 85179  1  0  0  0
 86 87  1  0  0  0
 86 90  1  0  0  0
 86180  1  0  0  0
 86181  1  0  0  0
 87 92  1  0  0  0
 87182  1  0  0  0
 87183  1  0  0  0
 88184  1  0  0  0
 88185  1  0  0  0
 89186  1  0  0  0
 90187  1  0  0  0
 91188  1  0  0  0
 92189  1  0  0  0
 92190  1  0  0  0
M  CHG  2  91   1  92   1
M  ISO  4   1 100  68 101  88 101  90 100
M  END
> <chiral flag>
0

> <version>
0

> <s_m_source_file>
/data/baiqing/PycharmProjects/Reinvent-master-3.2/result/LINK_invent/BTK/process_docking_weight1_custom_sum_contain_oxygen_bond_distance_aromatic_linkinvent_7_9_3/rearranged_h_0124.sdf

> <i_m_source_file_index>
45

> <r_mmod_Potential_Energy-OPLS-2005>
-65.4134292602539

> <r_mmod_Stretch_Energy-OPLS-2005>
40.298583984375

> <r_mmod_Bend_Energy-OPLS-2005>
150.264129638672

> <r_mmod_Torsional_Energy-OPLS-2005>
443.537628173828

> <r_mmod_Improper_Torsional_Energy-OPLS-2005>
9.877516746521

> <r_mmod_Van_der_Waal_Energy-OPLS-2005>
148.244064331055

> <r_mmod_Electrostatic_Energy-OPLS-2005>
98.5400924682617

> <r_mmod_Solvation_Energy-OPLS-2005>
-968.200378417969

> <b_mmod_Minimization_Converged-OPLS-2005>
0

> <r_mmod_RMS_Derivative-OPLS-2005>
2.40907001495361

$$$$
45
                    3D
 Structure written by MMmdl.
174184  0  0  1  0            999 V2000
  -30.7722  -14.4103   20.6123 C   0  0  0  0  0  0
  -30.4103  -12.2780   19.4338 C   0  0  0  0  0  0
  -29.5005  -12.5231   18.2144 C   0  0  0  0  0  0
  -28.0211  -12.3819   18.6192 C   0  0  0  0  0  0
  -27.6697  -13.2168   19.8815 C   0  0  2  0  0  0
  -28.7083  -13.0001   21.0110 C   0  0  0  0  0  0
  -25.2572  -13.8171   20.5642 C   0  0  0  0  0  0
  -24.1843  -13.0449   20.9174 C   0  0  0  0  0  0
  -24.6413  -11.6924   20.8743 C   0  0  0  0  0  0
  -23.9069  -10.4311   21.0401 C   0  0  0  0  0  0
  -24.3626   -9.4216   21.9179 C   0  0  0  0  0  0
  -23.6311   -8.2247   22.0745 C   0  0  0  0  0  0
  -22.4289   -8.0286   21.3548 C   0  0  0  0  0  0
  -21.9918   -9.0245   20.4646 C   0  0  0  0  0  0
  -22.7233  -10.2131   20.3061 C   0  0  0  0  0  0
  -21.6859   -6.0736   22.5287 C   0  0  0  0  0  0
  -21.4003   -6.5635   23.8216 C   0  0  0  0  0  0
  -21.3656   -5.6784   24.9181 C   0  0  0  0  0  0
  -21.6064   -4.3060   24.7223 C   0  0  0  0  0  0
  -21.8811   -3.8143   23.4344 C   0  0  0  0  0  0
  -21.9177   -4.6963   22.3396 C   0  0  0  0  0  0
  -22.7864  -13.5244   21.1827 C   0  0  0  0  0  0
  -22.1668   -4.2149   21.0976 F   0  0  0  0  0  0
  -21.5618   -3.4537   25.7735 F   0  0  0  0  0  0
  -30.0582  -13.2601   20.4751 N   0  0  0  0  0  0
  -26.3058  -12.9386   20.3372 N   0  0  0  0  0  0
  -25.9348  -11.6530   20.5766 N   0  0  0  0  0  0
  -22.0489  -12.8266   22.0411 N   0  0  0  0  0  0
  -25.4233  -15.1858   20.3904 N   0  0  0  0  0  0
  -31.7906  -14.6331   19.9612 O   0  0  0  0  0  0
  -21.6661   -6.8879   21.4251 O   0  0  0  0  0  0
  -22.3564  -14.5537   20.6668 O   0  0  0  0  0  0
  -24.6088  -31.8703   23.2109 C   0  0  0  0  0  0
  -25.8987  -32.4839   23.8410 C   0  0  1  0  0  0
  -27.2627  -27.4769   20.1016 C   0  0  0  0  0  0
  -25.5844  -33.8623   24.2345 N   0  0  0  0  0  0
  -23.3978  -30.4892   21.5473 C   0  0  2  0  0  0
  -24.8545  -28.9447   20.1295 C   0  0  0  0  0  0
  -22.7367  -29.4684   22.4995 C   0  0  0  0  0  0
  -18.0270  -28.1368   22.8491 C   0  0  0  0  0  0
  -24.1480  -36.7317   23.2638 C   0  0  0  0  0  0
  -25.9214  -30.8494   21.3558 C   0  0  0  0  0  0
  -26.0101  -29.4804   20.7161 C   0  0  0  0  0  0
  -27.2176  -28.7522   20.7045 C   0  0  0  0  0  0
  -26.0968  -26.9441   19.5192 C   0  0  0  0  0  0
  -24.8898  -27.6696   19.5368 C   0  0  0  0  0  0
  -23.6108  -29.8050   20.1687 C   0  0  0  0  0  0
  -25.4101  -36.3124   24.0348 C   0  0  1  0  0  0
  -20.5851  -28.3650   23.1311 C   0  0  2  0  0  0
  -20.6754  -26.9391   22.5391 C   0  0  0  0  0  0
  -19.5733  -26.6386   21.5179 C   0  0  0  0  0  0
  -18.1916  -26.7926   22.1608 C   0  0  0  0  0  0
  -19.1513  -28.8834   23.2907 C   0  0  0  0  0  0
  -18.9454  -30.1449   23.8901 C   0  0  0  0  0  0
  -17.6448  -30.6576   24.0578 C   0  0  0  0  0  0
  -25.9010  -34.9483   23.5156 C   0  0  0  0  0  0
  -16.5338  -29.9070   23.6335 C   0  0  0  0  0  0
  -16.7261  -28.6497   23.0336 C   0  0  0  0  0  0
  -26.4447  -31.6587   25.0704 C   0  0  0  0  0  0
  -25.3743  -31.3680   26.1475 C   0  0  0  0  0  0
  -27.0272  -30.3042   24.6015 C   0  0  0  0  0  0
  -27.6049  -32.4286   25.7452 C   0  0  0  0  0  0
  -27.5590  -37.1812   24.8465 C   0  0  0  0  0  0
  -21.4093  -29.3029   22.3733 N   0  0  0  0  0  0
  -26.4295  -37.3788   23.9415 N   0  0  0  0  0  0
  -24.6609  -31.0830   22.0982 N   0  0  0  0  0  0
  -23.4139  -28.8235   23.3042 O   0  0  0  0  0  0
  -28.4309  -26.7626   20.0517 O   0  0  0  0  0  0
  -26.5567  -34.8929   22.4708 O   0  0  0  0  0  0
  -23.5292  -32.1423   23.7522 O   0  0  0  0  0  0
  -27.4418  -18.4954   20.9487 C   0  0  0  0  0  0
  -27.2865  -20.8201   21.5718 C   0  0  0  0  0  0
  -26.6550  -19.5775   21.3779 C   0  0  0  0  0  0
  -28.8179  -18.6775   20.7450 C   0  0  0  0  0  0
  -28.6728  -20.9300   21.3426 C   0  0  0  0  0  0
  -24.5549  -19.6649   22.9349 C   0  0  0  0  0  0
  -24.6560  -18.2459   22.4247 C   0  0  0  0  0  0
  -30.5416  -17.8270   19.0504 C   0  0  0  0  0  0
  -31.7896  -18.6741   19.4016 C   0  0  0  0  0  0
  -31.9874  -17.2603   21.4243 C   0  0  0  0  0  0
  -25.1848  -19.3938   21.5927 C   0  0  0  0  0  0
  -29.6667  -17.4852   20.2728 C   0  0  1  0  0  0
  -30.4934  -16.8068   21.4104 C   0  0  1  0  0  0
  -28.7999  -24.4570   20.7119 C   0  0  0  0  0  0
  -28.8336  -23.4256   21.8633 C   0  0  0  0  0  0
  -28.6609  -25.9225   21.1817 C   0  0  0  0  0  0
  -29.4282  -19.8702   20.9741 N   0  0  0  0  0  0
  -29.3836  -22.1329   21.4422 N   0  0  0  0  0  0
  -30.2700  -15.3371   21.4481 N   0  0  0  0  0  0
  -32.1434  -18.6087   20.8411 N   0  3  0  0  0  0
  -31.4637  -12.3174   19.1499 H   0  0  0  0  0  0
  -30.2542  -11.2684   19.8135 H   0  0  0  0  0  0
  -29.7422  -11.8197   17.4166 H   0  0  0  0  0  0
  -29.6869  -13.5195   17.8112 H   0  0  0  0  0  0
  -27.8291  -11.3261   18.8100 H   0  0  0  0  0  0
  -27.3721  -12.6587   17.7894 H   0  0  0  0  0  0
  -27.7134  -14.2661   19.5855 H   0  0  0  0  0  0
  -28.6624  -11.9734   21.3765 H   0  0  0  0  0  0
  -28.4656  -13.6217   21.8721 H   0  0  0  0  0  0
  -25.2773   -9.5711   22.4738 H   0  0  0  0  0  0
  -24.0032   -7.4642   22.7469 H   0  0  0  0  0  0
  -21.0838   -8.8747   19.8968 H   0  0  0  0  0  0
  -22.3678  -10.9655   19.6167 H   0  0  0  0  0  0
  -21.2018   -7.6141   23.9727 H   0  0  0  0  0  0
  -21.1494   -6.0515   25.9083 H   0  0  0  0  0  0
  -22.0600   -2.7610   23.2838 H   0  0  0  0  0  0
  -22.4101  -11.9940   22.4818 H   0  0  0  0  0  0
  -21.1099  -13.1303   22.2587 H   0  0  0  0  0  0
  -24.6331  -15.8192   20.4277 H   0  0  0  0  0  0
  -26.2402  -15.5941   19.9558 H   0  0  0  0  0  0
  -26.7073  -32.5569   23.1212 H   0  0  0  0  0  0
  -25.0049  -33.9820   25.0527 H   0  0  0  0  0  0
  -22.6847  -31.3028   21.3986 H   0  0  0  0  0  0
  -23.3733  -35.9658   23.3316 H   0  0  0  0  0  0
  -24.3585  -36.8880   22.2045 H   0  0  0  0  0  0
  -23.7244  -37.6544   23.6618 H   0  0  0  0  0  0
  -26.0144  -31.6088   20.5770 H   0  0  0  0  0  0
  -26.8157  -30.9213   21.9622 H   0  0  0  0  0  0
  -28.1131  -29.1730   21.1443 H   0  0  0  0  0  0
  -26.1320  -25.9685   19.0555 H   0  0  0  0  0  0
  -24.0018  -27.2381   19.0930 H   0  0  0  0  0  0
  -23.7216  -30.5699   19.3988 H   0  0  0  0  0  0
  -22.7390  -29.2164   19.8774 H   0  0  0  0  0  0
  -25.1283  -36.2002   25.0846 H   0  0  0  0  0  0
  -20.9992  -28.3201   24.1408 H   0  0  0  0  0  0
  -20.5616  -26.2260   23.3568 H   0  0  0  0  0  0
  -21.6645  -26.7413   22.1217 H   0  0  0  0  0  0
  -19.6876  -25.6295   21.1206 H   0  0  0  0  0  0
  -19.6673  -27.3211   20.6724 H   0  0  0  0  0  0
  -17.4191  -26.6678   21.4007 H   0  0  0  0  0  0
  -18.0339  -26.0042   22.8998 H   0  0  0  0  0  0
  -19.7922  -30.7285   24.2242 H   0  0  0  0  0  0
  -17.4999  -31.6253   24.5189 H   0  0  0  0  0  0
  -15.5343  -30.2974   23.7672 H   0  0  0  0  0  0
  -15.8658  -28.0842   22.7009 H   0  0  0  0  0  0
  -24.5910  -30.7018   25.7847 H   0  0  0  0  0  0
  -24.8944  -32.2831   26.4953 H   0  0  0  0  0  0
  -25.8132  -30.8854   27.0212 H   0  0  0  0  0  0
  -26.2803  -29.6788   24.1115 H   0  0  0  0  0  0
  -27.4136  -29.7278   25.4429 H   0  0  0  0  0  0
  -27.8584  -30.4396   23.9085 H   0  0  0  0  0  0
  -27.2700  -33.3580   26.2076 H   0  0  0  0  0  0
  -28.3838  -32.6839   25.0254 H   0  0  0  0  0  0
  -28.0731  -31.8355   26.5317 H   0  0  0  0  0  0
  -28.2635  -38.0090   24.7530 H   0  0  0  0  0  0
  -28.1069  -36.2634   24.6288 H   0  0  0  0  0  0
  -27.2310  -37.1452   25.8866 H   0  0  0  0  0  0
  -20.9225  -29.8752   21.6973 H   0  0  0  0  0  0
  -26.0185  -38.2875   24.1398 H   0  0  0  0  0  0
  -26.9833  -17.5314   20.7781 H   0  0  0  0  0  0
  -26.6865  -21.6625   21.8759 H   0  0  0  0  0  0
  -25.2162  -19.9587   23.7477 H   0  0  0  0  0  0
  -23.5712  -20.1321   22.9343 H   0  0  0  0  0  0
  -23.7342  -17.7643   22.1037 H   0  0  0  0  0  0
  -25.3801  -17.5891   22.9045 H   0  0  0  0  0  0
  -30.8767  -16.8873   18.6096 H   0  0  0  0  0  0
  -29.9478  -18.3184   18.2785 H   0  0  0  0  0  0
  -31.6243  -19.7183   19.1374 H   0  0  0  0  0  0
  -32.6353  -18.3433   18.7969 H   0  0  0  0  0  0
  -32.6670  -16.6037   20.8883 H   0  0  0  0  0  0
  -32.3495  -17.2850   22.4527 H   0  0  0  0  0  0
  -24.6233  -19.6656   20.7006 H   0  0  0  0  0  0
  -28.9392  -16.7567   19.9095 H   0  0  0  0  0  0
  -30.0660  -17.1597   22.3504 H   0  0  0  0  0  0
  -27.9851  -24.2084   20.0298 H   0  0  0  0  0  0
  -29.7203  -24.3863   20.1287 H   0  0  0  0  0  0
  -27.8458  -23.3361   22.3129 H   0  0  0  0  0  0
  -29.4794  -23.8011   22.6588 H   0  0  0  0  0  0
  -29.5884  -26.2470   21.6591 H   0  0  0  0  0  0
  -27.8781  -26.0201   21.9370 H   0  0  0  0  0  0
  -30.3500  -22.1239   21.1421 H   0  0  0  0  0  0
  -29.5056  -15.0202   22.0278 H   0  0  0  0  0  0
  -31.5268  -19.2465   21.3277 H   0  0  0  0  0  0
  -33.0885  -18.9375   20.9586 H   0  0  0  0  0  0
  1 25  1  0  0  0
  1 30  2  0  0  0
  1 89  1  0  0  0
  2  3  1  0  0  0
  2 25  1  0  0  0
  2 91  1  0  0  0
  2 92  1  0  0  0
  3  4  1  0  0  0
  3 93  1  0  0  0
  3 94  1  0  0  0
  4  5  1  0  0  0
  4 95  1  0  0  0
  4 96  1  0  0  0
  5  6  1  0  0  0
  5 26  1  0  0  0
  5 97  1  0  0  0
  6 25  1  0  0  0
  6 98  1  0  0  0
  6 99  1  0  0  0
  7  8  2  0  0  0
  7 26  1  0  0  0
  7 29  1  0  0  0
  8  9  1  0  0  0
  8 22  1  0  0  0
  9 10  1  0  0  0
  9 27  2  0  0  0
 10 11  2  0  0  0
 10 15  1  0  0  0
 11 12  1  0  0  0
 11100  1  0  0  0
 12 13  2  0  0  0
 12101  1  0  0  0
 13 14  1  0  0  0
 13 31  1  0  0  0
 14 15  2  0  0  0
 14102  1  0  0  0
 15103  1  0  0  0
 16 17  2  0  0  0
 16 21  1  0  0  0
 16 31  1  0  0  0
 17 18  1  0  0  0
 17104  1  0  0  0
 18 19  2  0  0  0
 18105  1  0  0  0
 19 20  1  0  0  0
 19 24  1  0  0  0
 20 21  2  0  0  0
 20106  1  0  0  0
 21 23  1  0  0  0
 22 28  1  0  0  0
 22 32  2  0  0  0
 26 27  1  0  0  0
 28107  1  0  0  0
 28108  1  0  0  0
 29109  1  0  0  0
 29110  1  0  0  0
 33 34  1  0  0  0
 33 66  1  0  0  0
 33 70  2  0  0  0
 34 36  1  0  0  0
 34 59  1  0  0  0
 34111  1  0  0  0
 35 44  2  0  0  0
 35 45  1  0  0  0
 35 68  1  0  0  0
 36 56  1  0  0  0
 36112  1  0  0  0
 37 39  1  0  0  0
 37 47  1  0  0  0
 37 66  1  0  0  0
 37113  1  0  0  0
 38 43  2  0  0  0
 38 46  1  0  0  0
 38 47  1  0  0  0
 39 64  1  0  0  0
 39 67  2  0  0  0
 40 52  1  0  0  0
 40 53  2  0  0  0
 40 58  1  0  0  0
 41114  1  0  0  0
 41115  1  0  0  0
 41116  1  0  0  0
 41 48  1  0  0  0
 42 43  1  0  0  0
 42 66  1  0  0  0
 42117  1  0  0  0
 42118  1  0  0  0
 43 44  1  0  0  0
 44119  1  0  0  0
 45 46  2  0  0  0
 45120  1  0  0  0
 46121  1  0  0  0
 47122  1  0  0  0
 47123  1  0  0  0
 48 56  1  0  0  0
 48 65  1  0  0  0
 48124  1  0  0  0
 49 50  1  0  0  0
 49 53  1  0  0  0
 49 64  1  0  0  0
 49125  1  0  0  0
 50 51  1  0  0  0
 50126  1  0  0  0
 50127  1  0  0  0
 51 52  1  0  0  0
 51128  1  0  0  0
 51129  1  0  0  0
 52130  1  0  0  0
 52131  1  0  0  0
 53 54  1  0  0  0
 54 55  2  0  0  0
 54132  1  0  0  0
 55 57  1  0  0  0
 55133  1  0  0  0
 56 69  2  0  0  0
 57 58  2  0  0  0
 57134  1  0  0  0
 58135  1  0  0  0
 59 60  1  0  0  0
 59 61  1  0  0  0
 59 62  1  0  0  0
 60136  1  0  0  0
 60137  1  0  0  0
 60138  1  0  0  0
 61139  1  0  0  0
 61140  1  0  0  0
 61141  1  0  0  0
 62142  1  0  0  0
 62143  1  0  0  0
 62144  1  0  0  0
 63 65  1  0  0  0
 63145  1  0  0  0
 63146  1  0  0  0
 63147  1  0  0  0
 64148  1  0  0  0
 65149  1  0  0  0
 68 86  1  0  0  0
 71 73  2  0  0  0
 71 74  1  0  0  0
 71150  1  0  0  0
 72 73  1  0  0  0
 72 75  2  0  0  0
 72151  1  0  0  0
 73 81  1  0  0  0
 74 87  2  0  0  0
 74 82  1  0  0  0
 75 87  1  0  0  0
 75 88  1  0  0  0
 76 77  1  0  0  0
 76 81  1  0  0  0
 76152  1  0  0  0
 76153  1  0  0  0
 77 81  1  0  0  0
 77154  1  0  0  0
 77155  1  0  0  0
 78 79  1  0  0  0
 78 82  1  0  0  0
 78156  1  0  0  0
 78157  1  0  0  0
 79 90  1  0  0  0
 79158  1  0  0  0
 79159  1  0  0  0
 80 83  1  0  0  0
 80 90  1  0  0  0
 80160  1  0  0  0
 80161  1  0  0  0
 81162  1  0  0  0
 82 83  1  0  0  0
 82163  1  0  0  0
 83 89  1  0  0  0
 83164  1  0  0  0
 84 85  1  0  0  0
 84 86  1  0  0  0
 84165  1  0  0  0
 84166  1  0  0  0
 85 88  1  0  0  0
 85167  1  0  0  0
 85168  1  0  0  0
 86169  1  0  0  0
 86170  1  0  0  0
 88171  1  0  0  0
 89172  1  0  0  0
 90173  1  0  0  0
 90174  1  0  0  0
M  CHG  1  90   1
M  ISO  4   1 100  68 101  86 101  89 100
M  END
> <chiral flag>
0

> <version>
0

> <s_m_source_file>
/data/baiqing/PycharmProjects/Reinvent-master-3.2/result/LINK_invent/BTK/process_docking_weight1_custom_sum_contain_oxygen_bond_distance_aromatic_linkinvent_7_9_3/rearranged_h_0124.sdf

> <i_m_source_file_index>
46

> <r_mmod_Potential_Energy-OPLS-2005>
-470.481781005859

> <r_mmod_Stretch_Energy-OPLS-2005>
39.4599914550781

> <r_mmod_Bend_Energy-OPLS-2005>
120.09294128418

> <r_mmod_Torsional_Energy-OPLS-2005>
304.446716308594

> <r_mmod_Improper_Torsional_Energy-OPLS-2005>
3.80445456504822

> <r_mmod_Van_der_Waal_Energy-OPLS-2005>
154.667556762695

> <r_mmod_Electrostatic_Energy-OPLS-2005>
-670.06396484375

> <r_mmod_Solvation_Energy-OPLS-2005>
-431.409332275391

> <b_mmod_Minimization_Converged-OPLS-2005>
0

> <r_mmod_RMS_Derivative-OPLS-2005>
4.19882440567017

$$$$
46
                    3D
 Structure written by MMmdl.
158167  0  0  1  0            999 V2000
  -30.4793  -14.9559   20.3926 C   0  0  0  0  0  0
  -30.4502  -12.5877   19.4748 C   0  0  0  0  0  0
  -29.5131  -12.5087   18.2447 C   0  0  0  0  0  0
  -28.0505  -12.2843   18.6783 C   0  0  0  0  0  0
  -27.6285  -13.2222   19.8388 C   0  0  2  0  0  0
  -28.6806  -13.2332   20.9687 C   0  0  0  0  0  0
  -25.2492  -13.7940   20.5931 C   0  0  0  0  0  0
  -24.1747  -13.0231   20.9277 C   0  0  0  0  0  0
  -24.6343  -11.6748   20.8732 C   0  0  0  0  0  0
  -23.9013  -10.4182   21.0377 C   0  0  0  0  0  0
  -24.3589   -9.4134   21.9161 C   0  0  0  0  0  0
  -23.6267   -8.2176   22.0749 C   0  0  0  0  0  0
  -22.4254   -8.0218   21.3537 C   0  0  0  0  0  0
  -21.9861   -9.0180   20.4636 C   0  0  0  0  0  0
  -22.7181  -10.2048   20.3035 C   0  0  0  0  0  0
  -21.6833   -6.0703   22.5284 C   0  0  0  0  0  0
  -21.3975   -6.5623   23.8201 C   0  0  0  0  0  0
  -21.3661   -5.6787   24.9171 C   0  0  0  0  0  0
  -21.6065   -4.3047   24.7240 C   0  0  0  0  0  0
  -21.8831   -3.8124   23.4359 C   0  0  0  0  0  0
  -21.9172   -4.6930   22.3408 C   0  0  0  0  0  0
  -22.7784  -13.5067   21.1918 C   0  0  0  0  0  0
  -22.1658   -4.2122   21.0989 F   0  0  0  0  0  0
  -21.5652   -3.4532   25.7749 F   0  0  0  0  0  0
  -29.9454  -13.6708   20.3633 N   0  0  0  0  0  0
  -26.2886  -12.9212   20.3305 N   0  0  0  0  0  0
  -25.9283  -11.6360   20.5714 N   0  0  0  0  0  0
  -22.0396  -12.8104   22.0455 N   0  0  0  0  0  0
  -25.4198  -15.1592   20.4841 N   0  0  0  0  0  0
  -31.6890  -15.0755   20.1597 O   0  0  0  0  0  0
  -21.6604   -6.8839   21.4246 O   0  0  0  0  0  0
  -22.3518  -14.5392   20.6740 O   0  0  0  0  0  0
  -24.6419  -31.8470   23.1887 C   0  0  0  0  0  0
  -25.9203  -32.4705   23.8264 C   0  0  1  0  0  0
  -27.2197  -27.1620   20.1589 C   0  0  0  0  0  0
  -25.5988  -33.8495   24.2220 N   0  0  0  0  0  0
  -23.4420  -30.4650   21.5369 C   0  0  2  0  0  0
  -24.8899  -28.8905   20.1122 C   0  0  0  0  0  0
  -22.7576  -29.4516   22.4883 C   0  0  0  0  0  0
  -18.0317  -28.1331   22.8493 C   0  0  0  0  0  0
  -24.1467  -36.7193   23.2647 C   0  0  0  0  0  0
  -25.9948  -30.7299   21.3800 C   0  0  0  0  0  0
  -26.0669  -29.3419   20.7230 C   0  0  0  0  0  0
  -27.2365  -28.4986   20.7213 C   0  0  0  0  0  0
  -26.0191  -26.8001   19.5166 C   0  0  0  0  0  0
  -24.8773  -27.6331   19.4874 C   0  0  0  0  0  0
  -23.6691  -29.7958   20.1548 C   0  0  0  0  0  0
  -25.4100  -36.3010   24.0351 C   0  0  1  0  0  0
  -20.5933  -28.3621   23.1262 C   0  0  2  0  0  0
  -20.6761  -26.9329   22.5411 C   0  0  0  0  0  0
  -19.5735  -26.6335   21.5205 C   0  0  0  0  0  0
  -18.1928  -26.7871   22.1616 C   0  0  0  0  0  0
  -19.1582  -28.8806   23.2854 C   0  0  0  0  0  0
  -18.9487  -30.1426   23.8832 C   0  0  0  0  0  0
  -17.6481  -30.6533   24.0555 C   0  0  0  0  0  0
  -25.9079  -34.9405   23.5080 C   0  0  0  0  0  0
  -16.5371  -29.9025   23.6331 C   0  0  0  0  0  0
  -16.7309  -28.6451   23.0349 C   0  0  0  0  0  0
  -26.4534  -31.6549   25.0679 C   0  0  0  0  0  0
  -25.3740  -31.3796   26.1416 C   0  0  0  0  0  0
  -27.0381  -30.2947   24.6218 C   0  0  0  0  0  0
  -27.6090  -32.4302   25.7412 C   0  0  0  0  0  0
  -27.5566  -37.1747   24.8473 C   0  0  0  0  0  0
  -21.4278  -29.2974   22.3653 N   0  0  0  0  0  0
  -26.4241  -37.3751   23.9471 N   0  0  0  0  0  0
  -24.7124  -31.0350   22.0902 N   0  0  0  0  0  0
  -23.4250  -28.8065   23.3001 O   0  0  0  0  0  0
  -28.2912  -26.2055   20.1672 O   0  0  0  0  0  0
  -26.5632  -34.8902   22.4647 O   0  0  0  0  0  0
  -23.5558  -32.1323   23.7143 O   0  0  0  0  0  0
  -30.5295  -18.4600   20.9881 C   0  0  0  0  0  0
  -30.3920  -19.9064   21.0733 C   0  0  0  0  0  0
  -28.4446  -19.8482   19.7689 C   0  0  0  0  0  0
  -28.5106  -18.3877   19.7455 C   0  0  0  0  0  0
  -29.5841  -17.5978   20.3451 C   0  0  0  0  0  0
  -29.3446  -20.6950   20.4794 C   0  0  0  0  0  0
  -25.3961  -17.6669   18.1513 C   0  0  0  0  0  0
  -25.8685  -18.1800   19.5158 C   0  0  0  0  0  0
  -26.8368  -17.9060   17.6707 C   0  0  0  0  0  0
  -27.2891  -17.7027   19.1305 C   0  0  0  0  0  0
  -28.0737  -24.7277   20.5928 C   0  0  0  0  0  0
  -28.6765  -23.2998   19.9298 C   0  0  0  0  0  0
  -29.5789  -16.0589   20.4334 N   0  0  0  0  0  0
  -29.2059  -22.1245   20.7671 O   0  0  0  0  0  0
  -31.4750  -12.7804   19.1490 H   0  0  0  0  0  0
  -30.4787  -11.6338   20.0035 H   0  0  0  0  0  0
  -29.8311  -11.7057   17.5775 H   0  0  0  0  0  0
  -29.5859  -13.4318   17.6699 H   0  0  0  0  0  0
  -27.9636  -11.2467   19.0029 H   0  0  0  0  0  0
  -27.3740  -12.3918   17.8305 H   0  0  0  0  0  0
  -27.5859  -14.2207   19.4053 H   0  0  0  0  0  0
  -28.7886  -12.2424   21.4134 H   0  0  0  0  0  0
  -28.3861  -13.9049   21.7763 H   0  0  0  0  0  0
  -25.2744   -9.5610   22.4711 H   0  0  0  0  0  0
  -23.9964   -7.4564   22.7474 H   0  0  0  0  0  0
  -21.0772   -8.8686   19.8961 H   0  0  0  0  0  0
  -22.3630  -10.9587   19.6143 H   0  0  0  0  0  0
  -21.1949   -7.6136   23.9685 H   0  0  0  0  0  0
  -21.1490   -6.0528   25.9073 H   0  0  0  0  0  0
  -22.0613   -2.7586   23.2851 H   0  0  0  0  0  0
  -22.3926  -11.9730   22.4843 H   0  0  0  0  0  0
  -21.1019  -13.1205   22.2657 H   0  0  0  0  0  0
  -24.6561  -15.8057   20.6490 H   0  0  0  0  0  0
  -26.2939  -15.6173   20.2834 H   0  0  0  0  0  0
  -26.7254  -32.5291   23.0980 H   0  0  0  0  0  0
  -25.0219  -33.9589   25.0427 H   0  0  0  0  0  0
  -22.7454  -31.2923   21.3865 H   0  0  0  0  0  0
  -23.3780  -35.9460   23.3245 H   0  0  0  0  0  0
  -24.3590  -36.8873   22.2074 H   0  0  0  0  0  0
  -23.7110  -37.6334   23.6699 H   0  0  0  0  0  0
  -26.1608  -31.4894   20.6145 H   0  0  0  0  0  0
  -26.8609  -30.7700   22.0267 H   0  0  0  0  0  0
  -28.1359  -28.8577   21.2002 H   0  0  0  0  0  0
  -25.9544  -25.8351   19.0361 H   0  0  0  0  0  0
  -23.9829  -27.2870   18.9850 H   0  0  0  0  0  0
  -23.8118  -30.5739   19.4036 H   0  0  0  0  0  0
  -22.7803  -29.2454   19.8418 H   0  0  0  0  0  0
  -25.1278  -36.1818   25.0840 H   0  0  0  0  0  0
  -21.0037  -28.3144   24.1374 H   0  0  0  0  0  0
  -20.5530  -26.2260   23.3639 H   0  0  0  0  0  0
  -21.6637  -26.7255   22.1264 H   0  0  0  0  0  0
  -19.6862  -25.6247   21.1215 H   0  0  0  0  0  0
  -19.6631  -27.3164   20.6756 H   0  0  0  0  0  0
  -17.4201  -26.6678   21.4007 H   0  0  0  0  0  0
  -18.0272  -25.9995   22.8991 H   0  0  0  0  0  0
  -19.7980  -30.7293   24.2092 H   0  0  0  0  0  0
  -17.5036  -31.6184   24.5209 H   0  0  0  0  0  0
  -15.5352  -30.2906   23.7656 H   0  0  0  0  0  0
  -15.8741  -28.0769   22.7020 H   0  0  0  0  0  0
  -24.5869  -30.7184   25.7794 H   0  0  0  0  0  0
  -24.8971  -32.3006   26.4781 H   0  0  0  0  0  0
  -25.8042  -30.9020   27.0228 H   0  0  0  0  0  0
  -26.2987  -29.6655   24.1253 H   0  0  0  0  0  0
  -27.4081  -29.7260   25.4752 H   0  0  0  0  0  0
  -27.8862  -30.4225   23.9493 H   0  0  0  0  0  0
  -27.2761  -33.3706   26.1821 H   0  0  0  0  0  0
  -28.3959  -32.6689   25.0246 H   0  0  0  0  0  0
  -28.0663  -31.8500   26.5433 H   0  0  0  0  0  0
  -28.2585  -38.0054   24.7599 H   0  0  0  0  0  0
  -28.1077  -36.2609   24.6194 H   0  0  0  0  0  0
  -27.2342  -37.1271   25.8890 H   0  0  0  0  0  0
  -20.9460  -29.8793   21.6958 H   0  0  0  0  0  0
  -26.0104  -38.2808   24.1526 H   0  0  0  0  0  0
  -31.3557  -18.0048   21.5148 H   0  0  0  0  0  0
  -31.1295  -20.4302   21.6617 H   0  0  0  0  0  0
  -27.6079  -20.3375   19.2942 H   0  0  0  0  0  0
  -24.6281  -18.2724   17.6671 H   0  0  0  0  0  0
  -25.1181  -16.6107   18.1579 H   0  0  0  0  0  0
  -25.4343  -17.7142   20.3983 H   0  0  0  0  0  0
  -25.7533  -19.2617   19.5856 H   0  0  0  0  0  0
  -26.9793  -18.9243   17.3037 H   0  0  0  0  0  0
  -27.2147  -17.1686   16.9598 H   0  0  0  0  0  0
  -27.3692  -16.6303   19.3037 H   0  0  0  0  0  0
  -28.4321  -24.7222   21.6228 H   0  0  0  0  0  0
  -27.0002  -24.5742   20.7181 H   0  0  0  0  0  0
  -29.5213  -23.5897   19.3038 H   0  0  0  0  0  0
  -27.9348  -22.9166   19.2278 H   0  0  0  0  0  0
  -28.6410  -15.6977   20.4797 H   0  0  0  0  0  0
  1 25  1  0  0  0
  1 30  2  0  0  0
  1 83  1  0  0  0
  2  3  1  0  0  0
  2 25  1  0  0  0
  2 85  1  0  0  0
  2 86  1  0  0  0
  3  4  1  0  0  0
  3 87  1  0  0  0
  3 88  1  0  0  0
  4  5  1  0  0  0
  4 89  1  0  0  0
  4 90  1  0  0  0
  5  6  1  0  0  0
  5 26  1  0  0  0
  5 91  1  0  0  0
  6 25  1  0  0  0
  6 92  1  0  0  0
  6 93  1  0  0  0
  7  8  2  0  0  0
  7 26  1  0  0  0
  7 29  1  0  0  0
  8  9  1  0  0  0
  8 22  1  0  0  0
  9 10  1  0  0  0
  9 27  2  0  0  0
 10 11  2  0  0  0
 10 15  1  0  0  0
 11 12  1  0  0  0
 11 94  1  0  0  0
 12 13  2  0  0  0
 12 95  1  0  0  0
 13 14  1  0  0  0
 13 31  1  0  0  0
 14 15  2  0  0  0
 14 96  1  0  0  0
 15 97  1  0  0  0
 16 17  2  0  0  0
 16 21  1  0  0  0
 16 31  1  0  0  0
 17 18  1  0  0  0
 17 98  1  0  0  0
 18 19  2  0  0  0
 18 99  1  0  0  0
 19 20  1  0  0  0
 19 24  1  0  0  0
 20 21  2  0  0  0
 20100  1  0  0  0
 21 23  1  0  0  0
 22 28  1  0  0  0
 22 32  2  0  0  0
 26 27  1  0  0  0
 28101  1  0  0  0
 28102  1  0  0  0
 29103  1  0  0  0
 29104  1  0  0  0
 33 34  1  0  0  0
 33 66  1  0  0  0
 33 70  2  0  0  0
 34 36  1  0  0  0
 34 59  1  0  0  0
 34105  1  0  0  0
 35 44  2  0  0  0
 35 45  1  0  0  0
 35 68  1  0  0  0
 36 56  1  0  0  0
 36106  1  0  0  0
 37 39  1  0  0  0
 37 47  1  0  0  0
 37 66  1  0  0  0
 37107  1  0  0  0
 38 43  2  0  0  0
 38 46  1  0  0  0
 38 47  1  0  0  0
 39 64  1  0  0  0
 39 67  2  0  0  0
 40 52  1  0  0  0
 40 53  2  0  0  0
 40 58  1  0  0  0
 41108  1  0  0  0
 41109  1  0  0  0
 41110  1  0  0  0
 41 48  1  0  0  0
 42 43  1  0  0  0
 42 66  1  0  0  0
 42111  1  0  0  0
 42112  1  0  0  0
 43 44  1  0  0  0
 44113  1  0  0  0
 45 46  2  0  0  0
 45114  1  0  0  0
 46115  1  0  0  0
 47116  1  0  0  0
 47117  1  0  0  0
 48 56  1  0  0  0
 48 65  1  0  0  0
 48118  1  0  0  0
 49 50  1  0  0  0
 49 53  1  0  0  0
 49 64  1  0  0  0
 49119  1  0  0  0
 50 51  1  0  0  0
 50120  1  0  0  0
 50121  1  0  0  0
 51 52  1  0  0  0
 51122  1  0  0  0
 51123  1  0  0  0
 52124  1  0  0  0
 52125  1  0  0  0
 53 54  1  0  0  0
 54 55  2  0  0  0
 54126  1  0  0  0
 55 57  1  0  0  0
 55127  1  0  0  0
 56 69  2  0  0  0
 57 58  2  0  0  0
 57128  1  0  0  0
 58129  1  0  0  0
 59 60  1  0  0  0
 59 61  1  0  0  0
 59 62  1  0  0  0
 60130  1  0  0  0
 60131  1  0  0  0
 60132  1  0  0  0
 61133  1  0  0  0
 61134  1  0  0  0
 61135  1  0  0  0
 62136  1  0  0  0
 62137  1  0  0  0
 62138  1  0  0  0
 63 65  1  0  0  0
 63139  1  0  0  0
 63140  1  0  0  0
 63141  1  0  0  0
 64142  1  0  0  0
 65143  1  0  0  0
 68 81  1  0  0  0
 71 72  2  0  0  0
 71 75  1  0  0  0
 71144  1  0  0  0
 72 76  1  0  0  0
 72145  1  0  0  0
 73 74  1  0  0  0
 73 76  2  0  0  0
 73146  1  0  0  0
 74 75  2  0  0  0
 74 80  1  0  0  0
 75 83  1  0  0  0
 76 84  1  0  0  0
 77 78  1  0  0  0
 77 79  1  0  0  0
 77147  1  0  0  0
 77148  1  0  0  0
 78 80  1  0  0  0
 78149  1  0  0  0
 78150  1  0  0  0
 79 80  1  0  0  0
 79151  1  0  0  0
 79152  1  0  0  0
 80153  1  0  0  0
 81 82  1  0  0  0
 81154  1  0  0  0
 81155  1  0  0  0
 82 84  1  0  0  0
 82156  1  0  0  0
 82157  1  0  0  0
 83158  1  0  0  0
M  ISO  4   1 100  68 101  81 101  83 100
M  END
> <chiral flag>
0

> <version>
0

> <s_m_source_file>
/data/baiqing/PycharmProjects/Reinvent-master-3.2/result/LINK_invent/BTK/process_docking_weight1_custom_sum_contain_oxygen_bond_distance_aromatic_linkinvent_7_9_3/rearranged_h_0124.sdf

> <i_m_source_file_index>
47

> <r_mmod_Potential_Energy-OPLS-2005>
550.474792480469

> <r_mmod_Stretch_Energy-OPLS-2005>
226.032073974609

> <r_mmod_Bend_Energy-OPLS-2005>
299.289794921875

> <r_mmod_Torsional_Energy-OPLS-2005>
276.068725585938

> <r_mmod_Improper_Torsional_Energy-OPLS-2005>
7.53849601745605

> <r_mmod_Van_der_Waal_Energy-OPLS-2005>
130.931503295898

> <r_mmod_Electrostatic_Energy-OPLS-2005>
-367.637481689453

> <r_mmod_Solvation_Energy-OPLS-2005>
-209.004058837891

> <b_mmod_Minimization_Converged-OPLS-2005>
0

> <r_mmod_RMS_Derivative-OPLS-2005>
4.25869417190552

$$$$
47
                    3D
 Structure written by MMmdl.
172181  0  0  1  0            999 V2000
  -30.6519  -14.5162   20.5188 C   0  0  0  0  0  0
  -30.4284  -12.3156   19.4423 C   0  0  0  0  0  0
  -29.5035  -12.4953   18.2180 C   0  0  0  0  0  0
  -28.0217  -12.3546   18.6224 C   0  0  0  0  0  0
  -27.6576  -13.2040   19.8693 C   0  0  2  0  0  0
  -28.6964  -13.0071   20.9984 C   0  0  0  0  0  0
  -25.2574  -13.8146   20.5648 C   0  0  0  0  0  0
  -24.1834  -13.0433   20.9197 C   0  0  0  0  0  0
  -24.6377  -11.6901   20.8741 C   0  0  0  0  0  0
  -23.9037  -10.4291   21.0404 C   0  0  0  0  0  0
  -24.3595   -9.4208   21.9180 C   0  0  0  0  0  0
  -23.6284   -8.2237   22.0748 C   0  0  0  0  0  0
  -22.4268   -8.0266   21.3534 C   0  0  0  0  0  0
  -21.9893   -9.0241   20.4640 C   0  0  0  0  0  0
  -22.7215  -10.2127   20.3054 C   0  0  0  0  0  0
  -21.6849   -6.0725   22.5276 C   0  0  0  0  0  0
  -21.4012   -6.5633   23.8208 C   0  0  0  0  0  0
  -21.3659   -5.6787   24.9171 C   0  0  0  0  0  0
  -21.6046   -4.3047   24.7225 C   0  0  0  0  0  0
  -21.8821   -3.8137   23.4343 C   0  0  0  0  0  0
  -21.9194   -4.6954   22.3401 C   0  0  0  0  0  0
  -22.7857  -13.5240   21.1855 C   0  0  0  0  0  0
  -22.1663   -4.2137   21.0980 F   0  0  0  0  0  0
  -21.5631   -3.4535   25.7738 F   0  0  0  0  0  0
  -30.0258  -13.3114   20.4478 N   0  0  0  0  0  0
  -26.2991  -12.9304   20.3309 N   0  0  0  0  0  0
  -25.9295  -11.6473   20.5740 N   0  0  0  0  0  0
  -22.0486  -12.8245   22.0404 N   0  0  0  0  0  0
  -25.4301  -15.1853   20.3977 N   0  0  0  0  0  0
  -31.8118  -14.6922   20.1374 O   0  0  0  0  0  0
  -21.6632   -6.8865   21.4233 O   0  0  0  0  0  0
  -22.3554  -14.5548   20.6690 O   0  0  0  0  0  0
  -24.6153  -31.8669   23.2084 C   0  0  0  0  0  0
  -25.9044  -32.4815   23.8382 C   0  0  1  0  0  0
  -27.2319  -27.4242   20.1078 C   0  0  0  0  0  0
  -25.5905  -33.8612   24.2329 N   0  0  0  0  0  0
  -23.4029  -30.4898   21.5486 C   0  0  2  0  0  0
  -24.8498  -28.9492   20.1166 C   0  0  0  0  0  0
  -22.7406  -29.4659   22.4985 C   0  0  0  0  0  0
  -18.0267  -28.1376   22.8488 C   0  0  0  0  0  0
  -24.1488  -36.7305   23.2640 C   0  0  0  0  0  0
  -25.9313  -30.8315   21.3595 C   0  0  0  0  0  0
  -26.0099  -29.4635   20.7096 C   0  0  0  0  0  0
  -27.2074  -28.7111   20.6949 C   0  0  0  0  0  0
  -26.0571  -26.9212   19.5131 C   0  0  0  0  0  0
  -24.8686  -27.6781   19.5138 C   0  0  0  0  0  0
  -23.6118  -29.8177   20.1643 C   0  0  0  0  0  0
  -25.4107  -36.3106   24.0346 C   0  0  1  0  0  0
  -20.5859  -28.3662   23.1317 C   0  0  2  0  0  0
  -20.6757  -26.9400   22.5412 C   0  0  0  0  0  0
  -19.5741  -26.6385   21.5204 C   0  0  0  0  0  0
  -18.1918  -26.7922   22.1615 C   0  0  0  0  0  0
  -19.1516  -28.8832   23.2900 C   0  0  0  0  0  0
  -18.9447  -30.1437   23.8912 C   0  0  0  0  0  0
  -17.6451  -30.6584   24.0559 C   0  0  0  0  0  0
  -25.9035  -34.9472   23.5134 C   0  0  0  0  0  0
  -16.5339  -29.9083   23.6328 C   0  0  0  0  0  0
  -16.7258  -28.6497   23.0356 C   0  0  0  0  0  0
  -26.4478  -31.6591   25.0708 C   0  0  0  0  0  0
  -25.3755  -31.3695   26.1464 C   0  0  0  0  0  0
  -27.0298  -30.3033   24.6068 C   0  0  0  0  0  0
  -27.6068  -32.4296   25.7460 C   0  0  0  0  0  0
  -27.5582  -37.1802   24.8467 C   0  0  0  0  0  0
  -21.4133  -29.3033   22.3724 N   0  0  0  0  0  0
  -26.4293  -37.3792   23.9420 N   0  0  0  0  0  0
  -24.6681  -31.0769   22.0976 N   0  0  0  0  0  0
  -23.4178  -28.8210   23.3033 O   0  0  0  0  0  0
  -28.3958  -26.6873   20.0793 O   0  0  0  0  0  0
  -26.5586  -34.8929   22.4687 O   0  0  0  0  0  0
  -23.5346  -32.1416   23.7487 O   0  0  0  0  0  0
  -29.9109  -18.2765   18.0338 C   0  0  0  0  0  0
  -30.0898  -16.8973   18.6777 C   0  0  0  0  0  0
  -30.6166  -23.0966   20.3516 C   0  0  0  0  0  0
  -28.5435  -18.8622   18.4199 C   0  0  0  0  0  0
  -30.9431  -22.6222   18.9294 C   0  0  0  0  0  0
  -29.0973  -22.9148   20.4725 C   0  0  2  0  0  0
  -29.9628  -16.9386   20.2228 C   0  0  1  0  0  0
  -28.8800  -21.6145   19.6373 C   0  0  2  0  0  0
  -28.6855  -17.7843   20.5665 C   0  0  2  0  0  0
  -27.3046  -18.1220   22.4638 C   0  0  0  0  0  0
  -28.3337  -24.1719   19.9176 C   0  0  0  0  0  0
  -29.1998  -20.2552   20.3758 C   0  0  0  0  0  0
  -28.3947  -25.4457   20.8103 C   0  0  0  0  0  0
  -28.4740  -19.0608   19.8710 N   0  0  0  0  0  0
  -29.8284  -15.5613   20.7500 N   0  0  0  0  0  0
  -29.8065  -21.7842   18.4986 N   0  3  0  0  0  0
  -28.6175  -17.9139   21.9520 O   0  0  0  0  0  0
  -31.4741  -12.4232   19.1474 H   0  0  0  0  0  0
  -30.3353  -11.3088   19.8529 H   0  0  0  0  0  0
  -29.7517  -11.7629   17.4491 H   0  0  0  0  0  0
  -29.6690  -13.4765   17.7696 H   0  0  0  0  0  0
  -27.8331  -11.3000   18.8262 H   0  0  0  0  0  0
  -27.3750  -12.6196   17.7851 H   0  0  0  0  0  0
  -27.6917  -14.2457   19.5507 H   0  0  0  0  0  0
  -28.6757  -11.9785   21.3614 H   0  0  0  0  0  0
  -28.4608  -13.6311   21.8617 H   0  0  0  0  0  0
  -25.2736   -9.5690   22.4753 H   0  0  0  0  0  0
  -23.9996   -7.4626   22.7466 H   0  0  0  0  0  0
  -21.0821   -8.8752   19.8951 H   0  0  0  0  0  0
  -22.3662  -10.9660   19.6164 H   0  0  0  0  0  0
  -21.2002   -7.6142   23.9707 H   0  0  0  0  0  0
  -21.1482   -6.0516   25.9075 H   0  0  0  0  0  0
  -22.0603   -2.7598   23.2842 H   0  0  0  0  0  0
  -22.4083  -11.9903   22.4802 H   0  0  0  0  0  0
  -21.1100  -13.1275   22.2600 H   0  0  0  0  0  0
  -24.6462  -15.8256   20.4581 H   0  0  0  0  0  0
  -26.2430  -15.5919   19.9577 H   0  0  0  0  0  0
  -26.7112  -32.5534   23.1148 H   0  0  0  0  0  0
  -25.0096  -33.9769   25.0501 H   0  0  0  0  0  0
  -22.6919  -31.3068   21.4083 H   0  0  0  0  0  0
  -23.3756  -35.9630   23.3296 H   0  0  0  0  0  0
  -24.3592  -36.8916   22.2055 H   0  0  0  0  0  0
  -23.7226  -37.6507   23.6648 H   0  0  0  0  0  0
  -26.0420  -31.5969   20.5902 H   0  0  0  0  0  0
  -26.8200  -30.8872   21.9761 H   0  0  0  0  0  0
  -28.1078  -29.1097   21.1417 H   0  0  0  0  0  0
  -26.0633  -25.9499   19.0399 H   0  0  0  0  0  0
  -23.9774  -27.2780   19.0499 H   0  0  0  0  0  0
  -23.7192  -30.5907   19.4025 H   0  0  0  0  0  0
  -22.7354  -29.2366   19.8713 H   0  0  0  0  0  0
  -25.1280  -36.1971   25.0840 H   0  0  0  0  0  0
  -20.9948  -28.3222   24.1439 H   0  0  0  0  0  0
  -20.5652  -26.2271   23.3597 H   0  0  0  0  0  0
  -21.6632  -26.7439   22.1213 H   0  0  0  0  0  0
  -19.6905  -25.6298   21.1228 H   0  0  0  0  0  0
  -19.6692  -27.3198   20.6737 H   0  0  0  0  0  0
  -17.4193  -26.6667   21.4015 H   0  0  0  0  0  0
  -18.0326  -26.0060   22.9010 H   0  0  0  0  0  0
  -19.7926  -30.7235   24.2305 H   0  0  0  0  0  0
  -17.5016  -31.6272   24.5140 H   0  0  0  0  0  0
  -15.5343  -30.2993   23.7652 H   0  0  0  0  0  0
  -15.8656  -28.0821   22.7073 H   0  0  0  0  0  0
  -24.5919  -30.7052   25.7803 H   0  0  0  0  0  0
  -24.8964  -32.2852   26.4939 H   0  0  0  0  0  0
  -25.8122  -30.8843   27.0203 H   0  0  0  0  0  0
  -26.2820  -29.6790   24.1161 H   0  0  0  0  0  0
  -27.4114  -29.7276   25.4511 H   0  0  0  0  0  0
  -27.8646  -30.4353   23.9178 H   0  0  0  0  0  0
  -27.2709  -33.3600   26.2050 H   0  0  0  0  0  0
  -28.3874  -32.6835   25.0276 H   0  0  0  0  0  0
  -28.0738  -31.8403   26.5362 H   0  0  0  0  0  0
  -28.2599  -38.0098   24.7522 H   0  0  0  0  0  0
  -28.1076  -36.2633   24.6281 H   0  0  0  0  0  0
  -27.2307  -37.1436   25.8871 H   0  0  0  0  0  0
  -20.9290  -29.8758   21.6951 H   0  0  0  0  0  0
  -26.0184  -38.2873   24.1414 H   0  0  0  0  0  0
  -29.9710  -18.1760   16.9489 H   0  0  0  0  0  0
  -30.7284  -18.9361   18.3251 H   0  0  0  0  0  0
  -31.0582  -16.4936   18.3828 H   0  0  0  0  0  0
  -29.3391  -16.2226   18.2628 H   0  0  0  0  0  0
  -30.9606  -24.1144   20.5341 H   0  0  0  0  0  0
  -31.1226  -22.4543   21.0741 H   0  0  0  0  0  0
  -27.7616  -18.1579   18.1278 H   0  0  0  0  0  0
  -28.3176  -19.7669   17.8584 H   0  0  0  0  0  0
  -31.8788  -22.0627   18.9017 H   0  0  0  0  0  0
  -31.0423  -23.4667   18.2459 H   0  0  0  0  0  0
  -28.7984  -22.7555   21.5092 H   0  0  0  0  0  0
  -30.8341  -17.4280   20.6619 H   0  0  0  0  0  0
  -27.8463  -21.5854   19.2887 H   0  0  0  0  0  0
  -27.8341  -17.1598   20.2835 H   0  0  0  0  0  0
  -27.3453  -18.2054   23.5497 H   0  0  0  0  0  0
  -26.6451  -17.2869   22.2224 H   0  0  0  0  0  0
  -26.8571  -19.0390   22.0786 H   0  0  0  0  0  0
  -27.2841  -23.9213   19.7595 H   0  0  0  0  0  0
  -28.7206  -24.4256   18.9306 H   0  0  0  0  0  0
  -28.9106  -20.3740   21.4203 H   0  0  0  0  0  0
  -30.2742  -20.0672   20.3989 H   0  0  0  0  0  0
  -29.3193  -25.4435   21.3866 H   0  0  0  0  0  0
  -27.5973  -25.4213   21.5562 H   0  0  0  0  0  0
  -28.9199  -15.3233   21.1166 H   0  0  0  0  0  0
  -30.1201  -20.8952   18.1471 H   0  0  0  0  0  0
  -29.3278  -22.2649   17.7533 H   0  0  0  0  0  0
  1 25  1  0  0  0
  1 30  2  0  0  0
  1 85  1  0  0  0
  2  3  1  0  0  0
  2 25  1  0  0  0
  2 88  1  0  0  0
  2 89  1  0  0  0
  3  4  1  0  0  0
  3 90  1  0  0  0
  3 91  1  0  0  0
  4  5  1  0  0  0
  4 92  1  0  0  0
  4 93  1  0  0  0
  5  6  1  0  0  0
  5 26  1  0  0  0
  5 94  1  0  0  0
  6 25  1  0  0  0
  6 95  1  0  0  0
  6 96  1  0  0  0
  7  8  2  0  0  0
  7 26  1  0  0  0
  7 29  1  0  0  0
  8  9  1  0  0  0
  8 22  1  0  0  0
  9 10  1  0  0  0
  9 27  2  0  0  0
 10 11  2  0  0  0
 10 15  1  0  0  0
 11 12  1  0  0  0
 11 97  1  0  0  0
 12 13  2  0  0  0
 12 98  1  0  0  0
 13 14  1  0  0  0
 13 31  1  0  0  0
 14 15  2  0  0  0
 14 99  1  0  0  0
 15100  1  0  0  0
 16 17  2  0  0  0
 16 21  1  0  0  0
 16 31  1  0  0  0
 17 18  1  0  0  0
 17101  1  0  0  0
 18 19  2  0  0  0
 18102  1  0  0  0
 19 20  1  0  0  0
 19 24  1  0  0  0
 20 21  2  0  0  0
 20103  1  0  0  0
 21 23  1  0  0  0
 22 28  1  0  0  0
 22 32  2  0  0  0
 26 27  1  0  0  0
 28104  1  0  0  0
 28105  1  0  0  0
 29106  1  0  0  0
 29107  1  0  0  0
 33 34  1  0  0  0
 33 66  1  0  0  0
 33 70  2  0  0  0
 34 36  1  0  0  0
 34 59  1  0  0  0
 34108  1  0  0  0
 35 44  2  0  0  0
 35 45  1  0  0  0
 35 68  1  0  0  0
 36 56  1  0  0  0
 36109  1  0  0  0
 37 39  1  0  0  0
 37 47  1  0  0  0
 37 66  1  0  0  0
 37110  1  0  0  0
 38 43  2  0  0  0
 38 46  1  0  0  0
 38 47  1  0  0  0
 39 64  1  0  0  0
 39 67  2  0  0  0
 40 52  1  0  0  0
 40 53  2  0  0  0
 40 58  1  0  0  0
 41111  1  0  0  0
 41112  1  0  0  0
 41113  1  0  0  0
 41 48  1  0  0  0
 42 43  1  0  0  0
 42 66  1  0  0  0
 42114  1  0  0  0
 42115  1  0  0  0
 43 44  1  0  0  0
 44116  1  0  0  0
 45 46  2  0  0  0
 45117  1  0  0  0
 46118  1  0  0  0
 47119  1  0  0  0
 47120  1  0  0  0
 48 56  1  0  0  0
 48 65  1  0  0  0
 48121  1  0  0  0
 49 50  1  0  0  0
 49 53  1  0  0  0
 49 64  1  0  0  0
 49122  1  0  0  0
 50 51  1  0  0  0
 50123  1  0  0  0
 50124  1  0  0  0
 51 52  1  0  0  0
 51125  1  0  0  0
 51126  1  0  0  0
 52127  1  0  0  0
 52128  1  0  0  0
 53 54  1  0  0  0
 54 55  2  0  0  0
 54129  1  0  0  0
 55 57  1  0  0  0
 55130  1  0  0  0
 56 69  2  0  0  0
 57 58  2  0  0  0
 57131  1  0  0  0
 58132  1  0  0  0
 59 60  1  0  0  0
 59 61  1  0  0  0
 59 62  1  0  0  0
 60133  1  0  0  0
 60134  1  0  0  0
 60135  1  0  0  0
 61136  1  0  0  0
 61137  1  0  0  0
 61138  1  0  0  0
 62139  1  0  0  0
 62140  1  0  0  0
 62141  1  0  0  0
 63 65  1  0  0  0
 63142  1  0  0  0
 63143  1  0  0  0
 63144  1  0  0  0
 64145  1  0  0  0
 65146  1  0  0  0
 68 83  1  0  0  0
 71 72  1  0  0  0
 71 74  1  0  0  0
 71147  1  0  0  0
 71148  1  0  0  0
 72 77  1  0  0  0
 72149  1  0  0  0
 72150  1  0  0  0
 73 75  1  0  0  0
 73 76  1  0  0  0
 73151  1  0  0  0
 73152  1  0  0  0
 74 84  1  0  0  0
 74153  1  0  0  0
 74154  1  0  0  0
 75 86  1  0  0  0
 75155  1  0  0  0
 75156  1  0  0  0
 76 78  1  0  0  0
 76 81  1  0  0  0
 76157  1  0  0  0
 77 79  1  0  0  0
 77 85  1  0  0  0
 77158  1  0  0  0
 78 82  1  0  0  0
 78 86  1  0  0  0
 78159  1  0  0  0
 79 84  1  0  0  0
 79 87  1  0  0  0
 79160  1  0  0  0
 80 87  1  0  0  0
 80161  1  0  0  0
 80162  1  0  0  0
 80163  1  0  0  0
 81 83  1  0  0  0
 81164  1  0  0  0
 81165  1  0  0  0
 82 84  1  0  0  0
 82166  1  0  0  0
 82167  1  0  0  0
 83168  1  0  0  0
 83169  1  0  0  0
 85170  1  0  0  0
 86171  1  0  0  0
 86172  1  0  0  0
M  CHG  1  86   1
M  ISO  4   1 100  68 101  83 101  85 100
M  END
> <chiral flag>
0

> <version>
0

> <s_m_source_file>
/data/baiqing/PycharmProjects/Reinvent-master-3.2/result/LINK_invent/BTK/process_docking_weight1_custom_sum_contain_oxygen_bond_distance_aromatic_linkinvent_7_9_3/rearranged_h_0124.sdf

> <i_m_source_file_index>
48

> <r_mmod_Potential_Energy-OPLS-2005>
-127.945182800293

> <r_mmod_Stretch_Energy-OPLS-2005>
48.026065826416

> <r_mmod_Bend_Energy-OPLS-2005>
136.478271484375

> <r_mmod_Torsional_Energy-OPLS-2005>
370.451446533203

> <r_mmod_Improper_Torsional_Energy-OPLS-2005>
8.75912284851074

> <r_mmod_Van_der_Waal_Energy-OPLS-2005>
129.370895385742

> <r_mmod_Electrostatic_Energy-OPLS-2005>
-374.382965087891

> <r_mmod_Solvation_Energy-OPLS-2005>
-463.971618652344

> <b_mmod_Minimization_Converged-OPLS-2005>
0

> <r_mmod_RMS_Derivative-OPLS-2005>
1.16356325149536

$$$$
48
                    3D
 Structure written by MMmdl.
168177  0  0  1  0            999 V2000
  -30.5237  -14.8721   20.4179 C   0  0  0  0  0  0
  -30.4425  -12.5298   19.4703 C   0  0  0  0  0  0
  -29.5188  -12.5293   18.2311 C   0  0  0  0  0  0
  -28.0478  -12.3151   18.6451 C   0  0  0  0  0  0
  -27.6347  -13.2193   19.8351 C   0  0  2  0  0  0
  -28.6806  -13.1835   20.9721 C   0  0  0  0  0  0
  -25.2523  -13.8141   20.5649 C   0  0  0  0  0  0
  -24.1825  -13.0423   20.9231 C   0  0  0  0  0  0
  -24.6380  -11.6893   20.8700 C   0  0  0  0  0  0
  -23.9029  -10.4285   21.0359 C   0  0  0  0  0  0
  -24.3599   -9.4220   21.9170 C   0  0  0  0  0  0
  -23.6300   -8.2246   22.0762 C   0  0  0  0  0  0
  -22.4291   -8.0262   21.3532 C   0  0  0  0  0  0
  -21.9887   -9.0208   20.4618 C   0  0  0  0  0  0
  -22.7180  -10.2108   20.3027 C   0  0  0  0  0  0
  -21.6879   -6.0703   22.5260 C   0  0  0  0  0  0
  -21.4017   -6.5617   23.8183 C   0  0  0  0  0  0
  -21.3663   -5.6779   24.9149 C   0  0  0  0  0  0
  -21.6064   -4.3040   24.7212 C   0  0  0  0  0  0
  -21.8836   -3.8125   23.4335 C   0  0  0  0  0  0
  -21.9217   -4.6931   22.3385 C   0  0  0  0  0  0
  -22.7855  -13.5209   21.1863 C   0  0  0  0  0  0
  -22.1707   -4.2117   21.0966 F   0  0  0  0  0  0
  -21.5621   -3.4535   25.7732 F   0  0  0  0  0  0
  -29.9682  -13.5969   20.3920 N   0  0  0  0  0  0
  -26.2895  -12.9311   20.3171 N   0  0  0  0  0  0
  -25.9293  -11.6474   20.5652 N   0  0  0  0  0  0
  -22.0471  -12.8200   22.0404 N   0  0  0  0  0  0
  -25.4247  -15.1857   20.3982 N   0  0  0  0  0  0
  -31.7279  -14.9848   20.1319 O   0  0  0  0  0  0
  -21.6680   -6.8847   21.4220 O   0  0  0  0  0  0
  -22.3563  -14.5507   20.6671 O   0  0  0  0  0  0
  -24.6345  -31.8495   23.1876 C   0  0  0  0  0  0
  -25.9133  -32.4745   23.8283 C   0  0  1  0  0  0
  -27.2438  -27.1945   20.1407 C   0  0  0  0  0  0
  -25.5900  -33.8551   24.2216 N   0  0  0  0  0  0
  -23.4397  -30.4556   21.5380 C   0  0  2  0  0  0
  -24.8979  -28.8969   20.1079 C   0  0  0  0  0  0
  -22.7542  -29.4521   22.4977 C   0  0  0  0  0  0
  -18.0269  -28.1376   22.8451 C   0  0  0  0  0  0
  -24.1503  -36.7243   23.2640 C   0  0  0  0  0  0
  -25.9905  -30.7465   21.3776 C   0  0  0  0  0  0
  -26.0709  -29.3601   20.7171 C   0  0  0  0  0  0
  -27.2402  -28.5224   20.7179 C   0  0  0  0  0  0
  -26.0443  -26.8170   19.4975 C   0  0  0  0  0  0
  -24.8980  -27.6395   19.4821 C   0  0  0  0  0  0
  -23.6597  -29.7746   20.1612 C   0  0  0  0  0  0
  -25.4144  -36.3076   24.0321 C   0  0  1  0  0  0
  -20.5878  -28.3650   23.1301 C   0  0  2  0  0  0
  -20.6758  -26.9365   22.5423 C   0  0  0  0  0  0
  -19.5753  -26.6356   21.5213 C   0  0  0  0  0  0
  -18.1920  -26.7916   22.1609 C   0  0  0  0  0  0
  -19.1528  -28.8842   23.2846 C   0  0  0  0  0  0
  -18.9446  -30.1455   23.8831 C   0  0  0  0  0  0
  -17.6439  -30.6563   24.0537 C   0  0  0  0  0  0
  -25.9068  -34.9442   23.5082 C   0  0  0  0  0  0
  -16.5325  -29.9038   23.6357 C   0  0  0  0  0  0
  -16.7258  -28.6487   23.0329 C   0  0  0  0  0  0
  -26.4454  -31.6564   25.0669 C   0  0  0  0  0  0
  -25.3632  -31.3709   26.1340 C   0  0  0  0  0  0
  -27.0285  -30.2978   24.6177 C   0  0  0  0  0  0
  -27.6028  -32.4279   25.7421 C   0  0  0  0  0  0
  -27.5608  -37.1780   24.8466 C   0  0  0  0  0  0
  -21.4248  -29.2976   22.3712 N   0  0  0  0  0  0
  -26.4333  -37.3766   23.9383 N   0  0  0  0  0  0
  -24.7075  -31.0369   22.0897 N   0  0  0  0  0  0
  -23.4213  -28.8100   23.3128 O   0  0  0  0  0  0
  -28.3382  -26.2776   20.2579 O   0  0  0  0  0  0
  -26.5659  -34.8900   22.4669 O   0  0  0  0  0  0
  -23.5466  -32.1351   23.7101 O   0  0  0  0  0  0
  -28.5269  -18.1213   19.6842 C   0  0  0  0  0  0
  -29.3168  -20.4917   20.0980 C   0  0  0  0  0  0
  -28.3893  -19.5544   19.5356 C   0  0  0  0  0  0
  -30.3960  -19.8045   20.7706 C   0  0  0  0  0  0
  -29.6219  -17.4750   20.3510 C   0  0  0  0  0  0
  -26.6948  -20.8267   16.4636 C   0  0  0  0  0  0
  -27.4016  -20.8096   15.0907 C   0  0  0  0  0  0
  -28.8055  -19.7049   16.6506 C   0  0  0  0  0  0
  -27.4039  -19.7537   17.2982 C   0  0  1  0  0  0
  -31.5385  -20.5792   21.3991 C   0  0  0  0  0  0
  -29.3136  -22.0956   19.7265 C   0  0  0  0  0  0
  -28.5394  -23.3831   20.4379 C   0  0  0  0  0  0
  -28.4464  -24.8630   19.6669 C   0  0  0  0  0  0
  -30.5008  -18.4126   20.8558 N   0  3  0  0  0  0
  -27.3517  -20.0567   18.7344 N   0  0  0  0  0  0
  -29.6425  -15.9643   20.5615 N   0  0  0  0  0  0
  -28.5482  -19.8890   15.2149 N   0  3  0  0  0  0
  -31.4792  -12.6868   19.1623 H   0  0  0  0  0  0
  -30.4212  -11.5543   19.9606 H   0  0  0  0  0  0
  -29.8285  -11.7582   17.5277 H   0  0  0  0  0  0
  -29.6192  -13.4796   17.7005 H   0  0  0  0  0  0
  -27.9297  -11.2628   18.9131 H   0  0  0  0  0  0
  -27.3910  -12.4880   17.7904 H   0  0  0  0  0  0
  -27.6089  -14.2307   19.4345 H   0  0  0  0  0  0
  -28.7524  -12.1784   21.3930 H   0  0  0  0  0  0
  -28.3806  -13.8288   21.7998 H   0  0  0  0  0  0
  -25.2745   -9.5736   22.4724 H   0  0  0  0  0  0
  -24.0019   -7.4664   22.7505 H   0  0  0  0  0  0
  -21.0816   -8.8658   19.8933 H   0  0  0  0  0  0
  -22.3609  -10.9613   19.6118 H   0  0  0  0  0  0
  -21.2016   -7.6137   23.9646 H   0  0  0  0  0  0
  -21.1477   -6.0534   25.9041 H   0  0  0  0  0  0
  -22.0620   -2.7583   23.2848 H   0  0  0  0  0  0
  -22.4125  -11.9918   22.4873 H   0  0  0  0  0  0
  -21.1034  -13.1163   22.2439 H   0  0  0  0  0  0
  -24.6290  -15.8090   20.4743 H   0  0  0  0  0  0
  -26.1690  -15.5762   19.8394 H   0  0  0  0  0  0
  -26.7187  -32.5397   23.1015 H   0  0  0  0  0  0
  -25.0014  -33.9710   25.0336 H   0  0  0  0  0  0
  -22.7366  -31.2754   21.3765 H   0  0  0  0  0  0
  -23.3819  -35.9527   23.3296 H   0  0  0  0  0  0
  -24.3607  -36.8869   22.2060 H   0  0  0  0  0  0
  -23.7190  -37.6404   23.6665 H   0  0  0  0  0  0
  -26.1341  -31.5158   20.6165 H   0  0  0  0  0  0
  -26.8627  -30.8007   22.0177 H   0  0  0  0  0  0
  -28.1370  -28.8761   21.2074 H   0  0  0  0  0  0
  -25.9529  -25.8452   19.0399 H   0  0  0  0  0  0
  -24.0013  -27.2749   19.0023 H   0  0  0  0  0  0
  -23.7615  -30.5349   19.3877 H   0  0  0  0  0  0
  -22.7888  -29.1795   19.8784 H   0  0  0  0  0  0
  -25.1354  -36.1941   25.0824 H   0  0  0  0  0  0
  -20.9909  -28.3176   24.1453 H   0  0  0  0  0  0
  -20.5659  -26.2219   23.3602 H   0  0  0  0  0  0
  -21.6630  -26.7395   22.1224 H   0  0  0  0  0  0
  -19.6906  -25.6267   21.1246 H   0  0  0  0  0  0
  -19.6728  -27.3169   20.6749 H   0  0  0  0  0  0
  -17.4194  -26.6629   21.4000 H   0  0  0  0  0  0
  -18.0309  -26.0080   22.9030 H   0  0  0  0  0  0
  -19.7903  -30.7300   24.2165 H   0  0  0  0  0  0
  -17.4964  -31.6251   24.5111 H   0  0  0  0  0  0
  -15.5312  -30.2890   23.7740 H   0  0  0  0  0  0
  -15.8658  -28.0793   22.7053 H   0  0  0  0  0  0
  -24.5896  -30.6968   25.7621 H   0  0  0  0  0  0
  -24.8690  -32.2850   26.4645 H   0  0  0  0  0  0
  -25.7917  -30.8966   27.0181 H   0  0  0  0  0  0
  -26.2870  -29.6715   24.1198 H   0  0  0  0  0  0
  -27.3923  -29.7250   25.4715 H   0  0  0  0  0  0
  -27.8762  -30.4206   23.9439 H   0  0  0  0  0  0
  -27.2708  -33.3631   26.1931 H   0  0  0  0  0  0
  -28.3857  -32.6748   25.0233 H   0  0  0  0  0  0
  -28.0644  -31.8411   26.5363 H   0  0  0  0  0  0
  -28.2621  -38.0085   24.7576 H   0  0  0  0  0  0
  -28.1127  -36.2631   24.6278 H   0  0  0  0  0  0
  -27.2305  -37.1374   25.8858 H   0  0  0  0  0  0
  -20.9459  -29.8675   21.6885 H   0  0  0  0  0  0
  -26.0233  -38.2847   24.1383 H   0  0  0  0  0  0
  -27.7562  -17.5013   19.2521 H   0  0  0  0  0  0
  -25.6210  -20.6409   16.3906 H   0  0  0  0  0  0
  -26.8216  -21.8149   16.9099 H   0  0  0  0  0  0
  -27.7675  -21.8116   14.8508 H   0  0  0  0  0  0
  -26.7396  -20.4974   14.2785 H   0  0  0  0  0  0
  -29.3394  -18.7740   16.8405 H   0  0  0  0  0  0
  -29.4397  -20.5219   16.9962 H   0  0  0  0  0  0
  -26.9064  -18.7975   17.1148 H   0  0  0  0  0  0
  -31.1617  -21.4014   22.0100 H   0  0  0  0  0  0
  -32.1946  -20.9885   20.6298 H   0  0  0  0  0  0
  -32.1405  -19.9359   22.0410 H   0  0  0  0  0  0
  -29.0394  -22.1437   18.6740 H   0  0  0  0  0  0
  -30.3677  -22.3788   19.7116 H   0  0  0  0  0  0
  -29.0024  -23.5395   21.4126 H   0  0  0  0  0  0
  -27.5163  -23.0735   20.6568 H   0  0  0  0  0  0
  -27.7486  -24.7612   18.8377 H   0  0  0  0  0  0
  -29.4089  -24.9322   19.1570 H   0  0  0  0  0  0
  -31.3150  -18.0480   21.3639 H   0  0  0  0  0  0
  -27.1437  -21.0289   18.9313 H   0  0  0  0  0  0
  -28.7192  -15.6050   20.7213 H   0  0  0  0  0  0
  -29.3611  -20.2304   14.7275 H   0  0  0  0  0  0
  -28.2972  -18.9996   14.8109 H   0  0  0  0  0  0
  1 25  1  0  0  0
  1 30  2  0  0  0
  1 86  1  0  0  0
  2  3  1  0  0  0
  2 25  1  0  0  0
  2 88  1  0  0  0
  2 89  1  0  0  0
  3  4  1  0  0  0
  3 90  1  0  0  0
  3 91  1  0  0  0
  4  5  1  0  0  0
  4 92  1  0  0  0
  4 93  1  0  0  0
  5  6  1  0  0  0
  5 26  1  0  0  0
  5 94  1  0  0  0
  6 25  1  0  0  0
  6 95  1  0  0  0
  6 96  1  0  0  0
  7  8  2  0  0  0
  7 26  1  0  0  0
  7 29  1  0  0  0
  8  9  1  0  0  0
  8 22  1  0  0  0
  9 10  1  0  0  0
  9 27  2  0  0  0
 10 11  2  0  0  0
 10 15  1  0  0  0
 11 12  1  0  0  0
 11 97  1  0  0  0
 12 13  2  0  0  0
 12 98  1  0  0  0
 13 14  1  0  0  0
 13 31  1  0  0  0
 14 15  2  0  0  0
 14 99  1  0  0  0
 15100  1  0  0  0
 16 17  2  0  0  0
 16 21  1  0  0  0
 16 31  1  0  0  0
 17 18  1  0  0  0
 17101  1  0  0  0
 18 19  2  0  0  0
 18102  1  0  0  0
 19 20  1  0  0  0
 19 24  1  0  0  0
 20 21  2  0  0  0
 20103  1  0  0  0
 21 23  1  0  0  0
 22 28  1  0  0  0
 22 32  2  0  0  0
 26 27  1  0  0  0
 28104  1  0  0  0
 28105  1  0  0  0
 29106  1  0  0  0
 29107  1  0  0  0
 33 34  1  0  0  0
 33 66  1  0  0  0
 33 70  2  0  0  0
 34 36  1  0  0  0
 34 59  1  0  0  0
 34108  1  0  0  0
 35 44  2  0  0  0
 35 45  1  0  0  0
 35 68  1  0  0  0
 36 56  1  0  0  0
 36109  1  0  0  0
 37 39  1  0  0  0
 37 47  1  0  0  0
 37 66  1  0  0  0
 37110  1  0  0  0
 38 43  2  0  0  0
 38 46  1  0  0  0
 38 47  1  0  0  0
 39 64  1  0  0  0
 39 67  2  0  0  0
 40 52  1  0  0  0
 40 53  2  0  0  0
 40 58  1  0  0  0
 41111  1  0  0  0
 41112  1  0  0  0
 41113  1  0  0  0
 41 48  1  0  0  0
 42 43  1  0  0  0
 42 66  1  0  0  0
 42114  1  0  0  0
 42115  1  0  0  0
 43 44  1  0  0  0
 44116  1  0  0  0
 45 46  2  0  0  0
 45117  1  0  0  0
 46118  1  0  0  0
 47119  1  0  0  0
 47120  1  0  0  0
 48 56  1  0  0  0
 48 65  1  0  0  0
 48121  1  0  0  0
 49 50  1  0  0  0
 49 53  1  0  0  0
 49 64  1  0  0  0
 49122  1  0  0  0
 50 51  1  0  0  0
 50123  1  0  0  0
 50124  1  0  0  0
 51 52  1  0  0  0
 51125  1  0  0  0
 51126  1  0  0  0
 52127  1  0  0  0
 52128  1  0  0  0
 53 54  1  0  0  0
 54 55  2  0  0  0
 54129  1  0  0  0
 55 57  1  0  0  0
 55130  1  0  0  0
 56 69  2  0  0  0
 57 58  2  0  0  0
 57131  1  0  0  0
 58132  1  0  0  0
 59 60  1  0  0  0
 59 61  1  0  0  0
 59 62  1  0  0  0
 60133  1  0  0  0
 60134  1  0  0  0
 60135  1  0  0  0
 61136  1  0  0  0
 61137  1  0  0  0
 61138  1  0  0  0
 62139  1  0  0  0
 62140  1  0  0  0
 62141  1  0  0  0
 63 65  1  0  0  0
 63142  1  0  0  0
 63143  1  0  0  0
 63144  1  0  0  0
 64145  1  0  0  0
 65146  1  0  0  0
 68 83  1  0  0  0
 71 73  2  0  0  0
 71 75  1  0  0  0
 71147  1  0  0  0
 72 73  1  0  0  0
 72 74  2  0  0  0
 72 81  1  0  0  0
 73 85  1  0  0  0
 74 80  1  0  0  0
 74 84  1  0  0  0
 75 84  2  0  0  0
 75 86  1  0  0  0
 76 77  1  0  0  0
 76 79  1  0  0  0
 76148  1  0  0  0
 76149  1  0  0  0
 77 87  1  0  0  0
 77150  1  0  0  0
 77151  1  0  0  0
 78 79  1  0  0  0
 78 87  1  0  0  0
 78152  1  0  0  0
 78153  1  0  0  0
 79 85  1  0  0  0
 79154  1  0  0  0
 80155  1  0  0  0
 80156  1  0  0  0
 80157  1  0  0  0
 81 82  1  0  0  0
 81158  1  0  0  0
 81159  1  0  0  0
 82 83  1  0  0  0
 82160  1  0  0  0
 82161  1  0  0  0
 83162  1  0  0  0
 83163  1  0  0  0
 84164  1  0  0  0
 85165  1  0  0  0
 86166  1  0  0  0
 87167  1  0  0  0
 87168  1  0  0  0
M  CHG  2  84   1  87   1
M  ISO  4   1 100  68 101  83 101  86 100
M  END
> <chiral flag>
0

> <version>
0

> <s_m_source_file>
/data/baiqing/PycharmProjects/Reinvent-master-3.2/result/LINK_invent/BTK/process_docking_weight1_custom_sum_contain_oxygen_bond_distance_aromatic_linkinvent_7_9_3/rearranged_h_0124.sdf

> <i_m_source_file_index>
49

> <r_mmod_Potential_Energy-OPLS-2005>
308.8486328125

> <r_mmod_Stretch_Energy-OPLS-2005>
202.550033569336

> <r_mmod_Bend_Energy-OPLS-2005>
294.350463867188

> <r_mmod_Torsional_Energy-OPLS-2005>
307.81884765625

> <r_mmod_Improper_Torsional_Energy-OPLS-2005>
14.0400295257568

> <r_mmod_Van_der_Waal_Energy-OPLS-2005>
125.126747131348

> <r_mmod_Electrostatic_Energy-OPLS-2005>
156.665008544922

> <r_mmod_Solvation_Energy-OPLS-2005>
-932.520874023438

> <b_mmod_Minimization_Converged-OPLS-2005>
0

> <r_mmod_RMS_Derivative-OPLS-2005>
4.60889768600464

$$$$
49
                    3D
 Structure written by MMmdl.
163172  0  0  1  0            999 V2000
  -30.7404  -14.4506   20.6215 C   0  0  0  0  0  0
  -30.4149  -12.3113   19.4274 C   0  0  0  0  0  0
  -29.4933  -12.5138   18.2076 C   0  0  0  0  0  0
  -28.0147  -12.3694   18.6144 C   0  0  0  0  0  0
  -27.6589  -13.2083   19.8694 C   0  0  2  0  0  0
  -28.6939  -12.9923   20.9931 C   0  0  0  0  0  0
  -25.2585  -13.8169   20.5680 C   0  0  0  0  0  0
  -24.1842  -13.0446   20.9192 C   0  0  0  0  0  0
  -24.6392  -11.6912   20.8734 C   0  0  0  0  0  0
  -23.9056  -10.4298   21.0405 C   0  0  0  0  0  0
  -24.3610   -9.4212   21.9181 C   0  0  0  0  0  0
  -23.6288   -8.2246   22.0754 C   0  0  0  0  0  0
  -22.4269   -8.0281   21.3545 C   0  0  0  0  0  0
  -21.9904   -9.0256   20.4648 C   0  0  0  0  0  0
  -22.7229  -10.2138   20.3055 C   0  0  0  0  0  0
  -21.6853   -6.0734   22.5279 C   0  0  0  0  0  0
  -21.4016   -6.5638   23.8212 C   0  0  0  0  0  0
  -21.3659   -5.6792   24.9175 C   0  0  0  0  0  0
  -21.6045   -4.3055   24.7226 C   0  0  0  0  0  0
  -21.8819   -3.8146   23.4347 C   0  0  0  0  0  0
  -21.9194   -4.6963   22.3403 C   0  0  0  0  0  0
  -22.7867  -13.5249   21.1856 C   0  0  0  0  0  0
  -22.1664   -4.2149   21.0981 F   0  0  0  0  0  0
  -21.5627   -3.4537   25.7737 F   0  0  0  0  0  0
  -30.0319  -13.2960   20.4553 N   0  0  0  0  0  0
  -26.3002  -12.9335   20.3315 N   0  0  0  0  0  0
  -25.9312  -11.6497   20.5736 N   0  0  0  0  0  0
  -22.0503  -12.8236   22.0403 N   0  0  0  0  0  0
  -25.4327  -15.1886   20.4088 N   0  0  0  0  0  0
  -31.8242  -14.6404   20.0593 O   0  0  0  0  0  0
  -21.6637   -6.8876   21.4240 O   0  0  0  0  0  0
  -22.3561  -14.5558   20.6705 O   0  0  0  0  0  0
  -24.6155  -31.8677   23.2107 C   0  0  0  0  0  0
  -25.9046  -32.4821   23.8401 C   0  0  1  0  0  0
  -27.2304  -27.4221   20.0883 C   0  0  0  0  0  0
  -25.5902  -33.8621   24.2327 N   0  0  0  0  0  0
  -23.4030  -30.4931   21.5521 C   0  0  2  0  0  0
  -24.8468  -28.9607   20.1139 C   0  0  0  0  0  0
  -22.7413  -29.4656   22.4990 C   0  0  0  0  0  0
  -18.0272  -28.1375   22.8494 C   0  0  0  0  0  0
  -24.1486  -36.7316   23.2637 C   0  0  0  0  0  0
  -25.9343  -30.8282   21.3672 C   0  0  0  0  0  0
  -26.0087  -29.4630   20.7117 C   0  0  0  0  0  0
  -27.2008  -28.7005   20.6973 C   0  0  0  0  0  0
  -26.0434  -26.9408   19.4838 C   0  0  0  0  0  0
  -24.8596  -27.6991   19.4988 C   0  0  0  0  0  0
  -23.6107  -29.8294   20.1655 C   0  0  0  0  0  0
  -25.4106  -36.3112   24.0336 C   0  0  1  0  0  0
  -20.5863  -28.3662   23.1320 C   0  0  2  0  0  0
  -20.6759  -26.9398   22.5421 C   0  0  0  0  0  0
  -19.5740  -26.6384   21.5214 C   0  0  0  0  0  0
  -18.1918  -26.7923   22.1624 C   0  0  0  0  0  0
  -19.1521  -28.8835   23.2904 C   0  0  0  0  0  0
  -18.9449  -30.1443   23.8910 C   0  0  0  0  0  0
  -17.6451  -30.6583   24.0564 C   0  0  0  0  0  0
  -25.9037  -34.9476   23.5129 C   0  0  0  0  0  0
  -16.5342  -29.9085   23.6325 C   0  0  0  0  0  0
  -16.7261  -28.6502   23.0346 C   0  0  0  0  0  0
  -26.4469  -31.6602   25.0733 C   0  0  0  0  0  0
  -25.3736  -31.3705   26.1483 C   0  0  0  0  0  0
  -27.0301  -30.3043   24.6118 C   0  0  0  0  0  0
  -27.6047  -32.4320   25.7493 C   0  0  0  0  0  0
  -27.5585  -37.1807   24.8457 C   0  0  0  0  0  0
  -21.4140  -29.3031   22.3729 N   0  0  0  0  0  0
  -26.4289  -37.3801   23.9412 N   0  0  0  0  0  0
  -24.6693  -31.0772   22.1014 N   0  0  0  0  0  0
  -23.4186  -28.8194   23.3029 O   0  0  0  0  0  0
  -28.4052  -26.6882   20.1106 O   0  0  0  0  0  0
  -26.5601  -34.8927   22.4691 O   0  0  0  0  0  0
  -23.5345  -32.1434   23.7497 O   0  0  0  0  0  0
  -28.2853  -19.9568   20.0314 C   0  0  0  0  0  0
  -30.5638  -19.9716   20.8715 C   0  0  0  0  0  0
  -28.4483  -21.2791   19.5578 C   0  0  0  0  0  0
  -30.7260  -21.2938   20.4002 C   0  0  0  0  0  0
  -29.3466  -19.2767   20.6758 C   0  0  0  0  0  0
  -29.6776  -21.9528   19.7216 C   0  0  0  0  0  0
  -30.0597  -15.5182   22.7039 C   0  0  0  0  0  0
  -30.2787  -16.8480   20.6841 C   0  0  0  0  0  0
  -28.8985  -16.4140   23.1833 C   0  0  0  0  0  0
  -29.1634  -17.8247   21.1556 C   0  0  1  0  0  0
  -29.9201  -23.3156   19.0673 C   0  0  0  0  0  0
  -29.6846  -24.5779   19.9387 C   0  0  0  0  0  0
  -28.3679  -25.3287   19.6408 C   0  0  0  0  0  0
  -30.1094  -15.4840   21.2357 N   0  0  0  0  0  0
  -28.9988  -17.7809   22.6231 N   0  3  0  0  0  0
  -31.4610  -12.3970   19.1278 H   0  0  0  0  0  0
  -30.3068  -11.3003   19.8235 H   0  0  0  0  0  0
  -29.7373  -11.7931   17.4259 H   0  0  0  0  0  0
  -29.6617  -13.5021   17.7763 H   0  0  0  0  0  0
  -27.8257  -11.3132   18.8093 H   0  0  0  0  0  0
  -27.3658  -12.6443   17.7821 H   0  0  0  0  0  0
  -27.7040  -14.2569   19.5745 H   0  0  0  0  0  0
  -28.6672  -11.9591   21.3431 H   0  0  0  0  0  0
  -28.4216  -13.5959   21.8555 H   0  0  0  0  0  0
  -25.2757   -9.5688   22.4752 H   0  0  0  0  0  0
  -24.0001   -7.4636   22.7470 H   0  0  0  0  0  0
  -21.0837   -8.8773   19.8953 H   0  0  0  0  0  0
  -22.3686  -10.9675   19.6163 H   0  0  0  0  0  0
  -21.2008   -7.6146   23.9715 H   0  0  0  0  0  0
  -21.1482   -6.0522   25.9079 H   0  0  0  0  0  0
  -22.0598   -2.7608   23.2847 H   0  0  0  0  0  0
  -22.4106  -11.9881   22.4772 H   0  0  0  0  0  0
  -21.1126  -13.1268   22.2616 H   0  0  0  0  0  0
  -24.6551  -15.8357   20.4829 H   0  0  0  0  0  0
  -26.2616  -15.6086   20.0102 H   0  0  0  0  0  0
  -26.7116  -32.5526   23.1163 H   0  0  0  0  0  0
  -25.0048  -33.9783   25.0469 H   0  0  0  0  0  0
  -22.6917  -31.3104   21.4156 H   0  0  0  0  0  0
  -23.3753  -35.9644   23.3290 H   0  0  0  0  0  0
  -24.3584  -36.8943   22.2054 H   0  0  0  0  0  0
  -23.7231  -37.6513   23.6660 H   0  0  0  0  0  0
  -26.0515  -31.5954   20.6006 H   0  0  0  0  0  0
  -26.8206  -30.8772   21.9882 H   0  0  0  0  0  0
  -28.0977  -29.0856   21.1626 H   0  0  0  0  0  0
  -26.0022  -25.9804   18.9921 H   0  0  0  0  0  0
  -23.9660  -27.3070   19.0328 H   0  0  0  0  0  0
  -23.7200  -30.6060   19.4075 H   0  0  0  0  0  0
  -22.7334  -29.2515   19.8691 H   0  0  0  0  0  0
  -25.1279  -36.1976   25.0829 H   0  0  0  0  0  0
  -20.9954  -28.3227   24.1441 H   0  0  0  0  0  0
  -20.5664  -26.2266   23.3604 H   0  0  0  0  0  0
  -21.6630  -26.7442   22.1216 H   0  0  0  0  0  0
  -19.6901  -25.6302   21.1227 H   0  0  0  0  0  0
  -19.6681  -27.3205   20.6753 H   0  0  0  0  0  0
  -17.4192  -26.6680   21.4021 H   0  0  0  0  0  0
  -18.0313  -26.0061   22.9015 H   0  0  0  0  0  0
  -19.7925  -30.7254   24.2287 H   0  0  0  0  0  0
  -17.5007  -31.6263   24.5166 H   0  0  0  0  0  0
  -15.5343  -30.2989   23.7643 H   0  0  0  0  0  0
  -15.8661  -28.0827   22.7048 H   0  0  0  0  0  0
  -24.5904  -30.7057   25.7818 H   0  0  0  0  0  0
  -24.8932  -32.2860   26.4947 H   0  0  0  0  0  0
  -25.8092  -30.8862   27.0232 H   0  0  0  0  0  0
  -26.2849  -29.6809   24.1161 H   0  0  0  0  0  0
  -27.4054  -29.7275   25.4581 H   0  0  0  0  0  0
  -27.8694  -30.4358   23.9284 H   0  0  0  0  0  0
  -27.2667  -33.3607   26.2104 H   0  0  0  0  0  0
  -28.3837  -32.6899   25.0308 H   0  0  0  0  0  0
  -28.0737  -31.8425   26.5381 H   0  0  0  0  0  0
  -28.2586  -38.0123   24.7538 H   0  0  0  0  0  0
  -28.1100  -36.2655   24.6241 H   0  0  0  0  0  0
  -27.2310  -37.1410   25.8862 H   0  0  0  0  0  0
  -20.9295  -29.8765   21.6965 H   0  0  0  0  0  0
  -26.0178  -38.2875   24.1434 H   0  0  0  0  0  0
  -27.3381  -19.4594   19.8721 H   0  0  0  0  0  0
  -31.3959  -19.4925   21.3682 H   0  0  0  0  0  0
  -27.6336  -21.7599   19.0333 H   0  0  0  0  0  0
  -31.6789  -21.7885   20.5307 H   0  0  0  0  0  0
  -29.9582  -14.5198   23.1321 H   0  0  0  0  0  0
  -31.0092  -15.8995   23.0848 H   0  0  0  0  0  0
  -31.2638  -17.2171   20.9730 H   0  0  0  0  0  0
  -30.2743  -16.8153   19.5926 H   0  0  0  0  0  0
  -28.8877  -16.4720   24.2723 H   0  0  0  0  0  0
  -27.9440  -15.9761   22.8864 H   0  0  0  0  0  0
  -28.2262  -17.4593   20.7308 H   0  0  0  0  0  0
  -29.3439  -23.3769   18.1434 H   0  0  0  0  0  0
  -30.9603  -23.3223   18.7377 H   0  0  0  0  0  0
  -30.4943  -25.2727   19.7124 H   0  0  0  0  0  0
  -29.7840  -24.3519   21.0008 H   0  0  0  0  0  0
  -27.5478  -24.7759   20.1021 H   0  0  0  0  0  0
  -28.1933  -25.3468   18.5640 H   0  0  0  0  0  0
  -29.7807  -18.2498   23.0488 H   0  0  0  0  0  0
  -28.1727  -18.3007   22.8720 H   0  0  0  0  0  0
  1 25  1  0  0  0
  1 30  2  0  0  0
  1 84  1  0  0  0
  2  3  1  0  0  0
  2 25  1  0  0  0
  2 86  1  0  0  0
  2 87  1  0  0  0
  3  4  1  0  0  0
  3 88  1  0  0  0
  3 89  1  0  0  0
  4  5  1  0  0  0
  4 90  1  0  0  0
  4 91  1  0  0  0
  5  6  1  0  0  0
  5 26  1  0  0  0
  5 92  1  0  0  0
  6 25  1  0  0  0
  6 93  1  0  0  0
  6 94  1  0  0  0
  7  8  2  0  0  0
  7 26  1  0  0  0
  7 29  1  0  0  0
  8  9  1  0  0  0
  8 22  1  0  0  0
  9 10  1  0  0  0
  9 27  2  0  0  0
 10 11  2  0  0  0
 10 15  1  0  0  0
 11 12  1  0  0  0
 11 95  1  0  0  0
 12 13  2  0  0  0
 12 96  1  0  0  0
 13 14  1  0  0  0
 13 31  1  0  0  0
 14 15  2  0  0  0
 14 97  1  0  0  0
 15 98  1  0  0  0
 16 17  2  0  0  0
 16 21  1  0  0  0
 16 31  1  0  0  0
 17 18  1  0  0  0
 17 99  1  0  0  0
 18 19  2  0  0  0
 18100  1  0  0  0
 19 20  1  0  0  0
 19 24  1  0  0  0
 20 21  2  0  0  0
 20101  1  0  0  0
 21 23  1  0  0  0
 22 28  1  0  0  0
 22 32  2  0  0  0
 26 27  1  0  0  0
 28102  1  0  0  0
 28103  1  0  0  0
 29104  1  0  0  0
 29105  1  0  0  0
 33 34  1  0  0  0
 33 66  1  0  0  0
 33 70  2  0  0  0
 34 36  1  0  0  0
 34 59  1  0  0  0
 34106  1  0  0  0
 35 44  2  0  0  0
 35 45  1  0  0  0
 35 68  1  0  0  0
 36 56  1  0  0  0
 36107  1  0  0  0
 37 39  1  0  0  0
 37 47  1  0  0  0
 37 66  1  0  0  0
 37108  1  0  0  0
 38 43  2  0  0  0
 38 46  1  0  0  0
 38 47  1  0  0  0
 39 64  1  0  0  0
 39 67  2  0  0  0
 40 52  1  0  0  0
 40 53  2  0  0  0
 40 58  1  0  0  0
 41109  1  0  0  0
 41110  1  0  0  0
 41111  1  0  0  0
 41 48  1  0  0  0
 42 43  1  0  0  0
 42 66  1  0  0  0
 42112  1  0  0  0
 42113  1  0  0  0
 43 44  1  0  0  0
 44114  1  0  0  0
 45 46  2  0  0  0
 45115  1  0  0  0
 46116  1  0  0  0
 47117  1  0  0  0
 47118  1  0  0  0
 48 56  1  0  0  0
 48 65  1  0  0  0
 48119  1  0  0  0
 49 50  1  0  0  0
 49 53  1  0  0  0
 49 64  1  0  0  0
 49120  1  0  0  0
 50 51  1  0  0  0
 50121  1  0  0  0
 50122  1  0  0  0
 51 52  1  0  0  0
 51123  1  0  0  0
 51124  1  0  0  0
 52125  1  0  0  0
 52126  1  0  0  0
 53 54  1  0  0  0
 54 55  2  0  0  0
 54127  1  0  0  0
 55 57  1  0  0  0
 55128  1  0  0  0
 56 69  2  0  0  0
 57 58  2  0  0  0
 57129  1  0  0  0
 58130  1  0  0  0
 59 60  1  0  0  0
 59 61  1  0  0  0
 59 62  1  0  0  0
 60131  1  0  0  0
 60132  1  0  0  0
 60133  1  0  0  0
 61134  1  0  0  0
 61135  1  0  0  0
 61136  1  0  0  0
 62137  1  0  0  0
 62138  1  0  0  0
 62139  1  0  0  0
 63 65  1  0  0  0
 63140  1  0  0  0
 63141  1  0  0  0
 63142  1  0  0  0
 64143  1  0  0  0
 65144  1  0  0  0
 68 83  1  0  0  0
 71 73  2  0  0  0
 71 75  1  0  0  0
 71145  1  0  0  0
 72 74  1  0  0  0
 72 75  2  0  0  0
 72146  1  0  0  0
 73 76  1  0  0  0
 73147  1  0  0  0
 74 76  2  0  0  0
 74148  1  0  0  0
 75 80  1  0  0  0
 76 81  1  0  0  0
 77 79  1  0  0  0
 77 84  1  0  0  0
 77149  1  0  0  0
 77150  1  0  0  0
 78 80  1  0  0  0
 78 84  1  0  0  0
 78151  1  0  0  0
 78152  1  0  0  0
 79 85  1  0  0  0
 79153  1  0  0  0
 79154  1  0  0  0
 80 85  1  0  0  0
 80155  1  0  0  0
 81 82  1  0  0  0
 81156  1  0  0  0
 81157  1  0  0  0
 82 83  1  0  0  0
 82158  1  0  0  0
 82159  1  0  0  0
 83160  1  0  0  0
 83161  1  0  0  0
 85162  1  0  0  0
 85163  1  0  0  0
M  CHG  1  85   1
M  ISO  4   1 100  68 101  83 101  84 100
M  END
> <chiral flag>
0

> <version>
0

> <s_m_source_file>
/data/baiqing/PycharmProjects/Reinvent-master-3.2/result/LINK_invent/BTK/process_docking_weight1_custom_sum_contain_oxygen_bond_distance_aromatic_linkinvent_7_9_3/rearranged_h_0124.sdf

> <i_m_source_file_index>
50

> <r_mmod_Potential_Energy-OPLS-2005>
-75.6280517578125

> <r_mmod_Stretch_Energy-OPLS-2005>
41.2487678527832

> <r_mmod_Bend_Energy-OPLS-2005>
101.537467956543

> <r_mmod_Torsional_Energy-OPLS-2005>
358.321929931641

> <r_mmod_Improper_Torsional_Energy-OPLS-2005>
9.26396751403809

> <r_mmod_Van_der_Waal_Energy-OPLS-2005>
156.713897705078

> <r_mmod_Electrostatic_Energy-OPLS-2005>
-293.614013671875

> <r_mmod_Solvation_Energy-OPLS-2005>
-461.151092529297

> <b_mmod_Minimization_Converged-OPLS-2005>
0

> <r_mmod_RMS_Derivative-OPLS-2005>
0.447261065244675

$$$$
50
                    3D
 Structure written by MMmdl.
159167  0  0  1  0            999 V2000
  -30.6441  -14.5509   20.5529 C   0  0  0  0  0  0
  -30.4366  -12.3531   19.4241 C   0  0  0  0  0  0
  -29.4991  -12.5059   18.2067 C   0  0  0  0  0  0
  -28.0215  -12.3498   18.6221 C   0  0  0  0  0  0
  -27.6565  -13.2032   19.8662 C   0  0  2  0  0  0
  -28.7007  -13.0046   20.9870 C   0  0  0  0  0  0
  -25.2574  -13.8139   20.5673 C   0  0  0  0  0  0
  -24.1828  -13.0423   20.9183 C   0  0  0  0  0  0
  -24.6382  -11.6888   20.8730 C   0  0  0  0  0  0
  -23.9047  -10.4278   21.0401 C   0  0  0  0  0  0
  -24.3603   -9.4200   21.9178 C   0  0  0  0  0  0
  -23.6281   -8.2236   22.0753 C   0  0  0  0  0  0
  -22.4263   -8.0274   21.3547 C   0  0  0  0  0  0
  -21.9894   -9.0246   20.4647 C   0  0  0  0  0  0
  -22.7221  -10.2121   20.3052 C   0  0  0  0  0  0
  -21.6851   -6.0730   22.5281 C   0  0  0  0  0  0
  -21.4014   -6.5637   23.8213 C   0  0  0  0  0  0
  -21.3658   -5.6789   24.9178 C   0  0  0  0  0  0
  -21.6044   -4.3051   24.7229 C   0  0  0  0  0  0
  -21.8819   -3.8141   23.4351 C   0  0  0  0  0  0
  -21.9191   -4.6957   22.3408 C   0  0  0  0  0  0
  -22.7853  -13.5228   21.1844 C   0  0  0  0  0  0
  -22.1655   -4.2139   21.0984 F   0  0  0  0  0  0
  -21.5630   -3.4538   25.7744 F   0  0  0  0  0  0
  -30.0205  -13.3440   20.4298 N   0  0  0  0  0  0
  -26.2999  -12.9300   20.3319 N   0  0  0  0  0  0
  -25.9304  -11.6468   20.5742 N   0  0  0  0  0  0
  -22.0496  -12.8223   22.0406 N   0  0  0  0  0  0
  -25.4300  -15.1857   20.4098 N   0  0  0  0  0  0
  -31.7908  -14.7543   20.1460 O   0  0  0  0  0  0
  -21.6635   -6.8867   21.4239 O   0  0  0  0  0  0
  -22.3543  -14.5542   20.6698 O   0  0  0  0  0  0
  -24.6201  -31.8643   23.2058 C   0  0  0  0  0  0
  -25.9072  -32.4806   23.8367 C   0  0  1  0  0  0
  -27.2295  -27.3829   20.1176 C   0  0  0  0  0  0
  -25.5910  -33.8605   24.2302 N   0  0  0  0  0  0
  -23.4109  -30.4863   21.5465 C   0  0  2  0  0  0
  -24.8582  -28.9401   20.1202 C   0  0  0  0  0  0
  -22.7436  -29.4644   22.4963 C   0  0  0  0  0  0
  -18.0281  -28.1392   22.8484 C   0  0  0  0  0  0
  -24.1496  -36.7301   23.2636 C   0  0  0  0  0  0
  -25.9445  -30.8128   21.3678 C   0  0  0  0  0  0
  -26.0201  -29.4401   20.7223 C   0  0  0  0  0  0
  -27.2109  -28.6687   20.7185 C   0  0  0  0  0  0
  -26.0555  -26.9122   19.4989 C   0  0  0  0  0  0
  -24.8712  -27.6751   19.5071 C   0  0  0  0  0  0
  -23.6241  -29.8157   20.1631 C   0  0  0  0  0  0
  -25.4113  -36.3101   24.0333 C   0  0  1  0  0  0
  -20.5874  -28.3677   23.1306 C   0  0  2  0  0  0
  -20.6776  -26.9406   22.5421 C   0  0  0  0  0  0
  -19.5751  -26.6387   21.5227 C   0  0  0  0  0  0
  -18.1923  -26.7936   22.1629 C   0  0  0  0  0  0
  -19.1530  -28.8852   23.2893 C   0  0  0  0  0  0
  -18.9458  -30.1459   23.8906 C   0  0  0  0  0  0
  -17.6458  -30.6590   24.0568 C   0  0  0  0  0  0
  -25.9044  -34.9467   23.5112 C   0  0  0  0  0  0
  -16.5349  -29.9088   23.6331 C   0  0  0  0  0  0
  -16.7270  -28.6513   23.0336 C   0  0  0  0  0  0
  -26.4482  -31.6594   25.0707 C   0  0  0  0  0  0
  -25.3732  -31.3702   26.1449 C   0  0  0  0  0  0
  -27.0306  -30.3031   24.6089 C   0  0  0  0  0  0
  -27.6060  -32.4322   25.7454 C   0  0  0  0  0  0
  -27.5594  -37.1789   24.8455 C   0  0  0  0  0  0
  -21.4162  -29.3042   22.3707 N   0  0  0  0  0  0
  -26.4286  -37.3798   23.9431 N   0  0  0  0  0  0
  -24.6770  -31.0698   22.0983 N   0  0  0  0  0  0
  -23.4187  -28.8177   23.3013 O   0  0  0  0  0  0
  -28.3759  -26.6105   20.0497 O   0  0  0  0  0  0
  -26.5607  -34.8921   22.4677 O   0  0  0  0  0  0
  -23.5377  -32.1416   23.7421 O   0  0  0  0  0  0
  -26.6752  -23.8634   20.8071 C   0  0  0  0  0  0
  -26.1831  -22.5647   20.5826 C   0  0  0  0  0  0
  -28.9340  -23.0472   20.4344 C   0  0  0  0  0  0
  -28.0532  -24.1382   20.7146 C   0  0  0  0  0  0
  -27.0532  -21.4951   20.2786 C   0  0  0  0  0  0
  -28.4558  -21.7138   20.2195 C   0  0  0  0  0  0
  -26.4386  -20.1316   19.9992 C   0  0  0  0  0  0
  -29.4179  -20.5572   19.8188 C   0  0  0  0  0  0
  -28.5581  -25.5677   21.0418 C   0  0  0  0  0  0
  -30.1800  -16.9797   21.3055 C   0  0  0  0  0  0
  -29.5679  -18.0470   20.3265 C   0  0  0  0  0  0
  -29.8590  -15.5569   21.0114 N   0  0  0  0  0  0
  -29.6258  -19.4668   20.8266 N   0  3  0  0  0  0
  -31.4771  -12.4827   19.1209 H   0  0  0  0  0  0
  -30.3689  -11.3459   19.8384 H   0  0  0  0  0  0
  -29.7520  -11.7697   17.4427 H   0  0  0  0  0  0
  -29.6481  -13.4848   17.7482 H   0  0  0  0  0  0
  -27.8485  -11.2940   18.8350 H   0  0  0  0  0  0
  -27.3666  -12.6003   17.7868 H   0  0  0  0  0  0
  -27.6907  -14.2465   19.5522 H   0  0  0  0  0  0
  -28.6998  -11.9671   21.3253 H   0  0  0  0  0  0
  -28.4532  -13.5981   21.8683 H   0  0  0  0  0  0
  -25.2752   -9.5677   22.4746 H   0  0  0  0  0  0
  -23.9994   -7.4628   22.7468 H   0  0  0  0  0  0
  -21.0829   -8.8764   19.8950 H   0  0  0  0  0  0
  -22.3686  -10.9660   19.6156 H   0  0  0  0  0  0
  -21.2010   -7.6142   23.9716 H   0  0  0  0  0  0
  -21.1474   -6.0519   25.9079 H   0  0  0  0  0  0
  -22.0598   -2.7602   23.2860 H   0  0  0  0  0  0
  -22.4104  -11.9878   22.4794 H   0  0  0  0  0  0
  -21.1116  -13.1245   22.2613 H   0  0  0  0  0  0
  -24.6614  -15.8376   20.5215 H   0  0  0  0  0  0
  -26.2743  -15.6252   20.0677 H   0  0  0  0  0  0
  -26.7136  -32.5508   23.1118 H   0  0  0  0  0  0
  -25.0076  -33.9768   25.0457 H   0  0  0  0  0  0
  -22.7036  -31.3052   21.4015 H   0  0  0  0  0  0
  -23.3772  -35.9625   23.3280 H   0  0  0  0  0  0
  -24.3596  -36.8934   22.2056 H   0  0  0  0  0  0
  -23.7224  -37.6482   23.6667 H   0  0  0  0  0  0
  -26.0658  -31.5732   20.5950 H   0  0  0  0  0  0
  -26.8313  -30.8677   21.9877 H   0  0  0  0  0  0
  -28.1114  -29.0535   21.1771 H   0  0  0  0  0  0
  -26.0587  -25.9492   19.0083 H   0  0  0  0  0  0
  -23.9802  -27.2843   19.0356 H   0  0  0  0  0  0
  -23.7422  -30.5902   19.4044 H   0  0  0  0  0  0
  -22.7474  -29.2407   19.8606 H   0  0  0  0  0  0
  -25.1294  -36.1944   25.0823 H   0  0  0  0  0  0
  -20.9976  -28.3249   24.1423 H   0  0  0  0  0  0
  -20.5707  -26.2280   23.3612 H   0  0  0  0  0  0
  -21.6637  -26.7453   22.1190 H   0  0  0  0  0  0
  -19.6912  -25.6307   21.1238 H   0  0  0  0  0  0
  -19.6700  -27.3218   20.6777 H   0  0  0  0  0  0
  -17.4199  -26.6702   21.4015 H   0  0  0  0  0  0
  -18.0301  -26.0086   22.9031 H   0  0  0  0  0  0
  -19.7932  -30.7278   24.2271 H   0  0  0  0  0  0
  -17.5006  -31.6266   24.5175 H   0  0  0  0  0  0
  -15.5347  -30.2990   23.7656 H   0  0  0  0  0  0
  -15.8670  -28.0843   22.7033 H   0  0  0  0  0  0
  -24.5917  -30.7031   25.7784 H   0  0  0  0  0  0
  -24.8904  -32.2851   26.4895 H   0  0  0  0  0  0
  -25.8077  -30.8869   27.0210 H   0  0  0  0  0  0
  -26.2831  -29.6791   24.1166 H   0  0  0  0  0  0
  -27.4098  -29.7270   25.4542 H   0  0  0  0  0  0
  -27.8671  -30.4355   23.9220 H   0  0  0  0  0  0
  -27.2686  -33.3635   26.2020 H   0  0  0  0  0  0
  -28.3850  -32.6867   25.0253 H   0  0  0  0  0  0
  -28.0742  -31.8448   26.5363 H   0  0  0  0  0  0
  -28.2570  -38.0133   24.7581 H   0  0  0  0  0  0
  -28.1130  -36.2666   24.6178 H   0  0  0  0  0  0
  -27.2320  -37.1298   25.8855 H   0  0  0  0  0  0
  -20.9335  -29.8757   21.6919 H   0  0  0  0  0  0
  -26.0169  -38.2866   24.1473 H   0  0  0  0  0  0
  -25.9830  -24.6532   21.0622 H   0  0  0  0  0  0
  -25.1164  -22.3950   20.6405 H   0  0  0  0  0  0
  -29.9960  -23.2416   20.3770 H   0  0  0  0  0  0
  -25.3515  -20.1949   19.9391 H   0  0  0  0  0  0
  -26.6803  -19.4234   20.7912 H   0  0  0  0  0  0
  -26.7823  -19.7275   19.0469 H   0  0  0  0  0  0
  -30.3955  -20.9777   19.5793 H   0  0  0  0  0  0
  -29.0601  -20.1312   18.8803 H   0  0  0  0  0  0
  -29.6274  -25.5088   21.2466 H   0  0  0  0  0  0
  -28.1048  -25.8826   21.9835 H   0  0  0  0  0  0
  -29.8070  -17.1727   22.3122 H   0  0  0  0  0  0
  -31.2624  -17.1093   21.3612 H   0  0  0  0  0  0
  -28.5271  -17.8040   20.1118 H   0  0  0  0  0  0
  -30.0975  -17.9830   19.3753 H   0  0  0  0  0  0
  -28.9277  -15.2618   21.2663 H   0  0  0  0  0  0
  -28.9480  -19.5854   21.5607 H   0  0  0  0  0  0
  -30.5311  -19.6274   21.2371 H   0  0  0  0  0  0
  1 25  1  0  0  0
  1 30  2  0  0  0
  1 82  1  0  0  0
  2  3  1  0  0  0
  2 25  1  0  0  0
  2 84  1  0  0  0
  2 85  1  0  0  0
  3  4  1  0  0  0
  3 86  1  0  0  0
  3 87  1  0  0  0
  4  5  1  0  0  0
  4 88  1  0  0  0
  4 89  1  0  0  0
  5  6  1  0  0  0
  5 26  1  0  0  0
  5 90  1  0  0  0
  6 25  1  0  0  0
  6 91  1  0  0  0
  6 92  1  0  0  0
  7  8  2  0  0  0
  7 26  1  0  0  0
  7 29  1  0  0  0
  8  9  1  0  0  0
  8 22  1  0  0  0
  9 10  1  0  0  0
  9 27  2  0  0  0
 10 11  2  0  0  0
 10 15  1  0  0  0
 11 12  1  0  0  0
 11 93  1  0  0  0
 12 13  2  0  0  0
 12 94  1  0  0  0
 13 14  1  0  0  0
 13 31  1  0  0  0
 14 15  2  0  0  0
 14 95  1  0  0  0
 15 96  1  0  0  0
 16 17  2  0  0  0
 16 21  1  0  0  0
 16 31  1  0  0  0
 17 18  1  0  0  0
 17 97  1  0  0  0
 18 19  2  0  0  0
 18 98  1  0  0  0
 19 20  1  0  0  0
 19 24  1  0  0  0
 20 21  2  0  0  0
 20 99  1  0  0  0
 21 23  1  0  0  0
 22 28  1  0  0  0
 22 32  2  0  0  0
 26 27  1  0  0  0
 28100  1  0  0  0
 28101  1  0  0  0
 29102  1  0  0  0
 29103  1  0  0  0
 33 34  1  0  0  0
 33 66  1  0  0  0
 33 70  2  0  0  0
 34 36  1  0  0  0
 34 59  1  0  0  0
 34104  1  0  0  0
 35 44  2  0  0  0
 35 45  1  0  0  0
 35 68  1  0  0  0
 36 56  1  0  0  0
 36105  1  0  0  0
 37 39  1  0  0  0
 37 47  1  0  0  0
 37 66  1  0  0  0
 37106  1  0  0  0
 38 43  2  0  0  0
 38 46  1  0  0  0
 38 47  1  0  0  0
 39 64  1  0  0  0
 39 67  2  0  0  0
 40 52  1  0  0  0
 40 53  2  0  0  0
 40 58  1  0  0  0
 41107  1  0  0  0
 41108  1  0  0  0
 41109  1  0  0  0
 41 48  1  0  0  0
 42 43  1  0  0  0
 42 66  1  0  0  0
 42110  1  0  0  0
 42111  1  0  0  0
 43 44  1  0  0  0
 44112  1  0  0  0
 45 46  2  0  0  0
 45113  1  0  0  0
 46114  1  0  0  0
 47115  1  0  0  0
 47116  1  0  0  0
 48 56  1  0  0  0
 48 65  1  0  0  0
 48117  1  0  0  0
 49 50  1  0  0  0
 49 53  1  0  0  0
 49 64  1  0  0  0
 49118  1  0  0  0
 50 51  1  0  0  0
 50119  1  0  0  0
 50120  1  0  0  0
 51 52  1  0  0  0
 51121  1  0  0  0
 51122  1  0  0  0
 52123  1  0  0  0
 52124  1  0  0  0
 53 54  1  0  0  0
 54 55  2  0  0  0
 54125  1  0  0  0
 55 57  1  0  0  0
 55126  1  0  0  0
 56 69  2  0  0  0
 57 58  2  0  0  0
 57127  1  0  0  0
 58128  1  0  0  0
 59 60  1  0  0  0
 59 61  1  0  0  0
 59 62  1  0  0  0
 60129  1  0  0  0
 60130  1  0  0  0
 60131  1  0  0  0
 61132  1  0  0  0
 61133  1  0  0  0
 61134  1  0  0  0
 62135  1  0  0  0
 62136  1  0  0  0
 62137  1  0  0  0
 63 65  1  0  0  0
 63138  1  0  0  0
 63139  1  0  0  0
 63140  1  0  0  0
 64141  1  0  0  0
 65142  1  0  0  0
 68 79  1  0  0  0
 71 72  2  0  0  0
 71 74  1  0  0  0
 71143  1  0  0  0
 72 75  1  0  0  0
 72144  1  0  0  0
 73 74  2  0  0  0
 73 76  1  0  0  0
 73145  1  0  0  0
 74 79  1  0  0  0
 75 76  2  0  0  0
 75 77  1  0  0  0
 76 78  1  0  0  0
 77146  1  0  0  0
 77147  1  0  0  0
 77148  1  0  0  0
 78 83  1  0  0  0
 78149  1  0  0  0
 78150  1  0  0  0
 79151  1  0  0  0
 79152  1  0  0  0
 80 81  1  0  0  0
 80 82  1  0  0  0
 80153  1  0  0  0
 80154  1  0  0  0
 81 83  1  0  0  0
 81155  1  0  0  0
 81156  1  0  0  0
 82157  1  0  0  0
 83158  1  0  0  0
 83159  1  0  0  0
M  CHG  1  83   1
M  ISO  4   1 100  68 101  79 101  82 100
M  END
> <chiral flag>
0

> <version>
0

> <s_m_source_file>
/data/baiqing/PycharmProjects/Reinvent-master-3.2/result/LINK_invent/BTK/process_docking_weight1_custom_sum_contain_oxygen_bond_distance_aromatic_linkinvent_7_9_3/rearranged_h_0124.sdf

> <i_m_source_file_index>
51

> <r_mmod_Potential_Energy-OPLS-2005>
-251.213134765625

> <r_mmod_Stretch_Energy-OPLS-2005>
52.3667526245117

> <r_mmod_Bend_Energy-OPLS-2005>
109.547897338867

> <r_mmod_Torsional_Energy-OPLS-2005>
235.194580078125

> <r_mmod_Improper_Torsional_Energy-OPLS-2005>
4.23084735870361

> <r_mmod_Van_der_Waal_Energy-OPLS-2005>
136.416442871094

> <r_mmod_Electrostatic_Energy-OPLS-2005>
-326.325958251953

> <r_mmod_Solvation_Energy-OPLS-2005>
-485.989868164062

> <b_mmod_Minimization_Converged-OPLS-2005>
0

> <r_mmod_RMS_Derivative-OPLS-2005>
1.4409202337265

$$$$
51
                    3D
 Structure written by MMmdl.
168176  0  0  1  0            999 V2000
  -30.6920  -14.4816   20.5274 C   0  0  0  0  0  0
  -30.4247  -12.2946   19.4349 C   0  0  0  0  0  0
  -29.4974  -12.4832   18.2166 C   0  0  0  0  0  0
  -28.0216  -12.3407   18.6336 C   0  0  0  0  0  0
  -27.6655  -13.1964   19.8787 C   0  0  2  0  0  0
  -28.7090  -12.9951   21.0038 C   0  0  0  0  0  0
  -25.2630  -13.8149   20.5691 C   0  0  0  0  0  0
  -24.1870  -13.0467   20.9195 C   0  0  0  0  0  0
  -24.6381  -11.6905   20.8760 C   0  0  0  0  0  0
  -23.9049  -10.4311   21.0423 C   0  0  0  0  0  0
  -24.3616   -9.4212   21.9183 C   0  0  0  0  0  0
  -23.6302   -8.2245   22.0754 C   0  0  0  0  0  0
  -22.4271   -8.0281   21.3559 C   0  0  0  0  0  0
  -21.9907   -9.0250   20.4639 C   0  0  0  0  0  0
  -22.7234  -10.2136   20.3060 C   0  0  0  0  0  0
  -21.6849   -6.0739   22.5288 C   0  0  0  0  0  0
  -21.4004   -6.5645   23.8221 C   0  0  0  0  0  0
  -21.3661   -5.6796   24.9175 C   0  0  0  0  0  0
  -21.6042   -4.3061   24.7223 C   0  0  0  0  0  0
  -21.8827   -3.8158   23.4347 C   0  0  0  0  0  0
  -21.9199   -4.6975   22.3397 C   0  0  0  0  0  0
  -22.7893  -13.5260   21.1870 C   0  0  0  0  0  0
  -22.1666   -4.2169   21.0986 F   0  0  0  0  0  0
  -21.5621   -3.4533   25.7733 F   0  0  0  0  0  0
  -30.0395  -13.2905   20.4478 N   0  0  0  0  0  0
  -26.3044  -12.9272   20.3386 N   0  0  0  0  0  0
  -25.9308  -11.6453   20.5806 N   0  0  0  0  0  0
  -22.0516  -12.8246   22.0370 N   0  0  0  0  0  0
  -25.4410  -15.1852   20.4070 N   0  0  0  0  0  0
  -31.8434  -14.6422   20.1139 O   0  0  0  0  0  0
  -21.6640   -6.8878   21.4244 O   0  0  0  0  0  0
  -22.3591  -14.5575   20.6689 O   0  0  0  0  0  0
  -24.6079  -31.8667   23.2069 C   0  0  0  0  0  0
  -25.8981  -32.4812   23.8340 C   0  0  1  0  0  0
  -27.2402  -27.4369   20.1194 C   0  0  0  0  0  0
  -25.5819  -33.8610   24.2254 N   0  0  0  0  0  0
  -23.3957  -30.4799   21.5487 C   0  0  2  0  0  0
  -24.8513  -28.9473   20.1168 C   0  0  0  0  0  0
  -22.7361  -29.4585   22.5014 C   0  0  0  0  0  0
  -18.0275  -28.1333   22.8406 C   0  0  0  0  0  0
  -24.1479  -36.7308   23.2635 C   0  0  0  0  0  0
  -25.9238  -30.8353   21.3605 C   0  0  0  0  0  0
  -26.0078  -29.4685   20.7131 C   0  0  0  0  0  0
  -27.2103  -28.7227   20.7070 C   0  0  0  0  0  0
  -26.0729  -26.9293   19.5149 C   0  0  0  0  0  0
  -24.8800  -27.6799   19.5052 C   0  0  0  0  0  0
  -23.6028  -29.8002   20.1689 C   0  0  0  0  0  0
  -25.4085  -36.3111   24.0336 C   0  0  1  0  0  0
  -20.5843  -28.3470   23.1278 C   0  0  2  0  0  0
  -20.6702  -26.9283   22.5132 C   0  0  0  0  0  0
  -19.5610  -26.6275   21.5042 C   0  0  0  0  0  0
  -18.1816  -26.7888   22.1446 C   0  0  0  0  0  0
  -19.1541  -28.8681   23.2929 C   0  0  0  0  0  0
  -18.9501  -30.1323   23.8915 C   0  0  0  0  0  0
  -17.6521  -30.6562   24.0512 C   0  0  0  0  0  0
  -25.9011  -34.9469   23.5104 C   0  0  0  0  0  0
  -16.5402  -29.9171   23.6136 C   0  0  0  0  0  0
  -16.7301  -28.6582   23.0156 C   0  0  0  0  0  0
  -26.4453  -31.6647   25.0690 C   0  0  0  0  0  0
  -25.3709  -31.3711   26.1424 C   0  0  0  0  0  0
  -27.0362  -30.3116   24.6092 C   0  0  0  0  0  0
  -27.5982  -32.4419   25.7496 C   0  0  0  0  0  0
  -27.5564  -37.1798   24.8460 C   0  0  0  0  0  0
  -21.4097  -29.2924   22.3754 N   0  0  0  0  0  0
  -26.4271  -37.3790   23.9412 N   0  0  0  0  0  0
  -24.6595  -31.0770   22.0951 N   0  0  0  0  0  0
  -23.4161  -28.8238   23.3112 O   0  0  0  0  0  0
  -28.3887  -26.6758   20.1303 O   0  0  0  0  0  0
  -26.5629  -34.8945   22.4710 O   0  0  0  0  0  0
  -23.5296  -32.1389   23.7502 O   0  0  0  0  0  0
  -29.7036  -19.3156   19.7946 C   0  0  0  0  0  0
  -29.4106  -20.6798   20.4512 C   0  0  0  0  0  0
  -28.6014  -18.2214   21.7637 C   0  0  0  0  0  0
  -29.8199  -18.1618   20.8156 C   0  0  1  0  0  0
  -28.1554  -20.6512   21.3674 C   0  0  2  0  0  0
  -26.4952  -22.2128   22.7224 C   0  0  0  0  0  0
  -27.4887  -19.4575   23.5387 C   0  0  0  0  0  0
  -30.0044  -16.8126   20.0520 C   0  0  0  0  0  0
  -28.6529  -24.2166   20.4282 C   0  0  0  0  0  0
  -27.5733  -23.1246   20.6744 C   0  0  0  0  0  0
  -28.3919  -25.5984   21.0875 C   0  0  0  0  0  0
  -27.7881  -22.1231   21.8693 C   0  0  2  0  0  0
  -29.9102  -15.5461   20.8084 N   0  0  0  0  0  0
  -28.4220  -19.5711   22.3918 N   0  3  1  0  0  0
  -31.4703  -12.3794   19.1349 H   0  0  0  0  0  0
  -30.3171  -11.2890   19.8396 H   0  0  0  0  0  0
  -29.7366  -11.7544   17.4390 H   0  0  0  0  0  0
  -29.6620  -13.4672   17.7750 H   0  0  0  0  0  0
  -27.8389  -11.2857   18.8413 H   0  0  0  0  0  0
  -27.3662  -12.5957   17.7998 H   0  0  0  0  0  0
  -27.7068  -14.2378   19.5617 H   0  0  0  0  0  0
  -28.6875  -11.9674   21.3661 H   0  0  0  0  0  0
  -28.4837  -13.6150   21.8732 H   0  0  0  0  0  0
  -25.2748   -9.5684   22.4769 H   0  0  0  0  0  0
  -24.0009   -7.4627   22.7471 H   0  0  0  0  0  0
  -21.0853   -8.8768   19.8939 H   0  0  0  0  0  0
  -22.3700  -10.9672   19.6182 H   0  0  0  0  0  0
  -21.2001   -7.6155   23.9721 H   0  0  0  0  0  0
  -21.1460   -6.0528   25.9086 H   0  0  0  0  0  0
  -22.0610   -2.7622   23.2839 H   0  0  0  0  0  0
  -22.4130  -11.9885   22.4723 H   0  0  0  0  0  0
  -21.1137  -13.1272   22.2615 H   0  0  0  0  0  0
  -24.6643  -15.8338   20.4812 H   0  0  0  0  0  0
  -26.2729  -15.6051   20.0146 H   0  0  0  0  0  0
  -26.7019  -32.5547   23.1091 H   0  0  0  0  0  0
  -24.9876  -33.9746   25.0329 H   0  0  0  0  0  0
  -22.6791  -31.2903   21.4038 H   0  0  0  0  0  0
  -23.3739  -35.9652   23.3325 H   0  0  0  0  0  0
  -24.3564  -36.8887   22.2043 H   0  0  0  0  0  0
  -23.7235  -37.6511   23.6642 H   0  0  0  0  0  0
  -26.0349  -31.6014   20.5930 H   0  0  0  0  0  0
  -26.8102  -30.8904   21.9798 H   0  0  0  0  0  0
  -28.1067  -29.1239   21.1629 H   0  0  0  0  0  0
  -26.0969  -25.9488   19.0601 H   0  0  0  0  0  0
  -23.9979  -27.2723   19.0325 H   0  0  0  0  0  0
  -23.6896  -30.5708   19.4043 H   0  0  0  0  0  0
  -22.7332  -29.2002   19.8873 H   0  0  0  0  0  0
  -25.1277  -36.1945   25.0823 H   0  0  0  0  0  0
  -21.0005  -28.2798   24.1368 H   0  0  0  0  0  0
  -20.5711  -26.1916   23.3102 H   0  0  0  0  0  0
  -21.6565  -26.7410   22.0814 H   0  0  0  0  0  0
  -19.6733  -25.6170   21.1078 H   0  0  0  0  0  0
  -19.6517  -27.3017   20.6495 H   0  0  0  0  0  0
  -17.4114  -26.6780   21.3791 H   0  0  0  0  0  0
  -17.9962  -26.0001   22.8764 H   0  0  0  0  0  0
  -19.7976  -30.7159   24.2267 H   0  0  0  0  0  0
  -17.5101  -31.6277   24.5049 H   0  0  0  0  0  0
  -15.5443  -30.3207   23.7179 H   0  0  0  0  0  0
  -15.8682  -28.1090   22.6588 H   0  0  0  0  0  0
  -24.5847  -30.7137   25.7706 H   0  0  0  0  0  0
  -24.8942  -32.2865   26.4937 H   0  0  0  0  0  0
  -25.8020  -30.8769   27.0138 H   0  0  0  0  0  0
  -26.2953  -29.6838   24.1128 H   0  0  0  0  0  0
  -27.4160  -29.7383   25.4562 H   0  0  0  0  0  0
  -27.8744  -30.4486   23.9252 H   0  0  0  0  0  0
  -27.2528  -33.3695   26.2082 H   0  0  0  0  0  0
  -28.3829  -32.7022   25.0376 H   0  0  0  0  0  0
  -28.0630  -31.8570   26.5444 H   0  0  0  0  0  0
  -28.2606  -38.0076   24.7506 H   0  0  0  0  0  0
  -28.1044  -36.2608   24.6301 H   0  0  0  0  0  0
  -27.2305  -37.1477   25.8873 H   0  0  0  0  0  0
  -20.9247  -29.8604   21.6953 H   0  0  0  0  0  0
  -26.0175  -38.2883   24.1379 H   0  0  0  0  0  0
  -30.6202  -19.3947   19.2077 H   0  0  0  0  0  0
  -28.9110  -19.1016   19.0784 H   0  0  0  0  0  0
  -29.3051  -21.4078   19.6483 H   0  0  0  0  0  0
  -30.2809  -20.9979   21.0246 H   0  0  0  0  0  0
  -28.7531  -17.4649   22.5382 H   0  0  0  0  0  0
  -27.6949  -17.9374   21.2283 H   0  0  0  0  0  0
  -30.7133  -18.3278   21.4189 H   0  0  0  0  0  0
  -27.3091  -20.3115   20.7692 H   0  0  0  0  0  0
  -25.6874  -21.6075   22.3074 H   0  0  0  0  0  0
  -26.1286  -23.2361   22.7977 H   0  0  0  0  0  0
  -26.6351  -21.9405   23.7624 H   0  0  0  0  0  0
  -27.6457  -18.5340   24.0979 H   0  0  0  0  0  0
  -26.4460  -19.4689   23.2200 H   0  0  0  0  0  0
  -27.6865  -20.2388   24.2668 H   0  0  0  0  0  0
  -30.9519  -16.8690   19.5114 H   0  0  0  0  0  0
  -29.2441  -16.7341   19.2746 H   0  0  0  0  0  0
  -28.7204  -24.3773   19.3523 H   0  0  0  0  0  0
  -29.6392  -23.8454   20.7105 H   0  0  0  0  0  0
  -27.4445  -22.5488   19.7574 H   0  0  0  0  0  0
  -26.6132  -23.6395   20.7494 H   0  0  0  0  0  0
  -29.1967  -25.8011   21.7990 H   0  0  0  0  0  0
  -27.4802  -25.5834   21.6914 H   0  0  0  0  0  0
  -28.6072  -22.4946   22.4899 H   0  0  0  0  0  0
  -29.0008  -15.3048   21.1704 H   0  0  0  0  0  0
  -29.3100  -19.8040   22.8093 H   0  0  0  0  0  0
  1 25  1  0  0  0
  1 30  2  0  0  0
  1 83  1  0  0  0
  2  3  1  0  0  0
  2 25  1  0  0  0
  2 85  1  0  0  0
  2 86  1  0  0  0
  3  4  1  0  0  0
  3 87  1  0  0  0
  3 88  1  0  0  0
  4  5  1  0  0  0
  4 89  1  0  0  0
  4 90  1  0  0  0
  5  6  1  0  0  0
  5 26  1  0  0  0
  5 91  1  0  0  0
  6 25  1  0  0  0
  6 92  1  0  0  0
  6 93  1  0  0  0
  7  8  2  0  0  0
  7 26  1  0  0  0
  7 29  1  0  0  0
  8  9  1  0  0  0
  8 22  1  0  0  0
  9 10  1  0  0  0
  9 27  2  0  0  0
 10 11  2  0  0  0
 10 15  1  0  0  0
 11 12  1  0  0  0
 11 94  1  0  0  0
 12 13  2  0  0  0
 12 95  1  0  0  0
 13 14  1  0  0  0
 13 31  1  0  0  0
 14 15  2  0  0  0
 14 96  1  0  0  0
 15 97  1  0  0  0
 16 17  2  0  0  0
 16 21  1  0  0  0
 16 31  1  0  0  0
 17 18  1  0  0  0
 17 98  1  0  0  0
 18 19  2  0  0  0
 18 99  1  0  0  0
 19 20  1  0  0  0
 19 24  1  0  0  0
 20 21  2  0  0  0
 20100  1  0  0  0
 21 23  1  0  0  0
 22 28  1  0  0  0
 22 32  2  0  0  0
 26 27  1  0  0  0
 28101  1  0  0  0
 28102  1  0  0  0
 29103  1  0  0  0
 29104  1  0  0  0
 33 34  1  0  0  0
 33 66  1  0  0  0
 33 70  2  0  0  0
 34 36  1  0  0  0
 34 59  1  0  0  0
 34105  1  0  0  0
 35 44  2  0  0  0
 35 45  1  0  0  0
 35 68  1  0  0  0
 36 56  1  0  0  0
 36106  1  0  0  0
 37 39  1  0  0  0
 37 47  1  0  0  0
 37 66  1  0  0  0
 37107  1  0  0  0
 38 43  2  0  0  0
 38 46  1  0  0  0
 38 47  1  0  0  0
 39 64  1  0  0  0
 39 67  2  0  0  0
 40 52  1  0  0  0
 40 53  2  0  0  0
 40 58  1  0  0  0
 41108  1  0  0  0
 41109  1  0  0  0
 41110  1  0  0  0
 41 48  1  0  0  0
 42 43  1  0  0  0
 42 66  1  0  0  0
 42111  1  0  0  0
 42112  1  0  0  0
 43 44  1  0  0  0
 44113  1  0  0  0
 45 46  2  0  0  0
 45114  1  0  0  0
 46115  1  0  0  0
 47116  1  0  0  0
 47117  1  0  0  0
 48 56  1  0  0  0
 48 65  1  0  0  0
 48118  1  0  0  0
 49 50  1  0  0  0
 49 53  1  0  0  0
 49 64  1  0  0  0
 49119  1  0  0  0
 50 51  1  0  0  0
 50120  1  0  0  0
 50121  1  0  0  0
 51 52  1  0  0  0
 51122  1  0  0  0
 51123  1  0  0  0
 52124  1  0  0  0
 52125  1  0  0  0
 53 54  1  0  0  0
 54 55  2  0  0  0
 54126  1  0  0  0
 55 57  1  0  0  0
 55127  1  0  0  0
 56 69  2  0  0  0
 57 58  2  0  0  0
 57128  1  0  0  0
 58129  1  0  0  0
 59 60  1  0  0  0
 59 61  1  0  0  0
 59 62  1  0  0  0
 60130  1  0  0  0
 60131  1  0  0  0
 60132  1  0  0  0
 61133  1  0  0  0
 61134  1  0  0  0
 61135  1  0  0  0
 62136  1  0  0  0
 62137  1  0  0  0
 62138  1  0  0  0
 63 65  1  0  0  0
 63139  1  0  0  0
 63140  1  0  0  0
 63141  1  0  0  0
 64142  1  0  0  0
 65143  1  0  0  0
 68 81  1  0  0  0
 71 72  1  0  0  0
 71 74  1  0  0  0
 71144  1  0  0  0
 71145  1  0  0  0
 72146  1  0  0  0
 72147  1  0  0  0
 72 75  1  0  0  0
 73 74  1  0  0  0
 73 84  1  0  0  0
 73148  1  0  0  0
 73149  1  0  0  0
 74 78  1  0  0  0
 74150  1  0  0  0
 75 82  1  0  0  0
 75 84  1  0  0  0
 75151  1  0  0  0
 76152  1  0  0  0
 76153  1  0  0  0
 76154  1  0  0  0
 76 82  1  0  0  0
 77155  1  0  0  0
 77156  1  0  0  0
 77157  1  0  0  0
 77 84  1  0  0  0
 78 83  1  0  0  0
 78158  1  0  0  0
 78159  1  0  0  0
 79 80  1  0  0  0
 79 81  1  0  0  0
 79160  1  0  0  0
 79161  1  0  0  0
 80 82  1  0  0  0
 80162  1  0  0  0
 80163  1  0  0  0
 81164  1  0  0  0
 81165  1  0  0  0
 82166  1  0  0  0
 83167  1  0  0  0
 84168  1  0  0  0
M  CHG  1  84   1
M  ISO  4   1 100  68 101  81 101  83 100
M  END
> <chiral flag>
0

> <version>
0

> <s_m_source_file>
/data/baiqing/PycharmProjects/Reinvent-master-3.2/result/LINK_invent/BTK/process_docking_weight1_custom_sum_contain_oxygen_bond_distance_aromatic_linkinvent_7_9_3/rearranged_h_0124.sdf

> <i_m_source_file_index>
52

> <r_mmod_Potential_Energy-OPLS-2005>
5.20259571075439

> <r_mmod_Stretch_Energy-OPLS-2005>
49.491756439209

> <r_mmod_Bend_Energy-OPLS-2005>
128.73371887207

> <r_mmod_Torsional_Energy-OPLS-2005>
328.890533447266

> <r_mmod_Improper_Torsional_Energy-OPLS-2005>
9.69543361663818

> <r_mmod_Van_der_Waal_Energy-OPLS-2005>
144.234115600586

> <r_mmod_Electrostatic_Energy-OPLS-2005>
-229.578567504883

> <r_mmod_Solvation_Energy-OPLS-2005>
-441.685791015625

> <b_mmod_Minimization_Converged-OPLS-2005>
0

> <r_mmod_RMS_Derivative-OPLS-2005>
5.67163848876953

$$$$
52
                    3D
 Structure written by MMmdl.
176185  0  0  1  0            999 V2000
  -30.7118  -14.4363   20.6421 C   0  0  0  0  0  0
  -30.4291  -12.3132   19.4038 C   0  0  0  0  0  0
  -29.4915  -12.5207   18.1972 C   0  0  0  0  0  0
  -28.0142  -12.3764   18.6147 C   0  0  0  0  0  0
  -27.6661  -13.2017   19.8820 C   0  0  2  0  0  0
  -28.7058  -12.9479   20.9955 C   0  0  0  0  0  0
  -25.2615  -13.8159   20.5690 C   0  0  0  0  0  0
  -24.1844  -13.0431   20.9186 C   0  0  0  0  0  0
  -24.6396  -11.6905   20.8735 C   0  0  0  0  0  0
  -23.9053  -10.4293   21.0414 C   0  0  0  0  0  0
  -24.3607   -9.4211   21.9187 C   0  0  0  0  0  0
  -23.6289   -8.2242   22.0749 C   0  0  0  0  0  0
  -22.4276   -8.0283   21.3540 C   0  0  0  0  0  0
  -21.9907   -9.0252   20.4635 C   0  0  0  0  0  0
  -22.7233  -10.2142   20.3053 C   0  0  0  0  0  0
  -21.6846   -6.0736   22.5273 C   0  0  0  0  0  0
  -21.4010   -6.5636   23.8213 C   0  0  0  0  0  0
  -21.3665   -5.6781   24.9176 C   0  0  0  0  0  0
  -21.6048   -4.3049   24.7215 C   0  0  0  0  0  0
  -21.8812   -3.8142   23.4335 C   0  0  0  0  0  0
  -21.9192   -4.6961   22.3396 C   0  0  0  0  0  0
  -22.7880  -13.5248   21.1848 C   0  0  0  0  0  0
  -22.1658   -4.2152   21.0968 F   0  0  0  0  0  0
  -21.5631   -3.4527   25.7729 F   0  0  0  0  0  0
  -30.0416  -13.2673   20.4533 N   0  0  0  0  0  0
  -26.3046  -12.9308   20.3392 N   0  0  0  0  0  0
  -25.9318  -11.6478   20.5753 N   0  0  0  0  0  0
  -22.0498  -12.8229   22.0397 N   0  0  0  0  0  0
  -25.4384  -15.1859   20.4114 N   0  0  0  0  0  0
  -31.7888  -14.7024   20.1004 O   0  0  0  0  0  0
  -21.6636   -6.8883   21.4243 O   0  0  0  0  0  0
  -22.3567  -14.5552   20.6712 O   0  0  0  0  0  0
  -24.6087  -31.8665   23.2080 C   0  0  0  0  0  0
  -25.8955  -32.4842   23.8401 C   0  0  1  0  0  0
  -27.2593  -27.4448   20.1065 C   0  0  0  0  0  0
  -25.5807  -33.8644   24.2290 N   0  0  0  0  0  0
  -23.4037  -30.4815   21.5485 C   0  0  2  0  0  0
  -24.8601  -28.9416   20.1284 C   0  0  0  0  0  0
  -22.7407  -29.4616   22.5006 C   0  0  0  0  0  0
  -18.0245  -28.1375   22.8467 C   0  0  0  0  0  0
  -24.1509  -36.7357   23.2636 C   0  0  0  0  0  0
  -25.9286  -30.8333   21.3638 C   0  0  0  0  0  0
  -26.0146  -29.4613   20.7284 C   0  0  0  0  0  0
  -27.2173  -28.7162   20.7223 C   0  0  0  0  0  0
  -26.0905  -26.9350   19.5058 C   0  0  0  0  0  0
  -24.8875  -27.6709   19.5233 C   0  0  0  0  0  0
  -23.6178  -29.8044   20.1679 C   0  0  0  0  0  0
  -25.4125  -36.3119   24.0297 C   0  0  1  0  0  0
  -20.5832  -28.3667   23.1329 C   0  0  2  0  0  0
  -20.6762  -26.9411   22.5419 C   0  0  0  0  0  0
  -19.5753  -26.6390   21.5211 C   0  0  0  0  0  0
  -18.1909  -26.7921   22.1597 C   0  0  0  0  0  0
  -19.1494  -28.8841   23.2887 C   0  0  0  0  0  0
  -18.9430  -30.1437   23.8916 C   0  0  0  0  0  0
  -17.6436  -30.6592   24.0566 C   0  0  0  0  0  0
  -25.9013  -34.9479   23.5095 C   0  0  0  0  0  0
  -16.5330  -29.9086   23.6332 C   0  0  0  0  0  0
  -16.7232  -28.6498   23.0337 C   0  0  0  0  0  0
  -26.4387  -31.6630   25.0729 C   0  0  0  0  0  0
  -25.3650  -31.3713   26.1461 C   0  0  0  0  0  0
  -27.0200  -30.3078   24.6075 C   0  0  0  0  0  0
  -27.5953  -32.4390   25.7462 C   0  0  0  0  0  0
  -27.5596  -37.1807   24.8440 C   0  0  0  0  0  0
  -21.4121  -29.3042   22.3772 N   0  0  0  0  0  0
  -26.4329  -37.3780   23.9361 N   0  0  0  0  0  0
  -24.6654  -31.0740   22.0996 N   0  0  0  0  0  0
  -23.4166  -28.8140   23.3056 O   0  0  0  0  0  0
  -28.4528  -26.7783   19.9474 O   0  0  0  0  0  0
  -26.5636  -34.8915   22.4690 O   0  0  0  0  0  0
  -23.5273  -32.1425   23.7442 O   0  0  0  0  0  0
  -31.2659  -22.2098   21.7751 C   0  0  0  0  0  0
  -30.4344  -23.3535   21.8204 C   0  0  0  0  0  0
  -30.8703  -21.4351   20.7238 C   0  0  0  0  0  0
  -29.5575  -23.3038   20.7698 C   0  0  0  0  0  0
  -25.7300  -21.7378   20.6270 C   0  0  0  0  0  0
  -24.7631  -22.8923   20.5799 C   0  0  0  0  0  0
  -26.2045  -23.0955   20.1623 C   0  0  0  0  0  0
  -28.5770  -20.3047   18.8131 C   0  0  0  0  0  0
  -30.1951  -21.9105   17.6130 C   0  0  0  0  0  0
  -31.4373  -20.0869   20.3487 C   0  0  0  0  0  0
  -27.1036  -23.9504   21.0348 C   0  0  0  0  0  0
  -30.5006  -16.6637   21.8493 C   0  0  0  0  0  0
  -30.6814  -17.6996   20.7135 C   0  0  0  0  0  0
  -28.8290  -25.7734   20.8930 C   0  0  0  0  0  0
  -28.4770  -24.3268   20.4235 C   0  0  1  0  0  0
  -29.2139  -21.7097   18.7829 C   0  0  0  0  0  0
  -29.8372  -22.1192   20.0553 N   0  0  0  0  0  0
  -30.0768  -15.3228   21.4239 N   0  0  0  0  0  0
  -30.9173  -19.0562   21.2695 N   0  3  0  0  0  0
  -31.4707  -12.4304   19.1003 H   0  0  0  0  0  0
  -30.3450  -11.2928   19.7799 H   0  0  0  0  0  0
  -29.7266  -11.8028   17.4096 H   0  0  0  0  0  0
  -29.6590  -13.5099   17.7681 H   0  0  0  0  0  0
  -27.8233  -11.3184   18.7986 H   0  0  0  0  0  0
  -27.3609  -12.6630   17.7898 H   0  0  0  0  0  0
  -27.7223  -14.2551   19.6068 H   0  0  0  0  0  0
  -28.6819  -11.9015   21.3026 H   0  0  0  0  0  0
  -28.4494  -13.5087   21.8955 H   0  0  0  0  0  0
  -25.2755   -9.5685   22.4764 H   0  0  0  0  0  0
  -23.9998   -7.4630   22.7467 H   0  0  0  0  0  0
  -21.0843   -8.8776   19.8934 H   0  0  0  0  0  0
  -22.3698  -10.9681   19.6158 H   0  0  0  0  0  0
  -21.2000   -7.6140   23.9721 H   0  0  0  0  0  0
  -21.1489   -6.0507   25.9080 H   0  0  0  0  0  0
  -22.0585   -2.7602   23.2825 H   0  0  0  0  0  0
  -22.4105  -11.9890   22.4778 H   0  0  0  0  0  0
  -21.1111  -13.1255   22.2577 H   0  0  0  0  0  0
  -24.6799  -15.8505   20.5252 H   0  0  0  0  0  0
  -26.2990  -15.6172   20.0960 H   0  0  0  0  0  0
  -26.7013  -32.5579   23.1175 H   0  0  0  0  0  0
  -24.9962  -33.9849   25.0431 H   0  0  0  0  0  0
  -22.6898  -31.2933   21.4010 H   0  0  0  0  0  0
  -23.3746  -35.9713   23.3311 H   0  0  0  0  0  0
  -24.3626  -36.9008   22.2063 H   0  0  0  0  0  0
  -23.7274  -37.6538   23.6706 H   0  0  0  0  0  0
  -26.0286  -31.5917   20.5860 H   0  0  0  0  0  0
  -26.8167  -30.9062   21.9775 H   0  0  0  0  0  0
  -28.1192  -29.1261   21.1589 H   0  0  0  0  0  0
  -26.1227  -25.9824   18.9993 H   0  0  0  0  0  0
  -24.0022  -27.2680   19.0485 H   0  0  0  0  0  0
  -23.7149  -30.5707   19.3972 H   0  0  0  0  0  0
  -22.7489  -29.2099   19.8810 H   0  0  0  0  0  0
  -25.1307  -36.2002   25.0787 H   0  0  0  0  0  0
  -20.9876  -28.3238   24.1465 H   0  0  0  0  0  0
  -20.5699  -26.2269   23.3594 H   0  0  0  0  0  0
  -21.6634  -26.7487   22.1210 H   0  0  0  0  0  0
  -19.6942  -25.6300   21.1246 H   0  0  0  0  0  0
  -19.6709  -27.3196   20.6748 H   0  0  0  0  0  0
  -17.4187  -26.6627   21.4000 H   0  0  0  0  0  0
  -18.0319  -26.0076   22.9013 H   0  0  0  0  0  0
  -19.7913  -30.7214   24.2325 H   0  0  0  0  0  0
  -17.5000  -31.6282   24.5145 H   0  0  0  0  0  0
  -15.5319  -30.2986   23.7689 H   0  0  0  0  0  0
  -15.8621  -28.0836   22.7050 H   0  0  0  0  0  0
  -24.5816  -30.7071   25.7775 H   0  0  0  0  0  0
  -24.8833  -32.2865   26.4936 H   0  0  0  0  0  0
  -25.7993  -30.8851   27.0207 H   0  0  0  0  0  0
  -26.2710  -29.6846   24.1166 H   0  0  0  0  0  0
  -27.4004  -29.7294   25.4497 H   0  0  0  0  0  0
  -27.8542  -30.4381   23.9174 H   0  0  0  0  0  0
  -27.2537  -33.3698   26.2001 H   0  0  0  0  0  0
  -28.3733  -32.6957   25.0260 H   0  0  0  0  0  0
  -28.0636  -31.8571   26.5399 H   0  0  0  0  0  0
  -28.2559  -38.0165   24.7559 H   0  0  0  0  0  0
  -28.1150  -36.2680   24.6215 H   0  0  0  0  0  0
  -27.2318  -37.1411   25.8845 H   0  0  0  0  0  0
  -20.9282  -29.8822   21.7039 H   0  0  0  0  0  0
  -26.0226  -38.2843   24.1393 H   0  0  0  0  0  0
  -32.0723  -21.9713   22.4577 H   0  0  0  0  0  0
  -30.4911  -24.1449   22.5562 H   0  0  0  0  0  0
  -25.6375  -20.9607   19.8717 H   0  0  0  0  0  0
  -26.0526  -21.3939   21.6083 H   0  0  0  0  0  0
  -24.4417  -23.3335   21.5221 H   0  0  0  0  0  0
  -24.0115  -22.8897   19.7927 H   0  0  0  0  0  0
  -26.3256  -23.2557   19.0936 H   0  0  0  0  0  0
  -27.9531  -20.1446   17.9331 H   0  0  0  0  0  0
  -27.9491  -20.1654   19.6923 H   0  0  0  0  0  0
  -29.2972  -19.4959   18.7887 H   0  0  0  0  0  0
  -29.7375  -21.6515   16.6571 H   0  0  0  0  0  0
  -31.1001  -21.3163   17.7088 H   0  0  0  0  0  0
  -30.5174  -22.9504   17.5524 H   0  0  0  0  0  0
  -32.5221  -20.1034   20.4554 H   0  0  0  0  0  0
  -31.2785  -19.8275   19.3076 H   0  0  0  0  0  0
  -27.2430  -23.4805   22.0080 H   0  0  0  0  0  0
  -26.5318  -24.8531   21.2442 H   0  0  0  0  0  0
  -29.7367  -17.0265   22.5404 H   0  0  0  0  0  0
  -31.4244  -16.5805   22.4233 H   0  0  0  0  0  0
  -29.7976  -17.7118   20.0754 H   0  0  0  0  0  0
  -31.5322  -17.4206   20.0929 H   0  0  0  0  0  0
  -29.9137  -25.8685   20.9653 H   0  0  0  0  0  0
  -28.4492  -25.9942   21.8923 H   0  0  0  0  0  0
  -28.3976  -24.3925   19.3394 H   0  0  0  0  0  0
  -28.3809  -22.3780   18.5863 H   0  0  0  0  0  0
  -29.2116  -14.9902   21.8255 H   0  0  0  0  0  0
  -30.0633  -19.4183   21.6613 H   0  0  0  0  0  0
  -31.5843  -18.9874   22.0182 H   0  0  0  0  0  0
  1 25  1  0  0  0
  1 30  2  0  0  0
  1 88  1  0  0  0
  2  3  1  0  0  0
  2 25  1  0  0  0
  2 90  1  0  0  0
  2 91  1  0  0  0
  3  4  1  0  0  0
  3 92  1  0  0  0
  3 93  1  0  0  0
  4  5  1  0  0  0
  4 94  1  0  0  0
  4 95  1  0  0  0
  5  6  1  0  0  0
  5 26  1  0  0  0
  5 96  1  0  0  0
  6 25  1  0  0  0
  6 97  1  0  0  0
  6 98  1  0  0  0
  7  8  2  0  0  0
  7 26  1  0  0  0
  7 29  1  0  0  0
  8  9  1  0  0  0
  8 22  1  0  0  0
  9 10  1  0  0  0
  9 27  2  0  0  0
 10 11  2  0  0  0
 10 15  1  0  0  0
 11 12  1  0  0  0
 11 99  1  0  0  0
 12 13  2  0  0  0
 12100  1  0  0  0
 13 14  1  0  0  0
 13 31  1  0  0  0
 14 15  2  0  0  0
 14101  1  0  0  0
 15102  1  0  0  0
 16 17  2  0  0  0
 16 21  1  0  0  0
 16 31  1  0  0  0
 17 18  1  0  0  0
 17103  1  0  0  0
 18 19  2  0  0  0
 18104  1  0  0  0
 19 20  1  0  0  0
 19 24  1  0  0  0
 20 21  2  0  0  0
 20105  1  0  0  0
 21 23  1  0  0  0
 22 28  1  0  0  0
 22 32  2  0  0  0
 26 27  1  0  0  0
 28106  1  0  0  0
 28107  1  0  0  0
 29108  1  0  0  0
 29109  1  0  0  0
 33 34  1  0  0  0
 33 66  1  0  0  0
 33 70  2  0  0  0
 34 36  1  0  0  0
 34 59  1  0  0  0
 34110  1  0  0  0
 35 44  2  0  0  0
 35 45  1  0  0  0
 35 68  1  0  0  0
 36 56  1  0  0  0
 36111  1  0  0  0
 37 39  1  0  0  0
 37 47  1  0  0  0
 37 66  1  0  0  0
 37112  1  0  0  0
 38 43  2  0  0  0
 38 46  1  0  0  0
 38 47  1  0  0  0
 39 64  1  0  0  0
 39 67  2  0  0  0
 40 52  1  0  0  0
 40 53  2  0  0  0
 40 58  1  0  0  0
 41113  1  0  0  0
 41114  1  0  0  0
 41115  1  0  0  0
 41 48  1  0  0  0
 42 43  1  0  0  0
 42 66  1  0  0  0
 42116  1  0  0  0
 42117  1  0  0  0
 43 44  1  0  0  0
 44118  1  0  0  0
 45 46  2  0  0  0
 45119  1  0  0  0
 46120  1  0  0  0
 47121  1  0  0  0
 47122  1  0  0  0
 48 56  1  0  0  0
 48 65  1  0  0  0
 48123  1  0  0  0
 49 50  1  0  0  0
 49 53  1  0  0  0
 49 64  1  0  0  0
 49124  1  0  0  0
 50 51  1  0  0  0
 50125  1  0  0  0
 50126  1  0  0  0
 51 52  1  0  0  0
 51127  1  0  0  0
 51128  1  0  0  0
 52129  1  0  0  0
 52130  1  0  0  0
 53 54  1  0  0  0
 54 55  2  0  0  0
 54131  1  0  0  0
 55 57  1  0  0  0
 55132  1  0  0  0
 56 69  2  0  0  0
 57 58  2  0  0  0
 57133  1  0  0  0
 58134  1  0  0  0
 59 60  1  0  0  0
 59 61  1  0  0  0
 59 62  1  0  0  0
 60135  1  0  0  0
 60136  1  0  0  0
 60137  1  0  0  0
 61138  1  0  0  0
 61139  1  0  0  0
 61140  1  0  0  0
 62141  1  0  0  0
 62142  1  0  0  0
 62143  1  0  0  0
 63 65  1  0  0  0
 63144  1  0  0  0
 63145  1  0  0  0
 63146  1  0  0  0
 64147  1  0  0  0
 65148  1  0  0  0
 68 84  1  0  0  0
 71 72  1  0  0  0
 71 73  2  0  0  0
 71149  1  0  0  0
 72 74  2  0  0  0
 72150  1  0  0  0
 73 80  1  0  0  0
 73 87  1  0  0  0
 74 85  1  0  0  0
 74 87  1  0  0  0
 75 76  1  0  0  0
 75 77  1  0  0  0
 75151  1  0  0  0
 75152  1  0  0  0
 76 77  1  0  0  0
 76153  1  0  0  0
 76154  1  0  0  0
 77 81  1  0  0  0
 77155  1  0  0  0
 78156  1  0  0  0
 78157  1  0  0  0
 78158  1  0  0  0
 78 86  1  0  0  0
 79 86  1  0  0  0
 79159  1  0  0  0
 79160  1  0  0  0
 79161  1  0  0  0
 80 89  1  0  0  0
 80162  1  0  0  0
 80163  1  0  0  0
 81164  1  0  0  0
 81165  1  0  0  0
 81 85  1  0  0  0
 82 83  1  0  0  0
 82 88  1  0  0  0
 82166  1  0  0  0
 82167  1  0  0  0
 83 89  1  0  0  0
 83168  1  0  0  0
 83169  1  0  0  0
 84 85  1  0  0  0
 84170  1  0  0  0
 84171  1  0  0  0
 85172  1  0  0  0
 86 87  1  0  0  0
 86173  1  0  0  0
 88174  1  0  0  0
 89175  1  0  0  0
 89176  1  0  0  0
M  CHG  1  89   1
M  ISO  4   1 100  68 101  84 101  88 100
M  END
> <chiral flag>
0

> <version>
0

> <s_m_source_file>
/data/baiqing/PycharmProjects/Reinvent-master-3.2/result/LINK_invent/BTK/process_docking_weight1_custom_sum_contain_oxygen_bond_distance_aromatic_linkinvent_7_9_3/rearranged_h_0124.sdf

> <i_m_source_file_index>
53

> <r_mmod_Potential_Energy-OPLS-2005>
-215.976104736328

> <r_mmod_Stretch_Energy-OPLS-2005>
40.46240234375

> <r_mmod_Bend_Energy-OPLS-2005>
120.265747070312

> <r_mmod_Torsional_Energy-OPLS-2005>
313.742279052734

> <r_mmod_Improper_Torsional_Energy-OPLS-2005>
2.86000800132751

> <r_mmod_Van_der_Waal_Energy-OPLS-2005>
116.312393188477

> <r_mmod_Electrostatic_Energy-OPLS-2005>
-371.192504882812

> <r_mmod_Solvation_Energy-OPLS-2005>
-447.842376708984

> <b_mmod_Minimization_Converged-OPLS-2005>
0

> <r_mmod_RMS_Derivative-OPLS-2005>
4.05144071578979

$$$$
53
                    3D
 Structure written by MMmdl.
146154  0  0  1  0            999 V2000
  -30.4639  -15.2029   20.3901 C   0  0  0  0  0  0
  -30.4385  -12.7654   19.5281 C   0  0  0  0  0  0
  -29.5334  -12.5671   18.2876 C   0  0  0  0  0  0
  -28.0792  -12.3010   18.7138 C   0  0  0  0  0  0
  -27.6152  -13.2684   19.8313 C   0  0  2  0  0  0
  -28.6495  -13.4188   20.9666 C   0  0  0  0  0  0
  -25.2401  -13.8243   20.5733 C   0  0  0  0  0  0
  -24.1747  -13.0438   20.9241 C   0  0  0  0  0  0
  -24.6393  -11.6931   20.8763 C   0  0  0  0  0  0
  -23.9087  -10.4290   21.0406 C   0  0  0  0  0  0
  -24.3632   -9.4207   21.9185 C   0  0  0  0  0  0
  -23.6304   -8.2240   22.0749 C   0  0  0  0  0  0
  -22.4288   -8.0273   21.3537 C   0  0  0  0  0  0
  -21.9926   -9.0252   20.4643 C   0  0  0  0  0  0
  -22.7256  -10.2133   20.3059 C   0  0  0  0  0  0
  -21.6851   -6.0735   22.5272 C   0  0  0  0  0  0
  -21.4017   -6.5642   23.8205 C   0  0  0  0  0  0
  -21.3663   -5.6796   24.9168 C   0  0  0  0  0  0
  -21.6043   -4.3056   24.7218 C   0  0  0  0  0  0
  -21.8824   -3.8149   23.4336 C   0  0  0  0  0  0
  -21.9196   -4.6965   22.3393 C   0  0  0  0  0  0
  -22.7766  -13.5188   21.1889 C   0  0  0  0  0  0
  -22.1662   -4.2153   21.0968 F   0  0  0  0  0  0
  -21.5630   -3.4540   25.7731 F   0  0  0  0  0  0
  -29.8892  -13.9067   20.3445 N   0  0  0  0  0  0
  -26.2828  -12.9501   20.3244 N   0  0  0  0  0  0
  -25.9331  -11.6615   20.5749 N   0  0  0  0  0  0
  -22.0434  -12.8160   22.0446 N   0  0  0  0  0  0
  -25.4051  -15.1975   20.4144 N   0  0  0  0  0  0
  -31.6822  -15.2060   20.1664 O   0  0  0  0  0  0
  -21.6645   -6.8879   21.4231 O   0  0  0  0  0  0
  -22.3438  -14.5484   20.6724 O   0  0  0  0  0  0
  -24.6597  -31.8273   23.1731 C   0  0  0  0  0  0
  -25.9286  -32.4619   23.8178 C   0  0  1  0  0  0
  -27.2128  -26.9583   20.1835 C   0  0  0  0  0  0
  -25.5970  -33.8427   24.2105 N   0  0  0  0  0  0
  -23.4728  -30.4413   21.5201 C   0  0  2  0  0  0
  -24.9279  -28.8387   20.1083 C   0  0  0  0  0  0
  -22.7656  -29.4452   22.4767 C   0  0  0  0  0  0
  -18.0328  -28.1430   22.8489 C   0  0  0  0  0  0
  -24.1480  -36.7202   23.2641 C   0  0  0  0  0  0
  -26.0397  -30.6460   21.3962 C   0  0  0  0  0  0
  -26.1089  -29.2368   20.7464 C   0  0  0  0  0  0
  -27.2477  -28.3154   20.7651 C   0  0  0  0  0  0
  -26.0074  -26.7140   19.4851 C   0  0  0  0  0  0
  -24.9013  -27.5984   19.4551 C   0  0  0  0  0  0
  -23.7123  -29.7617   20.1437 C   0  0  0  0  0  0
  -25.4118  -36.2974   24.0311 C   0  0  1  0  0  0
  -20.5954  -28.3752   23.1208 C   0  0  2  0  0  0
  -20.6797  -26.9437   22.5404 C   0  0  0  0  0  0
  -19.5751  -26.6411   21.5224 C   0  0  0  0  0  0
  -18.1941  -26.7965   22.1642 C   0  0  0  0  0  0
  -19.1589  -28.8909   23.2842 C   0  0  0  0  0  0
  -18.9497  -30.1504   23.8870 C   0  0  0  0  0  0
  -17.6489  -30.6611   24.0577 C   0  0  0  0  0  0
  -25.9086  -34.9361   23.5028 C   0  0  0  0  0  0
  -16.5381  -29.9109   23.6353 C   0  0  0  0  0  0
  -16.7313  -28.6531   23.0374 C   0  0  0  0  0  0
  -26.4564  -31.6532   25.0668 C   0  0  0  0  0  0
  -25.3729  -31.3762   26.1355 C   0  0  0  0  0  0
  -27.0435  -30.2909   24.6318 C   0  0  0  0  0  0
  -27.6078  -32.4323   25.7459 C   0  0  0  0  0  0
  -27.5564  -37.1754   24.8478 C   0  0  0  0  0  0
  -21.4323  -29.3043   22.3539 N   0  0  0  0  0  0
  -26.4258  -37.3719   23.9439 N   0  0  0  0  0  0
  -24.7455  -30.9982   22.0841 N   0  0  0  0  0  0
  -23.4225  -28.8014   23.2984 O   0  0  0  0  0  0
  -28.1952  -25.8448   20.2813 O   0  0  0  0  0  0
  -26.5674  -34.8891   22.4607 O   0  0  0  0  0  0
  -23.5673  -32.1211   23.6849 O   0  0  0  0  0  0
  -28.6889  -20.3465   21.4006 C   0  0  0  0  0  0
  -29.2421  -21.8974   19.2774 C   0  0  0  0  0  0
  -28.5546  -22.7154   20.2672 C   0  0  0  0  0  0
  -28.2936  -21.7760   21.3528 C   0  0  0  0  0  0
  -29.3759  -19.6182   20.3540 C   0  0  0  0  0  0
  -27.8204  -24.2783   20.0204 C   0  0  0  0  0  0
  -30.1437  -18.0571   20.3990 C   0  0  0  0  0  0
  -29.6250  -20.5245   19.3221 N   0  0  0  0  0  0
  -29.7186  -16.4690   20.4875 N   0  0  0  0  0  0
  -27.4008  -22.3693   22.7074 Cl  0  0  0  0  0  0
  -31.4601  -12.9605   19.1994 H   0  0  0  0  0  0
  -30.4907  -11.8511   20.1224 H   0  0  0  0  0  0
  -29.9013  -11.7449   17.6733 H   0  0  0  0  0  0
  -29.5749  -13.4604   17.6630 H   0  0  0  0  0  0
  -28.0256  -11.2733   19.0745 H   0  0  0  0  0  0
  -27.4110  -12.3600   17.8533 H   0  0  0  0  0  0
  -27.5407  -14.2410   19.3444 H   0  0  0  0  0  0
  -28.8032  -12.4787   21.4996 H   0  0  0  0  0  0
  -28.2988  -14.1412   21.7057 H   0  0  0  0  0  0
  -25.2777   -9.5684   22.4761 H   0  0  0  0  0  0
  -24.0015   -7.4631   22.7467 H   0  0  0  0  0  0
  -21.0860   -8.8770   19.8946 H   0  0  0  0  0  0
  -22.3707  -10.9671   19.6173 H   0  0  0  0  0  0
  -21.2009   -7.6152   23.9704 H   0  0  0  0  0  0
  -21.1480   -6.0529   25.9073 H   0  0  0  0  0  0
  -22.0601   -2.7613   23.2830 H   0  0  0  0  0  0
  -22.4083  -11.9828   22.4819 H   0  0  0  0  0  0
  -21.1051  -13.1156   22.2680 H   0  0  0  0  0  0
  -24.6309  -15.8459   20.5113 H   0  0  0  0  0  0
  -26.2450  -15.6340   20.0564 H   0  0  0  0  0  0
  -26.7342  -32.5192   23.0886 H   0  0  0  0  0  0
  -25.0143  -33.9512   25.0273 H   0  0  0  0  0  0
  -22.7836  -31.2721   21.3531 H   0  0  0  0  0  0
  -23.3758  -35.9519   23.3271 H   0  0  0  0  0  0
  -24.3558  -36.8866   22.2062 H   0  0  0  0  0  0
  -23.7206  -37.6376   23.6697 H   0  0  0  0  0  0
  -26.2036  -31.3838   20.6095 H   0  0  0  0  0  0
  -26.9061  -30.7142   22.0424 H   0  0  0  0  0  0
  -28.1373  -28.6108   21.3033 H   0  0  0  0  0  0
  -25.8761  -25.7698   18.9796 H   0  0  0  0  0  0
  -24.0062  -27.2906   18.9315 H   0  0  0  0  0  0
  -23.8687  -30.5325   19.3878 H   0  0  0  0  0  0
  -22.8231  -29.2161   19.8238 H   0  0  0  0  0  0
  -25.1305  -36.1768   25.0801 H   0  0  0  0  0  0
  -21.0062  -28.3352   24.1320 H   0  0  0  0  0  0
  -20.5678  -26.2367   23.3645 H   0  0  0  0  0  0
  -21.6662  -26.7425   22.1197 H   0  0  0  0  0  0
  -19.6889  -25.6320   21.1268 H   0  0  0  0  0  0
  -19.6683  -27.3206   20.6739 H   0  0  0  0  0  0
  -17.4214  -26.6743   21.4039 H   0  0  0  0  0  0
  -18.0317  -26.0119   22.9049 H   0  0  0  0  0  0
  -19.7965  -30.7341   24.2220 H   0  0  0  0  0  0
  -17.5040  -31.6284   24.5184 H   0  0  0  0  0  0
  -15.5378  -30.3004   23.7677 H   0  0  0  0  0  0
  -15.8723  -28.0838   22.7102 H   0  0  0  0  0  0
  -24.5960  -30.7030   25.7712 H   0  0  0  0  0  0
  -24.8858  -32.2951   26.4633 H   0  0  0  0  0  0
  -25.8026  -30.9080   27.0222 H   0  0  0  0  0  0
  -26.3063  -29.6624   24.1309 H   0  0  0  0  0  0
  -27.3992  -29.7219   25.4914 H   0  0  0  0  0  0
  -27.9003  -30.4117   23.9685 H   0  0  0  0  0  0
  -27.2676  -33.3703   26.1864 H   0  0  0  0  0  0
  -28.3982  -32.6752   25.0343 H   0  0  0  0  0  0
  -28.0626  -31.8540   26.5512 H   0  0  0  0  0  0
  -28.2574  -38.0058   24.7539 H   0  0  0  0  0  0
  -28.1060  -36.2589   24.6286 H   0  0  0  0  0  0
  -27.2286  -37.1387   25.8880 H   0  0  0  0  0  0
  -20.9546  -29.8786   21.6734 H   0  0  0  0  0  0
  -26.0100  -38.2766   24.1494 H   0  0  0  0  0  0
  -28.4542  -19.8003   22.3035 H   0  0  0  0  0  0
  -29.4738  -22.3619   18.3299 H   0  0  0  0  0  0
  -26.8479  -24.1667   20.5010 H   0  0  0  0  0  0
  -27.5923  -24.2574   18.9550 H   0  0  0  0  0  0
  -30.8429  -18.1613   21.2287 H   0  0  0  0  0  0
  -30.7896  -18.0797   19.5214 H   0  0  0  0  0  0
  -28.7288  -16.3404   20.6339 H   0  0  0  0  0  0
  1 25  1  0  0  0
  1 30  2  0  0  0
  1 79  1  0  0  0
  2  3  1  0  0  0
  2 25  1  0  0  0
  2 81  1  0  0  0
  2 82  1  0  0  0
  3  4  1  0  0  0
  3 83  1  0  0  0
  3 84  1  0  0  0
  4  5  1  0  0  0
  4 85  1  0  0  0
  4 86  1  0  0  0
  5  6  1  0  0  0
  5 26  1  0  0  0
  5 87  1  0  0  0
  6 25  1  0  0  0
  6 88  1  0  0  0
  6 89  1  0  0  0
  7  8  2  0  0  0
  7 26  1  0  0  0
  7 29  1  0  0  0
  8  9  1  0  0  0
  8 22  1  0  0  0
  9 10  1  0  0  0
  9 27  2  0  0  0
 10 11  2  0  0  0
 10 15  1  0  0  0
 11 12  1  0  0  0
 11 90  1  0  0  0
 12 13  2  0  0  0
 12 91  1  0  0  0
 13 14  1  0  0  0
 13 31  1  0  0  0
 14 15  2  0  0  0
 14 92  1  0  0  0
 15 93  1  0  0  0
 16 17  2  0  0  0
 16 21  1  0  0  0
 16 31  1  0  0  0
 17 18  1  0  0  0
 17 94  1  0  0  0
 18 19  2  0  0  0
 18 95  1  0  0  0
 19 20  1  0  0  0
 19 24  1  0  0  0
 20 21  2  0  0  0
 20 96  1  0  0  0
 21 23  1  0  0  0
 22 28  1  0  0  0
 22 32  2  0  0  0
 26 27  1  0  0  0
 28 97  1  0  0  0
 28 98  1  0  0  0
 29 99  1  0  0  0
 29100  1  0  0  0
 33 34  1  0  0  0
 33 66  1  0  0  0
 33 70  2  0  0  0
 34 36  1  0  0  0
 34 59  1  0  0  0
 34101  1  0  0  0
 35 44  2  0  0  0
 35 45  1  0  0  0
 35 68  1  0  0  0
 36 56  1  0  0  0
 36102  1  0  0  0
 37 39  1  0  0  0
 37 47  1  0  0  0
 37 66  1  0  0  0
 37103  1  0  0  0
 38 43  2  0  0  0
 38 46  1  0  0  0
 38 47  1  0  0  0
 39 64  1  0  0  0
 39 67  2  0  0  0
 40 52  1  0  0  0
 40 53  2  0  0  0
 40 58  1  0  0  0
 41104  1  0  0  0
 41105  1  0  0  0
 41106  1  0  0  0
 41 48  1  0  0  0
 42 43  1  0  0  0
 42 66  1  0  0  0
 42107  1  0  0  0
 42108  1  0  0  0
 43 44  1  0  0  0
 44109  1  0  0  0
 45 46  2  0  0  0
 45110  1  0  0  0
 46111  1  0  0  0
 47112  1  0  0  0
 47113  1  0  0  0
 48 56  1  0  0  0
 48 65  1  0  0  0
 48114  1  0  0  0
 49 50  1  0  0  0
 49 53  1  0  0  0
 49 64  1  0  0  0
 49115  1  0  0  0
 50 51  1  0  0  0
 50116  1  0  0  0
 50117  1  0  0  0
 51 52  1  0  0  0
 51118  1  0  0  0
 51119  1  0  0  0
 52120  1  0  0  0
 52121  1  0  0  0
 53 54  1  0  0  0
 54 55  2  0  0  0
 54122  1  0  0  0
 55 57  1  0  0  0
 55123  1  0  0  0
 56 69  2  0  0  0
 57 58  2  0  0  0
 57124  1  0  0  0
 58125  1  0  0  0
 59 60  1  0  0  0
 59 61  1  0  0  0
 59 62  1  0  0  0
 60126  1  0  0  0
 60127  1  0  0  0
 60128  1  0  0  0
 61129  1  0  0  0
 61130  1  0  0  0
 61131  1  0  0  0
 62132  1  0  0  0
 62133  1  0  0  0
 62134  1  0  0  0
 63 65  1  0  0  0
 63135  1  0  0  0
 63136  1  0  0  0
 63137  1  0  0  0
 64138  1  0  0  0
 65139  1  0  0  0
 68 76  1  0  0  0
 71 74  2  0  0  0
 71 75  1  0  0  0
 71140  1  0  0  0
 72 73  2  0  0  0
 72 78  1  0  0  0
 72141  1  0  0  0
 73 74  1  0  0  0
 73 76  1  0  0  0
 74 80  1  0  0  0
 75 77  1  0  0  0
 75 78  2  0  0  0
 76142  1  0  0  0
 76143  1  0  0  0
 77 79  1  0  0  0
 77144  1  0  0  0
 77145  1  0  0  0
 79146  1  0  0  0
M  ISO  4   1 100  68 101  76 101  79 100
M  END
> <chiral flag>
0

> <version>
0

> <s_m_source_file>
/data/baiqing/PycharmProjects/Reinvent-master-3.2/result/LINK_invent/BTK/process_docking_weight1_custom_sum_contain_oxygen_bond_distance_aromatic_linkinvent_7_9_3/rearranged_h_0124.sdf

> <i_m_source_file_index>
54

> <r_mmod_Potential_Energy-OPLS-2005>
802.736938476562

> <r_mmod_Stretch_Energy-OPLS-2005>
458.900115966797

> <r_mmod_Bend_Energy-OPLS-2005>
421.264068603516

> <r_mmod_Torsional_Energy-OPLS-2005>
223.76530456543

> <r_mmod_Improper_Torsional_Energy-OPLS-2005>
9.3719654083252

> <r_mmod_Van_der_Waal_Energy-OPLS-2005>
132.798141479492

> <r_mmod_Electrostatic_Energy-OPLS-2005>
-619.041015625

> <r_mmod_Solvation_Energy-OPLS-2005>
-232.456008911133

> <b_mmod_Minimization_Converged-OPLS-2005>
0

> <r_mmod_RMS_Derivative-OPLS-2005>
1.98120677471161

$$$$
54
                    3D
 Structure written by MMmdl.
169178  0  0  1  0            999 V2000
  -29.8385  -14.0997   21.2504 C   0  0  0  0  0  0
  -30.4297  -12.3501   19.4069 C   0  0  0  0  0  0
  -29.5547  -12.6810   18.1487 C   0  0  0  0  0  0
  -28.0298  -12.4622   18.3635 C   0  0  0  0  0  0
  -27.6317  -12.9446   19.7452 C   0  0  2  0  0  0
  -28.4969  -12.1929   20.7277 C   0  0  0  0  0  0
  -25.2169  -13.6349   20.0776 C   0  0  0  0  0  0
  -24.1444  -12.9141   20.3834 C   0  0  0  0  0  0
  -24.5725  -11.5954   20.6539 C   0  0  0  0  0  0
  -23.8652  -10.3681   21.0174 C   0  0  0  0  0  0
  -24.3661   -9.3693   21.9229 C   0  0  0  0  0  0
  -23.6361   -8.1833   22.0563 C   0  0  0  0  0  0
  -22.4243   -7.9811   21.3464 C   0  0  0  0  0  0
  -21.9613   -9.0006   20.4809 C   0  0  0  0  0  0
  -22.6814  -10.1636   20.3497 C   0  0  0  0  0  0
  -21.6947   -6.0367   22.4944 C   0  0  0  0  0  0
  -21.4257   -6.5435   23.7845 C   0  0  0  0  0  0
  -21.3882   -5.6782   24.8956 C   0  0  0  0  0  0
  -21.6124   -4.3003   24.7212 C   0  0  0  0  0  0
  -21.8772   -3.7831   23.4406 C   0  0  0  0  0  0
  -21.9203   -4.6543   22.3283 C   0  0  0  0  0  0
  -22.7409  -13.3253   20.6225 C   0  0  0  0  0  0
  -22.1588   -4.1620   21.0950 F   0  0  0  0  0  0
  -21.5741   -3.4609   25.7774 F   0  0  0  0  0  0
  -29.7359  -12.8740   20.6397 N   0  0  0  0  0  0
  -26.2501  -12.7497   20.0782 N   0  0  0  0  0  0
  -25.8716  -11.5070   20.5241 N   0  0  0  0  0  0
  -23.0486  -13.8420   21.7109 N   0  0  0  0  0  0
  -25.4746  -15.0032   19.8968 N   0  0  0  0  0  0
  -30.8791  -14.7607   20.9396 O   0  0  0  0  0  0
  -21.6972   -6.8369   21.3801 O   0  0  0  0  0  0
  -22.0857  -14.1589   20.1094 O   0  0  0  0  0  0
  -24.6996  -31.8308   23.1874 C   0  0  0  0  0  0
  -25.9477  -32.4882   23.8472 C   0  0  1  0  0  0
  -26.9823  -26.8422   20.1621 C   0  0  0  0  0  0
  -25.5701  -33.8800   24.2007 N   0  0  0  0  0  0
  -23.5165  -30.4437   21.5514 C   0  0  2  0  0  0
  -24.9027  -28.7918   20.2558 C   0  0  0  0  0  0
  -22.7770  -29.4592   22.5061 C   0  0  0  0  0  0
  -18.0191  -28.1512   22.8244 C   0  0  0  0  0  0
  -24.1327  -36.7273   23.2606 C   0  0  0  0  0  0
  -26.1205  -30.5591   21.5486 C   0  0  0  0  0  0
  -26.1382  -29.1638   20.7948 C   0  0  0  0  0  0
  -27.2325  -28.1974   20.6866 C   0  0  0  0  0  0
  -25.8226  -26.6162   19.4995 C   0  0  0  0  0  0
  -24.7705  -27.5212   19.7107 C   0  0  0  0  0  0
  -23.7750  -29.7814   20.2160 C   0  0  0  0  0  0
  -25.4148  -36.3484   24.0266 C   0  0  1  0  0  0
  -20.5817  -28.3889   23.1035 C   0  0  2  0  0  0
  -20.6769  -26.9558   22.5403 C   0  0  0  0  0  0
  -19.5802  -26.6232   21.5244 C   0  0  0  0  0  0
  -18.1885  -26.8022   22.1410 C   0  0  0  0  0  0
  -19.1451  -28.9028   23.2546 C   0  0  0  0  0  0
  -18.9397  -30.1613   23.8594 C   0  0  0  0  0  0
  -17.6393  -30.6645   24.0488 C   0  0  0  0  0  0
  -25.9125  -34.9694   23.5091 C   0  0  0  0  0  0
  -16.5273  -29.9066   23.6475 C   0  0  0  0  0  0
  -16.7167  -28.6540   23.0400 C   0  0  0  0  0  0
  -26.4402  -31.7567   25.1525 C   0  0  0  0  0  0
  -25.2890  -31.5509   26.1743 C   0  0  0  0  0  0
  -27.0795  -30.3788   24.9135 C   0  0  0  0  0  0
  -27.5910  -32.5989   25.7724 C   0  0  0  0  0  0
  -27.5735  -37.1837   24.8336 C   0  0  0  0  0  0
  -21.4474  -29.3129   22.3449 N   0  0  0  0  0  0
  -26.4461  -37.4109   23.9267 N   0  0  0  0  0  0
  -24.7921  -30.9724   22.1351 N   0  0  0  0  0  0
  -23.4144  -28.8244   23.3462 O   0  0  0  0  0  0
  -27.7421  -25.6162   20.3459 O   0  0  0  0  0  0
  -26.5988  -34.9114   22.4888 O   0  0  0  0  0  0
  -23.6032  -32.1424   23.6586 O   0  0  0  0  0  0
  -24.1769  -18.3878   22.0064 C   0  0  0  0  0  0
  -23.7001  -23.4617   20.3761 C   0  0  0  0  0  0
  -24.1720  -22.9950   18.9967 C   0  0  0  0  0  0
  -25.0083  -23.7509   21.1935 C   0  0  0  0  0  0
  -25.6024  -22.4697   19.1826 C   0  0  0  0  0  0
  -25.7450  -16.1543   22.8454 C   0  0  0  0  0  0
  -24.4061  -14.7111   23.9979 C   0  0  0  0  0  0
  -24.4932  -17.0214   23.1269 C   0  0  2  0  0  0
  -25.9200  -14.7533   23.3107 C   0  0  2  0  0  0
  -26.0295  -22.7678   20.6312 C   0  0  0  0  0  0
  -27.4524  -14.0321   23.1008 C   0  0  0  0  0  0
  -27.4031  -23.9336   20.3183 C   0  0  0  0  0  0
  -25.8989  -21.0732   21.4509 C   0  0  0  0  0  0
  -28.6958  -14.5524   22.0809 N   0  0  0  0  0  0
  -23.5284  -15.9552   23.5772 N   0  3  0  0  0  0
  -23.1914  -18.2702   21.2722 O   0  0  0  0  0  0
  -24.8747  -19.9643   22.1675 O   0  0  0  0  0  0
  -31.4330  -12.7378   19.2661 H   0  0  0  0  0  0
  -30.5820  -11.2713   19.4208 H   0  0  0  0  0  0
  -29.9081  -12.1248   17.2696 H   0  0  0  0  0  0
  -29.7124  -13.7251   17.8717 H   0  0  0  0  0  0
  -27.8063  -11.4123   18.1886 H   0  0  0  0  0  0
  -27.4813  -12.9914   17.5699 H   0  0  0  0  0  0
  -27.8051  -14.0093   19.7313 H   0  0  0  0  0  0
  -28.6509  -11.1638   20.3584 H   0  0  0  0  0  0
  -28.1951  -12.0193   21.7577 H   0  0  0  0  0  0
  -25.2980   -9.5056   22.4714 H   0  0  0  0  0  0
  -24.0524   -7.3752   22.6524 H   0  0  0  0  0  0
  -21.0766   -8.8754   19.8717 H   0  0  0  0  0  0
  -22.3312  -10.9466   19.6771 H   0  0  0  0  0  0
  -21.2430   -7.6048   23.9093 H   0  0  0  0  0  0
  -21.1935   -6.0732   25.8841 H   0  0  0  0  0  0
  -22.0434   -2.7267   23.3149 H   0  0  0  0  0  0
  -23.9531  -13.4624   21.3140 H   0  0  0  0  0  0
  -22.9666  -14.8874   21.3905 H   0  0  0  0  0  0
  -24.7682  -15.6772   19.6140 H   0  0  0  0  0  0
  -26.3610  -15.2053   19.3884 H   0  0  0  0  0  0
  -26.7649  -32.5279   23.1365 H   0  0  0  0  0  0
  -24.9429  -34.0042   24.9828 H   0  0  0  0  0  0
  -22.8374  -31.3018   21.3960 H   0  0  0  0  0  0
  -23.4046  -35.9194   23.3560 H   0  0  0  0  0  0
  -24.3169  -36.8765   22.1936 H   0  0  0  0  0  0
  -23.6449  -37.6200   23.6556 H   0  0  0  0  0  0
  -26.5884  -31.3046   20.9154 H   0  0  0  0  0  0
  -26.8312  -30.3348   22.3427 H   0  0  0  0  0  0
  -28.2703  -28.4410   20.9604 H   0  0  0  0  0  0
  -25.6089  -25.6104   19.0771 H   0  0  0  0  0  0
  -23.7547  -27.1225   19.6284 H   0  0  0  0  0  0
  -24.1159  -30.5610   19.5576 H   0  0  0  0  0  0
  -22.8737  -29.3982   19.7630 H   0  0  0  0  0  0
  -25.1353  -36.2689   25.0793 H   0  0  0  0  0  0
  -20.9632  -28.3636   24.1266 H   0  0  0  0  0  0
  -20.5640  -26.2646   23.3791 H   0  0  0  0  0  0
  -21.6698  -26.7596   22.1330 H   0  0  0  0  0  0
  -19.7064  -25.5987   21.1766 H   0  0  0  0  0  0
  -19.6941  -27.2607   20.6487 H   0  0  0  0  0  0
  -17.4307  -26.6713   21.3684 H   0  0  0  0  0  0
  -18.0142  -26.0211   22.8788 H   0  0  0  0  0  0
  -19.7862  -30.7500   24.1892 H   0  0  0  0  0  0
  -17.4926  -31.6303   24.5165 H   0  0  0  0  0  0
  -15.5274  -30.2871   23.8145 H   0  0  0  0  0  0
  -15.8522  -28.0825   22.7395 H   0  0  0  0  0  0
  -24.5018  -30.9089   25.7794 H   0  0  0  0  0  0
  -24.7948  -32.4918   26.4230 H   0  0  0  0  0  0
  -25.5906  -31.1107   27.1218 H   0  0  0  0  0  0
  -26.4016  -29.6234   24.5171 H   0  0  0  0  0  0
  -27.3762  -30.0075   25.9003 H   0  0  0  0  0  0
  -28.0042  -30.4435   24.3405 H   0  0  0  0  0  0
  -27.2684  -33.5722   26.1513 H   0  0  0  0  0  0
  -28.3366  -32.8153   25.0049 H   0  0  0  0  0  0
  -28.1170  -32.1083   26.5936 H   0  0  0  0  0  0
  -28.2961  -38.0009   24.7903 H   0  0  0  0  0  0
  -28.1159  -36.2716   24.5787 H   0  0  0  0  0  0
  -27.2407  -37.0979   25.8696 H   0  0  0  0  0  0
  -21.0065  -29.8343   21.6076 H   0  0  0  0  0  0
  -26.0708  -38.3393   24.1071 H   0  0  0  0  0  0
  -23.0289  -22.7527   20.8645 H   0  0  0  0  0  0
  -23.1764  -24.4393   20.2315 H   0  0  0  0  0  0
  -24.2119  -23.8396   18.2843 H   0  0  0  0  0  0
  -23.5256  -22.2434   18.5726 H   0  0  0  0  0  0
  -24.9260  -23.7853   22.2888 H   0  0  0  0  0  0
  -25.3871  -24.7329   20.8157 H   0  0  0  0  0  0
  -26.2032  -22.9964   18.4547 H   0  0  0  0  0  0
  -25.7371  -21.4120   18.8850 H   0  0  0  0  0  0
  -26.6690  -16.7961   22.8875 H   0  0  0  0  0  0
  -25.3459  -15.7265   21.9512 H   0  0  0  0  0  0
  -24.3213  -14.5510   25.1152 H   0  0  0  0  0  0
  -23.8250  -13.8890   23.6933 H   0  0  0  0  0  0
  -24.2952  -17.5418   24.0937 H   0  0  0  0  0  0
  -25.9196  -14.4921   24.3003 H   0  0  0  0  0  0
  -27.3247  -12.9297   23.3278 H   0  0  0  0  0  0
  -27.9039  -14.3396   24.0788 H   0  0  0  0  0  0
  -27.7258  -23.7198   19.3609 H   0  0  0  0  0  0
  -28.2531  -23.4309   20.5256 H   0  0  0  0  0  0
  -26.0573  -21.4601   22.4514 H   0  0  0  0  0  0
  -26.8078  -20.4814   21.3165 H   0  0  0  0  0  0
  -28.9516  -15.4783   22.4616 H   0  0  0  0  0  0
  -23.0380  -16.3584   24.4212 H   0  0  0  0  0  0
  -22.9784  -15.4895   22.8459 H   0  0  0  0  0  0
  1 25  1  0  0  0
  1 30  2  0  0  0
  1 84  1  0  0  0
  2  3  1  0  0  0
  2 25  1  0  0  0
  2 88  1  0  0  0
  2 89  1  0  0  0
  3  4  1  0  0  0
  3 90  1  0  0  0
  3 91  1  0  0  0
  4  5  1  0  0  0
  4 92  1  0  0  0
  4 93  1  0  0  0
  5  6  1  0  0  0
  5 26  1  0  0  0
  5 94  1  0  0  0
  6 25  1  0  0  0
  6 95  1  0  0  0
  6 96  1  0  0  0
  7  8  2  0  0  0
  7 26  1  0  0  0
  7 29  1  0  0  0
  8  9  1  0  0  0
  8 22  1  0  0  0
  9 10  1  0  0  0
  9 27  2  0  0  0
 10 11  2  0  0  0
 10 15  1  0  0  0
 11 12  1  0  0  0
 11 97  1  0  0  0
 12 13  2  0  0  0
 12 98  1  0  0  0
 13 14  1  0  0  0
 13 31  1  0  0  0
 14 15  2  0  0  0
 14 99  1  0  0  0
 15100  1  0  0  0
 16 17  2  0  0  0
 16 21  1  0  0  0
 16 31  1  0  0  0
 17 18  1  0  0  0
 17101  1  0  0  0
 18 19  2  0  0  0
 18102  1  0  0  0
 19 20  1  0  0  0
 19 24  1  0  0  0
 20 21  2  0  0  0
 20103  1  0  0  0
 21 23  1  0  0  0
 22 28  1  0  0  0
 22 32  2  0  0  0
 26 27  1  0  0  0
 28104  1  0  0  0
 28105  1  0  0  0
 29106  1  0  0  0
 29107  1  0  0  0
 33 34  1  0  0  0
 33 66  1  0  0  0
 33 70  2  0  0  0
 34 36  1  0  0  0
 34 59  1  0  0  0
 34108  1  0  0  0
 35 44  2  0  0  0
 35 45  1  0  0  0
 35 68  1  0  0  0
 36 56  1  0  0  0
 36109  1  0  0  0
 37 39  1  0  0  0
 37 47  1  0  0  0
 37 66  1  0  0  0
 37110  1  0  0  0
 38 43  2  0  0  0
 38 46  1  0  0  0
 38 47  1  0  0  0
 39 64  1  0  0  0
 39 67  2  0  0  0
 40 52  1  0  0  0
 40 53  2  0  0  0
 40 58  1  0  0  0
 41111  1  0  0  0
 41112  1  0  0  0
 41113  1  0  0  0
 41 48  1  0  0  0
 42 43  1  0  0  0
 42 66  1  0  0  0
 42114  1  0  0  0
 42115  1  0  0  0
 43 44  1  0  0  0
 44116  1  0  0  0
 45 46  2  0  0  0
 45117  1  0  0  0
 46118  1  0  0  0
 47119  1  0  0  0
 47120  1  0  0  0
 48 56  1  0  0  0
 48 65  1  0  0  0
 48121  1  0  0  0
 49 50  1  0  0  0
 49 53  1  0  0  0
 49 64  1  0  0  0
 49122  1  0  0  0
 50 51  1  0  0  0
 50123  1  0  0  0
 50124  1  0  0  0
 51 52  1  0  0  0
 51125  1  0  0  0
 51126  1  0  0  0
 52127  1  0  0  0
 52128  1  0  0  0
 53 54  1  0  0  0
 54 55  2  0  0  0
 54129  1  0  0  0
 55 57  1  0  0  0
 55130  1  0  0  0
 56 69  2  0  0  0
 57 58  2  0  0  0
 57131  1  0  0  0
 58132  1  0  0  0
 59 60  1  0  0  0
 59 61  1  0  0  0
 59 62  1  0  0  0
 60133  1  0  0  0
 60134  1  0  0  0
 60135  1  0  0  0
 61136  1  0  0  0
 61137  1  0  0  0
 61138  1  0  0  0
 62139  1  0  0  0
 62140  1  0  0  0
 62141  1  0  0  0
 63 65  1  0  0  0
 63142  1  0  0  0
 63143  1  0  0  0
 63144  1  0  0  0
 64145  1  0  0  0
 65146  1  0  0  0
 68 82  1  0  0  0
 71 86  2  0  0  0
 71 87  1  0  0  0
 71 78  1  0  0  0
 72 73  1  0  0  0
 72 74  1  0  0  0
 72147  1  0  0  0
 72148  1  0  0  0
 73 75  1  0  0  0
 73149  1  0  0  0
 73150  1  0  0  0
 74 80  1  0  0  0
 74151  1  0  0  0
 74152  1  0  0  0
 75 80  1  0  0  0
 75153  1  0  0  0
 75154  1  0  0  0
 76 78  1  0  0  0
 76 79  1  0  0  0
 76155  1  0  0  0
 76156  1  0  0  0
 77 79  1  0  0  0
 77 85  1  0  0  0
 77157  1  0  0  0
 77158  1  0  0  0
 78 85  1  0  0  0
 78159  1  0  0  0
 79 81  1  0  0  0
 79160  1  0  0  0
 80 82  1  0  0  0
 80 83  1  0  0  0
 81 84  1  0  0  0
 81161  1  0  0  0
 81162  1  0  0  0
 82163  1  0  0  0
 82164  1  0  0  0
 83 87  1  0  0  0
 83165  1  0  0  0
 83166  1  0  0  0
 84167  1  0  0  0
 85168  1  0  0  0
 85169  1  0  0  0
M  CHG  1  85   1
M  ISO  4   1 100  68 101  82 101  84 100
M  END
> <chiral flag>
0

> <version>
0

> <s_m_source_file>
/data/baiqing/PycharmProjects/Reinvent-master-3.2/result/LINK_invent/BTK/process_docking_weight1_custom_sum_contain_oxygen_bond_distance_aromatic_linkinvent_7_9_3/rearranged_h_0124.sdf

> <i_m_source_file_index>
55

> <r_mmod_Potential_Energy-OPLS-2005>
3707.45947265625

> <r_mmod_Stretch_Energy-OPLS-2005>
1088.12426757812

> <r_mmod_Bend_Energy-OPLS-2005>
1432.80236816406

> <r_mmod_Torsional_Energy-OPLS-2005>
516.651062011719

> <r_mmod_Improper_Torsional_Energy-OPLS-2005>
76.5720748901367

> <r_mmod_Van_der_Waal_Energy-OPLS-2005>
282.551483154297

> <r_mmod_Electrostatic_Energy-OPLS-2005>
-380.174926757812

> <r_mmod_Solvation_Energy-OPLS-2005>
-501.230621337891

> <b_mmod_Minimization_Converged-OPLS-2005>
0

> <r_mmod_RMS_Derivative-OPLS-2005>
99.9990005493164

$$$$
55
                    3D
 Structure written by MMmdl.
159168  0  0  1  0            999 V2000
  -30.6096  -14.7245   20.4573 C   0  0  0  0  0  0
  -30.4318  -12.4386   19.4809 C   0  0  0  0  0  0
  -29.5136  -12.5075   18.2404 C   0  0  0  0  0  0
  -28.0380  -12.3341   18.6499 C   0  0  0  0  0  0
  -27.6435  -13.2295   19.8550 C   0  0  2  0  0  0
  -28.6853  -13.1528   20.9933 C   0  0  0  0  0  0
  -25.2512  -13.8187   20.5681 C   0  0  0  0  0  0
  -24.1802  -13.0438   20.9196 C   0  0  0  0  0  0
  -24.6380  -11.6914   20.8737 C   0  0  0  0  0  0
  -23.9056  -10.4294   21.0404 C   0  0  0  0  0  0
  -24.3610   -9.4214   21.9184 C   0  0  0  0  0  0
  -23.6291   -8.2247   22.0757 C   0  0  0  0  0  0
  -22.4273   -8.0281   21.3549 C   0  0  0  0  0  0
  -21.9905   -9.0251   20.4648 C   0  0  0  0  0  0
  -22.7226  -10.2137   20.3057 C   0  0  0  0  0  0
  -21.6857   -6.0733   22.5282 C   0  0  0  0  0  0
  -21.4013   -6.5633   23.8217 C   0  0  0  0  0  0
  -21.3662   -5.6786   24.9180 C   0  0  0  0  0  0
  -21.6048   -4.3051   24.7226 C   0  0  0  0  0  0
  -21.8823   -3.8143   23.4348 C   0  0  0  0  0  0
  -21.9195   -4.6961   22.3405 C   0  0  0  0  0  0
  -22.7823  -13.5222   21.1846 C   0  0  0  0  0  0
  -22.1662   -4.2148   21.0985 F   0  0  0  0  0  0
  -21.5626   -3.4533   25.7737 F   0  0  0  0  0  0
  -29.9919  -13.4962   20.4205 N   0  0  0  0  0  0
  -26.2942  -12.9392   20.3291 N   0  0  0  0  0  0
  -25.9314  -11.6535   20.5748 N   0  0  0  0  0  0
  -22.0464  -12.8233   22.0408 N   0  0  0  0  0  0
  -25.4186  -15.1913   20.4080 N   0  0  0  0  0  0
  -31.7872  -14.8304   20.1046 O   0  0  0  0  0  0
  -21.6643   -6.8874   21.4245 O   0  0  0  0  0  0
  -22.3514  -14.5532   20.6685 O   0  0  0  0  0  0
  -24.6298  -31.8549   23.1970 C   0  0  0  0  0  0
  -25.9127  -32.4752   23.8322 C   0  0  1  0  0  0
  -27.2250  -27.2705   20.1248 C   0  0  0  0  0  0
  -25.5931  -33.8557   24.2248 N   0  0  0  0  0  0
  -23.4262  -30.4748   21.5403 C   0  0  2  0  0  0
  -24.8735  -28.9197   20.1061 C   0  0  0  0  0  0
  -22.7499  -29.4585   22.4918 C   0  0  0  0  0  0
  -18.0291  -28.1388   22.8480 C   0  0  0  0  0  0
  -24.1488  -36.7279   23.2639 C   0  0  0  0  0  0
  -25.9690  -30.7692   21.3748 C   0  0  0  0  0  0
  -26.0401  -29.3914   20.7185 C   0  0  0  0  0  0
  -27.2127  -28.5752   20.7214 C   0  0  0  0  0  0
  -26.0379  -26.8615   19.4795 C   0  0  0  0  0  0
  -24.8769  -27.6632   19.4770 C   0  0  0  0  0  0
  -23.6429  -29.8051   20.1561 C   0  0  0  0  0  0
  -25.4116  -36.3069   24.0327 C   0  0  1  0  0  0
  -20.5890  -28.3689   23.1281 C   0  0  2  0  0  0
  -20.6775  -26.9408   22.5413 C   0  0  0  0  0  0
  -19.5755  -26.6385   21.5211 C   0  0  0  0  0  0
  -18.1933  -26.7932   22.1618 C   0  0  0  0  0  0
  -19.1541  -28.8858   23.2873 C   0  0  0  0  0  0
  -18.9459  -30.1460   23.8890 C   0  0  0  0  0  0
  -17.6456  -30.6586   24.0560 C   0  0  0  0  0  0
  -25.9058  -34.9441   23.5091 C   0  0  0  0  0  0
  -16.5349  -29.9082   23.6330 C   0  0  0  0  0  0
  -16.7274  -28.6501   23.0349 C   0  0  0  0  0  0
  -26.4496  -31.6584   25.0715 C   0  0  0  0  0  0
  -25.3716  -31.3725   26.1434 C   0  0  0  0  0  0
  -27.0346  -30.3007   24.6192 C   0  0  0  0  0  0
  -27.6058  -32.4325   25.7483 C   0  0  0  0  0  0
  -27.5577  -37.1796   24.8468 C   0  0  0  0  0  0
  -21.4205  -29.3035   22.3672 N   0  0  0  0  0  0
  -26.4290  -37.3770   23.9409 N   0  0  0  0  0  0
  -24.6940  -31.0519   22.0939 N   0  0  0  0  0  0
  -23.4204  -28.8131   23.3021 O   0  0  0  0  0  0
  -28.3502  -26.4244   20.2200 O   0  0  0  0  0  0
  -26.5625  -34.8918   22.4658 O   0  0  0  0  0  0
  -23.5453  -32.1369   23.7275 O   0  0  0  0  0  0
  -28.7277  -19.7181   22.7903 C   0  0  0  0  0  0
  -28.6298  -20.9183   22.0580 C   0  0  0  0  0  0
  -29.1672  -18.5384   22.1596 C   0  0  0  0  0  0
  -28.9628  -20.9389   20.6905 C   0  0  0  0  0  0
  -29.5084  -18.5620   20.7981 C   0  0  0  0  0  0
  -26.7120  -23.3696   20.5170 C   0  0  0  0  0  0
  -26.4374  -22.5711   19.2307 C   0  0  0  0  0  0
  -28.7452  -22.2601   19.8179 C   0  0  2  0  0  0
  -28.2157  -23.6623   20.4548 C   0  0  1  0  0  0
  -30.1215  -17.2584   20.1295 C   0  0  0  0  0  0
  -28.4671  -25.0472   19.6376 C   0  0  0  0  0  0
  -29.3769  -19.7523   20.0840 N   0  0  0  0  0  0
  -29.8318  -15.8518   20.6443 N   0  0  0  0  0  0
  -27.6936  -21.8803   18.8688 N   0  3  0  0  0  0
  -31.4757  -12.5524   19.1832 H   0  0  0  0  0  0
  -30.3659  -11.4583   19.9555 H   0  0  0  0  0  0
  -29.7968  -11.7395   17.5197 H   0  0  0  0  0  0
  -29.6470  -13.4656   17.7349 H   0  0  0  0  0  0
  -27.8908  -11.2851   18.9105 H   0  0  0  0  0  0
  -27.3836  -12.5313   17.8001 H   0  0  0  0  0  0
  -27.6406  -14.2526   19.4788 H   0  0  0  0  0  0
  -28.7129  -12.1538   21.4313 H   0  0  0  0  0  0
  -28.4231  -13.8338   21.8046 H   0  0  0  0  0  0
  -25.2755   -9.5695   22.4758 H   0  0  0  0  0  0
  -24.0008   -7.4635   22.7470 H   0  0  0  0  0  0
  -21.0844   -8.8761   19.8945 H   0  0  0  0  0  0
  -22.3678  -10.9670   19.6163 H   0  0  0  0  0  0
  -21.2005   -7.6140   23.9718 H   0  0  0  0  0  0
  -21.1479   -6.0518   25.9083 H   0  0  0  0  0  0
  -22.0601   -2.7605   23.2849 H   0  0  0  0  0  0
  -22.4075  -11.9901   22.4819 H   0  0  0  0  0  0
  -21.1075  -13.1266   22.2575 H   0  0  0  0  0  0
  -24.6460  -15.8403   20.5075 H   0  0  0  0  0  0
  -26.2645  -15.6338   20.0738 H   0  0  0  0  0  0
  -26.7193  -32.5403   23.1063 H   0  0  0  0  0  0
  -25.0100  -33.9698   25.0407 H   0  0  0  0  0  0
  -22.7222  -31.2965   21.3935 H   0  0  0  0  0  0
  -23.3758  -35.9606   23.3302 H   0  0  0  0  0  0
  -24.3574  -36.8902   22.2053 H   0  0  0  0  0  0
  -23.7236  -37.6478   23.6663 H   0  0  0  0  0  0
  -26.1052  -31.5286   20.6033 H   0  0  0  0  0  0
  -26.8482  -30.8201   22.0057 H   0  0  0  0  0  0
  -28.1054  -28.9285   21.2185 H   0  0  0  0  0  0
  -25.9746  -25.9004   18.9947 H   0  0  0  0  0  0
  -23.9830  -27.2978   18.9906 H   0  0  0  0  0  0
  -23.7644  -30.5802   19.3986 H   0  0  0  0  0  0
  -22.7622  -29.2356   19.8540 H   0  0  0  0  0  0
  -25.1298  -36.1913   25.0821 H   0  0  0  0  0  0
  -20.9975  -28.3260   24.1405 H   0  0  0  0  0  0
  -20.5673  -26.2294   23.3611 H   0  0  0  0  0  0
  -21.6644  -26.7438   22.1204 H   0  0  0  0  0  0
  -19.6914  -25.6295   21.1244 H   0  0  0  0  0  0
  -19.6698  -27.3195   20.6740 H   0  0  0  0  0  0
  -17.4203  -26.6682   21.4021 H   0  0  0  0  0  0
  -18.0328  -26.0077   22.9016 H   0  0  0  0  0  0
  -19.7933  -30.7281   24.2259 H   0  0  0  0  0  0
  -17.5007  -31.6267   24.5159 H   0  0  0  0  0  0
  -15.5347  -30.2976   23.7665 H   0  0  0  0  0  0
  -15.8676  -28.0821   22.7064 H   0  0  0  0  0  0
  -24.5903  -30.7065   25.7750 H   0  0  0  0  0  0
  -24.8896  -32.2890   26.4849 H   0  0  0  0  0  0
  -25.8034  -30.8906   27.0215 H   0  0  0  0  0  0
  -26.2928  -29.6752   24.1213 H   0  0  0  0  0  0
  -27.4030  -29.7271   25.4708 H   0  0  0  0  0  0
  -27.8801  -30.4293   23.9432 H   0  0  0  0  0  0
  -27.2678  -33.3637   26.2043 H   0  0  0  0  0  0
  -28.3871  -32.6864   25.0306 H   0  0  0  0  0  0
  -28.0720  -31.8458   26.5408 H   0  0  0  0  0  0
  -28.2596  -38.0091   24.7514 H   0  0  0  0  0  0
  -28.1070  -36.2623   24.6296 H   0  0  0  0  0  0
  -27.2294  -37.1447   25.8870 H   0  0  0  0  0  0
  -20.9392  -29.8746   21.6866 H   0  0  0  0  0  0
  -26.0167  -38.2845   24.1409 H   0  0  0  0  0  0
  -28.4707  -19.7047   23.8403 H   0  0  0  0  0  0
  -28.2845  -21.8101   22.5611 H   0  0  0  0  0  0
  -29.2682  -17.6279   22.7344 H   0  0  0  0  0  0
  -26.4845  -22.7475   21.3829 H   0  0  0  0  0  0
  -26.0935  -24.2611   20.6079 H   0  0  0  0  0  0
  -26.1645  -23.2434   18.4161 H   0  0  0  0  0  0
  -25.6160  -21.8649   19.3575 H   0  0  0  0  0  0
  -29.6764  -22.4359   19.2791 H   0  0  0  0  0  0
  -28.6438  -23.7960   21.4478 H   0  0  0  0  0  0
  -31.2031  -17.4001   20.1353 H   0  0  0  0  0  0
  -29.8381  -17.2707   19.0765 H   0  0  0  0  0  0
  -27.9474  -25.0130   18.6805 H   0  0  0  0  0  0
  -29.5169  -25.0079   19.3445 H   0  0  0  0  0  0
  -28.8862  -15.6959   20.9564 H   0  0  0  0  0  0
  -27.9753  -22.1098   17.9310 H   0  0  0  0  0  0
  -27.6106  -20.8769   18.9408 H   0  0  0  0  0  0
  1 25  1  0  0  0
  1 30  2  0  0  0
  1 83  1  0  0  0
  2  3  1  0  0  0
  2 25  1  0  0  0
  2 85  1  0  0  0
  2 86  1  0  0  0
  3  4  1  0  0  0
  3 87  1  0  0  0
  3 88  1  0  0  0
  4  5  1  0  0  0
  4 89  1  0  0  0
  4 90  1  0  0  0
  5  6  1  0  0  0
  5 26  1  0  0  0
  5 91  1  0  0  0
  6 25  1  0  0  0
  6 92  1  0  0  0
  6 93  1  0  0  0
  7  8  2  0  0  0
  7 26  1  0  0  0
  7 29  1  0  0  0
  8  9  1  0  0  0
  8 22  1  0  0  0
  9 10  1  0  0  0
  9 27  2  0  0  0
 10 11  2  0  0  0
 10 15  1  0  0  0
 11 12  1  0  0  0
 11 94  1  0  0  0
 12 13  2  0  0  0
 12 95  1  0  0  0
 13 14  1  0  0  0
 13 31  1  0  0  0
 14 15  2  0  0  0
 14 96  1  0  0  0
 15 97  1  0  0  0
 16 17  2  0  0  0
 16 21  1  0  0  0
 16 31  1  0  0  0
 17 18  1  0  0  0
 17 98  1  0  0  0
 18 19  2  0  0  0
 18 99  1  0  0  0
 19 20  1  0  0  0
 19 24  1  0  0  0
 20 21  2  0  0  0
 20100  1  0  0  0
 21 23  1  0  0  0
 22 28  1  0  0  0
 22 32  2  0  0  0
 26 27  1  0  0  0
 28101  1  0  0  0
 28102  1  0  0  0
 29103  1  0  0  0
 29104  1  0  0  0
 33 34  1  0  0  0
 33 66  1  0  0  0
 33 70  2  0  0  0
 34 36  1  0  0  0
 34 59  1  0  0  0
 34105  1  0  0  0
 35 44  2  0  0  0
 35 45  1  0  0  0
 35 68  1  0  0  0
 36 56  1  0  0  0
 36106  1  0  0  0
 37 39  1  0  0  0
 37 47  1  0  0  0
 37 66  1  0  0  0
 37107  1  0  0  0
 38 43  2  0  0  0
 38 46  1  0  0  0
 38 47  1  0  0  0
 39 64  1  0  0  0
 39 67  2  0  0  0
 40 52  1  0  0  0
 40 53  2  0  0  0
 40 58  1  0  0  0
 41108  1  0  0  0
 41109  1  0  0  0
 41110  1  0  0  0
 41 48  1  0  0  0
 42 43  1  0  0  0
 42 66  1  0  0  0
 42111  1  0  0  0
 42112  1  0  0  0
 43 44  1  0  0  0
 44113  1  0  0  0
 45 46  2  0  0  0
 45114  1  0  0  0
 46115  1  0  0  0
 47116  1  0  0  0
 47117  1  0  0  0
 48 56  1  0  0  0
 48 65  1  0  0  0
 48118  1  0  0  0
 49 50  1  0  0  0
 49 53  1  0  0  0
 49 64  1  0  0  0
 49119  1  0  0  0
 50 51  1  0  0  0
 50120  1  0  0  0
 50121  1  0  0  0
 51 52  1  0  0  0
 51122  1  0  0  0
 51123  1  0  0  0
 52124  1  0  0  0
 52125  1  0  0  0
 53 54  1  0  0  0
 54 55  2  0  0  0
 54126  1  0  0  0
 55 57  1  0  0  0
 55127  1  0  0  0
 56 69  2  0  0  0
 57 58  2  0  0  0
 57128  1  0  0  0
 58129  1  0  0  0
 59 60  1  0  0  0
 59 61  1  0  0  0
 59 62  1  0  0  0
 60130  1  0  0  0
 60131  1  0  0  0
 60132  1  0  0  0
 61133  1  0  0  0
 61134  1  0  0  0
 61135  1  0  0  0
 62136  1  0  0  0
 62137  1  0  0  0
 62138  1  0  0  0
 63 65  1  0  0  0
 63139  1  0  0  0
 63140  1  0  0  0
 63141  1  0  0  0
 64142  1  0  0  0
 65143  1  0  0  0
 68 81  1  0  0  0
 71 72  2  0  0  0
 71 73  1  0  0  0
 71144  1  0  0  0
 72 74  1  0  0  0
 72145  1  0  0  0
 73 75  2  0  0  0
 73146  1  0  0  0
 74 82  2  0  0  0
 74 78  1  0  0  0
 75 80  1  0  0  0
 75 82  1  0  0  0
 76 77  1  0  0  0
 76 79  1  0  0  0
 76147  1  0  0  0
 76148  1  0  0  0
 77 84  1  0  0  0
 77149  1  0  0  0
 77150  1  0  0  0
 78 79  1  0  0  0
 78 84  1  0  0  0
 78151  1  0  0  0
 79 81  1  0  0  0
 79152  1  0  0  0
 80 83  1  0  0  0
 80153  1  0  0  0
 80154  1  0  0  0
 81155  1  0  0  0
 81156  1  0  0  0
 83157  1  0  0  0
 84158  1  0  0  0
 84159  1  0  0  0
M  CHG  1  84   1
M  ISO  4   1 100  68 101  81 101  83 100
M  END
> <chiral flag>
0

> <version>
0

> <s_m_source_file>
/data/baiqing/PycharmProjects/Reinvent-master-3.2/result/LINK_invent/BTK/process_docking_weight1_custom_sum_contain_oxygen_bond_distance_aromatic_linkinvent_7_9_3/rearranged_h_0124.sdf

> <i_m_source_file_index>
56

> <r_mmod_Potential_Energy-OPLS-2005>
-322.126831054688

> <r_mmod_Stretch_Energy-OPLS-2005>
118.535789489746

> <r_mmod_Bend_Energy-OPLS-2005>
203.550888061523

> <r_mmod_Torsional_Energy-OPLS-2005>
269.298522949219

> <r_mmod_Improper_Torsional_Energy-OPLS-2005>
7.01872396469116

> <r_mmod_Van_der_Waal_Energy-OPLS-2005>
131.198471069336

> <r_mmod_Electrostatic_Energy-OPLS-2005>
-644.921997070312

> <r_mmod_Solvation_Energy-OPLS-2005>
-483.458618164062

> <b_mmod_Minimization_Converged-OPLS-2005>
0

> <r_mmod_RMS_Derivative-OPLS-2005>
1.01949465274811

$$$$
56
                    3D
 Structure written by MMmdl.
159167  0  0  1  0            999 V2000
  -30.6127  -14.7823   20.4578 C   0  0  0  0  0  0
  -30.4408  -12.4889   19.4497 C   0  0  0  0  0  0
  -29.4984  -12.5091   18.2260 C   0  0  0  0  0  0
  -28.0259  -12.3387   18.6508 C   0  0  0  0  0  0
  -27.6390  -13.2372   19.8545 C   0  0  2  0  0  0
  -28.6981  -13.1832   20.9770 C   0  0  0  0  0  0
  -25.2483  -13.8201   20.5766 C   0  0  0  0  0  0
  -24.1774  -13.0449   20.9240 C   0  0  0  0  0  0
  -24.6358  -11.6921   20.8766 C   0  0  0  0  0  0
  -23.9029  -10.4299   21.0395 C   0  0  0  0  0  0
  -24.3578   -9.4235   21.9188 C   0  0  0  0  0  0
  -23.6283   -8.2261   22.0758 C   0  0  0  0  0  0
  -22.4286   -8.0259   21.3533 C   0  0  0  0  0  0
  -21.9884   -9.0231   20.4659 C   0  0  0  0  0  0
  -22.7181  -10.2134   20.3066 C   0  0  0  0  0  0
  -21.6856   -6.0713   22.5267 C   0  0  0  0  0  0
  -21.4027   -6.5636   23.8195 C   0  0  0  0  0  0
  -21.3658   -5.6798   24.9167 C   0  0  0  0  0  0
  -21.6034   -4.3053   24.7229 C   0  0  0  0  0  0
  -21.8821   -3.8132   23.4358 C   0  0  0  0  0  0
  -21.9211   -4.6942   22.3408 C   0  0  0  0  0  0
  -22.7798  -13.5220   21.1926 C   0  0  0  0  0  0
  -22.1664   -4.2125   21.0990 F   0  0  0  0  0  0
  -21.5631   -3.4544   25.7747 F   0  0  0  0  0  0
  -29.9855  -13.5544   20.3713 N   0  0  0  0  0  0
  -26.2931  -12.9433   20.3386 N   0  0  0  0  0  0
  -25.9303  -11.6559   20.5808 N   0  0  0  0  0  0
  -22.0449  -12.8176   22.0463 N   0  0  0  0  0  0
  -25.4167  -15.1924   20.4137 N   0  0  0  0  0  0
  -31.8191  -14.8703   20.2233 O   0  0  0  0  0  0
  -21.6658   -6.8851   21.4225 O   0  0  0  0  0  0
  -22.3480  -14.5536   20.6790 O   0  0  0  0  0  0
  -24.6341  -31.8470   23.1963 C   0  0  0  0  0  0
  -25.9108  -32.4707   23.8373 C   0  0  1  0  0  0
  -27.2428  -27.2213   20.1345 C   0  0  0  0  0  0
  -25.5842  -33.8510   24.2266 N   0  0  0  0  0  0
  -23.4386  -30.4678   21.5392 C   0  0  2  0  0  0
  -24.8929  -28.9059   20.1163 C   0  0  0  0  0  0
  -22.7556  -29.4560   22.4917 C   0  0  0  0  0  0
  -18.0321  -28.1403   22.8517 C   0  0  0  0  0  0
  -24.1456  -36.7305   23.2661 C   0  0  0  0  0  0
  -25.9876  -30.7485   21.3826 C   0  0  0  0  0  0
  -26.0687  -29.3649   20.7278 C   0  0  0  0  0  0
  -27.2428  -28.5374   20.7244 C   0  0  0  0  0  0
  -26.0381  -26.8373   19.5001 C   0  0  0  0  0  0
  -24.8865  -27.6497   19.4906 C   0  0  0  0  0  0
  -23.6620  -29.7941   20.1583 C   0  0  0  0  0  0
  -25.4068  -36.3064   24.0364 C   0  0  1  0  0  0
  -20.5920  -28.3710   23.1255 C   0  0  2  0  0  0
  -20.6825  -26.9412   22.5423 C   0  0  0  0  0  0
  -19.5788  -26.6384   21.5247 C   0  0  0  0  0  0
  -18.1966  -26.7948   22.1639 C   0  0  0  0  0  0
  -19.1581  -28.8883   23.2870 C   0  0  0  0  0  0
  -18.9490  -30.1492   23.8868 C   0  0  0  0  0  0
  -17.6483  -30.6606   24.0559 C   0  0  0  0  0  0
  -25.9017  -34.9416   23.5145 C   0  0  0  0  0  0
  -16.5376  -29.9108   23.6321 C   0  0  0  0  0  0
  -16.7304  -28.6530   23.0340 C   0  0  0  0  0  0
  -26.4466  -31.6539   25.0768 C   0  0  0  0  0  0
  -25.3718  -31.3623   26.1508 C   0  0  0  0  0  0
  -27.0333  -30.2965   24.6235 C   0  0  0  0  0  0
  -27.6026  -32.4311   25.7481 C   0  0  0  0  0  0
  -27.5575  -37.1778   24.8444 C   0  0  0  0  0  0
  -21.4268  -29.3040   22.3641 N   0  0  0  0  0  0
  -26.4252  -37.3756   23.9435 N   0  0  0  0  0  0
  -24.7075  -31.0400   22.0949 N   0  0  0  0  0  0
  -23.4218  -28.8130   23.3074 O   0  0  0  0  0  0
  -28.3381  -26.3075   20.1862 O   0  0  0  0  0  0
  -26.5652  -34.8888   22.4751 O   0  0  0  0  0  0
  -23.5471  -32.1298   23.7227 O   0  0  0  0  0  0
  -30.3361  -19.7147   17.9742 C   0  0  0  0  0  0
  -30.4173  -18.5754   18.7936 C   0  0  0  0  0  0
  -29.7791  -20.9313   18.4385 C   0  0  0  0  0  0
  -29.9655  -18.6456   20.1165 C   0  0  0  0  0  0
  -29.3899  -21.0210   19.8088 C   0  0  0  0  0  0
  -30.9115  -22.6556   16.9338 C   0  0  0  0  0  0
  -30.1662  -17.3560   21.0385 C   0  0  0  0  0  0
  -28.1025  -24.8115   20.0052 C   0  0  0  0  0  0
  -29.2033  -23.6233   20.2779 C   0  0  0  0  0  0
  -29.5715  -22.0467   17.4004 C   0  0  1  0  0  0
  -29.4739  -19.8653   20.5983 N   0  0  0  0  0  0
  -29.8303  -15.9192   20.6105 N   0  0  0  0  0  0
  -28.7650  -21.5885   16.2468 N   0  3  0  0  0  0
  -28.7660  -22.1778   20.3937 O   0  0  0  0  0  0
  -31.4693  -12.6462   19.1205 H   0  0  0  0  0  0
  -30.4232  -11.5176   19.9431 H   0  0  0  0  0  0
  -29.7709  -11.7229   17.5226 H   0  0  0  0  0  0
  -29.6129  -13.4519   17.6927 H   0  0  0  0  0  0
  -27.8736  -11.2910   18.9066 H   0  0  0  0  0  0
  -27.3619  -12.5378   17.8098 H   0  0  0  0  0  0
  -27.6264  -14.2577   19.4716 H   0  0  0  0  0  0
  -28.7556  -12.1879   21.4183 H   0  0  0  0  0  0
  -28.4409  -13.8671   21.7885 H   0  0  0  0  0  0
  -25.2694   -9.5757   22.4776 H   0  0  0  0  0  0
  -24.0000   -7.4667   22.7476 H   0  0  0  0  0  0
  -21.0811   -8.8710   19.8968 H   0  0  0  0  0  0
  -22.3565  -10.9668   19.6193 H   0  0  0  0  0  0
  -21.2005   -7.6145   23.9687 H   0  0  0  0  0  0
  -21.1476   -6.0538   25.9072 H   0  0  0  0  0  0
  -22.0599   -2.7593   23.2870 H   0  0  0  0  0  0
  -22.4055  -11.9781   22.4753 H   0  0  0  0  0  0
  -21.1094  -13.1208   22.2783 H   0  0  0  0  0  0
  -24.6456  -15.8434   20.5178 H   0  0  0  0  0  0
  -26.2560  -15.6295   20.0568 H   0  0  0  0  0  0
  -26.7175  -32.5327   23.1122 H   0  0  0  0  0  0
  -24.9854  -33.9597   25.0318 H   0  0  0  0  0  0
  -22.7367  -31.2881   21.3839 H   0  0  0  0  0  0
  -23.3713  -35.9631   23.3260 H   0  0  0  0  0  0
  -24.3579  -36.8987   22.2089 H   0  0  0  0  0  0
  -23.7189  -37.6483   23.6711 H   0  0  0  0  0  0
  -26.1276  -31.4929   20.6006 H   0  0  0  0  0  0
  -26.8666  -30.8094   22.0141 H   0  0  0  0  0  0
  -28.1367  -28.8797   21.2290 H   0  0  0  0  0  0
  -25.9529  -25.8772   19.0164 H   0  0  0  0  0  0
  -23.9882  -27.2864   19.0070 H   0  0  0  0  0  0
  -23.7884  -30.5606   19.3965 H   0  0  0  0  0  0
  -22.7773  -29.2277   19.8561 H   0  0  0  0  0  0
  -25.1219  -36.1968   25.0859 H   0  0  0  0  0  0
  -21.0013  -28.3338   24.1360 H   0  0  0  0  0  0
  -20.5812  -26.2326   23.3656 H   0  0  0  0  0  0
  -21.6696  -26.7517   22.1156 H   0  0  0  0  0  0
  -19.6964  -25.6302   21.1271 H   0  0  0  0  0  0
  -19.6707  -27.3203   20.6780 H   0  0  0  0  0  0
  -17.4247  -26.6709   21.4017 H   0  0  0  0  0  0
  -18.0340  -26.0090   22.9024 H   0  0  0  0  0  0
  -19.7973  -30.7330   24.2211 H   0  0  0  0  0  0
  -17.5034  -31.6260   24.5200 H   0  0  0  0  0  0
  -15.5373  -30.2984   23.7675 H   0  0  0  0  0  0
  -15.8710  -28.0844   22.7029 H   0  0  0  0  0  0
  -24.5971  -30.6854   25.7882 H   0  0  0  0  0  0
  -24.8809  -32.2723   26.4939 H   0  0  0  0  0  0
  -25.8108  -30.8868   27.0294 H   0  0  0  0  0  0
  -26.2915  -29.6672   24.1301 H   0  0  0  0  0  0
  -27.4048  -29.7260   25.4752 H   0  0  0  0  0  0
  -27.8763  -30.4250   23.9461 H   0  0  0  0  0  0
  -27.2687  -33.3696   26.1910 H   0  0  0  0  0  0
  -28.3864  -32.6721   25.0301 H   0  0  0  0  0  0
  -28.0637  -31.8542   26.5494 H   0  0  0  0  0  0
  -28.2524  -38.0151   24.7593 H   0  0  0  0  0  0
  -28.1163  -36.2683   24.6153 H   0  0  0  0  0  0
  -27.2317  -37.1291   25.8853 H   0  0  0  0  0  0
  -20.9530  -29.8715   21.6751 H   0  0  0  0  0  0
  -26.0154  -38.2830   24.1483 H   0  0  0  0  0  0
  -30.6703  -19.6358   16.9497 H   0  0  0  0  0  0
  -30.8447  -17.6570   18.4105 H   0  0  0  0  0  0
  -31.5056  -22.9821   17.7887 H   0  0  0  0  0  0
  -30.7546  -23.5254   16.2935 H   0  0  0  0  0  0
  -31.5193  -21.9431   16.3719 H   0  0  0  0  0  0
  -29.5851  -17.5349   21.9451 H   0  0  0  0  0  0
  -31.2064  -17.3659   21.3692 H   0  0  0  0  0  0
  -27.2468  -24.5632   20.6363 H   0  0  0  0  0  0
  -27.7700  -24.6637   18.9771 H   0  0  0  0  0  0
  -29.6457  -23.8441   21.2506 H   0  0  0  0  0  0
  -30.0428  -23.7193   19.5908 H   0  0  0  0  0  0
  -28.9685  -22.8307   17.8493 H   0  0  0  0  0  0
  -28.8404  -15.7350   20.5892 H   0  0  0  0  0  0
  -29.2558  -20.9117   15.6885 H   0  0  0  0  0  0
  -28.5411  -22.3646   15.6477 H   0  0  0  0  0  0
  -27.8960  -21.1882   16.5512 H   0  0  0  0  0  0
  1 25  1  0  0  0
  1 30  2  0  0  0
  1 82  1  0  0  0
  2  3  1  0  0  0
  2 25  1  0  0  0
  2 85  1  0  0  0
  2 86  1  0  0  0
  3  4  1  0  0  0
  3 87  1  0  0  0
  3 88  1  0  0  0
  4  5  1  0  0  0
  4 89  1  0  0  0
  4 90  1  0  0  0
  5  6  1  0  0  0
  5 26  1  0  0  0
  5 91  1  0  0  0
  6 25  1  0  0  0
  6 92  1  0  0  0
  6 93  1  0  0  0
  7  8  2  0  0  0
  7 26  1  0  0  0
  7 29  1  0  0  0
  8  9  1  0  0  0
  8 22  1  0  0  0
  9 10  1  0  0  0
  9 27  2  0  0  0
 10 11  2  0  0  0
 10 15  1  0  0  0
 11 12  1  0  0  0
 11 94  1  0  0  0
 12 13  2  0  0  0
 12 95  1  0  0  0
 13 14  1  0  0  0
 13 31  1  0  0  0
 14 15  2  0  0  0
 14 96  1  0  0  0
 15 97  1  0  0  0
 16 17  2  0  0  0
 16 21  1  0  0  0
 16 31  1  0  0  0
 17 18  1  0  0  0
 17 98  1  0  0  0
 18 19  2  0  0  0
 18 99  1  0  0  0
 19 20  1  0  0  0
 19 24  1  0  0  0
 20 21  2  0  0  0
 20100  1  0  0  0
 21 23  1  0  0  0
 22 28  1  0  0  0
 22 32  2  0  0  0
 26 27  1  0  0  0
 28101  1  0  0  0
 28102  1  0  0  0
 29103  1  0  0  0
 29104  1  0  0  0
 33 34  1  0  0  0
 33 66  1  0  0  0
 33 70  2  0  0  0
 34 36  1  0  0  0
 34 59  1  0  0  0
 34105  1  0  0  0
 35 44  2  0  0  0
 35 45  1  0  0  0
 35 68  1  0  0  0
 36 56  1  0  0  0
 36106  1  0  0  0
 37 39  1  0  0  0
 37 47  1  0  0  0
 37 66  1  0  0  0
 37107  1  0  0  0
 38 43  2  0  0  0
 38 46  1  0  0  0
 38 47  1  0  0  0
 39 64  1  0  0  0
 39 67  2  0  0  0
 40 52  1  0  0  0
 40 53  2  0  0  0
 40 58  1  0  0  0
 41108  1  0  0  0
 41109  1  0  0  0
 41110  1  0  0  0
 41 48  1  0  0  0
 42 43  1  0  0  0
 42 66  1  0  0  0
 42111  1  0  0  0
 42112  1  0  0  0
 43 44  1  0  0  0
 44113  1  0  0  0
 45 46  2  0  0  0
 45114  1  0  0  0
 46115  1  0  0  0
 47116  1  0  0  0
 47117  1  0  0  0
 48 56  1  0  0  0
 48 65  1  0  0  0
 48118  1  0  0  0
 49 50  1  0  0  0
 49 53  1  0  0  0
 49 64  1  0  0  0
 49119  1  0  0  0
 50 51  1  0  0  0
 50120  1  0  0  0
 50121  1  0  0  0
 51 52  1  0  0  0
 51122  1  0  0  0
 51123  1  0  0  0
 52124  1  0  0  0
 52125  1  0  0  0
 53 54  1  0  0  0
 54 55  2  0  0  0
 54126  1  0  0  0
 55 57  1  0  0  0
 55127  1  0  0  0
 56 69  2  0  0  0
 57 58  2  0  0  0
 57128  1  0  0  0
 58129  1  0  0  0
 59 60  1  0  0  0
 59 61  1  0  0  0
 59 62  1  0  0  0
 60130  1  0  0  0
 60131  1  0  0  0
 60132  1  0  0  0
 61133  1  0  0  0
 61134  1  0  0  0
 61135  1  0  0  0
 62136  1  0  0  0
 62137  1  0  0  0
 62138  1  0  0  0
 63 65  1  0  0  0
 63139  1  0  0  0
 63140  1  0  0  0
 63141  1  0  0  0
 64142  1  0  0  0
 65143  1  0  0  0
 68 78  1  0  0  0
 71 72  2  0  0  0
 71 73  1  0  0  0
 71144  1  0  0  0
 72 74  1  0  0  0
 72145  1  0  0  0
 73 75  2  0  0  0
 73 80  1  0  0  0
 74 77  1  0  0  0
 74 81  2  0  0  0
 75 81  1  0  0  0
 75 84  1  0  0  0
 76146  1  0  0  0
 76147  1  0  0  0
 76148  1  0  0  0
 76 80  1  0  0  0
 77 82  1  0  0  0
 77149  1  0  0  0
 77150  1  0  0  0
 78 79  1  0  0  0
 78151  1  0  0  0
 78152  1  0  0  0
 79 84  1  0  0  0
 79153  1  0  0  0
 79154  1  0  0  0
 80 83  1  0  0  0
 80155  1  0  0  0
 82156  1  0  0  0
 83157  1  0  0  0
 83158  1  0  0  0
 83159  1  0  0  0
M  CHG  1  83   1
M  ISO  4   1 100  68 101  78 101  82 100
M  END
> <chiral flag>
0

> <version>
0

> <s_m_source_file>
/data/baiqing/PycharmProjects/Reinvent-master-3.2/result/LINK_invent/BTK/process_docking_weight1_custom_sum_contain_oxygen_bond_distance_aromatic_linkinvent_7_9_3/rearranged_h_0124.sdf

> <i_m_source_file_index>
57

> <r_mmod_Potential_Energy-OPLS-2005>
-244.986312866211

> <r_mmod_Stretch_Energy-OPLS-2005>
152.321395874023

> <r_mmod_Bend_Energy-OPLS-2005>
206.527069091797

> <r_mmod_Torsional_Energy-OPLS-2005>
219.499145507812

> <r_mmod_Improper_Torsional_Energy-OPLS-2005>
5.53396368026733

> <r_mmod_Van_der_Waal_Energy-OPLS-2005>
135.71272277832

> <r_mmod_Electrostatic_Energy-OPLS-2005>
-547.327331542969

> <r_mmod_Solvation_Energy-OPLS-2005>
-524.869873046875

> <b_mmod_Minimization_Converged-OPLS-2005>
0

> <r_mmod_RMS_Derivative-OPLS-2005>
4.73231363296509

$$$$
57
                    3D
 Structure written by MMmdl.
169180  0  0  1  0            999 V2000
  -30.6402  -14.8629   20.4456 C   0  0  0  0  0  0
  -30.4158  -12.5438   19.4837 C   0  0  0  0  0  0
  -29.5034  -12.5206   18.2411 C   0  0  0  0  0  0
  -28.0364  -12.3254   18.6639 C   0  0  0  0  0  0
  -27.6273  -13.2530   19.8404 C   0  0  2  0  0  0
  -28.6764  -13.2698   20.9717 C   0  0  0  0  0  0
  -25.2460  -13.8232   20.5748 C   0  0  0  0  0  0
  -24.1778  -13.0443   20.9237 C   0  0  0  0  0  0
  -24.6403  -11.6932   20.8768 C   0  0  0  0  0  0
  -23.9089  -10.4293   21.0406 C   0  0  0  0  0  0
  -24.3636   -9.4206   21.9183 C   0  0  0  0  0  0
  -23.6309   -8.2238   22.0746 C   0  0  0  0  0  0
  -22.4289   -8.0280   21.3537 C   0  0  0  0  0  0
  -21.9929   -9.0256   20.4641 C   0  0  0  0  0  0
  -22.7258  -10.2134   20.3054 C   0  0  0  0  0  0
  -21.6854   -6.0745   22.5283 C   0  0  0  0  0  0
  -21.4012   -6.5646   23.8219 C   0  0  0  0  0  0
  -21.3659   -5.6797   24.9178 C   0  0  0  0  0  0
  -21.6046   -4.3059   24.7224 C   0  0  0  0  0  0
  -21.8817   -3.8155   23.4345 C   0  0  0  0  0  0
  -21.9188   -4.6976   22.3402 C   0  0  0  0  0  0
  -22.7798  -13.5212   21.1883 C   0  0  0  0  0  0
  -22.1655   -4.2160   21.0980 F   0  0  0  0  0  0
  -21.5628   -3.4543   25.7733 F   0  0  0  0  0  0
  -29.9472  -13.6612   20.3529 N   0  0  0  0  0  0
  -26.2888  -12.9482   20.3297 N   0  0  0  0  0  0
  -25.9339  -11.6600   20.5776 N   0  0  0  0  0  0
  -22.0451  -12.8196   22.0438 N   0  0  0  0  0  0
  -25.4126  -15.1962   20.4185 N   0  0  0  0  0  0
  -31.8509  -14.7989   20.2022 O   0  0  0  0  0  0
  -21.6640   -6.8887   21.4243 O   0  0  0  0  0  0
  -22.3474  -14.5508   20.6714 O   0  0  0  0  0  0
  -24.6396  -31.8487   23.1944 C   0  0  0  0  0  0
  -25.9192  -32.4715   23.8314 C   0  0  1  0  0  0
  -27.2042  -27.1734   20.1464 C   0  0  0  0  0  0
  -25.5960  -33.8518   24.2227 N   0  0  0  0  0  0
  -23.4403  -30.4727   21.5389 C   0  0  2  0  0  0
  -24.8876  -28.9137   20.1071 C   0  0  0  0  0  0
  -22.7551  -29.4574   22.4876 C   0  0  0  0  0  0
  -18.0303  -28.1393   22.8480 C   0  0  0  0  0  0
  -24.1493  -36.7264   23.2640 C   0  0  0  0  0  0
  -25.9946  -30.7341   21.3900 C   0  0  0  0  0  0
  -26.0642  -29.3510   20.7289 C   0  0  0  0  0  0
  -27.2247  -28.4944   20.7380 C   0  0  0  0  0  0
  -26.0071  -26.8423   19.4686 C   0  0  0  0  0  0
  -24.8705  -27.6712   19.4620 C   0  0  0  0  0  0
  -23.6636  -29.8104   20.1548 C   0  0  0  0  0  0
  -25.4120  -36.3039   24.0319 C   0  0  1  0  0  0
  -20.5914  -28.3716   23.1244 C   0  0  2  0  0  0
  -20.6787  -26.9422   22.5405 C   0  0  0  0  0  0
  -19.5760  -26.6380   21.5215 C   0  0  0  0  0  0
  -18.1942  -26.7931   22.1624 C   0  0  0  0  0  0
  -19.1558  -28.8871   23.2856 C   0  0  0  0  0  0
  -18.9476  -30.1469   23.8880 C   0  0  0  0  0  0
  -17.6470  -30.6589   24.0561 C   0  0  0  0  0  0
  -25.9067  -34.9414   23.5075 C   0  0  0  0  0  0
  -16.5363  -29.9081   23.6337 C   0  0  0  0  0  0
  -16.7287  -28.6501   23.0357 C   0  0  0  0  0  0
  -26.4528  -31.6558   25.0732 C   0  0  0  0  0  0
  -25.3724  -31.3752   26.1440 C   0  0  0  0  0  0
  -27.0374  -30.2950   24.6291 C   0  0  0  0  0  0
  -27.6074  -32.4311   25.7506 C   0  0  0  0  0  0
  -27.5580  -37.1783   24.8458 C   0  0  0  0  0  0
  -21.4246  -29.3052   22.3620 N   0  0  0  0  0  0
  -26.4283  -37.3752   23.9412 N   0  0  0  0  0  0
  -24.7109  -31.0381   22.0963 N   0  0  0  0  0  0
  -23.4212  -28.8116   23.3004 O   0  0  0  0  0  0
  -28.2370  -26.1803   20.2456 O   0  0  0  0  0  0
  -26.5647  -34.8903   22.4649 O   0  0  0  0  0  0
  -23.5525  -32.1357   23.7186 O   0  0  0  0  0  0
  -28.4682  -21.9471   20.1183 C   0  0  0  0  0  0
  -28.7127  -23.3694   20.4518 C   0  0  0  0  0  0
  -29.3852  -21.0336   20.6753 C   0  0  0  0  0  0
  -29.8081  -23.2649   21.2706 C   0  0  0  0  0  0
  -30.6085  -24.3439   23.5297 C   0  0  0  0  0  0
  -29.7344  -25.3672   22.8487 C   0  0  0  0  0  0
  -32.7308  -22.2081   21.7514 C   0  0  0  0  0  0
  -32.5124  -20.7733   21.3572 C   0  0  0  0  0  0
  -28.5985  -18.3406   21.1556 C   0  0  0  0  0  0
  -30.1945  -18.7028   19.4348 C   0  0  0  0  0  0
  -29.1063  -16.8099   21.3608 C   0  0  0  0  0  0
  -30.7991  -17.2411   19.6505 C   0  0  0  0  0  0
  -29.6568  -19.4156   20.7079 C   0  0  0  0  0  0
  -30.5048  -24.3637   22.0205 C   0  0  0  0  0  0
  -31.4306  -21.5157   22.1201 C   0  0  0  0  0  0
  -27.8582  -24.7017   20.0409 C   0  0  0  0  0  0
  -30.2583  -21.9221   21.3390 N   0  0  0  0  0  0
  -30.0236  -16.1521   20.3575 N   0  0  0  0  0  0
  -31.4556  -12.6521   19.1713 H   0  0  0  0  0  0
  -30.3688  -11.5919   20.0148 H   0  0  0  0  0  0
  -29.8077  -11.7249   17.5595 H   0  0  0  0  0  0
  -29.6078  -13.4557   17.6887 H   0  0  0  0  0  0
  -27.9212  -11.2825   18.9599 H   0  0  0  0  0  0
  -27.3710  -12.4728   17.8118 H   0  0  0  0  0  0
  -27.5943  -14.2602   19.4240 H   0  0  0  0  0  0
  -28.7556  -12.2920   21.4486 H   0  0  0  0  0  0
  -28.3960  -13.9694   21.7584 H   0  0  0  0  0  0
  -25.2772   -9.5681   22.4771 H   0  0  0  0  0  0
  -24.0018   -7.4629   22.7463 H   0  0  0  0  0  0
  -21.0856   -8.8778   19.8951 H   0  0  0  0  0  0
  -22.3712  -10.9678   19.6171 H   0  0  0  0  0  0
  -21.2002   -7.6151   23.9726 H   0  0  0  0  0  0
  -21.1484   -6.0523   25.9081 H   0  0  0  0  0  0
  -22.0597   -2.7618   23.2839 H   0  0  0  0  0  0
  -22.4076  -11.9868   22.4838 H   0  0  0  0  0  0
  -21.1058  -13.1203   22.2629 H   0  0  0  0  0  0
  -24.6458  -15.8493   20.5356 H   0  0  0  0  0  0
  -26.2671  -15.6392   20.1048 H   0  0  0  0  0  0
  -26.7254  -32.5329   23.1043 H   0  0  0  0  0  0
  -25.0093  -33.9644   25.0364 H   0  0  0  0  0  0
  -22.7410  -31.2979   21.3901 H   0  0  0  0  0  0
  -23.3760  -35.9588   23.3269 H   0  0  0  0  0  0
  -24.3589  -36.8926   22.2060 H   0  0  0  0  0  0
  -23.7234  -37.6450   23.6690 H   0  0  0  0  0  0
  -26.1467  -31.4918   20.6204 H   0  0  0  0  0  0
  -26.8668  -30.7808   22.0302 H   0  0  0  0  0  0
  -28.1158  -28.8168   21.2585 H   0  0  0  0  0  0
  -25.8997  -25.8994   18.9549 H   0  0  0  0  0  0
  -23.9746  -27.3353   18.9585 H   0  0  0  0  0  0
  -23.7966  -30.5884   19.4022 H   0  0  0  0  0  0
  -22.7795  -29.2510   19.8437 H   0  0  0  0  0  0
  -25.1303  -36.1872   25.0809 H   0  0  0  0  0  0
  -21.0009  -28.3297   24.1365 H   0  0  0  0  0  0
  -20.5682  -26.2330   23.3622 H   0  0  0  0  0  0
  -21.6651  -26.7431   22.1197 H   0  0  0  0  0  0
  -19.6921  -25.6286   21.1256 H   0  0  0  0  0  0
  -19.6698  -27.3183   20.6739 H   0  0  0  0  0  0
  -17.4212  -26.6684   21.4025 H   0  0  0  0  0  0
  -18.0339  -26.0075   22.9020 H   0  0  0  0  0  0
  -19.7949  -30.7293   24.2239 H   0  0  0  0  0  0
  -17.5022  -31.6270   24.5164 H   0  0  0  0  0  0
  -15.5361  -30.2981   23.7670 H   0  0  0  0  0  0
  -15.8684  -28.0812   22.7085 H   0  0  0  0  0  0
  -24.5890  -30.7116   25.7764 H   0  0  0  0  0  0
  -24.8937  -32.2937   26.4843 H   0  0  0  0  0  0
  -25.8016  -30.8933   27.0234 H   0  0  0  0  0  0
  -26.2978  -29.6688   24.1290 H   0  0  0  0  0  0
  -27.3976  -29.7239   25.4860 H   0  0  0  0  0  0
  -27.8898  -30.4180   23.9607 H   0  0  0  0  0  0
  -27.2679  -33.3630   26.2044 H   0  0  0  0  0  0
  -28.3909  -32.6840   25.0345 H   0  0  0  0  0  0
  -28.0715  -31.8455   26.5456 H   0  0  0  0  0  0
  -28.2570  -38.0108   24.7525 H   0  0  0  0  0  0
  -28.1106  -36.2635   24.6250 H   0  0  0  0  0  0
  -27.2301  -37.1383   25.8862 H   0  0  0  0  0  0
  -20.9449  -29.8781   21.6817 H   0  0  0  0  0  0
  -26.0150  -38.2816   24.1438 H   0  0  0  0  0  0
  -27.6422  -21.6147   19.5044 H   0  0  0  0  0  0
  -30.1089  -23.5367   24.0625 H   0  0  0  0  0  0
  -31.5425  -24.6847   23.9722 H   0  0  0  0  0  0
  -30.0815  -26.3991   22.8365 H   0  0  0  0  0  0
  -28.6576  -25.2399   22.9353 H   0  0  0  0  0  0
  -32.7349  -22.9321   20.9392 H   0  0  0  0  0  0
  -33.4395  -22.4052   22.5530 H   0  0  0  0  0  0
  -33.0689  -20.0108   21.8988 H   0  0  0  0  0  0
  -32.3677  -20.5766   20.2981 H   0  0  0  0  0  0
  -28.1533  -18.6713   22.0951 H   0  0  0  0  0  0
  -27.7764  -18.3441   20.4392 H   0  0  0  0  0  0
  -29.4065  -18.6652   18.6810 H   0  0  0  0  0  0
  -30.9741  -19.3232   18.9932 H   0  0  0  0  0  0
  -28.2254  -16.1812   21.4805 H   0  0  0  0  0  0
  -29.6282  -16.7617   22.3177 H   0  0  0  0  0  0
  -31.7381  -17.3686   20.1921 H   0  0  0  0  0  0
  -31.0827  -16.8611   18.6670 H   0  0  0  0  0  0
  -30.4306  -19.2674   21.4558 H   0  0  0  0  0  0
  -31.3511  -24.7508   21.4564 H   0  0  0  0  0  0
  -31.2028  -21.2737   23.1570 H   0  0  0  0  0  0
  -26.9016  -24.5512   20.5428 H   0  0  0  0  0  0
  -27.6604  -24.5789   18.9760 H   0  0  0  0  0  0
  1 25  1  0  0  0
  1 30  2  0  0  0
  1 88  1  0  0  0
  2  3  1  0  0  0
  2 25  1  0  0  0
  2 89  1  0  0  0
  2 90  1  0  0  0
  3  4  1  0  0  0
  3 91  1  0  0  0
  3 92  1  0  0  0
  4  5  1  0  0  0
  4 93  1  0  0  0
  4 94  1  0  0  0
  5  6  1  0  0  0
  5 26  1  0  0  0
  5 95  1  0  0  0
  6 25  1  0  0  0
  6 96  1  0  0  0
  6 97  1  0  0  0
  7  8  2  0  0  0
  7 26  1  0  0  0
  7 29  1  0  0  0
  8  9  1  0  0  0
  8 22  1  0  0  0
  9 10  1  0  0  0
  9 27  2  0  0  0
 10 11  2  0  0  0
 10 15  1  0  0  0
 11 12  1  0  0  0
 11 98  1  0  0  0
 12 13  2  0  0  0
 12 99  1  0  0  0
 13 14  1  0  0  0
 13 31  1  0  0  0
 14 15  2  0  0  0
 14100  1  0  0  0
 15101  1  0  0  0
 16 17  2  0  0  0
 16 21  1  0  0  0
 16 31  1  0  0  0
 17 18  1  0  0  0
 17102  1  0  0  0
 18 19  2  0  0  0
 18103  1  0  0  0
 19 20  1  0  0  0
 19 24  1  0  0  0
 20 21  2  0  0  0
 20104  1  0  0  0
 21 23  1  0  0  0
 22 28  1  0  0  0
 22 32  2  0  0  0
 26 27  1  0  0  0
 28105  1  0  0  0
 28106  1  0  0  0
 29107  1  0  0  0
 29108  1  0  0  0
 33 34  1  0  0  0
 33 66  1  0  0  0
 33 70  2  0  0  0
 34 36  1  0  0  0
 34 59  1  0  0  0
 34109  1  0  0  0
 35 44  2  0  0  0
 35 45  1  0  0  0
 35 68  1  0  0  0
 36 56  1  0  0  0
 36110  1  0  0  0
 37 39  1  0  0  0
 37 47  1  0  0  0
 37 66  1  0  0  0
 37111  1  0  0  0
 38 43  2  0  0  0
 38 46  1  0  0  0
 38 47  1  0  0  0
 39 64  1  0  0  0
 39 67  2  0  0  0
 40 52  1  0  0  0
 40 53  2  0  0  0
 40 58  1  0  0  0
 41112  1  0  0  0
 41113  1  0  0  0
 41114  1  0  0  0
 41 48  1  0  0  0
 42 43  1  0  0  0
 42 66  1  0  0  0
 42115  1  0  0  0
 42116  1  0  0  0
 43 44  1  0  0  0
 44117  1  0  0  0
 45 46  2  0  0  0
 45118  1  0  0  0
 46119  1  0  0  0
 47120  1  0  0  0
 47121  1  0  0  0
 48 56  1  0  0  0
 48 65  1  0  0  0
 48122  1  0  0  0
 49 50  1  0  0  0
 49 53  1  0  0  0
 49 64  1  0  0  0
 49123  1  0  0  0
 50 51  1  0  0  0
 50124  1  0  0  0
 50125  1  0  0  0
 51 52  1  0  0  0
 51126  1  0  0  0
 51127  1  0  0  0
 52128  1  0  0  0
 52129  1  0  0  0
 53 54  1  0  0  0
 54 55  2  0  0  0
 54130  1  0  0  0
 55 57  1  0  0  0
 55131  1  0  0  0
 56 69  2  0  0  0
 57 58  2  0  0  0
 57132  1  0  0  0
 58133  1  0  0  0
 59 60  1  0  0  0
 59 61  1  0  0  0
 59 62  1  0  0  0
 60134  1  0  0  0
 60135  1  0  0  0
 60136  1  0  0  0
 61137  1  0  0  0
 61138  1  0  0  0
 61139  1  0  0  0
 62140  1  0  0  0
 62141  1  0  0  0
 62142  1  0  0  0
 63 65  1  0  0  0
 63143  1  0  0  0
 63144  1  0  0  0
 63145  1  0  0  0
 64146  1  0  0  0
 65147  1  0  0  0
 68 86  1  0  0  0
 71 72  1  0  0  0
 71 73  2  0  0  0
 71148  1  0  0  0
 72 74  2  0  0  0
 72 86  1  0  0  0
 73 87  1  0  0  0
 73 83  1  0  0  0
 74 87  1  0  0  0
 74 84  1  0  0  0
 75 76  1  0  0  0
 75 84  1  0  0  0
 75149  1  0  0  0
 75150  1  0  0  0
 76 84  1  0  0  0
 76151  1  0  0  0
 76152  1  0  0  0
 77 78  1  0  0  0
 77 85  1  0  0  0
 77153  1  0  0  0
 77154  1  0  0  0
 78 85  1  0  0  0
 78155  1  0  0  0
 78156  1  0  0  0
 79 81  1  0  0  0
 79 83  1  0  0  0
 79157  1  0  0  0
 79158  1  0  0  0
 80 82  1  0  0  0
 80 83  1  0  0  0
 80159  1  0  0  0
 80160  1  0  0  0
 81 88  1  0  0  0
 81161  1  0  0  0
 81162  1  0  0  0
 82 88  1  0  0  0
 82163  1  0  0  0
 82164  1  0  0  0
 83165  1  0  0  0
 84166  1  0  0  0
 85 87  1  0  0  0
 85167  1  0  0  0
 86168  1  0  0  0
 86169  1  0  0  0
M  ISO  4   1 100  68 101  86 101  88 100
M  END
> <chiral flag>
0

> <version>
0

> <s_m_source_file>
/data/baiqing/PycharmProjects/Reinvent-master-3.2/result/LINK_invent/BTK/process_docking_weight1_custom_sum_contain_oxygen_bond_distance_aromatic_linkinvent_7_9_3/rearranged_h_0124.sdf

> <i_m_source_file_index>
58

> <r_mmod_Potential_Energy-OPLS-2005>
674.447570800781

> <r_mmod_Stretch_Energy-OPLS-2005>
192.480331420898

> <r_mmod_Bend_Energy-OPLS-2005>
263.861450195312

> <r_mmod_Torsional_Energy-OPLS-2005>
404.077880859375

> <r_mmod_Improper_Torsional_Energy-OPLS-2005>
16.4657020568848

> <r_mmod_Van_der_Waal_Energy-OPLS-2005>
122.290901184082

> <r_mmod_Electrostatic_Energy-OPLS-2005>
-285.583099365234

> <r_mmod_Solvation_Energy-OPLS-2005>
-194.116897583008

> <b_mmod_Minimization_Converged-OPLS-2005>
0

> <r_mmod_RMS_Derivative-OPLS-2005>
1.22762286663055

$$$$
58
                    3D
 Structure written by MMmdl.
163171  0  0  1  0            999 V2000
  -30.7802  -14.4039   20.5797 C   0  0  0  0  0  0
  -30.4134  -12.2788   19.4075 C   0  0  0  0  0  0
  -29.4830  -12.4979   18.2010 C   0  0  0  0  0  0
  -28.0090  -12.3709   18.6273 C   0  0  0  0  0  0
  -27.6656  -13.2170   19.8825 C   0  0  2  0  0  0
  -28.7143  -13.0060   21.0002 C   0  0  0  0  0  0
  -25.2590  -13.8207   20.5751 C   0  0  0  0  0  0
  -24.1845  -13.0478   20.9230 C   0  0  0  0  0  0
  -24.6409  -11.6937   20.8793 C   0  0  0  0  0  0
  -23.9069  -10.4306   21.0426 C   0  0  0  0  0  0
  -24.3613   -9.4211   21.9196 C   0  0  0  0  0  0
  -23.6304   -8.2235   22.0712 C   0  0  0  0  0  0
  -22.4283   -8.0269   21.3508 C   0  0  0  0  0  0
  -21.9928   -9.0242   20.4620 C   0  0  0  0  0  0
  -22.7259  -10.2129   20.3056 C   0  0  0  0  0  0
  -21.6839   -6.0724   22.5260 C   0  0  0  0  0  0
  -21.4011   -6.5608   23.8207 C   0  0  0  0  0  0
  -21.3682   -5.6752   24.9158 C   0  0  0  0  0  0
  -21.6062   -4.3018   24.7203 C   0  0  0  0  0  0
  -21.8830   -3.8127   23.4323 C   0  0  0  0  0  0
  -21.9206   -4.6958   22.3388 C   0  0  0  0  0  0
  -22.7849  -13.5228   21.1905 C   0  0  0  0  0  0
  -22.1670   -4.2144   21.0969 F   0  0  0  0  0  0
  -21.5660   -3.4497   25.7722 F   0  0  0  0  0  0
  -30.0523  -13.2657   20.4365 N   0  0  0  0  0  0
  -26.3057  -12.9408   20.3453 N   0  0  0  0  0  0
  -25.9347  -11.6557   20.5841 N   0  0  0  0  0  0
  -22.0480  -12.8204   22.0449 N   0  0  0  0  0  0
  -25.4306  -15.1929   20.4155 N   0  0  0  0  0  0
  -31.8742  -14.5789   20.0391 O   0  0  0  0  0  0
  -21.6643   -6.8869   21.4214 O   0  0  0  0  0  0
  -22.3525  -14.5532   20.6759 O   0  0  0  0  0  0
  -24.6130  -31.8697   23.2106 C   0  0  0  0  0  0
  -25.9054  -32.4830   23.8370 C   0  0  1  0  0  0
  -27.2351  -27.4533   20.0859 C   0  0  0  0  0  0
  -25.5930  -33.8624   24.2342 N   0  0  0  0  0  0
  -23.3999  -30.4933   21.5499 C   0  0  2  0  0  0
  -24.8480  -28.9612   20.1075 C   0  0  0  0  0  0
  -22.7410  -29.4667   22.4989 C   0  0  0  0  0  0
  -18.0288  -28.1402   22.8493 C   0  0  0  0  0  0
  -24.1482  -36.7311   23.2633 C   0  0  0  0  0  0
  -25.9254  -30.8397   21.3632 C   0  0  0  0  0  0
  -26.0056  -29.4764   20.7047 C   0  0  0  0  0  0
  -27.2049  -28.7306   20.6886 C   0  0  0  0  0  0
  -26.0679  -26.9506   19.4752 C   0  0  0  0  0  0
  -24.8747  -27.6998   19.4843 C   0  0  0  0  0  0
  -23.6058  -29.8224   20.1633 C   0  0  0  0  0  0
  -25.4123  -36.3132   24.0325 C   0  0  1  0  0  0
  -20.5887  -28.3621   23.1320 C   0  0  2  0  0  0
  -20.6776  -26.9379   22.5369 C   0  0  0  0  0  0
  -19.5762  -26.6491   21.5113 C   0  0  0  0  0  0
  -18.1948  -26.7979   22.1567 C   0  0  0  0  0  0
  -19.1554  -28.8808   23.2947 C   0  0  0  0  0  0
  -18.9528  -30.1393   23.9008 C   0  0  0  0  0  0
  -17.6546  -30.6546   24.0712 C   0  0  0  0  0  0
  -25.9046  -34.9486   23.5135 C   0  0  0  0  0  0
  -16.5414  -29.9121   23.6388 C   0  0  0  0  0  0
  -16.7290  -28.6567   23.0317 C   0  0  0  0  0  0
  -26.4499  -31.6583   25.0684 C   0  0  0  0  0  0
  -25.3772  -31.3659   26.1418 C   0  0  0  0  0  0
  -27.0345  -30.3024   24.6072 C   0  0  0  0  0  0
  -27.6090  -32.4270   25.7445 C   0  0  0  0  0  0
  -27.5594  -37.1817   24.8467 C   0  0  0  0  0  0
  -21.4130  -29.3059   22.3764 N   0  0  0  0  0  0
  -26.4320  -37.3801   23.9397 N   0  0  0  0  0  0
  -24.6639  -31.0808   22.1000 N   0  0  0  0  0  0
  -23.4199  -28.8193   23.3010 O   0  0  0  0  0  0
  -28.3867  -26.7055   20.0853 O   0  0  0  0  0  0
  -26.5564  -34.8938   22.4668 O   0  0  0  0  0  0
  -23.5332  -32.1456   23.7508 O   0  0  0  0  0  0
  -28.5155  -19.8157   19.8512 C   0  0  0  0  0  0
  -28.3247  -21.2209   19.7701 C   0  0  0  0  0  0
  -28.5729  -19.4711   21.1723 C   0  0  0  0  0  0
  -28.2841  -21.7285   21.0418 C   0  0  0  0  0  0
  -26.6051  -23.2494   22.1533 C   0  0  0  0  0  0
  -28.6514  -20.7392   23.3634 C   0  0  0  0  0  0
  -28.6450  -18.1069   21.8102 C   0  0  0  0  0  0
  -30.0470  -17.6796   22.2924 C   0  0  0  0  0  0
  -28.1767  -24.2522   20.4692 C   0  0  0  0  0  0
  -30.7839  -16.7509   21.3148 C   0  0  0  0  0  0
  -28.4022  -25.6653   21.0702 C   0  0  0  0  0  0
  -28.0187  -23.1384   21.5424 C   0  0  2  0  0  0
  -28.5117  -20.6516   21.9114 N   0  0  0  0  0  0
  -30.2067  -15.4022   21.2644 N   0  0  0  0  0  0
  -31.4548  -12.3527   19.0872 H   0  0  0  0  0  0
  -30.3007  -11.2694   19.8028 H   0  0  0  0  0  0
  -29.7042  -11.7726   17.4159 H   0  0  0  0  0  0
  -29.6623  -13.4859   17.7698 H   0  0  0  0  0  0
  -27.8181  -11.3154   18.8301 H   0  0  0  0  0  0
  -27.3492  -12.6422   17.8033 H   0  0  0  0  0  0
  -27.7072  -14.2670   19.5858 H   0  0  0  0  0  0
  -28.6750  -11.9842   21.3778 H   0  0  0  0  0  0
  -28.4906  -13.6386   21.8605 H   0  0  0  0  0  0
  -25.2756   -9.5683   22.4774 H   0  0  0  0  0  0
  -24.0036   -7.4594   22.7386 H   0  0  0  0  0  0
  -21.0869   -8.8754   19.8899 H   0  0  0  0  0  0
  -22.3726  -10.9657   19.6147 H   0  0  0  0  0  0
  -21.1961   -7.6102   23.9711 H   0  0  0  0  0  0
  -21.1518   -6.0467   25.9065 H   0  0  0  0  0  0
  -22.0611   -2.7586   23.2810 H   0  0  0  0  0  0
  -22.4071  -11.9853   22.4861 H   0  0  0  0  0  0
  -21.1058  -13.1155   22.2604 H   0  0  0  0  0  0
  -24.6654  -15.8507   20.5269 H   0  0  0  0  0  0
  -26.2856  -15.6324   20.0985 H   0  0  0  0  0  0
  -26.7116  -32.5537   23.1128 H   0  0  0  0  0  0
  -25.0121  -33.9782   25.0507 H   0  0  0  0  0  0
  -22.6862  -31.3096   21.4106 H   0  0  0  0  0  0
  -23.3756  -35.9639   23.3323 H   0  0  0  0  0  0
  -24.3572  -36.8907   22.2043 H   0  0  0  0  0  0
  -23.7221  -37.6527   23.6617 H   0  0  0  0  0  0
  -26.0405  -31.6113   20.6021 H   0  0  0  0  0  0
  -26.8139  -30.8877   21.9825 H   0  0  0  0  0  0
  -28.0999  -29.1247   21.1472 H   0  0  0  0  0  0
  -26.0722  -25.9900   18.9841 H   0  0  0  0  0  0
  -23.9904  -27.3058   19.0025 H   0  0  0  0  0  0
  -23.7098  -30.5944   19.3992 H   0  0  0  0  0  0
  -22.7310  -29.2378   19.8722 H   0  0  0  0  0  0
  -25.1306  -36.2008   25.0825 H   0  0  0  0  0  0
  -20.9964  -28.3159   24.1444 H   0  0  0  0  0  0
  -20.5561  -26.2235   23.3528 H   0  0  0  0  0  0
  -21.6664  -26.7372   22.1216 H   0  0  0  0  0  0
  -19.6928  -25.6464   21.0971 H   0  0  0  0  0  0
  -19.6710  -27.3407   20.6737 H   0  0  0  0  0  0
  -17.4217  -26.6702   21.3979 H   0  0  0  0  0  0
  -18.0445  -26.0091   22.8949 H   0  0  0  0  0  0
  -19.8025  -30.7156   24.2449 H   0  0  0  0  0  0
  -17.5159  -31.6191   24.5426 H   0  0  0  0  0  0
  -15.5444  -30.3076   23.7760 H   0  0  0  0  0  0
  -15.8689  -28.0948   22.6921 H   0  0  0  0  0  0
  -24.5967  -30.7004   25.7707 H   0  0  0  0  0  0
  -24.8939  -32.2801   26.4857 H   0  0  0  0  0  0
  -25.8135  -30.8798   27.0155 H   0  0  0  0  0  0
  -26.2889  -29.6735   24.1201 H   0  0  0  0  0  0
  -27.4190  -29.7313   25.4534 H   0  0  0  0  0  0
  -27.8685  -30.4322   23.9183 H   0  0  0  0  0  0
  -27.2751  -33.3559   26.2062 H   0  0  0  0  0  0
  -28.3897  -32.6835   25.0279 H   0  0  0  0  0  0
  -28.0765  -31.8353   26.5324 H   0  0  0  0  0  0
  -28.2640  -38.0090   24.7536 H   0  0  0  0  0  0
  -28.1079  -36.2630   24.6299 H   0  0  0  0  0  0
  -27.2295  -37.1473   25.8867 H   0  0  0  0  0  0
  -20.9262  -29.8917   21.7120 H   0  0  0  0  0  0
  -26.0222  -38.2909   24.1366 H   0  0  0  0  0  0
  -28.5651  -19.1228   19.0198 H   0  0  0  0  0  0
  -28.2074  -21.7895   18.8584 H   0  0  0  0  0  0
  -26.4277  -22.5269   22.9471 H   0  0  0  0  0  0
  -25.8423  -23.0794   21.3934 H   0  0  0  0  0  0
  -26.4224  -24.2327   22.5852 H   0  0  0  0  0  0
  -28.9315  -19.7815   23.8025 H   0  0  0  0  0  0
  -27.7169  -21.0463   23.8211 H   0  0  0  0  0  0
  -29.4314  -21.4535   23.6222 H   0  0  0  0  0  0
  -28.2448  -17.3664   21.1167 H   0  0  0  0  0  0
  -27.9527  -18.0711   22.6506 H   0  0  0  0  0  0
  -29.9590  -17.1609   23.2484 H   0  0  0  0  0  0
  -30.6652  -18.5533   22.5060 H   0  0  0  0  0  0
  -29.0231  -24.0301   19.8197 H   0  0  0  0  0  0
  -27.2982  -24.2493   19.8234 H   0  0  0  0  0  0
  -31.8365  -16.6901   21.6056 H   0  0  0  0  0  0
  -30.7719  -17.1832   20.3120 H   0  0  0  0  0  0
  -29.3701  -25.6945   21.5724 H   0  0  0  0  0  0
  -27.6738  -25.8813   21.8545 H   0  0  0  0  0  0
  -28.7493  -23.3425   22.3262 H   0  0  0  0  0  0
  -29.3030  -15.2310   21.6780 H   0  0  0  0  0  0
  1 25  1  0  0  0
  1 30  2  0  0  0
  1 84  1  0  0  0
  2  3  1  0  0  0
  2 25  1  0  0  0
  2 85  1  0  0  0
  2 86  1  0  0  0
  3  4  1  0  0  0
  3 87  1  0  0  0
  3 88  1  0  0  0
  4  5  1  0  0  0
  4 89  1  0  0  0
  4 90  1  0  0  0
  5  6  1  0  0  0
  5 26  1  0  0  0
  5 91  1  0  0  0
  6 25  1  0  0  0
  6 92  1  0  0  0
  6 93  1  0  0  0
  7  8  2  0  0  0
  7 26  1  0  0  0
  7 29  1  0  0  0
  8  9  1  0  0  0
  8 22  1  0  0  0
  9 10  1  0  0  0
  9 27  2  0  0  0
 10 11  2  0  0  0
 10 15  1  0  0  0
 11 12  1  0  0  0
 11 94  1  0  0  0
 12 13  2  0  0  0
 12 95  1  0  0  0
 13 14  1  0  0  0
 13 31  1  0  0  0
 14 15  2  0  0  0
 14 96  1  0  0  0
 15 97  1  0  0  0
 16 17  2  0  0  0
 16 21  1  0  0  0
 16 31  1  0  0  0
 17 18  1  0  0  0
 17 98  1  0  0  0
 18 19  2  0  0  0
 18 99  1  0  0  0
 19 20  1  0  0  0
 19 24  1  0  0  0
 20 21  2  0  0  0
 20100  1  0  0  0
 21 23  1  0  0  0
 22 28  1  0  0  0
 22 32  2  0  0  0
 26 27  1  0  0  0
 28101  1  0  0  0
 28102  1  0  0  0
 29103  1  0  0  0
 29104  1  0  0  0
 33 34  1  0  0  0
 33 66  1  0  0  0
 33 70  2  0  0  0
 34 36  1  0  0  0
 34 59  1  0  0  0
 34105  1  0  0  0
 35 44  2  0  0  0
 35 45  1  0  0  0
 35 68  1  0  0  0
 36 56  1  0  0  0
 36106  1  0  0  0
 37 39  1  0  0  0
 37 47  1  0  0  0
 37 66  1  0  0  0
 37107  1  0  0  0
 38 43  2  0  0  0
 38 46  1  0  0  0
 38 47  1  0  0  0
 39 64  1  0  0  0
 39 67  2  0  0  0
 40 52  1  0  0  0
 40 53  2  0  0  0
 40 58  1  0  0  0
 41108  1  0  0  0
 41109  1  0  0  0
 41110  1  0  0  0
 41 48  1  0  0  0
 42 43  1  0  0  0
 42 66  1  0  0  0
 42111  1  0  0  0
 42112  1  0  0  0
 43 44  1  0  0  0
 44113  1  0  0  0
 45 46  2  0  0  0
 45114  1  0  0  0
 46115  1  0  0  0
 47116  1  0  0  0
 47117  1  0  0  0
 48 56  1  0  0  0
 48 65  1  0  0  0
 48118  1  0  0  0
 49 50  1  0  0  0
 49 53  1  0  0  0
 49 64  1  0  0  0
 49119  1  0  0  0
 50 51  1  0  0  0
 50120  1  0  0  0
 50121  1  0  0  0
 51 52  1  0  0  0
 51122  1  0  0  0
 51123  1  0  0  0
 52124  1  0  0  0
 52125  1  0  0  0
 53 54  1  0  0  0
 54 55  2  0  0  0
 54126  1  0  0  0
 55 57  1  0  0  0
 55127  1  0  0  0
 56 69  2  0  0  0
 57 58  2  0  0  0
 57128  1  0  0  0
 58129  1  0  0  0
 59 60  1  0  0  0
 59 61  1  0  0  0
 59 62  1  0  0  0
 60130  1  0  0  0
 60131  1  0  0  0
 60132  1  0  0  0
 61133  1  0  0  0
 61134  1  0  0  0
 61135  1  0  0  0
 62136  1  0  0  0
 62137  1  0  0  0
 62138  1  0  0  0
 63 65  1  0  0  0
 63139  1  0  0  0
 63140  1  0  0  0
 63141  1  0  0  0
 64142  1  0  0  0
 65143  1  0  0  0
 68 81  1  0  0  0
 71 72  1  0  0  0
 71 73  2  0  0  0
 71144  1  0  0  0
 72 74  2  0  0  0
 72145  1  0  0  0
 73 77  1  0  0  0
 73 83  1  0  0  0
 74 82  1  0  0  0
 74 83  1  0  0  0
 75146  1  0  0  0
 75147  1  0  0  0
 75148  1  0  0  0
 75 82  1  0  0  0
 76 83  1  0  0  0
 76149  1  0  0  0
 76150  1  0  0  0
 76151  1  0  0  0
 77 78  1  0  0  0
 77152  1  0  0  0
 77153  1  0  0  0
 78 80  1  0  0  0
 78154  1  0  0  0
 78155  1  0  0  0
 79 81  1  0  0  0
 79 82  1  0  0  0
 79156  1  0  0  0
 79157  1  0  0  0
 80 84  1  0  0  0
 80158  1  0  0  0
 80159  1  0  0  0
 81160  1  0  0  0
 81161  1  0  0  0
 82162  1  0  0  0
 84163  1  0  0  0
M  ISO  4   1 100  68 101  81 101  84 100
M  END
> <chiral flag>
0

> <version>
0

> <s_m_source_file>
/data/baiqing/PycharmProjects/Reinvent-master-3.2/result/LINK_invent/BTK/process_docking_weight1_custom_sum_contain_oxygen_bond_distance_aromatic_linkinvent_7_9_3/rearranged_h_0124.sdf

> <i_m_source_file_index>
59

> <r_mmod_Potential_Energy-OPLS-2005>
-88.9365921020508

> <r_mmod_Stretch_Energy-OPLS-2005>
35.6178207397461

> <r_mmod_Bend_Energy-OPLS-2005>
92.570915222168

> <r_mmod_Torsional_Energy-OPLS-2005>
248.495971679688

> <r_mmod_Improper_Torsional_Energy-OPLS-2005>
2.56170415878296

> <r_mmod_Van_der_Waal_Energy-OPLS-2005>
129.761627197266

> <r_mmod_Electrostatic_Energy-OPLS-2005>
-401.589538574219

> <r_mmod_Solvation_Energy-OPLS-2005>
-207.4716796875

> <b_mmod_Minimization_Converged-OPLS-2005>
0

> <r_mmod_RMS_Derivative-OPLS-2005>
4.40026712417603

$$$$
59
                    3D
 Structure written by MMmdl.
164173  0  0  1  0            999 V2000
  -30.6168  -14.6687   20.5350 C   0  0  0  0  0  0
  -30.4406  -12.4161   19.4942 C   0  0  0  0  0  0
  -29.5141  -12.5076   18.2560 C   0  0  0  0  0  0
  -28.0509  -12.2976   18.6815 C   0  0  0  0  0  0
  -27.6537  -13.2012   19.8746 C   0  0  2  0  0  0
  -28.6893  -13.1029   21.0214 C   0  0  0  0  0  0
  -25.2591  -13.8151   20.5750 C   0  0  0  0  0  0
  -24.1807  -13.0450   20.9213 C   0  0  0  0  0  0
  -24.6346  -11.6912   20.8729 C   0  0  0  0  0  0
  -23.8994  -10.4294   21.0386 C   0  0  0  0  0  0
  -24.3558   -9.4229   21.9159 C   0  0  0  0  0  0
  -23.6264   -8.2239   22.0745 C   0  0  0  0  0  0
  -22.4256   -8.0249   21.3523 C   0  0  0  0  0  0
  -21.9875   -9.0224   20.4626 C   0  0  0  0  0  0
  -22.7180  -10.2113   20.3045 C   0  0  0  0  0  0
  -21.6868   -6.0689   22.5257 C   0  0  0  0  0  0
  -21.4026   -6.5609   23.8178 C   0  0  0  0  0  0
  -21.3664   -5.6782   24.9148 C   0  0  0  0  0  0
  -21.6072   -4.3054   24.7229 C   0  0  0  0  0  0
  -21.8823   -3.8114   23.4360 C   0  0  0  0  0  0
  -21.9218   -4.6913   22.3401 C   0  0  0  0  0  0
  -22.7843  -13.5244   21.1912 C   0  0  0  0  0  0
  -22.1687   -4.2093   21.0987 F   0  0  0  0  0  0
  -21.5638   -3.4544   25.7743 F   0  0  0  0  0  0
  -30.0136  -13.4401   20.4766 N   0  0  0  0  0  0
  -26.2969  -12.9282   20.3360 N   0  0  0  0  0  0
  -25.9257  -11.6452   20.5788 N   0  0  0  0  0  0
  -22.0518  -12.8148   22.0438 N   0  0  0  0  0  0
  -25.4420  -15.1838   20.4206 N   0  0  0  0  0  0
  -31.7264  -14.8644   20.0291 O   0  0  0  0  0  0
  -21.6679   -6.8818   21.4218 O   0  0  0  0  0  0
  -22.3509  -14.5530   20.6788 O   0  0  0  0  0  0
  -24.6163  -31.8633   23.2087 C   0  0  0  0  0  0
  -25.9053  -32.4793   23.8396 C   0  0  1  0  0  0
  -27.2298  -27.3587   20.1222 C   0  0  0  0  0  0
  -25.5929  -33.8599   24.2323 N   0  0  0  0  0  0
  -23.4108  -30.4877   21.5491 C   0  0  2  0  0  0
  -24.8642  -28.9449   20.1189 C   0  0  0  0  0  0
  -22.7450  -29.4609   22.4964 C   0  0  0  0  0  0
  -18.0288  -28.1447   22.8576 C   0  0  0  0  0  0
  -24.1494  -36.7295   23.2640 C   0  0  0  0  0  0
  -25.9522  -30.8118   21.3781 C   0  0  0  0  0  0
  -26.0314  -29.4369   20.7223 C   0  0  0  0  0  0
  -27.2230  -28.6563   20.7132 C   0  0  0  0  0  0
  -26.0443  -26.8968   19.5166 C   0  0  0  0  0  0
  -24.8701  -27.6753   19.5128 C   0  0  0  0  0  0
  -23.6292  -29.8226   20.1639 C   0  0  0  0  0  0
  -25.4119  -36.3102   24.0331 C   0  0  1  0  0  0
  -20.5866  -28.3568   23.1144 C   0  0  2  0  0  0
  -20.6694  -26.9366   22.5091 C   0  0  0  0  0  0
  -19.5471  -26.6368   21.5083 C   0  0  0  0  0  0
  -18.1918  -26.7820   22.2043 C   0  0  0  0  0  0
  -19.1582  -28.8861   23.2838 C   0  0  0  0  0  0
  -18.9621  -30.1467   23.8878 C   0  0  0  0  0  0
  -17.6639  -30.6623   24.0747 C   0  0  0  0  0  0
  -25.9042  -34.9444   23.5125 C   0  0  0  0  0  0
  -16.5495  -29.9210   23.6512 C   0  0  0  0  0  0
  -16.7322  -28.6669   23.0408 C   0  0  0  0  0  0
  -26.4484  -31.6614   25.0754 C   0  0  0  0  0  0
  -25.3746  -31.3724   26.1502 C   0  0  0  0  0  0
  -27.0341  -30.3042   24.6239 C   0  0  0  0  0  0
  -27.6056  -32.4341   25.7510 C   0  0  0  0  0  0
  -27.5594  -37.1822   24.8475 C   0  0  0  0  0  0
  -21.4158  -29.3036   22.3699 N   0  0  0  0  0  0
  -26.4314  -37.3789   23.9400 N   0  0  0  0  0  0
  -24.6780  -31.0645   22.1033 N   0  0  0  0  0  0
  -23.4206  -28.8131   23.2974 O   0  0  0  0  0  0
  -28.3313  -26.5074   20.1216 O   0  0  0  0  0  0
  -26.5604  -34.8891   22.4673 O   0  0  0  0  0  0
  -23.5358  -32.1410   23.7470 O   0  0  0  0  0  0
  -29.6028  -22.1697   19.3010 C   0  0  0  0  0  0
  -29.3107  -23.5420   19.5580 C   0  0  0  0  0  0
  -28.2958  -22.8967   21.6337 C   0  0  0  0  0  0
  -29.2138  -21.1047   20.1773 C   0  0  0  0  0  0
  -28.6219  -23.9396   20.7229 C   0  0  0  0  0  0
  -28.5751  -21.5123   21.3849 C   0  0  0  0  0  0
  -29.9637  -19.3587   18.3876 C   0  0  0  0  0  0
  -31.4301  -19.1084   18.7749 C   0  0  0  0  0  0
  -29.2683  -19.5754   19.7417 C   0  0  1  0  0  0
  -30.0224  -18.4419   20.5822 C   0  0  1  0  0  0
  -27.2555  -20.7728   23.2698 C   0  0  0  0  0  0
  -28.2636  -25.4208   21.1030 C   0  0  0  0  0  0
  -29.4767  -16.9694   20.2504 C   0  0  0  0  0  0
  -29.8613  -15.7128   20.9935 N   0  0  0  0  0  0
  -31.4269  -18.5593   20.1524 N   0  3  0  0  0  0
  -28.2338  -20.5071   22.2674 O   0  0  0  0  0  0
  -31.4805  -12.5455   19.2000 H   0  0  0  0  0  0
  -30.3757  -11.4244   19.9501 H   0  0  0  0  0  0
  -29.7941  -11.7574   17.5169 H   0  0  0  0  0  0
  -29.6189  -13.4797   17.7653 H   0  0  0  0  0  0
  -27.9532  -11.2495   18.9768 H   0  0  0  0  0  0
  -27.3686  -12.4372   17.8424 H   0  0  0  0  0  0
  -27.6670  -14.2247   19.5011 H   0  0  0  0  0  0
  -28.7127  -12.1000   21.4505 H   0  0  0  0  0  0
  -28.4033  -13.7623   21.8399 H   0  0  0  0  0  0
  -25.2682   -9.5754   22.4729 H   0  0  0  0  0  0
  -24.0021   -7.4662   22.7430 H   0  0  0  0  0  0
  -21.0826   -8.8682   19.8913 H   0  0  0  0  0  0
  -22.3587  -10.9634   19.6149 H   0  0  0  0  0  0
  -21.2009   -7.6120   23.9645 H   0  0  0  0  0  0
  -21.1488   -6.0528   25.9037 H   0  0  0  0  0  0
  -22.0611   -2.7577   23.2884 H   0  0  0  0  0  0
  -22.4215  -11.9751   22.4659 H   0  0  0  0  0  0
  -21.1133  -13.1078   22.2744 H   0  0  0  0  0  0
  -24.6888  -15.8545   20.5142 H   0  0  0  0  0  0
  -26.3063  -15.6027   20.1024 H   0  0  0  0  0  0
  -26.7090  -32.5486   23.1147 H   0  0  0  0  0  0
  -25.0140  -33.9809   25.0502 H   0  0  0  0  0  0
  -22.6966  -31.3040   21.4143 H   0  0  0  0  0  0
  -23.3769  -35.9626   23.3325 H   0  0  0  0  0  0
  -24.3580  -36.8903   22.2062 H   0  0  0  0  0  0
  -23.7263  -37.6503   23.6628 H   0  0  0  0  0  0
  -26.0810  -31.5795   20.6123 H   0  0  0  0  0  0
  -26.8271  -30.8488   22.0171 H   0  0  0  0  0  0
  -28.1291  -29.0357   21.1701 H   0  0  0  0  0  0
  -26.0287  -25.9162   19.0530 H   0  0  0  0  0  0
  -23.9693  -27.2911   19.0525 H   0  0  0  0  0  0
  -23.7330  -30.6098   19.4117 H   0  0  0  0  0  0
  -22.7478  -29.2549   19.8652 H   0  0  0  0  0  0
  -25.1318  -36.1975   25.0832 H   0  0  0  0  0  0
  -20.9941  -28.2984   24.1236 H   0  0  0  0  0  0
  -20.5744  -26.2139   23.3229 H   0  0  0  0  0  0
  -21.6525  -26.7455   22.0735 H   0  0  0  0  0  0
  -19.6487  -25.6249   21.1129 H   0  0  0  0  0  0
  -19.6059  -27.3158   20.6544 H   0  0  0  0  0  0
  -17.3739  -26.5984   21.5065 H   0  0  0  0  0  0
  -18.1116  -26.0347   22.9946 H   0  0  0  0  0  0
  -19.8151  -30.7230   24.2226 H   0  0  0  0  0  0
  -17.5267  -31.6289   24.5486 H   0  0  0  0  0  0
  -15.5540  -30.3167   23.7995 H   0  0  0  0  0  0
  -15.8678  -28.1164   22.7050 H   0  0  0  0  0  0
  -24.5833  -30.7215   25.7799 H   0  0  0  0  0  0
  -24.9039  -32.2878   26.5078 H   0  0  0  0  0  0
  -25.8072  -30.8746   27.0186 H   0  0  0  0  0  0
  -26.2923  -29.6786   24.1282 H   0  0  0  0  0  0
  -27.4038  -29.7342   25.4774 H   0  0  0  0  0  0
  -27.8773  -30.4318   23.9456 H   0  0  0  0  0  0
  -27.2667  -33.3587   26.2177 H   0  0  0  0  0  0
  -28.3801  -32.7024   25.0313 H   0  0  0  0  0  0
  -28.0792  -31.8429   26.5371 H   0  0  0  0  0  0
  -28.2650  -38.0093   24.7498 H   0  0  0  0  0  0
  -28.1061  -36.2630   24.6315 H   0  0  0  0  0  0
  -27.2287  -37.1475   25.8876 H   0  0  0  0  0  0
  -20.9255  -29.8939   21.7125 H   0  0  0  0  0  0
  -26.0213  -38.2865   24.1403 H   0  0  0  0  0  0
  -30.1192  -21.9757   18.3725 H   0  0  0  0  0  0
  -29.6174  -24.2833   18.8309 H   0  0  0  0  0  0
  -27.8207  -23.2192   22.5506 H   0  0  0  0  0  0
  -29.8165  -20.1254   17.6279 H   0  0  0  0  0  0
  -29.5592  -18.4645   17.9126 H   0  0  0  0  0  0
  -31.9741  -20.0535   18.7767 H   0  0  0  0  0  0
  -31.9383  -18.4374   18.0805 H   0  0  0  0  0  0
  -28.2226  -19.2848   19.6432 H   0  0  0  0  0  0
  -29.9314  -18.6225   21.6547 H   0  0  0  0  0  0
  -27.4709  -21.6487   23.8887 H   0  0  0  0  0  0
  -27.2108  -19.9254   23.9535 H   0  0  0  0  0  0
  -26.2677  -20.8789   22.8093 H   0  0  0  0  0  0
  -28.9481  -25.7001   21.9061 H   0  0  0  0  0  0
  -27.2764  -25.4004   21.5730 H   0  0  0  0  0  0
  -28.3935  -17.0318   20.3688 H   0  0  0  0  0  0
  -29.6166  -16.7496   19.1923 H   0  0  0  0  0  0
  -29.1132  -15.3933   21.5876 H   0  0  0  0  0  0
  -31.9012  -19.2170   20.7535 H   0  0  0  0  0  0
  -31.9078  -17.6727   20.2159 H   0  0  0  0  0  0
  1 25  1  0  0  0
  1 30  2  0  0  0
  1 84  1  0  0  0
  2  3  1  0  0  0
  2 25  1  0  0  0
  2 87  1  0  0  0
  2 88  1  0  0  0
  3  4  1  0  0  0
  3 89  1  0  0  0
  3 90  1  0  0  0
  4  5  1  0  0  0
  4 91  1  0  0  0
  4 92  1  0  0  0
  5  6  1  0  0  0
  5 26  1  0  0  0
  5 93  1  0  0  0
  6 25  1  0  0  0
  6 94  1  0  0  0
  6 95  1  0  0  0
  7  8  2  0  0  0
  7 26  1  0  0  0
  7 29  1  0  0  0
  8  9  1  0  0  0
  8 22  1  0  0  0
  9 10  1  0  0  0
  9 27  2  0  0  0
 10 11  2  0  0  0
 10 15  1  0  0  0
 11 12  1  0  0  0
 11 96  1  0  0  0
 12 13  2  0  0  0
 12 97  1  0  0  0
 13 14  1  0  0  0
 13 31  1  0  0  0
 14 15  2  0  0  0
 14 98  1  0  0  0
 15 99  1  0  0  0
 16 17  2  0  0  0
 16 21  1  0  0  0
 16 31  1  0  0  0
 17 18  1  0  0  0
 17100  1  0  0  0
 18 19  2  0  0  0
 18101  1  0  0  0
 19 20  1  0  0  0
 19 24  1  0  0  0
 20 21  2  0  0  0
 20102  1  0  0  0
 21 23  1  0  0  0
 22 28  1  0  0  0
 22 32  2  0  0  0
 26 27  1  0  0  0
 28103  1  0  0  0
 28104  1  0  0  0
 29105  1  0  0  0
 29106  1  0  0  0
 33 34  1  0  0  0
 33 66  1  0  0  0
 33 70  2  0  0  0
 34 36  1  0  0  0
 34 59  1  0  0  0
 34107  1  0  0  0
 35 44  2  0  0  0
 35 45  1  0  0  0
 35 68  1  0  0  0
 36 56  1  0  0  0
 36108  1  0  0  0
 37 39  1  0  0  0
 37 47  1  0  0  0
 37 66  1  0  0  0
 37109  1  0  0  0
 38 43  2  0  0  0
 38 46  1  0  0  0
 38 47  1  0  0  0
 39 64  1  0  0  0
 39 67  2  0  0  0
 40 52  1  0  0  0
 40 53  2  0  0  0
 40 58  1  0  0  0
 41110  1  0  0  0
 41111  1  0  0  0
 41112  1  0  0  0
 41 48  1  0  0  0
 42 43  1  0  0  0
 42 66  1  0  0  0
 42113  1  0  0  0
 42114  1  0  0  0
 43 44  1  0  0  0
 44115  1  0  0  0
 45 46  2  0  0  0
 45116  1  0  0  0
 46117  1  0  0  0
 47118  1  0  0  0
 47119  1  0  0  0
 48 56  1  0  0  0
 48 65  1  0  0  0
 48120  1  0  0  0
 49 50  1  0  0  0
 49 53  1  0  0  0
 49 64  1  0  0  0
 49121  1  0  0  0
 50 51  1  0  0  0
 50122  1  0  0  0
 50123  1  0  0  0
 51 52  1  0  0  0
 51124  1  0  0  0
 51125  1  0  0  0
 52126  1  0  0  0
 52127  1  0  0  0
 53 54  1  0  0  0
 54 55  2  0  0  0
 54128  1  0  0  0
 55 57  1  0  0  0
 55129  1  0  0  0
 56 69  2  0  0  0
 57 58  2  0  0  0
 57130  1  0  0  0
 58131  1  0  0  0
 59 60  1  0  0  0
 59 61  1  0  0  0
 59 62  1  0  0  0
 60132  1  0  0  0
 60133  1  0  0  0
 60134  1  0  0  0
 61135  1  0  0  0
 61136  1  0  0  0
 61137  1  0  0  0
 62138  1  0  0  0
 62139  1  0  0  0
 62140  1  0  0  0
 63 65  1  0  0  0
 63141  1  0  0  0
 63142  1  0  0  0
 63143  1  0  0  0
 64144  1  0  0  0
 65145  1  0  0  0
 68 82  1  0  0  0
 71 72  2  0  0  0
 71 74  1  0  0  0
 71146  1  0  0  0
 72 75  1  0  0  0
 72147  1  0  0  0
 73 75  2  0  0  0
 73 76  1  0  0  0
 73148  1  0  0  0
 74 76  2  0  0  0
 74 79  1  0  0  0
 75 82  1  0  0  0
 76 86  1  0  0  0
 77 78  1  0  0  0
 77 79  1  0  0  0
 77149  1  0  0  0
 77150  1  0  0  0
 78 85  1  0  0  0
 78151  1  0  0  0
 78152  1  0  0  0
 79 80  1  0  0  0
 79153  1  0  0  0
 80 83  1  0  0  0
 80 85  1  0  0  0
 80154  1  0  0  0
 81 86  1  0  0  0
 81155  1  0  0  0
 81156  1  0  0  0
 81157  1  0  0  0
 82158  1  0  0  0
 82159  1  0  0  0
 83 84  1  0  0  0
 83160  1  0  0  0
 83161  1  0  0  0
 84162  1  0  0  0
 85163  1  0  0  0
 85164  1  0  0  0
M  CHG  1  85   1
M  ISO  4   1 100  68 101  82 101  84 100
M  END
> <chiral flag>
0

> <version>
0

> <s_m_source_file>
/data/baiqing/PycharmProjects/Reinvent-master-3.2/result/LINK_invent/BTK/process_docking_weight1_custom_sum_contain_oxygen_bond_distance_aromatic_linkinvent_7_9_3/rearranged_h_0124.sdf

> <i_m_source_file_index>
60

> <r_mmod_Potential_Energy-OPLS-2005>
24.0961570739746

> <r_mmod_Stretch_Energy-OPLS-2005>
82.035888671875

> <r_mmod_Bend_Energy-OPLS-2005>
195.259216308594

> <r_mmod_Torsional_Energy-OPLS-2005>
383.178070068359

> <r_mmod_Improper_Torsional_Energy-OPLS-2005>
8.6523265838623

> <r_mmod_Van_der_Waal_Energy-OPLS-2005>
147.001052856445

> <r_mmod_Electrostatic_Energy-OPLS-2005>
-399.940155029297

> <r_mmod_Solvation_Energy-OPLS-2005>
-442.862640380859

> <b_mmod_Minimization_Converged-OPLS-2005>
0

> <r_mmod_RMS_Derivative-OPLS-2005>
8.03135299682617

$$$$
60
                    3D
 Structure written by MMmdl.
178187  0  0  1  0            999 V2000
  -30.5880  -14.5574   20.4533 C   0  0  0  0  0  0
  -30.4372  -12.3175   19.4545 C   0  0  0  0  0  0
  -29.5166  -12.4743   18.2233 C   0  0  0  0  0  0
  -28.0332  -12.3270   18.6230 C   0  0  0  0  0  0
  -27.6583  -13.1825   19.8637 C   0  0  2  0  0  0
  -28.6976  -12.9985   20.9981 C   0  0  0  0  0  0
  -25.2628  -13.8039   20.5608 C   0  0  0  0  0  0
  -24.1887  -13.0391   20.9159 C   0  0  0  0  0  0
  -24.6392  -11.6839   20.8752 C   0  0  0  0  0  0
  -23.9040  -10.4289   21.0443 C   0  0  0  0  0  0
  -24.3628   -9.4216   21.9210 C   0  0  0  0  0  0
  -23.6319   -8.2241   22.0772 C   0  0  0  0  0  0
  -22.4292   -8.0279   21.3559 C   0  0  0  0  0  0
  -21.9919   -9.0244   20.4664 C   0  0  0  0  0  0
  -22.7225  -10.2130   20.3084 C   0  0  0  0  0  0
  -21.6853   -6.0770   22.5285 C   0  0  0  0  0  0
  -21.4018   -6.5663   23.8223 C   0  0  0  0  0  0
  -21.3658   -5.6799   24.9175 C   0  0  0  0  0  0
  -21.6060   -4.3070   24.7214 C   0  0  0  0  0  0
  -21.8822   -3.8171   23.4336 C   0  0  0  0  0  0
  -21.9199   -4.7000   22.3403 C   0  0  0  0  0  0
  -22.7939  -13.5251   21.1803 C   0  0  0  0  0  0
  -22.1671   -4.2197   21.0972 F   0  0  0  0  0  0
  -21.5623   -3.4545   25.7730 F   0  0  0  0  0  0
  -30.0192  -13.3212   20.4458 N   0  0  0  0  0  0
  -26.3006  -12.9172   20.3249 N   0  0  0  0  0  0
  -25.9301  -11.6370   20.5757 N   0  0  0  0  0  0
  -22.0594  -12.8287   22.0382 N   0  0  0  0  0  0
  -25.4308  -15.1783   20.4002 N   0  0  0  0  0  0
  -31.7453  -14.7599   20.0771 O   0  0  0  0  0  0
  -21.6631   -6.8907   21.4255 O   0  0  0  0  0  0
  -22.3713  -14.5597   20.6633 O   0  0  0  0  0  0
  -24.6184  -31.8652   23.2121 C   0  0  0  0  0  0
  -25.9073  -32.4818   23.8412 C   0  0  1  0  0  0
  -27.2205  -27.4015   20.1185 C   0  0  0  0  0  0
  -25.5918  -33.8628   24.2335 N   0  0  0  0  0  0
  -23.4090  -30.4880   21.5536 C   0  0  2  0  0  0
  -24.8543  -28.9533   20.1144 C   0  0  0  0  0  0
  -22.7428  -29.4664   22.5038 C   0  0  0  0  0  0
  -18.0268  -28.1377   22.8502 C   0  0  0  0  0  0
  -24.1496  -36.7298   23.2646 C   0  0  0  0  0  0
  -25.9437  -30.8156   21.3744 C   0  0  0  0  0  0
  -26.0167  -29.4532   20.7130 C   0  0  0  0  0  0
  -27.2073  -28.6866   20.7088 C   0  0  0  0  0  0
  -26.0452  -26.9263   19.4902 C   0  0  0  0  0  0
  -24.8642  -27.6892   19.4953 C   0  0  0  0  0  0
  -23.6173  -29.8212   20.1673 C   0  0  0  0  0  0
  -25.4114  -36.3120   24.0356 C   0  0  1  0  0  0
  -20.5858  -28.3673   23.1326 C   0  0  2  0  0  0
  -20.6772  -26.9398   22.5436 C   0  0  0  0  0  0
  -19.5758  -26.6379   21.5221 C   0  0  0  0  0  0
  -18.1927  -26.7927   22.1610 C   0  0  0  0  0  0
  -19.1520  -28.8845   23.2899 C   0  0  0  0  0  0
  -18.9449  -30.1454   23.8910 C   0  0  0  0  0  0
  -17.6450  -30.6589   24.0562 C   0  0  0  0  0  0
  -25.9069  -34.9478   23.5140 C   0  0  0  0  0  0
  -16.5342  -29.9088   23.6336 C   0  0  0  0  0  0
  -16.7258  -28.6502   23.0365 C   0  0  0  0  0  0
  -26.4458  -31.6609   25.0754 C   0  0  0  0  0  0
  -25.3716  -31.3673   26.1484 C   0  0  0  0  0  0
  -27.0289  -30.3057   24.6152 C   0  0  0  0  0  0
  -27.6074  -32.4316   25.7441 C   0  0  0  0  0  0
  -27.5571  -37.1791   24.8466 C   0  0  0  0  0  0
  -21.4162  -29.3027   22.3735 N   0  0  0  0  0  0
  -26.4300  -37.3801   23.9415 N   0  0  0  0  0  0
  -24.6756  -31.0717   22.1045 N   0  0  0  0  0  0
  -23.4178  -28.8202   23.3087 O   0  0  0  0  0  0
  -28.3377  -26.5962   20.1772 O   0  0  0  0  0  0
  -26.5607  -34.8908   22.4700 O   0  0  0  0  0  0
  -23.5375  -32.1426   23.7488 O   0  0  0  0  0  0
  -26.1924  -21.2733   19.5411 C   0  0  0  0  0  0
  -33.2286  -21.0847   19.1579 C   0  0  0  0  0  0
  -26.8182  -22.6772   19.6526 C   0  0  0  0  0  0
  -26.8952  -20.1933   20.3844 C   0  0  0  0  0  0
  -33.0757  -19.8605   20.0685 C   0  0  0  0  0  0
  -29.0590  -21.5147   20.0669 C   0  0  0  0  0  0
  -33.4359  -20.4922   17.7530 C   0  0  0  0  0  0
  -28.1418  -22.7280   20.4382 C   0  0  1  0  0  0
  -28.3882  -20.0876   19.9987 C   0  0  1  0  0  0
  -32.4945  -18.7717   19.1511 C   0  0  1  0  0  0
  -28.8385  -24.1160   20.2347 C   0  0  0  0  0  0
  -30.9539  -18.8497   19.0331 C   0  0  0  0  0  0
  -29.5855  -16.7436   19.6643 C   0  0  0  0  0  0
  -28.1147  -25.3398   20.8647 C   0  0  0  0  0  0
  -30.1458  -18.1291   20.1619 C   0  0  2  0  0  0
  -29.6899  -15.5679   20.5717 N   0  0  0  0  0  0
  -33.1203  -19.0510   17.8436 N   0  3  0  0  0  0
  -29.1058  -19.0255   20.7941 N   0  3  0  0  0  0
  -31.4856  -12.4302   19.1759 H   0  0  0  0  0  0
  -30.3474  -11.3160   19.8775 H   0  0  0  0  0  0
  -29.7742  -11.7279   17.4727 H   0  0  0  0  0  0
  -29.6890  -13.4467   17.7616 H   0  0  0  0  0  0
  -27.8541  -11.2712   18.8332 H   0  0  0  0  0  0
  -27.3921  -12.5821   17.7801 H   0  0  0  0  0  0
  -27.6816  -14.2183   19.5277 H   0  0  0  0  0  0
  -28.6977  -11.9665   21.3518 H   0  0  0  0  0  0
  -28.4589  -13.6203   21.8635 H   0  0  0  0  0  0
  -25.2803   -9.5703   22.4767 H   0  0  0  0  0  0
  -24.0049   -7.4655   22.7495 H   0  0  0  0  0  0
  -21.0854   -8.8765   19.8977 H   0  0  0  0  0  0
  -22.3696  -10.9682   19.6209 H   0  0  0  0  0  0
  -21.1994   -7.6160   23.9739 H   0  0  0  0  0  0
  -21.1481   -6.0522   25.9078 H   0  0  0  0  0  0
  -22.0599   -2.7631   23.2799 H   0  0  0  0  0  0
  -22.4170  -11.9885   22.4696 H   0  0  0  0  0  0
  -21.1240  -13.1348   22.2613 H   0  0  0  0  0  0
  -24.6247  -15.7913   20.4601 H   0  0  0  0  0  0
  -26.2145  -15.6060   19.9266 H   0  0  0  0  0  0
  -26.7128  -32.5460   23.1150 H   0  0  0  0  0  0
  -25.0096  -33.9804   25.0486 H   0  0  0  0  0  0
  -22.6998  -31.3085   21.4154 H   0  0  0  0  0  0
  -23.3787  -35.9612   23.3330 H   0  0  0  0  0  0
  -24.3600  -36.8886   22.2059 H   0  0  0  0  0  0
  -23.7209  -37.6495   23.6641 H   0  0  0  0  0  0
  -26.0774  -31.5805   20.6077 H   0  0  0  0  0  0
  -26.8257  -30.8530   22.0040 H   0  0  0  0  0  0
  -28.1000  -29.0561   21.1938 H   0  0  0  0  0  0
  -26.0333  -25.9505   19.0214 H   0  0  0  0  0  0
  -23.9676  -27.3001   19.0333 H   0  0  0  0  0  0
  -23.7184  -30.5948   19.4048 H   0  0  0  0  0  0
  -22.7424  -29.2393   19.8794 H   0  0  0  0  0  0
  -25.1276  -36.2008   25.0854 H   0  0  0  0  0  0
  -20.9942  -28.3235   24.1456 H   0  0  0  0  0  0
  -20.5679  -26.2269   23.3611 H   0  0  0  0  0  0
  -21.6643  -26.7451   22.1208 H   0  0  0  0  0  0
  -19.6923  -25.6289   21.1247 H   0  0  0  0  0  0
  -19.6727  -27.3198   20.6751 H   0  0  0  0  0  0
  -17.4196  -26.6709   21.3992 H   0  0  0  0  0  0
  -18.0319  -26.0051   22.8984 H   0  0  0  0  0  0
  -19.7920  -30.7265   24.2297 H   0  0  0  0  0  0
  -17.4996  -31.6279   24.5138 H   0  0  0  0  0  0
  -15.5339  -30.2979   23.7679 H   0  0  0  0  0  0
  -15.8647  -28.0810   22.7104 H   0  0  0  0  0  0
  -24.6040  -30.6842   25.7801 H   0  0  0  0  0  0
  -24.8714  -32.2773   26.4805 H   0  0  0  0  0  0
  -25.8084  -30.8965   27.0302 H   0  0  0  0  0  0
  -26.2832  -29.6810   24.1235 H   0  0  0  0  0  0
  -27.4068  -29.7294   25.4597 H   0  0  0  0  0  0
  -27.8657  -30.4360   23.9307 H   0  0  0  0  0  0
  -27.2803  -33.3683   26.1942 H   0  0  0  0  0  0
  -28.3858  -32.6758   25.0208 H   0  0  0  0  0  0
  -28.0766  -31.8481   26.5356 H   0  0  0  0  0  0
  -28.2606  -38.0071   24.7529 H   0  0  0  0  0  0
  -28.1048  -36.2605   24.6290 H   0  0  0  0  0  0
  -27.2288  -37.1426   25.8869 H   0  0  0  0  0  0
  -20.9366  -29.8702   21.6878 H   0  0  0  0  0  0
  -26.0199  -38.2892   24.1426 H   0  0  0  0  0  0
  -26.2155  -20.9752   18.4898 H   0  0  0  0  0  0
  -25.1389  -21.3321   19.8100 H   0  0  0  0  0  0
  -34.0256  -21.7633   19.4678 H   0  0  0  0  0  0
  -32.3108  -21.6711   19.1655 H   0  0  0  0  0  0
  -26.0908  -23.3504   20.1105 H   0  0  0  0  0  0
  -26.9753  -23.0781   18.6508 H   0  0  0  0  0  0
  -26.3945  -19.2392   20.2201 H   0  0  0  0  0  0
  -26.7724  -20.4214   21.4458 H   0  0  0  0  0  0
  -32.4767  -20.0592   20.9563 H   0  0  0  0  0  0
  -34.0579  -19.5478   20.4244 H   0  0  0  0  0  0
  -29.8959  -21.4857   20.7626 H   0  0  0  0  0  0
  -29.4928  -21.7269   19.0881 H   0  0  0  0  0  0
  -34.4629  -20.5964   17.4081 H   0  0  0  0  0  0
  -32.7869  -20.9824   17.0224 H   0  0  0  0  0  0
  -27.9029  -22.6312   21.4976 H   0  0  0  0  0  0
  -28.3860  -19.7601   18.9572 H   0  0  0  0  0  0
  -32.7883  -17.7765   19.4880 H   0  0  0  0  0  0
  -28.9547  -24.2992   19.1683 H   0  0  0  0  0  0
  -29.8504  -24.0820   20.6427 H   0  0  0  0  0  0
  -30.6417  -18.4758   18.0551 H   0  0  0  0  0  0
  -30.7200  -19.9027   18.9787 H   0  0  0  0  0  0
  -30.0795  -16.4534   18.7352 H   0  0  0  0  0  0
  -28.5382  -16.8512   19.3700 H   0  0  0  0  0  0
  -28.4605  -25.4632   21.8904 H   0  0  0  0  0  0
  -27.0552  -25.1117   20.9745 H   0  0  0  0  0  0
  -30.8359  -17.9046   20.9752 H   0  0  0  0  0  0
  -28.8031  -15.2491   20.9392 H   0  0  0  0  0  0
  -33.9920  -18.5454   17.7969 H   0  0  0  0  0  0
  -32.5497  -18.7445   17.0738 H   0  0  0  0  0  0
  -28.4188  -18.4242   21.2219 H   0  0  0  0  0  0
  -29.5567  -19.4895   21.5668 H   0  0  0  0  0  0
  1 25  1  0  0  0
  1 30  2  0  0  0
  1 86  1  0  0  0
  2  3  1  0  0  0
  2 25  1  0  0  0
  2 89  1  0  0  0
  2 90  1  0  0  0
  3  4  1  0  0  0
  3 91  1  0  0  0
  3 92  1  0  0  0
  4  5  1  0  0  0
  4 93  1  0  0  0
  4 94  1  0  0  0
  5  6  1  0  0  0
  5 26  1  0  0  0
  5 95  1  0  0  0
  6 25  1  0  0  0
  6 96  1  0  0  0
  6 97  1  0  0  0
  7  8  2  0  0  0
  7 26  1  0  0  0
  7 29  1  0  0  0
  8  9  1  0  0  0
  8 22  1  0  0  0
  9 10  1  0  0  0
  9 27  2  0  0  0
 10 11  2  0  0  0
 10 15  1  0  0  0
 11 12  1  0  0  0
 11 98  1  0  0  0
 12 13  2  0  0  0
 12 99  1  0  0  0
 13 14  1  0  0  0
 13 31  1  0  0  0
 14 15  2  0  0  0
 14100  1  0  0  0
 15101  1  0  0  0
 16 17  2  0  0  0
 16 21  1  0  0  0
 16 31  1  0  0  0
 17 18  1  0  0  0
 17102  1  0  0  0
 18 19  2  0  0  0
 18103  1  0  0  0
 19 20  1  0  0  0
 19 24  1  0  0  0
 20 21  2  0  0  0
 20104  1  0  0  0
 21 23  1  0  0  0
 22 28  1  0  0  0
 22 32  2  0  0  0
 26 27  1  0  0  0
 28105  1  0  0  0
 28106  1  0  0  0
 29107  1  0  0  0
 29108  1  0  0  0
 33 34  1  0  0  0
 33 66  1  0  0  0
 33 70  2  0  0  0
 34 36  1  0  0  0
 34 59  1  0  0  0
 34109  1  0  0  0
 35 44  2  0  0  0
 35 45  1  0  0  0
 35 68  1  0  0  0
 36 56  1  0  0  0
 36110  1  0  0  0
 37 39  1  0  0  0
 37 47  1  0  0  0
 37 66  1  0  0  0
 37111  1  0  0  0
 38 43  2  0  0  0
 38 46  1  0  0  0
 38 47  1  0  0  0
 39 64  1  0  0  0
 39 67  2  0  0  0
 40 52  1  0  0  0
 40 53  2  0  0  0
 40 58  1  0  0  0
 41112  1  0  0  0
 41113  1  0  0  0
 41114  1  0  0  0
 41 48  1  0  0  0
 42 43  1  0  0  0
 42 66  1  0  0  0
 42115  1  0  0  0
 42116  1  0  0  0
 43 44  1  0  0  0
 44117  1  0  0  0
 45 46  2  0  0  0
 45118  1  0  0  0
 46119  1  0  0  0
 47120  1  0  0  0
 47121  1  0  0  0
 48 56  1  0  0  0
 48 65  1  0  0  0
 48122  1  0  0  0
 49 50  1  0  0  0
 49 53  1  0  0  0
 49 64  1  0  0  0
 49123  1  0  0  0
 50 51  1  0  0  0
 50124  1  0  0  0
 50125  1  0  0  0
 51 52  1  0  0  0
 51126  1  0  0  0
 51127  1  0  0  0
 52128  1  0  0  0
 52129  1  0  0  0
 53 54  1  0  0  0
 54 55  2  0  0  0
 54130  1  0  0  0
 55 57  1  0  0  0
 55131  1  0  0  0
 56 69  2  0  0  0
 57 58  2  0  0  0
 57132  1  0  0  0
 58133  1  0  0  0
 59 60  1  0  0  0
 59 61  1  0  0  0
 59 62  1  0  0  0
 60134  1  0  0  0
 60135  1  0  0  0
 60136  1  0  0  0
 61137  1  0  0  0
 61138  1  0  0  0
 61139  1  0  0  0
 62140  1  0  0  0
 62141  1  0  0  0
 62142  1  0  0  0
 63 65  1  0  0  0
 63143  1  0  0  0
 63144  1  0  0  0
 63145  1  0  0  0
 64146  1  0  0  0
 65147  1  0  0  0
 68 84  1  0  0  0
 71 73  1  0  0  0
 71 74  1  0  0  0
 71148  1  0  0  0
 71149  1  0  0  0
 72 75  1  0  0  0
 72 77  1  0  0  0
 72150  1  0  0  0
 72151  1  0  0  0
 73 78  1  0  0  0
 73152  1  0  0  0
 73153  1  0  0  0
 74 79  1  0  0  0
 74154  1  0  0  0
 74155  1  0  0  0
 75 80  1  0  0  0
 75156  1  0  0  0
 75157  1  0  0  0
 76 78  1  0  0  0
 76 79  1  0  0  0
 76158  1  0  0  0
 76159  1  0  0  0
 77 87  1  0  0  0
 77160  1  0  0  0
 77161  1  0  0  0
 78 81  1  0  0  0
 78162  1  0  0  0
 79 88  1  0  0  0
 79163  1  0  0  0
 80 82  1  0  0  0
 80 87  1  0  0  0
 80164  1  0  0  0
 81 84  1  0  0  0
 81165  1  0  0  0
 81166  1  0  0  0
 82167  1  0  0  0
 82168  1  0  0  0
 82 85  1  0  0  0
 83 85  1  0  0  0
 83 86  1  0  0  0
 83169  1  0  0  0
 83170  1  0  0  0
 84171  1  0  0  0
 84172  1  0  0  0
 85 88  1  0  0  0
 85173  1  0  0  0
 86174  1  0  0  0
 87175  1  0  0  0
 87176  1  0  0  0
 88177  1  0  0  0
 88178  1  0  0  0
M  CHG  2  87   1  88   1
M  ISO  4   1 100  68 101  84 101  86 100
M  END
> <chiral flag>
0

> <version>
0

> <s_m_source_file>
/data/baiqing/PycharmProjects/Reinvent-master-3.2/result/LINK_invent/BTK/process_docking_weight1_custom_sum_contain_oxygen_bond_distance_aromatic_linkinvent_7_9_3/rearranged_h_0124.sdf

> <i_m_source_file_index>
61

> <r_mmod_Potential_Energy-OPLS-2005>
-98.0276107788086

> <r_mmod_Stretch_Energy-OPLS-2005>
51.9779281616211

> <r_mmod_Bend_Energy-OPLS-2005>
141.043930053711

> <r_mmod_Torsional_Energy-OPLS-2005>
456.939300537109

> <r_mmod_Improper_Torsional_Energy-OPLS-2005>
12.9120025634766

> <r_mmod_Van_der_Waal_Energy-OPLS-2005>
135.836868286133

> <r_mmod_Electrostatic_Energy-OPLS-2005>
42.0401954650879

> <r_mmod_Solvation_Energy-OPLS-2005>
-969.020568847656

> <b_mmod_Minimization_Converged-OPLS-2005>
0

> <r_mmod_RMS_Derivative-OPLS-2005>
6.32086658477783

$$$$
61
                    3D
 Structure written by MMmdl.
161169  0  0  1  0            999 V2000
  -30.7233  -14.5083   20.6148 C   0  0  0  0  0  0
  -30.4310  -12.3472   19.4365 C   0  0  0  0  0  0
  -29.5036  -12.5197   18.2172 C   0  0  0  0  0  0
  -28.0343  -12.3401   18.6419 C   0  0  0  0  0  0
  -27.6633  -13.2119   19.8693 C   0  0  2  0  0  0
  -28.7022  -13.0370   21.0015 C   0  0  0  0  0  0
  -25.2580  -13.8182   20.5577 C   0  0  0  0  0  0
  -24.1864  -13.0433   20.9174 C   0  0  0  0  0  0
  -24.6458  -11.6922   20.8803 C   0  0  0  0  0  0
  -23.9145  -10.4291   21.0467 C   0  0  0  0  0  0
  -24.3673   -9.4189   21.9238 C   0  0  0  0  0  0
  -23.6317   -8.2236   22.0772 C   0  0  0  0  0  0
  -22.4292   -8.0317   21.3557 C   0  0  0  0  0  0
  -21.9969   -9.0312   20.4653 C   0  0  0  0  0  0
  -22.7345  -10.2171   20.3085 C   0  0  0  0  0  0
  -21.6838   -6.0768   22.5297 C   0  0  0  0  0  0
  -21.3996   -6.5651   23.8241 C   0  0  0  0  0  0
  -21.3656   -5.6798   24.9194 C   0  0  0  0  0  0
  -21.6031   -4.3052   24.7232 C   0  0  0  0  0  0
  -21.8830   -3.8169   23.4343 C   0  0  0  0  0  0
  -21.9188   -4.7000   22.3403 C   0  0  0  0  0  0
  -22.7885  -13.5226   21.1862 C   0  0  0  0  0  0
  -22.1657   -4.2184   21.0982 F   0  0  0  0  0  0
  -21.5634   -3.4532   25.7738 F   0  0  0  0  0  0
  -30.0378  -13.3383   20.4553 N   0  0  0  0  0  0
  -26.3046  -12.9374   20.3332 N   0  0  0  0  0  0
  -25.9379  -11.6536   20.5804 N   0  0  0  0  0  0
  -22.0504  -12.8206   22.0412 N   0  0  0  0  0  0
  -25.4196  -15.1886   20.3767 N   0  0  0  0  0  0
  -31.8136  -14.7131   20.0782 O   0  0  0  0  0  0
  -21.6625   -6.8934   21.4267 O   0  0  0  0  0  0
  -22.3588  -14.5544   20.6740 O   0  0  0  0  0  0
  -24.6194  -31.8671   23.2125 C   0  0  0  0  0  0
  -25.9092  -32.4795   23.8405 C   0  0  1  0  0  0
  -27.2296  -27.3926   20.0778 C   0  0  0  0  0  0
  -25.5990  -33.8593   24.2353 N   0  0  0  0  0  0
  -23.4074  -30.4922   21.5538 C   0  0  2  0  0  0
  -24.8504  -28.9659   20.1053 C   0  0  0  0  0  0
  -22.7422  -29.4626   22.4957 C   0  0  0  0  0  0
  -18.0307  -28.1322   22.8483 C   0  0  0  0  0  0
  -24.1484  -36.7258   23.2631 C   0  0  0  0  0  0
  -25.9414  -30.8153   21.3774 C   0  0  0  0  0  0
  -26.0144  -29.4489   20.7157 C   0  0  0  0  0  0
  -27.1976  -28.6667   20.7054 C   0  0  0  0  0  0
  -26.0438  -26.9557   19.4322 C   0  0  0  0  0  0
  -24.8640  -27.7205   19.4612 C   0  0  0  0  0  0
  -23.6162  -29.8376   20.1641 C   0  0  0  0  0  0
  -25.4104  -36.3070   24.0331 C   0  0  1  0  0  0
  -20.5889  -28.3628   23.1291 C   0  0  2  0  0  0
  -20.6767  -26.9355   22.5420 C   0  0  0  0  0  0
  -19.5758  -26.6370   21.5192 C   0  0  0  0  0  0
  -18.1926  -26.7905   22.1556 C   0  0  0  0  0  0
  -19.1552  -28.8792   23.2880 C   0  0  0  0  0  0
  -18.9469  -30.1399   23.8880 C   0  0  0  0  0  0
  -17.6474  -30.6549   24.0547 C   0  0  0  0  0  0
  -25.9042  -34.9440   23.5115 C   0  0  0  0  0  0
  -16.5366  -29.9043   23.6337 C   0  0  0  0  0  0
  -16.7292  -28.6456   23.0369 C   0  0  0  0  0  0
  -26.4516  -31.6575   25.0722 C   0  0  0  0  0  0
  -25.3748  -31.3671   26.1430 C   0  0  0  0  0  0
  -27.0379  -30.3008   24.6116 C   0  0  0  0  0  0
  -27.6093  -32.4291   25.7494 C   0  0  0  0  0  0
  -27.5578  -37.1763   24.8455 C   0  0  0  0  0  0
  -21.4155  -29.2991   22.3683 N   0  0  0  0  0  0
  -26.4271  -37.3779   23.9426 N   0  0  0  0  0  0
  -24.6734  -31.0734   22.1052 N   0  0  0  0  0  0
  -23.4201  -28.8167   23.2996 O   0  0  0  0  0  0
  -28.4035  -26.6406   20.1139 O   0  0  0  0  0  0
  -26.5562  -34.8928   22.4645 O   0  0  0  0  0  0
  -23.5355  -32.1456   23.7478 O   0  0  0  0  0  0
  -27.7687  -21.8963   22.4700 C   0  0  0  0  0  0
  -29.2764  -21.9017   22.6389 C   0  0  0  0  0  0
  -27.5348  -22.6420   21.1524 C   0  0  0  0  0  0
  -29.7818  -21.9090   21.1894 C   0  0  1  0  0  0
  -29.6952  -20.4868   20.5136 C   0  0  0  0  0  0
  -29.2022  -24.3130   20.6863 C   0  0  0  0  0  0
  -30.6245  -16.8341   21.6544 C   0  0  0  0  0  0
  -29.8593  -17.9924   20.9351 C   0  0  0  0  0  0
  -28.4114  -25.2452   19.7068 C   0  0  0  0  0  0
  -28.8562  -22.8734   20.5367 N   0  0  0  0  0  0
  -30.1129  -15.4772   21.3361 N   0  0  0  0  0  0
  -30.2998  -19.3760   21.3096 N   0  3  0  0  0  0
  -31.4742  -12.4509   19.1378 H   0  0  0  0  0  0
  -30.3413  -11.3395   19.8433 H   0  0  0  0  0  0
  -29.7621  -11.7978   17.4418 H   0  0  0  0  0  0
  -29.6487  -13.5072   17.7759 H   0  0  0  0  0  0
  -27.8987  -11.2878   18.8943 H   0  0  0  0  0  0
  -27.3661  -12.5427   17.8048 H   0  0  0  0  0  0
  -27.6984  -14.2502   19.5394 H   0  0  0  0  0  0
  -28.6851  -12.0138   21.3824 H   0  0  0  0  0  0
  -28.4409  -13.6671   21.8537 H   0  0  0  0  0  0
  -25.2826   -9.5610   22.4823 H   0  0  0  0  0  0
  -24.0005   -7.4606   22.7473 H   0  0  0  0  0  0
  -21.0922   -8.8902   19.8929 H   0  0  0  0  0  0
  -22.3896  -10.9736   19.6176 H   0  0  0  0  0  0
  -21.1985   -7.6153   23.9766 H   0  0  0  0  0  0
  -21.1455   -6.0503   25.9102 H   0  0  0  0  0  0
  -22.0608   -2.7631   23.2839 H   0  0  0  0  0  0
  -22.4057  -11.9805   22.4724 H   0  0  0  0  0  0
  -21.1147  -13.1296   22.2642 H   0  0  0  0  0  0
  -24.6172  -15.8108   20.3627 H   0  0  0  0  0  0
  -26.2561  -15.6164   19.9978 H   0  0  0  0  0  0
  -26.7142  -32.5520   23.1164 H   0  0  0  0  0  0
  -25.0333  -33.9757   25.0615 H   0  0  0  0  0  0
  -22.6946  -31.3089   21.4204 H   0  0  0  0  0  0
  -23.3772  -35.9562   23.3278 H   0  0  0  0  0  0
  -24.3572  -36.8871   22.2045 H   0  0  0  0  0  0
  -23.7214  -37.6440   23.6658 H   0  0  0  0  0  0
  -26.0672  -31.5901   20.6198 H   0  0  0  0  0  0
  -26.8213  -30.8573   22.0063 H   0  0  0  0  0  0
  -28.0927  -29.0326   21.1877 H   0  0  0  0  0  0
  -25.9905  -26.0415   18.8604 H   0  0  0  0  0  0
  -23.9754  -27.3633   18.9585 H   0  0  0  0  0  0
  -23.7155  -30.6222   19.4113 H   0  0  0  0  0  0
  -22.7348  -29.2624   19.8718 H   0  0  0  0  0  0
  -25.1273  -36.1914   25.0821 H   0  0  0  0  0  0
  -20.9979  -28.3215   24.1417 H   0  0  0  0  0  0
  -20.5644  -26.2231   23.3608 H   0  0  0  0  0  0
  -21.6631  -26.7358   22.1226 H   0  0  0  0  0  0
  -19.6906  -25.6301   21.1216 H   0  0  0  0  0  0
  -19.6744  -27.3162   20.6706 H   0  0  0  0  0  0
  -17.4242  -26.6746   21.3920 H   0  0  0  0  0  0
  -18.0194  -26.0004   22.8870 H   0  0  0  0  0  0
  -19.7943  -30.7196   24.2254 H   0  0  0  0  0  0
  -17.5050  -31.6234   24.5134 H   0  0  0  0  0  0
  -15.5364  -30.2932   23.7690 H   0  0  0  0  0  0
  -15.8683  -28.0788   22.7081 H   0  0  0  0  0  0
  -24.6267  -30.6566   25.7894 H   0  0  0  0  0  0
  -24.8496  -32.2730   26.4443 H   0  0  0  0  0  0
  -25.8132  -30.9376   27.0448 H   0  0  0  0  0  0
  -26.2927  -29.6714   24.1223 H   0  0  0  0  0  0
  -27.4195  -29.7283   25.4588 H   0  0  0  0  0  0
  -27.8749  -30.4304   23.9240 H   0  0  0  0  0  0
  -27.2795  -33.3714   26.1890 H   0  0  0  0  0  0
  -28.4019  -32.6613   25.0368 H   0  0  0  0  0  0
  -28.0629  -31.8504   26.5554 H   0  0  0  0  0  0
  -28.2544  -38.0117   24.7596 H   0  0  0  0  0  0
  -28.1143  -36.2645   24.6185 H   0  0  0  0  0  0
  -27.2318  -37.1286   25.8866 H   0  0  0  0  0  0
  -20.9285  -29.8757   21.6961 H   0  0  0  0  0  0
  -26.0151  -38.2830   24.1530 H   0  0  0  0  0  0
  -27.2553  -22.3570   23.3138 H   0  0  0  0  0  0
  -27.3933  -20.8747   22.3829 H   0  0  0  0  0  0
  -29.6350  -21.0743   23.2507 H   0  0  0  0  0  0
  -29.5863  -22.8171   23.1460 H   0  0  0  0  0  0
  -26.9817  -23.5667   21.3405 H   0  0  0  0  0  0
  -26.9132  -22.0466   20.4814 H   0  0  0  0  0  0
  -30.8158  -22.2595   21.1416 H   0  0  0  0  0  0
  -30.1653  -20.5165   19.5275 H   0  0  0  0  0  0
  -28.6509  -20.2293   20.3297 H   0  0  0  0  0  0
  -29.0030  -24.6231   21.7134 H   0  0  0  0  0  0
  -30.2692  -24.4706   20.5208 H   0  0  0  0  0  0
  -30.5353  -16.9619   22.7335 H   0  0  0  0  0  0
  -31.6921  -16.9019   21.4382 H   0  0  0  0  0  0
  -28.7948  -17.9065   21.1649 H   0  0  0  0  0  0
  -29.9527  -17.8628   19.8556 H   0  0  0  0  0  0
  -27.4178  -24.8282   19.5945 H   0  0  0  0  0  0
  -28.8616  -25.1812   18.7139 H   0  0  0  0  0  0
  -29.2232  -15.2255   21.7428 H   0  0  0  0  0  0
  -30.0427  -19.5399   22.2694 H   0  0  0  0  0  0
  -31.3035  -19.4522   21.2452 H   0  0  0  0  0  0
  1 25  1  0  0  0
  1 30  2  0  0  0
  1 81  1  0  0  0
  2  3  1  0  0  0
  2 25  1  0  0  0
  2 83  1  0  0  0
  2 84  1  0  0  0
  3  4  1  0  0  0
  3 85  1  0  0  0
  3 86  1  0  0  0
  4  5  1  0  0  0
  4 87  1  0  0  0
  4 88  1  0  0  0
  5  6  1  0  0  0
  5 26  1  0  0  0
  5 89  1  0  0  0
  6 25  1  0  0  0
  6 90  1  0  0  0
  6 91  1  0  0  0
  7  8  2  0  0  0
  7 26  1  0  0  0
  7 29  1  0  0  0
  8  9  1  0  0  0
  8 22  1  0  0  0
  9 10  1  0  0  0
  9 27  2  0  0  0
 10 11  2  0  0  0
 10 15  1  0  0  0
 11 12  1  0  0  0
 11 92  1  0  0  0
 12 13  2  0  0  0
 12 93  1  0  0  0
 13 14  1  0  0  0
 13 31  1  0  0  0
 14 15  2  0  0  0
 14 94  1  0  0  0
 15 95  1  0  0  0
 16 17  2  0  0  0
 16 21  1  0  0  0
 16 31  1  0  0  0
 17 18  1  0  0  0
 17 96  1  0  0  0
 18 19  2  0  0  0
 18 97  1  0  0  0
 19 20  1  0  0  0
 19 24  1  0  0  0
 20 21  2  0  0  0
 20 98  1  0  0  0
 21 23  1  0  0  0
 22 28  1  0  0  0
 22 32  2  0  0  0
 26 27  1  0  0  0
 28 99  1  0  0  0
 28100  1  0  0  0
 29101  1  0  0  0
 29102  1  0  0  0
 33 34  1  0  0  0
 33 66  1  0  0  0
 33 70  2  0  0  0
 34 36  1  0  0  0
 34 59  1  0  0  0
 34103  1  0  0  0
 35 44  2  0  0  0
 35 45  1  0  0  0
 35 68  1  0  0  0
 36 56  1  0  0  0
 36104  1  0  0  0
 37 39  1  0  0  0
 37 47  1  0  0  0
 37 66  1  0  0  0
 37105  1  0  0  0
 38 43  2  0  0  0
 38 46  1  0  0  0
 38 47  1  0  0  0
 39 64  1  0  0  0
 39 67  2  0  0  0
 40 52  1  0  0  0
 40 53  2  0  0  0
 40 58  1  0  0  0
 41106  1  0  0  0
 41107  1  0  0  0
 41108  1  0  0  0
 41 48  1  0  0  0
 42 43  1  0  0  0
 42 66  1  0  0  0
 42109  1  0  0  0
 42110  1  0  0  0
 43 44  1  0  0  0
 44111  1  0  0  0
 45 46  2  0  0  0
 45112  1  0  0  0
 46113  1  0  0  0
 47114  1  0  0  0
 47115  1  0  0  0
 48 56  1  0  0  0
 48 65  1  0  0  0
 48116  1  0  0  0
 49 50  1  0  0  0
 49 53  1  0  0  0
 49 64  1  0  0  0
 49117  1  0  0  0
 50 51  1  0  0  0
 50118  1  0  0  0
 50119  1  0  0  0
 51 52  1  0  0  0
 51120  1  0  0  0
 51121  1  0  0  0
 52122  1  0  0  0
 52123  1  0  0  0
 53 54  1  0  0  0
 54 55  2  0  0  0
 54124  1  0  0  0
 55 57  1  0  0  0
 55125  1  0  0  0
 56 69  2  0  0  0
 57 58  2  0  0  0
 57126  1  0  0  0
 58127  1  0  0  0
 59 60  1  0  0  0
 59 61  1  0  0  0
 59 62  1  0  0  0
 60128  1  0  0  0
 60129  1  0  0  0
 60130  1  0  0  0
 61131  1  0  0  0
 61132  1  0  0  0
 61133  1  0  0  0
 62134  1  0  0  0
 62135  1  0  0  0
 62136  1  0  0  0
 63 65  1  0  0  0
 63137  1  0  0  0
 63138  1  0  0  0
 63139  1  0  0  0
 64140  1  0  0  0
 65141  1  0  0  0
 68 79  1  0  0  0
 71 72  1  0  0  0
 71 73  1  0  0  0
 71142  1  0  0  0
 71143  1  0  0  0
 72 74  1  0  0  0
 72144  1  0  0  0
 72145  1  0  0  0
 73 80  1  0  0  0
 73146  1  0  0  0
 73147  1  0  0  0
 74 75  1  0  0  0
 74 80  1  0  0  0
 74148  1  0  0  0
 75 82  1  0  0  0
 75149  1  0  0  0
 75150  1  0  0  0
 76 79  1  0  0  0
 76 80  1  0  0  0
 76151  1  0  0  0
 76152  1  0  0  0
 77 78  1  0  0  0
 77 81  1  0  0  0
 77153  1  0  0  0
 77154  1  0  0  0
 78 82  1  0  0  0
 78155  1  0  0  0
 78156  1  0  0  0
 79157  1  0  0  0
 79158  1  0  0  0
 81159  1  0  0  0
 82160  1  0  0  0
 82161  1  0  0  0
M  CHG  1  82   1
M  ISO  4   1 100  68 101  79 101  81 100
M  END
> <chiral flag>
0

> <version>
0

> <s_m_source_file>
/data/baiqing/PycharmProjects/Reinvent-master-3.2/result/LINK_invent/BTK/process_docking_weight1_custom_sum_contain_oxygen_bond_distance_aromatic_linkinvent_7_9_3/rearranged_h_0124.sdf

> <i_m_source_file_index>
62

> <r_mmod_Potential_Energy-OPLS-2005>
-151.532455444336

> <r_mmod_Stretch_Energy-OPLS-2005>
52.1043968200684

> <r_mmod_Bend_Energy-OPLS-2005>
128.716690063477

> <r_mmod_Torsional_Energy-OPLS-2005>
278.437683105469

> <r_mmod_Improper_Torsional_Energy-OPLS-2005>
2.82988333702087

> <r_mmod_Van_der_Waal_Energy-OPLS-2005>
141.435195922852

> <r_mmod_Electrostatic_Energy-OPLS-2005>
-294.875305175781

> <r_mmod_Solvation_Energy-OPLS-2005>
-480.034332275391

> <b_mmod_Minimization_Converged-OPLS-2005>
0

> <r_mmod_RMS_Derivative-OPLS-2005>
5.38312673568726

$$$$
62
                    3D
 Structure written by MMmdl.
175184  0  0  1  0            999 V2000
  -30.7731  -14.3951   20.6465 C   0  0  0  0  0  0
  -30.4078  -12.2874   19.4251 C   0  0  0  0  0  0
  -29.4858  -12.5143   18.2130 C   0  0  0  0  0  0
  -28.0114  -12.3682   18.6300 C   0  0  0  0  0  0
  -27.6639  -13.2087   19.8879 C   0  0  2  0  0  0
  -28.7017  -12.9912   21.0135 C   0  0  0  0  0  0
  -25.2593  -13.8191   20.5717 C   0  0  0  0  0  0
  -24.1827  -13.0444   20.9164 C   0  0  0  0  0  0
  -24.6385  -11.6915   20.8720 C   0  0  0  0  0  0
  -23.9056  -10.4288   21.0377 C   0  0  0  0  0  0
  -24.3612   -9.4203   21.9156 C   0  0  0  0  0  0
  -23.6280   -8.2247   22.0761 C   0  0  0  0  0  0
  -22.4267   -8.0283   21.3551 C   0  0  0  0  0  0
  -21.9897   -9.0249   20.4644 C   0  0  0  0  0  0
  -22.7228  -10.2126   20.3027 C   0  0  0  0  0  0
  -21.6860   -6.0716   22.5266 C   0  0  0  0  0  0
  -21.4028   -6.5628   23.8194 C   0  0  0  0  0  0
  -21.3656   -5.6788   24.9163 C   0  0  0  0  0  0
  -21.6032   -4.3048   24.7218 C   0  0  0  0  0  0
  -21.8824   -3.8137   23.4344 C   0  0  0  0  0  0
  -21.9200   -4.6943   22.3389 C   0  0  0  0  0  0
  -22.7846  -13.5237   21.1820 C   0  0  0  0  0  0
  -22.1667   -4.2127   21.0962 F   0  0  0  0  0  0
  -21.5627   -3.4529   25.7732 F   0  0  0  0  0  0
  -30.0418  -13.2636   20.4665 N   0  0  0  0  0  0
  -26.3038  -12.9350   20.3459 N   0  0  0  0  0  0
  -25.9323  -11.6499   20.5802 N   0  0  0  0  0  0
  -22.0513  -12.8219   22.0385 N   0  0  0  0  0  0
  -25.4311  -15.1906   20.4164 N   0  0  0  0  0  0
  -31.8250  -14.6104   20.0388 O   0  0  0  0  0  0
  -21.6658   -6.8865   21.4227 O   0  0  0  0  0  0
  -22.3503  -14.5526   20.6675 O   0  0  0  0  0  0
  -24.6122  -31.8709   23.2124 C   0  0  0  0  0  0
  -25.9033  -32.4825   23.8407 C   0  0  1  0  0  0
  -27.2281  -27.4551   20.0767 C   0  0  0  0  0  0
  -25.5926  -33.8636   24.2319 N   0  0  0  0  0  0
  -23.3976  -30.4950   21.5546 C   0  0  2  0  0  0
  -24.8418  -28.9684   20.1070 C   0  0  0  0  0  0
  -22.7391  -29.4683   22.5024 C   0  0  0  0  0  0
  -18.0267  -28.1393   22.8470 C   0  0  0  0  0  0
  -24.1508  -36.7329   23.2631 C   0  0  0  0  0  0
  -25.9249  -30.8389   21.3642 C   0  0  0  0  0  0
  -26.0016  -29.4795   20.7024 C   0  0  0  0  0  0
  -27.1986  -28.7307   20.6814 C   0  0  0  0  0  0
  -26.0564  -26.9699   19.4489 C   0  0  0  0  0  0
  -24.8650  -27.7148   19.4742 C   0  0  0  0  0  0
  -23.6026  -29.8320   20.1664 C   0  0  0  0  0  0
  -25.4120  -36.3106   24.0322 C   0  0  1  0  0  0
  -20.5843  -28.3708   23.1358 C   0  0  2  0  0  0
  -20.6793  -26.9447   22.5482 C   0  0  0  0  0  0
  -19.5791  -26.6392   21.5266 C   0  0  0  0  0  0
  -18.1966  -26.7911   22.1678 C   0  0  0  0  0  0
  -19.1501  -28.8882   23.2873 C   0  0  0  0  0  0
  -18.9409  -30.1527   23.8807 C   0  0  0  0  0  0
  -17.6402  -30.6615   24.0489 C   0  0  0  0  0  0
  -25.9059  -34.9477   23.5114 C   0  0  0  0  0  0
  -16.5304  -29.9065   23.6323 C   0  0  0  0  0  0
  -16.7240  -28.6495   23.0302 C   0  0  0  0  0  0
  -26.4474  -31.6602   25.0739 C   0  0  0  0  0  0
  -25.3739  -31.3691   26.1480 C   0  0  0  0  0  0
  -27.0321  -30.3041   24.6136 C   0  0  0  0  0  0
  -27.6055  -32.4324   25.7493 C   0  0  0  0  0  0
  -27.5576  -37.1816   24.8451 C   0  0  0  0  0  0
  -21.4127  -29.3046   22.3773 N   0  0  0  0  0  0
  -26.4290  -37.3798   23.9402 N   0  0  0  0  0  0
  -24.6634  -31.0816   22.1022 N   0  0  0  0  0  0
  -23.4193  -28.8192   23.3023 O   0  0  0  0  0  0
  -28.3783  -26.7010   20.1765 O   0  0  0  0  0  0
  -26.5619  -34.8916   22.4675 O   0  0  0  0  0  0
  -23.5321  -32.1472   23.7518 O   0  0  0  0  0  0
  -25.6553  -23.7852   23.5938 C   0  0  0  0  0  0
  -26.9131  -22.9543   23.3164 C   0  0  0  0  0  0
  -31.0467  -18.9327   22.6152 C   0  0  0  0  0  0
  -28.7925  -17.8467   22.2278 C   0  0  0  0  0  0
  -30.3827  -20.0443   23.4458 C   0  0  0  0  0  0
  -28.1320  -18.9462   23.0847 C   0  0  0  0  0  0
  -25.9805  -25.2738   23.4953 C   0  0  0  0  0  0
  -30.2599  -17.6015   22.6346 C   0  0  1  0  0  0
  -27.5810  -23.2864   21.9538 C   0  0  1  0  0  0
  -28.9058  -20.2835   23.0674 C   0  0  2  0  0  0
  -27.7784  -24.8406   21.7908 C   0  0  1  0  0  0
  -30.9857  -16.5851   21.7267 C   0  0  0  0  0  0
  -28.9065  -22.4756   21.7740 C   0  0  0  0  0  0
  -28.2496  -25.2754   20.3591 C   0  0  0  0  0  0
  -30.2980  -15.3052   21.5147 N   0  0  0  0  0  0
  -26.5299  -25.5688   22.1607 N   0  3  0  0  0  0
  -28.7433  -20.9956   21.7693 N   0  3  0  0  0  0
  -31.4546  -12.3601   19.1235 H   0  0  0  0  0  0
  -30.2861  -11.2737   19.8102 H   0  0  0  0  0  0
  -29.7240  -11.8042   17.4197 H   0  0  0  0  0  0
  -29.6544  -13.5101   17.8006 H   0  0  0  0  0  0
  -27.8295  -11.3113   18.8281 H   0  0  0  0  0  0
  -27.3546  -12.6411   17.8028 H   0  0  0  0  0  0
  -27.7114  -14.2576   19.5936 H   0  0  0  0  0  0
  -28.6604  -11.9629   21.3758 H   0  0  0  0  0  0
  -28.4582  -13.6104   21.8778 H   0  0  0  0  0  0
  -25.2760   -9.5691   22.4723 H   0  0  0  0  0  0
  -23.9990   -7.4652   22.7504 H   0  0  0  0  0  0
  -21.0832   -8.8753   19.8952 H   0  0  0  0  0  0
  -22.3675  -10.9660   19.6135 H   0  0  0  0  0  0
  -21.2026   -7.6133   23.9683 H   0  0  0  0  0  0
  -21.1482   -6.0526   25.9063 H   0  0  0  0  0  0
  -22.0612   -2.7593   23.2853 H   0  0  0  0  0  0
  -22.4194  -11.9870   22.4697 H   0  0  0  0  0  0
  -21.1122  -13.1224   22.2624 H   0  0  0  0  0  0
  -24.6687  -15.8509   20.5225 H   0  0  0  0  0  0
  -26.2951  -15.6313   20.1272 H   0  0  0  0  0  0
  -26.7097  -32.5516   23.1161 H   0  0  0  0  0  0
  -25.0093  -33.9860   25.0466 H   0  0  0  0  0  0
  -22.6843  -31.3101   21.4166 H   0  0  0  0  0  0
  -23.3770  -35.9668   23.3288 H   0  0  0  0  0  0
  -24.3551  -36.8974   22.2043 H   0  0  0  0  0  0
  -23.7294  -37.6535   23.6670 H   0  0  0  0  0  0
  -26.0416  -31.6108   20.6026 H   0  0  0  0  0  0
  -26.8102  -30.8829   21.9853 H   0  0  0  0  0  0
  -28.0938  -29.1152   21.1512 H   0  0  0  0  0  0
  -26.0322  -26.0207   18.9347 H   0  0  0  0  0  0
  -23.9788  -27.3281   18.9913 H   0  0  0  0  0  0
  -23.7069  -30.6111   19.4105 H   0  0  0  0  0  0
  -22.7245  -29.2559   19.8703 H   0  0  0  0  0  0
  -25.1302  -36.1951   25.0816 H   0  0  0  0  0  0
  -20.9842  -28.3302   24.1516 H   0  0  0  0  0  0
  -20.5760  -26.2321   23.3683 H   0  0  0  0  0  0
  -21.6679  -26.7568   22.1281 H   0  0  0  0  0  0
  -19.7015  -25.6315   21.1287 H   0  0  0  0  0  0
  -19.6733  -27.3213   20.6813 H   0  0  0  0  0  0
  -17.4228  -26.6556   21.4111 H   0  0  0  0  0  0
  -18.0418  -26.0120   22.9166 H   0  0  0  0  0  0
  -19.7866  -30.7426   24.2096 H   0  0  0  0  0  0
  -17.4930  -31.6310   24.5053 H   0  0  0  0  0  0
  -15.5304  -30.2921   23.7716 H   0  0  0  0  0  0
  -15.8663  -28.0813   22.6973 H   0  0  0  0  0  0
  -24.5898  -30.7067   25.7793 H   0  0  0  0  0  0
  -24.8959  -32.2846   26.4989 H   0  0  0  0  0  0
  -25.8087  -30.8795   27.0200 H   0  0  0  0  0  0
  -26.2878  -29.6766   24.1230 H   0  0  0  0  0  0
  -27.4117  -29.7309   25.4608 H   0  0  0  0  0  0
  -27.8685  -30.4357   23.9261 H   0  0  0  0  0  0
  -27.2688  -33.3611   26.2099 H   0  0  0  0  0  0
  -28.3833  -32.6922   25.0306 H   0  0  0  0  0  0
  -28.0742  -31.8440   26.5386 H   0  0  0  0  0  0
  -28.2580  -38.0129   24.7513 H   0  0  0  0  0  0
  -28.1088  -36.2664   24.6249 H   0  0  0  0  0  0
  -27.2263  -37.1405   25.8841 H   0  0  0  0  0  0
  -20.9308  -29.8692   21.6927 H   0  0  0  0  0  0
  -26.0171  -38.2864   24.1435 H   0  0  0  0  0  0
  -25.2718  -23.5608   24.5901 H   0  0  0  0  0  0
  -24.8607  -23.5214   22.8923 H   0  0  0  0  0  0
  -26.6132  -21.9079   23.3470 H   0  0  0  0  0  0
  -27.6228  -23.1043   24.1320 H   0  0  0  0  0  0
  -32.0580  -18.7685   22.9905 H   0  0  0  0  0  0
  -31.1673  -19.2763   21.5872 H   0  0  0  0  0  0
  -28.7396  -18.1148   21.1721 H   0  0  0  0  0  0
  -28.2166  -16.9267   22.3349 H   0  0  0  0  0  0
  -30.9574  -20.9687   23.3710 H   0  0  0  0  0  0
  -30.4284  -19.7568   24.4974 H   0  0  0  0  0  0
  -28.0745  -18.5960   24.1165 H   0  0  0  0  0  0
  -27.0982  -19.0989   22.7727 H   0  0  0  0  0  0
  -26.6959  -25.5650   24.2661 H   0  0  0  0  0  0
  -25.0810  -25.8702   23.6586 H   0  0  0  0  0  0
  -30.2686  -17.2115   23.6552 H   0  0  0  0  0  0
  -26.8918  -22.9656   21.1692 H   0  0  0  0  0  0
  -28.4842  -20.9040   23.8546 H   0  0  0  0  0  0
  -28.5477  -25.1631   22.4939 H   0  0  0  0  0  0
  -31.9745  -16.3805   22.1424 H   0  0  0  0  0  0
  -31.1628  -17.0480   20.7538 H   0  0  0  0  0  0
  -29.6629  -22.7757   22.5007 H   0  0  0  0  0  0
  -29.3274  -22.7159   20.7983 H   0  0  0  0  0  0
  -27.6414  -24.8121   19.5823 H   0  0  0  0  0  0
  -29.2523  -24.8824   20.1908 H   0  0  0  0  0  0
  -29.4446  -15.1054   22.0146 H   0  0  0  0  0  0
  -26.7210  -26.5600   22.1222 H   0  0  0  0  0  0
  -25.8107  -25.3834   21.4788 H   0  0  0  0  0  0
  -27.8443  -20.7725   21.3755 H   0  0  0  0  0  0
  -29.4308  -20.6214   21.1350 H   0  0  0  0  0  0
  1 25  1  0  0  0
  1 30  2  0  0  0
  1 85  1  0  0  0
  2  3  1  0  0  0
  2 25  1  0  0  0
  2 88  1  0  0  0
  2 89  1  0  0  0
  3  4  1  0  0  0
  3 90  1  0  0  0
  3 91  1  0  0  0
  4  5  1  0  0  0
  4 92  1  0  0  0
  4 93  1  0  0  0
  5  6  1  0  0  0
  5 26  1  0  0  0
  5 94  1  0  0  0
  6 25  1  0  0  0
  6 95  1  0  0  0
  6 96  1  0  0  0
  7  8  2  0  0  0
  7 26  1  0  0  0
  7 29  1  0  0  0
  8  9  1  0  0  0
  8 22  1  0  0  0
  9 10  1  0  0  0
  9 27  2  0  0  0
 10 11  2  0  0  0
 10 15  1  0  0  0
 11 12  1  0  0  0
 11 97  1  0  0  0
 12 13  2  0  0  0
 12 98  1  0  0  0
 13 14  1  0  0  0
 13 31  1  0  0  0
 14 15  2  0  0  0
 14 99  1  0  0  0
 15100  1  0  0  0
 16 17  2  0  0  0
 16 21  1  0  0  0
 16 31  1  0  0  0
 17 18  1  0  0  0
 17101  1  0  0  0
 18 19  2  0  0  0
 18102  1  0  0  0
 19 20  1  0  0  0
 19 24  1  0  0  0
 20 21  2  0  0  0
 20103  1  0  0  0
 21 23  1  0  0  0
 22 28  1  0  0  0
 22 32  2  0  0  0
 26 27  1  0  0  0
 28104  1  0  0  0
 28105  1  0  0  0
 29106  1  0  0  0
 29107  1  0  0  0
 33 34  1  0  0  0
 33 66  1  0  0  0
 33 70  2  0  0  0
 34 36  1  0  0  0
 34 59  1  0  0  0
 34108  1  0  0  0
 35 44  2  0  0  0
 35 45  1  0  0  0
 35 68  1  0  0  0
 36 56  1  0  0  0
 36109  1  0  0  0
 37 39  1  0  0  0
 37 47  1  0  0  0
 37 66  1  0  0  0
 37110  1  0  0  0
 38 43  2  0  0  0
 38 46  1  0  0  0
 38 47  1  0  0  0
 39 64  1  0  0  0
 39 67  2  0  0  0
 40 52  1  0  0  0
 40 53  2  0  0  0
 40 58  1  0  0  0
 41111  1  0  0  0
 41112  1  0  0  0
 41113  1  0  0  0
 41 48  1  0  0  0
 42 43  1  0  0  0
 42 66  1  0  0  0
 42114  1  0  0  0
 42115  1  0  0  0
 43 44  1  0  0  0
 44116  1  0  0  0
 45 46  2  0  0  0
 45117  1  0  0  0
 46118  1  0  0  0
 47119  1  0  0  0
 47120  1  0  0  0
 48 56  1  0  0  0
 48 65  1  0  0  0
 48121  1  0  0  0
 49 50  1  0  0  0
 49 53  1  0  0  0
 49 64  1  0  0  0
 49122  1  0  0  0
 50 51  1  0  0  0
 50123  1  0  0  0
 50124  1  0  0  0
 51 52  1  0  0  0
 51125  1  0  0  0
 51126  1  0  0  0
 52127  1  0  0  0
 52128  1  0  0  0
 53 54  1  0  0  0
 54 55  2  0  0  0
 54129  1  0  0  0
 55 57  1  0  0  0
 55130  1  0  0  0
 56 69  2  0  0  0
 57 58  2  0  0  0
 57131  1  0  0  0
 58132  1  0  0  0
 59 60  1  0  0  0
 59 61  1  0  0  0
 59 62  1  0  0  0
 60133  1  0  0  0
 60134  1  0  0  0
 60135  1  0  0  0
 61136  1  0  0  0
 61137  1  0  0  0
 61138  1  0  0  0
 62139  1  0  0  0
 62140  1  0  0  0
 62141  1  0  0  0
 63 65  1  0  0  0
 63142  1  0  0  0
 63143  1  0  0  0
 63144  1  0  0  0
 64145  1  0  0  0
 65146  1  0  0  0
 68 84  1  0  0  0
 71 72  1  0  0  0
 71 77  1  0  0  0
 71147  1  0  0  0
 71148  1  0  0  0
 72 79  1  0  0  0
 72149  1  0  0  0
 72150  1  0  0  0
 73 75  1  0  0  0
 73 78  1  0  0  0
 73151  1  0  0  0
 73152  1  0  0  0
 74 76  1  0  0  0
 74 78  1  0  0  0
 74153  1  0  0  0
 74154  1  0  0  0
 75 80  1  0  0  0
 75155  1  0  0  0
 75156  1  0  0  0
 76 80  1  0  0  0
 76157  1  0  0  0
 76158  1  0  0  0
 77 86  1  0  0  0
 77159  1  0  0  0
 77160  1  0  0  0
 78 82  1  0  0  0
 78161  1  0  0  0
 79 81  1  0  0  0
 79 83  1  0  0  0
 79162  1  0  0  0
 80 87  1  0  0  0
 80163  1  0  0  0
 81 84  1  0  0  0
 81 86  1  0  0  0
 81164  1  0  0  0
 82 85  1  0  0  0
 82165  1  0  0  0
 82166  1  0  0  0
 83 87  1  0  0  0
 83167  1  0  0  0
 83168  1  0  0  0
 84169  1  0  0  0
 84170  1  0  0  0
 85171  1  0  0  0
 86172  1  0  0  0
 86173  1  0  0  0
 87174  1  0  0  0
 87175  1  0  0  0
M  CHG  2  86   1  87   1
M  ISO  4   1 100  68 101  84 101  85 100
M  END
> <chiral flag>
0

> <version>
0

> <s_m_source_file>
/data/baiqing/PycharmProjects/Reinvent-master-3.2/result/LINK_invent/BTK/process_docking_weight1_custom_sum_contain_oxygen_bond_distance_aromatic_linkinvent_7_9_3/rearranged_h_0124.sdf

> <i_m_source_file_index>
63

> <r_mmod_Potential_Energy-OPLS-2005>
-259.479705810547

> <r_mmod_Stretch_Energy-OPLS-2005>
40.7700004577637

> <r_mmod_Bend_Energy-OPLS-2005>
112.661560058594

> <r_mmod_Torsional_Energy-OPLS-2005>
296.830139160156

> <r_mmod_Improper_Torsional_Energy-OPLS-2005>
1.76624774932861

> <r_mmod_Van_der_Waal_Energy-OPLS-2005>
143.749557495117

> <r_mmod_Electrostatic_Energy-OPLS-2005>
46.6363639831543

> <r_mmod_Solvation_Energy-OPLS-2005>
-913.900695800781

> <b_mmod_Minimization_Converged-OPLS-2005>
0

> <r_mmod_RMS_Derivative-OPLS-2005>
2.99249625205994

$$$$
63
                    3D
 Structure written by MMmdl.
166175  0  0  1  0            999 V2000
  -30.7076  -14.5045   20.5654 C   0  0  0  0  0  0
  -30.4219  -12.3239   19.4358 C   0  0  0  0  0  0
  -29.4972  -12.5054   18.2146 C   0  0  0  0  0  0
  -28.0190  -12.3626   18.6247 C   0  0  0  0  0  0
  -27.6591  -13.2112   19.8737 C   0  0  2  0  0  0
  -28.7023  -13.0203   20.9996 C   0  0  0  0  0  0
  -25.2518  -13.8077   20.5610 C   0  0  0  0  0  0
  -24.1811  -13.0376   20.9202 C   0  0  0  0  0  0
  -24.6398  -11.6861   20.8770 C   0  0  0  0  0  0
  -23.9064  -10.4258   21.0423 C   0  0  0  0  0  0
  -24.3613   -9.4175   21.9198 C   0  0  0  0  0  0
  -23.6282   -8.2217   22.0762 C   0  0  0  0  0  0
  -22.4264   -8.0265   21.3549 C   0  0  0  0  0  0
  -21.9904   -9.0241   20.4651 C   0  0  0  0  0  0
  -22.7241  -10.2113   20.3064 C   0  0  0  0  0  0
  -21.6842   -6.0726   22.5284 C   0  0  0  0  0  0
  -21.4003   -6.5632   23.8216 C   0  0  0  0  0  0
  -21.3658   -5.6788   24.9180 C   0  0  0  0  0  0
  -21.6045   -4.3052   24.7232 C   0  0  0  0  0  0
  -21.8820   -3.8141   23.4354 C   0  0  0  0  0  0
  -21.9190   -4.6955   22.3408 C   0  0  0  0  0  0
  -22.7838  -13.5193   21.1859 C   0  0  0  0  0  0
  -22.1660   -4.2141   21.0985 F   0  0  0  0  0  0
  -21.5632   -3.4536   25.7745 F   0  0  0  0  0  0
  -30.0325  -13.3247   20.4451 N   0  0  0  0  0  0
  -26.3006  -12.9308   20.3355 N   0  0  0  0  0  0
  -25.9336  -11.6467   20.5808 N   0  0  0  0  0  0
  -22.0469  -12.8198   22.0413 N   0  0  0  0  0  0
  -25.4099  -15.1742   20.3812 N   0  0  0  0  0  0
  -31.8353  -14.6543   20.0888 O   0  0  0  0  0  0
  -21.6624   -6.8866   21.4244 O   0  0  0  0  0  0
  -22.3538  -14.5512   20.6714 O   0  0  0  0  0  0
  -24.6172  -31.8662   23.2078 C   0  0  0  0  0  0
  -25.9056  -32.4812   23.8385 C   0  0  1  0  0  0
  -27.2346  -27.4066   20.1012 C   0  0  0  0  0  0
  -25.5906  -33.8609   24.2318 N   0  0  0  0  0  0
  -23.4070  -30.4898   21.5492 C   0  0  2  0  0  0
  -24.8528  -28.9525   20.1153 C   0  0  0  0  0  0
  -22.7432  -29.4654   22.4980 C   0  0  0  0  0  0
  -18.0280  -28.1370   22.8476 C   0  0  0  0  0  0
  -24.1501  -36.7308   23.2640 C   0  0  0  0  0  0
  -25.9389  -30.8242   21.3651 C   0  0  0  0  0  0
  -26.0153  -29.4577   20.7094 C   0  0  0  0  0  0
  -27.2092  -28.6951   20.6929 C   0  0  0  0  0  0
  -26.0509  -26.9270   19.4935 C   0  0  0  0  0  0
  -24.8672  -27.6888   19.5027 C   0  0  0  0  0  0
  -23.6160  -29.8219   20.1646 C   0  0  0  0  0  0
  -25.4121  -36.3104   24.0339 C   0  0  1  0  0  0
  -20.5875  -28.3666   23.1295 C   0  0  2  0  0  0
  -20.6777  -26.9400   22.5405 C   0  0  0  0  0  0
  -19.5760  -26.6376   21.5199 C   0  0  0  0  0  0
  -18.1934  -26.7916   22.1607 C   0  0  0  0  0  0
  -19.1530  -28.8832   23.2881 C   0  0  0  0  0  0
  -18.9462  -30.1439   23.8891 C   0  0  0  0  0  0
  -17.6464  -30.6577   24.0553 C   0  0  0  0  0  0
  -25.9044  -34.9466   23.5126 C   0  0  0  0  0  0
  -16.5352  -29.9074   23.6326 C   0  0  0  0  0  0
  -16.7270  -28.6492   23.0339 C   0  0  0  0  0  0
  -26.4471  -31.6607   25.0730 C   0  0  0  0  0  0
  -25.3730  -31.3725   26.1478 C   0  0  0  0  0  0
  -27.0311  -30.3052   24.6119 C   0  0  0  0  0  0
  -27.6040  -32.4339   25.7494 C   0  0  0  0  0  0
  -27.5592  -37.1812   24.8465 C   0  0  0  0  0  0
  -21.4160  -29.3030   22.3706 N   0  0  0  0  0  0
  -26.4307  -37.3786   23.9406 N   0  0  0  0  0  0
  -24.6727  -31.0748   22.0984 N   0  0  0  0  0  0
  -23.4190  -28.8195   23.3034 O   0  0  0  0  0  0
  -28.4025  -26.6560   20.1239 O   0  0  0  0  0  0
  -26.5606  -34.8914   22.4688 O   0  0  0  0  0  0
  -23.5360  -32.1421   23.7460 O   0  0  0  0  0  0
  -31.8611  -18.8467   21.0525 C   0  0  0  0  0  0
  -31.6048  -17.4604   21.0328 C   0  0  0  0  0  0
  -29.5014  -19.2873   21.2833 C   0  0  0  0  0  0
  -29.2168  -17.8916   21.2525 C   0  0  0  0  0  0
  -30.8173  -19.7859   21.1790 C   0  0  0  0  0  0
  -30.2852  -16.9500   21.1194 C   0  0  0  0  0  0
  -26.6197  -18.3179   20.9093 C   0  0  0  0  0  0
  -26.8354  -18.0565   22.3828 C   0  0  0  0  0  0
  -27.7748  -17.4474   21.3670 C   0  0  0  0  0  0
  -27.8101  -24.9926   21.8036 C   0  0  0  0  0  0
  -31.1951  -21.2794   21.2793 C   0  0  0  0  0  0
  -30.1077  -22.3938   21.4283 C   0  0  0  0  0  0
  -29.6905  -24.5558   20.1242 C   0  0  0  0  0  0
  -28.3066  -25.2257   20.3660 C   0  0  2  0  0  0
  -30.0113  -15.5291   21.1173 N   0  0  0  0  0  0
  -29.7092  -23.0522   20.1483 N   0  3  0  0  0  0
  -31.4670  -12.4152   19.1347 H   0  0  0  0  0  0
  -30.3210  -11.3187   19.8478 H   0  0  0  0  0  0
  -29.7425  -11.7728   17.4448 H   0  0  0  0  0  0
  -29.6634  -13.4868   17.7675 H   0  0  0  0  0  0
  -27.8338  -11.3072   18.8284 H   0  0  0  0  0  0
  -27.3694  -12.6275   17.7896 H   0  0  0  0  0  0
  -27.6944  -14.2557   19.5635 H   0  0  0  0  0  0
  -28.6842  -11.9916   21.3626 H   0  0  0  0  0  0
  -28.4592  -13.6386   21.8646 H   0  0  0  0  0  0
  -25.2758   -9.5642   22.4778 H   0  0  0  0  0  0
  -23.9985   -7.4601   22.7478 H   0  0  0  0  0  0
  -21.0837   -8.8766   19.8953 H   0  0  0  0  0  0
  -22.3714  -10.9656   19.6172 H   0  0  0  0  0  0
  -21.1986   -7.6140   23.9715 H   0  0  0  0  0  0
  -21.1483   -6.0521   25.9083 H   0  0  0  0  0  0
  -22.0600   -2.7604   23.2860 H   0  0  0  0  0  0
  -22.4064  -11.9846   22.4796 H   0  0  0  0  0  0
  -21.1095  -13.1247   22.2617 H   0  0  0  0  0  0
  -24.6310  -15.8160   20.4737 H   0  0  0  0  0  0
  -26.2314  -15.6010   19.9763 H   0  0  0  0  0  0
  -26.7132  -32.5502   23.1150 H   0  0  0  0  0  0
  -25.0056  -33.9774   25.0462 H   0  0  0  0  0  0
  -22.6968  -31.3071   21.4089 H   0  0  0  0  0  0
  -23.3758  -35.9646   23.3314 H   0  0  0  0  0  0
  -24.3595  -36.8908   22.2049 H   0  0  0  0  0  0
  -23.7259  -37.6516   23.6650 H   0  0  0  0  0  0
  -26.0560  -31.5920   20.5988 H   0  0  0  0  0  0
  -26.8243  -30.8743   21.9866 H   0  0  0  0  0  0
  -28.1068  -29.0822   21.1545 H   0  0  0  0  0  0
  -26.0184  -25.9693   18.9962 H   0  0  0  0  0  0
  -23.9736  -27.2973   19.0357 H   0  0  0  0  0  0
  -23.7253  -30.5961   19.4045 H   0  0  0  0  0  0
  -22.7392  -29.2429   19.8694 H   0  0  0  0  0  0
  -25.1304  -36.1971   25.0834 H   0  0  0  0  0  0
  -20.9959  -28.3228   24.1416 H   0  0  0  0  0  0
  -20.5684  -26.2271   23.3592 H   0  0  0  0  0  0
  -21.6647  -26.7441   22.1195 H   0  0  0  0  0  0
  -19.6925  -25.6286   21.1225 H   0  0  0  0  0  0
  -19.6704  -27.3185   20.6726 H   0  0  0  0  0  0
  -17.4209  -26.6658   21.4005 H   0  0  0  0  0  0
  -18.0333  -26.0058   22.9003 H   0  0  0  0  0  0
  -19.7944  -30.7246   24.2263 H   0  0  0  0  0  0
  -17.5023  -31.6261   24.5148 H   0  0  0  0  0  0
  -15.5353  -30.2966   23.7664 H   0  0  0  0  0  0
  -15.8672  -28.0812   22.7049 H   0  0  0  0  0  0
  -24.5895  -30.7080   25.7821 H   0  0  0  0  0  0
  -24.8924  -32.2885   26.4922 H   0  0  0  0  0  0
  -25.8073  -30.8898   27.0243 H   0  0  0  0  0  0
  -26.2863  -29.6805   24.1173 H   0  0  0  0  0  0
  -27.4070  -29.7296   25.4583 H   0  0  0  0  0  0
  -27.8704  -30.4376   23.9286 H   0  0  0  0  0  0
  -27.2656  -33.3636   26.2085 H   0  0  0  0  0  0
  -28.3841  -32.6911   25.0316 H   0  0  0  0  0  0
  -28.0719  -31.8459   26.5395 H   0  0  0  0  0  0
  -28.2610  -38.0112   24.7508 H   0  0  0  0  0  0
  -28.1093  -36.2638   24.6307 H   0  0  0  0  0  0
  -27.2303  -37.1468   25.8867 H   0  0  0  0  0  0
  -20.9326  -29.8742   21.6918 H   0  0  0  0  0  0
  -26.0196  -38.2867   24.1397 H   0  0  0  0  0  0
  -32.8859  -19.1878   20.9952 H   0  0  0  0  0  0
  -32.4581  -16.8022   20.9665 H   0  0  0  0  0  0
  -28.6910  -19.9864   21.4103 H   0  0  0  0  0  0
  -26.8189  -19.3210   20.5406 H   0  0  0  0  0  0
  -25.7594  -17.8365   20.4532 H   0  0  0  0  0  0
  -26.1192  -17.3964   22.8688 H   0  0  0  0  0  0
  -27.1967  -18.8812   22.9936 H   0  0  0  0  0  0
  -27.6635  -16.3818   21.1962 H   0  0  0  0  0  0
  -27.6852  -23.9316   22.0124 H   0  0  0  0  0  0
  -26.8407  -25.4611   21.9719 H   0  0  0  0  0  0
  -28.5082  -25.3998   22.5345 H   0  0  0  0  0  0
  -31.8587  -21.5237   20.4483 H   0  0  0  0  0  0
  -31.8302  -21.3453   22.1636 H   0  0  0  0  0  0
  -30.5495  -23.1611   22.0641 H   0  0  0  0  0  0
  -29.2381  -22.0514   21.9876 H   0  0  0  0  0  0
  -30.4454  -24.9731   20.7912 H   0  0  0  0  0  0
  -30.0100  -24.8442   19.1225 H   0  0  0  0  0  0
  -27.6103  -24.7685   19.6655 H   0  0  0  0  0  0
  -29.0916  -15.2639   21.4318 H   0  0  0  0  0  0
  -28.8327  -22.6752   19.8220 H   0  0  0  0  0  0
  -30.4014  -22.7730   19.4712 H   0  0  0  0  0  0
  1 25  1  0  0  0
  1 30  2  0  0  0
  1 85  1  0  0  0
  2  3  1  0  0  0
  2 25  1  0  0  0
  2 87  1  0  0  0
  2 88  1  0  0  0
  3  4  1  0  0  0
  3 89  1  0  0  0
  3 90  1  0  0  0
  4  5  1  0  0  0
  4 91  1  0  0  0
  4 92  1  0  0  0
  5  6  1  0  0  0
  5 26  1  0  0  0
  5 93  1  0  0  0
  6 25  1  0  0  0
  6 94  1  0  0  0
  6 95  1  0  0  0
  7  8  2  0  0  0
  7 26  1  0  0  0
  7 29  1  0  0  0
  8  9  1  0  0  0
  8 22  1  0  0  0
  9 10  1  0  0  0
  9 27  2  0  0  0
 10 11  2  0  0  0
 10 15  1  0  0  0
 11 12  1  0  0  0
 11 96  1  0  0  0
 12 13  2  0  0  0
 12 97  1  0  0  0
 13 14  1  0  0  0
 13 31  1  0  0  0
 14 15  2  0  0  0
 14 98  1  0  0  0
 15 99  1  0  0  0
 16 17  2  0  0  0
 16 21  1  0  0  0
 16 31  1  0  0  0
 17 18  1  0  0  0
 17100  1  0  0  0
 18 19  2  0  0  0
 18101  1  0  0  0
 19 20  1  0  0  0
 19 24  1  0  0  0
 20 21  2  0  0  0
 20102  1  0  0  0
 21 23  1  0  0  0
 22 28  1  0  0  0
 22 32  2  0  0  0
 26 27  1  0  0  0
 28103  1  0  0  0
 28104  1  0  0  0
 29105  1  0  0  0
 29106  1  0  0  0
 33 34  1  0  0  0
 33 66  1  0  0  0
 33 70  2  0  0  0
 34 36  1  0  0  0
 34 59  1  0  0  0
 34107  1  0  0  0
 35 44  2  0  0  0
 35 45  1  0  0  0
 35 68  1  0  0  0
 36 56  1  0  0  0
 36108  1  0  0  0
 37 39  1  0  0  0
 37 47  1  0  0  0
 37 66  1  0  0  0
 37109  1  0  0  0
 38 43  2  0  0  0
 38 46  1  0  0  0
 38 47  1  0  0  0
 39 64  1  0  0  0
 39 67  2  0  0  0
 40 52  1  0  0  0
 40 53  2  0  0  0
 40 58  1  0  0  0
 41110  1  0  0  0
 41111  1  0  0  0
 41112  1  0  0  0
 41 48  1  0  0  0
 42 43  1  0  0  0
 42 66  1  0  0  0
 42113  1  0  0  0
 42114  1  0  0  0
 43 44  1  0  0  0
 44115  1  0  0  0
 45 46  2  0  0  0
 45116  1  0  0  0
 46117  1  0  0  0
 47118  1  0  0  0
 47119  1  0  0  0
 48 56  1  0  0  0
 48 65  1  0  0  0
 48120  1  0  0  0
 49 50  1  0  0  0
 49 53  1  0  0  0
 49 64  1  0  0  0
 49121  1  0  0  0
 50 51  1  0  0  0
 50122  1  0  0  0
 50123  1  0  0  0
 51 52  1  0  0  0
 51124  1  0  0  0
 51125  1  0  0  0
 52126  1  0  0  0
 52127  1  0  0  0
 53 54  1  0  0  0
 54 55  2  0  0  0
 54128  1  0  0  0
 55 57  1  0  0  0
 55129  1  0  0  0
 56 69  2  0  0  0
 57 58  2  0  0  0
 57130  1  0  0  0
 58131  1  0  0  0
 59 60  1  0  0  0
 59 61  1  0  0  0
 59 62  1  0  0  0
 60132  1  0  0  0
 60133  1  0  0  0
 60134  1  0  0  0
 61135  1  0  0  0
 61136  1  0  0  0
 61137  1  0  0  0
 62138  1  0  0  0
 62139  1  0  0  0
 62140  1  0  0  0
 63 65  1  0  0  0
 63141  1  0  0  0
 63142  1  0  0  0
 63143  1  0  0  0
 64144  1  0  0  0
 65145  1  0  0  0
 68 84  1  0  0  0
 71 72  2  0  0  0
 71 75  1  0  0  0
 71146  1  0  0  0
 72 76  1  0  0  0
 72147  1  0  0  0
 73 74  1  0  0  0
 73 75  2  0  0  0
 73148  1  0  0  0
 74 76  2  0  0  0
 74 79  1  0  0  0
 75 81  1  0  0  0
 76 85  1  0  0  0
 77 78  1  0  0  0
 77 79  1  0  0  0
 77149  1  0  0  0
 77150  1  0  0  0
 78 79  1  0  0  0
 78151  1  0  0  0
 78152  1  0  0  0
 79153  1  0  0  0
 80154  1  0  0  0
 80155  1  0  0  0
 80156  1  0  0  0
 80 84  1  0  0  0
 81 82  1  0  0  0
 81157  1  0  0  0
 81158  1  0  0  0
 82 86  1  0  0  0
 82159  1  0  0  0
 82160  1  0  0  0
 83 84  1  0  0  0
 83 86  1  0  0  0
 83161  1  0  0  0
 83162  1  0  0  0
 84163  1  0  0  0
 85164  1  0  0  0
 86165  1  0  0  0
 86166  1  0  0  0
M  CHG  1  86   1
M  ISO  4   1 100  68 101  84 101  85 100
M  END
> <chiral flag>
0

> <version>
0

> <s_m_source_file>
/data/baiqing/PycharmProjects/Reinvent-master-3.2/result/LINK_invent/BTK/process_docking_weight1_custom_sum_contain_oxygen_bond_distance_aromatic_linkinvent_7_9_3/rearranged_h_0124.sdf

> <i_m_source_file_index>
64

> <r_mmod_Potential_Energy-OPLS-2005>
-101.640502929688

> <r_mmod_Stretch_Energy-OPLS-2005>
48.9833488464355

> <r_mmod_Bend_Energy-OPLS-2005>
120.814849853516

> <r_mmod_Torsional_Energy-OPLS-2005>
282.455444335938

> <r_mmod_Improper_Torsional_Energy-OPLS-2005>
3.87093925476074

> <r_mmod_Van_der_Waal_Energy-OPLS-2005>
155.326156616211

> <r_mmod_Electrostatic_Energy-OPLS-2005>
-283.909576416016

> <r_mmod_Solvation_Energy-OPLS-2005>
-446.2685546875

> <b_mmod_Minimization_Converged-OPLS-2005>
0

> <r_mmod_RMS_Derivative-OPLS-2005>
1.00935387611389

$$$$
64
                    3D
 Structure written by MMmdl.
173182  0  0  1  0            999 V2000
  -30.6263  -14.8103   20.2589 C   0  0  0  0  0  0
  -30.4326  -12.4474   19.5036 C   0  0  0  0  0  0
  -29.5216  -12.3257   18.2563 C   0  0  0  0  0  0
  -28.0314  -12.2391   18.6870 C   0  0  0  0  0  0
  -27.6046  -13.2166   19.8282 C   0  0  2  0  0  0
  -28.6732  -13.3016   20.9416 C   0  0  0  0  0  0
  -25.2362  -13.8112   20.5884 C   0  0  0  0  0  0
  -24.1674  -13.0394   20.9308 C   0  0  0  0  0  0
  -24.6244  -11.6841   20.8765 C   0  0  0  0  0  0
  -23.8988  -10.4204   21.0339 C   0  0  0  0  0  0
  -24.3511   -9.4093   21.9120 C   0  0  0  0  0  0
  -23.6181   -8.2127   22.0683 C   0  0  0  0  0  0
  -22.4164   -8.0192   21.3463 C   0  0  0  0  0  0
  -21.9794   -9.0184   20.4586 C   0  0  0  0  0  0
  -22.7151  -10.2041   20.3031 C   0  0  0  0  0  0
  -21.6779   -6.0694   22.5263 C   0  0  0  0  0  0
  -21.4017   -6.5623   23.8215 C   0  0  0  0  0  0
  -21.3685   -5.6776   24.9168 C   0  0  0  0  0  0
  -21.6017   -4.3039   24.7198 C   0  0  0  0  0  0
  -21.8830   -3.8117   23.4338 C   0  0  0  0  0  0
  -21.9163   -4.6923   22.3381 C   0  0  0  0  0  0
  -22.7686  -13.5174   21.1926 C   0  0  0  0  0  0
  -22.1652   -4.2134   21.0959 F   0  0  0  0  0  0
  -21.5576   -3.4526   25.7713 F   0  0  0  0  0  0
  -29.9566  -13.6050   20.2871 N   0  0  0  0  0  0
  -26.2759  -12.9276   20.3377 N   0  0  0  0  0  0
  -25.9178  -11.6473   20.5882 N   0  0  0  0  0  0
  -22.0313  -12.8236   22.0493 N   0  0  0  0  0  0
  -25.4126  -15.1856   20.4452 N   0  0  0  0  0  0
  -31.8589  -14.8014   20.2730 O   0  0  0  0  0  0
  -21.6529   -6.8798   21.4200 O   0  0  0  0  0  0
  -22.3335  -14.5414   20.6641 O   0  0  0  0  0  0
  -24.6210  -31.8576   23.2017 C   0  0  0  0  0  0
  -25.9044  -32.4764   23.8371 C   0  0  1  0  0  0
  -27.2598  -27.3316   20.1214 C   0  0  0  0  0  0
  -25.5872  -33.8582   24.2298 N   0  0  0  0  0  0
  -23.4213  -30.4706   21.5418 C   0  0  2  0  0  0
  -24.8803  -28.9256   20.1081 C   0  0  0  0  0  0
  -22.7499  -29.4572   22.4992 C   0  0  0  0  0  0
  -18.0286  -28.1340   22.8502 C   0  0  0  0  0  0
  -24.1500  -36.7303   23.2647 C   0  0  0  0  0  0
  -25.9580  -30.7855   21.3763 C   0  0  0  0  0  0
  -26.0386  -29.4121   20.7257 C   0  0  0  0  0  0
  -27.2219  -28.6212   20.7325 C   0  0  0  0  0  0
  -26.0746  -26.8893   19.4866 C   0  0  0  0  0  0
  -24.9020  -27.6701   19.4786 C   0  0  0  0  0  0
  -23.6376  -29.7888   20.1617 C   0  0  0  0  0  0
  -25.4122  -36.3101   24.0352 C   0  0  1  0  0  0
  -20.5871  -28.3643   23.1315 C   0  0  2  0  0  0
  -20.6749  -26.9371   22.5408 C   0  0  0  0  0  0
  -19.5740  -26.6357   21.5209 C   0  0  0  0  0  0
  -18.1939  -26.7878   22.1636 C   0  0  0  0  0  0
  -19.1527  -28.8834   23.2887 C   0  0  0  0  0  0
  -18.9445  -30.1439   23.8896 C   0  0  0  0  0  0
  -17.6440  -30.6559   24.0544 C   0  0  0  0  0  0
  -25.9048  -34.9455   23.5140 C   0  0  0  0  0  0
  -16.5340  -29.9045   23.6316 C   0  0  0  0  0  0
  -16.7270  -28.6448   23.0373 C   0  0  0  0  0  0
  -26.4450  -31.6570   25.0735 C   0  0  0  0  0  0
  -25.3693  -31.3684   26.1476 C   0  0  0  0  0  0
  -27.0250  -30.3000   24.6156 C   0  0  0  0  0  0
  -27.6094  -32.4253   25.7417 C   0  0  0  0  0  0
  -27.5608  -37.1792   24.8470 C   0  0  0  0  0  0
  -21.4211  -29.2987   22.3718 N   0  0  0  0  0  0
  -26.4314  -37.3785   23.9415 N   0  0  0  0  0  0
  -24.6845  -31.0568   22.0965 N   0  0  0  0  0  0
  -23.4228  -28.8126   23.3076 O   0  0  0  0  0  0
  -28.4006  -26.5204   20.2291 O   0  0  0  0  0  0
  -26.5648  -34.8900   22.4719 O   0  0  0  0  0  0
  -23.5359  -32.1376   23.7323 O   0  0  0  0  0  0
  -28.8638  -22.0608   21.5234 C   0  0  0  0  0  0
  -29.5208  -21.5579   19.2769 C   0  0  0  0  0  0
  -28.6932  -23.4428   21.1875 C   0  0  0  0  0  0
  -29.3716  -22.9358   18.9419 C   0  0  0  0  0  0
  -29.2465  -21.0635   20.5776 C   0  0  0  0  0  0
  -28.9127  -23.9144   19.8676 C   0  0  0  0  0  0
  -29.6882  -16.4869   17.2163 C   0  0  0  0  0  0
  -29.1505  -15.8749   18.5480 C   0  0  0  0  0  0
  -31.1795  -16.2517   16.8823 C   0  0  0  0  0  0
  -30.5499  -17.4328   19.7361 C   0  0  2  0  0  0
  -31.9526  -17.4833   18.9931 C   0  0  2  0  0  0
  -33.6775  -18.7780   17.5014 C   0  0  0  0  0  0
  -29.1251  -19.5157   20.9073 C   0  0  0  0  0  0
  -28.6555  -25.3805   19.3365 C   0  0  0  0  0  0
  -30.3435  -18.4681   20.9402 C   0  0  0  0  0  0
  -32.3919  -18.8386   18.3589 C   0  0  1  0  0  0
  -29.9927  -15.9870   19.7827 N   0  0  0  0  0  0
  -32.1365  -16.3721   18.0163 N   0  3  0  0  0  0
  -31.4055  -19.3647   17.4963 O   0  0  0  0  0  0
  -31.4849  -12.5288   19.2196 H   0  0  0  0  0  0
  -30.3668  -11.5487   20.1237 H   0  0  0  0  0  0
  -29.7851  -11.4132   17.7138 H   0  0  0  0  0  0
  -29.7170  -13.1209   17.5400 H   0  0  0  0  0  0
  -27.8941  -11.2240   19.0720 H   0  0  0  0  0  0
  -27.3573  -12.3239   17.8310 H   0  0  0  0  0  0
  -27.4747  -14.1955   19.3758 H   0  0  0  0  0  0
  -28.7334  -12.3643   21.4974 H   0  0  0  0  0  0
  -28.4263  -14.0754   21.6731 H   0  0  0  0  0  0
  -25.2666   -9.5557   22.4669 H   0  0  0  0  0  0
  -23.9815   -7.4537   22.7508 H   0  0  0  0  0  0
  -21.0648   -8.8824   19.8923 H   0  0  0  0  0  0
  -22.3644  -10.9583   19.6140 H   0  0  0  0  0  0
  -21.2087   -7.6149   23.9725 H   0  0  0  0  0  0
  -21.1485   -6.0487   25.9086 H   0  0  0  0  0  0
  -22.0570   -2.7564   23.2841 H   0  0  0  0  0  0
  -22.3971  -12.0046   22.5131 H   0  0  0  0  0  0
  -21.0989  -13.1358   22.2856 H   0  0  0  0  0  0
  -24.6667  -15.8538   20.5950 H   0  0  0  0  0  0
  -26.2935  -15.6088   20.1845 H   0  0  0  0  0  0
  -26.7124  -32.5450   23.1131 H   0  0  0  0  0  0
  -24.9929  -33.9730   25.0386 H   0  0  0  0  0  0
  -22.7101  -31.2846   21.3901 H   0  0  0  0  0  0
  -23.3770  -35.9620   23.3267 H   0  0  0  0  0  0
  -24.3618  -36.8970   22.2075 H   0  0  0  0  0  0
  -23.7220  -37.6490   23.6667 H   0  0  0  0  0  0
  -26.0856  -31.5444   20.6027 H   0  0  0  0  0  0
  -26.8391  -30.8470   22.0028 H   0  0  0  0  0  0
  -28.1011  -28.9906   21.2418 H   0  0  0  0  0  0
  -26.0154  -25.9164   19.0284 H   0  0  0  0  0  0
  -24.0175  -27.2838   18.9921 H   0  0  0  0  0  0
  -23.7298  -30.5497   19.3865 H   0  0  0  0  0  0
  -22.7679  -29.1878   19.8847 H   0  0  0  0  0  0
  -25.1284  -36.1995   25.0848 H   0  0  0  0  0  0
  -20.9961  -28.3186   24.1443 H   0  0  0  0  0  0
  -20.5643  -26.2262   23.3606 H   0  0  0  0  0  0
  -21.6623  -26.7389   22.1220 H   0  0  0  0  0  0
  -19.6875  -25.6283   21.1245 H   0  0  0  0  0  0
  -19.6639  -27.3164   20.6749 H   0  0  0  0  0  0
  -17.4185  -26.6643   21.4048 H   0  0  0  0  0  0
  -18.0319  -26.0024   22.9042 H   0  0  0  0  0  0
  -19.7921  -30.7252   24.2266 H   0  0  0  0  0  0
  -17.4983  -31.6240   24.5104 H   0  0  0  0  0  0
  -15.5333  -30.2916   23.7619 H   0  0  0  0  0  0
  -15.8690  -28.0727   22.7103 H   0  0  0  0  0  0
  -24.5812  -30.7110   25.7754 H   0  0  0  0  0  0
  -24.8901  -32.2821   26.5014 H   0  0  0  0  0  0
  -25.8006  -30.8730   27.0184 H   0  0  0  0  0  0
  -26.2774  -29.6769   24.1220 H   0  0  0  0  0  0
  -27.3996  -29.7253   25.4630 H   0  0  0  0  0  0
  -27.8629  -30.4287   23.9304 H   0  0  0  0  0  0
  -27.2840  -33.3598   26.1994 H   0  0  0  0  0  0
  -28.3849  -32.6749   25.0159 H   0  0  0  0  0  0
  -28.0801  -31.8350   26.5292 H   0  0  0  0  0  0
  -28.2625  -38.0102   24.7571 H   0  0  0  0  0  0
  -28.1123  -36.2646   24.6219 H   0  0  0  0  0  0
  -27.2336  -37.1347   25.8878 H   0  0  0  0  0  0
  -20.9419  -29.8711   21.6909 H   0  0  0  0  0  0
  -26.0222  -38.2875   24.1399 H   0  0  0  0  0  0
  -28.6277  -21.7549   22.5306 H   0  0  0  0  0  0
  -29.7836  -20.8692   18.4927 H   0  0  0  0  0  0
  -28.3613  -24.1335   21.9512 H   0  0  0  0  0  0
  -29.5749  -23.2451   17.9252 H   0  0  0  0  0  0
  -29.4827  -17.5551   17.1480 H   0  0  0  0  0  0
  -29.0815  -16.0907   16.3954 H   0  0  0  0  0  0
  -28.9999  -14.8549   18.2606 H   0  0  0  0  0  0
  -28.1605  -16.2819   18.7432 H   0  0  0  0  0  0
  -31.4775  -16.9521   16.1012 H   0  0  0  0  0  0
  -31.2978  -15.2566   16.4499 H   0  0  0  0  0  0
  -29.9068  -18.0093   19.0900 H   0  0  0  0  0  0
  -32.6895  -17.2828   19.7673 H   0  0  0  0  0  0
  -34.5331  -18.3881   18.0577 H   0  0  0  0  0  0
  -33.9414  -19.7726   17.1382 H   0  0  0  0  0  0
  -33.5579  -18.1527   16.6164 H   0  0  0  0  0  0
  -28.3323  -19.1099   20.2804 H   0  0  0  0  0  0
  -28.6958  -19.4922   21.9141 H   0  0  0  0  0  0
  -27.9333  -25.3083   18.5279 H   0  0  0  0  0  0
  -29.5750  -25.6578   18.8150 H   0  0  0  0  0  0
  -31.2525  -19.0308   21.1268 H   0  0  0  0  0  0
  -30.2272  -17.8728   21.8482 H   0  0  0  0  0  0
  -32.5439  -19.5563   19.1698 H   0  0  0  0  0  0
  -33.0664  -16.4465   17.6334 H   0  0  0  0  0  0
  -32.1304  -15.5266   18.5784 H   0  0  0  0  0  0
  -31.6282  -20.2738   17.3295 H   0  0  0  0  0  0
  1 25  1  0  0  0
  1 30  2  0  0  0
  1 87  1  0  0  0
  2  3  1  0  0  0
  2 25  1  0  0  0
  2 90  1  0  0  0
  2 91  1  0  0  0
  3  4  1  0  0  0
  3 92  1  0  0  0
  3 93  1  0  0  0
  4  5  1  0  0  0
  4 94  1  0  0  0
  4 95  1  0  0  0
  5  6  1  0  0  0
  5 26  1  0  0  0
  5 96  1  0  0  0
  6 25  1  0  0  0
  6 97  1  0  0  0
  6 98  1  0  0  0
  7  8  2  0  0  0
  7 26  1  0  0  0
  7 29  1  0  0  0
  8  9  1  0  0  0
  8 22  1  0  0  0
  9 10  1  0  0  0
  9 27  2  0  0  0
 10 11  2  0  0  0
 10 15  1  0  0  0
 11 12  1  0  0  0
 11 99  1  0  0  0
 12 13  2  0  0  0
 12100  1  0  0  0
 13 14  1  0  0  0
 13 31  1  0  0  0
 14 15  2  0  0  0
 14101  1  0  0  0
 15102  1  0  0  0
 16 17  2  0  0  0
 16 21  1  0  0  0
 16 31  1  0  0  0
 17 18  1  0  0  0
 17103  1  0  0  0
 18 19  2  0  0  0
 18104  1  0  0  0
 19 20  1  0  0  0
 19 24  1  0  0  0
 20 21  2  0  0  0
 20105  1  0  0  0
 21 23  1  0  0  0
 22 28  1  0  0  0
 22 32  2  0  0  0
 26 27  1  0  0  0
 28106  1  0  0  0
 28107  1  0  0  0
 29108  1  0  0  0
 29109  1  0  0  0
 33 34  1  0  0  0
 33 66  1  0  0  0
 33 70  2  0  0  0
 34 36  1  0  0  0
 34 59  1  0  0  0
 34110  1  0  0  0
 35 44  2  0  0  0
 35 45  1  0  0  0
 35 68  1  0  0  0
 36 56  1  0  0  0
 36111  1  0  0  0
 37 39  1  0  0  0
 37 47  1  0  0  0
 37 66  1  0  0  0
 37112  1  0  0  0
 38 43  2  0  0  0
 38 46  1  0  0  0
 38 47  1  0  0  0
 39 64  1  0  0  0
 39 67  2  0  0  0
 40 52  1  0  0  0
 40 53  2  0  0  0
 40 58  1  0  0  0
 41113  1  0  0  0
 41114  1  0  0  0
 41115  1  0  0  0
 41 48  1  0  0  0
 42 43  1  0  0  0
 42 66  1  0  0  0
 42116  1  0  0  0
 42117  1  0  0  0
 43 44  1  0  0  0
 44118  1  0  0  0
 45 46  2  0  0  0
 45119  1  0  0  0
 46120  1  0  0  0
 47121  1  0  0  0
 47122  1  0  0  0
 48 56  1  0  0  0
 48 65  1  0  0  0
 48123  1  0  0  0
 49 50  1  0  0  0
 49 53  1  0  0  0
 49 64  1  0  0  0
 49124  1  0  0  0
 50 51  1  0  0  0
 50125  1  0  0  0
 50126  1  0  0  0
 51 52  1  0  0  0
 51127  1  0  0  0
 51128  1  0  0  0
 52129  1  0  0  0
 52130  1  0  0  0
 53 54  1  0  0  0
 54 55  2  0  0  0
 54131  1  0  0  0
 55 57  1  0  0  0
 55132  1  0  0  0
 56 69  2  0  0  0
 57 58  2  0  0  0
 57133  1  0  0  0
 58134  1  0  0  0
 59 60  1  0  0  0
 59 61  1  0  0  0
 59 62  1  0  0  0
 60135  1  0  0  0
 60136  1  0  0  0
 60137  1  0  0  0
 61138  1  0  0  0
 61139  1  0  0  0
 61140  1  0  0  0
 62141  1  0  0  0
 62142  1  0  0  0
 62143  1  0  0  0
 63 65  1  0  0  0
 63144  1  0  0  0
 63145  1  0  0  0
 63146  1  0  0  0
 64147  1  0  0  0
 65148  1  0  0  0
 68 84  1  0  0  0
 71 73  2  0  0  0
 71 75  1  0  0  0
 71149  1  0  0  0
 72 74  1  0  0  0
 72 75  2  0  0  0
 72150  1  0  0  0
 73 76  1  0  0  0
 73151  1  0  0  0
 74 76  2  0  0  0
 74152  1  0  0  0
 75 83  1  0  0  0
 76 84  1  0  0  0
 77 78  1  0  0  0
 77 79  1  0  0  0
 77153  1  0  0  0
 77154  1  0  0  0
 78 87  1  0  0  0
 78155  1  0  0  0
 78156  1  0  0  0
 79 88  1  0  0  0
 79157  1  0  0  0
 79158  1  0  0  0
 80 81  1  0  0  0
 80 85  1  0  0  0
 80 87  1  0  0  0
 80159  1  0  0  0
 81 86  1  0  0  0
 81 88  1  0  0  0
 81160  1  0  0  0
 82161  1  0  0  0
 82162  1  0  0  0
 82163  1  0  0  0
 82 86  1  0  0  0
 83 85  1  0  0  0
 83164  1  0  0  0
 83165  1  0  0  0
 84166  1  0  0  0
 84167  1  0  0  0
 85168  1  0  0  0
 85169  1  0  0  0
 86 89  1  0  0  0
 86170  1  0  0  0
 88171  1  0  0  0
 88172  1  0  0  0
 89173  1  0  0  0
M  CHG  1  88   1
M  ISO  4   1 100  68 101  84 101  87 100
M  END
> <chiral flag>
0

> <version>
0

> <s_m_source_file>
/data/baiqing/PycharmProjects/Reinvent-master-3.2/result/LINK_invent/BTK/process_docking_weight1_custom_sum_contain_oxygen_bond_distance_aromatic_linkinvent_7_9_3/rearranged_h_0124.sdf

> <i_m_source_file_index>
65

> <r_mmod_Potential_Energy-OPLS-2005>
422.655944824219

> <r_mmod_Stretch_Energy-OPLS-2005>
120.559104919434

> <r_mmod_Bend_Energy-OPLS-2005>
250.465118408203

> <r_mmod_Torsional_Energy-OPLS-2005>
433.807891845703

> <r_mmod_Improper_Torsional_Energy-OPLS-2005>
16.9624099731445

> <r_mmod_Van_der_Waal_Energy-OPLS-2005>
185.442474365234

> <r_mmod_Electrostatic_Energy-OPLS-2005>
-299.920806884766

> <r_mmod_Solvation_Energy-OPLS-2005>
-401.612854003906

> <b_mmod_Minimization_Converged-OPLS-2005>
0

> <r_mmod_RMS_Derivative-OPLS-2005>
8.794846534729

$$$$
65
                    3D
 Structure written by MMmdl.
185195  0  0  1  0            999 V2000
  -30.7523  -14.4062   20.6187 C   0  0  0  0  0  0
  -30.4096  -12.2911   19.4017 C   0  0  0  0  0  0
  -29.4865  -12.5259   18.1894 C   0  0  0  0  0  0
  -28.0066  -12.3866   18.5974 C   0  0  0  0  0  0
  -27.6581  -13.2081   19.8667 C   0  0  2  0  0  0
  -28.6967  -12.9685   20.9811 C   0  0  0  0  0  0
  -25.2561  -13.8157   20.5644 C   0  0  0  0  0  0
  -24.1819  -13.0431   20.9169 C   0  0  0  0  0  0
  -24.6381  -11.6902   20.8721 C   0  0  0  0  0  0
  -23.9044  -10.4281   21.0406 C   0  0  0  0  0  0
  -24.3597   -9.4196   21.9184 C   0  0  0  0  0  0
  -23.6273   -8.2225   22.0754 C   0  0  0  0  0  0
  -22.4248   -8.0264   21.3552 C   0  0  0  0  0  0
  -21.9878   -9.0230   20.4651 C   0  0  0  0  0  0
  -22.7209  -10.2114   20.3064 C   0  0  0  0  0  0
  -21.6841   -6.0730   22.5280 C   0  0  0  0  0  0
  -21.4000   -6.5640   23.8214 C   0  0  0  0  0  0
  -21.3660   -5.6796   24.9176 C   0  0  0  0  0  0
  -21.6038   -4.3055   24.7227 C   0  0  0  0  0  0
  -21.8813   -3.8151   23.4339 C   0  0  0  0  0  0
  -21.9182   -4.6962   22.3399 C   0  0  0  0  0  0
  -22.7857  -13.5240   21.1851 C   0  0  0  0  0  0
  -22.1670   -4.2163   21.0978 F   0  0  0  0  0  0
  -21.5618   -3.4541   25.7730 F   0  0  0  0  0  0
  -30.0318  -13.2669   20.4366 N   0  0  0  0  0  0
  -26.2997  -12.9343   20.3319 N   0  0  0  0  0  0
  -25.9304  -11.6497   20.5728 N   0  0  0  0  0  0
  -22.0477  -12.8269   22.0431 N   0  0  0  0  0  0
  -25.4239  -15.1884   20.4048 N   0  0  0  0  0  0
  -31.8851  -14.5443   20.1579 O   0  0  0  0  0  0
  -21.6613   -6.8863   21.4245 O   0  0  0  0  0  0
  -22.3566  -14.5556   20.6691 O   0  0  0  0  0  0
  -24.6110  -31.8695   23.2128 C   0  0  0  0  0  0
  -25.9021  -32.4831   23.8400 C   0  0  1  0  0  0
  -27.2335  -27.4661   20.0793 C   0  0  0  0  0  0
  -25.5890  -33.8628   24.2345 N   0  0  0  0  0  0
  -23.3965  -30.4950   21.5524 C   0  0  2  0  0  0
  -24.8396  -28.9611   20.1153 C   0  0  0  0  0  0
  -22.7384  -29.4669   22.4998 C   0  0  0  0  0  0
  -18.0268  -28.1374   22.8492 C   0  0  0  0  0  0
  -24.1486  -36.7320   23.2637 C   0  0  0  0  0  0
  -25.9214  -30.8433   21.3603 C   0  0  0  0  0  0
  -25.9957  -29.4780   20.7113 C   0  0  0  0  0  0
  -27.1910  -28.7309   20.7012 C   0  0  0  0  0  0
  -26.0548  -26.9446   19.4993 C   0  0  0  0  0  0
  -24.8604  -27.6902   19.5130 C   0  0  0  0  0  0
  -23.6020  -29.8269   20.1659 C   0  0  0  0  0  0
  -25.4105  -36.3121   24.0346 C   0  0  1  0  0  0
  -20.5852  -28.3653   23.1330 C   0  0  2  0  0  0
  -20.6757  -26.9394   22.5418 C   0  0  0  0  0  0
  -19.5739  -26.6387   21.5207 C   0  0  0  0  0  0
  -18.1917  -26.7924   22.1619 C   0  0  0  0  0  0
  -19.1514  -28.8830   23.2911 C   0  0  0  0  0  0
  -18.9447  -30.1438   23.8921 C   0  0  0  0  0  0
  -17.6451  -30.6579   24.0567 C   0  0  0  0  0  0
  -25.9024  -34.9483   23.5146 C   0  0  0  0  0  0
  -16.5343  -29.9087   23.6318 C   0  0  0  0  0  0
  -16.7259  -28.6503   23.0338 C   0  0  0  0  0  0
  -26.4460  -31.6600   25.0718 C   0  0  0  0  0  0
  -25.3743  -31.3696   26.1484 C   0  0  0  0  0  0
  -27.0277  -30.3052   24.6056 C   0  0  0  0  0  0
  -27.6054  -32.4301   25.7470 C   0  0  0  0  0  0
  -27.5585  -37.1816   24.8465 C   0  0  0  0  0  0
  -21.4111  -29.3032   22.3741 N   0  0  0  0  0  0
  -26.4296  -37.3804   23.9411 N   0  0  0  0  0  0
  -24.6614  -31.0825   22.1010 N   0  0  0  0  0  0
  -23.4170  -28.8201   23.3018 O   0  0  0  0  0  0
  -28.4262  -26.7845   20.0967 O   0  0  0  0  0  0
  -26.5574  -34.8930   22.4702 O   0  0  0  0  0  0
  -23.5317  -32.1436   23.7549 O   0  0  0  0  0  0
  -29.4949  -17.0026   22.9154 C   0  0  0  0  0  0
  -31.3119  -17.8864   17.4754 C   0  0  0  0  0  0
  -29.6367  -23.6856   18.3160 C   0  0  0  0  0  0
  -29.9190  -24.4572   20.7438 C   0  0  0  0  0  0
  -30.2323  -22.3271   18.7133 C   0  0  0  0  0  0
  -30.4841  -23.0635   21.0833 C   0  0  0  0  0  0
  -29.1154  -17.5928   21.5647 C   0  0  0  0  0  0
  -31.5243  -16.8134   18.5162 C   0  0  0  0  0  0
  -30.1076  -15.6389   22.6040 C   0  0  0  0  0  0
  -31.6944  -19.1197   18.2574 C   0  0  0  0  0  0
  -29.0143  -24.4784   19.4868 C   0  0  1  0  0  0
  -31.2385  -22.4943   19.8655 C   0  0  1  0  0  0
  -29.8797  -16.7904   20.4973 C   0  0  1  0  0  0
  -31.1813  -17.4536   19.8931 C   0  0  2  0  0  0
  -33.3926  -21.8404   20.9966 C   0  0  0  0  0  0
  -32.4454  -19.2863   21.7928 C   0  0  0  0  0  0
  -28.7520  -25.9243   19.0103 C   0  0  0  0  0  0
  -32.2150  -21.3031   20.1408 C   0  0  1  0  0  0
  -31.5866  -19.9381   20.6737 C   0  0  1  0  0  0
  -30.0893  -15.4637   21.1469 N   0  0  0  0  0  0
  -31.1172  -18.9440   19.6134 N   0  3  1  0  0  0
  -31.4537  -12.3702   19.0973 H   0  0  0  0  0  0
  -30.2911  -11.2756   19.7821 H   0  0  0  0  0  0
  -29.7238  -11.8262   17.3868 H   0  0  0  0  0  0
  -29.6613  -13.5245   17.7830 H   0  0  0  0  0  0
  -27.8055  -11.3289   18.7691 H   0  0  0  0  0  0
  -27.3618  -12.6885   17.7714 H   0  0  0  0  0  0
  -27.7100  -14.2597   19.5872 H   0  0  0  0  0  0
  -28.6642  -11.9302   21.3168 H   0  0  0  0  0  0
  -28.4426  -13.5623   21.8538 H   0  0  0  0  0  0
  -25.2734   -9.5665   22.4780 H   0  0  0  0  0  0
  -23.9970   -7.4614   22.7484 H   0  0  0  0  0  0
  -21.0797   -8.8719   19.8988 H   0  0  0  0  0  0
  -22.3628  -10.9630   19.6178 H   0  0  0  0  0  0
  -21.2005   -7.6146   23.9711 H   0  0  0  0  0  0
  -21.1503   -6.0536   25.9078 H   0  0  0  0  0  0
  -22.0601   -2.7617   23.2829 H   0  0  0  0  0  0
  -22.4044  -11.9929   22.4848 H   0  0  0  0  0  0
  -21.1105  -13.1325   22.2642 H   0  0  0  0  0  0
  -24.6531  -15.8405   20.5034 H   0  0  0  0  0  0
  -26.2808  -15.6330   20.1032 H   0  0  0  0  0  0
  -26.7095  -32.5554   23.1166 H   0  0  0  0  0  0
  -25.0057  -33.9787   25.0501 H   0  0  0  0  0  0
  -22.6848  -31.3119   21.4157 H   0  0  0  0  0  0
  -23.3740  -35.9659   23.3306 H   0  0  0  0  0  0
  -24.3588  -36.8917   22.2049 H   0  0  0  0  0  0
  -23.7238  -37.6535   23.6635 H   0  0  0  0  0  0
  -26.0277  -31.6078   20.5894 H   0  0  0  0  0  0
  -26.8135  -30.9002   21.9725 H   0  0  0  0  0  0
  -28.0870  -29.1269   21.1583 H   0  0  0  0  0  0
  -26.0383  -25.9614   19.0513 H   0  0  0  0  0  0
  -23.9666  -27.2800   19.0633 H   0  0  0  0  0  0
  -23.7110  -30.6022   19.4064 H   0  0  0  0  0  0
  -22.7253  -29.2477   19.8695 H   0  0  0  0  0  0
  -25.1274  -36.1997   25.0838 H   0  0  0  0  0  0
  -20.9954  -28.3219   24.1445 H   0  0  0  0  0  0
  -20.5656  -26.2254   23.3594 H   0  0  0  0  0  0
  -21.6631  -26.7448   22.1213 H   0  0  0  0  0  0
  -19.6898  -25.6304   21.1214 H   0  0  0  0  0  0
  -19.6676  -27.3211   20.6746 H   0  0  0  0  0  0
  -17.4184  -26.6671   21.4023 H   0  0  0  0  0  0
  -18.0324  -26.0066   22.9016 H   0  0  0  0  0  0
  -19.7923  -30.7244   24.2306 H   0  0  0  0  0  0
  -17.5009  -31.6264   24.5157 H   0  0  0  0  0  0
  -15.5346  -30.2999   23.7636 H   0  0  0  0  0  0
  -15.8655  -28.0839   22.7040 H   0  0  0  0  0  0
  -24.5905  -30.7051   25.7833 H   0  0  0  0  0  0
  -24.8944  -32.2846   26.4964 H   0  0  0  0  0  0
  -25.8116  -30.8848   27.0219 H   0  0  0  0  0  0
  -26.2807  -29.6827   24.1123 H   0  0  0  0  0  0
  -27.4077  -29.7274   25.4486 H   0  0  0  0  0  0
  -27.8623  -30.4379   23.9172 H   0  0  0  0  0  0
  -27.2692  -33.3581   26.2101 H   0  0  0  0  0  0
  -28.3836  -32.6887   25.0279 H   0  0  0  0  0  0
  -28.0749  -31.8386   26.5336 H   0  0  0  0  0  0
  -28.2614  -38.0106   24.7521 H   0  0  0  0  0  0
  -28.1073  -36.2643   24.6277 H   0  0  0  0  0  0
  -27.2307  -37.1458   25.8870 H   0  0  0  0  0  0
  -20.9254  -29.8765   21.6986 H   0  0  0  0  0  0
  -26.0186  -38.2886   24.1408 H   0  0  0  0  0  0
  -28.6153  -16.9090   23.5545 H   0  0  0  0  0  0
  -30.2079  -17.6335   23.4469 H   0  0  0  0  0  0
  -30.2658  -17.9296   17.1693 H   0  0  0  0  0  0
  -31.9220  -17.7477   16.5826 H   0  0  0  0  0  0
  -28.8990  -23.5480   17.5242 H   0  0  0  0  0  0
  -30.4362  -24.2776   17.8682 H   0  0  0  0  0  0
  -30.7496  -25.1497   20.6023 H   0  0  0  0  0  0
  -29.3597  -24.8380   21.6001 H   0  0  0  0  0  0
  -30.7305  -21.9552   17.8232 H   0  0  0  0  0  0
  -29.4439  -21.6215   18.9773 H   0  0  0  0  0  0
  -29.6775  -22.3951   21.3876 H   0  0  0  0  0  0
  -31.1438  -23.1605   21.9442 H   0  0  0  0  0  0
  -29.2382  -18.6694   21.5270 H   0  0  0  0  0  0
  -28.0476  -17.4209   21.4158 H   0  0  0  0  0  0
  -32.5735  -16.5125   18.5037 H   0  0  0  0  0  0
  -30.9351  -15.9326   18.2642 H   0  0  0  0  0  0
  -29.5691  -14.8491   23.1257 H   0  0  0  0  0  0
  -31.1392  -15.6040   22.9620 H   0  0  0  0  0  0
  -31.3412  -19.9995   17.7373 H   0  0  0  0  0  0
  -32.7832  -19.1689   18.3169 H   0  0  0  0  0  0
  -28.0630  -24.0122   19.7499 H   0  0  0  0  0  0
  -31.8998  -23.2964   19.5307 H   0  0  0  0  0  0
  -29.1849  -16.6373   19.6687 H   0  0  0  0  0  0
  -32.0278  -17.2102   20.5307 H   0  0  0  0  0  0
  -33.8107  -22.7549   20.5745 H   0  0  0  0  0  0
  -34.2200  -21.1326   21.0378 H   0  0  0  0  0  0
  -33.1003  -22.0725   22.0207 H   0  0  0  0  0  0
  -32.6501  -19.9757   22.6109 H   0  0  0  0  0  0
  -33.4012  -18.9259   21.4111 H   0  0  0  0  0  0
  -31.9398  -18.4552   22.2763 H   0  0  0  0  0  0
  -28.0341  -25.9394   18.1897 H   0  0  0  0  0  0
  -29.6688  -26.3331   18.5835 H   0  0  0  0  0  0
  -32.7227  -21.1349   19.1972 H   0  0  0  0  0  0
  -30.6759  -20.2359   21.1886 H   0  0  0  0  0  0
  -30.1376  -19.1500   19.4804 H   0  0  0  0  0  0
  1 25  1  0  0  0
  1 30  2  0  0  0
  1 90  1  0  0  0
  2  3  1  0  0  0
  2 25  1  0  0  0
  2 92  1  0  0  0
  2 93  1  0  0  0
  3  4  1  0  0  0
  3 94  1  0  0  0
  3 95  1  0  0  0
  4  5  1  0  0  0
  4 96  1  0  0  0
  4 97  1  0  0  0
  5  6  1  0  0  0
  5 26  1  0  0  0
  5 98  1  0  0  0
  6 25  1  0  0  0
  6 99  1  0  0  0
  6100  1  0  0  0
  7  8  2  0  0  0
  7 26  1  0  0  0
  7 29  1  0  0  0
  8  9  1  0  0  0
  8 22  1  0  0  0
  9 10  1  0  0  0
  9 27  2  0  0  0
 10 11  2  0  0  0
 10 15  1  0  0  0
 11 12  1  0  0  0
 11101  1  0  0  0
 12 13  2  0  0  0
 12102  1  0  0  0
 13 14  1  0  0  0
 13 31  1  0  0  0
 14 15  2  0  0  0
 14103  1  0  0  0
 15104  1  0  0  0
 16 17  2  0  0  0
 16 21  1  0  0  0
 16 31  1  0  0  0
 17 18  1  0  0  0
 17105  1  0  0  0
 18 19  2  0  0  0
 18106  1  0  0  0
 19 20  1  0  0  0
 19 24  1  0  0  0
 20 21  2  0  0  0
 20107  1  0  0  0
 21 23  1  0  0  0
 22 28  1  0  0  0
 22 32  2  0  0  0
 26 27  1  0  0  0
 28108  1  0  0  0
 28109  1  0  0  0
 29110  1  0  0  0
 29111  1  0  0  0
 33 34  1  0  0  0
 33 66  1  0  0  0
 33 70  2  0  0  0
 34 36  1  0  0  0
 34 59  1  0  0  0
 34112  1  0  0  0
 35 44  2  0  0  0
 35 45  1  0  0  0
 35 68  1  0  0  0
 36 56  1  0  0  0
 36113  1  0  0  0
 37 39  1  0  0  0
 37 47  1  0  0  0
 37 66  1  0  0  0
 37114  1  0  0  0
 38 43  2  0  0  0
 38 46  1  0  0  0
 38 47  1  0  0  0
 39 64  1  0  0  0
 39 67  2  0  0  0
 40 52  1  0  0  0
 40 53  2  0  0  0
 40 58  1  0  0  0
 41115  1  0  0  0
 41116  1  0  0  0
 41117  1  0  0  0
 41 48  1  0  0  0
 42 43  1  0  0  0
 42 66  1  0  0  0
 42118  1  0  0  0
 42119  1  0  0  0
 43 44  1  0  0  0
 44120  1  0  0  0
 45 46  2  0  0  0
 45121  1  0  0  0
 46122  1  0  0  0
 47123  1  0  0  0
 47124  1  0  0  0
 48 56  1  0  0  0
 48 65  1  0  0  0
 48125  1  0  0  0
 49 50  1  0  0  0
 49 53  1  0  0  0
 49 64  1  0  0  0
 49126  1  0  0  0
 50 51  1  0  0  0
 50127  1  0  0  0
 50128  1  0  0  0
 51 52  1  0  0  0
 51129  1  0  0  0
 51130  1  0  0  0
 52131  1  0  0  0
 52132  1  0  0  0
 53 54  1  0  0  0
 54 55  2  0  0  0
 54133  1  0  0  0
 55 57  1  0  0  0
 55134  1  0  0  0
 56 69  2  0  0  0
 57 58  2  0  0  0
 57135  1  0  0  0
 58136  1  0  0  0
 59 60  1  0  0  0
 59 61  1  0  0  0
 59 62  1  0  0  0
 60137  1  0  0  0
 60138  1  0  0  0
 60139  1  0  0  0
 61140  1  0  0  0
 61141  1  0  0  0
 61142  1  0  0  0
 62143  1  0  0  0
 62144  1  0  0  0
 62145  1  0  0  0
 63 65  1  0  0  0
 63146  1  0  0  0
 63147  1  0  0  0
 63148  1  0  0  0
 64149  1  0  0  0
 65150  1  0  0  0
 68 87  1  0  0  0
 71 77  1  0  0  0
 71 79  1  0  0  0
 71151  1  0  0  0
 71152  1  0  0  0
 72 78  1  0  0  0
 72 80  1  0  0  0
 72153  1  0  0  0
 72154  1  0  0  0
 73 75  1  0  0  0
 73 81  1  0  0  0
 73155  1  0  0  0
 73156  1  0  0  0
 74 76  1  0  0  0
 74 81  1  0  0  0
 74157  1  0  0  0
 74158  1  0  0  0
 75159  1  0  0  0
 75160  1  0  0  0
 75 82  1  0  0  0
 76 82  1  0  0  0
 76161  1  0  0  0
 76162  1  0  0  0
 77163  1  0  0  0
 77164  1  0  0  0
 77 83  1  0  0  0
 78165  1  0  0  0
 78166  1  0  0  0
 78 84  1  0  0  0
 79 90  1  0  0  0
 79167  1  0  0  0
 79168  1  0  0  0
 80169  1  0  0  0
 80170  1  0  0  0
 80 91  1  0  0  0
 81 87  1  0  0  0
 81171  1  0  0  0
 82 88  1  0  0  0
 82172  1  0  0  0
 83 84  1  0  0  0
 83 90  1  0  0  0
 83173  1  0  0  0
 84 91  1  0  0  0
 84174  1  0  0  0
 85175  1  0  0  0
 85176  1  0  0  0
 85177  1  0  0  0
 85 88  1  0  0  0
 86178  1  0  0  0
 86179  1  0  0  0
 86180  1  0  0  0
 86 89  1  0  0  0
 87181  1  0  0  0
 87182  1  0  0  0
 88 89  1  0  0  0
 88183  1  0  0  0
 89 91  1  0  0  0
 89184  1  0  0  0
 91185  1  0  0  0
M  CHG  1  91   1
M  ISO  4   1 100  68 101  87 101  90 100
M  END
> <chiral flag>
0

> <version>
0

> <s_m_source_file>
/data/baiqing/PycharmProjects/Reinvent-master-3.2/result/LINK_invent/BTK/process_docking_weight1_custom_sum_contain_oxygen_bond_distance_aromatic_linkinvent_7_9_3/rearranged_h_0124.sdf

> <i_m_source_file_index>
66

> <r_mmod_Potential_Energy-OPLS-2005>
386.177154541016

> <r_mmod_Stretch_Energy-OPLS-2005>
55.38525390625

> <r_mmod_Bend_Energy-OPLS-2005>
196.728805541992

> <r_mmod_Torsional_Energy-OPLS-2005>
507.982971191406

> <r_mmod_Improper_Torsional_Energy-OPLS-2005>
6.551682472229

> <r_mmod_Van_der_Waal_Energy-OPLS-2005>
159.540863037109

> <r_mmod_Electrostatic_Energy-OPLS-2005>
-174.263534545898

> <r_mmod_Solvation_Energy-OPLS-2005>
-377.911254882812

> <b_mmod_Minimization_Converged-OPLS-2005>
0

> <r_mmod_RMS_Derivative-OPLS-2005>
2.32473516464233

$$$$
66
                    3D
 Structure written by MMmdl.
156164  0  0  1  0            999 V2000
  -30.5669  -14.8115   20.4539 C   0  0  0  0  0  0
  -30.4406  -12.4981   19.4755 C   0  0  0  0  0  0
  -29.5122  -12.5076   18.2390 C   0  0  0  0  0  0
  -28.0423  -12.3134   18.6606 C   0  0  0  0  0  0
  -27.6375  -13.2287   19.8458 C   0  0  2  0  0  0
  -28.6822  -13.1872   20.9813 C   0  0  0  0  0  0
  -25.2500  -13.8182   20.5692 C   0  0  0  0  0  0
  -24.1797  -13.0437   20.9215 C   0  0  0  0  0  0
  -24.6391  -11.6913   20.8765 C   0  0  0  0  0  0
  -23.9074  -10.4291   21.0415 C   0  0  0  0  0  0
  -24.3621   -9.4209   21.9195 C   0  0  0  0  0  0
  -23.6295   -8.2238   22.0761 C   0  0  0  0  0  0
  -22.4276   -8.0272   21.3547 C   0  0  0  0  0  0
  -21.9916   -9.0250   20.4645 C   0  0  0  0  0  0
  -22.7247  -10.2133   20.3061 C   0  0  0  0  0  0
  -21.6850   -6.0737   22.5279 C   0  0  0  0  0  0
  -21.4006   -6.5641   23.8210 C   0  0  0  0  0  0
  -21.3664   -5.6799   24.9175 C   0  0  0  0  0  0
  -21.6036   -4.3060   24.7225 C   0  0  0  0  0  0
  -21.8821   -3.8151   23.4348 C   0  0  0  0  0  0
  -21.9189   -4.6965   22.3403 C   0  0  0  0  0  0
  -22.7825  -13.5218   21.1881 C   0  0  0  0  0  0
  -22.1660   -4.2154   21.0982 F   0  0  0  0  0  0
  -21.5634   -3.4547   25.7742 F   0  0  0  0  0  0
  -29.9719  -13.5667   20.3914 N   0  0  0  0  0  0
  -26.2916  -12.9374   20.3264 N   0  0  0  0  0  0
  -25.9312  -11.6526   20.5757 N   0  0  0  0  0  0
  -22.0470  -12.8191   22.0423 N   0  0  0  0  0  0
  -25.4200  -15.1904   20.4086 N   0  0  0  0  0  0
  -31.7651  -14.9224   20.1761 O   0  0  0  0  0  0
  -21.6642   -6.8878   21.4240 O   0  0  0  0  0  0
  -22.3506  -14.5529   20.6737 O   0  0  0  0  0  0
  -24.6363  -31.8514   23.1944 C   0  0  0  0  0  0
  -25.9165  -32.4743   23.8312 C   0  0  1  0  0  0
  -27.2062  -27.2221   20.1399 C   0  0  0  0  0  0
  -25.5941  -33.8540   24.2234 N   0  0  0  0  0  0
  -23.4341  -30.4732   21.5399 C   0  0  2  0  0  0
  -24.8815  -28.9156   20.1083 C   0  0  0  0  0  0
  -22.7552  -29.4581   22.4911 C   0  0  0  0  0  0
  -18.0304  -28.1391   22.8482 C   0  0  0  0  0  0
  -24.1479  -36.7285   23.2642 C   0  0  0  0  0  0
  -25.9830  -30.7535   21.3780 C   0  0  0  0  0  0
  -26.0568  -29.3706   20.7234 C   0  0  0  0  0  0
  -27.2267  -28.5392   20.7235 C   0  0  0  0  0  0
  -26.0148  -26.8461   19.4871 C   0  0  0  0  0  0
  -24.8674  -27.6628   19.4771 C   0  0  0  0  0  0
  -23.6536  -29.8066   20.1568 C   0  0  0  0  0  0
  -25.4107  -36.3065   24.0316 C   0  0  1  0  0  0
  -20.5916  -28.3701   23.1262 C   0  0  2  0  0  0
  -20.6784  -26.9408   22.5408 C   0  0  0  0  0  0
  -19.5753  -26.6379   21.5219 C   0  0  0  0  0  0
  -18.1927  -26.7935   22.1622 C   0  0  0  0  0  0
  -19.1561  -28.8864   23.2857 C   0  0  0  0  0  0
  -18.9478  -30.1473   23.8868 C   0  0  0  0  0  0
  -17.6474  -30.6589   24.0564 C   0  0  0  0  0  0
  -25.9050  -34.9433   23.5079 C   0  0  0  0  0  0
  -16.5359  -29.9076   23.6339 C   0  0  0  0  0  0
  -16.7291  -28.6508   23.0350 C   0  0  0  0  0  0
  -26.4505  -31.6599   25.0725 C   0  0  0  0  0  0
  -25.3707  -31.3757   26.1441 C   0  0  0  0  0  0
  -27.0361  -30.3004   24.6237 C   0  0  0  0  0  0
  -27.6051  -32.4361   25.7496 C   0  0  0  0  0  0
  -27.5579  -37.1785   24.8458 C   0  0  0  0  0  0
  -21.4253  -29.3048   22.3664 N   0  0  0  0  0  0
  -26.4281  -37.3771   23.9415 N   0  0  0  0  0  0
  -24.7038  -31.0454   22.0929 N   0  0  0  0  0  0
  -23.4249  -28.8120   23.3011 O   0  0  0  0  0  0
  -28.2603  -26.2722   20.1678 O   0  0  0  0  0  0
  -26.5650  -34.8915   22.4667 O   0  0  0  0  0  0
  -23.5499  -32.1360   23.7211 O   0  0  0  0  0  0
  -27.2917  -22.3168   20.7181 C   0  0  0  0  0  0
  -27.5227  -20.8027   20.3165 C   0  0  0  0  0  0
  -29.6938  -22.6904   20.4488 C   0  0  0  0  0  0
  -28.2961  -23.3834   20.1465 C   0  0  2  0  0  0
  -28.9350  -20.1948   20.6236 C   0  0  1  0  0  0
  -27.9692  -24.8941   20.7423 C   0  0  0  0  0  0
  -29.0686  -18.6043   20.1500 C   0  0  0  0  0  0
  -30.0569  -17.4528   20.7858 C   0  0  0  0  0  0
  -29.7541  -15.9365   20.6349 N   0  0  0  0  0  0
  -29.8701  -21.2236   20.0284 N   0  3  0  0  0  0
  -31.4771  -12.6470   19.1657 H   0  0  0  0  0  0
  -30.4111  -11.5277   19.9739 H   0  0  0  0  0  0
  -29.8043  -11.7234   17.5393 H   0  0  0  0  0  0
  -29.6190  -13.4524   17.7038 H   0  0  0  0  0  0
  -27.9205  -11.2691   18.9499 H   0  0  0  0  0  0
  -27.3762  -12.4722   17.8117 H   0  0  0  0  0  0
  -27.6236  -14.2431   19.4472 H   0  0  0  0  0  0
  -28.7373  -12.1922   21.4252 H   0  0  0  0  0  0
  -28.4058  -13.8680   21.7882 H   0  0  0  0  0  0
  -25.2758   -9.5676   22.4782 H   0  0  0  0  0  0
  -24.0000   -7.4626   22.7487 H   0  0  0  0  0  0
  -21.0850   -8.8770   19.8948 H   0  0  0  0  0  0
  -22.3705  -10.9675   19.6180 H   0  0  0  0  0  0
  -21.1996   -7.6152   23.9712 H   0  0  0  0  0  0
  -21.1485   -6.0532   25.9076 H   0  0  0  0  0  0
  -22.0595   -2.7615   23.2851 H   0  0  0  0  0  0
  -22.4088  -11.9833   22.4777 H   0  0  0  0  0  0
  -21.1092  -13.1206   22.2658 H   0  0  0  0  0  0
  -24.6476  -15.8401   20.5063 H   0  0  0  0  0  0
  -26.2546  -15.6250   20.0376 H   0  0  0  0  0  0
  -26.7236  -32.5361   23.1055 H   0  0  0  0  0  0
  -25.0078  -33.9656   25.0374 H   0  0  0  0  0  0
  -22.7303  -31.2951   21.3933 H   0  0  0  0  0  0
  -23.3741  -35.9614   23.3289 H   0  0  0  0  0  0
  -24.3568  -36.8944   22.2064 H   0  0  0  0  0  0
  -23.7227  -37.6470   23.6690 H   0  0  0  0  0  0
  -26.1218  -31.5080   20.6031 H   0  0  0  0  0  0
  -26.8604  -30.8073   22.0103 H   0  0  0  0  0  0
  -28.1261  -28.8804   21.2174 H   0  0  0  0  0  0
  -25.9587  -25.8833   18.9975 H   0  0  0  0  0  0
  -23.9712  -27.3085   18.9857 H   0  0  0  0  0  0
  -23.7787  -30.5812   19.3996 H   0  0  0  0  0  0
  -22.7706  -29.2414   19.8561 H   0  0  0  0  0  0
  -25.1285  -36.1902   25.0804 H   0  0  0  0  0  0
  -20.9980  -28.3284   24.1403 H   0  0  0  0  0  0
  -20.5693  -26.2313   23.3624 H   0  0  0  0  0  0
  -21.6651  -26.7448   22.1195 H   0  0  0  0  0  0
  -19.6904  -25.6290   21.1245 H   0  0  0  0  0  0
  -19.6679  -27.3204   20.6756 H   0  0  0  0  0  0
  -17.4212  -26.6719   21.3999 H   0  0  0  0  0  0
  -18.0287  -26.0060   22.8999 H   0  0  0  0  0  0
  -19.7956  -30.7287   24.2218 H   0  0  0  0  0  0
  -17.5030  -31.6265   24.5185 H   0  0  0  0  0  0
  -15.5353  -30.2965   23.7687 H   0  0  0  0  0  0
  -15.8694  -28.0819   22.7062 H   0  0  0  0  0  0
  -24.5931  -30.7033   25.7795 H   0  0  0  0  0  0
  -24.8814  -32.2909   26.4788 H   0  0  0  0  0  0
  -25.8009  -30.9031   27.0280 H   0  0  0  0  0  0
  -26.2967  -29.6719   24.1247 H   0  0  0  0  0  0
  -27.4044  -29.7302   25.4778 H   0  0  0  0  0  0
  -27.8827  -30.4290   23.9485 H   0  0  0  0  0  0
  -27.2713  -33.3748   26.1933 H   0  0  0  0  0  0
  -28.3918  -32.6784   25.0343 H   0  0  0  0  0  0
  -28.0628  -31.8563   26.5523 H   0  0  0  0  0  0
  -28.2575  -38.0106   24.7554 H   0  0  0  0  0  0
  -28.1106  -36.2643   24.6229 H   0  0  0  0  0  0
  -27.2305  -37.1376   25.8862 H   0  0  0  0  0  0
  -20.9468  -29.8796   21.6866 H   0  0  0  0  0  0
  -26.0153  -38.2831   24.1448 H   0  0  0  0  0  0
  -27.3031  -22.3804   21.8078 H   0  0  0  0  0  0
  -26.2774  -22.5981   20.4273 H   0  0  0  0  0  0
  -27.3181  -20.6939   19.2500 H   0  0  0  0  0  0
  -26.7659  -20.1967   20.8184 H   0  0  0  0  0  0
  -29.8917  -22.7519   21.5200 H   0  0  0  0  0  0
  -30.4776  -23.2771   19.9683 H   0  0  0  0  0  0
  -28.1533  -23.4194   19.0655 H   0  0  0  0  0  0
  -29.0741  -20.2213   21.7053 H   0  0  0  0  0  0
  -28.3900  -24.9236   21.7484 H   0  0  0  0  0  0
  -26.8963  -24.8770   20.9391 H   0  0  0  0  0  0
  -29.1927  -18.5897   19.0671 H   0  0  0  0  0  0
  -28.0697  -18.1943   20.3024 H   0  0  0  0  0  0
  -30.0977  -17.6294   21.8621 H   0  0  0  0  0  0
  -31.0726  -17.6352   20.4310 H   0  0  0  0  0  0
  -28.7847  -15.6960   20.7793 H   0  0  0  0  0  0
  -30.8131  -20.9578   20.2623 H   0  0  0  0  0  0
  -29.7955  -21.1805   19.0251 H   0  0  0  0  0  0
  1 25  1  0  0  0
  1 30  2  0  0  0
  1 79  1  0  0  0
  2  3  1  0  0  0
  2 25  1  0  0  0
  2 81  1  0  0  0
  2 82  1  0  0  0
  3  4  1  0  0  0
  3 83  1  0  0  0
  3 84  1  0  0  0
  4  5  1  0  0  0
  4 85  1  0  0  0
  4 86  1  0  0  0
  5  6  1  0  0  0
  5 26  1  0  0  0
  5 87  1  0  0  0
  6 25  1  0  0  0
  6 88  1  0  0  0
  6 89  1  0  0  0
  7  8  2  0  0  0
  7 26  1  0  0  0
  7 29  1  0  0  0
  8  9  1  0  0  0
  8 22  1  0  0  0
  9 10  1  0  0  0
  9 27  2  0  0  0
 10 11  2  0  0  0
 10 15  1  0  0  0
 11 12  1  0  0  0
 11 90  1  0  0  0
 12 13  2  0  0  0
 12 91  1  0  0  0
 13 14  1  0  0  0
 13 31  1  0  0  0
 14 15  2  0  0  0
 14 92  1  0  0  0
 15 93  1  0  0  0
 16 17  2  0  0  0
 16 21  1  0  0  0
 16 31  1  0  0  0
 17 18  1  0  0  0
 17 94  1  0  0  0
 18 19  2  0  0  0
 18 95  1  0  0  0
 19 20  1  0  0  0
 19 24  1  0  0  0
 20 21  2  0  0  0
 20 96  1  0  0  0
 21 23  1  0  0  0
 22 28  1  0  0  0
 22 32  2  0  0  0
 26 27  1  0  0  0
 28 97  1  0  0  0
 28 98  1  0  0  0
 29 99  1  0  0  0
 29100  1  0  0  0
 33 34  1  0  0  0
 33 66  1  0  0  0
 33 70  2  0  0  0
 34 36  1  0  0  0
 34 59  1  0  0  0
 34101  1  0  0  0
 35 44  2  0  0  0
 35 45  1  0  0  0
 35 68  1  0  0  0
 36 56  1  0  0  0
 36102  1  0  0  0
 37 39  1  0  0  0
 37 47  1  0  0  0
 37 66  1  0  0  0
 37103  1  0  0  0
 38 43  2  0  0  0
 38 46  1  0  0  0
 38 47  1  0  0  0
 39 64  1  0  0  0
 39 67  2  0  0  0
 40 52  1  0  0  0
 40 53  2  0  0  0
 40 58  1  0  0  0
 41104  1  0  0  0
 41105  1  0  0  0
 41106  1  0  0  0
 41 48  1  0  0  0
 42 43  1  0  0  0
 42 66  1  0  0  0
 42107  1  0  0  0
 42108  1  0  0  0
 43 44  1  0  0  0
 44109  1  0  0  0
 45 46  2  0  0  0
 45110  1  0  0  0
 46111  1  0  0  0
 47112  1  0  0  0
 47113  1  0  0  0
 48 56  1  0  0  0
 48 65  1  0  0  0
 48114  1  0  0  0
 49 50  1  0  0  0
 49 53  1  0  0  0
 49 64  1  0  0  0
 49115  1  0  0  0
 50 51  1  0  0  0
 50116  1  0  0  0
 50117  1  0  0  0
 51 52  1  0  0  0
 51118  1  0  0  0
 51119  1  0  0  0
 52120  1  0  0  0
 52121  1  0  0  0
 53 54  1  0  0  0
 54 55  2  0  0  0
 54122  1  0  0  0
 55 57  1  0  0  0
 55123  1  0  0  0
 56 69  2  0  0  0
 57 58  2  0  0  0
 57124  1  0  0  0
 58125  1  0  0  0
 59 60  1  0  0  0
 59 61  1  0  0  0
 59 62  1  0  0  0
 60126  1  0  0  0
 60127  1  0  0  0
 60128  1  0  0  0
 61129  1  0  0  0
 61130  1  0  0  0
 61131  1  0  0  0
 62132  1  0  0  0
 62133  1  0  0  0
 62134  1  0  0  0
 63 65  1  0  0  0
 63135  1  0  0  0
 63136  1  0  0  0
 63137  1  0  0  0
 64138  1  0  0  0
 65139  1  0  0  0
 68 76  1  0  0  0
 71 72  1  0  0  0
 71 74  1  0  0  0
 71140  1  0  0  0
 71141  1  0  0  0
 72 75  1  0  0  0
 72142  1  0  0  0
 72143  1  0  0  0
 73 74  1  0  0  0
 73 80  1  0  0  0
 73144  1  0  0  0
 73145  1  0  0  0
 74 76  1  0  0  0
 74146  1  0  0  0
 75 77  1  0  0  0
 75 80  1  0  0  0
 75147  1  0  0  0
 76148  1  0  0  0
 76149  1  0  0  0
 77 78  1  0  0  0
 77150  1  0  0  0
 77151  1  0  0  0
 78 79  1  0  0  0
 78152  1  0  0  0
 78153  1  0  0  0
 79154  1  0  0  0
 80155  1  0  0  0
 80156  1  0  0  0
M  CHG  1  80   1
M  ISO  4   1 100  68 101  76 101  79 100
M  END
> <chiral flag>
0

> <version>
0

> <s_m_source_file>
/data/baiqing/PycharmProjects/Reinvent-master-3.2/result/LINK_invent/BTK/process_docking_weight1_custom_sum_contain_oxygen_bond_distance_aromatic_linkinvent_7_9_3/rearranged_h_0124.sdf

> <i_m_source_file_index>
67

> <r_mmod_Potential_Energy-OPLS-2005>
172.32470703125

> <r_mmod_Stretch_Energy-OPLS-2005>
160.9970703125

> <r_mmod_Bend_Energy-OPLS-2005>
221.646072387695

> <r_mmod_Torsional_Energy-OPLS-2005>
268.058441162109

> <r_mmod_Improper_Torsional_Energy-OPLS-2005>
4.38996887207031

> <r_mmod_Van_der_Waal_Energy-OPLS-2005>
120.471267700195

> <r_mmod_Electrostatic_Energy-OPLS-2005>
-244.725326538086

> <r_mmod_Solvation_Energy-OPLS-2005>
-477.163055419922

> <b_mmod_Minimization_Converged-OPLS-2005>
0

> <r_mmod_RMS_Derivative-OPLS-2005>
2.63930606842041

$$$$
67
                    3D
 Structure written by MMmdl.
161170  0  0  1  0            999 V2000
  -30.6453  -14.6185   20.4785 C   0  0  0  0  0  0
  -30.4247  -12.3769   19.4412 C   0  0  0  0  0  0
  -29.4959  -12.4974   18.2145 C   0  0  0  0  0  0
  -28.0186  -12.3462   18.6297 C   0  0  0  0  0  0
  -27.6451  -13.2146   19.8600 C   0  0  2  0  0  0
  -28.6956  -13.0911   20.9843 C   0  0  0  0  0  0
  -25.2546  -13.8162   20.5726 C   0  0  0  0  0  0
  -24.1810  -13.0418   20.9199 C   0  0  0  0  0  0
  -24.6383  -11.6896   20.8766 C   0  0  0  0  0  0
  -23.9053  -10.4286   21.0429 C   0  0  0  0  0  0
  -24.3610   -9.4196   21.9195 C   0  0  0  0  0  0
  -23.6285   -8.2236   22.0755 C   0  0  0  0  0  0
  -22.4269   -8.0285   21.3545 C   0  0  0  0  0  0
  -21.9918   -9.0253   20.4639 C   0  0  0  0  0  0
  -22.7243  -10.2131   20.3060 C   0  0  0  0  0  0
  -21.6846   -6.0745   22.5283 C   0  0  0  0  0  0
  -21.4014   -6.5647   23.8219 C   0  0  0  0  0  0
  -21.3662   -5.6797   24.9178 C   0  0  0  0  0  0
  -21.6045   -4.3061   24.7228 C   0  0  0  0  0  0
  -21.8825   -3.8154   23.4354 C   0  0  0  0  0  0
  -21.9194   -4.6974   22.3409 C   0  0  0  0  0  0
  -22.7841  -13.5222   21.1846 C   0  0  0  0  0  0
  -22.1662   -4.2157   21.0989 F   0  0  0  0  0  0
  -21.5611   -3.4550   25.7743 F   0  0  0  0  0  0
  -30.0049  -13.4119   20.4027 N   0  0  0  0  0  0
  -26.2952  -12.9326   20.3348 N   0  0  0  0  0  0
  -25.9304  -11.6484   20.5784 N   0  0  0  0  0  0
  -22.0488  -12.8212   22.0404 N   0  0  0  0  0  0
  -25.4274  -15.1875   20.4147 N   0  0  0  0  0  0
  -31.8319  -14.7388   20.1600 O   0  0  0  0  0  0
  -21.6627   -6.8889   21.4248 O   0  0  0  0  0  0
  -22.3537  -14.5531   20.6696 O   0  0  0  0  0  0
  -24.6247  -31.8585   23.2025 C   0  0  0  0  0  0
  -25.9101  -32.4773   23.8355 C   0  0  1  0  0  0
  -27.2380  -27.3410   20.1003 C   0  0  0  0  0  0
  -25.5929  -33.8574   24.2289 N   0  0  0  0  0  0
  -23.4177  -30.4806   21.5444 C   0  0  2  0  0  0
  -24.8656  -28.9330   20.1112 C   0  0  0  0  0  0
  -22.7466  -29.4614   22.4947 C   0  0  0  0  0  0
  -18.0280  -28.1379   22.8492 C   0  0  0  0  0  0
  -24.1487  -36.7291   23.2640 C   0  0  0  0  0  0
  -25.9561  -30.7944   21.3698 C   0  0  0  0  0  0
  -26.0310  -29.4223   20.7131 C   0  0  0  0  0  0
  -27.2151  -28.6329   20.7059 C   0  0  0  0  0  0
  -26.0415  -26.8854   19.4999 C   0  0  0  0  0  0
  -24.8705  -27.6679   19.5010 C   0  0  0  0  0  0
  -23.6314  -29.8092   20.1617 C   0  0  0  0  0  0
  -25.4114  -36.3081   24.0333 C   0  0  1  0  0  0
  -20.5874  -28.3680   23.1293 C   0  0  2  0  0  0
  -20.6759  -26.9405   22.5419 C   0  0  0  0  0  0
  -19.5741  -26.6376   21.5215 C   0  0  0  0  0  0
  -18.1916  -26.7929   22.1620 C   0  0  0  0  0  0
  -19.1530  -28.8847   23.2884 C   0  0  0  0  0  0
  -18.9457  -30.1454   23.8894 C   0  0  0  0  0  0
  -17.6457  -30.6586   24.0557 C   0  0  0  0  0  0
  -25.9053  -34.9450   23.5110 C   0  0  0  0  0  0
  -16.5346  -29.9079   23.6332 C   0  0  0  0  0  0
  -16.7266  -28.6497   23.0359 C   0  0  0  0  0  0
  -26.4491  -31.6583   25.0719 C   0  0  0  0  0  0
  -25.3736  -31.3711   26.1455 C   0  0  0  0  0  0
  -27.0334  -30.3009   24.6166 C   0  0  0  0  0  0
  -27.6053  -32.4312   25.7492 C   0  0  0  0  0  0
  -27.5587  -37.1795   24.8462 C   0  0  0  0  0  0
  -21.4180  -29.3036   22.3694 N   0  0  0  0  0  0
  -26.4294  -37.3781   23.9415 N   0  0  0  0  0  0
  -24.6847  -31.0606   22.0964 N   0  0  0  0  0  0
  -23.4193  -28.8158   23.3027 O   0  0  0  0  0  0
  -28.3845  -26.5400   20.1668 O   0  0  0  0  0  0
  -26.5610  -34.8919   22.4670 O   0  0  0  0  0  0
  -23.5407  -32.1376   23.7348 O   0  0  0  0  0  0
  -29.9162  -23.1900   19.3470 C   0  0  0  0  0  0
  -30.0458  -21.8009   19.6336 C   0  0  0  0  0  0
  -27.8277  -23.2659   20.5263 C   0  0  0  0  0  0
  -28.8012  -23.9600   19.7693 C   0  0  0  0  0  0
  -27.9549  -21.8726   20.8225 C   0  0  0  0  0  0
  -29.0604  -21.0908   20.3720 C   0  0  0  0  0  0
  -30.7014  -17.9755   21.5570 C   0  0  0  0  0  0
  -29.9090  -17.8156   19.1821 C   0  0  0  0  0  0
  -29.9713  -16.6256   21.8476 C   0  0  0  0  0  0
  -29.2121  -16.4715   19.5690 C   0  0  0  0  0  0
  -30.1881  -18.8079   20.3450 C   0  0  0  0  0  0
  -26.8597  -21.2002   21.6286 C   0  0  0  0  0  0
  -28.6101  -25.4255   19.2408 C   0  0  0  0  0  0
  -29.8627  -15.7333   20.6771 N   0  0  0  0  0  0
  -29.0808  -19.7079   20.6711 O   0  0  0  0  0  0
  -31.4666  -12.4878   19.1368 H   0  0  0  0  0  0
  -30.3459  -11.3864   19.8916 H   0  0  0  0  0  0
  -29.7524  -11.7430   17.4689 H   0  0  0  0  0  0
  -29.6447  -13.4645   17.7317 H   0  0  0  0  0  0
  -27.8423  -11.2942   18.8529 H   0  0  0  0  0  0
  -27.3680  -12.5906   17.7894 H   0  0  0  0  0  0
  -27.6473  -14.2442   19.5119 H   0  0  0  0  0  0
  -28.7058  -12.0827   21.4001 H   0  0  0  0  0  0
  -28.4545  -13.7606   21.8112 H   0  0  0  0  0  0
  -25.2767   -9.5657   22.4754 H   0  0  0  0  0  0
  -23.9993   -7.4633   22.7476 H   0  0  0  0  0  0
  -21.0854   -8.8783   19.8943 H   0  0  0  0  0  0
  -22.3723  -10.9671   19.6164 H   0  0  0  0  0  0
  -21.2016   -7.6158   23.9726 H   0  0  0  0  0  0
  -21.1466   -6.0526   25.9076 H   0  0  0  0  0  0
  -22.0600   -2.7615   23.2852 H   0  0  0  0  0  0
  -22.4123  -11.9873   22.4775 H   0  0  0  0  0  0
  -21.1098  -13.1221   22.2606 H   0  0  0  0  0  0
  -24.6651  -15.8474   20.5220 H   0  0  0  0  0  0
  -26.2898  -15.6240   20.1154 H   0  0  0  0  0  0
  -26.7166  -32.5457   23.1107 H   0  0  0  0  0  0
  -25.0086  -33.9724   25.0438 H   0  0  0  0  0  0
  -22.7109  -31.2999   21.3984 H   0  0  0  0  0  0
  -23.3755  -35.9620   23.3288 H   0  0  0  0  0  0
  -24.3573  -36.8927   22.2056 H   0  0  0  0  0  0
  -23.7229  -37.6487   23.6666 H   0  0  0  0  0  0
  -26.0832  -31.5572   20.5998 H   0  0  0  0  0  0
  -26.8389  -30.8449   21.9966 H   0  0  0  0  0  0
  -28.1117  -29.0034   21.1836 H   0  0  0  0  0  0
  -25.9717  -25.9009   19.0617 H   0  0  0  0  0  0
  -23.9706  -27.2781   19.0462 H   0  0  0  0  0  0
  -23.7447  -30.5802   19.3992 H   0  0  0  0  0  0
  -22.7536  -29.2324   19.8644 H   0  0  0  0  0  0
  -25.1284  -36.1939   25.0821 H   0  0  0  0  0  0
  -20.9969  -28.3254   24.1412 H   0  0  0  0  0  0
  -20.5650  -26.2293   23.3614 H   0  0  0  0  0  0
  -21.6633  -26.7416   22.1232 H   0  0  0  0  0  0
  -19.6900  -25.6285   21.1237 H   0  0  0  0  0  0
  -19.6680  -27.3185   20.6740 H   0  0  0  0  0  0
  -17.4194  -26.6698   21.4010 H   0  0  0  0  0  0
  -18.0297  -26.0061   22.9004 H   0  0  0  0  0  0
  -19.7928  -30.7269   24.2274 H   0  0  0  0  0  0
  -17.5004  -31.6263   24.5161 H   0  0  0  0  0  0
  -15.5346  -30.2979   23.7648 H   0  0  0  0  0  0
  -15.8671  -28.0807   22.7076 H   0  0  0  0  0  0
  -24.5920  -30.7045   25.7796 H   0  0  0  0  0  0
  -24.8919  -32.2871   26.4880 H   0  0  0  0  0  0
  -25.8081  -30.8900   27.0229 H   0  0  0  0  0  0
  -26.2903  -29.6749   24.1209 H   0  0  0  0  0  0
  -27.4055  -29.7267   25.4665 H   0  0  0  0  0  0
  -27.8760  -30.4293   23.9367 H   0  0  0  0  0  0
  -27.2673  -33.3619   26.2058 H   0  0  0  0  0  0
  -28.3876  -32.6853   25.0330 H   0  0  0  0  0  0
  -28.0705  -31.8439   26.5422 H   0  0  0  0  0  0
  -28.2583  -38.0111   24.7535 H   0  0  0  0  0  0
  -28.1097  -36.2641   24.6248 H   0  0  0  0  0  0
  -27.2303  -37.1403   25.8862 H   0  0  0  0  0  0
  -20.9355  -29.8775   21.6915 H   0  0  0  0  0  0
  -26.0167  -38.2854   24.1432 H   0  0  0  0  0  0
  -30.6826  -23.6600   18.7465 H   0  0  0  0  0  0
  -30.9170  -21.3038   19.2361 H   0  0  0  0  0  0
  -26.9495  -23.8055   20.8518 H   0  0  0  0  0  0
  -31.7479  -17.7316   21.3665 H   0  0  0  0  0  0
  -30.7092  -18.5989   22.4517 H   0  0  0  0  0  0
  -29.3469  -18.3168   18.3930 H   0  0  0  0  0  0
  -30.8682  -17.5549   18.7311 H   0  0  0  0  0  0
  -28.9633  -16.8380   22.2071 H   0  0  0  0  0  0
  -30.4743  -16.1038   22.6635 H   0  0  0  0  0  0
  -29.1550  -15.8385   18.6811 H   0  0  0  0  0  0
  -28.1799  -16.6758   19.8554 H   0  0  0  0  0  0
  -31.0402  -19.4107   20.0440 H   0  0  0  0  0  0
  -26.0373  -21.8830   21.8439 H   0  0  0  0  0  0
  -27.2566  -20.8378   22.5770 H   0  0  0  0  0  0
  -26.4547  -20.3475   21.0841 H   0  0  0  0  0  0
  -27.8983  -25.4006   18.4179 H   0  0  0  0  0  0
  -29.5450  -25.6867   18.7440 H   0  0  0  0  0  0
  1 25  1  0  0  0
  1 30  2  0  0  0
  1 84  1  0  0  0
  2  3  1  0  0  0
  2 25  1  0  0  0
  2 86  1  0  0  0
  2 87  1  0  0  0
  3  4  1  0  0  0
  3 88  1  0  0  0
  3 89  1  0  0  0
  4  5  1  0  0  0
  4 90  1  0  0  0
  4 91  1  0  0  0
  5  6  1  0  0  0
  5 26  1  0  0  0
  5 92  1  0  0  0
  6 25  1  0  0  0
  6 93  1  0  0  0
  6 94  1  0  0  0
  7  8  2  0  0  0
  7 26  1  0  0  0
  7 29  1  0  0  0
  8  9  1  0  0  0
  8 22  1  0  0  0
  9 10  1  0  0  0
  9 27  2  0  0  0
 10 11  2  0  0  0
 10 15  1  0  0  0
 11 12  1  0  0  0
 11 95  1  0  0  0
 12 13  2  0  0  0
 12 96  1  0  0  0
 13 14  1  0  0  0
 13 31  1  0  0  0
 14 15  2  0  0  0
 14 97  1  0  0  0
 15 98  1  0  0  0
 16 17  2  0  0  0
 16 21  1  0  0  0
 16 31  1  0  0  0
 17 18  1  0  0  0
 17 99  1  0  0  0
 18 19  2  0  0  0
 18100  1  0  0  0
 19 20  1  0  0  0
 19 24  1  0  0  0
 20 21  2  0  0  0
 20101  1  0  0  0
 21 23  1  0  0  0
 22 28  1  0  0  0
 22 32  2  0  0  0
 26 27  1  0  0  0
 28102  1  0  0  0
 28103  1  0  0  0
 29104  1  0  0  0
 29105  1  0  0  0
 33 34  1  0  0  0
 33 66  1  0  0  0
 33 70  2  0  0  0
 34 36  1  0  0  0
 34 59  1  0  0  0
 34106  1  0  0  0
 35 44  2  0  0  0
 35 45  1  0  0  0
 35 68  1  0  0  0
 36 56  1  0  0  0
 36107  1  0  0  0
 37 39  1  0  0  0
 37 47  1  0  0  0
 37 66  1  0  0  0
 37108  1  0  0  0
 38 43  2  0  0  0
 38 46  1  0  0  0
 38 47  1  0  0  0
 39 64  1  0  0  0
 39 67  2  0  0  0
 40 52  1  0  0  0
 40 53  2  0  0  0
 40 58  1  0  0  0
 41109  1  0  0  0
 41110  1  0  0  0
 41111  1  0  0  0
 41 48  1  0  0  0
 42 43  1  0  0  0
 42 66  1  0  0  0
 42112  1  0  0  0
 42113  1  0  0  0
 43 44  1  0  0  0
 44114  1  0  0  0
 45 46  2  0  0  0
 45115  1  0  0  0
 46116  1  0  0  0
 47117  1  0  0  0
 47118  1  0  0  0
 48 56  1  0  0  0
 48 65  1  0  0  0
 48119  1  0  0  0
 49 50  1  0  0  0
 49 53  1  0  0  0
 49 64  1  0  0  0
 49120  1  0  0  0
 50 51  1  0  0  0
 50121  1  0  0  0
 50122  1  0  0  0
 51 52  1  0  0  0
 51123  1  0  0  0
 51124  1  0  0  0
 52125  1  0  0  0
 52126  1  0  0  0
 53 54  1  0  0  0
 54 55  2  0  0  0
 54127  1  0  0  0
 55 57  1  0  0  0
 55128  1  0  0  0
 56 69  2  0  0  0
 57 58  2  0  0  0
 57129  1  0  0  0
 58130  1  0  0  0
 59 60  1  0  0  0
 59 61  1  0  0  0
 59 62  1  0  0  0
 60131  1  0  0  0
 60132  1  0  0  0
 60133  1  0  0  0
 61134  1  0  0  0
 61135  1  0  0  0
 61136  1  0  0  0
 62137  1  0  0  0
 62138  1  0  0  0
 62139  1  0  0  0
 63 65  1  0  0  0
 63140  1  0  0  0
 63141  1  0  0  0
 63142  1  0  0  0
 64143  1  0  0  0
 65144  1  0  0  0
 68 83  1  0  0  0
 71 72  2  0  0  0
 71 74  1  0  0  0
 71145  1  0  0  0
 72 76  1  0  0  0
 72146  1  0  0  0
 73 74  2  0  0  0
 73 75  1  0  0  0
 73147  1  0  0  0
 74 83  1  0  0  0
 75 76  2  0  0  0
 75 82  1  0  0  0
 76 85  1  0  0  0
 77 79  1  0  0  0
 77 81  1  0  0  0
 77148  1  0  0  0
 77149  1  0  0  0
 78 80  1  0  0  0
 78 81  1  0  0  0
 78150  1  0  0  0
 78151  1  0  0  0
 79 84  1  0  0  0
 79152  1  0  0  0
 79153  1  0  0  0
 80 84  1  0  0  0
 80154  1  0  0  0
 80155  1  0  0  0
 81 85  1  0  0  0
 81156  1  0  0  0
 82157  1  0  0  0
 82158  1  0  0  0
 82159  1  0  0  0
 83160  1  0  0  0
 83161  1  0  0  0
M  ISO  4   1 100  68 101  83 101  84 100
M  END
> <chiral flag>
0

> <version>
0

> <s_m_source_file>
/data/baiqing/PycharmProjects/Reinvent-master-3.2/result/LINK_invent/BTK/process_docking_weight1_custom_sum_contain_oxygen_bond_distance_aromatic_linkinvent_7_9_3/rearranged_h_0124.sdf

> <i_m_source_file_index>
68

> <r_mmod_Potential_Energy-OPLS-2005>
288.428070068359

> <r_mmod_Stretch_Energy-OPLS-2005>
69.4054565429688

> <r_mmod_Bend_Energy-OPLS-2005>
155.73974609375

> <r_mmod_Torsional_Energy-OPLS-2005>
351.812530517578

> <r_mmod_Improper_Torsional_Energy-OPLS-2005>
7.80050182342529

> <r_mmod_Van_der_Waal_Energy-OPLS-2005>
142.098846435547

> <r_mmod_Electrostatic_Energy-OPLS-2005>
-286.606048583984

> <r_mmod_Solvation_Energy-OPLS-2005>
-194.088272094727

> <b_mmod_Minimization_Converged-OPLS-2005>
0

> <r_mmod_RMS_Derivative-OPLS-2005>
1.8013356924057

$$$$
68
                    3D
 Structure written by MMmdl.
171181  0  0  1  0            999 V2000
  -30.6142  -14.7306   20.4478 C   0  0  0  0  0  0
  -30.4288  -12.4414   19.4790 C   0  0  0  0  0  0
  -29.5089  -12.5014   18.2396 C   0  0  0  0  0  0
  -28.0349  -12.3277   18.6530 C   0  0  0  0  0  0
  -27.6425  -13.2291   19.8542 C   0  0  2  0  0  0
  -28.6856  -13.1632   20.9919 C   0  0  0  0  0  0
  -25.2518  -13.8193   20.5707 C   0  0  0  0  0  0
  -24.1805  -13.0442   20.9215 C   0  0  0  0  0  0
  -24.6393  -11.6919   20.8761 C   0  0  0  0  0  0
  -23.9073  -10.4294   21.0421 C   0  0  0  0  0  0
  -24.3625   -9.4205   21.9195 C   0  0  0  0  0  0
  -23.6299   -8.2242   22.0757 C   0  0  0  0  0  0
  -22.4283   -8.0283   21.3546 C   0  0  0  0  0  0
  -21.9922   -9.0257   20.4650 C   0  0  0  0  0  0
  -22.7249  -10.2136   20.3064 C   0  0  0  0  0  0
  -21.6852   -6.0741   22.5280 C   0  0  0  0  0  0
  -21.4013   -6.5646   23.8214 C   0  0  0  0  0  0
  -21.3656   -5.6796   24.9174 C   0  0  0  0  0  0
  -21.6042   -4.3059   24.7223 C   0  0  0  0  0  0
  -21.8817   -3.8152   23.4344 C   0  0  0  0  0  0
  -21.9193   -4.6969   22.3401 C   0  0  0  0  0  0
  -22.7827  -13.5226   21.1867 C   0  0  0  0  0  0
  -22.1662   -4.2157   21.0979 F   0  0  0  0  0  0
  -21.5625   -3.4539   25.7735 F   0  0  0  0  0  0
  -29.9896  -13.5053   20.4123 N   0  0  0  0  0  0
  -26.2939  -12.9398   20.3305 N   0  0  0  0  0  0
  -25.9324  -11.6544   20.5776 N   0  0  0  0  0  0
  -22.0475  -12.8211   22.0421 N   0  0  0  0  0  0
  -25.4219  -15.1914   20.4102 N   0  0  0  0  0  0
  -31.7963  -14.8256   20.1085 O   0  0  0  0  0  0
  -21.6641   -6.8884   21.4245 O   0  0  0  0  0  0
  -22.3521  -14.5538   20.6717 O   0  0  0  0  0  0
  -24.6314  -31.8543   23.1967 C   0  0  0  0  0  0
  -25.9138  -32.4748   23.8314 C   0  0  1  0  0  0
  -27.2232  -27.2596   20.1164 C   0  0  0  0  0  0
  -25.5939  -33.8551   24.2239 N   0  0  0  0  0  0
  -23.4277  -30.4761   21.5408 C   0  0  2  0  0  0
  -24.8724  -28.9210   20.1083 C   0  0  0  0  0  0
  -22.7506  -29.4593   22.4912 C   0  0  0  0  0  0
  -18.0292  -28.1397   22.8485 C   0  0  0  0  0  0
  -24.1488  -36.7274   23.2639 C   0  0  0  0  0  0
  -25.9729  -30.7654   21.3757 C   0  0  0  0  0  0
  -26.0436  -29.3877   20.7168 C   0  0  0  0  0  0
  -27.2163  -28.5676   20.7120 C   0  0  0  0  0  0
  -26.0206  -26.8527   19.4951 C   0  0  0  0  0  0
  -24.8663  -27.6612   19.4904 C   0  0  0  0  0  0
  -23.6443  -29.8092   20.1569 C   0  0  0  0  0  0
  -25.4113  -36.3063   24.0325 C   0  0  1  0  0  0
  -20.5897  -28.3697   23.1274 C   0  0  2  0  0  0
  -20.6781  -26.9417   22.5411 C   0  0  0  0  0  0
  -19.5753  -26.6387   21.5220 C   0  0  0  0  0  0
  -18.1932  -26.7939   22.1626 C   0  0  0  0  0  0
  -19.1547  -28.8863   23.2874 C   0  0  0  0  0  0
  -18.9472  -30.1470   23.8886 C   0  0  0  0  0  0
  -17.6471  -30.6596   24.0567 C   0  0  0  0  0  0
  -25.9057  -34.9437   23.5080 C   0  0  0  0  0  0
  -16.5359  -29.9092   23.6340 C   0  0  0  0  0  0
  -16.7280  -28.6514   23.0352 C   0  0  0  0  0  0
  -26.4508  -31.6581   25.0709 C   0  0  0  0  0  0
  -25.3728  -31.3735   26.1435 C   0  0  0  0  0  0
  -27.0366  -30.3005   24.6192 C   0  0  0  0  0  0
  -27.6052  -32.4333   25.7487 C   0  0  0  0  0  0
  -27.5583  -37.1777   24.8455 C   0  0  0  0  0  0
  -21.4209  -29.3045   22.3664 N   0  0  0  0  0  0
  -26.4276  -37.3773   23.9428 N   0  0  0  0  0  0
  -24.6966  -31.0506   22.0940 N   0  0  0  0  0  0
  -23.4203  -28.8134   23.3013 O   0  0  0  0  0  0
  -28.3423  -26.3972   20.1974 O   0  0  0  0  0  0
  -26.5637  -34.8920   22.4657 O   0  0  0  0  0  0
  -23.5464  -32.1364   23.7264 O   0  0  0  0  0  0
  -28.0756  -23.5631   21.6062 C   0  0  0  0  0  0
  -28.0950  -22.3143   22.2813 C   0  0  0  0  0  0
  -29.0081  -22.4488   19.6646 C   0  0  0  0  0  0
  -29.0045  -18.7650   21.8653 C   0  0  0  0  0  0
  -29.0465  -21.1539   20.3306 C   0  0  0  0  0  0
  -28.5300  -23.6778   20.2761 C   0  0  0  0  0  0
  -29.5216  -18.6476   20.5563 C   0  0  0  0  0  0
  -28.5667  -21.1269   21.6638 C   0  0  0  0  0  0
  -29.5193  -19.8824   19.7780 C   0  0  0  0  0  0
  -32.0068  -19.7200   17.0508 C   0  0  0  0  0  0
  -31.2642  -20.4968   18.1445 C   0  0  0  0  0  0
  -31.0791  -19.4729   15.8473 C   0  0  0  0  0  0
  -29.0919  -19.4302   17.3736 C   0  0  2  0  0  0
  -28.2678  -20.6206   16.8510 C   0  0  0  0  0  0
  -30.1743  -17.2685   20.0646 C   0  0  0  0  0  0
  -28.4510  -25.0706   19.4985 C   0  0  0  0  0  0
  -28.5610  -19.9561   22.3446 N   0  3  0  0  0  0
  -30.0130  -19.8108   18.4571 N   0  0  0  0  0  0
  -29.8424  -15.8739   20.6068 N   0  0  0  0  0  0
  -29.8432  -18.7735   16.2717 N   0  3  0  0  0  0
  -31.4716  -12.5559   19.1781 H   0  0  0  0  0  0
  -30.3639  -11.4646   19.9606 H   0  0  0  0  0  0
  -29.7895  -11.7282   17.5229 H   0  0  0  0  0  0
  -29.6378  -13.4562   17.7273 H   0  0  0  0  0  0
  -27.8916  -11.2793   18.9177 H   0  0  0  0  0  0
  -27.3768  -12.5188   17.8047 H   0  0  0  0  0  0
  -27.6377  -14.2499   19.4723 H   0  0  0  0  0  0
  -28.7166  -12.1677   21.4367 H   0  0  0  0  0  0
  -28.4241  -13.8503   21.7981 H   0  0  0  0  0  0
  -25.2772   -9.5679   22.4769 H   0  0  0  0  0  0
  -24.0007   -7.4632   22.7476 H   0  0  0  0  0  0
  -21.0854   -8.8778   19.8954 H   0  0  0  0  0  0
  -22.3713  -10.9677   19.6171 H   0  0  0  0  0  0
  -21.2005   -7.6153   23.9721 H   0  0  0  0  0  0
  -21.1476   -6.0524   25.9078 H   0  0  0  0  0  0
  -22.0598   -2.7615   23.2839 H   0  0  0  0  0  0
  -22.4090  -11.9860   22.4784 H   0  0  0  0  0  0
  -21.1092  -13.1231   22.2635 H   0  0  0  0  0  0
  -24.6489  -15.8408   20.5086 H   0  0  0  0  0  0
  -26.2584  -15.6270   20.0454 H   0  0  0  0  0  0
  -26.7196  -32.5388   23.1043 H   0  0  0  0  0  0
  -25.0100  -33.9686   25.0393 H   0  0  0  0  0  0
  -22.7246  -31.2985   21.3944 H   0  0  0  0  0  0
  -23.3769  -35.9584   23.3266 H   0  0  0  0  0  0
  -24.3589  -36.8937   22.2061 H   0  0  0  0  0  0
  -23.7211  -37.6451   23.6687 H   0  0  0  0  0  0
  -26.1136  -31.5266   20.6071 H   0  0  0  0  0  0
  -26.8499  -30.8126   22.0092 H   0  0  0  0  0  0
  -28.1127  -28.9211   21.2012 H   0  0  0  0  0  0
  -25.9211  -25.8822   19.0368 H   0  0  0  0  0  0
  -23.9644  -27.2930   19.0206 H   0  0  0  0  0  0
  -23.7682  -30.5850   19.4008 H   0  0  0  0  0  0
  -22.7613  -29.2443   19.8525 H   0  0  0  0  0  0
  -25.1291  -36.1892   25.0814 H   0  0  0  0  0  0
  -20.9983  -28.3271   24.1398 H   0  0  0  0  0  0
  -20.5696  -26.2308   23.3614 H   0  0  0  0  0  0
  -21.6646  -26.7452   22.1194 H   0  0  0  0  0  0
  -19.6918  -25.6298   21.1252 H   0  0  0  0  0  0
  -19.6691  -27.3195   20.6751 H   0  0  0  0  0  0
  -17.4204  -26.6698   21.4023 H   0  0  0  0  0  0
  -18.0321  -26.0084   22.9021 H   0  0  0  0  0  0
  -19.7949  -30.7298   24.2236 H   0  0  0  0  0  0
  -17.5024  -31.6274   24.5176 H   0  0  0  0  0  0
  -15.5360  -30.2993   23.7677 H   0  0  0  0  0  0
  -15.8680  -28.0838   22.7063 H   0  0  0  0  0  0
  -24.5909  -30.7073   25.7774 H   0  0  0  0  0  0
  -24.8916  -32.2906   26.4838 H   0  0  0  0  0  0
  -25.8052  -30.8936   27.0223 H   0  0  0  0  0  0
  -26.2952  -29.6742   24.1218 H   0  0  0  0  0  0
  -27.4075  -29.7277   25.4702 H   0  0  0  0  0  0
  -27.8813  -30.4309   23.9422 H   0  0  0  0  0  0
  -27.2654  -33.3648   26.2026 H   0  0  0  0  0  0
  -28.3883  -32.6868   25.0327 H   0  0  0  0  0  0
  -28.0694  -31.8480   26.5435 H   0  0  0  0  0  0
  -28.2547  -38.0130   24.7592 H   0  0  0  0  0  0
  -28.1137  -36.2667   24.6164 H   0  0  0  0  0  0
  -27.2322  -37.1277   25.8861 H   0  0  0  0  0  0
  -20.9392  -29.8770   21.6873 H   0  0  0  0  0  0
  -26.0148  -38.2833   24.1487 H   0  0  0  0  0  0
  -27.6986  -24.4426   22.1126 H   0  0  0  0  0  0
  -27.7297  -22.2849   23.2983 H   0  0  0  0  0  0
  -29.3449  -22.5128   18.6431 H   0  0  0  0  0  0
  -28.9619  -17.9370   22.5606 H   0  0  0  0  0  0
  -32.3648  -18.7692   17.4480 H   0  0  0  0  0  0
  -32.8927  -20.2723   16.7354 H   0  0  0  0  0  0
  -31.0671  -21.5112   17.7981 H   0  0  0  0  0  0
  -31.8903  -20.5799   19.0345 H   0  0  0  0  0  0
  -31.5898  -18.8759   15.0910 H   0  0  0  0  0  0
  -30.8175  -20.4191   15.3721 H   0  0  0  0  0  0
  -28.3879  -18.6901   17.7600 H   0  0  0  0  0  0
  -28.8976  -21.4274   16.4772 H   0  0  0  0  0  0
  -27.6273  -21.0280   17.6322 H   0  0  0  0  0  0
  -27.6092  -20.3145   16.0376 H   0  0  0  0  0  0
  -31.2513  -17.4097   20.1675 H   0  0  0  0  0  0
  -30.0092  -17.1959   18.9906 H   0  0  0  0  0  0
  -27.7296  -24.9634   18.6923 H   0  0  0  0  0  0
  -29.4002  -25.1369   18.9667 H   0  0  0  0  0  0
  -28.2097  -19.9672   23.3037 H   0  0  0  0  0  0
  -28.8833  -15.7088   20.8708 H   0  0  0  0  0  0
  -30.0974  -17.8429   16.5601 H   0  0  0  0  0  0
  -29.2357  -18.6633   15.4741 H   0  0  0  0  0  0
  1 25  1  0  0  0
  1 30  2  0  0  0
  1 89  1  0  0  0
  2  3  1  0  0  0
  2 25  1  0  0  0
  2 91  1  0  0  0
  2 92  1  0  0  0
  3  4  1  0  0  0
  3 93  1  0  0  0
  3 94  1  0  0  0
  4  5  1  0  0  0
  4 95  1  0  0  0
  4 96  1  0  0  0
  5  6  1  0  0  0
  5 26  1  0  0  0
  5 97  1  0  0  0
  6 25  1  0  0  0
  6 98  1  0  0  0
  6 99  1  0  0  0
  7  8  2  0  0  0
  7 26  1  0  0  0
  7 29  1  0  0  0
  8  9  1  0  0  0
  8 22  1  0  0  0
  9 10  1  0  0  0
  9 27  2  0  0  0
 10 11  2  0  0  0
 10 15  1  0  0  0
 11 12  1  0  0  0
 11100  1  0  0  0
 12 13  2  0  0  0
 12101  1  0  0  0
 13 14  1  0  0  0
 13 31  1  0  0  0
 14 15  2  0  0  0
 14102  1  0  0  0
 15103  1  0  0  0
 16 17  2  0  0  0
 16 21  1  0  0  0
 16 31  1  0  0  0
 17 18  1  0  0  0
 17104  1  0  0  0
 18 19  2  0  0  0
 18105  1  0  0  0
 19 20  1  0  0  0
 19 24  1  0  0  0
 20 21  2  0  0  0
 20106  1  0  0  0
 21 23  1  0  0  0
 22 28  1  0  0  0
 22 32  2  0  0  0
 26 27  1  0  0  0
 28107  1  0  0  0
 28108  1  0  0  0
 29109  1  0  0  0
 29110  1  0  0  0
 33 34  1  0  0  0
 33 66  1  0  0  0
 33 70  2  0  0  0
 34 36  1  0  0  0
 34 59  1  0  0  0
 34111  1  0  0  0
 35 44  2  0  0  0
 35 45  1  0  0  0
 35 68  1  0  0  0
 36 56  1  0  0  0
 36112  1  0  0  0
 37 39  1  0  0  0
 37 47  1  0  0  0
 37 66  1  0  0  0
 37113  1  0  0  0
 38 43  2  0  0  0
 38 46  1  0  0  0
 38 47  1  0  0  0
 39 64  1  0  0  0
 39 67  2  0  0  0
 40 52  1  0  0  0
 40 53  2  0  0  0
 40 58  1  0  0  0
 41114  1  0  0  0
 41115  1  0  0  0
 41116  1  0  0  0
 41 48  1  0  0  0
 42 43  1  0  0  0
 42 66  1  0  0  0
 42117  1  0  0  0
 42118  1  0  0  0
 43 44  1  0  0  0
 44119  1  0  0  0
 45 46  2  0  0  0
 45120  1  0  0  0
 46121  1  0  0  0
 47122  1  0  0  0
 47123  1  0  0  0
 48 56  1  0  0  0
 48 65  1  0  0  0
 48124  1  0  0  0
 49 50  1  0  0  0
 49 53  1  0  0  0
 49 64  1  0  0  0
 49125  1  0  0  0
 50 51  1  0  0  0
 50126  1  0  0  0
 50127  1  0  0  0
 51 52  1  0  0  0
 51128  1  0  0  0
 51129  1  0  0  0
 52130  1  0  0  0
 52131  1  0  0  0
 53 54  1  0  0  0
 54 55  2  0  0  0
 54132  1  0  0  0
 55 57  1  0  0  0
 55133  1  0  0  0
 56 69  2  0  0  0
 57 58  2  0  0  0
 57134  1  0  0  0
 58135  1  0  0  0
 59 60  1  0  0  0
 59 61  1  0  0  0
 59 62  1  0  0  0
 60136  1  0  0  0
 60137  1  0  0  0
 60138  1  0  0  0
 61139  1  0  0  0
 61140  1  0  0  0
 61141  1  0  0  0
 62142  1  0  0  0
 62143  1  0  0  0
 62144  1  0  0  0
 63 65  1  0  0  0
 63145  1  0  0  0
 63146  1  0  0  0
 63147  1  0  0  0
 64148  1  0  0  0
 65149  1  0  0  0
 68 86  1  0  0  0
 71 72  2  0  0  0
 71 76  1  0  0  0
 71150  1  0  0  0
 72 78  1  0  0  0
 72151  1  0  0  0
 73 75  1  0  0  0
 73 76  2  0  0  0
 73152  1  0  0  0
 74 77  1  0  0  0
 74 87  2  0  0  0
 74153  1  0  0  0
 75 78  2  0  0  0
 75 79  1  0  0  0
 76 86  1  0  0  0
 77 79  2  0  0  0
 77 85  1  0  0  0
 78 87  1  0  0  0
 79 88  1  0  0  0
 80 81  1  0  0  0
 80 82  1  0  0  0
 80154  1  0  0  0
 80155  1  0  0  0
 81 88  1  0  0  0
 81156  1  0  0  0
 81157  1  0  0  0
 82 90  1  0  0  0
 82158  1  0  0  0
 82159  1  0  0  0
 83 84  1  0  0  0
 83 88  1  0  0  0
 83 90  1  0  0  0
 83160  1  0  0  0
 84161  1  0  0  0
 84162  1  0  0  0
 84163  1  0  0  0
 85 89  1  0  0  0
 85164  1  0  0  0
 85165  1  0  0  0
 86166  1  0  0  0
 86167  1  0  0  0
 87168  1  0  0  0
 89169  1  0  0  0
 90170  1  0  0  0
 90171  1  0  0  0
M  CHG  2  87   1  90   1
M  ISO  4   1 100  68 101  86 101  89 100
M  END
> <chiral flag>
0

> <version>
0

> <s_m_source_file>
/data/baiqing/PycharmProjects/Reinvent-master-3.2/result/LINK_invent/BTK/process_docking_weight1_custom_sum_contain_oxygen_bond_distance_aromatic_linkinvent_7_9_3/rearranged_h_0124.sdf

> <i_m_source_file_index>
69

> <r_mmod_Potential_Energy-OPLS-2005>
6.78189611434937

> <r_mmod_Stretch_Energy-OPLS-2005>
124.864181518555

> <r_mmod_Bend_Energy-OPLS-2005>
180.072006225586

> <r_mmod_Torsional_Energy-OPLS-2005>
270.003479003906

> <r_mmod_Improper_Torsional_Energy-OPLS-2005>
8.43286895751953

> <r_mmod_Van_der_Waal_Energy-OPLS-2005>
152.337829589844

> <r_mmod_Electrostatic_Energy-OPLS-2005>
78.5056304931641

> <r_mmod_Solvation_Energy-OPLS-2005>
-888.413269042969

> <b_mmod_Minimization_Converged-OPLS-2005>
0

> <r_mmod_RMS_Derivative-OPLS-2005>
0.90041720867157

$$$$
69
                    3D
 Structure written by MMmdl.
162171  0  0  1  0            999 V2000
  -30.6303  -14.7123   20.4772 C   0  0  0  0  0  0
  -30.4318  -12.4393   19.4756 C   0  0  0  0  0  0
  -29.5135  -12.5062   18.2358 C   0  0  0  0  0  0
  -28.0375  -12.3378   18.6466 C   0  0  0  0  0  0
  -27.6452  -13.2321   19.8542 C   0  0  2  0  0  0
  -28.6882  -13.1507   20.9904 C   0  0  0  0  0  0
  -25.2534  -13.8198   20.5722 C   0  0  0  0  0  0
  -24.1820  -13.0436   20.9225 C   0  0  0  0  0  0
  -24.6417  -11.6920   20.8747 C   0  0  0  0  0  0
  -23.9082  -10.4296   21.0401 C   0  0  0  0  0  0
  -24.3634   -9.4214   21.9184 C   0  0  0  0  0  0
  -23.6311   -8.2243   22.0739 C   0  0  0  0  0  0
  -22.4290   -8.0283   21.3533 C   0  0  0  0  0  0
  -21.9927   -9.0257   20.4633 C   0  0  0  0  0  0
  -22.7249  -10.2144   20.3051 C   0  0  0  0  0  0
  -21.6855   -6.0744   22.5286 C   0  0  0  0  0  0
  -21.4010   -6.5641   23.8221 C   0  0  0  0  0  0
  -21.3662   -5.6791   24.9184 C   0  0  0  0  0  0
  -21.6054   -4.3053   24.7227 C   0  0  0  0  0  0
  -21.8818   -3.8146   23.4346 C   0  0  0  0  0  0
  -21.9196   -4.6968   22.3406 C   0  0  0  0  0  0
  -22.7842  -13.5219   21.1885 C   0  0  0  0  0  0
  -22.1665   -4.2163   21.0981 F   0  0  0  0  0  0
  -21.5634   -3.4530   25.7733 F   0  0  0  0  0  0
  -29.9935  -13.4953   20.4153 N   0  0  0  0  0  0
  -26.2962  -12.9408   20.3296 N   0  0  0  0  0  0
  -25.9349  -11.6550   20.5749 N   0  0  0  0  0  0
  -22.0489  -12.8193   22.0436 N   0  0  0  0  0  0
  -25.4171  -15.1925   20.4152 N   0  0  0  0  0  0
  -31.8070  -14.8106   20.1194 O   0  0  0  0  0  0
  -21.6635   -6.8890   21.4248 O   0  0  0  0  0  0
  -22.3522  -14.5527   20.6745 O   0  0  0  0  0  0
  -24.6287  -31.8574   23.2013 C   0  0  0  0  0  0
  -25.9113  -32.4764   23.8345 C   0  0  1  0  0  0
  -27.2094  -27.2704   20.1323 C   0  0  0  0  0  0
  -25.5917  -33.8570   24.2267 N   0  0  0  0  0  0
  -23.4251  -30.4833   21.5438 C   0  0  2  0  0  0
  -24.8711  -28.9376   20.1073 C   0  0  0  0  0  0
  -22.7488  -29.4614   22.4909 C   0  0  0  0  0  0
  -18.0292  -28.1375   22.8493 C   0  0  0  0  0  0
  -24.1491  -36.7288   23.2643 C   0  0  0  0  0  0
  -25.9707  -30.7732   21.3821 C   0  0  0  0  0  0
  -26.0417  -29.3990   20.7211 C   0  0  0  0  0  0
  -27.2137  -28.5773   20.7250 C   0  0  0  0  0  0
  -26.0215  -26.8904   19.4640 C   0  0  0  0  0  0
  -24.8647  -27.6899   19.4694 C   0  0  0  0  0  0
  -23.6431  -29.8241   20.1568 C   0  0  0  0  0  0
  -25.4119  -36.3084   24.0332 C   0  0  1  0  0  0
  -20.5892  -28.3693   23.1266 C   0  0  2  0  0  0
  -20.6772  -26.9411   22.5403 C   0  0  0  0  0  0
  -19.5744  -26.6376   21.5207 C   0  0  0  0  0  0
  -18.1927  -26.7919   22.1626 C   0  0  0  0  0  0
  -19.1545  -28.8848   23.2881 C   0  0  0  0  0  0
  -18.9467  -30.1446   23.8907 C   0  0  0  0  0  0
  -17.6467  -30.6582   24.0560 C   0  0  0  0  0  0
  -25.9057  -34.9449   23.5103 C   0  0  0  0  0  0
  -16.5359  -29.9081   23.6321 C   0  0  0  0  0  0
  -16.7280  -28.6489   23.0361 C   0  0  0  0  0  0
  -26.4486  -31.6592   25.0732 C   0  0  0  0  0  0
  -25.3709  -31.3737   26.1454 C   0  0  0  0  0  0
  -27.0325  -30.3008   24.6209 C   0  0  0  0  0  0
  -27.6046  -32.4336   25.7490 C   0  0  0  0  0  0
  -27.5586  -37.1804   24.8468 C   0  0  0  0  0  0
  -21.4196  -29.3050   22.3654 N   0  0  0  0  0  0
  -26.4303  -37.3775   23.9407 N   0  0  0  0  0  0
  -24.6937  -31.0550   22.0985 N   0  0  0  0  0  0
  -23.4195  -28.8142   23.2991 O   0  0  0  0  0  0
  -28.2903  -26.3628   20.2350 O   0  0  0  0  0  0
  -26.5629  -34.8918   22.4676 O   0  0  0  0  0  0
  -23.5435  -32.1394   23.7308 O   0  0  0  0  0  0
  -29.2099  -19.9218   23.2031 C   0  0  0  0  0  0
  -28.9554  -21.0338   22.3893 C   0  0  0  0  0  0
  -29.6506  -18.6825   22.6788 C   0  0  0  0  0  0
  -29.1151  -20.9330   21.0047 C   0  0  0  0  0  0
  -29.7401  -18.5682   21.2526 C   0  0  0  0  0  0
  -30.9519  -16.4990   23.6521 C   0  0  0  0  0  0
  -29.4562  -16.2828   23.8391 C   0  0  0  0  0  0
  -30.0184  -17.6783   23.7688 C   0  0  0  0  0  0
  -29.5538  -22.1174   18.7703 C   0  0  0  0  0  0
  -30.3222  -17.2897   20.4940 C   0  0  0  0  0  0
  -28.9022  -23.7143   20.6637 C   0  0  0  0  0  0
  -28.0510  -24.9015   19.9767 C   0  0  0  0  0  0
  -28.7613  -22.1941   20.0876 C   0  0  2  0  0  0
  -29.4574  -19.6909   20.4715 N   0  0  0  0  0  0
  -29.8879  -15.8472   20.7321 N   0  0  0  0  0  0
  -31.4750  -12.5575   19.1780 H   0  0  0  0  0  0
  -30.3652  -11.4588   19.9493 H   0  0  0  0  0  0
  -29.7938  -11.7293   17.5231 H   0  0  0  0  0  0
  -29.6505  -13.4580   17.7206 H   0  0  0  0  0  0
  -27.8902  -11.2874   18.9011 H   0  0  0  0  0  0
  -27.3820  -12.5356   17.7970 H   0  0  0  0  0  0
  -27.6433  -14.2572   19.4819 H   0  0  0  0  0  0
  -28.7193  -12.1472   21.4162 H   0  0  0  0  0  0
  -28.4258  -13.8239   21.8077 H   0  0  0  0  0  0
  -25.2787   -9.5696   22.4751 H   0  0  0  0  0  0
  -24.0039   -7.4630   22.7450 H   0  0  0  0  0  0
  -21.0862   -8.8760   19.8936 H   0  0  0  0  0  0
  -22.3700  -10.9678   19.6151 H   0  0  0  0  0  0
  -21.1985   -7.6144   23.9730 H   0  0  0  0  0  0
  -21.1495   -6.0515   25.9096 H   0  0  0  0  0  0
  -22.0596   -2.7606   23.2834 H   0  0  0  0  0  0
  -22.4119  -11.9862   22.4828 H   0  0  0  0  0  0
  -21.1093  -13.1184   22.2630 H   0  0  0  0  0  0
  -24.6400  -15.8330   20.5356 H   0  0  0  0  0  0
  -26.2513  -15.6448   20.0636 H   0  0  0  0  0  0
  -26.7175  -32.5413   23.1084 H   0  0  0  0  0  0
  -25.0043  -33.9711   25.0393 H   0  0  0  0  0  0
  -22.7221  -31.3066   21.4015 H   0  0  0  0  0  0
  -23.3760  -35.9613   23.3303 H   0  0  0  0  0  0
  -24.3587  -36.8907   22.2059 H   0  0  0  0  0  0
  -23.7232  -37.6485   23.6663 H   0  0  0  0  0  0
  -26.1120  -31.5369   20.6162 H   0  0  0  0  0  0
  -26.8462  -30.8162   22.0173 H   0  0  0  0  0  0
  -28.1060  -28.9219   21.2292 H   0  0  0  0  0  0
  -25.9470  -25.9486   18.9424 H   0  0  0  0  0  0
  -23.9691  -27.3342   18.9792 H   0  0  0  0  0  0
  -23.7704  -30.6046   19.4055 H   0  0  0  0  0  0
  -22.7605  -29.2615   19.8471 H   0  0  0  0  0  0
  -25.1302  -36.1947   25.0825 H   0  0  0  0  0  0
  -21.0001  -28.3263   24.1380 H   0  0  0  0  0  0
  -20.5646  -26.2309   23.3611 H   0  0  0  0  0  0
  -21.6642  -26.7409   22.1211 H   0  0  0  0  0  0
  -19.6900  -25.6281   21.1241 H   0  0  0  0  0  0
  -19.6673  -27.3179   20.6730 H   0  0  0  0  0  0
  -17.4196  -26.6671   21.4032 H   0  0  0  0  0  0
  -18.0337  -26.0053   22.9016 H   0  0  0  0  0  0
  -19.7945  -30.7255   24.2287 H   0  0  0  0  0  0
  -17.5024  -31.6268   24.5152 H   0  0  0  0  0  0
  -15.5360  -30.2990   23.7630 H   0  0  0  0  0  0
  -15.8682  -28.0802   22.7086 H   0  0  0  0  0  0
  -24.5876  -30.7102   25.7768 H   0  0  0  0  0  0
  -24.8908  -32.2907   26.4887 H   0  0  0  0  0  0
  -25.8021  -30.8896   27.0227 H   0  0  0  0  0  0
  -26.2900  -29.6770   24.1221 H   0  0  0  0  0  0
  -27.3995  -29.7263   25.4723 H   0  0  0  0  0  0
  -27.8786  -30.4279   23.9451 H   0  0  0  0  0  0
  -27.2653  -33.3643   26.2051 H   0  0  0  0  0  0
  -28.3845  -32.6895   25.0304 H   0  0  0  0  0  0
  -28.0722  -31.8478   26.5414 H   0  0  0  0  0  0
  -28.2611  -38.0094   24.7520 H   0  0  0  0  0  0
  -28.1078  -36.2633   24.6296 H   0  0  0  0  0  0
  -27.2307  -37.1449   25.8871 H   0  0  0  0  0  0
  -20.9372  -29.8822   21.6906 H   0  0  0  0  0  0
  -26.0189  -38.2854   24.1402 H   0  0  0  0  0  0
  -29.0881  -20.0495   24.2692 H   0  0  0  0  0  0
  -28.6279  -21.9517   22.8530 H   0  0  0  0  0  0
  -31.4258  -16.2867   22.7034 H   0  0  0  0  0  0
  -31.5780  -16.2747   24.5142 H   0  0  0  0  0  0
  -29.1385  -15.9124   24.8119 H   0  0  0  0  0  0
  -28.8412  -15.9511   23.0097 H   0  0  0  0  0  0
  -30.1085  -18.1958   24.7234 H   0  0  0  0  0  0
  -29.3552  -21.1844   18.2418 H   0  0  0  0  0  0
  -30.6260  -22.1732   18.9622 H   0  0  0  0  0  0
  -29.2905  -22.9275   18.0912 H   0  0  0  0  0  0
  -30.2027  -17.4662   19.4241 H   0  0  0  0  0  0
  -31.4008  -17.3396   20.6480 H   0  0  0  0  0  0
  -28.6156  -23.7338   21.7133 H   0  0  0  0  0  0
  -29.9595  -23.9795   20.6583 H   0  0  0  0  0  0
  -27.0254  -24.6624   20.2558 H   0  0  0  0  0  0
  -28.1064  -24.7760   18.8964 H   0  0  0  0  0  0
  -27.7050  -22.0615   19.8464 H   0  0  0  0  0  0
  -28.9291  -15.7132   21.0111 H   0  0  0  0  0  0
  1 25  1  0  0  0
  1 30  2  0  0  0
  1 85  1  0  0  0
  2  3  1  0  0  0
  2 25  1  0  0  0
  2 86  1  0  0  0
  2 87  1  0  0  0
  3  4  1  0  0  0
  3 88  1  0  0  0
  3 89  1  0  0  0
  4  5  1  0  0  0
  4 90  1  0  0  0
  4 91  1  0  0  0
  5  6  1  0  0  0
  5 26  1  0  0  0
  5 92  1  0  0  0
  6 25  1  0  0  0
  6 93  1  0  0  0
  6 94  1  0  0  0
  7  8  2  0  0  0
  7 26  1  0  0  0
  7 29  1  0  0  0
  8  9  1  0  0  0
  8 22  1  0  0  0
  9 10  1  0  0  0
  9 27  2  0  0  0
 10 11  2  0  0  0
 10 15  1  0  0  0
 11 12  1  0  0  0
 11 95  1  0  0  0
 12 13  2  0  0  0
 12 96  1  0  0  0
 13 14  1  0  0  0
 13 31  1  0  0  0
 14 15  2  0  0  0
 14 97  1  0  0  0
 15 98  1  0  0  0
 16 17  2  0  0  0
 16 21  1  0  0  0
 16 31  1  0  0  0
 17 18  1  0  0  0
 17 99  1  0  0  0
 18 19  2  0  0  0
 18100  1  0  0  0
 19 20  1  0  0  0
 19 24  1  0  0  0
 20 21  2  0  0  0
 20101  1  0  0  0
 21 23  1  0  0  0
 22 28  1  0  0  0
 22 32  2  0  0  0
 26 27  1  0  0  0
 28102  1  0  0  0
 28103  1  0  0  0
 29104  1  0  0  0
 29105  1  0  0  0
 33 34  1  0  0  0
 33 66  1  0  0  0
 33 70  2  0  0  0
 34 36  1  0  0  0
 34 59  1  0  0  0
 34106  1  0  0  0
 35 44  2  0  0  0
 35 45  1  0  0  0
 35 68  1  0  0  0
 36 56  1  0  0  0
 36107  1  0  0  0
 37 39  1  0  0  0
 37 47  1  0  0  0
 37 66  1  0  0  0
 37108  1  0  0  0
 38 43  2  0  0  0
 38 46  1  0  0  0
 38 47  1  0  0  0
 39 64  1  0  0  0
 39 67  2  0  0  0
 40 52  1  0  0  0
 40 53  2  0  0  0
 40 58  1  0  0  0
 41109  1  0  0  0
 41110  1  0  0  0
 41111  1  0  0  0
 41 48  1  0  0  0
 42 43  1  0  0  0
 42 66  1  0  0  0
 42112  1  0  0  0
 42113  1  0  0  0
 43 44  1  0  0  0
 44114  1  0  0  0
 45 46  2  0  0  0
 45115  1  0  0  0
 46116  1  0  0  0
 47117  1  0  0  0
 47118  1  0  0  0
 48 56  1  0  0  0
 48 65  1  0  0  0
 48119  1  0  0  0
 49 50  1  0  0  0
 49 53  1  0  0  0
 49 64  1  0  0  0
 49120  1  0  0  0
 50 51  1  0  0  0
 50121  1  0  0  0
 50122  1  0  0  0
 51 52  1  0  0  0
 51123  1  0  0  0
 51124  1  0  0  0
 52125  1  0  0  0
 52126  1  0  0  0
 53 54  1  0  0  0
 54 55  2  0  0  0
 54127  1  0  0  0
 55 57  1  0  0  0
 55128  1  0  0  0
 56 69  2  0  0  0
 57 58  2  0  0  0
 57129  1  0  0  0
 58130  1  0  0  0
 59 60  1  0  0  0
 59 61  1  0  0  0
 59 62  1  0  0  0
 60131  1  0  0  0
 60132  1  0  0  0
 60133  1  0  0  0
 61134  1  0  0  0
 61135  1  0  0  0
 61136  1  0  0  0
 62137  1  0  0  0
 62138  1  0  0  0
 62139  1  0  0  0
 63 65  1  0  0  0
 63140  1  0  0  0
 63141  1  0  0  0
 63142  1  0  0  0
 64143  1  0  0  0
 65144  1  0  0  0
 68 82  1  0  0  0
 71 72  2  0  0  0
 71 73  1  0  0  0
 71145  1  0  0  0
 72 74  1  0  0  0
 72146  1  0  0  0
 73 75  2  0  0  0
 73 78  1  0  0  0
 74 83  1  0  0  0
 74 84  2  0  0  0
 75 80  1  0  0  0
 75 84  1  0  0  0
 76 77  1  0  0  0
 76 78  1  0  0  0
 76147  1  0  0  0
 76148  1  0  0  0
 77 78  1  0  0  0
 77149  1  0  0  0
 77150  1  0  0  0
 78151  1  0  0  0
 79152  1  0  0  0
 79153  1  0  0  0
 79154  1  0  0  0
 79 83  1  0  0  0
 80 85  1  0  0  0
 80155  1  0  0  0
 80156  1  0  0  0
 81 82  1  0  0  0
 81 83  1  0  0  0
 81157  1  0  0  0
 81158  1  0  0  0
 82159  1  0  0  0
 82160  1  0  0  0
 83161  1  0  0  0
 85162  1  0  0  0
M  ISO  4   1 100  68 101  82 101  85 100
M  END
> <chiral flag>
0

> <version>
0

> <s_m_source_file>
/data/baiqing/PycharmProjects/Reinvent-master-3.2/result/LINK_invent/BTK/process_docking_weight1_custom_sum_contain_oxygen_bond_distance_aromatic_linkinvent_7_9_3/rearranged_h_0124.sdf

> <i_m_source_file_index>
70

> <r_mmod_Potential_Energy-OPLS-2005>
-56.2797393798828

> <r_mmod_Stretch_Energy-OPLS-2005>
123.578758239746

> <r_mmod_Bend_Energy-OPLS-2005>
187.340469360352

> <r_mmod_Torsional_Energy-OPLS-2005>
239.413879394531

> <r_mmod_Improper_Torsional_Energy-OPLS-2005>
5.93468427658081

> <r_mmod_Van_der_Waal_Energy-OPLS-2005>
152.765991210938

> <r_mmod_Electrostatic_Energy-OPLS-2005>
-632.660705566406

> <r_mmod_Solvation_Energy-OPLS-2005>
-211.635391235352

> <b_mmod_Minimization_Converged-OPLS-2005>
0

> <r_mmod_RMS_Derivative-OPLS-2005>
1.91489052772522

$$$$
70
                    3D
 Structure written by MMmdl.
162170  0  0  1  0            999 V2000
  -30.6489  -14.4494   20.4858 C   0  0  0  0  0  0
  -30.4281  -12.2698   19.3776 C   0  0  0  0  0  0
  -29.4763  -12.4708   18.1731 C   0  0  0  0  0  0
  -27.9995  -12.3323   18.5961 C   0  0  0  0  0  0
  -27.6601  -13.1640   19.8631 C   0  0  2  0  0  0
  -28.7207  -12.9209   20.9676 C   0  0  0  0  0  0
  -25.2647  -13.8072   20.5660 C   0  0  0  0  0  0
  -24.1837  -13.0397   20.9259 C   0  0  0  0  0  0
  -24.6318  -11.6858   20.8768 C   0  0  0  0  0  0
  -23.8957  -10.4260   21.0441 C   0  0  0  0  0  0
  -24.3530   -9.4190   21.9216 C   0  0  0  0  0  0
  -23.6228   -8.2199   22.0741 C   0  0  0  0  0  0
  -22.4232   -8.0242   21.3524 C   0  0  0  0  0  0
  -21.9851   -9.0208   20.4631 C   0  0  0  0  0  0
  -22.7145  -10.2114   20.3083 C   0  0  0  0  0  0
  -21.6844   -6.0703   22.5266 C   0  0  0  0  0  0
  -21.4000   -6.5608   23.8197 C   0  0  0  0  0  0
  -21.3649   -5.6772   24.9166 C   0  0  0  0  0  0
  -21.6073   -4.3038   24.7235 C   0  0  0  0  0  0
  -21.8808   -3.8115   23.4353 C   0  0  0  0  0  0
  -21.9181   -4.6921   22.3404 C   0  0  0  0  0  0
  -22.7890  -13.5249   21.1904 C   0  0  0  0  0  0
  -22.1662   -4.2103   21.0988 F   0  0  0  0  0  0
  -21.5630   -3.4535   25.7750 F   0  0  0  0  0  0
  -30.0404  -13.2419   20.4027 N   0  0  0  0  0  0
  -26.2989  -12.9089   20.3342 N   0  0  0  0  0  0
  -25.9228  -11.6313   20.5800 N   0  0  0  0  0  0
  -22.0464  -12.8265   22.0428 N   0  0  0  0  0  0
  -25.4449  -15.1718   20.3880 N   0  0  0  0  0  0
  -31.7940  -14.6792   20.0864 O   0  0  0  0  0  0
  -21.6611   -6.8826   21.4223 O   0  0  0  0  0  0
  -22.3637  -14.5601   20.6768 O   0  0  0  0  0  0
  -24.6102  -31.8729   23.2160 C   0  0  0  0  0  0
  -25.9022  -32.4871   23.8457 C   0  0  1  0  0  0
  -27.1862  -27.4273   20.1164 C   0  0  0  0  0  0
  -25.5829  -33.8672   24.2360 N   0  0  0  0  0  0
  -23.3974  -30.5065   21.5499 C   0  0  2  0  0  0
  -24.8354  -28.9848   20.1017 C   0  0  0  0  0  0
  -22.7393  -29.4767   22.4943 C   0  0  0  0  0  0
  -18.0348  -28.1319   22.8562 C   0  0  0  0  0  0
  -24.1453  -36.7325   23.2652 C   0  0  0  0  0  0
  -25.9274  -30.8434   21.3638 C   0  0  0  0  0  0
  -25.9958  -29.4823   20.7068 C   0  0  0  0  0  0
  -27.1776  -28.7052   20.7133 C   0  0  0  0  0  0
  -26.0190  -26.9595   19.4746 C   0  0  0  0  0  0
  -24.8440  -27.7312   19.4751 C   0  0  0  0  0  0
  -23.5968  -29.8444   20.1624 C   0  0  0  0  0  0
  -25.4091  -36.3161   24.0365 C   0  0  1  0  0  0
  -20.5931  -28.3753   23.1417 C   0  0  2  0  0  0
  -20.6957  -26.9390   22.5814 C   0  0  0  0  0  0
  -19.6041  -26.6291   21.5486 C   0  0  0  0  0  0
  -18.2075  -26.7867   22.1680 C   0  0  0  0  0  0
  -19.1576  -28.8867   23.2865 C   0  0  0  0  0  0
  -18.9571  -30.1570   23.8750 C   0  0  0  0  0  0
  -17.6599  -30.6692   24.0462 C   0  0  0  0  0  0
  -25.9059  -34.9519   23.5186 C   0  0  0  0  0  0
  -16.5472  -29.9158   23.6317 C   0  0  0  0  0  0
  -16.7328  -28.6527   23.0442 C   0  0  0  0  0  0
  -26.4449  -31.6611   25.0790 C   0  0  0  0  0  0
  -25.3713  -31.3665   26.1544 C   0  0  0  0  0  0
  -27.0291  -30.3057   24.6125 C   0  0  0  0  0  0
  -27.6055  -32.4302   25.7516 C   0  0  0  0  0  0
  -27.5582  -37.1817   24.8469 C   0  0  0  0  0  0
  -21.4102  -29.3037   22.3684 N   0  0  0  0  0  0
  -26.4281  -37.3836   23.9438 N   0  0  0  0  0  0
  -24.6627  -31.0901   22.1004 N   0  0  0  0  0  0
  -23.4223  -28.8398   23.3015 O   0  0  0  0  0  0
  -28.2955  -26.6142   20.2013 O   0  0  0  0  0  0
  -26.5622  -34.8967   22.4746 O   0  0  0  0  0  0
  -23.5302  -32.1457   23.7577 O   0  0  0  0  0  0
  -26.9486  -21.9412   19.0586 C   0  0  0  0  0  0
  -27.4874  -22.2770   21.5554 C   0  0  0  0  0  0
  -26.7398  -20.4720   19.4965 C   0  0  0  0  0  0
  -28.4340  -21.0924   21.3510 C   0  0  0  0  0  0
  -27.0884  -22.9630   20.2257 C   0  0  1  0  0  0
  -27.7084  -19.9590   20.5981 C   0  0  2  0  0  0
  -27.9953  -24.1601   19.8183 C   0  0  0  0  0  0
  -29.9850  -16.8621   20.4616 C   0  0  0  0  0  0
  -28.6904  -17.6645   20.7270 C   0  0  0  0  0  0
  -28.0114  -25.3373   20.8153 C   0  0  0  0  0  0
  -29.7991  -15.4460   20.7795 N   0  0  0  0  0  0
  -28.6978  -18.9970   20.0706 N   0  3  0  0  0  0
  -31.4744  -12.3698   19.0750 H   0  0  0  0  0  0
  -30.3334  -11.2535   19.7700 H   0  0  0  0  0  0
  -29.7040  -11.7452   17.3895 H   0  0  0  0  0  0
  -29.6335  -13.4571   17.7280 H   0  0  0  0  0  0
  -27.7963  -11.2746   18.7776 H   0  0  0  0  0  0
  -27.3423  -12.6277   17.7755 H   0  0  0  0  0  0
  -27.7098  -14.2111   19.5660 H   0  0  0  0  0  0
  -28.7079  -11.8709   21.2628 H   0  0  0  0  0  0
  -28.5091  -13.4726   21.8838 H   0  0  0  0  0  0
  -25.2657   -9.5680   22.4831 H   0  0  0  0  0  0
  -23.9943   -7.4586   22.7441 H   0  0  0  0  0  0
  -21.0800   -8.8684   19.8942 H   0  0  0  0  0  0
  -22.3557  -10.9644   19.6213 H   0  0  0  0  0  0
  -21.1994   -7.6121   23.9683 H   0  0  0  0  0  0
  -21.1498   -6.0516   25.9066 H   0  0  0  0  0  0
  -22.0609   -2.7578   23.2869 H   0  0  0  0  0  0
  -22.3956  -11.9899   22.4849 H   0  0  0  0  0  0
  -21.1097  -13.1320   22.2604 H   0  0  0  0  0  0
  -24.6593  -15.8086   20.4326 H   0  0  0  0  0  0
  -26.2191  -15.5420   19.8523 H   0  0  0  0  0  0
  -26.7104  -32.5599   23.1228 H   0  0  0  0  0  0
  -24.9921  -33.9761   25.0472 H   0  0  0  0  0  0
  -22.6885  -31.3233   21.4159 H   0  0  0  0  0  0
  -23.3769  -35.9602   23.3318 H   0  0  0  0  0  0
  -24.3562  -36.8915   22.2064 H   0  0  0  0  0  0
  -23.7146  -37.6514   23.6664 H   0  0  0  0  0  0
  -26.0540  -31.6037   20.5889 H   0  0  0  0  0  0
  -26.8160  -30.8846   21.9855 H   0  0  0  0  0  0
  -28.0643  -29.0639   21.2145 H   0  0  0  0  0  0
  -25.9980  -25.9879   18.9988 H   0  0  0  0  0  0
  -23.9563  -27.3549   18.9889 H   0  0  0  0  0  0
  -23.6728  -30.6236   19.4033 H   0  0  0  0  0  0
  -22.7258  -29.2505   19.8829 H   0  0  0  0  0  0
  -25.1266  -36.2065   25.0860 H   0  0  0  0  0  0
  -21.0025  -28.3739   24.1545 H   0  0  0  0  0  0
  -20.5947  -26.2441   23.4142 H   0  0  0  0  0  0
  -21.6801  -26.7499   22.1602 H   0  0  0  0  0  0
  -19.7145  -27.2958   20.6891 H   0  0  0  0  0  0
  -19.7385  -25.6228   21.1691 H   0  0  0  0  0  0
  -17.4590  -26.6917   21.3836 H   0  0  0  0  0  0
  -18.0187  -25.9905   22.8887 H   0  0  0  0  0  0
  -19.8145  -30.7419   24.1886 H   0  0  0  0  0  0
  -17.5212  -31.6456   24.4886 H   0  0  0  0  0  0
  -15.5504  -30.3182   23.7564 H   0  0  0  0  0  0
  -15.8679  -28.0998   22.7107 H   0  0  0  0  0  0
  -24.5920  -30.6957   25.7885 H   0  0  0  0  0  0
  -24.8873  -32.2791   26.5039 H   0  0  0  0  0  0
  -25.8082  -30.8823   27.0273 H   0  0  0  0  0  0
  -26.2807  -29.6802   24.1219 H   0  0  0  0  0  0
  -27.4110  -29.7320   25.4578 H   0  0  0  0  0  0
  -27.8643  -30.4445   23.9248 H   0  0  0  0  0  0
  -27.2724  -33.3581   26.2151 H   0  0  0  0  0  0
  -28.3821  -32.6805   25.0300 H   0  0  0  0  0  0
  -28.0768  -31.8380   26.5342 H   0  0  0  0  0  0
  -28.2636  -38.0080   24.7599 H   0  0  0  0  0  0
  -28.1032  -36.2646   24.6222 H   0  0  0  0  0  0
  -27.2331  -37.1426   25.8868 H   0  0  0  0  0  0
  -20.9161  -29.8719   21.6967 H   0  0  0  0  0  0
  -26.0196  -38.2932   24.1412 H   0  0  0  0  0  0
  -26.1024  -22.2294   18.4318 H   0  0  0  0  0  0
  -27.8213  -21.9849   18.4052 H   0  0  0  0  0  0
  -27.9110  -22.9894   22.2627 H   0  0  0  0  0  0
  -26.5889  -21.8895   22.0388 H   0  0  0  0  0  0
  -26.7445  -19.8171   18.6244 H   0  0  0  0  0  0
  -25.7286  -20.3865   19.8842 H   0  0  0  0  0  0
  -28.7844  -20.7228   22.3217 H   0  0  0  0  0  0
  -29.3093  -21.4278   20.8035 H   0  0  0  0  0  0
  -26.0920  -23.3823   20.3928 H   0  0  0  0  0  0
  -27.0760  -19.4367   21.3140 H   0  0  0  0  0  0
  -27.6533  -24.5246   18.8501 H   0  0  0  0  0  0
  -29.0187  -23.8278   19.6335 H   0  0  0  0  0  0
  -30.2801  -16.9584   19.4161 H   0  0  0  0  0  0
  -30.8077  -17.2517   21.0777 H   0  0  0  0  0  0
  -28.5754  -17.7893   21.8088 H   0  0  0  0  0  0
  -27.8230  -17.1118   20.3692 H   0  0  0  0  0  0
  -28.7632  -25.1496   21.5815 H   0  0  0  0  0  0
  -27.0603  -25.3636   21.3576 H   0  0  0  0  0  0
  -28.8554  -15.1395   20.9754 H   0  0  0  0  0  0
  -29.6018  -19.4193   20.1610 H   0  0  0  0  0  0
  -28.5085  -18.8832   19.0871 H   0  0  0  0  0  0
  1 25  1  0  0  0
  1 30  2  0  0  0
  1 81  1  0  0  0
  2  3  1  0  0  0
  2 25  1  0  0  0
  2 83  1  0  0  0
  2 84  1  0  0  0
  3  4  1  0  0  0
  3 85  1  0  0  0
  3 86  1  0  0  0
  4  5  1  0  0  0
  4 87  1  0  0  0
  4 88  1  0  0  0
  5  6  1  0  0  0
  5 26  1  0  0  0
  5 89  1  0  0  0
  6 25  1  0  0  0
  6 90  1  0  0  0
  6 91  1  0  0  0
  7  8  2  0  0  0
  7 26  1  0  0  0
  7 29  1  0  0  0
  8  9  1  0  0  0
  8 22  1  0  0  0
  9 10  1  0  0  0
  9 27  2  0  0  0
 10 11  2  0  0  0
 10 15  1  0  0  0
 11 12  1  0  0  0
 11 92  1  0  0  0
 12 13  2  0  0  0
 12 93  1  0  0  0
 13 14  1  0  0  0
 13 31  1  0  0  0
 14 15  2  0  0  0
 14 94  1  0  0  0
 15 95  1  0  0  0
 16 17  2  0  0  0
 16 21  1  0  0  0
 16 31  1  0  0  0
 17 18  1  0  0  0
 17 96  1  0  0  0
 18 19  2  0  0  0
 18 97  1  0  0  0
 19 20  1  0  0  0
 19 24  1  0  0  0
 20 21  2  0  0  0
 20 98  1  0  0  0
 21 23  1  0  0  0
 22 28  1  0  0  0
 22 32  2  0  0  0
 26 27  1  0  0  0
 28 99  1  0  0  0
 28100  1  0  0  0
 29101  1  0  0  0
 29102  1  0  0  0
 33 34  1  0  0  0
 33 66  1  0  0  0
 33 70  2  0  0  0
 34 36  1  0  0  0
 34 59  1  0  0  0
 34103  1  0  0  0
 35 44  2  0  0  0
 35 45  1  0  0  0
 35 68  1  0  0  0
 36 56  1  0  0  0
 36104  1  0  0  0
 37 39  1  0  0  0
 37 47  1  0  0  0
 37 66  1  0  0  0
 37105  1  0  0  0
 38 43  2  0  0  0
 38 46  1  0  0  0
 38 47  1  0  0  0
 39 64  1  0  0  0
 39 67  2  0  0  0
 40 52  1  0  0  0
 40 53  2  0  0  0
 40 58  1  0  0  0
 41106  1  0  0  0
 41107  1  0  0  0
 41108  1  0  0  0
 41 48  1  0  0  0
 42 43  1  0  0  0
 42 66  1  0  0  0
 42109  1  0  0  0
 42110  1  0  0  0
 43 44  1  0  0  0
 44111  1  0  0  0
 45 46  2  0  0  0
 45112  1  0  0  0
 46113  1  0  0  0
 47114  1  0  0  0
 47115  1  0  0  0
 48 56  1  0  0  0
 48 65  1  0  0  0
 48116  1  0  0  0
 49 50  1  0  0  0
 49 53  1  0  0  0
 49 64  1  0  0  0
 49117  1  0  0  0
 50 51  1  0  0  0
 50118  1  0  0  0
 50119  1  0  0  0
 51 52  1  0  0  0
 51120  1  0  0  0
 51121  1  0  0  0
 52122  1  0  0  0
 52123  1  0  0  0
 53 54  1  0  0  0
 54 55  2  0  0  0
 54124  1  0  0  0
 55 57  1  0  0  0
 55125  1  0  0  0
 56 69  2  0  0  0
 57 58  2  0  0  0
 57126  1  0  0  0
 58127  1  0  0  0
 59 60  1  0  0  0
 59 61  1  0  0  0
 59 62  1  0  0  0
 60128  1  0  0  0
 60129  1  0  0  0
 60130  1  0  0  0
 61131  1  0  0  0
 61132  1  0  0  0
 61133  1  0  0  0
 62134  1  0  0  0
 62135  1  0  0  0
 62136  1  0  0  0
 63 65  1  0  0  0
 63137  1  0  0  0
 63138  1  0  0  0
 63139  1  0  0  0
 64140  1  0  0  0
 65141  1  0  0  0
 68 80  1  0  0  0
 71 73  1  0  0  0
 71 75  1  0  0  0
 71142  1  0  0  0
 71143  1  0  0  0
 72 74  1  0  0  0
 72 75  1  0  0  0
 72144  1  0  0  0
 72145  1  0  0  0
 73 76  1  0  0  0
 73146  1  0  0  0
 73147  1  0  0  0
 74 76  1  0  0  0
 74148  1  0  0  0
 74149  1  0  0  0
 75 77  1  0  0  0
 75150  1  0  0  0
 76 82  1  0  0  0
 76151  1  0  0  0
 77 80  1  0  0  0
 77152  1  0  0  0
 77153  1  0  0  0
 78 79  1  0  0  0
 78 81  1  0  0  0
 78154  1  0  0  0
 78155  1  0  0  0
 79 82  1  0  0  0
 79156  1  0  0  0
 79157  1  0  0  0
 80158  1  0  0  0
 80159  1  0  0  0
 81160  1  0  0  0
 82161  1  0  0  0
 82162  1  0  0  0
M  CHG  1  82   1
M  ISO  4   1 100  68 101  80 101  81 100
M  END
> <chiral flag>
0

> <version>
0

> <s_m_source_file>
/data/baiqing/PycharmProjects/Reinvent-master-3.2/result/LINK_invent/BTK/process_docking_weight1_custom_sum_contain_oxygen_bond_distance_aromatic_linkinvent_7_9_3/rearranged_h_0124.sdf

> <i_m_source_file_index>
71

> <r_mmod_Potential_Energy-OPLS-2005>
-151.747695922852

> <r_mmod_Stretch_Energy-OPLS-2005>
36.219352722168

> <r_mmod_Bend_Energy-OPLS-2005>
92.451171875

> <r_mmod_Torsional_Energy-OPLS-2005>
303.377746582031

> <r_mmod_Improper_Torsional_Energy-OPLS-2005>
9.34736919403076

> <r_mmod_Van_der_Waal_Energy-OPLS-2005>
140.867904663086

> <r_mmod_Electrostatic_Energy-OPLS-2005>
-280.941192626953

> <r_mmod_Solvation_Energy-OPLS-2005>
-476.450531005859

> <b_mmod_Minimization_Converged-OPLS-2005>
0

> <r_mmod_RMS_Derivative-OPLS-2005>
11.4109668731689

$$$$
71
                    3D
 Structure written by MMmdl.
173182  0  0  1  0            999 V2000
  -30.7432  -14.3432   20.7628 C   0  0  0  0  0  0
  -30.4433  -12.3159   19.3752 C   0  0  0  0  0  0
  -29.4826  -12.5539   18.1897 C   0  0  0  0  0  0
  -28.0067  -12.4119   18.6048 C   0  0  0  0  0  0
  -27.6783  -13.1994   19.8998 C   0  0  2  0  0  0
  -28.7174  -12.8715   20.9935 C   0  0  0  0  0  0
  -25.2659  -13.8156   20.5762 C   0  0  0  0  0  0
  -24.1881  -13.0441   20.9161 C   0  0  0  0  0  0
  -24.6427  -11.6891   20.8763 C   0  0  0  0  0  0
  -23.9124  -10.4286   21.0428 C   0  0  0  0  0  0
  -24.3646   -9.4179   21.9196 C   0  0  0  0  0  0
  -23.6316   -8.2205   22.0782 C   0  0  0  0  0  0
  -22.4285   -8.0285   21.3580 C   0  0  0  0  0  0
  -21.9947   -9.0250   20.4670 C   0  0  0  0  0  0
  -22.7303  -10.2118   20.3076 C   0  0  0  0  0  0
  -21.6830   -6.0756   22.5330 C   0  0  0  0  0  0
  -21.3978   -6.5655   23.8262 C   0  0  0  0  0  0
  -21.3657   -5.6821   24.9232 C   0  0  0  0  0  0
  -21.6036   -4.3078   24.7272 C   0  0  0  0  0  0
  -21.8802   -3.8175   23.4385 C   0  0  0  0  0  0
  -21.9162   -4.6995   22.3451 C   0  0  0  0  0  0
  -22.7897  -13.5222   21.1831 C   0  0  0  0  0  0
  -22.1649   -4.2162   21.1031 F   0  0  0  0  0  0
  -21.5663   -3.4555   25.7773 F   0  0  0  0  0  0
  -30.0680  -13.1970   20.4881 N   0  0  0  0  0  0
  -26.3119  -12.9323   20.3506 N   0  0  0  0  0  0
  -25.9371  -11.6494   20.5846 N   0  0  0  0  0  0
  -22.0489  -12.8289   22.0417 N   0  0  0  0  0  0
  -25.4476  -15.1901   20.4363 N   0  0  0  0  0  0
  -31.6645  -14.7895   20.0746 O   0  0  0  0  0  0
  -21.6628   -6.8887   21.4289 O   0  0  0  0  0  0
  -22.3599  -14.5500   20.6623 O   0  0  0  0  0  0
  -24.6095  -31.8706   23.2063 C   0  0  0  0  0  0
  -25.9010  -32.4834   23.8340 C   0  0  1  0  0  0
  -27.2524  -27.4743   20.0849 C   0  0  0  0  0  0
  -25.5852  -33.8624   24.2274 N   0  0  0  0  0  0
  -23.3964  -30.4873   21.5493 C   0  0  2  0  0  0
  -24.8451  -28.9475   20.1250 C   0  0  0  0  0  0
  -22.7378  -29.4673   22.5029 C   0  0  0  0  0  0
  -18.0250  -28.1396   22.8490 C   0  0  0  0  0  0
  -24.1489  -36.7326   23.2634 C   0  0  0  0  0  0
  -25.9181  -30.8444   21.3539 C   0  0  0  0  0  0
  -26.0033  -29.4780   20.7065 C   0  0  0  0  0  0
  -27.2113  -28.7505   20.6787 C   0  0  0  0  0  0
  -26.0775  -26.9369   19.5151 C   0  0  0  0  0  0
  -24.8753  -27.6737   19.5286 C   0  0  0  0  0  0
  -23.6015  -29.8041   20.1689 C   0  0  0  0  0  0
  -25.4108  -36.3105   24.0326 C   0  0  1  0  0  0
  -20.5832  -28.3671   23.1333 C   0  0  2  0  0  0
  -20.6749  -26.9409   22.5427 C   0  0  0  0  0  0
  -19.5745  -26.6404   21.5214 C   0  0  0  0  0  0
  -18.1917  -26.7942   22.1611 C   0  0  0  0  0  0
  -19.1498  -28.8850   23.2913 C   0  0  0  0  0  0
  -18.9435  -30.1458   23.8919 C   0  0  0  0  0  0
  -17.6446  -30.6603   24.0565 C   0  0  0  0  0  0
  -25.9033  -34.9475   23.5116 C   0  0  0  0  0  0
  -16.5335  -29.9102   23.6340 C   0  0  0  0  0  0
  -16.7243  -28.6524   23.0352 C   0  0  0  0  0  0
  -26.4431  -31.6618   25.0682 C   0  0  0  0  0  0
  -25.3672  -31.3731   26.1426 C   0  0  0  0  0  0
  -27.0281  -30.3050   24.6098 C   0  0  0  0  0  0
  -27.6010  -32.4340   25.7455 C   0  0  0  0  0  0
  -27.5582  -37.1805   24.8453 C   0  0  0  0  0  0
  -21.4125  -29.3036   22.3752 N   0  0  0  0  0  0
  -26.4286  -37.3794   23.9413 N   0  0  0  0  0  0
  -24.6584  -31.0821   22.0955 N   0  0  0  0  0  0
  -23.4161  -28.8245   23.3086 O   0  0  0  0  0  0
  -28.4556  -26.8168   20.0128 O   0  0  0  0  0  0
  -26.5632  -34.8928   22.4692 O   0  0  0  0  0  0
  -23.5297  -32.1449   23.7498 O   0  0  0  0  0  0
  -25.1706  -22.8627   24.3308 C   0  0  0  0  0  0
  -26.8883  -21.7205   23.0402 C   0  0  0  0  0  0
  -25.5977  -24.0929   23.7959 C   0  0  0  0  0  0
  -27.3150  -22.9482   22.5116 C   0  0  0  0  0  0
  -25.8498  -21.6741   23.9914 C   0  0  0  0  0  0
  -26.7041  -24.1550   22.9253 C   0  0  0  0  0  0
  -25.0747  -19.2040   23.9095 C   0  0  0  0  0  0
  -26.8265  -20.0552   25.6277 C   0  0  0  0  0  0
  -26.1845  -18.3458   23.2746 C   0  0  0  0  0  0
  -27.2080  -18.5709   25.6549 C   0  0  0  0  0  0
  -25.5842  -20.3892   24.7641 C   0  0  1  0  0  0
  -27.2681  -17.8680   24.2735 C   0  0  2  0  0  0
  -30.2062  -16.3468   22.2100 C   0  0  0  0  0  0
  -28.9261  -16.4949   23.0748 C   0  0  0  0  0  0
  -28.4797  -25.5377   22.0767 C   0  0  0  0  0  0
  -28.5101  -25.4938   20.5399 C   0  0  0  0  0  0
  -30.3441  -14.9220   21.9035 N   0  0  0  0  0  0
  -28.6186  -17.8358   23.6390 N   0  3  0  0  0  0
  -27.1431  -25.4065   22.5547 O   0  0  0  0  0  0
  -31.4742  -12.4881   19.0576 H   0  0  0  0  0  0
  -30.4065  -11.2769   19.6971 H   0  0  0  0  0  0
  -29.7090  -11.8573   17.3827 H   0  0  0  0  0  0
  -29.6493  -13.5503   17.7812 H   0  0  0  0  0  0
  -27.7990  -11.3506   18.7466 H   0  0  0  0  0  0
  -27.3595  -12.7460   17.7908 H   0  0  0  0  0  0
  -27.7570  -14.2627   19.6740 H   0  0  0  0  0  0
  -28.6797  -11.8055   21.2207 H   0  0  0  0  0  0
  -28.4453  -13.3604   21.9277 H   0  0  0  0  0  0
  -25.2780   -9.5593   22.4802 H   0  0  0  0  0  0
  -23.9988   -7.4571   22.7495 H   0  0  0  0  0  0
  -21.0878   -8.8787   19.8961 H   0  0  0  0  0  0
  -22.3799  -10.9664   19.6179 H   0  0  0  0  0  0
  -21.1966   -7.6163   23.9793 H   0  0  0  0  0  0
  -21.1500   -6.0547   25.9134 H   0  0  0  0  0  0
  -22.0567   -2.7640   23.2915 H   0  0  0  0  0  0
  -22.4025  -11.9884   22.4784 H   0  0  0  0  0  0
  -21.1064  -13.1285   22.2497 H   0  0  0  0  0  0
  -24.6938  -15.8629   20.5369 H   0  0  0  0  0  0
  -26.3296  -15.6281   20.2123 H   0  0  0  0  0  0
  -26.7103  -32.5553   23.1126 H   0  0  0  0  0  0
  -24.9901  -33.9755   25.0354 H   0  0  0  0  0  0
  -22.6856  -31.3029   21.4041 H   0  0  0  0  0  0
  -23.3739  -35.9667   23.3298 H   0  0  0  0  0  0
  -24.3551  -36.8966   22.2042 H   0  0  0  0  0  0
  -23.7281  -37.6545   23.6668 H   0  0  0  0  0  0
  -26.0188  -31.6059   20.5782 H   0  0  0  0  0  0
  -26.8116  -30.9061   21.9662 H   0  0  0  0  0  0
  -28.1127  -29.1660   21.1106 H   0  0  0  0  0  0
  -26.1002  -25.9692   19.0355 H   0  0  0  0  0  0
  -23.9856  -27.2617   19.0719 H   0  0  0  0  0  0
  -23.6920  -30.5699   19.3960 H   0  0  0  0  0  0
  -22.7293  -29.2089   19.8928 H   0  0  0  0  0  0
  -25.1288  -36.1943   25.0813 H   0  0  0  0  0  0
  -20.9906  -28.3254   24.1471 H   0  0  0  0  0  0
  -20.5674  -26.2277   23.3614 H   0  0  0  0  0  0
  -21.6624  -26.7483   22.1223 H   0  0  0  0  0  0
  -19.6918  -25.6320   21.1241 H   0  0  0  0  0  0
  -19.6697  -27.3213   20.6747 H   0  0  0  0  0  0
  -17.4185  -26.6690   21.4007 H   0  0  0  0  0  0
  -18.0305  -26.0075   22.8995 H   0  0  0  0  0  0
  -19.7915  -30.7256   24.2311 H   0  0  0  0  0  0
  -17.5006  -31.6285   24.5165 H   0  0  0  0  0  0
  -15.5339  -30.3015   23.7686 H   0  0  0  0  0  0
  -15.8636  -28.0871   22.7060 H   0  0  0  0  0  0
  -24.5844  -30.7095   25.7743 H   0  0  0  0  0  0
  -24.8834  -32.2877   26.4862 H   0  0  0  0  0  0
  -25.7970  -30.8896   27.0208 H   0  0  0  0  0  0
  -26.2852  -29.6813   24.1115 H   0  0  0  0  0  0
  -27.4005  -29.7294   25.4591 H   0  0  0  0  0  0
  -27.8685  -30.4372   23.9277 H   0  0  0  0  0  0
  -27.2650  -33.3648   26.2053 H   0  0  0  0  0  0
  -28.3806  -32.6924   25.0266 H   0  0  0  0  0  0
  -28.0705  -31.8452   26.5359 H   0  0  0  0  0  0
  -28.2597  -38.0112   24.7519 H   0  0  0  0  0  0
  -28.1094  -36.2643   24.6254 H   0  0  0  0  0  0
  -27.2284  -37.1424   25.8852 H   0  0  0  0  0  0
  -20.9305  -29.8680   21.6897 H   0  0  0  0  0  0
  -26.0180  -38.2881   24.1393 H   0  0  0  0  0  0
  -24.3618  -22.8532   25.0491 H   0  0  0  0  0  0
  -27.4262  -20.8272   22.7711 H   0  0  0  0  0  0
  -25.1120  -25.0073   24.1047 H   0  0  0  0  0  0
  -28.1485  -22.9367   21.8243 H   0  0  0  0  0  0
  -24.4945  -18.5530   24.5655 H   0  0  0  0  0  0
  -24.3724  -19.5494   23.1509 H   0  0  0  0  0  0
  -27.6988  -20.6154   25.2905 H   0  0  0  0  0  0
  -26.6514  -20.4138   26.6426 H   0  0  0  0  0  0
  -26.6276  -18.8801   22.4387 H   0  0  0  0  0  0
  -25.7266  -17.4663   22.8198 H   0  0  0  0  0  0
  -26.4407  -18.0670   26.2426 H   0  0  0  0  0  0
  -28.1312  -18.4351   26.2155 H   0  0  0  0  0  0
  -24.7671  -20.6083   25.4544 H   0  0  0  0  0  0
  -27.0278  -16.8324   24.5246 H   0  0  0  0  0  0
  -31.0919  -16.7179   22.7252 H   0  0  0  0  0  0
  -30.0995  -16.9102   21.2809 H   0  0  0  0  0  0
  -28.9862  -15.7977   23.9123 H   0  0  0  0  0  0
  -28.0740  -16.1880   22.4660 H   0  0  0  0  0  0
  -28.8778  -26.4892   22.4325 H   0  0  0  0  0  0
  -29.1439  -24.7858   22.5038 H   0  0  0  0  0  0
  -27.7522  -24.8292   20.1226 H   0  0  0  0  0  0
  -29.4728  -25.0863   20.2273 H   0  0  0  0  0  0
  -29.8200  -14.3025   22.5050 H   0  0  0  0  0  0
  -29.3204  -18.0527   24.3309 H   0  0  0  0  0  0
  -28.6677  -18.5417   22.9225 H   0  0  0  0  0  0
  1 25  1  0  0  0
  1 30  2  0  0  0
  1 87  1  0  0  0
  2  3  1  0  0  0
  2 25  1  0  0  0
  2 90  1  0  0  0
  2 91  1  0  0  0
  3  4  1  0  0  0
  3 92  1  0  0  0
  3 93  1  0  0  0
  4  5  1  0  0  0
  4 94  1  0  0  0
  4 95  1  0  0  0
  5  6  1  0  0  0
  5 26  1  0  0  0
  5 96  1  0  0  0
  6 25  1  0  0  0
  6 97  1  0  0  0
  6 98  1  0  0  0
  7  8  2  0  0  0
  7 26  1  0  0  0
  7 29  1  0  0  0
  8  9  1  0  0  0
  8 22  1  0  0  0
  9 10  1  0  0  0
  9 27  2  0  0  0
 10 11  2  0  0  0
 10 15  1  0  0  0
 11 12  1  0  0  0
 11 99  1  0  0  0
 12 13  2  0  0  0
 12100  1  0  0  0
 13 14  1  0  0  0
 13 31  1  0  0  0
 14 15  2  0  0  0
 14101  1  0  0  0
 15102  1  0  0  0
 16 17  2  0  0  0
 16 21  1  0  0  0
 16 31  1  0  0  0
 17 18  1  0  0  0
 17103  1  0  0  0
 18 19  2  0  0  0
 18104  1  0  0  0
 19 20  1  0  0  0
 19 24  1  0  0  0
 20 21  2  0  0  0
 20105  1  0  0  0
 21 23  1  0  0  0
 22 28  1  0  0  0
 22 32  2  0  0  0
 26 27  1  0  0  0
 28106  1  0  0  0
 28107  1  0  0  0
 29108  1  0  0  0
 29109  1  0  0  0
 33 34  1  0  0  0
 33 66  1  0  0  0
 33 70  2  0  0  0
 34 36  1  0  0  0
 34 59  1  0  0  0
 34110  1  0  0  0
 35 44  2  0  0  0
 35 45  1  0  0  0
 35 68  1  0  0  0
 36 56  1  0  0  0
 36111  1  0  0  0
 37 39  1  0  0  0
 37 47  1  0  0  0
 37 66  1  0  0  0
 37112  1  0  0  0
 38 43  2  0  0  0
 38 46  1  0  0  0
 38 47  1  0  0  0
 39 64  1  0  0  0
 39 67  2  0  0  0
 40 52  1  0  0  0
 40 53  2  0  0  0
 40 58  1  0  0  0
 41113  1  0  0  0
 41114  1  0  0  0
 41115  1  0  0  0
 41 48  1  0  0  0
 42 43  1  0  0  0
 42 66  1  0  0  0
 42116  1  0  0  0
 42117  1  0  0  0
 43 44  1  0  0  0
 44118  1  0  0  0
 45 46  2  0  0  0
 45119  1  0  0  0
 46120  1  0  0  0
 47121  1  0  0  0
 47122  1  0  0  0
 48 56  1  0  0  0
 48 65  1  0  0  0
 48123  1  0  0  0
 49 50  1  0  0  0
 49 53  1  0  0  0
 49 64  1  0  0  0
 49124  1  0  0  0
 50 51  1  0  0  0
 50125  1  0  0  0
 50126  1  0  0  0
 51 52  1  0  0  0
 51127  1  0  0  0
 51128  1  0  0  0
 52129  1  0  0  0
 52130  1  0  0  0
 53 54  1  0  0  0
 54 55  2  0  0  0
 54131  1  0  0  0
 55 57  1  0  0  0
 55132  1  0  0  0
 56 69  2  0  0  0
 57 58  2  0  0  0
 57133  1  0  0  0
 58134  1  0  0  0
 59 60  1  0  0  0
 59 61  1  0  0  0
 59 62  1  0  0  0
 60135  1  0  0  0
 60136  1  0  0  0
 60137  1  0  0  0
 61138  1  0  0  0
 61139  1  0  0  0
 61140  1  0  0  0
 62141  1  0  0  0
 62142  1  0  0  0
 62143  1  0  0  0
 63 65  1  0  0  0
 63144  1  0  0  0
 63145  1  0  0  0
 63146  1  0  0  0
 64147  1  0  0  0
 65148  1  0  0  0
 68 86  1  0  0  0
 71 73  2  0  0  0
 71 75  1  0  0  0
 71149  1  0  0  0
 72 74  1  0  0  0
 72 75  2  0  0  0
 72150  1  0  0  0
 73 76  1  0  0  0
 73151  1  0  0  0
 74 76  2  0  0  0
 74152  1  0  0  0
 75 81  1  0  0  0
 76 89  1  0  0  0
 77 79  1  0  0  0
 77 81  1  0  0  0
 77153  1  0  0  0
 77154  1  0  0  0
 78 80  1  0  0  0
 78 81  1  0  0  0
 78155  1  0  0  0
 78156  1  0  0  0
 79 82  1  0  0  0
 79157  1  0  0  0
 79158  1  0  0  0
 80 82  1  0  0  0
 80159  1  0  0  0
 80160  1  0  0  0
 81161  1  0  0  0
 82 88  1  0  0  0
 82162  1  0  0  0
 83 84  1  0  0  0
 83 87  1  0  0  0
 83163  1  0  0  0
 83164  1  0  0  0
 84 88  1  0  0  0
 84165  1  0  0  0
 84166  1  0  0  0
 85 86  1  0  0  0
 85 89  1  0  0  0
 85167  1  0  0  0
 85168  1  0  0  0
 86169  1  0  0  0
 86170  1  0  0  0
 87171  1  0  0  0
 88172  1  0  0  0
 88173  1  0  0  0
M  CHG  1  88   1
M  ISO  4   1 100  68 101  86 101  87 100
M  END
> <chiral flag>
0

> <version>
0

> <s_m_source_file>
/data/baiqing/PycharmProjects/Reinvent-master-3.2/result/LINK_invent/BTK/process_docking_weight1_custom_sum_contain_oxygen_bond_distance_aromatic_linkinvent_7_9_3/rearranged_h_0124.sdf

> <i_m_source_file_index>
72

> <r_mmod_Potential_Energy-OPLS-2005>
-155.280868530273

> <r_mmod_Stretch_Energy-OPLS-2005>
35.1781883239746

> <r_mmod_Bend_Energy-OPLS-2005>
120.258338928223

> <r_mmod_Torsional_Energy-OPLS-2005>
304.013153076172

> <r_mmod_Improper_Torsional_Energy-OPLS-2005>
3.84918880462646

> <r_mmod_Van_der_Waal_Energy-OPLS-2005>
155.629241943359

> <r_mmod_Electrostatic_Energy-OPLS-2005>
-283.791656494141

> <r_mmod_Solvation_Energy-OPLS-2005>
-503.072937011719

> <b_mmod_Minimization_Converged-OPLS-2005>
0

> <r_mmod_RMS_Derivative-OPLS-2005>
5.31976270675659

$$$$
72
                    3D
 Structure written by MMmdl.
179189  0  0  1  0            999 V2000
  -30.6873  -14.4864   20.5579 C   0  0  0  0  0  0
  -30.4207  -12.3132   19.4251 C   0  0  0  0  0  0
  -29.4915  -12.5052   18.2082 C   0  0  0  0  0  0
  -28.0139  -12.3605   18.6219 C   0  0  0  0  0  0
  -27.6591  -13.2056   19.8743 C   0  0  2  0  0  0
  -28.7012  -12.9983   20.9978 C   0  0  0  0  0  0
  -25.2572  -13.8163   20.5672 C   0  0  0  0  0  0
  -24.1828  -13.0441   20.9177 C   0  0  0  0  0  0
  -24.6381  -11.6904   20.8734 C   0  0  0  0  0  0
  -23.9053  -10.4287   21.0404 C   0  0  0  0  0  0
  -24.3608   -9.4205   21.9181 C   0  0  0  0  0  0
  -23.6283   -8.2242   22.0755 C   0  0  0  0  0  0
  -22.4269   -8.0277   21.3541 C   0  0  0  0  0  0
  -21.9900   -9.0255   20.4649 C   0  0  0  0  0  0
  -22.7221  -10.2133   20.3060 C   0  0  0  0  0  0
  -21.6852   -6.0730   22.5277 C   0  0  0  0  0  0
  -21.4019   -6.5637   23.8209 C   0  0  0  0  0  0
  -21.3658   -5.6790   24.9169 C   0  0  0  0  0  0
  -21.6042   -4.3051   24.7225 C   0  0  0  0  0  0
  -21.8822   -3.8141   23.4347 C   0  0  0  0  0  0
  -21.9194   -4.6956   22.3400 C   0  0  0  0  0  0
  -22.7852  -13.5243   21.1840 C   0  0  0  0  0  0
  -22.1659   -4.2134   21.0979 F   0  0  0  0  0  0
  -21.5629   -3.4541   25.7738 F   0  0  0  0  0  0
  -30.0313  -13.3010   20.4435 N   0  0  0  0  0  0
  -26.3007  -12.9326   20.3365 N   0  0  0  0  0  0
  -25.9308  -11.6489   20.5770 N   0  0  0  0  0  0
  -22.0506  -12.8232   22.0408 N   0  0  0  0  0  0
  -25.4300  -15.1879   20.4049 N   0  0  0  0  0  0
  -31.8201  -14.6722   20.1049 O   0  0  0  0  0  0
  -21.6640   -6.8871   21.4234 O   0  0  0  0  0  0
  -22.3531  -14.5542   20.6672 O   0  0  0  0  0  0
  -24.6154  -31.8672   23.2081 C   0  0  0  0  0  0
  -25.9053  -32.4811   23.8368 C   0  0  1  0  0  0
  -27.2352  -27.4257   20.1093 C   0  0  0  0  0  0
  -25.5897  -33.8610   24.2293 N   0  0  0  0  0  0
  -23.4041  -30.4889   21.5484 C   0  0  2  0  0  0
  -24.8536  -28.9495   20.1182 C   0  0  0  0  0  0
  -22.7408  -29.4653   22.4978 C   0  0  0  0  0  0
  -18.0270  -28.1359   22.8493 C   0  0  0  0  0  0
  -24.1504  -36.7309   23.2629 C   0  0  0  0  0  0
  -25.9326  -30.8283   21.3670 C   0  0  0  0  0  0
  -26.0113  -29.4589   20.7206 C   0  0  0  0  0  0
  -27.2065  -28.7017   20.7210 C   0  0  0  0  0  0
  -26.0671  -26.9345   19.4949 C   0  0  0  0  0  0
  -24.8756  -27.6851   19.5026 C   0  0  0  0  0  0
  -23.6165  -29.8184   20.1638 C   0  0  0  0  0  0
  -25.4119  -36.3109   24.0330 C   0  0  1  0  0  0
  -20.5864  -28.3657   23.1310 C   0  0  2  0  0  0
  -20.6765  -26.9387   22.5424 C   0  0  0  0  0  0
  -19.5752  -26.6357   21.5216 C   0  0  0  0  0  0
  -18.1920  -26.7906   22.1603 C   0  0  0  0  0  0
  -19.1523  -28.8819   23.2909 C   0  0  0  0  0  0
  -18.9457  -30.1422   23.8925 C   0  0  0  0  0  0
  -17.6470  -30.6582   24.0554 C   0  0  0  0  0  0
  -25.9039  -34.9475   23.5115 C   0  0  0  0  0  0
  -16.5357  -29.9093   23.6309 C   0  0  0  0  0  0
  -16.7263  -28.6499   23.0342 C   0  0  0  0  0  0
  -26.4442  -31.6588   25.0714 C   0  0  0  0  0  0
  -25.3678  -31.3769   26.1456 C   0  0  0  0  0  0
  -27.0213  -30.2993   24.6117 C   0  0  0  0  0  0
  -27.6020  -32.4284   25.7495 C   0  0  0  0  0  0
  -27.5597  -37.1814   24.8445 C   0  0  0  0  0  0
  -21.4131  -29.3027   22.3704 N   0  0  0  0  0  0
  -26.4292  -37.3810   23.9417 N   0  0  0  0  0  0
  -24.6685  -31.0764   22.0994 N   0  0  0  0  0  0
  -23.4172  -28.8223   23.3048 O   0  0  0  0  0  0
  -28.3734  -26.6519   20.0599 O   0  0  0  0  0  0
  -26.5609  -34.8933   22.4681 O   0  0  0  0  0  0
  -23.5348  -32.1430   23.7469 O   0  0  0  0  0  0
  -29.1291  -22.3545   22.4629 C   0  0  0  0  0  0
  -28.1425  -22.3152   20.2444 C   0  0  0  0  0  0
  -29.1903  -23.7657   22.4044 C   0  0  0  0  0  0
  -28.2072  -23.7300   20.1886 C   0  0  0  0  0  0
  -28.5869  -21.6106   21.3906 C   0  0  0  0  0  0
  -28.7166  -24.4740   21.2766 C   0  0  0  0  0  0
  -27.3867  -17.5428   25.9348 C   0  0  0  0  0  0
  -28.6197  -17.7383   26.8239 C   0  0  0  0  0  0
  -27.9215  -17.3640   24.5128 C   0  0  0  0  0  0
  -29.8113  -17.9156   25.8746 C   0  0  0  0  0  0
  -29.8903  -17.5683   19.5490 C   0  0  0  0  0  0
  -29.9108  -19.0791   19.8416 C   0  0  0  0  0  0
  -29.2233  -18.1751   24.4766 C   0  0  0  0  0  0
  -30.2847  -16.9489   20.8868 C   0  0  1  0  0  0
  -29.5594  -17.8829   21.8886 C   0  0  1  0  0  0
  -31.5115  -18.6048   23.4251 C   0  0  0  0  0  0
  -28.3806  -20.0897   21.5286 C   0  0  0  0  0  0
  -28.7464  -26.0132   21.2904 C   0  0  0  0  0  0
  -30.1891  -17.8102   23.3159 C   0  0  1  0  0  0
  -29.9481  -15.5143   21.0210 N   0  0  0  0  0  0
  -29.5934  -19.2533   21.2828 N   0  3  2  0  0  0
  -31.4639  -12.4155   19.1218 H   0  0  0  0  0  0
  -30.3233  -11.3042   19.8260 H   0  0  0  0  0  0
  -29.7317  -11.7807   17.4286 H   0  0  0  0  0  0
  -29.6545  -13.4909   17.7698 H   0  0  0  0  0  0
  -27.8280  -11.3041   18.8229 H   0  0  0  0  0  0
  -27.3613  -12.6286   17.7898 H   0  0  0  0  0  0
  -27.6999  -14.2504   19.5661 H   0  0  0  0  0  0
  -28.6807  -11.9674   21.3536 H   0  0  0  0  0  0
  -28.4632  -13.6108   21.8686 H   0  0  0  0  0  0
  -25.2764   -9.5675   22.4740 H   0  0  0  0  0  0
  -23.9991   -7.4640   22.7484 H   0  0  0  0  0  0
  -21.0827   -8.8773   19.8970 H   0  0  0  0  0  0
  -22.3681  -10.9666   19.6169 H   0  0  0  0  0  0
  -21.2020   -7.6151   23.9697 H   0  0  0  0  0  0
  -21.1476   -6.0529   25.9066 H   0  0  0  0  0  0
  -22.0604   -2.7602   23.2853 H   0  0  0  0  0  0
  -22.4120  -11.9889   22.4788 H   0  0  0  0  0  0
  -21.1135  -13.1258   22.2640 H   0  0  0  0  0  0
  -24.6570  -15.8384   20.4931 H   0  0  0  0  0  0
  -26.2699  -15.6202   20.0426 H   0  0  0  0  0  0
  -26.7132  -32.5504   23.1133 H   0  0  0  0  0  0
  -25.0089  -33.9765   25.0464 H   0  0  0  0  0  0
  -22.6927  -31.3056   21.4079 H   0  0  0  0  0  0
  -23.3779  -35.9622   23.3243 H   0  0  0  0  0  0
  -24.3611  -36.8972   22.2053 H   0  0  0  0  0  0
  -23.7231  -37.6485   23.6674 H   0  0  0  0  0  0
  -26.0493  -31.5938   20.5981 H   0  0  0  0  0  0
  -26.8166  -30.8798   21.9904 H   0  0  0  0  0  0
  -28.1030  -29.0926   21.1839 H   0  0  0  0  0  0
  -26.0782  -25.9659   19.0148 H   0  0  0  0  0  0
  -23.9877  -27.2890   19.0291 H   0  0  0  0  0  0
  -23.7269  -30.5913   19.4022 H   0  0  0  0  0  0
  -22.7400  -29.2401   19.8668 H   0  0  0  0  0  0
  -25.1290  -36.1957   25.0818 H   0  0  0  0  0  0
  -20.9962  -28.3236   24.1431 H   0  0  0  0  0  0
  -20.5639  -26.2276   23.3618 H   0  0  0  0  0  0
  -21.6651  -26.7416   22.1253 H   0  0  0  0  0  0
  -19.6917  -25.6265   21.1255 H   0  0  0  0  0  0
  -19.6701  -27.3134   20.6721 H   0  0  0  0  0  0
  -17.4205  -26.6653   21.3987 H   0  0  0  0  0  0
  -18.0334  -26.0017   22.8969 H   0  0  0  0  0  0
  -19.7942  -30.7220   24.2303 H   0  0  0  0  0  0
  -17.5037  -31.6258   24.5153 H   0  0  0  0  0  0
  -15.5359  -30.3020   23.7603 H   0  0  0  0  0  0
  -15.8659  -28.0826   22.7054 H   0  0  0  0  0  0
  -24.5886  -30.7042   25.7854 H   0  0  0  0  0  0
  -24.8813  -32.2951   26.4769 H   0  0  0  0  0  0
  -25.8016  -30.9085   27.0299 H   0  0  0  0  0  0
  -26.2762  -29.6853   24.1044 H   0  0  0  0  0  0
  -27.3782  -29.7156   25.4610 H   0  0  0  0  0  0
  -27.8701  -30.4238   23.9383 H   0  0  0  0  0  0
  -27.2630  -33.3558   26.2126 H   0  0  0  0  0  0
  -28.3833  -32.6875   25.0339 H   0  0  0  0  0  0
  -28.0674  -31.8358   26.5383 H   0  0  0  0  0  0
  -28.2596  -38.0129   24.7560 H   0  0  0  0  0  0
  -28.1125  -36.2684   24.6192 H   0  0  0  0  0  0
  -27.2348  -37.1373   25.8849 H   0  0  0  0  0  0
  -20.9284  -29.8774   21.6944 H   0  0  0  0  0  0
  -26.0171  -38.2881   24.1431 H   0  0  0  0  0  0
  -29.4683  -21.8523   23.3605 H   0  0  0  0  0  0
  -27.7098  -21.7775   19.4103 H   0  0  0  0  0  0
  -29.5844  -24.3118   23.2507 H   0  0  0  0  0  0
  -27.8376  -24.2440   19.3116 H   0  0  0  0  0  0
  -26.7579  -18.4334   25.9820 H   0  0  0  0  0  0
  -26.7760  -16.6962   26.2516 H   0  0  0  0  0  0
  -28.7765  -16.8800   27.4795 H   0  0  0  0  0  0
  -28.4958  -18.6138   27.4633 H   0  0  0  0  0  0
  -27.1917  -17.6867   23.7686 H   0  0  0  0  0  0
  -28.1328  -16.3081   24.3344 H   0  0  0  0  0  0
  -30.4008  -16.9968   25.8710 H   0  0  0  0  0  0
  -30.4726  -18.7202   26.2022 H   0  0  0  0  0  0
  -30.5613  -17.2912   18.7348 H   0  0  0  0  0  0
  -28.8819  -17.2617   19.2687 H   0  0  0  0  0  0
  -29.2337  -19.6217   19.1798 H   0  0  0  0  0  0
  -30.9100  -19.4780   19.6656 H   0  0  0  0  0  0
  -28.9685  -19.2337   24.4282 H   0  0  0  0  0  0
  -31.3629  -17.0675   21.0051 H   0  0  0  0  0  0
  -28.5203  -17.5530   21.9122 H   0  0  0  0  0  0
  -32.0154  -18.4011   24.3709 H   0  0  0  0  0  0
  -31.3476  -19.6825   23.3799 H   0  0  0  0  0  0
  -32.2224  -18.3382   22.6432 H   0  0  0  0  0  0
  -27.5684  -19.7635   20.8759 H   0  0  0  0  0  0
  -28.0150  -19.9174   22.5394 H   0  0  0  0  0  0
  -29.7625  -26.3290   21.5274 H   0  0  0  0  0  0
  -28.1252  -26.3553   22.1208 H   0  0  0  0  0  0
  -30.4474  -16.7612   23.4736 H   0  0  0  0  0  0
  -29.0318  -15.2766   21.3704 H   0  0  0  0  0  0
  -30.3741  -19.7346   21.7028 H   0  0  0  0  0  0
  1 25  1  0  0  0
  1 30  2  0  0  0
  1 90  1  0  0  0
  2  3  1  0  0  0
  2 25  1  0  0  0
  2 92  1  0  0  0
  2 93  1  0  0  0
  3  4  1  0  0  0
  3 94  1  0  0  0
  3 95  1  0  0  0
  4  5  1  0  0  0
  4 96  1  0  0  0
  4 97  1  0  0  0
  5  6  1  0  0  0
  5 26  1  0  0  0
  5 98  1  0  0  0
  6 25  1  0  0  0
  6 99  1  0  0  0
  6100  1  0  0  0
  7  8  2  0  0  0
  7 26  1  0  0  0
  7 29  1  0  0  0
  8  9  1  0  0  0
  8 22  1  0  0  0
  9 10  1  0  0  0
  9 27  2  0  0  0
 10 11  2  0  0  0
 10 15  1  0  0  0
 11 12  1  0  0  0
 11101  1  0  0  0
 12 13  2  0  0  0
 12102  1  0  0  0
 13 14  1  0  0  0
 13 31  1  0  0  0
 14 15  2  0  0  0
 14103  1  0  0  0
 15104  1  0  0  0
 16 17  2  0  0  0
 16 21  1  0  0  0
 16 31  1  0  0  0
 17 18  1  0  0  0
 17105  1  0  0  0
 18 19  2  0  0  0
 18106  1  0  0  0
 19 20  1  0  0  0
 19 24  1  0  0  0
 20 21  2  0  0  0
 20107  1  0  0  0
 21 23  1  0  0  0
 22 28  1  0  0  0
 22 32  2  0  0  0
 26 27  1  0  0  0
 28108  1  0  0  0
 28109  1  0  0  0
 29110  1  0  0  0
 29111  1  0  0  0
 33 34  1  0  0  0
 33 66  1  0  0  0
 33 70  2  0  0  0
 34 36  1  0  0  0
 34 59  1  0  0  0
 34112  1  0  0  0
 35 44  2  0  0  0
 35 45  1  0  0  0
 35 68  1  0  0  0
 36 56  1  0  0  0
 36113  1  0  0  0
 37 39  1  0  0  0
 37 47  1  0  0  0
 37 66  1  0  0  0
 37114  1  0  0  0
 38 43  2  0  0  0
 38 46  1  0  0  0
 38 47  1  0  0  0
 39 64  1  0  0  0
 39 67  2  0  0  0
 40 52  1  0  0  0
 40 53  2  0  0  0
 40 58  1  0  0  0
 41115  1  0  0  0
 41116  1  0  0  0
 41117  1  0  0  0
 41 48  1  0  0  0
 42 43  1  0  0  0
 42 66  1  0  0  0
 42118  1  0  0  0
 42119  1  0  0  0
 43 44  1  0  0  0
 44120  1  0  0  0
 45 46  2  0  0  0
 45121  1  0  0  0
 46122  1  0  0  0
 47123  1  0  0  0
 47124  1  0  0  0
 48 56  1  0  0  0
 48 65  1  0  0  0
 48125  1  0  0  0
 49 50  1  0  0  0
 49 53  1  0  0  0
 49 64  1  0  0  0
 49126  1  0  0  0
 50 51  1  0  0  0
 50127  1  0  0  0
 50128  1  0  0  0
 51 52  1  0  0  0
 51129  1  0  0  0
 51130  1  0  0  0
 52131  1  0  0  0
 52132  1  0  0  0
 53 54  1  0  0  0
 54 55  2  0  0  0
 54133  1  0  0  0
 55 57  1  0  0  0
 55134  1  0  0  0
 56 69  2  0  0  0
 57 58  2  0  0  0
 57135  1  0  0  0
 58136  1  0  0  0
 59 60  1  0  0  0
 59 61  1  0  0  0
 59 62  1  0  0  0
 60137  1  0  0  0
 60138  1  0  0  0
 60139  1  0  0  0
 61140  1  0  0  0
 61141  1  0  0  0
 61142  1  0  0  0
 62143  1  0  0  0
 62144  1  0  0  0
 62145  1  0  0  0
 63 65  1  0  0  0
 63146  1  0  0  0
 63147  1  0  0  0
 63148  1  0  0  0
 64149  1  0  0  0
 65150  1  0  0  0
 68 88  1  0  0  0
 71 73  2  0  0  0
 71 75  1  0  0  0
 71151  1  0  0  0
 72 74  1  0  0  0
 72 75  2  0  0  0
 72152  1  0  0  0
 73 76  1  0  0  0
 73153  1  0  0  0
 74 76  2  0  0  0
 74154  1  0  0  0
 75 87  1  0  0  0
 76 88  1  0  0  0
 77 78  1  0  0  0
 77 79  1  0  0  0
 77155  1  0  0  0
 77156  1  0  0  0
 78 80  1  0  0  0
 78157  1  0  0  0
 78158  1  0  0  0
 79159  1  0  0  0
 79160  1  0  0  0
 79 83  1  0  0  0
 80 83  1  0  0  0
 80161  1  0  0  0
 80162  1  0  0  0
 81 82  1  0  0  0
 81 84  1  0  0  0
 81163  1  0  0  0
 81164  1  0  0  0
 82 91  1  0  0  0
 82165  1  0  0  0
 82166  1  0  0  0
 83 89  1  0  0  0
 83167  1  0  0  0
 84 90  1  0  0  0
 84168  1  0  0  0
 84 85  1  0  0  0
 85 89  1  0  0  0
 85 91  1  0  0  0
 85169  1  0  0  0
 86170  1  0  0  0
 86171  1  0  0  0
 86172  1  0  0  0
 86 89  1  0  0  0
 87173  1  0  0  0
 87174  1  0  0  0
 87 91  1  0  0  0
 88175  1  0  0  0
 88176  1  0  0  0
 89177  1  0  0  0
 90178  1  0  0  0
 91179  1  0  0  0
M  CHG  1  91   1
M  ISO  4   1 100  68 101  88 101  90 100
M  END
> <chiral flag>
0

> <version>
0

> <s_m_source_file>
/data/baiqing/PycharmProjects/Reinvent-master-3.2/result/LINK_invent/BTK/process_docking_weight1_custom_sum_contain_oxygen_bond_distance_aromatic_linkinvent_7_9_3/rearranged_h_0124.sdf

> <i_m_source_file_index>
73

> <r_mmod_Potential_Energy-OPLS-2005>
8.9253625869751

> <r_mmod_Stretch_Energy-OPLS-2005>
42.242130279541

> <r_mmod_Bend_Energy-OPLS-2005>
147.015228271484

> <r_mmod_Torsional_Energy-OPLS-2005>
375.034545898438

> <r_mmod_Improper_Torsional_Energy-OPLS-2005>
5.02890348434448

> <r_mmod_Van_der_Waal_Energy-OPLS-2005>
129.634170532227

> <r_mmod_Electrostatic_Energy-OPLS-2005>
-269.691101074219

> <r_mmod_Solvation_Energy-OPLS-2005>
-434.317077636719

> <b_mmod_Minimization_Converged-OPLS-2005>
0

> <r_mmod_RMS_Derivative-OPLS-2005>
1.87839841842651

$$$$
73
                    3D
 Structure written by MMmdl.
154163  0  0  1  0            999 V2000
  -30.6429  -14.6329   20.5591 C   0  0  0  0  0  0
  -30.4376  -12.4040   19.4550 C   0  0  0  0  0  0
  -29.5115  -12.5122   18.2248 C   0  0  0  0  0  0
  -28.0322  -12.3515   18.6312 C   0  0  0  0  0  0
  -27.6520  -13.2192   19.8617 C   0  0  2  0  0  0
  -28.6948  -13.0733   20.9907 C   0  0  0  0  0  0
  -25.2560  -13.8192   20.5693 C   0  0  0  0  0  0
  -24.1826  -13.0458   20.9193 C   0  0  0  0  0  0
  -24.6379  -11.6925   20.8704 C   0  0  0  0  0  0
  -23.9045  -10.4302   21.0364 C   0  0  0  0  0  0
  -24.3608   -9.4226   21.9142 C   0  0  0  0  0  0
  -23.6287   -8.2251   22.0730 C   0  0  0  0  0  0
  -22.4262   -8.0254   21.3528 C   0  0  0  0  0  0
  -21.9878   -9.0229   20.4638 C   0  0  0  0  0  0
  -22.7205  -10.2115   20.3034 C   0  0  0  0  0  0
  -21.6859   -6.0694   22.5264 C   0  0  0  0  0  0
  -21.4017   -6.5609   23.8189 C   0  0  0  0  0  0
  -21.3688   -5.6780   24.9165 C   0  0  0  0  0  0
  -21.6054   -4.3037   24.7217 C   0  0  0  0  0  0
  -21.8833   -3.8115   23.4345 C   0  0  0  0  0  0
  -21.9208   -4.6924   22.3396 C   0  0  0  0  0  0
  -22.7837  -13.5233   21.1854 C   0  0  0  0  0  0
  -22.1671   -4.2116   21.0965 F   0  0  0  0  0  0
  -21.5651   -3.4528   25.7731 F   0  0  0  0  0  0
  -30.0061  -13.4265   20.4291 N   0  0  0  0  0  0
  -26.2984  -12.9373   20.3298 N   0  0  0  0  0  0
  -25.9312  -11.6528   20.5738 N   0  0  0  0  0  0
  -22.0483  -12.8213   22.0414 N   0  0  0  0  0  0
  -25.4249  -15.1907   20.4110 N   0  0  0  0  0  0
  -31.8043  -14.7896   20.1737 O   0  0  0  0  0  0
  -21.6648   -6.8828   21.4218 O   0  0  0  0  0  0
  -22.3502  -14.5524   20.6689 O   0  0  0  0  0  0
  -24.6227  -31.8619   23.2040 C   0  0  0  0  0  0
  -25.9074  -32.4810   23.8370 C   0  0  1  0  0  0
  -27.2347  -27.3530   20.1152 C   0  0  0  0  0  0
  -25.5908  -33.8604   24.2299 N   0  0  0  0  0  0
  -23.4180  -30.4821   21.5464 C   0  0  2  0  0  0
  -24.8698  -28.9396   20.1161 C   0  0  0  0  0  0
  -22.7470  -29.4616   22.4959 C   0  0  0  0  0  0
  -18.0297  -28.1392   22.8479 C   0  0  0  0  0  0
  -24.1488  -36.7300   23.2638 C   0  0  0  0  0  0
  -25.9549  -30.7999   21.3754 C   0  0  0  0  0  0
  -26.0328  -29.4258   20.7271 C   0  0  0  0  0  0
  -27.2225  -28.6387   20.7286 C   0  0  0  0  0  0
  -26.0599  -26.9160   19.4724 C   0  0  0  0  0  0
  -24.8805  -27.6852   19.4829 C   0  0  0  0  0  0
  -23.6332  -29.8135   20.1624 C   0  0  0  0  0  0
  -25.4108  -36.3098   24.0333 C   0  0  1  0  0  0
  -20.5882  -28.3681   23.1301 C   0  0  2  0  0  0
  -20.6782  -26.9410   22.5415 C   0  0  0  0  0  0
  -19.5753  -26.6373   21.5223 C   0  0  0  0  0  0
  -18.1932  -26.7929   22.1623 C   0  0  0  0  0  0
  -19.1543  -28.8855   23.2880 C   0  0  0  0  0  0
  -18.9465  -30.1463   23.8888 C   0  0  0  0  0  0
  -17.6461  -30.6586   24.0564 C   0  0  0  0  0  0
  -25.9049  -34.9470   23.5109 C   0  0  0  0  0  0
  -16.5354  -29.9088   23.6329 C   0  0  0  0  0  0
  -16.7281  -28.6512   23.0337 C   0  0  0  0  0  0
  -26.4462  -31.6612   25.0734 C   0  0  0  0  0  0
  -25.3718  -31.3729   26.1485 C   0  0  0  0  0  0
  -27.0317  -30.3053   24.6156 C   0  0  0  0  0  0
  -27.6038  -32.4336   25.7501 C   0  0  0  0  0  0
  -27.5574  -37.1803   24.8462 C   0  0  0  0  0  0
  -21.4197  -29.3032   22.3703 N   0  0  0  0  0  0
  -26.4289  -37.3787   23.9409 N   0  0  0  0  0  0
  -24.6827  -31.0643   22.0991 N   0  0  0  0  0  0
  -23.4222  -28.8162   23.3035 O   0  0  0  0  0  0
  -28.3343  -26.4951   20.0893 O   0  0  0  0  0  0
  -26.5607  -34.8943   22.4680 O   0  0  0  0  0  0
  -23.5390  -32.1385   23.7372 O   0  0  0  0  0  0
  -29.1634  -23.0461   20.3101 C   0  0  0  0  0  0
  -27.4028  -24.6863   21.5019 C   0  0  0  0  0  0
  -30.0540  -20.4898   22.3821 C   0  0  0  0  0  0
  -28.7930  -24.1158   21.3799 C   0  0  2  0  0  0
  -29.1286  -19.4556   21.7752 C   0  0  2  0  0  0
  -28.8429  -20.9979   21.6256 C   0  0  2  0  0  0
  -28.5325  -25.6721   21.2790 C   0  0  1  0  0  0
  -29.6384  -18.3541   20.7786 C   0  0  0  0  0  0
  -30.3225  -17.0649   21.4378 C   0  0  0  0  0  0
  -29.2177  -21.7427   20.4052 N   0  0  0  0  0  0
  -29.8895  -15.6865   21.0058 N   0  0  0  0  0  0
  -31.4790  -12.5394   19.1559 H   0  0  0  0  0  0
  -30.3755  -11.4097   19.8981 H   0  0  0  0  0  0
  -29.7820  -11.7528   17.4905 H   0  0  0  0  0  0
  -29.6601  -13.4796   17.7408 H   0  0  0  0  0  0
  -27.8757  -11.2951   18.8559 H   0  0  0  0  0  0
  -27.3786  -12.5837   17.7895 H   0  0  0  0  0  0
  -27.6689  -14.2576   19.5285 H   0  0  0  0  0  0
  -28.7085  -12.0486   21.3651 H   0  0  0  0  0  0
  -28.4379  -13.7011   21.8425 H   0  0  0  0  0  0
  -25.2759   -9.5739   22.4703 H   0  0  0  0  0  0
  -24.0035   -7.4653   22.7441 H   0  0  0  0  0  0
  -21.0806   -8.8716   19.8939 H   0  0  0  0  0  0
  -22.3621  -10.9633   19.6138 H   0  0  0  0  0  0
  -21.1972   -7.6109   23.9681 H   0  0  0  0  0  0
  -21.1517   -6.0500   25.9074 H   0  0  0  0  0  0
  -22.0584   -2.7572   23.2854 H   0  0  0  0  0  0
  -22.4163  -11.9924   22.4862 H   0  0  0  0  0  0
  -21.1075  -13.1199   22.2569 H   0  0  0  0  0  0
  -24.6554  -15.8403   20.5293 H   0  0  0  0  0  0
  -26.2700  -15.6381   20.0803 H   0  0  0  0  0  0
  -26.7159  -32.5479   23.1145 H   0  0  0  0  0  0
  -25.0092  -33.9756   25.0466 H   0  0  0  0  0  0
  -22.7105  -31.3010   21.4016 H   0  0  0  0  0  0
  -23.3752  -35.9635   23.3310 H   0  0  0  0  0  0
  -24.3573  -36.8891   22.2046 H   0  0  0  0  0  0
  -23.7248  -37.6506   23.6659 H   0  0  0  0  0  0
  -26.0804  -31.5575   20.6015 H   0  0  0  0  0  0
  -26.8388  -30.8561   21.9982 H   0  0  0  0  0  0
  -28.1191  -29.0064   21.2050 H   0  0  0  0  0  0
  -26.0516  -25.9573   18.9738 H   0  0  0  0  0  0
  -23.9905  -27.3085   18.9963 H   0  0  0  0  0  0
  -23.7575  -30.5886   19.4057 H   0  0  0  0  0  0
  -22.7565  -29.2402   19.8542 H   0  0  0  0  0  0
  -25.1296  -36.1940   25.0825 H   0  0  0  0  0  0
  -20.9973  -28.3241   24.1418 H   0  0  0  0  0  0
  -20.5699  -26.2287   23.3602 H   0  0  0  0  0  0
  -21.6652  -26.7448   22.1198 H   0  0  0  0  0  0
  -19.6920  -25.6283   21.1246 H   0  0  0  0  0  0
  -19.6696  -27.3189   20.6755 H   0  0  0  0  0  0
  -17.4203  -26.6677   21.4018 H   0  0  0  0  0  0
  -18.0340  -26.0081   22.9026 H   0  0  0  0  0  0
  -19.7946  -30.7288   24.2232 H   0  0  0  0  0  0
  -17.5025  -31.6265   24.5171 H   0  0  0  0  0  0
  -15.5356  -30.2996   23.7665 H   0  0  0  0  0  0
  -15.8680  -28.0843   22.7047 H   0  0  0  0  0  0
  -24.5905  -30.7072   25.7800 H   0  0  0  0  0  0
  -24.8917  -32.2901   26.4918 H   0  0  0  0  0  0
  -25.8063  -30.8890   27.0249 H   0  0  0  0  0  0
  -26.2889  -29.6819   24.1179 H   0  0  0  0  0  0
  -27.4041  -29.7287   25.4627 H   0  0  0  0  0  0
  -27.8746  -30.4368   23.9374 H   0  0  0  0  0  0
  -27.2669  -33.3642   26.2092 H   0  0  0  0  0  0
  -28.3858  -32.6873   25.0330 H   0  0  0  0  0  0
  -28.0736  -31.8460   26.5405 H   0  0  0  0  0  0
  -28.2595  -38.0097   24.7513 H   0  0  0  0  0  0
  -28.1060  -36.2621   24.6288 H   0  0  0  0  0  0
  -27.2294  -37.1458   25.8868 H   0  0  0  0  0  0
  -20.9385  -29.8732   21.6877 H   0  0  0  0  0  0
  -26.0157  -38.2859   24.1417 H   0  0  0  0  0  0
  -29.4397  -23.5178   19.3625 H   0  0  0  0  0  0
  -26.9422  -24.6888   22.4873 H   0  0  0  0  0  0
  -26.7239  -24.4784   20.6813 H   0  0  0  0  0  0
  -31.0358  -20.6082   21.9285 H   0  0  0  0  0  0
  -30.0420  -20.5884   23.4677 H   0  0  0  0  0  0
  -29.2758  -23.8152   22.3077 H   0  0  0  0  0  0
  -28.4315  -19.0029   22.4829 H   0  0  0  0  0  0
  -28.0085  -21.4281   22.1825 H   0  0  0  0  0  0
  -28.8346  -26.2857   22.1262 H   0  0  0  0  0  0
  -28.7899  -18.0466   20.1672 H   0  0  0  0  0  0
  -30.3431  -18.8191   20.0891 H   0  0  0  0  0  0
  -30.1464  -17.1035   22.5134 H   0  0  0  0  0  0
  -31.4087  -17.1481   21.3452 H   0  0  0  0  0  0
  -28.9309  -15.4458   21.2155 H   0  0  0  0  0  0
  1 25  1  0  0  0
  1 30  2  0  0  0
  1 81  1  0  0  0
  2  3  1  0  0  0
  2 25  1  0  0  0
  2 82  1  0  0  0
  2 83  1  0  0  0
  3  4  1  0  0  0
  3 84  1  0  0  0
  3 85  1  0  0  0
  4  5  1  0  0  0
  4 86  1  0  0  0
  4 87  1  0  0  0
  5  6  1  0  0  0
  5 26  1  0  0  0
  5 88  1  0  0  0
  6 25  1  0  0  0
  6 89  1  0  0  0
  6 90  1  0  0  0
  7  8  2  0  0  0
  7 26  1  0  0  0
  7 29  1  0  0  0
  8  9  1  0  0  0
  8 22  1  0  0  0
  9 10  1  0  0  0
  9 27  2  0  0  0
 10 11  2  0  0  0
 10 15  1  0  0  0
 11 12  1  0  0  0
 11 91  1  0  0  0
 12 13  2  0  0  0
 12 92  1  0  0  0
 13 14  1  0  0  0
 13 31  1  0  0  0
 14 15  2  0  0  0
 14 93  1  0  0  0
 15 94  1  0  0  0
 16 17  2  0  0  0
 16 21  1  0  0  0
 16 31  1  0  0  0
 17 18  1  0  0  0
 17 95  1  0  0  0
 18 19  2  0  0  0
 18 96  1  0  0  0
 19 20  1  0  0  0
 19 24  1  0  0  0
 20 21  2  0  0  0
 20 97  1  0  0  0
 21 23  1  0  0  0
 22 28  1  0  0  0
 22 32  2  0  0  0
 26 27  1  0  0  0
 28 98  1  0  0  0
 28 99  1  0  0  0
 29100  1  0  0  0
 29101  1  0  0  0
 33 34  1  0  0  0
 33 66  1  0  0  0
 33 70  2  0  0  0
 34 36  1  0  0  0
 34 59  1  0  0  0
 34102  1  0  0  0
 35 44  2  0  0  0
 35 45  1  0  0  0
 35 68  1  0  0  0
 36 56  1  0  0  0
 36103  1  0  0  0
 37 39  1  0  0  0
 37 47  1  0  0  0
 37 66  1  0  0  0
 37104  1  0  0  0
 38 43  2  0  0  0
 38 46  1  0  0  0
 38 47  1  0  0  0
 39 64  1  0  0  0
 39 67  2  0  0  0
 40 52  1  0  0  0
 40 53  2  0  0  0
 40 58  1  0  0  0
 41105  1  0  0  0
 41106  1  0  0  0
 41107  1  0  0  0
 41 48  1  0  0  0
 42 43  1  0  0  0
 42 66  1  0  0  0
 42108  1  0  0  0
 42109  1  0  0  0
 43 44  1  0  0  0
 44110  1  0  0  0
 45 46  2  0  0  0
 45111  1  0  0  0
 46112  1  0  0  0
 47113  1  0  0  0
 47114  1  0  0  0
 48 56  1  0  0  0
 48 65  1  0  0  0
 48115  1  0  0  0
 49 50  1  0  0  0
 49 53  1  0  0  0
 49 64  1  0  0  0
 49116  1  0  0  0
 50 51  1  0  0  0
 50117  1  0  0  0
 50118  1  0  0  0
 51 52  1  0  0  0
 51119  1  0  0  0
 51120  1  0  0  0
 52121  1  0  0  0
 52122  1  0  0  0
 53 54  1  0  0  0
 54 55  2  0  0  0
 54123  1  0  0  0
 55 57  1  0  0  0
 55124  1  0  0  0
 56 69  2  0  0  0
 57 58  2  0  0  0
 57125  1  0  0  0
 58126  1  0  0  0
 59 60  1  0  0  0
 59 61  1  0  0  0
 59 62  1  0  0  0
 60127  1  0  0  0
 60128  1  0  0  0
 60129  1  0  0  0
 61130  1  0  0  0
 61131  1  0  0  0
 61132  1  0  0  0
 62133  1  0  0  0
 62134  1  0  0  0
 62135  1  0  0  0
 63 65  1  0  0  0
 63136  1  0  0  0
 63137  1  0  0  0
 63138  1  0  0  0
 64139  1  0  0  0
 65140  1  0  0  0
 68 77  1  0  0  0
 71 80  2  0  0  0
 71141  1  0  0  0
 71 74  1  0  0  0
 72 74  1  0  0  0
 72 77  1  0  0  0
 72142  1  0  0  0
 72143  1  0  0  0
 73 75  1  0  0  0
 73 76  1  0  0  0
 73144  1  0  0  0
 73145  1  0  0  0
 74 77  1  0  0  0
 74146  1  0  0  0
 75 76  1  0  0  0
 75 78  1  0  0  0
 75147  1  0  0  0
 76 80  1  0  0  0
 76148  1  0  0  0
 77149  1  0  0  0
 78 79  1  0  0  0
 78150  1  0  0  0
 78151  1  0  0  0
 79 81  1  0  0  0
 79152  1  0  0  0
 79153  1  0  0  0
 81154  1  0  0  0
M  ISO  4   1 100  68 101  77 101  81 100
M  END
> <chiral flag>
0

> <version>
0

> <s_m_source_file>
/data/baiqing/PycharmProjects/Reinvent-master-3.2/result/LINK_invent/BTK/process_docking_weight1_custom_sum_contain_oxygen_bond_distance_aromatic_linkinvent_7_9_3/rearranged_h_0124.sdf

> <i_m_source_file_index>
74

> <r_mmod_Potential_Energy-OPLS-2005>
137.152221679688

> <r_mmod_Stretch_Energy-OPLS-2005>
76.1493301391602

> <r_mmod_Bend_Energy-OPLS-2005>
184.240585327148

> <r_mmod_Torsional_Energy-OPLS-2005>
309.270324707031

> <r_mmod_Improper_Torsional_Energy-OPLS-2005>
3.20320892333984

> <r_mmod_Van_der_Waal_Energy-OPLS-2005>
115.829284667969

> <r_mmod_Electrostatic_Energy-OPLS-2005>
-378.723602294922

> <r_mmod_Solvation_Energy-OPLS-2005>
-214.997268676758

> <b_mmod_Minimization_Converged-OPLS-2005>
0

> <r_mmod_RMS_Derivative-OPLS-2005>
4.05030727386475

$$$$
74
                    3D
 Structure written by MMmdl.
172181  0  0  1  0            999 V2000
  -30.6940  -14.4611   20.5720 C   0  0  0  0  0  0
  -30.4257  -12.3005   19.4173 C   0  0  0  0  0  0
  -29.4920  -12.5218   18.2083 C   0  0  0  0  0  0
  -28.0150  -12.3841   18.6237 C   0  0  0  0  0  0
  -27.6717  -13.2021   19.8962 C   0  0  2  0  0  0
  -28.7156  -12.9530   21.0090 C   0  0  0  0  0  0
  -25.2628  -13.8160   20.5713 C   0  0  0  0  0  0
  -24.1862  -13.0442   20.9165 C   0  0  0  0  0  0
  -24.6418  -11.6903   20.8731 C   0  0  0  0  0  0
  -23.9072  -10.4289   21.0424 C   0  0  0  0  0  0
  -24.3613   -9.4194   21.9199 C   0  0  0  0  0  0
  -23.6283   -8.2232   22.0764 C   0  0  0  0  0  0
  -22.4268   -8.0282   21.3551 C   0  0  0  0  0  0
  -21.9915   -9.0263   20.4652 C   0  0  0  0  0  0
  -22.7246  -10.2143   20.3065 C   0  0  0  0  0  0
  -21.6854   -6.0719   22.5274 C   0  0  0  0  0  0
  -21.4019   -6.5638   23.8201 C   0  0  0  0  0  0
  -21.3654   -5.6796   24.9170 C   0  0  0  0  0  0
  -21.6052   -4.3054   24.7222 C   0  0  0  0  0  0
  -21.8824   -3.8133   23.4347 C   0  0  0  0  0  0
  -21.9201   -4.6944   22.3405 C   0  0  0  0  0  0
  -22.7883  -13.5235   21.1826 C   0  0  0  0  0  0
  -22.1668   -4.2137   21.0980 F   0  0  0  0  0  0
  -21.5624   -3.4543   25.7737 F   0  0  0  0  0  0
  -30.0523  -13.2655   20.4661 N   0  0  0  0  0  0
  -26.3087  -12.9317   20.3489 N   0  0  0  0  0  0
  -25.9355  -11.6482   20.5820 N   0  0  0  0  0  0
  -22.0532  -12.8217   22.0361 N   0  0  0  0  0  0
  -25.4381  -15.1870   20.4102 N   0  0  0  0  0  0
  -31.7582  -14.6897   19.9919 O   0  0  0  0  0  0
  -21.6643   -6.8875   21.4237 O   0  0  0  0  0  0
  -22.3587  -14.5561   20.6682 O   0  0  0  0  0  0
  -24.6111  -31.8716   23.2130 C   0  0  0  0  0  0
  -25.8995  -32.4854   23.8449 C   0  0  1  0  0  0
  -27.2411  -27.4509   20.0985 C   0  0  0  0  0  0
  -25.5871  -33.8654   24.2383 N   0  0  0  0  0  0
  -23.4004  -30.4932   21.5569 C   0  0  2  0  0  0
  -24.8472  -28.9513   20.1311 C   0  0  0  0  0  0
  -22.7389  -29.4701   22.5058 C   0  0  0  0  0  0
  -18.0287  -28.1367   22.8518 C   0  0  0  0  0  0
  -24.1489  -36.7313   23.2645 C   0  0  0  0  0  0
  -25.9265  -30.8444   21.3595 C   0  0  0  0  0  0
  -26.0088  -29.4761   20.7122 C   0  0  0  0  0  0
  -27.2127  -28.7363   20.6863 C   0  0  0  0  0  0
  -26.0618  -26.9299   19.5251 C   0  0  0  0  0  0
  -24.8669  -27.6751   19.5403 C   0  0  0  0  0  0
  -23.6069  -29.8154   20.1768 C   0  0  0  0  0  0
  -25.4095  -36.3121   24.0367 C   0  0  1  0  0  0
  -20.5858  -28.3675   23.1327 C   0  0  2  0  0  0
  -20.6771  -26.9425   22.5420 C   0  0  0  0  0  0
  -19.5733  -26.6397   21.5218 C   0  0  0  0  0  0
  -18.1910  -26.7926   22.1631 C   0  0  0  0  0  0
  -19.1520  -28.8836   23.2926 C   0  0  0  0  0  0
  -18.9460  -30.1444   23.8925 C   0  0  0  0  0  0
  -17.6459  -30.6602   24.0548 C   0  0  0  0  0  0
  -25.9008  -34.9492   23.5155 C   0  0  0  0  0  0
  -16.5358  -29.9096   23.6327 C   0  0  0  0  0  0
  -16.7265  -28.6499   23.0373 C   0  0  0  0  0  0
  -26.4454  -31.6627   25.0766 C   0  0  0  0  0  0
  -25.3730  -31.3672   26.1518 C   0  0  0  0  0  0
  -27.0324  -30.3107   24.6097 C   0  0  0  0  0  0
  -27.6054  -32.4349   25.7497 C   0  0  0  0  0  0
  -27.5596  -37.1794   24.8476 C   0  0  0  0  0  0
  -21.4132  -29.3049   22.3752 N   0  0  0  0  0  0
  -26.4295  -37.3799   23.9428 N   0  0  0  0  0  0
  -24.6658  -31.0825   22.1027 N   0  0  0  0  0  0
  -23.4173  -28.8230   23.3101 O   0  0  0  0  0  0
  -28.4232  -26.7504   20.0486 O   0  0  0  0  0  0
  -26.5596  -34.8943   22.4729 O   0  0  0  0  0  0
  -23.5304  -32.1476   23.7520 O   0  0  0  0  0  0
  -31.6824  -19.7834   20.3211 C   0  0  0  0  0  0
  -30.4518  -19.2763   20.6372 C   0  0  0  0  0  0
  -30.6677  -17.8537   20.6515 C   0  0  0  0  0  0
  -29.3341  -21.2122   21.8696 C   0  0  0  0  0  0
  -28.6015  -20.6073   19.5059 C   0  0  0  0  0  0
  -28.5497  -22.4921   21.4997 C   0  0  0  0  0  0
  -29.1229  -22.0113   19.1134 C   0  0  0  0  0  0
  -29.1674  -20.0660   20.8388 C   0  0  1  0  0  0
  -34.7650  -19.8566   20.2893 C   0  0  0  0  0  0
  -33.9078  -18.8431   18.1205 C   0  0  0  0  0  0
  -29.6283  -16.7473   20.7796 C   0  0  0  0  0  0
  -28.2857  -24.2804   19.7543 C   0  0  0  0  0  0
  -28.4565  -25.4831   20.7158 C   0  0  0  0  0  0
  -33.9172  -18.7417   19.6552 C   0  0  0  0  0  0
  -31.9335  -17.5573   20.3947 N   0  0  0  0  0  0
  -32.5508  -18.7319   20.1592 N   0  0  0  0  0  0
  -30.0144  -15.4010   21.2524 N   0  0  0  0  0  0
  -29.0038  -23.0434   20.1922 N   0  3  1  0  0  0
  -31.4699  -12.3980   19.1118 H   0  0  0  0  0  0
  -30.3171  -11.2832   19.7967 H   0  0  0  0  0  0
  -29.7230  -11.8126   17.4116 H   0  0  0  0  0  0
  -29.6604  -13.5146   17.7883 H   0  0  0  0  0  0
  -27.8136  -11.3260   18.7941 H   0  0  0  0  0  0
  -27.3663  -12.6904   17.8037 H   0  0  0  0  0  0
  -27.7262  -14.2570   19.6268 H   0  0  0  0  0  0
  -28.6901  -11.9085   21.3205 H   0  0  0  0  0  0
  -28.4785  -13.5257   21.9060 H   0  0  0  0  0  0
  -25.2770   -9.5663   22.4753 H   0  0  0  0  0  0
  -23.9998   -7.4625   22.7482 H   0  0  0  0  0  0
  -21.0851   -8.8796   19.8945 H   0  0  0  0  0  0
  -22.3726  -10.9693   19.6156 H   0  0  0  0  0  0
  -21.2017   -7.6151   23.9694 H   0  0  0  0  0  0
  -21.1474   -6.0535   25.9075 H   0  0  0  0  0  0
  -22.0603   -2.7596   23.2857 H   0  0  0  0  0  0
  -22.4178  -11.9884   22.4734 H   0  0  0  0  0  0
  -21.1166  -13.1235   22.2596 H   0  0  0  0  0  0
  -24.6743  -15.8452   20.5137 H   0  0  0  0  0  0
  -26.2938  -15.6178   20.0852 H   0  0  0  0  0  0
  -26.7085  -32.5606   23.1233 H   0  0  0  0  0  0
  -25.0002  -33.9860   25.0526 H   0  0  0  0  0  0
  -22.6878  -31.3108   21.4175 H   0  0  0  0  0  0
  -23.3764  -35.9637   23.3295 H   0  0  0  0  0  0
  -24.3548  -36.8926   22.2054 H   0  0  0  0  0  0
  -23.7263  -37.6520   23.6667 H   0  0  0  0  0  0
  -26.0209  -31.6036   20.5828 H   0  0  0  0  0  0
  -26.8193  -30.9085   21.9706 H   0  0  0  0  0  0
  -28.1147  -29.1455   21.1238 H   0  0  0  0  0  0
  -26.0674  -25.9608   19.0508 H   0  0  0  0  0  0
  -23.9678  -27.2647   19.0999 H   0  0  0  0  0  0
  -23.7171  -30.5853   19.4132 H   0  0  0  0  0  0
  -22.7301  -29.2329   19.8865 H   0  0  0  0  0  0
  -25.1259  -36.1969   25.0866 H   0  0  0  0  0  0
  -20.9974  -28.3264   24.1432 H   0  0  0  0  0  0
  -20.5689  -26.2295   23.3611 H   0  0  0  0  0  0
  -21.6650  -26.7471   22.1201 H   0  0  0  0  0  0
  -19.6892  -25.6297   21.1256 H   0  0  0  0  0  0
  -19.6674  -27.3207   20.6734 H   0  0  0  0  0  0
  -17.4204  -26.6730   21.4015 H   0  0  0  0  0  0
  -18.0279  -26.0054   22.9006 H   0  0  0  0  0  0
  -19.7958  -30.7227   24.2354 H   0  0  0  0  0  0
  -17.5044  -31.6298   24.5123 H   0  0  0  0  0  0
  -15.5355  -30.2986   23.7679 H   0  0  0  0  0  0
  -15.8672  -28.0804   22.7090 H   0  0  0  0  0  0
  -24.5926  -30.6994   25.7835 H   0  0  0  0  0  0
  -24.8858  -32.2770   26.5036 H   0  0  0  0  0  0
  -25.8087  -30.8813   27.0254 H   0  0  0  0  0  0
  -26.2887  -29.6808   24.1199 H   0  0  0  0  0  0
  -27.4207  -29.7384   25.4521 H   0  0  0  0  0  0
  -27.8644  -30.4487   23.9190 H   0  0  0  0  0  0
  -27.2757  -33.3693   26.2064 H   0  0  0  0  0  0
  -28.3858  -32.6829   25.0289 H   0  0  0  0  0  0
  -28.0731  -31.8472   26.5406 H   0  0  0  0  0  0
  -28.2599  -38.0106   24.7545 H   0  0  0  0  0  0
  -28.1139  -36.2640   24.6294 H   0  0  0  0  0  0
  -27.2313  -37.1408   25.8882 H   0  0  0  0  0  0
  -20.9326  -29.8779   21.6949 H   0  0  0  0  0  0
  -26.0189  -38.2891   24.1405 H   0  0  0  0  0  0
  -32.0045  -20.8009   20.1496 H   0  0  0  0  0  0
  -29.0384  -20.8659   22.8610 H   0  0  0  0  0  0
  -30.3835  -21.4880   21.9719 H   0  0  0  0  0  0
  -28.7764  -19.8937   18.6995 H   0  0  0  0  0  0
  -27.5166  -20.6756   19.5984 H   0  0  0  0  0  0
  -28.6905  -23.2335   22.2863 H   0  0  0  0  0  0
  -27.4794  -22.2841   21.4642 H   0  0  0  0  0  0
  -28.5963  -22.3367   18.2135 H   0  0  0  0  0  0
  -30.1707  -21.9391   18.8213 H   0  0  0  0  0  0
  -28.4023  -19.3967   21.2338 H   0  0  0  0  0  0
  -35.8059  -19.7768   19.9734 H   0  0  0  0  0  0
  -34.7468  -19.7959   21.3765 H   0  0  0  0  0  0
  -34.4166  -20.8474   20.0015 H   0  0  0  0  0  0
  -34.9187  -18.8234   17.7143 H   0  0  0  0  0  0
  -33.4370  -19.7662   17.7838 H   0  0  0  0  0  0
  -33.3581  -18.0115   17.6793 H   0  0  0  0  0  0
  -29.1325  -16.6281   19.8164 H   0  0  0  0  0  0
  -28.8412  -17.0859   21.4522 H   0  0  0  0  0  0
  -28.6957  -24.5790   18.7877 H   0  0  0  0  0  0
  -27.2295  -24.0585   19.5946 H   0  0  0  0  0  0
  -29.4394  -25.4357   21.1853 H   0  0  0  0  0  0
  -27.7307  -25.4367   21.5304 H   0  0  0  0  0  0
  -34.3735  -17.7870   19.9295 H   0  0  0  0  0  0
  -29.3117  -14.9935   21.8493 H   0  0  0  0  0  0
  -29.9578  -23.3422   20.3458 H   0  0  0  0  0  0
  1 25  1  0  0  0
  1 30  2  0  0  0
  1 87  1  0  0  0
  2  3  1  0  0  0
  2 25  1  0  0  0
  2 89  1  0  0  0
  2 90  1  0  0  0
  3  4  1  0  0  0
  3 91  1  0  0  0
  3 92  1  0  0  0
  4  5  1  0  0  0
  4 93  1  0  0  0
  4 94  1  0  0  0
  5  6  1  0  0  0
  5 26  1  0  0  0
  5 95  1  0  0  0
  6 25  1  0  0  0
  6 96  1  0  0  0
  6 97  1  0  0  0
  7  8  2  0  0  0
  7 26  1  0  0  0
  7 29  1  0  0  0
  8  9  1  0  0  0
  8 22  1  0  0  0
  9 10  1  0  0  0
  9 27  2  0  0  0
 10 11  2  0  0  0
 10 15  1  0  0  0
 11 12  1  0  0  0
 11 98  1  0  0  0
 12 13  2  0  0  0
 12 99  1  0  0  0
 13 14  1  0  0  0
 13 31  1  0  0  0
 14 15  2  0  0  0
 14100  1  0  0  0
 15101  1  0  0  0
 16 17  2  0  0  0
 16 21  1  0  0  0
 16 31  1  0  0  0
 17 18  1  0  0  0
 17102  1  0  0  0
 18 19  2  0  0  0
 18103  1  0  0  0
 19 20  1  0  0  0
 19 24  1  0  0  0
 20 21  2  0  0  0
 20104  1  0  0  0
 21 23  1  0  0  0
 22 28  1  0  0  0
 22 32  2  0  0  0
 26 27  1  0  0  0
 28105  1  0  0  0
 28106  1  0  0  0
 29107  1  0  0  0
 29108  1  0  0  0
 33 34  1  0  0  0
 33 66  1  0  0  0
 33 70  2  0  0  0
 34 36  1  0  0  0
 34 59  1  0  0  0
 34109  1  0  0  0
 35 44  2  0  0  0
 35 45  1  0  0  0
 35 68  1  0  0  0
 36 56  1  0  0  0
 36110  1  0  0  0
 37 39  1  0  0  0
 37 47  1  0  0  0
 37 66  1  0  0  0
 37111  1  0  0  0
 38 43  2  0  0  0
 38 46  1  0  0  0
 38 47  1  0  0  0
 39 64  1  0  0  0
 39 67  2  0  0  0
 40 52  1  0  0  0
 40 53  2  0  0  0
 40 58  1  0  0  0
 41112  1  0  0  0
 41113  1  0  0  0
 41114  1  0  0  0
 41 48  1  0  0  0
 42 43  1  0  0  0
 42 66  1  0  0  0
 42115  1  0  0  0
 42116  1  0  0  0
 43 44  1  0  0  0
 44117  1  0  0  0
 45 46  2  0  0  0
 45118  1  0  0  0
 46119  1  0  0  0
 47120  1  0  0  0
 47121  1  0  0  0
 48 56  1  0  0  0
 48 65  1  0  0  0
 48122  1  0  0  0
 49 50  1  0  0  0
 49 53  1  0  0  0
 49 64  1  0  0  0
 49123  1  0  0  0
 50 51  1  0  0  0
 50124  1  0  0  0
 50125  1  0  0  0
 51 52  1  0  0  0
 51126  1  0  0  0
 51127  1  0  0  0
 52128  1  0  0  0
 52129  1  0  0  0
 53 54  1  0  0  0
 54 55  2  0  0  0
 54130  1  0  0  0
 55 57  1  0  0  0
 55131  1  0  0  0
 56 69  2  0  0  0
 57 58  2  0  0  0
 57132  1  0  0  0
 58133  1  0  0  0
 59 60  1  0  0  0
 59 61  1  0  0  0
 59 62  1  0  0  0
 60134  1  0  0  0
 60135  1  0  0  0
 60136  1  0  0  0
 61137  1  0  0  0
 61138  1  0  0  0
 61139  1  0  0  0
 62140  1  0  0  0
 62141  1  0  0  0
 62142  1  0  0  0
 63 65  1  0  0  0
 63143  1  0  0  0
 63144  1  0  0  0
 63145  1  0  0  0
 64146  1  0  0  0
 65147  1  0  0  0
 68 83  1  0  0  0
 71 72  2  0  0  0
 71 86  1  0  0  0
 71148  1  0  0  0
 72 73  1  0  0  0
 72 78  1  0  0  0
 73 81  1  0  0  0
 73 85  2  0  0  0
 74 76  1  0  0  0
 74 78  1  0  0  0
 74149  1  0  0  0
 74150  1  0  0  0
 75 77  1  0  0  0
 75 78  1  0  0  0
 75151  1  0  0  0
 75152  1  0  0  0
 76 88  1  0  0  0
 76153  1  0  0  0
 76154  1  0  0  0
 77 88  1  0  0  0
 77155  1  0  0  0
 77156  1  0  0  0
 78157  1  0  0  0
 79158  1  0  0  0
 79159  1  0  0  0
 79160  1  0  0  0
 79 84  1  0  0  0
 80 84  1  0  0  0
 80161  1  0  0  0
 80162  1  0  0  0
 80163  1  0  0  0
 81 87  1  0  0  0
 81164  1  0  0  0
 81165  1  0  0  0
 82 83  1  0  0  0
 82166  1  0  0  0
 82167  1  0  0  0
 82 88  1  0  0  0
 83168  1  0  0  0
 83169  1  0  0  0
 84 86  1  0  0  0
 84170  1  0  0  0
 85 86  1  0  0  0
 87171  1  0  0  0
 88172  1  0  0  0
M  CHG  1  88   1
M  ISO  4   1 100  68 101  83 101  87 100
M  END
> <chiral flag>
0

> <version>
0

> <s_m_source_file>
/data/baiqing/PycharmProjects/Reinvent-master-3.2/result/LINK_invent/BTK/process_docking_weight1_custom_sum_contain_oxygen_bond_distance_aromatic_linkinvent_7_9_3/rearranged_h_0124.sdf

> <i_m_source_file_index>
75

> <r_mmod_Potential_Energy-OPLS-2005>
-159.851104736328

> <r_mmod_Stretch_Energy-OPLS-2005>
38.9536018371582

> <r_mmod_Bend_Energy-OPLS-2005>
112.631011962891

> <r_mmod_Torsional_Energy-OPLS-2005>
325.746643066406

> <r_mmod_Improper_Torsional_Energy-OPLS-2005>
7.10879039764404

> <r_mmod_Van_der_Waal_Energy-OPLS-2005>
132.144317626953

> <r_mmod_Electrostatic_Energy-OPLS-2005>
-308.713531494141

> <r_mmod_Solvation_Energy-OPLS-2005>
-478.14892578125

> <b_mmod_Minimization_Converged-OPLS-2005>
0

> <r_mmod_RMS_Derivative-OPLS-2005>
3.87325763702393

$$$$
75
                    3D
 Structure written by MMmdl.
169177  0  0  1  0            999 V2000
  -30.6823  -14.4621   20.5872 C   0  0  0  0  0  0
  -30.4474  -12.3114   19.4170 C   0  0  0  0  0  0
  -29.5076  -12.5054   18.2061 C   0  0  0  0  0  0
  -28.0280  -12.3604   18.6188 C   0  0  0  0  0  0
  -27.6720  -13.1961   19.8775 C   0  0  2  0  0  0
  -28.7102  -12.9494   20.9957 C   0  0  0  0  0  0
  -25.2643  -13.8146   20.5658 C   0  0  0  0  0  0
  -24.1872  -13.0444   20.9169 C   0  0  0  0  0  0
  -24.6412  -11.6908   20.8697 C   0  0  0  0  0  0
  -23.9065  -10.4316   21.0387 C   0  0  0  0  0  0
  -24.3628   -9.4226   21.9156 C   0  0  0  0  0  0
  -23.6312   -8.2258   22.0745 C   0  0  0  0  0  0
  -22.4298   -8.0286   21.3537 C   0  0  0  0  0  0
  -21.9920   -9.0262   20.4648 C   0  0  0  0  0  0
  -22.7242  -10.2142   20.3040 C   0  0  0  0  0  0
  -21.6866   -6.0738   22.5290 C   0  0  0  0  0  0
  -21.3998   -6.5643   23.8220 C   0  0  0  0  0  0
  -21.3643   -5.6789   24.9182 C   0  0  0  0  0  0
  -21.6054   -4.3063   24.7228 C   0  0  0  0  0  0
  -21.8814   -3.8148   23.4358 C   0  0  0  0  0  0
  -21.9188   -4.6960   22.3406 C   0  0  0  0  0  0
  -22.7894  -13.5239   21.1805 C   0  0  0  0  0  0
  -22.1664   -4.2143   21.0991 F   0  0  0  0  0  0
  -21.5629   -3.4548   25.7731 F   0  0  0  0  0  0
  -30.0490  -13.2649   20.4612 N   0  0  0  0  0  0
  -26.3069  -12.9293   20.3345 N   0  0  0  0  0  0
  -25.9333  -11.6464   20.5733 N   0  0  0  0  0  0
  -22.0519  -12.8275   22.0381 N   0  0  0  0  0  0
  -25.4418  -15.1855   20.4051 N   0  0  0  0  0  0
  -31.7747  -14.7162   20.0722 O   0  0  0  0  0  0
  -21.6660   -6.8891   21.4253 O   0  0  0  0  0  0
  -22.3581  -14.5546   20.6639 O   0  0  0  0  0  0
  -24.6113  -31.8684   23.2108 C   0  0  0  0  0  0
  -25.9012  -32.4836   23.8413 C   0  0  1  0  0  0
  -27.2614  -27.4595   20.1257 C   0  0  0  0  0  0
  -25.5877  -33.8633   24.2352 N   0  0  0  0  0  0
  -23.4026  -30.4883   21.5460 C   0  0  2  0  0  0
  -24.8615  -28.9484   20.1210 C   0  0  0  0  0  0
  -22.7414  -29.4662   22.4968 C   0  0  0  0  0  0
  -18.0277  -28.1385   22.8493 C   0  0  0  0  0  0
  -24.1486  -36.7321   23.2637 C   0  0  0  0  0  0
  -25.9251  -30.8439   21.3606 C   0  0  0  0  0  0
  -26.0112  -29.4731   20.7249 C   0  0  0  0  0  0
  -27.2120  -28.7325   20.7334 C   0  0  0  0  0  0
  -26.1043  -26.9448   19.5065 C   0  0  0  0  0  0
  -24.8999  -27.6804   19.5104 C   0  0  0  0  0  0
  -23.6175  -29.8097   20.1632 C   0  0  0  0  0  0
  -25.4097  -36.3125   24.0344 C   0  0  1  0  0  0
  -20.5872  -28.3669   23.1320 C   0  0  2  0  0  0
  -20.6761  -26.9398   22.5418 C   0  0  0  0  0  0
  -19.5742  -26.6396   21.5213 C   0  0  0  0  0  0
  -18.1917  -26.7933   22.1619 C   0  0  0  0  0  0
  -19.1522  -28.8839   23.2913 C   0  0  0  0  0  0
  -18.9459  -30.1442   23.8925 C   0  0  0  0  0  0
  -17.6459  -30.6590   24.0570 C   0  0  0  0  0  0
  -25.9024  -34.9483   23.5150 C   0  0  0  0  0  0
  -16.5350  -29.9108   23.6310 C   0  0  0  0  0  0
  -16.7262  -28.6522   23.0335 C   0  0  0  0  0  0
  -26.4458  -31.6610   25.0732 C   0  0  0  0  0  0
  -25.3751  -31.3726   26.1510 C   0  0  0  0  0  0
  -27.0260  -30.3051   24.6067 C   0  0  0  0  0  0
  -27.6058  -32.4310   25.7468 C   0  0  0  0  0  0
  -27.5592  -37.1799   24.8450 C   0  0  0  0  0  0
  -21.4131  -29.3047   22.3723 N   0  0  0  0  0  0
  -26.4281  -37.3816   23.9437 N   0  0  0  0  0  0
  -24.6638  -31.0825   22.0981 N   0  0  0  0  0  0
  -23.4185  -28.8203   23.3006 O   0  0  0  0  0  0
  -28.4228  -26.7241   20.1071 O   0  0  0  0  0  0
  -26.5564  -34.8929   22.4707 O   0  0  0  0  0  0
  -23.5304  -32.1391   23.7505 O   0  0  0  0  0  0
  -30.5717  -22.3717   21.2470 C   0  0  0  0  0  0
  -29.1436  -23.1030   19.7011 C   0  0  0  0  0  0
  -30.1984  -23.5029   20.4638 C   0  0  0  0  0  0
  -29.7699  -21.3100   20.9146 C   0  0  0  0  0  0
  -27.9316  -21.2118   17.7077 C   0  0  0  0  0  0
  -26.4570  -21.4479   19.7728 C   0  0  0  0  0  0
  -30.8357  -24.8719   20.4287 C   0  0  0  0  0  0
  -29.7711  -19.9101   21.4887 C   0  0  0  0  0  0
  -30.2960  -25.8700   21.4678 C   0  0  0  0  0  0
  -29.9289  -16.8417   20.7868 C   0  0  0  0  0  0
  -30.9976  -17.7014   21.5060 C   0  0  0  0  0  0
  -28.7890  -26.1772   21.3786 C   0  0  0  0  0  0
  -27.8310  -21.0260   19.2325 C   0  0  0  0  0  0
  -28.8913  -21.7608   19.9245 N   0  0  0  0  0  0
  -29.9274  -15.4181   21.1450 N   0  0  0  0  0  0
  -30.9711  -19.1336   21.0974 N   0  3  0  0  0  0
  -31.4853  -12.4536   19.1087 H   0  0  0  0  0  0
  -30.3895  -11.2906   19.8007 H   0  0  0  0  0  0
  -29.7548  -11.7814   17.4285 H   0  0  0  0  0  0
  -29.6674  -13.4896   17.7639 H   0  0  0  0  0  0
  -27.8503  -11.3036   18.8188 H   0  0  0  0  0  0
  -27.3753  -12.6302   17.7870 H   0  0  0  0  0  0
  -27.7283  -14.2472   19.5918 H   0  0  0  0  0  0
  -28.6861  -11.9049   21.3069 H   0  0  0  0  0  0
  -28.4619  -13.5200   21.8911 H   0  0  0  0  0  0
  -25.2782   -9.5704   22.4714 H   0  0  0  0  0  0
  -24.0013   -7.4661   22.7484 H   0  0  0  0  0  0
  -21.0831   -8.8803   19.8981 H   0  0  0  0  0  0
  -22.3699  -10.9683   19.6156 H   0  0  0  0  0  0
  -21.2009   -7.6142   23.9720 H   0  0  0  0  0  0
  -21.1451   -6.0522   25.9081 H   0  0  0  0  0  0
  -22.0608   -2.7606   23.2864 H   0  0  0  0  0  0
  -22.4086  -11.9954   22.4841 H   0  0  0  0  0  0
  -21.1119  -13.1309   22.2522 H   0  0  0  0  0  0
  -24.6861  -15.8530   20.5241 H   0  0  0  0  0  0
  -26.2972  -15.6116   20.0758 H   0  0  0  0  0  0
  -26.7095  -32.5597   23.1198 H   0  0  0  0  0  0
  -25.0063  -33.9811   25.0516 H   0  0  0  0  0  0
  -22.6903  -31.3023   21.4007 H   0  0  0  0  0  0
  -23.3756  -35.9647   23.3267 H   0  0  0  0  0  0
  -24.3590  -36.8955   22.2056 H   0  0  0  0  0  0
  -23.7207  -37.6513   23.6649 H   0  0  0  0  0  0
  -26.0266  -31.6015   20.5813 H   0  0  0  0  0  0
  -26.8159  -30.9119   21.9714 H   0  0  0  0  0  0
  -28.0966  -29.1364   21.2060 H   0  0  0  0  0  0
  -26.1360  -25.9698   19.0388 H   0  0  0  0  0  0
  -24.0178  -27.2683   19.0387 H   0  0  0  0  0  0
  -23.7224  -30.5783   19.3965 H   0  0  0  0  0  0
  -22.7457  -29.2208   19.8704 H   0  0  0  0  0  0
  -25.1263  -36.1993   25.0833 H   0  0  0  0  0  0
  -20.9965  -28.3239   24.1441 H   0  0  0  0  0  0
  -20.5659  -26.2275   23.3612 H   0  0  0  0  0  0
  -21.6631  -26.7451   22.1221 H   0  0  0  0  0  0
  -19.6904  -25.6314   21.1222 H   0  0  0  0  0  0
  -19.6683  -27.3217   20.6749 H   0  0  0  0  0  0
  -17.4191  -26.6680   21.4016 H   0  0  0  0  0  0
  -18.0320  -26.0078   22.9022 H   0  0  0  0  0  0
  -19.7938  -30.7238   24.2324 H   0  0  0  0  0  0
  -17.5026  -31.6268   24.5179 H   0  0  0  0  0  0
  -15.5349  -30.3024   23.7627 H   0  0  0  0  0  0
  -15.8657  -28.0859   22.7017 H   0  0  0  0  0  0
  -24.5902  -30.7077   25.7882 H   0  0  0  0  0  0
  -24.8967  -32.2894   26.4977 H   0  0  0  0  0  0
  -25.8143  -30.8904   27.0255 H   0  0  0  0  0  0
  -26.2777  -29.6835   24.1127 H   0  0  0  0  0  0
  -27.4044  -29.7265   25.4507 H   0  0  0  0  0  0
  -27.8620  -30.4377   23.9188 H   0  0  0  0  0  0
  -27.2699  -33.3593   26.2098 H   0  0  0  0  0  0
  -28.3836  -32.6888   25.0268 H   0  0  0  0  0  0
  -28.0756  -31.8393   26.5336 H   0  0  0  0  0  0
  -28.2580  -38.0129   24.7567 H   0  0  0  0  0  0
  -28.1115  -36.2668   24.6176 H   0  0  0  0  0  0
  -27.2329  -37.1325   25.8854 H   0  0  0  0  0  0
  -20.9272  -29.8801   21.6977 H   0  0  0  0  0  0
  -26.0170  -38.2892   24.1478 H   0  0  0  0  0  0
  -31.3660  -22.3366   21.9812 H   0  0  0  0  0  0
  -28.5543  -23.6679   18.9902 H   0  0  0  0  0  0
  -27.2318  -20.5595   17.1866 H   0  0  0  0  0  0
  -28.9323  -20.9672   17.3508 H   0  0  0  0  0  0
  -27.7103  -22.2350   17.4027 H   0  0  0  0  0  0
  -25.6601  -20.8409   19.3420 H   0  0  0  0  0  0
  -26.2420  -22.4939   19.5436 H   0  0  0  0  0  0
  -26.4127  -21.3306   20.8565 H   0  0  0  0  0  0
  -30.6949  -25.2806   19.4272 H   0  0  0  0  0  0
  -31.9114  -24.7503   20.5541 H   0  0  0  0  0  0
  -28.8705  -19.3793   21.1984 H   0  0  0  0  0  0
  -29.7257  -19.9704   22.5770 H   0  0  0  0  0  0
  -30.8535  -26.8042   21.3804 H   0  0  0  0  0  0
  -30.5147  -25.4862   22.4661 H   0  0  0  0  0  0
  -30.0162  -16.9437   19.7031 H   0  0  0  0  0  0
  -28.9328  -17.2033   21.0415 H   0  0  0  0  0  0
  -31.9906  -17.3093   21.2803 H   0  0  0  0  0  0
  -30.8781  -17.6347   22.5888 H   0  0  0  0  0  0
  -28.5380  -26.8653   22.1885 H   0  0  0  0  0  0
  -28.2146  -25.2687   21.5617 H   0  0  0  0  0  0
  -27.9544  -19.9609   19.4111 H   0  0  0  0  0  0
  -29.0834  -15.0801   21.5830 H   0  0  0  0  0  0
  -31.7635  -19.5841   21.5258 H   0  0  0  0  0  0
  -31.0941  -19.2087   20.1013 H   0  0  0  0  0  0
  1 25  1  0  0  0
  1 30  2  0  0  0
  1 85  1  0  0  0
  2  3  1  0  0  0
  2 25  1  0  0  0
  2 87  1  0  0  0
  2 88  1  0  0  0
  3  4  1  0  0  0
  3 89  1  0  0  0
  3 90  1  0  0  0
  4  5  1  0  0  0
  4 91  1  0  0  0
  4 92  1  0  0  0
  5  6  1  0  0  0
  5 26  1  0  0  0
  5 93  1  0  0  0
  6 25  1  0  0  0
  6 94  1  0  0  0
  6 95  1  0  0  0
  7  8  2  0  0  0
  7 26  1  0  0  0
  7 29  1  0  0  0
  8  9  1  0  0  0
  8 22  1  0  0  0
  9 10  1  0  0  0
  9 27  2  0  0  0
 10 11  2  0  0  0
 10 15  1  0  0  0
 11 12  1  0  0  0
 11 96  1  0  0  0
 12 13  2  0  0  0
 12 97  1  0  0  0
 13 14  1  0  0  0
 13 31  1  0  0  0
 14 15  2  0  0  0
 14 98  1  0  0  0
 15 99  1  0  0  0
 16 17  2  0  0  0
 16 21  1  0  0  0
 16 31  1  0  0  0
 17 18  1  0  0  0
 17100  1  0  0  0
 18 19  2  0  0  0
 18101  1  0  0  0
 19 20  1  0  0  0
 19 24  1  0  0  0
 20 21  2  0  0  0
 20102  1  0  0  0
 21 23  1  0  0  0
 22 28  1  0  0  0
 22 32  2  0  0  0
 26 27  1  0  0  0
 28103  1  0  0  0
 28104  1  0  0  0
 29105  1  0  0  0
 29106  1  0  0  0
 33 34  1  0  0  0
 33 66  1  0  0  0
 33 70  2  0  0  0
 34 36  1  0  0  0
 34 59  1  0  0  0
 34107  1  0  0  0
 35 44  2  0  0  0
 35 45  1  0  0  0
 35 68  1  0  0  0
 36 56  1  0  0  0
 36108  1  0  0  0
 37 39  1  0  0  0
 37 47  1  0  0  0
 37 66  1  0  0  0
 37109  1  0  0  0
 38 43  2  0  0  0
 38 46  1  0  0  0
 38 47  1  0  0  0
 39 64  1  0  0  0
 39 67  2  0  0  0
 40 52  1  0  0  0
 40 53  2  0  0  0
 40 58  1  0  0  0
 41110  1  0  0  0
 41111  1  0  0  0
 41112  1  0  0  0
 41 48  1  0  0  0
 42 43  1  0  0  0
 42 66  1  0  0  0
 42113  1  0  0  0
 42114  1  0  0  0
 43 44  1  0  0  0
 44115  1  0  0  0
 45 46  2  0  0  0
 45116  1  0  0  0
 46117  1  0  0  0
 47118  1  0  0  0
 47119  1  0  0  0
 48 56  1  0  0  0
 48 65  1  0  0  0
 48120  1  0  0  0
 49 50  1  0  0  0
 49 53  1  0  0  0
 49 64  1  0  0  0
 49121  1  0  0  0
 50 51  1  0  0  0
 50122  1  0  0  0
 50123  1  0  0  0
 51 52  1  0  0  0
 51124  1  0  0  0
 51125  1  0  0  0
 52126  1  0  0  0
 52127  1  0  0  0
 53 54  1  0  0  0
 54 55  2  0  0  0
 54128  1  0  0  0
 55 57  1  0  0  0
 55129  1  0  0  0
 56 69  2  0  0  0
 57 58  2  0  0  0
 57130  1  0  0  0
 58131  1  0  0  0
 59 60  1  0  0  0
 59 61  1  0  0  0
 59 62  1  0  0  0
 60132  1  0  0  0
 60133  1  0  0  0
 60134  1  0  0  0
 61135  1  0  0  0
 61136  1  0  0  0
 61137  1  0  0  0
 62138  1  0  0  0
 62139  1  0  0  0
 62140  1  0  0  0
 63 65  1  0  0  0
 63141  1  0  0  0
 63142  1  0  0  0
 63143  1  0  0  0
 64144  1  0  0  0
 65145  1  0  0  0
 68 82  1  0  0  0
 71 73  1  0  0  0
 71 74  2  0  0  0
 71146  1  0  0  0
 72 73  2  0  0  0
 72 84  1  0  0  0
 72147  1  0  0  0
 73 77  1  0  0  0
 74 78  1  0  0  0
 74 84  1  0  0  0
 75148  1  0  0  0
 75149  1  0  0  0
 75150  1  0  0  0
 75 83  1  0  0  0
 76 83  1  0  0  0
 76151  1  0  0  0
 76152  1  0  0  0
 76153  1  0  0  0
 77 79  1  0  0  0
 77154  1  0  0  0
 77155  1  0  0  0
 78 86  1  0  0  0
 78156  1  0  0  0
 78157  1  0  0  0
 79 82  1  0  0  0
 79158  1  0  0  0
 79159  1  0  0  0
 80 81  1  0  0  0
 80 85  1  0  0  0
 80160  1  0  0  0
 80161  1  0  0  0
 81 86  1  0  0  0
 81162  1  0  0  0
 81163  1  0  0  0
 82164  1  0  0  0
 82165  1  0  0  0
 83 84  1  0  0  0
 83166  1  0  0  0
 85167  1  0  0  0
 86168  1  0  0  0
 86169  1  0  0  0
M  CHG  1  86   1
M  ISO  4   1 100  68 101  82 101  85 100
M  END
> <chiral flag>
0

> <version>
0

> <s_m_source_file>
/data/baiqing/PycharmProjects/Reinvent-master-3.2/result/LINK_invent/BTK/process_docking_weight1_custom_sum_contain_oxygen_bond_distance_aromatic_linkinvent_7_9_3/rearranged_h_0124.sdf

> <i_m_source_file_index>
76

> <r_mmod_Potential_Energy-OPLS-2005>
-330.607788085938

> <r_mmod_Stretch_Energy-OPLS-2005>
34.4916114807129

> <r_mmod_Bend_Energy-OPLS-2005>
97.247314453125

> <r_mmod_Torsional_Energy-OPLS-2005>
254.859786987305

> <r_mmod_Improper_Torsional_Energy-OPLS-2005>
6.12216472625732

> <r_mmod_Van_der_Waal_Energy-OPLS-2005>
121.035903930664

> <r_mmod_Electrostatic_Energy-OPLS-2005>
-394.292175292969

> <r_mmod_Solvation_Energy-OPLS-2005>
-460.812957763672

> <b_mmod_Minimization_Converged-OPLS-2005>
0

> <r_mmod_RMS_Derivative-OPLS-2005>
3.94739985466003

$$$$
76
                    3D
 Structure written by MMmdl.
165174  0  0  1  0            999 V2000
  -30.6348  -14.5110   20.5966 C   0  0  0  0  0  0
  -30.4462  -12.3403   19.4119 C   0  0  0  0  0  0
  -29.5014  -12.5269   18.2035 C   0  0  0  0  0  0
  -28.0219  -12.3738   18.6146 C   0  0  0  0  0  0
  -27.6672  -13.1963   19.8811 C   0  0  2  0  0  0
  -28.7089  -12.9338   20.9918 C   0  0  0  0  0  0
  -25.2619  -13.8134   20.5674 C   0  0  0  0  0  0
  -24.1855  -13.0429   20.9167 C   0  0  0  0  0  0
  -24.6391  -11.6890   20.8728 C   0  0  0  0  0  0
  -23.9051  -10.4287   21.0409 C   0  0  0  0  0  0
  -24.3607   -9.4203   21.9185 C   0  0  0  0  0  0
  -23.6286   -8.2238   22.0758 C   0  0  0  0  0  0
  -22.4269   -8.0277   21.3543 C   0  0  0  0  0  0
  -21.9901   -9.0251   20.4643 C   0  0  0  0  0  0
  -22.7227  -10.2131   20.3053 C   0  0  0  0  0  0
  -21.6851   -6.0731   22.5281 C   0  0  0  0  0  0
  -21.4012   -6.5637   23.8214 C   0  0  0  0  0  0
  -21.3659   -5.6792   24.9178 C   0  0  0  0  0  0
  -21.6048   -4.3054   24.7229 C   0  0  0  0  0  0
  -21.8820   -3.8143   23.4350 C   0  0  0  0  0  0
  -21.9191   -4.6958   22.3404 C   0  0  0  0  0  0
  -22.7879  -13.5236   21.1838 C   0  0  0  0  0  0
  -22.1658   -4.2145   21.0983 F   0  0  0  0  0  0
  -21.5633   -3.4537   25.7739 F   0  0  0  0  0  0
  -30.0390  -13.2921   20.4579 N   0  0  0  0  0  0
  -26.3049  -12.9280   20.3369 N   0  0  0  0  0  0
  -25.9313  -11.6452   20.5750 N   0  0  0  0  0  0
  -22.0509  -12.8234   22.0391 N   0  0  0  0  0  0
  -25.4367  -15.1855   20.4088 N   0  0  0  0  0  0
  -31.7246  -14.7939   20.0885 O   0  0  0  0  0  0
  -21.6636   -6.8874   21.4242 O   0  0  0  0  0  0
  -22.3569  -14.5546   20.6686 O   0  0  0  0  0  0
  -24.6171  -31.8652   23.2069 C   0  0  0  0  0  0
  -25.9052  -32.4807   23.8377 C   0  0  1  0  0  0
  -27.2408  -27.4062   20.1078 C   0  0  0  0  0  0
  -25.5901  -33.8606   24.2314 N   0  0  0  0  0  0
  -23.4067  -30.4861   21.5482 C   0  0  2  0  0  0
  -24.8544  -28.9386   20.1232 C   0  0  0  0  0  0
  -22.7420  -29.4648   22.4990 C   0  0  0  0  0  0
  -18.0268  -28.1377   22.8496 C   0  0  0  0  0  0
  -24.1490  -36.7305   23.2640 C   0  0  0  0  0  0
  -25.9376  -30.8210   21.3640 C   0  0  0  0  0  0
  -26.0159  -29.4511   20.7149 C   0  0  0  0  0  0
  -27.2131  -28.6950   20.6968 C   0  0  0  0  0  0
  -26.0604  -26.9073   19.5187 C   0  0  0  0  0  0
  -24.8724  -27.6666   19.5224 C   0  0  0  0  0  0
  -23.6179  -29.8102   20.1666 C   0  0  0  0  0  0
  -25.4112  -36.3101   24.0337 C   0  0  1  0  0  0
  -20.5860  -28.3668   23.1315 C   0  0  2  0  0  0
  -20.6759  -26.9402   22.5415 C   0  0  0  0  0  0
  -19.5738  -26.6383   21.5213 C   0  0  0  0  0  0
  -18.1915  -26.7926   22.1622 C   0  0  0  0  0  0
  -19.1518  -28.8839   23.2903 C   0  0  0  0  0  0
  -18.9449  -30.1448   23.8908 C   0  0  0  0  0  0
  -17.6453  -30.6587   24.0564 C   0  0  0  0  0  0
  -25.9039  -34.9466   23.5125 C   0  0  0  0  0  0
  -16.5343  -29.9090   23.6329 C   0  0  0  0  0  0
  -16.7258  -28.6502   23.0356 C   0  0  0  0  0  0
  -26.4480  -31.6589   25.0712 C   0  0  0  0  0  0
  -25.3742  -31.3681   26.1454 C   0  0  0  0  0  0
  -27.0326  -30.3034   24.6099 C   0  0  0  0  0  0
  -27.6054  -32.4311   25.7479 C   0  0  0  0  0  0
  -27.5583  -37.1805   24.8466 C   0  0  0  0  0  0
  -21.4144  -29.3035   22.3724 N   0  0  0  0  0  0
  -26.4297  -37.3788   23.9410 N   0  0  0  0  0  0
  -24.6720  -31.0731   22.0979 N   0  0  0  0  0  0
  -23.4176  -28.8195   23.3048 O   0  0  0  0  0  0
  -28.4264  -26.6817   20.0473 O   0  0  0  0  0  0
  -26.5603  -34.8923   22.4688 O   0  0  0  0  0  0
  -23.5356  -32.1416   23.7446 O   0  0  0  0  0  0
  -28.6707  -17.3696   21.9569 C   0  0  0  0  0  0
  -28.4850  -18.7619   21.9847 C   0  0  0  0  0  0
  -30.5944  -17.7286   20.5531 C   0  0  0  0  0  0
  -29.7560  -16.8197   21.2474 C   0  0  0  0  0  0
  -29.3875  -19.6001   21.3059 C   0  0  0  0  0  0
  -31.4876  -22.0748   21.7931 C   0  0  0  0  0  0
  -30.2644  -21.6122   22.5781 C   0  0  0  0  0  0
  -30.8794  -22.6559   20.5168 C   0  0  0  0  0  0
  -29.2804  -21.1332   21.4992 C   0  0  1  0  0  0
  -27.4196  -21.8696   19.0743 C   0  0  0  0  0  0
  -27.8831  -23.9206   20.5447 C   0  0  0  0  0  0
  -28.5553  -25.3438   20.6211 C   0  0  0  0  0  0
  -28.5232  -22.7786   19.6525 C   0  0  1  0  0  0
  -30.4134  -19.0834   20.5772 N   0  0  0  0  0  0
  -29.8893  -15.3900   21.2996 N   0  0  0  0  0  0
  -29.6055  -21.9323   20.2802 N   0  3  1  0  0  0
  -31.4842  -12.4866   19.1073 H   0  0  0  0  0  0
  -30.3873  -11.3188   19.7909 H   0  0  0  0  0  0
  -29.7461  -11.8098   17.4188 H   0  0  0  0  0  0
  -29.6559  -13.5162   17.7699 H   0  0  0  0  0  0
  -27.8343  -11.3152   18.7981 H   0  0  0  0  0  0
  -27.3702  -12.6581   17.7873 H   0  0  0  0  0  0
  -27.7212  -14.2497   19.6063 H   0  0  0  0  0  0
  -28.7020  -11.8783   21.2681 H   0  0  0  0  0  0
  -28.4484  -13.4613   21.9099 H   0  0  0  0  0  0
  -25.2757   -9.5680   22.4750 H   0  0  0  0  0  0
  -23.9996   -7.4632   22.7481 H   0  0  0  0  0  0
  -21.0830   -8.8768   19.8946 H   0  0  0  0  0  0
  -22.3690  -10.9670   19.6157 H   0  0  0  0  0  0
  -21.2003   -7.6147   23.9712 H   0  0  0  0  0  0
  -21.1482   -6.0527   25.9082 H   0  0  0  0  0  0
  -22.0599   -2.7605   23.2855 H   0  0  0  0  0  0
  -22.4112  -11.9886   22.4775 H   0  0  0  0  0  0
  -21.1127  -13.1267   22.2590 H   0  0  0  0  0  0
  -24.6694  -15.8413   20.5103 H   0  0  0  0  0  0
  -26.2868  -15.6199   20.0729 H   0  0  0  0  0  0
  -26.7121  -32.5517   23.1139 H   0  0  0  0  0  0
  -25.0060  -33.9771   25.0466 H   0  0  0  0  0  0
  -22.6962  -31.3027   21.4040 H   0  0  0  0  0  0
  -23.3757  -35.9632   23.3304 H   0  0  0  0  0  0
  -24.3576  -36.8920   22.2051 H   0  0  0  0  0  0
  -23.7241  -37.6507   23.6662 H   0  0  0  0  0  0
  -26.0522  -31.5840   20.5927 H   0  0  0  0  0  0
  -26.8247  -30.8764   21.9832 H   0  0  0  0  0  0
  -28.1146  -29.0948   21.1400 H   0  0  0  0  0  0
  -26.0612  -25.9393   19.0388 H   0  0  0  0  0  0
  -23.9799  -27.2665   19.0613 H   0  0  0  0  0  0
  -23.7306  -30.5817   19.4041 H   0  0  0  0  0  0
  -22.7415  -29.2303   19.8717 H   0  0  0  0  0  0
  -25.1290  -36.1960   25.0831 H   0  0  0  0  0  0
  -20.9948  -28.3236   24.1439 H   0  0  0  0  0  0
  -20.5666  -26.2276   23.3604 H   0  0  0  0  0  0
  -21.6632  -26.7447   22.1210 H   0  0  0  0  0  0
  -19.6905  -25.6296   21.1231 H   0  0  0  0  0  0
  -19.6681  -27.3203   20.6752 H   0  0  0  0  0  0
  -17.4190  -26.6687   21.4018 H   0  0  0  0  0  0
  -18.0306  -26.0062   22.9008 H   0  0  0  0  0  0
  -19.7927  -30.7258   24.2284 H   0  0  0  0  0  0
  -17.5012  -31.6272   24.5159 H   0  0  0  0  0  0
  -15.5347  -30.2998   23.7654 H   0  0  0  0  0  0
  -15.8656  -28.0829   22.7073 H   0  0  0  0  0  0
  -24.5925  -30.7023   25.7780 H   0  0  0  0  0  0
  -24.8919  -32.2826   26.4914 H   0  0  0  0  0  0
  -25.8090  -30.8837   27.0205 H   0  0  0  0  0  0
  -26.2875  -29.6773   24.1178 H   0  0  0  0  0  0
  -27.4129  -29.7291   25.4557 H   0  0  0  0  0  0
  -27.8692  -30.4360   23.9233 H   0  0  0  0  0  0
  -27.2678  -33.3609   26.2072 H   0  0  0  0  0  0
  -28.3856  -32.6869   25.0298 H   0  0  0  0  0  0
  -28.0734  -31.8422   26.5378 H   0  0  0  0  0  0
  -28.2599  -38.0104   24.7521 H   0  0  0  0  0  0
  -28.1082  -36.2634   24.6292 H   0  0  0  0  0  0
  -27.2296  -37.1448   25.8868 H   0  0  0  0  0  0
  -20.9309  -29.8745   21.6934 H   0  0  0  0  0  0
  -26.0184  -38.2869   24.1410 H   0  0  0  0  0  0
  -27.9860  -16.7318   22.4985 H   0  0  0  0  0  0
  -27.6732  -19.1780   22.5661 H   0  0  0  0  0  0
  -31.4373  -17.3808   19.9751 H   0  0  0  0  0  0
  -32.1231  -21.2221   21.5492 H   0  0  0  0  0  0
  -32.0950  -22.7993   22.3363 H   0  0  0  0  0  0
  -29.8355  -22.4677   23.1013 H   0  0  0  0  0  0
  -30.4899  -20.8524   23.3272 H   0  0  0  0  0  0
  -31.5508  -22.5627   19.6625 H   0  0  0  0  0  0
  -30.6982  -23.7193   20.6663 H   0  0  0  0  0  0
  -28.2633  -21.3444   21.8294 H   0  0  0  0  0  0
  -26.7173  -22.4467   18.4717 H   0  0  0  0  0  0
  -26.8434  -21.3749   19.8568 H   0  0  0  0  0  0
  -27.8331  -21.0971   18.4248 H   0  0  0  0  0  0
  -26.8385  -24.0518   20.2513 H   0  0  0  0  0  0
  -27.8044  -23.5409   21.5632 H   0  0  0  0  0  0
  -27.8878  -25.6296   21.4369 H   0  0  0  0  0  0
  -28.3302  -25.2630   19.5573 H   0  0  0  0  0  0
  -28.9844  -23.2545   18.7848 H   0  0  0  0  0  0
  -29.1294  -14.9252   21.7736 H   0  0  0  0  0  0
  -29.8407  -21.2039   19.6177 H   0  0  0  0  0  0
  1 25  1  0  0  0
  1 30  2  0  0  0
  1 85  1  0  0  0
  2  3  1  0  0  0
  2 25  1  0  0  0
  2 87  1  0  0  0
  2 88  1  0  0  0
  3  4  1  0  0  0
  3 89  1  0  0  0
  3 90  1  0  0  0
  4  5  1  0  0  0
  4 91  1  0  0  0
  4 92  1  0  0  0
  5  6  1  0  0  0
  5 26  1  0  0  0
  5 93  1  0  0  0
  6 25  1  0  0  0
  6 94  1  0  0  0
  6 95  1  0  0  0
  7  8  2  0  0  0
  7 26  1  0  0  0
  7 29  1  0  0  0
  8  9  1  0  0  0
  8 22  1  0  0  0
  9 10  1  0  0  0
  9 27  2  0  0  0
 10 11  2  0  0  0
 10 15  1  0  0  0
 11 12  1  0  0  0
 11 96  1  0  0  0
 12 13  2  0  0  0
 12 97  1  0  0  0
 13 14  1  0  0  0
 13 31  1  0  0  0
 14 15  2  0  0  0
 14 98  1  0  0  0
 15 99  1  0  0  0
 16 17  2  0  0  0
 16 21  1  0  0  0
 16 31  1  0  0  0
 17 18  1  0  0  0
 17100  1  0  0  0
 18 19  2  0  0  0
 18101  1  0  0  0
 19 20  1  0  0  0
 19 24  1  0  0  0
 20 21  2  0  0  0
 20102  1  0  0  0
 21 23  1  0  0  0
 22 28  1  0  0  0
 22 32  2  0  0  0
 26 27  1  0  0  0
 28103  1  0  0  0
 28104  1  0  0  0
 29105  1  0  0  0
 29106  1  0  0  0
 33 34  1  0  0  0
 33 66  1  0  0  0
 33 70  2  0  0  0
 34 36  1  0  0  0
 34 59  1  0  0  0
 34107  1  0  0  0
 35 44  2  0  0  0
 35 45  1  0  0  0
 35 68  1  0  0  0
 36 56  1  0  0  0
 36108  1  0  0  0
 37 39  1  0  0  0
 37 47  1  0  0  0
 37 66  1  0  0  0
 37109  1  0  0  0
 38 43  2  0  0  0
 38 46  1  0  0  0
 38 47  1  0  0  0
 39 64  1  0  0  0
 39 67  2  0  0  0
 40 52  1  0  0  0
 40 53  2  0  0  0
 40 58  1  0  0  0
 41110  1  0  0  0
 41111  1  0  0  0
 41112  1  0  0  0
 41 48  1  0  0  0
 42 43  1  0  0  0
 42 66  1  0  0  0
 42113  1  0  0  0
 42114  1  0  0  0
 43 44  1  0  0  0
 44115  1  0  0  0
 45 46  2  0  0  0
 45116  1  0  0  0
 46117  1  0  0  0
 47118  1  0  0  0
 47119  1  0  0  0
 48 56  1  0  0  0
 48 65  1  0  0  0
 48120  1  0  0  0
 49 50  1  0  0  0
 49 53  1  0  0  0
 49 64  1  0  0  0
 49121  1  0  0  0
 50 51  1  0  0  0
 50122  1  0  0  0
 50123  1  0  0  0
 51 52  1  0  0  0
 51124  1  0  0  0
 51125  1  0  0  0
 52126  1  0  0  0
 52127  1  0  0  0
 53 54  1  0  0  0
 54 55  2  0  0  0
 54128  1  0  0  0
 55 57  1  0  0  0
 55129  1  0  0  0
 56 69  2  0  0  0
 57 58  2  0  0  0
 57130  1  0  0  0
 58131  1  0  0  0
 59 60  1  0  0  0
 59 61  1  0  0  0
 59 62  1  0  0  0
 60132  1  0  0  0
 60133  1  0  0  0
 60134  1  0  0  0
 61135  1  0  0  0
 61136  1  0  0  0
 61137  1  0  0  0
 62138  1  0  0  0
 62139  1  0  0  0
 62140  1  0  0  0
 63 65  1  0  0  0
 63141  1  0  0  0
 63142  1  0  0  0
 63143  1  0  0  0
 64144  1  0  0  0
 65145  1  0  0  0
 68 82  1  0  0  0
 71 72  2  0  0  0
 71 74  1  0  0  0
 71146  1  0  0  0
 72 75  1  0  0  0
 72147  1  0  0  0
 73 74  2  0  0  0
 73 84  1  0  0  0
 73148  1  0  0  0
 74 85  1  0  0  0
 75 84  2  0  0  0
 75 79  1  0  0  0
 76 77  1  0  0  0
 76 78  1  0  0  0
 76149  1  0  0  0
 76150  1  0  0  0
 77 79  1  0  0  0
 77151  1  0  0  0
 77152  1  0  0  0
 78153  1  0  0  0
 78154  1  0  0  0
 78 86  1  0  0  0
 79 86  1  0  0  0
 79155  1  0  0  0
 80156  1  0  0  0
 80157  1  0  0  0
 80158  1  0  0  0
 80 83  1  0  0  0
 81 82  1  0  0  0
 81 83  1  0  0  0
 81159  1  0  0  0
 81160  1  0  0  0
 82161  1  0  0  0
 82162  1  0  0  0
 83 86  1  0  0  0
 83163  1  0  0  0
 85164  1  0  0  0
 86165  1  0  0  0
M  CHG  1  86   1
M  ISO  4   1 100  68 101  82 101  85 100
M  END
> <chiral flag>
0

> <version>
0

> <s_m_source_file>
/data/baiqing/PycharmProjects/Reinvent-master-3.2/result/LINK_invent/BTK/process_docking_weight1_custom_sum_contain_oxygen_bond_distance_aromatic_linkinvent_7_9_3/rearranged_h_0124.sdf

> <i_m_source_file_index>
77

> <r_mmod_Potential_Energy-OPLS-2005>
1.49885261058807

> <r_mmod_Stretch_Energy-OPLS-2005>
52.7866020202637

> <r_mmod_Bend_Energy-OPLS-2005>
389.106262207031

> <r_mmod_Torsional_Energy-OPLS-2005>
304.51611328125

> <r_mmod_Improper_Torsional_Energy-OPLS-2005>
3.61610436439514

> <r_mmod_Van_der_Waal_Energy-OPLS-2005>
152.700256347656

> <r_mmod_Electrostatic_Energy-OPLS-2005>
-486.986602783203

> <r_mmod_Solvation_Energy-OPLS-2005>
-431.425598144531

> <b_mmod_Minimization_Converged-OPLS-2005>
0

> <r_mmod_RMS_Derivative-OPLS-2005>
0.722914040088654

$$$$
77
                    3D
 Structure written by MMmdl.
175184  0  0  1  0            999 V2000
  -30.6113  -14.7812   20.4275 C   0  0  0  0  0  0
  -30.4262  -12.4789   19.4657 C   0  0  0  0  0  0
  -29.5128  -12.5405   18.2232 C   0  0  0  0  0  0
  -28.0310  -12.3848   18.6158 C   0  0  0  0  0  0
  -27.6367  -13.2518   19.8434 C   0  0  2  0  0  0
  -28.6820  -13.2000   20.9760 C   0  0  0  0  0  0
  -25.2497  -13.8234   20.5681 C   0  0  0  0  0  0
  -24.1814  -13.0426   20.9164 C   0  0  0  0  0  0
  -24.6428  -11.6920   20.8667 C   0  0  0  0  0  0
  -23.9115  -10.4272   21.0347 C   0  0  0  0  0  0
  -24.3660   -9.4204   21.9134 C   0  0  0  0  0  0
  -23.6315   -8.2263   22.0761 C   0  0  0  0  0  0
  -22.4294   -8.0288   21.3575 C   0  0  0  0  0  0
  -21.9942   -9.0247   20.4655 C   0  0  0  0  0  0
  -22.7286  -10.2113   20.3014 C   0  0  0  0  0  0
  -21.6897   -6.0720   22.5266 C   0  0  0  0  0  0
  -21.4050   -6.5623   23.8192 C   0  0  0  0  0  0
  -21.3670   -5.6792   24.9168 C   0  0  0  0  0  0
  -21.6048   -4.3051   24.7218 C   0  0  0  0  0  0
  -21.8832   -3.8129   23.4346 C   0  0  0  0  0  0
  -21.9225   -4.6945   22.3404 C   0  0  0  0  0  0
  -22.7822  -13.5177   21.1824 C   0  0  0  0  0  0
  -22.1671   -4.2109   21.0995 F   0  0  0  0  0  0
  -21.5632   -3.4562   25.7749 F   0  0  0  0  0  0
  -29.9707  -13.5567   20.3807 N   0  0  0  0  0  0
  -26.2953  -12.9464   20.3265 N   0  0  0  0  0  0
  -25.9372  -11.6581   20.5660 N   0  0  0  0  0  0
  -22.0504  -12.8117   22.0393 N   0  0  0  0  0  0
  -25.4050  -15.1966   20.4114 N   0  0  0  0  0  0
  -31.8177  -14.7900   20.1883 O   0  0  0  0  0  0
  -21.6672   -6.8878   21.4243 O   0  0  0  0  0  0
  -22.3447  -14.5436   20.6672 O   0  0  0  0  0  0
  -24.6342  -31.8505   23.1940 C   0  0  0  0  0  0
  -25.9162  -32.4702   23.8296 C   0  0  1  0  0  0
  -27.1935  -27.2086   20.1418 C   0  0  0  0  0  0
  -25.5965  -33.8512   24.2239 N   0  0  0  0  0  0
  -23.4280  -30.4775   21.5378 C   0  0  2  0  0  0
  -24.8678  -28.9161   20.1034 C   0  0  0  0  0  0
  -22.7500  -29.4577   22.4853 C   0  0  0  0  0  0
  -18.0285  -28.1357   22.8459 C   0  0  0  0  0  0
  -24.1518  -36.7251   23.2655 C   0  0  0  0  0  0
  -25.9767  -30.7495   21.3747 C   0  0  0  0  0  0
  -26.0427  -29.3677   20.7184 C   0  0  0  0  0  0
  -27.2061  -28.5269   20.7248 C   0  0  0  0  0  0
  -25.9991  -26.8352   19.4925 C   0  0  0  0  0  0
  -24.8555  -27.6602   19.4779 C   0  0  0  0  0  0
  -23.6469  -29.8162   20.1502 C   0  0  0  0  0  0
  -25.4146  -36.3034   24.0334 C   0  0  1  0  0  0
  -20.5889  -28.3686   23.1219 C   0  0  2  0  0  0
  -20.6755  -26.9382   22.5389 C   0  0  0  0  0  0
  -19.5744  -26.6351   21.5168 C   0  0  0  0  0  0
  -18.1914  -26.7897   22.1578 C   0  0  0  0  0  0
  -19.1535  -28.8836   23.2832 C   0  0  0  0  0  0
  -18.9470  -30.1430   23.8868 C   0  0  0  0  0  0
  -17.6471  -30.6563   24.0551 C   0  0  0  0  0  0
  -25.9086  -34.9404   23.5085 C   0  0  0  0  0  0
  -16.5364  -29.9065   23.6313 C   0  0  0  0  0  0
  -16.7270  -28.6470   23.0351 C   0  0  0  0  0  0
  -26.4542  -31.6518   25.0682 C   0  0  0  0  0  0
  -25.3778  -31.3568   26.1391 C   0  0  0  0  0  0
  -27.0433  -30.2956   24.6141 C   0  0  0  0  0  0
  -27.6085  -32.4255   25.7486 C   0  0  0  0  0  0
  -27.5590  -37.1796   24.8477 C   0  0  0  0  0  0
  -21.4198  -29.3052   22.3617 N   0  0  0  0  0  0
  -26.4305  -37.3746   23.9412 N   0  0  0  0  0  0
  -24.6992  -31.0461   22.0908 N   0  0  0  0  0  0
  -23.4191  -28.8109   23.2945 O   0  0  0  0  0  0
  -28.2760  -26.2944   20.2280 O   0  0  0  0  0  0
  -26.5655  -34.8896   22.4658 O   0  0  0  0  0  0
  -23.5486  -32.1360   23.7222 O   0  0  0  0  0  0
  -27.7549  -22.4369   21.2650 C   0  0  0  0  0  0
  -29.6770  -22.5031   19.7175 C   0  0  0  0  0  0
  -27.2323  -23.8630   20.7495 C   0  0  0  0  0  0
  -29.5787  -24.0784   19.9823 C   0  0  0  0  0  0
  -31.6988  -17.5490   19.6758 C   0  0  0  0  0  0
  -31.8892  -18.9923   19.2998 C   0  0  0  0  0  0
  -28.5745  -21.5255   20.2742 C   0  0  1  0  0  0
  -30.3809  -17.4686   20.4691 C   0  0  1  0  0  0
  -28.1895  -24.8048   19.9131 C   0  0  2  0  0  0
  -29.5587  -18.8050   19.8845 C   0  0  1  0  0  0
  -30.5539  -20.2402   15.1724 C   0  0  0  0  0  0
  -31.9806  -21.3489   16.9509 C   0  0  0  0  0  0
  -29.0497  -20.0385   20.8370 C   0  0  0  0  0  0
  -30.1409  -19.5605   17.5674 C   0  0  0  0  0  0
  -31.2084  -20.0646   16.5545 C   0  0  0  0  0  0
  -29.8814  -15.9829   20.5195 N   0  0  0  0  0  0
  -30.5403  -19.5061   19.0047 N   0  3  2  0  0  0
  -31.4649  -12.6026   19.1522 H   0  0  0  0  0  0
  -30.3709  -11.5019   19.9455 H   0  0  0  0  0  0
  -29.7883  -11.7724   17.4971 H   0  0  0  0  0  0
  -29.6623  -13.5000   17.7245 H   0  0  0  0  0  0
  -27.8413  -11.3307   18.8155 H   0  0  0  0  0  0
  -27.4044  -12.6556   17.7626 H   0  0  0  0  0  0
  -27.6207  -14.2814   19.4797 H   0  0  0  0  0  0
  -28.7190  -12.2021   21.4199 H   0  0  0  0  0  0
  -28.4194  -13.8971   21.7729 H   0  0  0  0  0  0
  -25.2832   -9.5652   22.4680 H   0  0  0  0  0  0
  -24.0038   -7.4652   22.7474 H   0  0  0  0  0  0
  -21.0902   -8.8760   19.8905 H   0  0  0  0  0  0
  -22.3776  -10.9650   19.6080 H   0  0  0  0  0  0
  -21.2008   -7.6117   23.9655 H   0  0  0  0  0  0
  -21.1492   -6.0543   25.9070 H   0  0  0  0  0  0
  -22.0578   -2.7586   23.2886 H   0  0  0  0  0  0
  -22.4248  -11.9899   22.4884 H   0  0  0  0  0  0
  -21.1050  -13.1021   22.2494 H   0  0  0  0  0  0
  -24.6182  -15.8308   20.5056 H   0  0  0  0  0  0
  -26.2296  -15.6562   20.0448 H   0  0  0  0  0  0
  -26.7215  -32.5324   23.1015 H   0  0  0  0  0  0
  -25.0162  -33.9659   25.0418 H   0  0  0  0  0  0
  -22.7270  -31.2996   21.3928 H   0  0  0  0  0  0
  -23.3794  -35.9565   23.3283 H   0  0  0  0  0  0
  -24.3623  -36.8910   22.2076 H   0  0  0  0  0  0
  -23.7250  -37.6431   23.6717 H   0  0  0  0  0  0
  -26.1256  -31.5066   20.6050 H   0  0  0  0  0  0
  -26.8511  -30.7939   22.0112 H   0  0  0  0  0  0
  -28.1004  -28.8689   21.2267 H   0  0  0  0  0  0
  -25.9210  -25.8706   19.0148 H   0  0  0  0  0  0
  -23.9593  -27.3066   18.9888 H   0  0  0  0  0  0
  -23.7842  -30.5978   19.4019 H   0  0  0  0  0  0
  -22.7581  -29.2670   19.8339 H   0  0  0  0  0  0
  -25.1333  -36.1883   25.0828 H   0  0  0  0  0  0
  -20.9986  -28.3267   24.1343 H   0  0  0  0  0  0
  -20.5552  -26.2316   23.3615 H   0  0  0  0  0  0
  -21.6638  -26.7319   22.1266 H   0  0  0  0  0  0
  -19.6915  -25.6247   21.1229 H   0  0  0  0  0  0
  -19.6710  -27.3145   20.6677 H   0  0  0  0  0  0
  -17.4191  -26.6627   21.3981 H   0  0  0  0  0  0
  -18.0332  -26.0030   22.8972 H   0  0  0  0  0  0
  -19.7954  -30.7223   24.2252 H   0  0  0  0  0  0
  -17.5035  -31.6247   24.5151 H   0  0  0  0  0  0
  -15.5359  -30.2972   23.7648 H   0  0  0  0  0  0
  -15.8663  -28.0785   22.7097 H   0  0  0  0  0  0
  -24.6047  -30.6825   25.7684 H   0  0  0  0  0  0
  -24.8879  -32.2676   26.4832 H   0  0  0  0  0  0
  -25.8148  -30.8751   27.0144 H   0  0  0  0  0  0
  -26.3009  -29.6632   24.1265 H   0  0  0  0  0  0
  -27.4262  -29.7279   25.4625 H   0  0  0  0  0  0
  -27.8817  -30.4276   23.9301 H   0  0  0  0  0  0
  -27.2725  -33.3607   26.1988 H   0  0  0  0  0  0
  -28.3976  -32.6697   25.0359 H   0  0  0  0  0  0
  -28.0668  -31.8396   26.5468 H   0  0  0  0  0  0
  -28.2561  -38.0133   24.7543 H   0  0  0  0  0  0
  -28.1132  -36.2650   24.6303 H   0  0  0  0  0  0
  -27.2296  -37.1447   25.8876 H   0  0  0  0  0  0
  -20.9357  -29.8871   21.6925 H   0  0  0  0  0  0
  -26.0160  -38.2809   24.1424 H   0  0  0  0  0  0
  -26.8938  -21.8693   21.6208 H   0  0  0  0  0  0
  -28.3653  -22.5984   22.1514 H   0  0  0  0  0  0
  -30.6423  -22.1817   20.1090 H   0  0  0  0  0  0
  -29.7286  -22.3418   18.6416 H   0  0  0  0  0  0
  -26.8682  -24.4168   21.6179 H   0  0  0  0  0  0
  -26.3484  -23.6813   20.1344 H   0  0  0  0  0  0
  -30.2565  -24.5878   19.2936 H   0  0  0  0  0  0
  -29.9814  -24.2746   20.9760 H   0  0  0  0  0  0
  -32.5586  -17.1803   20.2374 H   0  0  0  0  0  0
  -31.6252  -16.9751   18.7490 H   0  0  0  0  0  0
  -32.6242  -19.1005   18.5044 H   0  0  0  0  0  0
  -32.2851  -19.5424   20.1522 H   0  0  0  0  0  0
  -27.8827  -21.3268   19.4536 H   0  0  0  0  0  0
  -30.6227  -17.7009   21.5076 H   0  0  0  0  0  0
  -27.8772  -24.7385   18.8683 H   0  0  0  0  0  0
  -28.7054  -18.4636   19.2924 H   0  0  0  0  0  0
  -31.2947  -20.2575   14.3719 H   0  0  0  0  0  0
  -29.9740  -21.1645   15.1158 H   0  0  0  0  0  0
  -29.8710  -19.4177   14.9497 H   0  0  0  0  0  0
  -32.7018  -21.6154   16.1767 H   0  0  0  0  0  0
  -32.5531  -21.2422   17.8717 H   0  0  0  0  0  0
  -31.3245  -22.2068   17.0775 H   0  0  0  0  0  0
  -28.2207  -19.6350   21.4184 H   0  0  0  0  0  0
  -29.8241  -20.2153   21.5839 H   0  0  0  0  0  0
  -29.8249  -18.5662   17.2502 H   0  0  0  0  0  0
  -29.2563  -20.1936   17.5002 H   0  0  0  0  0  0
  -31.9420  -19.2648   16.4467 H   0  0  0  0  0  0
  -28.8973  -15.8626   20.7142 H   0  0  0  0  0  0
  -30.5335  -20.4710   19.3077 H   0  0  0  0  0  0
  1 25  1  0  0  0
  1 30  2  0  0  0
  1 86  1  0  0  0
  2  3  1  0  0  0
  2 25  1  0  0  0
  2 88  1  0  0  0
  2 89  1  0  0  0
  3  4  1  0  0  0
  3 90  1  0  0  0
  3 91  1  0  0  0
  4  5  1  0  0  0
  4 92  1  0  0  0
  4 93  1  0  0  0
  5  6  1  0  0  0
  5 26  1  0  0  0
  5 94  1  0  0  0
  6 25  1  0  0  0
  6 95  1  0  0  0
  6 96  1  0  0  0
  7  8  2  0  0  0
  7 26  1  0  0  0
  7 29  1  0  0  0
  8  9  1  0  0  0
  8 22  1  0  0  0
  9 10  1  0  0  0
  9 27  2  0  0  0
 10 11  2  0  0  0
 10 15  1  0  0  0
 11 12  1  0  0  0
 11 97  1  0  0  0
 12 13  2  0  0  0
 12 98  1  0  0  0
 13 14  1  0  0  0
 13 31  1  0  0  0
 14 15  2  0  0  0
 14 99  1  0  0  0
 15100  1  0  0  0
 16 17  2  0  0  0
 16 21  1  0  0  0
 16 31  1  0  0  0
 17 18  1  0  0  0
 17101  1  0  0  0
 18 19  2  0  0  0
 18102  1  0  0  0
 19 20  1  0  0  0
 19 24  1  0  0  0
 20 21  2  0  0  0
 20103  1  0  0  0
 21 23  1  0  0  0
 22 28  1  0  0  0
 22 32  2  0  0  0
 26 27  1  0  0  0
 28104  1  0  0  0
 28105  1  0  0  0
 29106  1  0  0  0
 29107  1  0  0  0
 33 34  1  0  0  0
 33 66  1  0  0  0
 33 70  2  0  0  0
 34 36  1  0  0  0
 34 59  1  0  0  0
 34108  1  0  0  0
 35 44  2  0  0  0
 35 45  1  0  0  0
 35 68  1  0  0  0
 36 56  1  0  0  0
 36109  1  0  0  0
 37 39  1  0  0  0
 37 47  1  0  0  0
 37 66  1  0  0  0
 37110  1  0  0  0
 38 43  2  0  0  0
 38 46  1  0  0  0
 38 47  1  0  0  0
 39 64  1  0  0  0
 39 67  2  0  0  0
 40 52  1  0  0  0
 40 53  2  0  0  0
 40 58  1  0  0  0
 41111  1  0  0  0
 41112  1  0  0  0
 41113  1  0  0  0
 41 48  1  0  0  0
 42 43  1  0  0  0
 42 66  1  0  0  0
 42114  1  0  0  0
 42115  1  0  0  0
 43 44  1  0  0  0
 44116  1  0  0  0
 45 46  2  0  0  0
 45117  1  0  0  0
 46118  1  0  0  0
 47119  1  0  0  0
 47120  1  0  0  0
 48 56  1  0  0  0
 48 65  1  0  0  0
 48121  1  0  0  0
 49 50  1  0  0  0
 49 53  1  0  0  0
 49 64  1  0  0  0
 49122  1  0  0  0
 50 51  1  0  0  0
 50123  1  0  0  0
 50124  1  0  0  0
 51 52  1  0  0  0
 51125  1  0  0  0
 51126  1  0  0  0
 52127  1  0  0  0
 52128  1  0  0  0
 53 54  1  0  0  0
 54 55  2  0  0  0
 54129  1  0  0  0
 55 57  1  0  0  0
 55130  1  0  0  0
 56 69  2  0  0  0
 57 58  2  0  0  0
 57131  1  0  0  0
 58132  1  0  0  0
 59 60  1  0  0  0
 59 61  1  0  0  0
 59 62  1  0  0  0
 60133  1  0  0  0
 60134  1  0  0  0
 60135  1  0  0  0
 61136  1  0  0  0
 61137  1  0  0  0
 61138  1  0  0  0
 62139  1  0  0  0
 62140  1  0  0  0
 62141  1  0  0  0
 63 65  1  0  0  0
 63142  1  0  0  0
 63143  1  0  0  0
 63144  1  0  0  0
 64145  1  0  0  0
 65146  1  0  0  0
 68 79  1  0  0  0
 71 73  1  0  0  0
 71 77  1  0  0  0
 71147  1  0  0  0
 71148  1  0  0  0
 72 74  1  0  0  0
 72 77  1  0  0  0
 72149  1  0  0  0
 72150  1  0  0  0
 73 79  1  0  0  0
 73151  1  0  0  0
 73152  1  0  0  0
 74 79  1  0  0  0
 74153  1  0  0  0
 74154  1  0  0  0
 75 76  1  0  0  0
 75 78  1  0  0  0
 75155  1  0  0  0
 75156  1  0  0  0
 76 87  1  0  0  0
 76157  1  0  0  0
 76158  1  0  0  0
 77 83  1  0  0  0
 77159  1  0  0  0
 78 80  1  0  0  0
 78 86  1  0  0  0
 78160  1  0  0  0
 79161  1  0  0  0
 80 83  1  0  0  0
 80 87  1  0  0  0
 80162  1  0  0  0
 81163  1  0  0  0
 81164  1  0  0  0
 81165  1  0  0  0
 81 85  1  0  0  0
 82 85  1  0  0  0
 82166  1  0  0  0
 82167  1  0  0  0
 82168  1  0  0  0
 83169  1  0  0  0
 83170  1  0  0  0
 84 85  1  0  0  0
 84171  1  0  0  0
 84172  1  0  0  0
 84 87  1  0  0  0
 85173  1  0  0  0
 86174  1  0  0  0
 87175  1  0  0  0
M  CHG  1  87   1
M  ISO  4   1 100  68 101  79 101  86 100
M  END
> <chiral flag>
0

> <version>
0

> <s_m_source_file>
/data/baiqing/PycharmProjects/Reinvent-master-3.2/result/LINK_invent/BTK/process_docking_weight1_custom_sum_contain_oxygen_bond_distance_aromatic_linkinvent_7_9_3/rearranged_h_0124.sdf

> <i_m_source_file_index>
78

> <r_mmod_Potential_Energy-OPLS-2005>
370.118774414062

> <r_mmod_Stretch_Energy-OPLS-2005>
177.837905883789

> <r_mmod_Bend_Energy-OPLS-2005>
276.733520507812

> <r_mmod_Torsional_Energy-OPLS-2005>
364.43408203125

> <r_mmod_Improper_Torsional_Energy-OPLS-2005>
5.02077674865723

> <r_mmod_Van_der_Waal_Energy-OPLS-2005>
124.387283325195

> <r_mmod_Electrostatic_Energy-OPLS-2005>
-260.012664794922

> <r_mmod_Solvation_Energy-OPLS-2005>
-428.606414794922

> <b_mmod_Minimization_Converged-OPLS-2005>
0

> <r_mmod_RMS_Derivative-OPLS-2005>
5.67930936813354

$$$$
78
                    3D
 Structure written by MMmdl.
162171  0  0  1  0            999 V2000
  -30.7012  -14.5976   20.5215 C   0  0  0  0  0  0
  -30.4143  -12.3781   19.4523 C   0  0  0  0  0  0
  -29.4977  -12.5161   18.2208 C   0  0  0  0  0  0
  -28.0192  -12.3669   18.6282 C   0  0  0  0  0  0
  -27.6484  -13.2328   19.8636 C   0  0  2  0  0  0
  -28.6954  -13.1093   20.9939 C   0  0  0  0  0  0
  -25.2528  -13.8216   20.5712 C   0  0  0  0  0  0
  -24.1812  -13.0456   20.9204 C   0  0  0  0  0  0
  -24.6402  -11.6936   20.8755 C   0  0  0  0  0  0
  -23.9080  -10.4303   21.0397 C   0  0  0  0  0  0
  -24.3633   -9.4216   21.9166 C   0  0  0  0  0  0
  -23.6316   -8.2247   22.0742 C   0  0  0  0  0  0
  -22.4298   -8.0279   21.3538 C   0  0  0  0  0  0
  -21.9930   -9.0249   20.4634 C   0  0  0  0  0  0
  -22.7249  -10.2129   20.3044 C   0  0  0  0  0  0
  -21.6856   -6.0744   22.5278 C   0  0  0  0  0  0
  -21.4012   -6.5641   23.8209 C   0  0  0  0  0  0
  -21.3664   -5.6791   24.9171 C   0  0  0  0  0  0
  -21.6049   -4.3060   24.7216 C   0  0  0  0  0  0
  -21.8821   -3.8155   23.4336 C   0  0  0  0  0  0
  -21.9192   -4.6973   22.3397 C   0  0  0  0  0  0
  -22.7825  -13.5228   21.1856 C   0  0  0  0  0  0
  -22.1657   -4.2157   21.0974 F   0  0  0  0  0  0
  -21.5635   -3.4544   25.7728 F   0  0  0  0  0  0
  -30.0094  -13.4200   20.4171 N   0  0  0  0  0  0
  -26.2972  -12.9427   20.3360 N   0  0  0  0  0  0
  -25.9340  -11.6563   20.5788 N   0  0  0  0  0  0
  -22.0479  -12.8223   22.0420 N   0  0  0  0  0  0
  -25.4250  -15.1925   20.4121 N   0  0  0  0  0  0
  -31.8683  -14.6769   20.1319 O   0  0  0  0  0  0
  -21.6651   -6.8885   21.4240 O   0  0  0  0  0  0
  -22.3495  -14.5519   20.6672 O   0  0  0  0  0  0
  -24.6276  -31.8596   23.2044 C   0  0  0  0  0  0
  -25.9124  -32.4774   23.8365 C   0  0  1  0  0  0
  -27.2109  -27.3121   20.1004 C   0  0  0  0  0  0
  -25.5937  -33.8577   24.2282 N   0  0  0  0  0  0
  -23.4199  -30.4879   21.5471 C   0  0  2  0  0  0
  -24.8629  -28.9513   20.1066 C   0  0  0  0  0  0
  -22.7473  -29.4635   22.4928 C   0  0  0  0  0  0
  -18.0289  -28.1382   22.8486 C   0  0  0  0  0  0
  -24.1491  -36.7303   23.2634 C   0  0  0  0  0  0
  -25.9640  -30.7872   21.3774 C   0  0  0  0  0  0
  -26.0351  -29.4161   20.7169 C   0  0  0  0  0  0
  -27.2120  -28.6065   20.7101 C   0  0  0  0  0  0
  -26.0163  -26.9199   19.4471 C   0  0  0  0  0  0
  -24.8561  -27.7086   19.4633 C   0  0  0  0  0  0
  -23.6322  -29.8307   20.1600 C   0  0  0  0  0  0
  -25.4112  -36.3083   24.0328 C   0  0  1  0  0  0
  -20.5887  -28.3687   23.1271 C   0  0  2  0  0  0
  -20.6774  -26.9410   22.5404 C   0  0  0  0  0  0
  -19.5755  -26.6372   21.5210 C   0  0  0  0  0  0
  -18.1935  -26.7923   22.1623 C   0  0  0  0  0  0
  -19.1540  -28.8849   23.2879 C   0  0  0  0  0  0
  -18.9459  -30.1451   23.8893 C   0  0  0  0  0  0
  -17.6459  -30.6583   24.0557 C   0  0  0  0  0  0
  -25.9053  -34.9453   23.5104 C   0  0  0  0  0  0
  -16.5351  -29.9079   23.6324 C   0  0  0  0  0  0
  -16.7277  -28.6499   23.0344 C   0  0  0  0  0  0
  -26.4496  -31.6576   25.0734 C   0  0  0  0  0  0
  -25.3731  -31.3710   26.1463 C   0  0  0  0  0  0
  -27.0310  -30.2988   24.6181 C   0  0  0  0  0  0
  -27.6055  -32.4298   25.7513 C   0  0  0  0  0  0
  -27.5582  -37.1801   24.8452 C   0  0  0  0  0  0
  -21.4183  -29.3056   22.3674 N   0  0  0  0  0  0
  -26.4285  -37.3779   23.9414 N   0  0  0  0  0  0
  -24.6898  -31.0611   22.0996 N   0  0  0  0  0  0
  -23.4199  -28.8150   23.2991 O   0  0  0  0  0  0
  -28.3063  -26.4286   20.1625 O   0  0  0  0  0  0
  -26.5618  -34.8921   22.4669 O   0  0  0  0  0  0
  -23.5438  -32.1400   23.7368 O   0  0  0  0  0  0
  -29.9411  -20.8431   21.2712 C   0  0  0  0  0  0
  -30.4456  -19.5602   21.6013 C   0  0  0  0  0  0
  -29.0073  -20.9841   20.2207 C   0  0  0  0  0  0
  -30.0273  -18.4079   20.8980 C   0  0  0  0  0  0
  -28.6218  -19.7594   19.5786 C   0  0  0  0  0  0
  -25.1410  -20.1033   19.3544 C   0  0  0  0  0  0
  -25.0267  -19.3731   18.0411 C   0  0  0  0  0  0
  -26.2505  -19.1760   18.9101 C   0  0  0  0  0  0
  -28.3869  -22.3757   19.8220 C   0  0  0  0  0  0
  -27.5977  -19.7052   18.4487 C   0  0  0  0  0  0
  -30.7217  -17.0363   21.1661 C   0  0  0  0  0  0
  -28.9629  -23.7849   20.2962 C   0  0  0  0  0  0
  -28.0274  -24.9992   19.8703 C   0  0  0  0  0  0
  -29.1219  -18.5266   19.9029 N   0  0  0  0  0  0
  -30.0444  -15.7214   20.9253 N   0  0  0  0  0  0
  -31.4605  -12.4630   19.1528 H   0  0  0  0  0  0
  -30.3157  -11.3872   19.8987 H   0  0  0  0  0  0
  -29.7602  -11.7723   17.4671 H   0  0  0  0  0  0
  -29.6533  -13.4895   17.7546 H   0  0  0  0  0  0
  -27.8422  -11.3125   18.8423 H   0  0  0  0  0  0
  -27.3701  -12.6167   17.7871 H   0  0  0  0  0  0
  -27.6611  -14.2698   19.5256 H   0  0  0  0  0  0
  -28.7011  -12.0989   21.4059 H   0  0  0  0  0  0
  -28.4549  -13.7738   21.8251 H   0  0  0  0  0  0
  -25.2776   -9.5698   22.4742 H   0  0  0  0  0  0
  -24.0029   -7.4644   22.7462 H   0  0  0  0  0  0
  -21.0859   -8.8759   19.8946 H   0  0  0  0  0  0
  -22.3699  -10.9666   19.6160 H   0  0  0  0  0  0
  -21.1999   -7.6146   23.9722 H   0  0  0  0  0  0
  -21.1489   -6.0516   25.9074 H   0  0  0  0  0  0
  -22.0600   -2.7620   23.2830 H   0  0  0  0  0  0
  -22.4105  -11.9894   22.4816 H   0  0  0  0  0  0
  -21.1084  -13.1214   22.2600 H   0  0  0  0  0  0
  -24.6647  -15.8547   20.5211 H   0  0  0  0  0  0
  -26.2820  -15.6268   20.0949 H   0  0  0  0  0  0
  -26.7189  -32.5428   23.1110 H   0  0  0  0  0  0
  -25.0074  -33.9714   25.0419 H   0  0  0  0  0  0
  -22.7169  -31.3114   21.4072 H   0  0  0  0  0  0
  -23.3751  -35.9638   23.3275 H   0  0  0  0  0  0
  -24.3590  -36.8947   22.2055 H   0  0  0  0  0  0
  -23.7247  -37.6498   23.6674 H   0  0  0  0  0  0
  -26.0968  -31.5500   20.6086 H   0  0  0  0  0  0
  -26.8453  -30.8328   22.0055 H   0  0  0  0  0  0
  -28.1069  -28.9539   21.2071 H   0  0  0  0  0  0
  -25.9324  -25.9829   18.9179 H   0  0  0  0  0  0
  -23.9626  -27.3513   18.9699 H   0  0  0  0  0  0
  -23.7500  -30.6098   19.4058 H   0  0  0  0  0  0
  -22.7513  -29.2616   19.8563 H   0  0  0  0  0  0
  -25.1292  -36.1927   25.0818 H   0  0  0  0  0  0
  -20.9994  -28.3255   24.1386 H   0  0  0  0  0  0
  -20.5662  -26.2298   23.3602 H   0  0  0  0  0  0
  -21.6644  -26.7429   22.1196 H   0  0  0  0  0  0
  -19.6910  -25.6284   21.1238 H   0  0  0  0  0  0
  -19.6691  -27.3173   20.6740 H   0  0  0  0  0  0
  -17.4204  -26.6671   21.4031 H   0  0  0  0  0  0
  -18.0342  -26.0065   22.9013 H   0  0  0  0  0  0
  -19.7933  -30.7273   24.2253 H   0  0  0  0  0  0
  -17.5012  -31.6265   24.5151 H   0  0  0  0  0  0
  -15.5351  -30.2978   23.7656 H   0  0  0  0  0  0
  -15.8677  -28.0823   22.7053 H   0  0  0  0  0  0
  -24.5936  -30.7015   25.7811 H   0  0  0  0  0  0
  -24.8889  -32.2863   26.4871 H   0  0  0  0  0  0
  -25.8069  -30.8919   27.0247 H   0  0  0  0  0  0
  -26.2863  -29.6763   24.1200 H   0  0  0  0  0  0
  -27.3984  -29.7226   25.4681 H   0  0  0  0  0  0
  -27.8761  -30.4258   23.9411 H   0  0  0  0  0  0
  -27.2675  -33.3612   26.2071 H   0  0  0  0  0  0
  -28.3893  -32.6816   25.0359 H   0  0  0  0  0  0
  -28.0687  -31.8421   26.5448 H   0  0  0  0  0  0
  -28.2561  -38.0133   24.7534 H   0  0  0  0  0  0
  -28.1115  -36.2661   24.6224 H   0  0  0  0  0  0
  -27.2311  -37.1387   25.8855 H   0  0  0  0  0  0
  -20.9348  -29.8823   21.6929 H   0  0  0  0  0  0
  -26.0158  -38.2849   24.1428 H   0  0  0  0  0  0
  -30.2797  -21.7071   21.8246 H   0  0  0  0  0  0
  -31.1823  -19.4709   22.3879 H   0  0  0  0  0  0
  -24.5140  -19.7669   20.1782 H   0  0  0  0  0  0
  -25.3215  -21.1758   19.3155 H   0  0  0  0  0  0
  -25.1374  -19.9599   17.1303 H   0  0  0  0  0  0
  -24.3144  -18.5524   17.9793 H   0  0  0  0  0  0
  -26.3078  -18.2112   19.4113 H   0  0  0  0  0  0
  -27.3405  -22.3276   20.1219 H   0  0  0  0  0  0
  -28.3761  -22.4227   18.7347 H   0  0  0  0  0  0
  -27.9743  -19.0343   17.6752 H   0  0  0  0  0  0
  -27.4657  -20.6645   17.9545 H   0  0  0  0  0  0
  -31.0505  -17.0307   22.2066 H   0  0  0  0  0  0
  -31.6421  -17.0839   20.5836 H   0  0  0  0  0  0
  -29.9591  -23.9262   19.8764 H   0  0  0  0  0  0
  -29.0738  -23.7919   21.3806 H   0  0  0  0  0  0
  -27.0686  -24.7512   20.3272 H   0  0  0  0  0  0
  -27.8871  -24.9228   18.7906 H   0  0  0  0  0  0
  -29.0701  -15.6533   21.1776 H   0  0  0  0  0  0
  1 25  1  0  0  0
  1 30  2  0  0  0
  1 85  1  0  0  0
  2  3  1  0  0  0
  2 25  1  0  0  0
  2 86  1  0  0  0
  2 87  1  0  0  0
  3  4  1  0  0  0
  3 88  1  0  0  0
  3 89  1  0  0  0
  4  5  1  0  0  0
  4 90  1  0  0  0
  4 91  1  0  0  0
  5  6  1  0  0  0
  5 26  1  0  0  0
  5 92  1  0  0  0
  6 25  1  0  0  0
  6 93  1  0  0  0
  6 94  1  0  0  0
  7  8  2  0  0  0
  7 26  1  0  0  0
  7 29  1  0  0  0
  8  9  1  0  0  0
  8 22  1  0  0  0
  9 10  1  0  0  0
  9 27  2  0  0  0
 10 11  2  0  0  0
 10 15  1  0  0  0
 11 12  1  0  0  0
 11 95  1  0  0  0
 12 13  2  0  0  0
 12 96  1  0  0  0
 13 14  1  0  0  0
 13 31  1  0  0  0
 14 15  2  0  0  0
 14 97  1  0  0  0
 15 98  1  0  0  0
 16 17  2  0  0  0
 16 21  1  0  0  0
 16 31  1  0  0  0
 17 18  1  0  0  0
 17 99  1  0  0  0
 18 19  2  0  0  0
 18100  1  0  0  0
 19 20  1  0  0  0
 19 24  1  0  0  0
 20 21  2  0  0  0
 20101  1  0  0  0
 21 23  1  0  0  0
 22 28  1  0  0  0
 22 32  2  0  0  0
 26 27  1  0  0  0
 28102  1  0  0  0
 28103  1  0  0  0
 29104  1  0  0  0
 29105  1  0  0  0
 33 34  1  0  0  0
 33 66  1  0  0  0
 33 70  2  0  0  0
 34 36  1  0  0  0
 34 59  1  0  0  0
 34106  1  0  0  0
 35 44  2  0  0  0
 35 45  1  0  0  0
 35 68  1  0  0  0
 36 56  1  0  0  0
 36107  1  0  0  0
 37 39  1  0  0  0
 37 47  1  0  0  0
 37 66  1  0  0  0
 37108  1  0  0  0
 38 43  2  0  0  0
 38 46  1  0  0  0
 38 47  1  0  0  0
 39 64  1  0  0  0
 39 67  2  0  0  0
 40 52  1  0  0  0
 40 53  2  0  0  0
 40 58  1  0  0  0
 41109  1  0  0  0
 41110  1  0  0  0
 41111  1  0  0  0
 41 48  1  0  0  0
 42 43  1  0  0  0
 42 66  1  0  0  0
 42112  1  0  0  0
 42113  1  0  0  0
 43 44  1  0  0  0
 44114  1  0  0  0
 45 46  2  0  0  0
 45115  1  0  0  0
 46116  1  0  0  0
 47117  1  0  0  0
 47118  1  0  0  0
 48 56  1  0  0  0
 48 65  1  0  0  0
 48119  1  0  0  0
 49 50  1  0  0  0
 49 53  1  0  0  0
 49 64  1  0  0  0
 49120  1  0  0  0
 50 51  1  0  0  0
 50121  1  0  0  0
 50122  1  0  0  0
 51 52  1  0  0  0
 51123  1  0  0  0
 51124  1  0  0  0
 52125  1  0  0  0
 52126  1  0  0  0
 53 54  1  0  0  0
 54 55  2  0  0  0
 54127  1  0  0  0
 55 57  1  0  0  0
 55128  1  0  0  0
 56 69  2  0  0  0
 57 58  2  0  0  0
 57129  1  0  0  0
 58130  1  0  0  0
 59 60  1  0  0  0
 59 61  1  0  0  0
 59 62  1  0  0  0
 60131  1  0  0  0
 60132  1  0  0  0
 60133  1  0  0  0
 61134  1  0  0  0
 61135  1  0  0  0
 61136  1  0  0  0
 62137  1  0  0  0
 62138  1  0  0  0
 62139  1  0  0  0
 63 65  1  0  0  0
 63140  1  0  0  0
 63141  1  0  0  0
 63142  1  0  0  0
 64143  1  0  0  0
 65144  1  0  0  0
 68 83  1  0  0  0
 71 72  2  0  0  0
 71 73  1  0  0  0
 71145  1  0  0  0
 72 74  1  0  0  0
 72146  1  0  0  0
 73 75  2  0  0  0
 73 79  1  0  0  0
 74 81  1  0  0  0
 74 84  2  0  0  0
 75 80  1  0  0  0
 75 84  1  0  0  0
 76 77  1  0  0  0
 76 78  1  0  0  0
 76147  1  0  0  0
 76148  1  0  0  0
 77 78  1  0  0  0
 77149  1  0  0  0
 77150  1  0  0  0
 78 80  1  0  0  0
 78151  1  0  0  0
 79 82  1  0  0  0
 79152  1  0  0  0
 79153  1  0  0  0
 80154  1  0  0  0
 80155  1  0  0  0
 81 85  1  0  0  0
 81156  1  0  0  0
 81157  1  0  0  0
 82 83  1  0  0  0
 82158  1  0  0  0
 82159  1  0  0  0
 83160  1  0  0  0
 83161  1  0  0  0
 85162  1  0  0  0
M  ISO  4   1 100  68 101  83 101  85 100
M  END
> <chiral flag>
0

> <version>
0

> <s_m_source_file>
/data/baiqing/PycharmProjects/Reinvent-master-3.2/result/LINK_invent/BTK/process_docking_weight1_custom_sum_contain_oxygen_bond_distance_aromatic_linkinvent_7_9_3/rearranged_h_0124.sdf

> <i_m_source_file_index>
79

> <r_mmod_Potential_Energy-OPLS-2005>
-166.887893676758

> <r_mmod_Stretch_Energy-OPLS-2005>
75.1373519897461

> <r_mmod_Bend_Energy-OPLS-2005>
150.284103393555

> <r_mmod_Torsional_Energy-OPLS-2005>
223.939117431641

> <r_mmod_Improper_Torsional_Energy-OPLS-2005>
3.59053182601929

> <r_mmod_Van_der_Waal_Energy-OPLS-2005>
150.789337158203

> <r_mmod_Electrostatic_Energy-OPLS-2005>
-602.199035644531

> <r_mmod_Solvation_Energy-OPLS-2005>
-216.73713684082

> <b_mmod_Minimization_Converged-OPLS-2005>
0

> <r_mmod_RMS_Derivative-OPLS-2005>
2.01499104499817

$$$$
79
                    3D
 Structure written by MMmdl.
164173  0  0  1  0            999 V2000
  -30.6997  -14.4663   20.5286 C   0  0  0  0  0  0
  -30.4288  -12.2882   19.4384 C   0  0  0  0  0  0
  -29.5036  -12.4654   18.2147 C   0  0  0  0  0  0
  -28.0218  -12.3465   18.6256 C   0  0  0  0  0  0
  -27.6621  -13.1972   19.8779 C   0  0  2  0  0  0
  -28.7050  -12.9995   21.0033 C   0  0  0  0  0  0
  -25.2616  -13.8143   20.5654 C   0  0  0  0  0  0
  -24.1853  -13.0449   20.9148 C   0  0  0  0  0  0
  -24.6366  -11.6903   20.8753 C   0  0  0  0  0  0
  -23.9005  -10.4314   21.0441 C   0  0  0  0  0  0
  -24.3581   -9.4222   21.9201 C   0  0  0  0  0  0
  -23.6273   -8.2255   22.0741 C   0  0  0  0  0  0
  -22.4265   -8.0290   21.3534 C   0  0  0  0  0  0
  -21.9868   -9.0259   20.4651 C   0  0  0  0  0  0
  -22.7183  -10.2151   20.3089 C   0  0  0  0  0  0
  -21.6857   -6.0745   22.5266 C   0  0  0  0  0  0
  -21.4020   -6.5641   23.8197 C   0  0  0  0  0  0
  -21.3651   -5.6784   24.9155 C   0  0  0  0  0  0
  -21.6045   -4.3035   24.7191 C   0  0  0  0  0  0
  -21.8822   -3.8145   23.4321 C   0  0  0  0  0  0
  -21.9188   -4.6958   22.3372 C   0  0  0  0  0  0
  -22.7877  -13.5289   21.1778 C   0  0  0  0  0  0
  -22.1653   -4.2157   21.0953 F   0  0  0  0  0  0
  -21.5619   -3.4505   25.7692 F   0  0  0  0  0  0
  -30.0370  -13.2845   20.4432 N   0  0  0  0  0  0
  -26.3026  -12.9275   20.3371 N   0  0  0  0  0  0
  -25.9297  -11.6442   20.5798 N   0  0  0  0  0  0
  -22.0481  -12.8362   22.0371 N   0  0  0  0  0  0
  -25.4428  -15.1859   20.4069 N   0  0  0  0  0  0
  -31.8531  -14.6367   20.1278 O   0  0  0  0  0  0
  -21.6651   -6.8872   21.4225 O   0  0  0  0  0  0
  -22.3599  -14.5582   20.6592 O   0  0  0  0  0  0
  -24.6129  -31.8675   23.2130 C   0  0  0  0  0  0
  -25.9033  -32.4826   23.8408 C   0  0  1  0  0  0
  -27.2387  -27.4463   20.1004 C   0  0  0  0  0  0
  -25.5905  -33.8624   24.2334 N   0  0  0  0  0  0
  -23.4001  -30.4894   21.5537 C   0  0  2  0  0  0
  -24.8487  -28.9622   20.1183 C   0  0  0  0  0  0
  -22.7398  -29.4625   22.5016 C   0  0  0  0  0  0
  -18.0263  -28.1376   22.8499 C   0  0  0  0  0  0
  -24.1487  -36.7310   23.2633 C   0  0  0  0  0  0
  -25.9284  -30.8404   21.3651 C   0  0  0  0  0  0
  -26.0095  -29.4784   20.7066 C   0  0  0  0  0  0
  -27.2098  -28.7305   20.6899 C   0  0  0  0  0  0
  -26.0557  -26.9451   19.5061 C   0  0  0  0  0  0
  -24.8673  -27.6950   19.5144 C   0  0  0  0  0  0
  -23.6069  -29.8215   20.1691 C   0  0  0  0  0  0
  -25.4099  -36.3108   24.0334 C   0  0  1  0  0  0
  -20.5847  -28.3639   23.1348 C   0  0  2  0  0  0
  -20.6740  -26.9375   22.5449 C   0  0  0  0  0  0
  -19.5736  -26.6361   21.5228 C   0  0  0  0  0  0
  -18.1903  -26.7932   22.1609 C   0  0  0  0  0  0
  -19.1511  -28.8826   23.2912 C   0  0  0  0  0  0
  -18.9453  -30.1433   23.8932 C   0  0  0  0  0  0
  -17.6452  -30.6575   24.0577 C   0  0  0  0  0  0
  -25.9026  -34.9474   23.5128 C   0  0  0  0  0  0
  -16.5339  -29.9086   23.6327 C   0  0  0  0  0  0
  -16.7250  -28.6496   23.0357 C   0  0  0  0  0  0
  -26.4471  -31.6621   25.0737 C   0  0  0  0  0  0
  -25.3741  -31.3826   26.1514 C   0  0  0  0  0  0
  -27.0262  -30.3026   24.6177 C   0  0  0  0  0  0
  -27.6095  -32.4323   25.7434 C   0  0  0  0  0  0
  -27.5598  -37.1783   24.8437 C   0  0  0  0  0  0
  -21.4128  -29.2994   22.3748 N   0  0  0  0  0  0
  -26.4291  -37.3784   23.9419 N   0  0  0  0  0  0
  -24.6645  -31.0799   22.1017 N   0  0  0  0  0  0
  -23.4185  -28.8153   23.3036 O   0  0  0  0  0  0
  -28.4065  -26.7106   20.1196 O   0  0  0  0  0  0
  -26.5585  -34.8923   22.4686 O   0  0  0  0  0  0
  -23.5332  -32.1418   23.7537 O   0  0  0  0  0  0
  -31.9449  -24.4549   21.0215 C   0  0  0  0  0  0
  -31.8893  -23.0484   21.0963 C   0  0  0  0  0  0
  -30.7698  -25.1999   20.7898 C   0  0  0  0  0  0
  -29.4923  -23.1303   20.6774 C   0  0  0  0  0  0
  -30.3747  -17.9284   20.3571 C   0  0  0  0  0  0
  -29.4151  -16.4918   18.6667 C   0  0  0  0  0  0
  -30.6601  -22.3787   20.9352 C   0  0  0  0  0  0
  -29.5359  -24.5403   20.6145 C   0  0  0  0  0  0
  -29.9074  -16.6510   19.9746 C   0  0  0  0  0  0
  -30.3592  -18.9823   19.4055 C   0  0  0  0  0  0
  -29.8565  -18.6884   18.1085 C   0  0  0  0  0  0
  -28.3545  -20.3408   16.8990 C   0  0  0  0  0  0
  -30.5972  -20.8621   21.0049 C   0  0  0  0  0  0
  -28.2406  -25.3108   20.3903 C   0  0  0  0  0  0
  -29.7620  -19.7328   17.0011 C   0  0  0  0  0  0
  -29.3837  -17.4790   17.7569 N   0  0  0  0  0  0
  -29.9356  -15.5238   20.8429 N   0  0  0  0  0  0
  -30.8235  -20.2790   19.6922 N   0  0  0  0  0  0
  -31.4717  -12.3923   19.1293 H   0  0  0  0  0  0
  -30.3385  -11.2857   19.8585 H   0  0  0  0  0  0
  -29.7405  -11.7127   17.4600 H   0  0  0  0  0  0
  -29.6860  -13.4292   17.7410 H   0  0  0  0  0  0
  -27.8243  -11.2952   18.8301 H   0  0  0  0  0  0
  -27.3826  -12.6159   17.7834 H   0  0  0  0  0  0
  -27.6907  -14.2397   19.5700 H   0  0  0  0  0  0
  -28.6811  -11.9737   21.3721 H   0  0  0  0  0  0
  -28.4797  -13.6330   21.8644 H   0  0  0  0  0  0
  -25.2733   -9.5689   22.4764 H   0  0  0  0  0  0
  -23.9971   -7.4656   22.7467 H   0  0  0  0  0  0
  -21.0768   -8.8786   19.8999 H   0  0  0  0  0  0
  -22.3623  -10.9688   19.6200 H   0  0  0  0  0  0
  -21.2038   -7.6158   23.9705 H   0  0  0  0  0  0
  -21.1463   -6.0514   25.9055 H   0  0  0  0  0  0
  -22.0621   -2.7597   23.2828 H   0  0  0  0  0  0
  -22.3994  -12.0034   22.4846 H   0  0  0  0  0  0
  -21.1129  -13.1514   22.2523 H   0  0  0  0  0  0
  -24.6939  -15.8600   20.5229 H   0  0  0  0  0  0
  -26.3115  -15.6130   20.1136 H   0  0  0  0  0  0
  -26.7092  -32.5553   23.1167 H   0  0  0  0  0  0
  -25.0069  -33.9765   25.0497 H   0  0  0  0  0  0
  -22.6876  -31.3049   21.4145 H   0  0  0  0  0  0
  -23.3753  -35.9639   23.3268 H   0  0  0  0  0  0
  -24.3587  -36.8952   22.2051 H   0  0  0  0  0  0
  -23.7236  -37.6500   23.6670 H   0  0  0  0  0  0
  -26.0451  -31.6160   20.6070 H   0  0  0  0  0  0
  -26.8119  -30.8860   21.9913 H   0  0  0  0  0  0
  -28.1067  -29.1274   21.1463 H   0  0  0  0  0  0
  -26.0314  -25.9809   19.0227 H   0  0  0  0  0  0
  -23.9726  -27.2934   19.0591 H   0  0  0  0  0  0
  -23.7052  -30.5921   19.4041 H   0  0  0  0  0  0
  -22.7345  -29.2340   19.8794 H   0  0  0  0  0  0
  -25.1274  -36.1976   25.0826 H   0  0  0  0  0  0
  -20.9925  -28.3215   24.1477 H   0  0  0  0  0  0
  -20.5592  -26.2261   23.3632 H   0  0  0  0  0  0
  -21.6628  -26.7378   22.1304 H   0  0  0  0  0  0
  -19.6892  -25.6276   21.1242 H   0  0  0  0  0  0
  -19.6696  -27.3181   20.6772 H   0  0  0  0  0  0
  -17.4191  -26.6726   21.3983 H   0  0  0  0  0  0
  -18.0242  -26.0044   22.8958 H   0  0  0  0  0  0
  -19.7924  -30.7234   24.2328 H   0  0  0  0  0  0
  -17.5001  -31.6260   24.5174 H   0  0  0  0  0  0
  -15.5338  -30.2995   23.7618 H   0  0  0  0  0  0
  -15.8652  -28.0801   22.7086 H   0  0  0  0  0  0
  -24.5888  -30.7167   25.7923 H   0  0  0  0  0  0
  -24.8956  -32.3030   26.4871 H   0  0  0  0  0  0
  -25.8077  -30.9085   27.0327 H   0  0  0  0  0  0
  -26.2806  -29.6788   24.1231 H   0  0  0  0  0  0
  -27.3971  -29.7286   25.4684 H   0  0  0  0  0  0
  -27.8678  -30.4278   23.9357 H   0  0  0  0  0  0
  -27.2767  -33.3592   26.2111 H   0  0  0  0  0  0
  -28.3812  -32.6940   25.0183 H   0  0  0  0  0  0
  -28.0873  -31.8402   26.5249 H   0  0  0  0  0  0
  -28.2631  -38.0069   24.7502 H   0  0  0  0  0  0
  -28.1081  -36.2618   24.6218 H   0  0  0  0  0  0
  -27.2342  -37.1378   25.8844 H   0  0  0  0  0  0
  -20.9296  -29.8750   21.6995 H   0  0  0  0  0  0
  -26.0191  -38.2859   24.1461 H   0  0  0  0  0  0
  -32.8913  -24.9625   21.1387 H   0  0  0  0  0  0
  -32.7940  -22.4815   21.2764 H   0  0  0  0  0  0
  -30.8200  -26.2797   20.7482 H   0  0  0  0  0  0
  -28.5499  -22.6163   20.5345 H   0  0  0  0  0  0
  -30.7562  -18.0874   21.3563 H   0  0  0  0  0  0
  -29.0398  -15.5405   18.3252 H   0  0  0  0  0  0
  -28.2857  -21.0280   16.0550 H   0  0  0  0  0  0
  -28.1117  -20.9023   17.8002 H   0  0  0  0  0  0
  -27.5967  -19.5644   16.7714 H   0  0  0  0  0  0
  -29.6250  -20.5524   21.3979 H   0  0  0  0  0  0
  -31.3585  -20.5089   21.7043 H   0  0  0  0  0  0
  -27.6301  -25.1890   21.2888 H   0  0  0  0  0  0
  -27.7222  -24.8143   19.5702 H   0  0  0  0  0  0
  -30.0272  -19.2580   16.0552 H   0  0  0  0  0  0
  -30.5024  -20.5193   17.1417 H   0  0  0  0  0  0
  -29.0421  -15.2562   21.2280 H   0  0  0  0  0  0
  -30.7507  -20.9602   18.9428 H   0  0  0  0  0  0
  1 25  1  0  0  0
  1 30  2  0  0  0
  1 87  1  0  0  0
  2  3  1  0  0  0
  2 25  1  0  0  0
  2 89  1  0  0  0
  2 90  1  0  0  0
  3  4  1  0  0  0
  3 91  1  0  0  0
  3 92  1  0  0  0
  4  5  1  0  0  0
  4 93  1  0  0  0
  4 94  1  0  0  0
  5  6  1  0  0  0
  5 26  1  0  0  0
  5 95  1  0  0  0
  6 25  1  0  0  0
  6 96  1  0  0  0
  6 97  1  0  0  0
  7  8  2  0  0  0
  7 26  1  0  0  0
  7 29  1  0  0  0
  8  9  1  0  0  0
  8 22  1  0  0  0
  9 10  1  0  0  0
  9 27  2  0  0  0
 10 11  2  0  0  0
 10 15  1  0  0  0
 11 12  1  0  0  0
 11 98  1  0  0  0
 12 13  2  0  0  0
 12 99  1  0  0  0
 13 14  1  0  0  0
 13 31  1  0  0  0
 14 15  2  0  0  0
 14100  1  0  0  0
 15101  1  0  0  0
 16 17  2  0  0  0
 16 21  1  0  0  0
 16 31  1  0  0  0
 17 18  1  0  0  0
 17102  1  0  0  0
 18 19  2  0  0  0
 18103  1  0  0  0
 19 20  1  0  0  0
 19 24  1  0  0  0
 20 21  2  0  0  0
 20104  1  0  0  0
 21 23  1  0  0  0
 22 28  1  0  0  0
 22 32  2  0  0  0
 26 27  1  0  0  0
 28105  1  0  0  0
 28106  1  0  0  0
 29107  1  0  0  0
 29108  1  0  0  0
 33 34  1  0  0  0
 33 66  1  0  0  0
 33 70  2  0  0  0
 34 36  1  0  0  0
 34 59  1  0  0  0
 34109  1  0  0  0
 35 44  2  0  0  0
 35 45  1  0  0  0
 35 68  1  0  0  0
 36 56  1  0  0  0
 36110  1  0  0  0
 37 39  1  0  0  0
 37 47  1  0  0  0
 37 66  1  0  0  0
 37111  1  0  0  0
 38 43  2  0  0  0
 38 46  1  0  0  0
 38 47  1  0  0  0
 39 64  1  0  0  0
 39 67  2  0  0  0
 40 52  1  0  0  0
 40 53  2  0  0  0
 40 58  1  0  0  0
 41112  1  0  0  0
 41113  1  0  0  0
 41114  1  0  0  0
 41 48  1  0  0  0
 42 43  1  0  0  0
 42 66  1  0  0  0
 42115  1  0  0  0
 42116  1  0  0  0
 43 44  1  0  0  0
 44117  1  0  0  0
 45 46  2  0  0  0
 45118  1  0  0  0
 46119  1  0  0  0
 47120  1  0  0  0
 47121  1  0  0  0
 48 56  1  0  0  0
 48 65  1  0  0  0
 48122  1  0  0  0
 49 50  1  0  0  0
 49 53  1  0  0  0
 49 64  1  0  0  0
 49123  1  0  0  0
 50 51  1  0  0  0
 50124  1  0  0  0
 50125  1  0  0  0
 51 52  1  0  0  0
 51126  1  0  0  0
 51127  1  0  0  0
 52128  1  0  0  0
 52129  1  0  0  0
 53 54  1  0  0  0
 54 55  2  0  0  0
 54130  1  0  0  0
 55 57  1  0  0  0
 55131  1  0  0  0
 56 69  2  0  0  0
 57 58  2  0  0  0
 57132  1  0  0  0
 58133  1  0  0  0
 59 60  1  0  0  0
 59 61  1  0  0  0
 59 62  1  0  0  0
 60134  1  0  0  0
 60135  1  0  0  0
 60136  1  0  0  0
 61137  1  0  0  0
 61138  1  0  0  0
 61139  1  0  0  0
 62140  1  0  0  0
 62141  1  0  0  0
 62142  1  0  0  0
 63 65  1  0  0  0
 63143  1  0  0  0
 63144  1  0  0  0
 63145  1  0  0  0
 64146  1  0  0  0
 65147  1  0  0  0
 68 84  1  0  0  0
 71 72  2  0  0  0
 71 73  1  0  0  0
 71148  1  0  0  0
 72 77  1  0  0  0
 72149  1  0  0  0
 73 78  2  0  0  0
 73150  1  0  0  0
 74 77  2  0  0  0
 74 78  1  0  0  0
 74151  1  0  0  0
 75 79  2  0  0  0
 75 80  1  0  0  0
 75152  1  0  0  0
 76 79  1  0  0  0
 76 86  2  0  0  0
 76153  1  0  0  0
 77 83  1  0  0  0
 78 84  1  0  0  0
 79 87  1  0  0  0
 80 81  2  0  0  0
 80 88  1  0  0  0
 81 85  1  0  0  0
 81 86  1  0  0  0
 82 85  1  0  0  0
 82154  1  0  0  0
 82155  1  0  0  0
 82156  1  0  0  0
 83 88  1  0  0  0
 83157  1  0  0  0
 83158  1  0  0  0
 84159  1  0  0  0
 84160  1  0  0  0
 85161  1  0  0  0
 85162  1  0  0  0
 87163  1  0  0  0
 88164  1  0  0  0
M  ISO  4   1 100  68 101  84 101  87 100
M  END
> <chiral flag>
0

> <version>
0

> <s_m_source_file>
/data/baiqing/PycharmProjects/Reinvent-master-3.2/result/LINK_invent/BTK/process_docking_weight1_custom_sum_contain_oxygen_bond_distance_aromatic_linkinvent_7_9_3/rearranged_h_0124.sdf

> <i_m_source_file_index>
80

> <r_mmod_Potential_Energy-OPLS-2005>
-121.055084228516

> <r_mmod_Stretch_Energy-OPLS-2005>
35.6053199768066

> <r_mmod_Bend_Energy-OPLS-2005>
96.5696258544922

> <r_mmod_Torsional_Energy-OPLS-2005>
258.960662841797

> <r_mmod_Improper_Torsional_Energy-OPLS-2005>
12.4919462203979

> <r_mmod_Van_der_Waal_Energy-OPLS-2005>
171.978805541992

> <r_mmod_Electrostatic_Energy-OPLS-2005>
-486.008026123047

> <r_mmod_Solvation_Energy-OPLS-2005>
-225.405960083008

> <b_mmod_Minimization_Converged-OPLS-2005>
0

> <r_mmod_RMS_Derivative-OPLS-2005>
4.1488094329834

$$$$
80
                    3D
 Structure written by MMmdl.
160169  0  0  1  0            999 V2000
  -30.4418  -15.1989   20.3938 C   0  0  0  0  0  0
  -30.4411  -12.7655   19.5188 C   0  0  0  0  0  0
  -29.5315  -12.5601   18.2815 C   0  0  0  0  0  0
  -28.0749  -12.3015   18.7074 C   0  0  0  0  0  0
  -27.6133  -13.2676   19.8263 C   0  0  2  0  0  0
  -28.6486  -13.4024   20.9609 C   0  0  0  0  0  0
  -25.2390  -13.8233   20.5737 C   0  0  0  0  0  0
  -24.1735  -13.0433   20.9263 C   0  0  0  0  0  0
  -24.6387  -11.6927   20.8771 C   0  0  0  0  0  0
  -23.9081  -10.4285   21.0409 C   0  0  0  0  0  0
  -24.3629   -9.4193   21.9182 C   0  0  0  0  0  0
  -23.6299   -8.2231   22.0747 C   0  0  0  0  0  0
  -22.4279   -8.0274   21.3541 C   0  0  0  0  0  0
  -21.9921   -9.0247   20.4637 C   0  0  0  0  0  0
  -22.7253  -10.2124   20.3051 C   0  0  0  0  0  0
  -21.6853   -6.0725   22.5271 C   0  0  0  0  0  0
  -21.4011   -6.5633   23.8205 C   0  0  0  0  0  0
  -21.3661   -5.6787   24.9167 C   0  0  0  0  0  0
  -21.6049   -4.3049   24.7219 C   0  0  0  0  0  0
  -21.8821   -3.8139   23.4343 C   0  0  0  0  0  0
  -21.9195   -4.6957   22.3398 C   0  0  0  0  0  0
  -22.7755  -13.5183   21.1923 C   0  0  0  0  0  0
  -22.1663   -4.2142   21.0976 F   0  0  0  0  0  0
  -21.5634   -3.4537   25.7734 F   0  0  0  0  0  0
  -29.8858  -13.8972   20.3410 N   0  0  0  0  0  0
  -26.2813  -12.9494   20.3221 N   0  0  0  0  0  0
  -25.9319  -11.6607   20.5731 N   0  0  0  0  0  0
  -22.0420  -12.8148   22.0474 N   0  0  0  0  0  0
  -25.4026  -15.1965   20.4141 N   0  0  0  0  0  0
  -31.6619  -15.2263   20.1840 O   0  0  0  0  0  0
  -21.6643   -6.8872   21.4235 O   0  0  0  0  0  0
  -22.3435  -14.5483   20.6760 O   0  0  0  0  0  0
  -24.6567  -31.8293   23.1732 C   0  0  0  0  0  0
  -25.9278  -32.4617   23.8176 C   0  0  1  0  0  0
  -27.2171  -26.9690   20.1913 C   0  0  0  0  0  0
  -25.5974  -33.8426   24.2095 N   0  0  0  0  0  0
  -23.4677  -30.4392   21.5222 C   0  0  2  0  0  0
  -24.9195  -28.8249   20.1177 C   0  0  0  0  0  0
  -22.7628  -29.4474   22.4827 C   0  0  0  0  0  0
  -18.0314  -28.1412   22.8479 C   0  0  0  0  0  0
  -24.1481  -36.7203   23.2642 C   0  0  0  0  0  0
  -26.0319  -30.6467   21.3978 C   0  0  0  0  0  0
  -26.0987  -29.2374   20.7498 C   0  0  0  0  0  0
  -27.2403  -28.3274   20.7655 C   0  0  0  0  0  0
  -26.0120  -26.6928   19.5107 C   0  0  0  0  0  0
  -24.8982  -27.5718   19.4811 C   0  0  0  0  0  0
  -23.7044  -29.7501   20.1497 C   0  0  0  0  0  0
  -25.4123  -36.2981   24.0301 C   0  0  1  0  0  0
  -20.5931  -28.3755   23.1214 C   0  0  2  0  0  0
  -20.6783  -26.9442   22.5409 C   0  0  0  0  0  0
  -19.5758  -26.6388   21.5217 C   0  0  0  0  0  0
  -18.1946  -26.7950   22.1629 C   0  0  0  0  0  0
  -19.1573  -28.8903   23.2836 C   0  0  0  0  0  0
  -18.9491  -30.1499   23.8867 C   0  0  0  0  0  0
  -17.6485  -30.6611   24.0556 C   0  0  0  0  0  0
  -25.9096  -34.9366   23.5020 C   0  0  0  0  0  0
  -16.5374  -29.9095   23.6342 C   0  0  0  0  0  0
  -16.7295  -28.6507   23.0376 C   0  0  0  0  0  0
  -26.4547  -31.6544   25.0688 C   0  0  0  0  0  0
  -25.3702  -31.3792   26.1372 C   0  0  0  0  0  0
  -27.0431  -30.2911   24.6388 C   0  0  0  0  0  0
  -27.6045  -32.4342   25.7493 C   0  0  0  0  0  0
  -27.5568  -37.1756   24.8471 C   0  0  0  0  0  0
  -21.4308  -29.3052   22.3574 N   0  0  0  0  0  0
  -26.4276  -37.3713   23.9419 N   0  0  0  0  0  0
  -24.7395  -30.9985   22.0850 N   0  0  0  0  0  0
  -23.4201  -28.8060   23.3059 O   0  0  0  0  0  0
  -28.2781  -25.9413   20.2177 O   0  0  0  0  0  0
  -26.5704  -34.8897   22.4616 O   0  0  0  0  0  0
  -23.5651  -32.1265   23.6851 O   0  0  0  0  0  0
  -28.8957  -22.0602   19.2009 C   0  0  0  0  0  0
  -28.6870  -23.5291   19.1543 C   0  0  0  0  0  0
  -28.1797  -23.5261   21.3865 C   0  0  0  0  0  0
  -28.3884  -22.0463   21.4582 C   0  0  0  0  0  0
  -28.7794  -21.1673   20.3469 C   0  0  0  0  0  0
  -28.2852  -24.4132   20.2361 C   0  0  0  0  0  0
  -26.7353  -21.5908   23.3999 C   0  0  0  0  0  0
  -26.9166  -21.3990   24.9146 C   0  0  0  0  0  0
  -29.0486  -21.9199   23.9534 C   0  0  0  0  0  0
  -28.1444  -21.4021   22.8270 C   0  0  2  0  0  0
  -28.7666  -19.4217   20.2737 C   0  0  0  0  0  0
  -29.9055  -18.0793   20.5212 C   0  0  0  0  0  0
  -29.6510  -16.4394   20.4876 N   0  0  0  0  0  0
  -28.3571  -21.5636   25.2041 N   0  3  0  0  0  0
  -31.4594  -12.9725   19.1873 H   0  0  0  0  0  0
  -30.5058  -11.8517   20.1106 H   0  0  0  0  0  0
  -29.8964  -11.7296   17.6751 H   0  0  0  0  0  0
  -29.5748  -13.4470   17.6475 H   0  0  0  0  0  0
  -28.0173  -11.2742   19.0684 H   0  0  0  0  0  0
  -27.4069  -12.3603   17.8470 H   0  0  0  0  0  0
  -27.5399  -14.2433   19.3451 H   0  0  0  0  0  0
  -28.8042  -12.4520   21.4727 H   0  0  0  0  0  0
  -28.3028  -14.1098   21.7156 H   0  0  0  0  0  0
  -25.2764   -9.5671   22.4772 H   0  0  0  0  0  0
  -24.0003   -7.4618   22.7463 H   0  0  0  0  0  0
  -21.0856   -8.8767   19.8942 H   0  0  0  0  0  0
  -22.3707  -10.9668   19.6170 H   0  0  0  0  0  0
  -21.1997   -7.6140   23.9705 H   0  0  0  0  0  0
  -21.1488   -6.0517   25.9072 H   0  0  0  0  0  0
  -22.0603   -2.7603   23.2844 H   0  0  0  0  0  0
  -22.4057  -11.9809   22.4843 H   0  0  0  0  0  0
  -21.1033  -13.1148   22.2690 H   0  0  0  0  0  0
  -24.6276  -15.8435   20.5130 H   0  0  0  0  0  0
  -26.2303  -15.6301   20.0275 H   0  0  0  0  0  0
  -26.7352  -32.5178   23.0895 H   0  0  0  0  0  0
  -25.0071  -33.9503   25.0214 H   0  0  0  0  0  0
  -22.7760  -31.2675   21.3522 H   0  0  0  0  0  0
  -23.3760  -35.9520   23.3299 H   0  0  0  0  0  0
  -24.3543  -36.8853   22.2056 H   0  0  0  0  0  0
  -23.7220  -37.6380   23.6706 H   0  0  0  0  0  0
  -26.2042  -31.3841   20.6128 H   0  0  0  0  0  0
  -26.8956  -30.7077   22.0483 H   0  0  0  0  0  0
  -28.1397  -28.6432   21.2749 H   0  0  0  0  0  0
  -25.9118  -25.7351   19.0195 H   0  0  0  0  0  0
  -24.0012  -27.2500   18.9694 H   0  0  0  0  0  0
  -23.8553  -30.5154   19.3876 H   0  0  0  0  0  0
  -22.8153  -29.2004   19.8359 H   0  0  0  0  0  0
  -25.1309  -36.1780   25.0789 H   0  0  0  0  0  0
  -21.0016  -28.3362   24.1341 H   0  0  0  0  0  0
  -20.5654  -26.2374   23.3644 H   0  0  0  0  0  0
  -21.6644  -26.7413   22.1225 H   0  0  0  0  0  0
  -19.6898  -25.6288   21.1271 H   0  0  0  0  0  0
  -19.6683  -27.3179   20.6735 H   0  0  0  0  0  0
  -17.4202  -26.6707   21.4047 H   0  0  0  0  0  0
  -18.0341  -26.0097   22.9027 H   0  0  0  0  0  0
  -19.7969  -30.7329   24.2208 H   0  0  0  0  0  0
  -17.5038  -31.6278   24.5180 H   0  0  0  0  0  0
  -15.5377  -30.2985   23.7692 H   0  0  0  0  0  0
  -15.8696  -28.0808   22.7124 H   0  0  0  0  0  0
  -24.5896  -30.7113   25.7716 H   0  0  0  0  0  0
  -24.8877  -32.2995   26.4675 H   0  0  0  0  0  0
  -25.7960  -30.9057   27.0228 H   0  0  0  0  0  0
  -26.3089  -29.6608   24.1360 H   0  0  0  0  0  0
  -27.3955  -29.7240   25.5016 H   0  0  0  0  0  0
  -27.9030  -30.4091   23.9790 H   0  0  0  0  0  0
  -27.2614  -33.3686   26.1943 H   0  0  0  0  0  0
  -28.3927  -32.6833   25.0380 H   0  0  0  0  0  0
  -28.0639  -31.8555   26.5519 H   0  0  0  0  0  0
  -28.2576  -38.0063   24.7523 H   0  0  0  0  0  0
  -28.1072  -36.2588   24.6289 H   0  0  0  0  0  0
  -27.2282  -37.1389   25.8874 H   0  0  0  0  0  0
  -20.9570  -29.8704   21.6669 H   0  0  0  0  0  0
  -26.0123  -38.2771   24.1444 H   0  0  0  0  0  0
  -29.1421  -21.5925   18.2580 H   0  0  0  0  0  0
  -28.8672  -24.0046   18.2003 H   0  0  0  0  0  0
  -27.9226  -24.0325   22.3053 H   0  0  0  0  0  0
  -26.3690  -22.6013   23.2207 H   0  0  0  0  0  0
  -26.0090  -20.9002   22.9699 H   0  0  0  0  0  0
  -26.6035  -20.4013   25.2226 H   0  0  0  0  0  0
  -26.3198  -22.1192   25.4772 H   0  0  0  0  0  0
  -29.1438  -23.0051   23.9250 H   0  0  0  0  0  0
  -30.0557  -21.5034   23.9089 H   0  0  0  0  0  0
  -28.3257  -20.3300   22.7549 H   0  0  0  0  0  0
  -28.4128  -19.2537   19.2560 H   0  0  0  0  0  0
  -27.8991  -19.1523   20.8759 H   0  0  0  0  0  0
  -30.3356  -18.2496   21.5084 H   0  0  0  0  0  0
  -30.7363  -18.2515   19.8366 H   0  0  0  0  0  0
  -28.6721  -16.2169   20.5897 H   0  0  0  0  0  0
  -28.7219  -20.6952   25.5614 H   0  0  0  0  0  0
  -28.5061  -22.2755   25.9008 H   0  0  0  0  0  0
  1 25  1  0  0  0
  1 30  2  0  0  0
  1 83  1  0  0  0
  2  3  1  0  0  0
  2 25  1  0  0  0
  2 85  1  0  0  0
  2 86  1  0  0  0
  3  4  1  0  0  0
  3 87  1  0  0  0
  3 88  1  0  0  0
  4  5  1  0  0  0
  4 89  1  0  0  0
  4 90  1  0  0  0
  5  6  1  0  0  0
  5 26  1  0  0  0
  5 91  1  0  0  0
  6 25  1  0  0  0
  6 92  1  0  0  0
  6 93  1  0  0  0
  7  8  2  0  0  0
  7 26  1  0  0  0
  7 29  1  0  0  0
  8  9  1  0  0  0
  8 22  1  0  0  0
  9 10  1  0  0  0
  9 27  2  0  0  0
 10 11  2  0  0  0
 10 15  1  0  0  0
 11 12  1  0  0  0
 11 94  1  0  0  0
 12 13  2  0  0  0
 12 95  1  0  0  0
 13 14  1  0  0  0
 13 31  1  0  0  0
 14 15  2  0  0  0
 14 96  1  0  0  0
 15 97  1  0  0  0
 16 17  2  0  0  0
 16 21  1  0  0  0
 16 31  1  0  0  0
 17 18  1  0  0  0
 17 98  1  0  0  0
 18 19  2  0  0  0
 18 99  1  0  0  0
 19 20  1  0  0  0
 19 24  1  0  0  0
 20 21  2  0  0  0
 20100  1  0  0  0
 21 23  1  0  0  0
 22 28  1  0  0  0
 22 32  2  0  0  0
 26 27  1  0  0  0
 28101  1  0  0  0
 28102  1  0  0  0
 29103  1  0  0  0
 29104  1  0  0  0
 33 34  1  0  0  0
 33 66  1  0  0  0
 33 70  2  0  0  0
 34 36  1  0  0  0
 34 59  1  0  0  0
 34105  1  0  0  0
 35 44  2  0  0  0
 35 45  1  0  0  0
 35 68  1  0  0  0
 36 56  1  0  0  0
 36106  1  0  0  0
 37 39  1  0  0  0
 37 47  1  0  0  0
 37 66  1  0  0  0
 37107  1  0  0  0
 38 43  2  0  0  0
 38 46  1  0  0  0
 38 47  1  0  0  0
 39 64  1  0  0  0
 39 67  2  0  0  0
 40 52  1  0  0  0
 40 53  2  0  0  0
 40 58  1  0  0  0
 41108  1  0  0  0
 41109  1  0  0  0
 41110  1  0  0  0
 41 48  1  0  0  0
 42 43  1  0  0  0
 42 66  1  0  0  0
 42111  1  0  0  0
 42112  1  0  0  0
 43 44  1  0  0  0
 44113  1  0  0  0
 45 46  2  0  0  0
 45114  1  0  0  0
 46115  1  0  0  0
 47116  1  0  0  0
 47117  1  0  0  0
 48 56  1  0  0  0
 48 65  1  0  0  0
 48118  1  0  0  0
 49 50  1  0  0  0
 49 53  1  0  0  0
 49 64  1  0  0  0
 49119  1  0  0  0
 50 51  1  0  0  0
 50120  1  0  0  0
 50121  1  0  0  0
 51 52  1  0  0  0
 51122  1  0  0  0
 51123  1  0  0  0
 52124  1  0  0  0
 52125  1  0  0  0
 53 54  1  0  0  0
 54 55  2  0  0  0
 54126  1  0  0  0
 55 57  1  0  0  0
 55127  1  0  0  0
 56 69  2  0  0  0
 57 58  2  0  0  0
 57128  1  0  0  0
 58129  1  0  0  0
 59 60  1  0  0  0
 59 61  1  0  0  0
 59 62  1  0  0  0
 60130  1  0  0  0
 60131  1  0  0  0
 60132  1  0  0  0
 61133  1  0  0  0
 61134  1  0  0  0
 61135  1  0  0  0
 62136  1  0  0  0
 62137  1  0  0  0
 62138  1  0  0  0
 63 65  1  0  0  0
 63139  1  0  0  0
 63140  1  0  0  0
 63141  1  0  0  0
 64142  1  0  0  0
 65143  1  0  0  0
 68 76  1  0  0  0
 71 72  2  0  0  0
 71 75  1  0  0  0
 71144  1  0  0  0
 72 76  1  0  0  0
 72145  1  0  0  0
 73 74  1  0  0  0
 73 76  2  0  0  0
 73146  1  0  0  0
 74 75  2  0  0  0
 74 80  1  0  0  0
 75 81  1  0  0  0
 77 78  1  0  0  0
 77 80  1  0  0  0
 77147  1  0  0  0
 77148  1  0  0  0
 78 84  1  0  0  0
 78149  1  0  0  0
 78150  1  0  0  0
 79 80  1  0  0  0
 79 84  1  0  0  0
 79151  1  0  0  0
 79152  1  0  0  0
 80153  1  0  0  0
 81 82  1  0  0  0
 81154  1  0  0  0
 81155  1  0  0  0
 82 83  1  0  0  0
 82156  1  0  0  0
 82157  1  0  0  0
 83158  1  0  0  0
 84159  1  0  0  0
 84160  1  0  0  0
M  CHG  1  84   1
M  ISO  4   1 100  68 101  76 101  83 100
M  END
> <chiral flag>
0

> <version>
0

> <s_m_source_file>
/data/baiqing/PycharmProjects/Reinvent-master-3.2/result/LINK_invent/BTK/process_docking_weight1_custom_sum_contain_oxygen_bond_distance_aromatic_linkinvent_7_9_3/rearranged_h_0124.sdf

> <i_m_source_file_index>
81

> <r_mmod_Potential_Energy-OPLS-2005>
891.523193359375

> <r_mmod_Stretch_Energy-OPLS-2005>
453.144226074219

> <r_mmod_Bend_Energy-OPLS-2005>
417.996948242188

> <r_mmod_Torsional_Energy-OPLS-2005>
284.045440673828

> <r_mmod_Improper_Torsional_Energy-OPLS-2005>
7.618248462677

> <r_mmod_Van_der_Waal_Energy-OPLS-2005>
125.218864440918

> <r_mmod_Electrostatic_Energy-OPLS-2005>
-289.780181884766

> <r_mmod_Solvation_Energy-OPLS-2005>
-491.795776367188

> <b_mmod_Minimization_Converged-OPLS-2005>
0

> <r_mmod_RMS_Derivative-OPLS-2005>
1.82643973827362

$$$$
81
                    3D
 Structure written by MMmdl.
164173  0  0  1  0            999 V2000
  -30.6809  -14.6097   20.5025 C   0  0  0  0  0  0
  -30.4187  -12.3773   19.4559 C   0  0  0  0  0  0
  -29.4992  -12.4981   18.2234 C   0  0  0  0  0  0
  -28.0235  -12.3440   18.6372 C   0  0  0  0  0  0
  -27.6483  -13.2254   19.8593 C   0  0  2  0  0  0
  -28.6929  -13.1102   20.9918 C   0  0  0  0  0  0
  -25.2533  -13.8195   20.5696 C   0  0  0  0  0  0
  -24.1812  -13.0446   20.9199 C   0  0  0  0  0  0
  -24.6394  -11.6921   20.8747 C   0  0  0  0  0  0
  -23.9069  -10.4297   21.0407 C   0  0  0  0  0  0
  -24.3620   -9.4211   21.9184 C   0  0  0  0  0  0
  -23.6295   -8.2246   22.0754 C   0  0  0  0  0  0
  -22.4277   -8.0283   21.3544 C   0  0  0  0  0  0
  -21.9913   -9.0257   20.4646 C   0  0  0  0  0  0
  -22.7242  -10.2137   20.3056 C   0  0  0  0  0  0
  -21.6854   -6.0736   22.5278 C   0  0  0  0  0  0
  -21.4015   -6.5641   23.8212 C   0  0  0  0  0  0
  -21.3660   -5.6793   24.9174 C   0  0  0  0  0  0
  -21.6044   -4.3056   24.7225 C   0  0  0  0  0  0
  -21.8819   -3.8148   23.4346 C   0  0  0  0  0  0
  -21.9193   -4.6964   22.3402 C   0  0  0  0  0  0
  -22.7833  -13.5229   21.1857 C   0  0  0  0  0  0
  -22.1661   -4.2150   21.0980 F   0  0  0  0  0  0
  -21.5628   -3.4539   25.7737 F   0  0  0  0  0  0
  -30.0072  -13.4215   20.4163 N   0  0  0  0  0  0
  -26.2966  -12.9396   20.3322 N   0  0  0  0  0  0
  -25.9325  -11.6541   20.5769 N   0  0  0  0  0  0
  -22.0479  -12.8218   22.0414 N   0  0  0  0  0  0
  -25.4233  -15.1917   20.4108 N   0  0  0  0  0  0
  -31.8502  -14.7001   20.1220 O   0  0  0  0  0  0
  -21.6641   -6.8879   21.4240 O   0  0  0  0  0  0
  -22.3516  -14.5535   20.6705 O   0  0  0  0  0  0
  -24.6234  -31.8615   23.2044 C   0  0  0  0  0  0
  -25.9091  -32.4790   23.8367 C   0  0  1  0  0  0
  -27.2222  -27.3500   20.1169 C   0  0  0  0  0  0
  -25.5916  -33.8590   24.2295 N   0  0  0  0  0  0
  -23.4169  -30.4849   21.5456 C   0  0  2  0  0  0
  -24.8664  -28.9461   20.1072 C   0  0  0  0  0  0
  -22.7466  -29.4628   22.4939 C   0  0  0  0  0  0
  -18.0284  -28.1383   22.8489 C   0  0  0  0  0  0
  -24.1488  -36.7300   23.2639 C   0  0  0  0  0  0
  -25.9552  -30.8025   21.3715 C   0  0  0  0  0  0
  -26.0331  -29.4326   20.7134 C   0  0  0  0  0  0
  -27.2194  -28.6440   20.7125 C   0  0  0  0  0  0
  -26.0433  -26.9098   19.4821 C   0  0  0  0  0  0
  -24.8714  -27.6885   19.4820 C   0  0  0  0  0  0
  -23.6310  -29.8207   20.1598 C   0  0  0  0  0  0
  -25.4111  -36.3092   24.0332 C   0  0  1  0  0  0
  -20.5884  -28.3684   23.1289 C   0  0  2  0  0  0
  -20.6774  -26.9409   22.5412 C   0  0  0  0  0  0
  -19.5750  -26.6384   21.5213 C   0  0  0  0  0  0
  -18.1930  -26.7927   22.1625 C   0  0  0  0  0  0
  -19.1537  -28.8850   23.2885 C   0  0  0  0  0  0
  -18.9460  -30.1453   23.8899 C   0  0  0  0  0  0
  -17.6461  -30.6586   24.0563 C   0  0  0  0  0  0
  -25.9044  -34.9459   23.5113 C   0  0  0  0  0  0
  -16.5352  -29.9085   23.6329 C   0  0  0  0  0  0
  -16.7272  -28.6502   23.0351 C   0  0  0  0  0  0
  -26.4488  -31.6588   25.0723 C   0  0  0  0  0  0
  -25.3732  -31.3714   26.1457 C   0  0  0  0  0  0
  -27.0329  -30.3018   24.6153 C   0  0  0  0  0  0
  -27.6052  -32.4319   25.7493 C   0  0  0  0  0  0
  -27.5579  -37.1806   24.8465 C   0  0  0  0  0  0
  -21.4181  -29.3039   22.3685 N   0  0  0  0  0  0
  -26.4293  -37.3782   23.9407 N   0  0  0  0  0  0
  -24.6837  -31.0652   22.0980 N   0  0  0  0  0  0
  -23.4201  -28.8168   23.3010 O   0  0  0  0  0  0
  -28.2928  -26.4587   20.1744 O   0  0  0  0  0  0
  -26.5611  -34.8921   22.4678 O   0  0  0  0  0  0
  -23.5403  -32.1399   23.7387 O   0  0  0  0  0  0
  -30.0067  -22.1647   19.8020 C   0  0  0  0  0  0
  -28.5792  -21.5177   21.6313 C   0  0  0  0  0  0
  -29.5111  -23.5042   19.8640 C   0  0  0  0  0  0
  -28.0836  -22.8495   21.6883 C   0  0  0  0  0  0
  -29.5849  -21.1475   20.7089 C   0  0  0  0  0  0
  -28.5545  -23.8855   20.8363 C   0  0  0  0  0  0
  -32.2145  -18.5889   22.1490 C   0  0  0  0  0  0
  -31.4196  -17.2794   22.1630 C   0  0  0  0  0  0
  -29.5943  -18.3969   20.7930 C   0  0  0  0  0  0
  -30.3715  -19.7907   20.8398 C   0  0  2  0  0  0
  -31.2988  -19.8323   22.0970 C   0  0  2  0  0  0
  -30.5620  -17.1328   20.8950 C   0  0  2  0  0  0
  -28.0440  -25.3442   21.0990 C   0  0  0  0  0  0
  -32.1416  -21.1312   22.2005 C   0  0  0  0  0  0
  -29.9860  -15.7400   20.8484 N   0  0  0  0  0  0
  -32.9047  -21.1661   23.3960 O   0  0  0  0  0  0
  -31.4637  -12.4694   19.1553 H   0  0  0  0  0  0
  -30.3275  -11.3895   19.9103 H   0  0  0  0  0  0
  -29.7603  -11.7422   17.4814 H   0  0  0  0  0  0
  -29.6490  -13.4659   17.7418 H   0  0  0  0  0  0
  -27.8587  -11.2926   18.8755 H   0  0  0  0  0  0
  -27.3689  -12.5691   17.7944 H   0  0  0  0  0  0
  -27.6607  -14.2568   19.5064 H   0  0  0  0  0  0
  -28.6967  -12.1042   21.4139 H   0  0  0  0  0  0
  -28.4482  -13.7833   21.8149 H   0  0  0  0  0  0
  -25.2765   -9.5687   22.4759 H   0  0  0  0  0  0
  -24.0004   -7.4637   22.7474 H   0  0  0  0  0  0
  -21.0844   -8.8776   19.8952 H   0  0  0  0  0  0
  -22.3700  -10.9675   19.6165 H   0  0  0  0  0  0
  -21.2007   -7.6149   23.9715 H   0  0  0  0  0  0
  -21.1481   -6.0524   25.9077 H   0  0  0  0  0  0
  -22.0598   -2.7609   23.2846 H   0  0  0  0  0  0
  -22.4098  -11.9879   22.4799 H   0  0  0  0  0  0
  -21.1096  -13.1239   22.2621 H   0  0  0  0  0  0
  -24.6563  -15.8463   20.5198 H   0  0  0  0  0  0
  -26.2730  -15.6313   20.0801 H   0  0  0  0  0  0
  -26.7162  -32.5476   23.1123 H   0  0  0  0  0  0
  -25.0065  -33.9740   25.0441 H   0  0  0  0  0  0
  -22.7093  -31.3045   21.4039 H   0  0  0  0  0  0
  -23.3748  -35.9635   23.3307 H   0  0  0  0  0  0
  -24.3580  -36.8912   22.2053 H   0  0  0  0  0  0
  -23.7244  -37.6506   23.6654 H   0  0  0  0  0  0
  -26.0816  -31.5676   20.6043 H   0  0  0  0  0  0
  -26.8373  -30.8524   21.9982 H   0  0  0  0  0  0
  -28.1125  -29.0049   21.2034 H   0  0  0  0  0  0
  -26.0224  -25.9354   19.0139 H   0  0  0  0  0  0
  -23.9773  -27.3094   19.0064 H   0  0  0  0  0  0
  -23.7451  -30.5979   19.4033 H   0  0  0  0  0  0
  -22.7528  -29.2463   19.8593 H   0  0  0  0  0  0
  -25.1291  -36.1948   25.0826 H   0  0  0  0  0  0
  -20.9978  -28.3256   24.1409 H   0  0  0  0  0  0
  -20.5677  -26.2292   23.3609 H   0  0  0  0  0  0
  -21.6643  -26.7441   22.1203 H   0  0  0  0  0  0
  -19.6911  -25.6296   21.1239 H   0  0  0  0  0  0
  -19.6688  -27.3198   20.6746 H   0  0  0  0  0  0
  -17.4200  -26.6675   21.4027 H   0  0  0  0  0  0
  -18.0330  -26.0068   22.9020 H   0  0  0  0  0  0
  -19.7937  -30.7268   24.2269 H   0  0  0  0  0  0
  -17.5015  -31.6267   24.5164 H   0  0  0  0  0  0
  -15.5352  -30.2988   23.7652 H   0  0  0  0  0  0
  -15.8672  -28.0823   22.7063 H   0  0  0  0  0  0
  -24.5907  -30.7063   25.7786 H   0  0  0  0  0  0
  -24.8923  -32.2876   26.4893 H   0  0  0  0  0  0
  -25.8066  -30.8886   27.0224 H   0  0  0  0  0  0
  -26.2896  -29.6773   24.1184 H   0  0  0  0  0  0
  -27.4049  -29.7265   25.4642 H   0  0  0  0  0  0
  -27.8755  -30.4316   23.9357 H   0  0  0  0  0  0
  -27.2663  -33.3614   26.2079 H   0  0  0  0  0  0
  -28.3858  -32.6885   25.0319 H   0  0  0  0  0  0
  -28.0724  -31.8438   26.5403 H   0  0  0  0  0  0
  -28.2600  -38.0099   24.7507 H   0  0  0  0  0  0
  -28.1072  -36.2630   24.6297 H   0  0  0  0  0  0
  -27.2297  -37.1461   25.8869 H   0  0  0  0  0  0
  -20.9353  -29.8766   21.6902 H   0  0  0  0  0  0
  -26.0177  -38.2859   24.1403 H   0  0  0  0  0  0
  -30.7874  -21.9428   19.0874 H   0  0  0  0  0  0
  -28.2320  -20.7965   22.3584 H   0  0  0  0  0  0
  -29.9065  -24.2513   19.1898 H   0  0  0  0  0  0
  -27.3539  -23.0914   22.4488 H   0  0  0  0  0  0
  -32.9007  -18.5969   21.3010 H   0  0  0  0  0  0
  -32.8396  -18.6157   23.0419 H   0  0  0  0  0  0
  -30.7886  -17.2360   23.0522 H   0  0  0  0  0  0
  -32.1244  -16.4513   22.2486 H   0  0  0  0  0  0
  -29.0210  -18.3400   19.8672 H   0  0  0  0  0  0
  -28.8659  -18.3643   21.6039 H   0  0  0  0  0  0
  -31.0341  -19.7723   19.9730 H   0  0  0  0  0  0
  -30.6480  -19.8041   22.9727 H   0  0  0  0  0  0
  -31.2319  -17.2068   20.0354 H   0  0  0  0  0  0
  -28.4787  -25.6482   22.0520 H   0  0  0  0  0  0
  -26.9763  -25.2483   21.3061 H   0  0  0  0  0  0
  -31.5107  -22.0204   22.2039 H   0  0  0  0  0  0
  -32.8084  -21.2211   21.3415 H   0  0  0  0  0  0
  -29.0148  -15.6231   21.0966 H   0  0  0  0  0  0
  -32.2976  -21.1847   24.1302 H   0  0  0  0  0  0
  1 25  1  0  0  0
  1 30  2  0  0  0
  1 85  1  0  0  0
  2  3  1  0  0  0
  2 25  1  0  0  0
  2 87  1  0  0  0
  2 88  1  0  0  0
  3  4  1  0  0  0
  3 89  1  0  0  0
  3 90  1  0  0  0
  4  5  1  0  0  0
  4 91  1  0  0  0
  4 92  1  0  0  0
  5  6  1  0  0  0
  5 26  1  0  0  0
  5 93  1  0  0  0
  6 25  1  0  0  0
  6 94  1  0  0  0
  6 95  1  0  0  0
  7  8  2  0  0  0
  7 26  1  0  0  0
  7 29  1  0  0  0
  8  9  1  0  0  0
  8 22  1  0  0  0
  9 10  1  0  0  0
  9 27  2  0  0  0
 10 11  2  0  0  0
 10 15  1  0  0  0
 11 12  1  0  0  0
 11 96  1  0  0  0
 12 13  2  0  0  0
 12 97  1  0  0  0
 13 14  1  0  0  0
 13 31  1  0  0  0
 14 15  2  0  0  0
 14 98  1  0  0  0
 15 99  1  0  0  0
 16 17  2  0  0  0
 16 21  1  0  0  0
 16 31  1  0  0  0
 17 18  1  0  0  0
 17100  1  0  0  0
 18 19  2  0  0  0
 18101  1  0  0  0
 19 20  1  0  0  0
 19 24  1  0  0  0
 20 21  2  0  0  0
 20102  1  0  0  0
 21 23  1  0  0  0
 22 28  1  0  0  0
 22 32  2  0  0  0
 26 27  1  0  0  0
 28103  1  0  0  0
 28104  1  0  0  0
 29105  1  0  0  0
 29106  1  0  0  0
 33 34  1  0  0  0
 33 66  1  0  0  0
 33 70  2  0  0  0
 34 36  1  0  0  0
 34 59  1  0  0  0
 34107  1  0  0  0
 35 44  2  0  0  0
 35 45  1  0  0  0
 35 68  1  0  0  0
 36 56  1  0  0  0
 36108  1  0  0  0
 37 39  1  0  0  0
 37 47  1  0  0  0
 37 66  1  0  0  0
 37109  1  0  0  0
 38 43  2  0  0  0
 38 46  1  0  0  0
 38 47  1  0  0  0
 39 64  1  0  0  0
 39 67  2  0  0  0
 40 52  1  0  0  0
 40 53  2  0  0  0
 40 58  1  0  0  0
 41110  1  0  0  0
 41111  1  0  0  0
 41112  1  0  0  0
 41 48  1  0  0  0
 42 43  1  0  0  0
 42 66  1  0  0  0
 42113  1  0  0  0
 42114  1  0  0  0
 43 44  1  0  0  0
 44115  1  0  0  0
 45 46  2  0  0  0
 45116  1  0  0  0
 46117  1  0  0  0
 47118  1  0  0  0
 47119  1  0  0  0
 48 56  1  0  0  0
 48 65  1  0  0  0
 48120  1  0  0  0
 49 50  1  0  0  0
 49 53  1  0  0  0
 49 64  1  0  0  0
 49121  1  0  0  0
 50 51  1  0  0  0
 50122  1  0  0  0
 50123  1  0  0  0
 51 52  1  0  0  0
 51124  1  0  0  0
 51125  1  0  0  0
 52126  1  0  0  0
 52127  1  0  0  0
 53 54  1  0  0  0
 54 55  2  0  0  0
 54128  1  0  0  0
 55 57  1  0  0  0
 55129  1  0  0  0
 56 69  2  0  0  0
 57 58  2  0  0  0
 57130  1  0  0  0
 58131  1  0  0  0
 59 60  1  0  0  0
 59 61  1  0  0  0
 59 62  1  0  0  0
 60132  1  0  0  0
 60133  1  0  0  0
 60134  1  0  0  0
 61135  1  0  0  0
 61136  1  0  0  0
 61137  1  0  0  0
 62138  1  0  0  0
 62139  1  0  0  0
 62140  1  0  0  0
 63 65  1  0  0  0
 63141  1  0  0  0
 63142  1  0  0  0
 63143  1  0  0  0
 64144  1  0  0  0
 65145  1  0  0  0
 68 83  1  0  0  0
 71 73  2  0  0  0
 71 75  1  0  0  0
 71146  1  0  0  0
 72 74  1  0  0  0
 72 75  2  0  0  0
 72147  1  0  0  0
 73 76  1  0  0  0
 73148  1  0  0  0
 74 76  2  0  0  0
 74149  1  0  0  0
 75 80  1  0  0  0
 76 83  1  0  0  0
 77 78  1  0  0  0
 77 81  1  0  0  0
 77150  1  0  0  0
 77151  1  0  0  0
 78 82  1  0  0  0
 78152  1  0  0  0
 78153  1  0  0  0
 79 80  1  0  0  0
 79 82  1  0  0  0
 79154  1  0  0  0
 79155  1  0  0  0
 80 81  1  0  0  0
 80156  1  0  0  0
 81 84  1  0  0  0
 81157  1  0  0  0
 82 85  1  0  0  0
 82158  1  0  0  0
 83159  1  0  0  0
 83160  1  0  0  0
 84 86  1  0  0  0
 84161  1  0  0  0
 84162  1  0  0  0
 85163  1  0  0  0
 86164  1  0  0  0
M  ISO  4   1 100  68 101  83 101  85 100
M  END
> <chiral flag>
0

> <version>
0

> <s_m_source_file>
/data/baiqing/PycharmProjects/Reinvent-master-3.2/result/LINK_invent/BTK/process_docking_weight1_custom_sum_contain_oxygen_bond_distance_aromatic_linkinvent_7_9_3/rearranged_h_0124.sdf

> <i_m_source_file_index>
82

> <r_mmod_Potential_Energy-OPLS-2005>
102.370544433594

> <r_mmod_Stretch_Energy-OPLS-2005>
74.8097839355469

> <r_mmod_Bend_Energy-OPLS-2005>
137.510192871094

> <r_mmod_Torsional_Energy-OPLS-2005>
259.239471435547

> <r_mmod_Improper_Torsional_Energy-OPLS-2005>
5.38086175918579

> <r_mmod_Van_der_Waal_Energy-OPLS-2005>
147.541427612305

> <r_mmod_Electrostatic_Energy-OPLS-2005>
-348.807800292969

> <r_mmod_Solvation_Energy-OPLS-2005>
-217.890258789062

> <b_mmod_Minimization_Converged-OPLS-2005>
0

> <r_mmod_RMS_Derivative-OPLS-2005>
0.110922403633595

$$$$
82
                    3D
 Structure written by MMmdl.
177186  0  0  1  0            999 V2000
  -30.7059  -14.4711   20.6584 C   0  0  0  0  0  0
  -30.4359  -12.3470   19.4146 C   0  0  0  0  0  0
  -29.4910  -12.5197   18.2073 C   0  0  0  0  0  0
  -28.0127  -12.3752   18.6225 C   0  0  0  0  0  0
  -27.6601  -13.2076   19.8818 C   0  0  2  0  0  0
  -28.6988  -12.9755   20.9987 C   0  0  0  0  0  0
  -25.2572  -13.8181   20.5655 C   0  0  0  0  0  0
  -24.1833  -13.0480   20.9215 C   0  0  0  0  0  0
  -24.6367  -11.6945   20.8771 C   0  0  0  0  0  0
  -23.9039  -10.4343   21.0426 C   0  0  0  0  0  0
  -24.3601   -9.4261   21.9195 C   0  0  0  0  0  0
  -23.6310   -8.2266   22.0723 C   0  0  0  0  0  0
  -22.4286   -8.0301   21.3518 C   0  0  0  0  0  0
  -21.9918   -9.0273   20.4599 C   0  0  0  0  0  0
  -22.7217  -10.2170   20.3038 C   0  0  0  0  0  0
  -21.6841   -6.0773   22.5280 C   0  0  0  0  0  0
  -21.3976   -6.5651   23.8223 C   0  0  0  0  0  0
  -21.3677   -5.6790   24.9178 C   0  0  0  0  0  0
  -21.6075   -4.3059   24.7191 C   0  0  0  0  0  0
  -21.8825   -3.8166   23.4312 C   0  0  0  0  0  0
  -21.9178   -4.7010   22.3380 C   0  0  0  0  0  0
  -22.7859  -13.5262   21.1910 C   0  0  0  0  0  0
  -22.1646   -4.2209   21.0953 F   0  0  0  0  0  0
  -21.5684   -3.4523   25.7696 F   0  0  0  0  0  0
  -30.0309  -13.3043   20.4564 N   0  0  0  0  0  0
  -26.3000  -12.9336   20.3379 N   0  0  0  0  0  0
  -25.9286  -11.6509   20.5775 N   0  0  0  0  0  0
  -22.0470  -12.8236   22.0439 N   0  0  0  0  0  0
  -25.4342  -15.1869   20.3952 N   0  0  0  0  0  0
  -31.8074  -14.7013   20.1472 O   0  0  0  0  0  0
  -21.6629   -6.8919   21.4232 O   0  0  0  0  0  0
  -22.3541  -14.5569   20.6770 O   0  0  0  0  0  0
  -24.6106  -31.8704   23.2133 C   0  0  0  0  0  0
  -25.9030  -32.4830   23.8412 C   0  0  1  0  0  0
  -27.2297  -27.4619   20.0725 C   0  0  0  0  0  0
  -25.5893  -33.8623   24.2350 N   0  0  0  0  0  0
  -23.3949  -30.4963   21.5550 C   0  0  2  0  0  0
  -24.8414  -28.9686   20.1090 C   0  0  0  0  0  0
  -22.7366  -29.4684   22.5027 C   0  0  0  0  0  0
  -18.0262  -28.1340   22.8517 C   0  0  0  0  0  0
  -24.1476  -36.7304   23.2637 C   0  0  0  0  0  0
  -25.9225  -30.8415   21.3623 C   0  0  0  0  0  0
  -26.0021  -29.4810   20.7029 C   0  0  0  0  0  0
  -27.2030  -28.7346   20.6848 C   0  0  0  0  0  0
  -26.0573  -26.9661   19.4618 C   0  0  0  0  0  0
  -24.8620  -27.7084   19.4862 C   0  0  0  0  0  0
  -23.5997  -29.8297   20.1684 C   0  0  0  0  0  0
  -25.4088  -36.3103   24.0353 C   0  0  1  0  0  0
  -20.5856  -28.3610   23.1343 C   0  0  2  0  0  0
  -20.6763  -26.9358   22.5425 C   0  0  0  0  0  0
  -19.5744  -26.6369   21.5217 C   0  0  0  0  0  0
  -18.1921  -26.7901   22.1621 C   0  0  0  0  0  0
  -19.1516  -28.8795   23.2931 C   0  0  0  0  0  0
  -18.9452  -30.1415   23.8911 C   0  0  0  0  0  0
  -17.6465  -30.6577   24.0562 C   0  0  0  0  0  0
  -25.9024  -34.9482   23.5148 C   0  0  0  0  0  0
  -16.5346  -29.9074   23.6334 C   0  0  0  0  0  0
  -16.7259  -28.6482   23.0360 C   0  0  0  0  0  0
  -26.4461  -31.6593   25.0726 C   0  0  0  0  0  0
  -25.3733  -31.3734   26.1485 C   0  0  0  0  0  0
  -27.0294  -30.3047   24.6071 C   0  0  0  0  0  0
  -27.6039  -32.4293   25.7496 C   0  0  0  0  0  0
  -27.5585  -37.1775   24.8451 C   0  0  0  0  0  0
  -21.4112  -29.3012   22.3758 N   0  0  0  0  0  0
  -26.4262  -37.3789   23.9437 N   0  0  0  0  0  0
  -24.6607  -31.0825   22.1026 N   0  0  0  0  0  0
  -23.4179  -28.8231   23.3049 O   0  0  0  0  0  0
  -28.3665  -26.6862   20.1018 O   0  0  0  0  0  0
  -26.5589  -34.8946   22.4710 O   0  0  0  0  0  0
  -23.5328  -32.1446   23.7565 O   0  0  0  0  0  0
  -26.5590  -22.2763   17.1211 C   0  0  0  0  0  0
  -27.7693  -22.7755   16.6058 C   0  0  0  0  0  0
  -26.3475  -22.2478   18.5133 C   0  0  0  0  0  0
  -28.7620  -23.2470   17.4818 C   0  0  0  0  0  0
  -27.3459  -22.7133   19.3914 C   0  0  0  0  0  0
  -28.5613  -23.2197   18.8784 C   0  0  0  0  0  0
  -32.0047  -20.6330   21.8980 C   0  0  0  0  0  0
  -31.9302  -22.7528   20.8102 C   0  0  0  0  0  0
  -30.6736  -20.1572   21.2551 C   0  0  1  0  0  0
  -30.5927  -22.3911   20.1216 C   0  0  2  0  0  0
  -28.2633  -17.4051   22.7086 C   0  0  0  0  0  0
  -29.9080  -19.2305   22.2514 C   0  0  0  0  0  0
  -29.3798  -24.5563   20.9990 C   0  0  0  0  0  0
  -30.5494  -16.7201   21.8221 C   0  0  0  0  0  0
  -28.1780  -25.5252   20.9167 C   0  0  0  0  0  0
  -29.7208  -23.6418   19.7808 C   0  0  2  0  0  0
  -29.4375  -17.8137   21.7929 C   0  0  1  0  0  0
  -32.7383  -21.5504   21.0236 N   0  0  0  0  0  0
  -30.0610  -15.3930   21.3998 N   0  0  0  0  0  0
  -29.8585  -21.3573   20.9064 N   0  3  0  0  0  0
  -31.4701  -12.4961   19.0968 H   0  0  0  0  0  0
  -30.3896  -11.3303   19.8077 H   0  0  0  0  0  0
  -29.7305  -11.7827   17.4396 H   0  0  0  0  0  0
  -29.6497  -13.5005   17.7558 H   0  0  0  0  0  0
  -27.8194  -11.3192   18.8170 H   0  0  0  0  0  0
  -27.3580  -12.6570   17.7974 H   0  0  0  0  0  0
  -27.7080  -14.2588   19.5996 H   0  0  0  0  0  0
  -28.6808  -11.9315   21.3135 H   0  0  0  0  0  0
  -28.4399  -13.5450   21.8921 H   0  0  0  0  0  0
  -25.2753   -9.5788   22.4767 H   0  0  0  0  0  0
  -24.0072   -7.4660   22.7412 H   0  0  0  0  0  0
  -21.0871   -8.8769   19.8876 H   0  0  0  0  0  0
  -22.3679  -10.9714   19.6139 H   0  0  0  0  0  0
  -21.1897   -7.6144   23.9750 H   0  0  0  0  0  0
  -21.1500   -6.0490   25.9097 H   0  0  0  0  0  0
  -22.0569   -2.7628   23.2754 H   0  0  0  0  0  0
  -22.4037  -11.9842   22.4778 H   0  0  0  0  0  0
  -21.1073  -13.1246   22.2604 H   0  0  0  0  0  0
  -24.6769  -15.8533   20.5017 H   0  0  0  0  0  0
  -26.2852  -15.6074   20.0455 H   0  0  0  0  0  0
  -26.7097  -32.5546   23.1173 H   0  0  0  0  0  0
  -25.0016  -33.9790   25.0487 H   0  0  0  0  0  0
  -22.6821  -31.3129   21.4208 H   0  0  0  0  0  0
  -23.3751  -35.9616   23.3248 H   0  0  0  0  0  0
  -24.3587  -36.8961   22.2063 H   0  0  0  0  0  0
  -23.7224  -37.6498   23.6665 H   0  0  0  0  0  0
  -26.0358  -31.6136   20.5993 H   0  0  0  0  0  0
  -26.8100  -30.8906   21.9814 H   0  0  0  0  0  0
  -28.0974  -29.1245   21.1490 H   0  0  0  0  0  0
  -26.0677  -26.0027   18.9678 H   0  0  0  0  0  0
  -23.9700  -27.3097   19.0204 H   0  0  0  0  0  0
  -23.6994  -30.6066   19.4098 H   0  0  0  0  0  0
  -22.7227  -29.2484   19.8757 H   0  0  0  0  0  0
  -25.1273  -36.1928   25.0843 H   0  0  0  0  0  0
  -20.9949  -28.3146   24.1458 H   0  0  0  0  0  0
  -20.5649  -26.2219   23.3598 H   0  0  0  0  0  0
  -21.6631  -26.7409   22.1207 H   0  0  0  0  0  0
  -19.6900  -25.6283   21.1228 H   0  0  0  0  0  0
  -19.6699  -27.3203   20.6763 H   0  0  0  0  0  0
  -17.4207  -26.6661   21.4016 H   0  0  0  0  0  0
  -18.0311  -26.0027   22.8992 H   0  0  0  0  0  0
  -19.7943  -30.7217   24.2270 H   0  0  0  0  0  0
  -17.5036  -31.6266   24.5134 H   0  0  0  0  0  0
  -15.5347  -30.2980   23.7668 H   0  0  0  0  0  0
  -15.8651  -28.0810   22.7054 H   0  0  0  0  0  0
  -24.5848  -30.7135   25.7845 H   0  0  0  0  0  0
  -24.8988  -32.2923   26.4941 H   0  0  0  0  0  0
  -25.8077  -30.8888   27.0237 H   0  0  0  0  0  0
  -26.2844  -29.6807   24.1108 H   0  0  0  0  0  0
  -27.4098  -29.7266   25.4505 H   0  0  0  0  0  0
  -27.8658  -30.4413   23.9207 H   0  0  0  0  0  0
  -27.2645  -33.3576   26.2101 H   0  0  0  0  0  0
  -28.3833  -32.6860   25.0311 H   0  0  0  0  0  0
  -28.0698  -31.8384   26.5390 H   0  0  0  0  0  0
  -28.2528  -38.0142   24.7575 H   0  0  0  0  0  0
  -28.1152  -36.2683   24.6138 H   0  0  0  0  0  0
  -27.2326  -37.1235   25.8852 H   0  0  0  0  0  0
  -20.9212  -29.8757   21.7036 H   0  0  0  0  0  0
  -26.0154  -38.2851   24.1478 H   0  0  0  0  0  0
  -25.7970  -21.9076   16.4461 H   0  0  0  0  0  0
  -27.9452  -22.7882   15.5392 H   0  0  0  0  0  0
  -25.4185  -21.8580   18.9066 H   0  0  0  0  0  0
  -29.6961  -23.6058   17.0699 H   0  0  0  0  0  0
  -27.1663  -22.6705   20.4571 H   0  0  0  0  0  0
  -32.6316  -19.7648   22.1064 H   0  0  0  0  0  0
  -31.8155  -21.1139   22.8600 H   0  0  0  0  0  0
  -31.7629  -23.2713   21.7558 H   0  0  0  0  0  0
  -32.4829  -23.4457   20.1721 H   0  0  0  0  0  0
  -30.8987  -19.6084   20.3383 H   0  0  0  0  0  0
  -30.8404  -21.9251   19.1660 H   0  0  0  0  0  0
  -27.4904  -18.1756   22.7200 H   0  0  0  0  0  0
  -28.6032  -17.2811   23.7392 H   0  0  0  0  0  0
  -27.7763  -16.4814   22.3953 H   0  0  0  0  0  0
  -29.0305  -19.7851   22.5895 H   0  0  0  0  0  0
  -30.4899  -19.1092   23.1654 H   0  0  0  0  0  0
  -29.1773  -23.9166   21.8574 H   0  0  0  0  0  0
  -30.2671  -25.1269   21.2774 H   0  0  0  0  0  0
  -30.9249  -16.6109   22.8422 H   0  0  0  0  0  0
  -31.4024  -17.0385   21.2216 H   0  0  0  0  0  0
  -27.9900  -25.8888   21.9283 H   0  0  0  0  0  0
  -27.2730  -24.9887   20.6439 H   0  0  0  0  0  0
  -30.3421  -24.2795   19.1473 H   0  0  0  0  0  0
  -29.0565  -17.8896   20.7732 H   0  0  0  0  0  0
  -32.9088  -21.0979   20.1279 H   0  0  0  0  0  0
  -29.1387  -15.1266   21.7181 H   0  0  0  0  0  0
  -29.5314  -21.7780   21.7602 H   0  0  0  0  0  0
  -29.0553  -21.0639   20.3717 H   0  0  0  0  0  0
  1 25  1  0  0  0
  1 30  2  0  0  0
  1 89  1  0  0  0
  2  3  1  0  0  0
  2 25  1  0  0  0
  2 91  1  0  0  0
  2 92  1  0  0  0
  3  4  1  0  0  0
  3 93  1  0  0  0
  3 94  1  0  0  0
  4  5  1  0  0  0
  4 95  1  0  0  0
  4 96  1  0  0  0
  5  6  1  0  0  0
  5 26  1  0  0  0
  5 97  1  0  0  0
  6 25  1  0  0  0
  6 98  1  0  0  0
  6 99  1  0  0  0
  7  8  2  0  0  0
  7 26  1  0  0  0
  7 29  1  0  0  0
  8  9  1  0  0  0
  8 22  1  0  0  0
  9 10  1  0  0  0
  9 27  2  0  0  0
 10 11  2  0  0  0
 10 15  1  0  0  0
 11 12  1  0  0  0
 11100  1  0  0  0
 12 13  2  0  0  0
 12101  1  0  0  0
 13 14  1  0  0  0
 13 31  1  0  0  0
 14 15  2  0  0  0
 14102  1  0  0  0
 15103  1  0  0  0
 16 17  2  0  0  0
 16 21  1  0  0  0
 16 31  1  0  0  0
 17 18  1  0  0  0
 17104  1  0  0  0
 18 19  2  0  0  0
 18105  1  0  0  0
 19 20  1  0  0  0
 19 24  1  0  0  0
 20 21  2  0  0  0
 20106  1  0  0  0
 21 23  1  0  0  0
 22 28  1  0  0  0
 22 32  2  0  0  0
 26 27  1  0  0  0
 28107  1  0  0  0
 28108  1  0  0  0
 29109  1  0  0  0
 29110  1  0  0  0
 33 34  1  0  0  0
 33 66  1  0  0  0
 33 70  2  0  0  0
 34 36  1  0  0  0
 34 59  1  0  0  0
 34111  1  0  0  0
 35 44  2  0  0  0
 35 45  1  0  0  0
 35 68  1  0  0  0
 36 56  1  0  0  0
 36112  1  0  0  0
 37 39  1  0  0  0
 37 47  1  0  0  0
 37 66  1  0  0  0
 37113  1  0  0  0
 38 43  2  0  0  0
 38 46  1  0  0  0
 38 47  1  0  0  0
 39 64  1  0  0  0
 39 67  2  0  0  0
 40 52  1  0  0  0
 40 53  2  0  0  0
 40 58  1  0  0  0
 41114  1  0  0  0
 41115  1  0  0  0
 41116  1  0  0  0
 41 48  1  0  0  0
 42 43  1  0  0  0
 42 66  1  0  0  0
 42117  1  0  0  0
 42118  1  0  0  0
 43 44  1  0  0  0
 44119  1  0  0  0
 45 46  2  0  0  0
 45120  1  0  0  0
 46121  1  0  0  0
 47122  1  0  0  0
 47123  1  0  0  0
 48 56  1  0  0  0
 48 65  1  0  0  0
 48124  1  0  0  0
 49 50  1  0  0  0
 49 53  1  0  0  0
 49 64  1  0  0  0
 49125  1  0  0  0
 50 51  1  0  0  0
 50126  1  0  0  0
 50127  1  0  0  0
 51 52  1  0  0  0
 51128  1  0  0  0
 51129  1  0  0  0
 52130  1  0  0  0
 52131  1  0  0  0
 53 54  1  0  0  0
 54 55  2  0  0  0
 54132  1  0  0  0
 55 57  1  0  0  0
 55133  1  0  0  0
 56 69  2  0  0  0
 57 58  2  0  0  0
 57134  1  0  0  0
 58135  1  0  0  0
 59 60  1  0  0  0
 59 61  1  0  0  0
 59 62  1  0  0  0
 60136  1  0  0  0
 60137  1  0  0  0
 60138  1  0  0  0
 61139  1  0  0  0
 61140  1  0  0  0
 61141  1  0  0  0
 62142  1  0  0  0
 62143  1  0  0  0
 62144  1  0  0  0
 63 65  1  0  0  0
 63145  1  0  0  0
 63146  1  0  0  0
 63147  1  0  0  0
 64148  1  0  0  0
 65149  1  0  0  0
 68 85  1  0  0  0
 71 72  2  0  0  0
 71 73  1  0  0  0
 71150  1  0  0  0
 72 74  1  0  0  0
 72151  1  0  0  0
 73 75  2  0  0  0
 73152  1  0  0  0
 74 76  2  0  0  0
 74153  1  0  0  0
 75 76  1  0  0  0
 75154  1  0  0  0
 76 86  1  0  0  0
 77 79  1  0  0  0
 77 88  1  0  0  0
 77155  1  0  0  0
 77156  1  0  0  0
 78 88  1  0  0  0
 78157  1  0  0  0
 78158  1  0  0  0
 78 80  1  0  0  0
 79 82  1  0  0  0
 79 90  1  0  0  0
 79159  1  0  0  0
 80 86  1  0  0  0
 80 90  1  0  0  0
 80160  1  0  0  0
 81161  1  0  0  0
 81162  1  0  0  0
 81163  1  0  0  0
 81 87  1  0  0  0
 82 87  1  0  0  0
 82164  1  0  0  0
 82165  1  0  0  0
 83 85  1  0  0  0
 83166  1  0  0  0
 83167  1  0  0  0
 83 86  1  0  0  0
 84 87  1  0  0  0
 84 89  1  0  0  0
 84168  1  0  0  0
 84169  1  0  0  0
 85170  1  0  0  0
 85171  1  0  0  0
 86172  1  0  0  0
 87173  1  0  0  0
 88174  1  0  0  0
 89175  1  0  0  0
 90176  1  0  0  0
 90177  1  0  0  0
M  CHG  1  90   1
M  ISO  4   1 100  68 101  85 101  89 100
M  END
> <chiral flag>
0

> <version>
0

> <s_m_source_file>
/data/baiqing/PycharmProjects/Reinvent-master-3.2/result/LINK_invent/BTK/process_docking_weight1_custom_sum_contain_oxygen_bond_distance_aromatic_linkinvent_7_9_3/rearranged_h_0124.sdf

> <i_m_source_file_index>
83

> <r_mmod_Potential_Energy-OPLS-2005>
-113.819511413574

> <r_mmod_Stretch_Energy-OPLS-2005>
42.5929565429688

> <r_mmod_Bend_Energy-OPLS-2005>
115.517250061035

> <r_mmod_Torsional_Energy-OPLS-2005>
271.623840332031

> <r_mmod_Improper_Torsional_Energy-OPLS-2005>
2.35481643676758

> <r_mmod_Van_der_Waal_Energy-OPLS-2005>
157.74577331543

> <r_mmod_Electrostatic_Energy-OPLS-2005>
-253.379165649414

> <r_mmod_Solvation_Energy-OPLS-2005>
-463.173400878906

> <b_mmod_Minimization_Converged-OPLS-2005>
0

> <r_mmod_RMS_Derivative-OPLS-2005>
4.21031904220581

$$$$
83
                    3D
 Structure written by MMmdl.
167175  0  0  1  0            999 V2000
  -30.7248  -14.4022   20.6292 C   0  0  0  0  0  0
  -30.4154  -12.2821   19.4148 C   0  0  0  0  0  0
  -29.4916  -12.5327   18.2071 C   0  0  0  0  0  0
  -28.0129  -12.3866   18.6170 C   0  0  0  0  0  0
  -27.6670  -13.2013   19.8917 C   0  0  2  0  0  0
  -28.7044  -12.9422   21.0081 C   0  0  0  0  0  0
  -25.2588  -13.8137   20.5702 C   0  0  0  0  0  0
  -24.1809  -13.0417   20.9183 C   0  0  0  0  0  0
  -24.6359  -11.6893   20.8726 C   0  0  0  0  0  0
  -23.9014  -10.4285   21.0403 C   0  0  0  0  0  0
  -24.3575   -9.4210   21.9192 C   0  0  0  0  0  0
  -23.6272   -8.2235   22.0743 C   0  0  0  0  0  0
  -22.4265   -8.0250   21.3526 C   0  0  0  0  0  0
  -21.9883   -9.0219   20.4639 C   0  0  0  0  0  0
  -22.7179  -10.2125   20.3064 C   0  0  0  0  0  0
  -21.6841   -6.0712   22.5275 C   0  0  0  0  0  0
  -21.3995   -6.5624   23.8205 C   0  0  0  0  0  0
  -21.3688   -5.6780   24.9173 C   0  0  0  0  0  0
  -21.6066   -4.3047   24.7228 C   0  0  0  0  0  0
  -21.8807   -3.8133   23.4345 C   0  0  0  0  0  0
  -21.9182   -4.6944   22.3399 C   0  0  0  0  0  0
  -22.7842  -13.5233   21.1849 C   0  0  0  0  0  0
  -22.1648   -4.2135   21.0975 F   0  0  0  0  0  0
  -21.5672   -3.4530   25.7747 F   0  0  0  0  0  0
  -30.0446  -13.2381   20.4688 N   0  0  0  0  0  0
  -26.3037  -12.9303   20.3434 N   0  0  0  0  0  0
  -25.9286  -11.6471   20.5760 N   0  0  0  0  0  0
  -22.0463  -12.8254   22.0433 N   0  0  0  0  0  0
  -25.4312  -15.1843   20.4108 N   0  0  0  0  0  0
  -31.7936  -14.6492   20.0637 O   0  0  0  0  0  0
  -21.6625   -6.8849   21.4240 O   0  0  0  0  0  0
  -22.3551  -14.5549   20.6700 O   0  0  0  0  0  0
  -24.6112  -31.8711   23.2103 C   0  0  0  0  0  0
  -25.9014  -32.4847   23.8404 C   0  0  1  0  0  0
  -27.2610  -27.4663   20.1085 C   0  0  0  0  0  0
  -25.5878  -33.8641   24.2336 N   0  0  0  0  0  0
  -23.3989  -30.4893   21.5511 C   0  0  2  0  0  0
  -24.8509  -28.9564   20.1164 C   0  0  0  0  0  0
  -22.7400  -29.4650   22.5017 C   0  0  0  0  0  0
  -18.0267  -28.1370   22.8496 C   0  0  0  0  0  0
  -24.1484  -36.7335   23.2639 C   0  0  0  0  0  0
  -25.9197  -30.8498   21.3538 C   0  0  0  0  0  0
  -26.0025  -29.4824   20.7114 C   0  0  0  0  0  0
  -27.2058  -28.7501   20.7070 C   0  0  0  0  0  0
  -26.0922  -26.9520   19.5093 C   0  0  0  0  0  0
  -24.8887  -27.6865   19.5107 C   0  0  0  0  0  0
  -23.6077  -29.8167   20.1661 C   0  0  0  0  0  0
  -25.4103  -36.3128   24.0341 C   0  0  1  0  0  0
  -20.5853  -28.3646   23.1340 C   0  0  2  0  0  0
  -20.6749  -26.9387   22.5423 C   0  0  0  0  0  0
  -19.5729  -26.6380   21.5213 C   0  0  0  0  0  0
  -18.1910  -26.7920   22.1627 C   0  0  0  0  0  0
  -19.1517  -28.8824   23.2918 C   0  0  0  0  0  0
  -18.9445  -30.1430   23.8928 C   0  0  0  0  0  0
  -17.6446  -30.6576   24.0562 C   0  0  0  0  0  0
  -25.9026  -34.9491   23.5139 C   0  0  0  0  0  0
  -16.5338  -29.9084   23.6312 C   0  0  0  0  0  0
  -16.7256  -28.6500   23.0339 C   0  0  0  0  0  0
  -26.4459  -31.6605   25.0711 C   0  0  0  0  0  0
  -25.3754  -31.3683   26.1479 C   0  0  0  0  0  0
  -27.0251  -30.3054   24.6013 C   0  0  0  0  0  0
  -27.6047  -32.4309   25.7475 C   0  0  0  0  0  0
  -27.5580  -37.1819   24.8461 C   0  0  0  0  0  0
  -21.4129  -29.3026   22.3765 N   0  0  0  0  0  0
  -26.4290  -37.3808   23.9407 N   0  0  0  0  0  0
  -24.6618  -31.0831   22.0988 N   0  0  0  0  0  0
  -23.4183  -28.8202   23.3059 O   0  0  0  0  0  0
  -28.3893  -26.6699   20.0760 O   0  0  0  0  0  0
  -26.5597  -34.8939   22.4704 O   0  0  0  0  0  0
  -23.5316  -32.1440   23.7520 O   0  0  0  0  0  0
  -31.1562  -25.4151   19.6402 C   0  0  0  0  0  0
  -30.3404  -24.9806   22.0411 C   0  0  0  0  0  0
  -30.3659  -24.1719   19.1821 C   0  0  0  0  0  0
  -29.5557  -23.7662   21.5215 C   0  0  0  0  0  0
  -30.6374  -26.0436   20.9557 C   0  0  2  0  0  0
  -30.2795  -23.1360   20.3226 C   0  0  1  0  0  0
  -29.5408  -27.1207   20.7862 C   0  0  0  0  0  0
  -30.4658  -16.7537   21.4238 C   0  0  0  0  0  0
  -30.3208  -21.1341   18.9457 C   0  0  0  0  0  0
  -29.9285  -17.5249   20.1933 C   0  0  0  0  0  0
  -29.8652  -19.6637   18.9486 C   0  0  0  0  0  0
  -30.0993  -15.3351   21.3615 N   0  0  0  0  0  0
  -29.5921  -21.8993   19.9554 N   0  0  0  0  0  0
  -30.2609  -18.9687   20.1943 N   0  3  0  0  0  0
  -31.4633  -12.3637   19.1203 H   0  0  0  0  0  0
  -30.2898  -11.2614   19.7779 H   0  0  0  0  0  0
  -29.7282  -11.8388   17.4000 H   0  0  0  0  0  0
  -29.6639  -13.5370   17.8154 H   0  0  0  0  0  0
  -27.8198  -11.3273   18.7897 H   0  0  0  0  0  0
  -27.3570  -12.6838   17.7975 H   0  0  0  0  0  0
  -27.7263  -14.2561   19.6278 H   0  0  0  0  0  0
  -28.6681  -11.8979   21.3222 H   0  0  0  0  0  0
  -28.4631  -13.5164   21.9032 H   0  0  0  0  0  0
  -25.2701   -9.5710   22.4787 H   0  0  0  0  0  0
  -23.9985   -7.4626   22.7446 H   0  0  0  0  0  0
  -21.0824   -8.8715   19.8944 H   0  0  0  0  0  0
  -22.3591  -10.9671   19.6203 H   0  0  0  0  0  0
  -21.1949   -7.6125   23.9707 H   0  0  0  0  0  0
  -21.1557   -6.0510   25.9079 H   0  0  0  0  0  0
  -22.0569   -2.7596   23.2838 H   0  0  0  0  0  0
  -22.4006  -11.9882   22.4835 H   0  0  0  0  0  0
  -21.1101  -13.1349   22.2646 H   0  0  0  0  0  0
  -24.6610  -15.8380   20.4900 H   0  0  0  0  0  0
  -26.2879  -15.6222   20.0989 H   0  0  0  0  0  0
  -26.7102  -32.5584   23.1196 H   0  0  0  0  0  0
  -25.0004  -33.9810   25.0464 H   0  0  0  0  0  0
  -22.6872  -31.3046   21.4105 H   0  0  0  0  0  0
  -23.3733  -35.9681   23.3312 H   0  0  0  0  0  0
  -24.3576  -36.8938   22.2048 H   0  0  0  0  0  0
  -23.7242  -37.6552   23.6641 H   0  0  0  0  0  0
  -26.0149  -31.6086   20.5757 H   0  0  0  0  0  0
  -26.8146  -30.9208   21.9600 H   0  0  0  0  0  0
  -28.0755  -29.1936   21.1692 H   0  0  0  0  0  0
  -26.1170  -25.9756   19.0468 H   0  0  0  0  0  0
  -24.0051  -27.2706   19.0471 H   0  0  0  0  0  0
  -23.7146  -30.5906   19.4059 H   0  0  0  0  0  0
  -22.7348  -29.2321   19.8708 H   0  0  0  0  0  0
  -25.1273  -36.2006   25.0832 H   0  0  0  0  0  0
  -20.9943  -28.3192   24.1461 H   0  0  0  0  0  0
  -20.5634  -26.2252   23.3605 H   0  0  0  0  0  0
  -21.6622  -26.7422   22.1226 H   0  0  0  0  0  0
  -19.6884  -25.6295   21.1230 H   0  0  0  0  0  0
  -19.6667  -27.3201   20.6753 H   0  0  0  0  0  0
  -17.4178  -26.6668   21.4030 H   0  0  0  0  0  0
  -18.0310  -26.0056   22.9022 H   0  0  0  0  0  0
  -19.7917  -30.7233   24.2320 H   0  0  0  0  0  0
  -17.4999  -31.6262   24.5159 H   0  0  0  0  0  0
  -15.5338  -30.2997   23.7611 H   0  0  0  0  0  0
  -15.8657  -28.0826   22.7037 H   0  0  0  0  0  0
  -24.5914  -30.7045   25.7812 H   0  0  0  0  0  0
  -24.8968  -32.2833   26.4985 H   0  0  0  0  0  0
  -25.8144  -30.8809   27.0197 H   0  0  0  0  0  0
  -26.2743  -29.6861   24.1085 H   0  0  0  0  0  0
  -27.4058  -29.7235   25.4417 H   0  0  0  0  0  0
  -27.8573  -30.4377   23.9092 H   0  0  0  0  0  0
  -27.2668  -33.3595   26.2088 H   0  0  0  0  0  0
  -28.3847  -32.6895   25.0300 H   0  0  0  0  0  0
  -28.0728  -31.8411   26.5368 H   0  0  0  0  0  0
  -28.2608  -38.0110   24.7508 H   0  0  0  0  0  0
  -28.1071  -36.2643   24.6283 H   0  0  0  0  0  0
  -27.2307  -37.1468   25.8869 H   0  0  0  0  0  0
  -20.9285  -29.8782   21.7019 H   0  0  0  0  0  0
  -26.0189  -38.2894   24.1402 H   0  0  0  0  0  0
  -31.1771  -26.1645   18.8478 H   0  0  0  0  0  0
  -32.1951  -25.1149   19.7916 H   0  0  0  0  0  0
  -31.2879  -24.6157   22.4417 H   0  0  0  0  0  0
  -29.8205  -25.4326   22.8871 H   0  0  0  0  0  0
  -30.8690  -23.7521   18.3102 H   0  0  0  0  0  0
  -29.3697  -24.4687   18.8516 H   0  0  0  0  0  0
  -28.5454  -24.0737   21.2480 H   0  0  0  0  0  0
  -29.4539  -23.0344   22.3252 H   0  0  0  0  0  0
  -31.4761  -26.6179   21.3538 H   0  0  0  0  0  0
  -31.2924  -22.8756   20.6386 H   0  0  0  0  0  0
  -29.9587  -27.9787   20.2568 H   0  0  0  0  0  0
  -29.2649  -27.4640   21.7848 H   0  0  0  0  0  0
  -30.0654  -17.1704   22.3488 H   0  0  0  0  0  0
  -31.5518  -16.8472   21.4915 H   0  0  0  0  0  0
  -30.1279  -21.5682   17.9621 H   0  0  0  0  0  0
  -31.3990  -21.1920   19.1055 H   0  0  0  0  0  0
  -28.8448  -17.4188   20.1298 H   0  0  0  0  0  0
  -30.3440  -17.0795   19.2889 H   0  0  0  0  0  0
  -30.3245  -19.1571   18.0988 H   0  0  0  0  0  0
  -28.7868  -19.5927   18.8048 H   0  0  0  0  0  0
  -29.2491  -15.0503   21.8271 H   0  0  0  0  0  0
  -28.6477  -22.1018   19.6330 H   0  0  0  0  0  0
  -31.2516  -19.0844   20.3192 H   0  0  0  0  0  0
  -29.8015  -19.4419   20.9577 H   0  0  0  0  0  0
  1 25  1  0  0  0
  1 30  2  0  0  0
  1 82  1  0  0  0
  2  3  1  0  0  0
  2 25  1  0  0  0
  2 85  1  0  0  0
  2 86  1  0  0  0
  3  4  1  0  0  0
  3 87  1  0  0  0
  3 88  1  0  0  0
  4  5  1  0  0  0
  4 89  1  0  0  0
  4 90  1  0  0  0
  5  6  1  0  0  0
  5 26  1  0  0  0
  5 91  1  0  0  0
  6 25  1  0  0  0
  6 92  1  0  0  0
  6 93  1  0  0  0
  7  8  2  0  0  0
  7 26  1  0  0  0
  7 29  1  0  0  0
  8  9  1  0  0  0
  8 22  1  0  0  0
  9 10  1  0  0  0
  9 27  2  0  0  0
 10 11  2  0  0  0
 10 15  1  0  0  0
 11 12  1  0  0  0
 11 94  1  0  0  0
 12 13  2  0  0  0
 12 95  1  0  0  0
 13 14  1  0  0  0
 13 31  1  0  0  0
 14 15  2  0  0  0
 14 96  1  0  0  0
 15 97  1  0  0  0
 16 17  2  0  0  0
 16 21  1  0  0  0
 16 31  1  0  0  0
 17 18  1  0  0  0
 17 98  1  0  0  0
 18 19  2  0  0  0
 18 99  1  0  0  0
 19 20  1  0  0  0
 19 24  1  0  0  0
 20 21  2  0  0  0
 20100  1  0  0  0
 21 23  1  0  0  0
 22 28  1  0  0  0
 22 32  2  0  0  0
 26 27  1  0  0  0
 28101  1  0  0  0
 28102  1  0  0  0
 29103  1  0  0  0
 29104  1  0  0  0
 33 34  1  0  0  0
 33 66  1  0  0  0
 33 70  2  0  0  0
 34 36  1  0  0  0
 34 59  1  0  0  0
 34105  1  0  0  0
 35 44  2  0  0  0
 35 45  1  0  0  0
 35 68  1  0  0  0
 36 56  1  0  0  0
 36106  1  0  0  0
 37 39  1  0  0  0
 37 47  1  0  0  0
 37 66  1  0  0  0
 37107  1  0  0  0
 38 43  2  0  0  0
 38 46  1  0  0  0
 38 47  1  0  0  0
 39 64  1  0  0  0
 39 67  2  0  0  0
 40 52  1  0  0  0
 40 53  2  0  0  0
 40 58  1  0  0  0
 41108  1  0  0  0
 41109  1  0  0  0
 41110  1  0  0  0
 41 48  1  0  0  0
 42 43  1  0  0  0
 42 66  1  0  0  0
 42111  1  0  0  0
 42112  1  0  0  0
 43 44  1  0  0  0
 44113  1  0  0  0
 45 46  2  0  0  0
 45114  1  0  0  0
 46115  1  0  0  0
 47116  1  0  0  0
 47117  1  0  0  0
 48 56  1  0  0  0
 48 65  1  0  0  0
 48118  1  0  0  0
 49 50  1  0  0  0
 49 53  1  0  0  0
 49 64  1  0  0  0
 49119  1  0  0  0
 50 51  1  0  0  0
 50120  1  0  0  0
 50121  1  0  0  0
 51 52  1  0  0  0
 51122  1  0  0  0
 51123  1  0  0  0
 52124  1  0  0  0
 52125  1  0  0  0
 53 54  1  0  0  0
 54 55  2  0  0  0
 54126  1  0  0  0
 55 57  1  0  0  0
 55127  1  0  0  0
 56 69  2  0  0  0
 57 58  2  0  0  0
 57128  1  0  0  0
 58129  1  0  0  0
 59 60  1  0  0  0
 59 61  1  0  0  0
 59 62  1  0  0  0
 60130  1  0  0  0
 60131  1  0  0  0
 60132  1  0  0  0
 61133  1  0  0  0
 61134  1  0  0  0
 61135  1  0  0  0
 62136  1  0  0  0
 62137  1  0  0  0
 62138  1  0  0  0
 63 65  1  0  0  0
 63139  1  0  0  0
 63140  1  0  0  0
 63141  1  0  0  0
 64142  1  0  0  0
 65143  1  0  0  0
 68 77  1  0  0  0
 71 73  1  0  0  0
 71 75  1  0  0  0
 71144  1  0  0  0
 71145  1  0  0  0
 72 74  1  0  0  0
 72 75  1  0  0  0
 72146  1  0  0  0
 72147  1  0  0  0
 73 76  1  0  0  0
 73148  1  0  0  0
 73149  1  0  0  0
 74 76  1  0  0  0
 74150  1  0  0  0
 74151  1  0  0  0
 75 77  1  0  0  0
 75152  1  0  0  0
 76 83  1  0  0  0
 76153  1  0  0  0
 77154  1  0  0  0
 77155  1  0  0  0
 78 80  1  0  0  0
 78 82  1  0  0  0
 78156  1  0  0  0
 78157  1  0  0  0
 79 81  1  0  0  0
 79 83  1  0  0  0
 79158  1  0  0  0
 79159  1  0  0  0
 80 84  1  0  0  0
 80160  1  0  0  0
 80161  1  0  0  0
 81 84  1  0  0  0
 81162  1  0  0  0
 81163  1  0  0  0
 82164  1  0  0  0
 83165  1  0  0  0
 84166  1  0  0  0
 84167  1  0  0  0
M  CHG  1  84   1
M  ISO  4   1 100  68 101  77 101  82 100
M  END
> <chiral flag>
0

> <version>
0

> <s_m_source_file>
/data/baiqing/PycharmProjects/Reinvent-master-3.2/result/LINK_invent/BTK/process_docking_weight1_custom_sum_contain_oxygen_bond_distance_aromatic_linkinvent_7_9_3/rearranged_h_0124.sdf

> <i_m_source_file_index>
84

> <r_mmod_Potential_Energy-OPLS-2005>
-311.619476318359

> <r_mmod_Stretch_Energy-OPLS-2005>
33.3059387207031

> <r_mmod_Bend_Energy-OPLS-2005>
105.351432800293

> <r_mmod_Torsional_Energy-OPLS-2005>
215.373580932617

> <r_mmod_Improper_Torsional_Energy-OPLS-2005>
2.94385480880737

> <r_mmod_Van_der_Waal_Energy-OPLS-2005>
139.579940795898

> <r_mmod_Electrostatic_Energy-OPLS-2005>
-365.853607177734

> <r_mmod_Solvation_Energy-OPLS-2005>
-449.457153320312

> <b_mmod_Minimization_Converged-OPLS-2005>
0

> <r_mmod_RMS_Derivative-OPLS-2005>
2.52487659454346

$$$$
84
                    3D
 Structure written by MMmdl.
160168  0  0  1  0            999 V2000
  -30.5756  -14.7835   20.5055 C   0  0  0  0  0  0
  -30.4566  -12.5005   19.4569 C   0  0  0  0  0  0
  -29.5155  -12.5082   18.2289 C   0  0  0  0  0  0
  -28.0388  -12.3379   18.6416 C   0  0  0  0  0  0
  -27.6438  -13.2305   19.8488 C   0  0  2  0  0  0
  -28.6926  -13.1454   20.9774 C   0  0  0  0  0  0
  -25.2507  -13.8196   20.5693 C   0  0  0  0  0  0
  -24.1816  -13.0460   20.9204 C   0  0  0  0  0  0
  -24.6413  -11.6937   20.8746 C   0  0  0  0  0  0
  -23.9100  -10.4308   21.0422 C   0  0  0  0  0  0
  -24.3652   -9.4224   21.9185 C   0  0  0  0  0  0
  -23.6314   -8.2266   22.0761 C   0  0  0  0  0  0
  -22.4305   -8.0298   21.3541 C   0  0  0  0  0  0
  -21.9944   -9.0270   20.4623 C   0  0  0  0  0  0
  -22.7296  -10.2149   20.3053 C   0  0  0  0  0  0
  -21.6843   -6.0771   22.5292 C   0  0  0  0  0  0
  -21.3992   -6.5657   23.8229 C   0  0  0  0  0  0
  -21.3644   -5.6816   24.9177 C   0  0  0  0  0  0
  -21.6058   -4.3071   24.7238 C   0  0  0  0  0  0
  -21.8827   -3.8173   23.4343 C   0  0  0  0  0  0
  -21.9185   -4.6982   22.3412 C   0  0  0  0  0  0
  -22.7814  -13.5206   21.1867 C   0  0  0  0  0  0
  -22.1662   -4.2162   21.0985 F   0  0  0  0  0  0
  -21.5636   -3.4559   25.7743 F   0  0  0  0  0  0
  -29.9827  -13.5424   20.3979 N   0  0  0  0  0  0
  -26.2955  -12.9430   20.3282 N   0  0  0  0  0  0
  -25.9337  -11.6561   20.5768 N   0  0  0  0  0  0
  -22.0451  -12.8149   22.0370 N   0  0  0  0  0  0
  -25.4153  -15.1973   20.4146 N   0  0  0  0  0  0
  -31.7651  -14.9275   20.2080 O   0  0  0  0  0  0
  -21.6659   -6.8886   21.4249 O   0  0  0  0  0  0
  -22.3478  -14.5525   20.6726 O   0  0  0  0  0  0
  -24.6198  -31.8707   23.1996 C   0  0  0  0  0  0
  -25.9096  -32.4798   23.8322 C   0  0  1  0  0  0
  -27.2777  -27.3377   20.1267 C   0  0  0  0  0  0
  -25.5978  -33.8606   24.2284 N   0  0  0  0  0  0
  -23.4174  -30.4821   21.5424 C   0  0  2  0  0  0
  -24.8827  -28.9395   20.1077 C   0  0  0  0  0  0
  -22.7458  -29.4647   22.4987 C   0  0  0  0  0  0
  -18.0280  -28.1310   22.8508 C   0  0  0  0  0  0
  -24.1507  -36.7277   23.2648 C   0  0  0  0  0  0
  -25.9543  -30.8020   21.3801 C   0  0  0  0  0  0
  -26.0454  -29.4288   20.7155 C   0  0  0  0  0  0
  -27.2369  -28.6428   20.7182 C   0  0  0  0  0  0
  -26.0890  -26.9120   19.4830 C   0  0  0  0  0  0
  -24.9059  -27.6845   19.4778 C   0  0  0  0  0  0
  -23.6377  -29.8049   20.1601 C   0  0  0  0  0  0
  -25.4130  -36.3104   24.0331 C   0  0  1  0  0  0
  -20.5894  -28.3674   23.1288 C   0  0  2  0  0  0
  -20.6794  -26.9426   22.5386 C   0  0  0  0  0  0
  -19.5753  -26.6390   21.5217 C   0  0  0  0  0  0
  -18.1925  -26.7865   22.1614 C   0  0  0  0  0  0
  -19.1535  -28.8804   23.2867 C   0  0  0  0  0  0
  -18.9476  -30.1400   23.8904 C   0  0  0  0  0  0
  -17.6491  -30.6556   24.0553 C   0  0  0  0  0  0
  -25.9110  -34.9469   23.5107 C   0  0  0  0  0  0
  -16.5372  -29.9062   23.6334 C   0  0  0  0  0  0
  -16.7273  -28.6438   23.0406 C   0  0  0  0  0  0
  -26.4479  -31.6592   25.0689 C   0  0  0  0  0  0
  -25.3641  -31.3721   26.1365 C   0  0  0  0  0  0
  -27.0399  -30.3030   24.6152 C   0  0  0  0  0  0
  -27.6026  -32.4355   25.7477 C   0  0  0  0  0  0
  -27.5566  -37.1767   24.8466 C   0  0  0  0  0  0
  -21.4210  -29.3040   22.3684 N   0  0  0  0  0  0
  -26.4298  -37.3799   23.9412 N   0  0  0  0  0  0
  -24.6793  -31.0690   22.0957 N   0  0  0  0  0  0
  -23.4185  -28.8250   23.3112 O   0  0  0  0  0  0
  -28.4133  -26.4938   20.2068 O   0  0  0  0  0  0
  -26.5685  -34.8912   22.4678 O   0  0  0  0  0  0
  -23.5399  -32.1557   23.7361 O   0  0  0  0  0  0
  -29.8405  -21.2302   20.5059 C   0  0  0  0  0  0
  -28.9658  -22.3286   20.6322 C   0  0  0  0  0  0
  -27.6793  -21.6819   20.6955 C   0  0  0  0  0  0
  -27.8316  -20.3088   20.5958 C   0  0  0  0  0  0
  -26.3306  -22.3632   20.8222 C   0  0  0  0  0  0
  -26.7571  -19.2597   20.5744 C   0  0  0  0  0  0
  -30.7133  -24.2518   20.2816 C   0  0  0  0  0  0
  -29.7117  -18.5572   20.0631 C   0  0  0  0  0  0
  -29.9981  -17.3606   21.1267 C   0  0  0  0  0  0
  -28.2273  -25.0129   20.1213 C   0  0  0  0  0  0
  -29.2739  -23.9208   20.7342 C   0  0  1  0  0  0
  -29.1754  -19.9685   20.4378 N   0  0  0  0  0  0
  -29.7546  -15.8743   20.7751 N   0  0  0  0  0  0
  -31.4808  -12.6921   19.1251 H   0  0  0  0  0  0
  -30.4681  -11.5252   19.9498 H   0  0  0  0  0  0
  -29.7990  -11.7099   17.5417 H   0  0  0  0  0  0
  -29.6327  -13.4407   17.6744 H   0  0  0  0  0  0
  -27.8776  -11.2866   18.8888 H   0  0  0  0  0  0
  -27.3882  -12.5510   17.7928 H   0  0  0  0  0  0
  -27.6363  -14.2558   19.4746 H   0  0  0  0  0  0
  -28.7553  -12.1335   21.3827 H   0  0  0  0  0  0
  -28.4135  -13.7889   21.8113 H   0  0  0  0  0  0
  -25.2807   -9.5695   22.4736 H   0  0  0  0  0  0
  -24.0019   -7.4666   22.7510 H   0  0  0  0  0  0
  -21.0877   -8.8796   19.8923 H   0  0  0  0  0  0
  -22.3769  -10.9676   19.6152 H   0  0  0  0  0  0
  -21.1977   -7.6162   23.9708 H   0  0  0  0  0  0
  -21.1455   -6.0546   25.9066 H   0  0  0  0  0  0
  -22.0613   -2.7619   23.2866 H   0  0  0  0  0  0
  -22.4095  -11.9825   22.4772 H   0  0  0  0  0  0
  -21.1044  -13.1080   22.2542 H   0  0  0  0  0  0
  -24.6402  -15.8399   20.5289 H   0  0  0  0  0  0
  -26.2561  -15.6477   20.0786 H   0  0  0  0  0  0
  -26.7131  -32.5531   23.1040 H   0  0  0  0  0  0
  -25.0010  -33.9776   25.0333 H   0  0  0  0  0  0
  -22.7061  -31.2978   21.3951 H   0  0  0  0  0  0
  -23.3821  -35.9572   23.3341 H   0  0  0  0  0  0
  -24.3556  -36.8912   22.2062 H   0  0  0  0  0  0
  -23.7220  -37.6438   23.6686 H   0  0  0  0  0  0
  -26.0923  -31.5863   20.6384 H   0  0  0  0  0  0
  -26.8250  -30.8486   22.0194 H   0  0  0  0  0  0
  -28.1212  -29.0265   21.2128 H   0  0  0  0  0  0
  -26.0647  -25.9573   18.9829 H   0  0  0  0  0  0
  -24.0158  -27.3083   18.9927 H   0  0  0  0  0  0
  -23.7267  -30.5741   19.3937 H   0  0  0  0  0  0
  -22.7653  -29.2137   19.8792 H   0  0  0  0  0  0
  -25.1290  -36.1961   25.0825 H   0  0  0  0  0  0
  -20.9952  -28.3280   24.1426 H   0  0  0  0  0  0
  -20.5828  -26.2309   23.3589 H   0  0  0  0  0  0
  -21.6638  -26.7543   22.1084 H   0  0  0  0  0  0
  -19.7003  -25.6334   21.1202 H   0  0  0  0  0  0
  -19.6647  -27.3265   20.6783 H   0  0  0  0  0  0
  -17.4221  -26.6687   21.3964 H   0  0  0  0  0  0
  -18.0240  -25.9952   22.8933 H   0  0  0  0  0  0
  -19.7977  -30.7141   24.2347 H   0  0  0  0  0  0
  -17.5074  -31.6268   24.5099 H   0  0  0  0  0  0
  -15.5360  -30.2953   23.7672 H   0  0  0  0  0  0
  -15.8662  -28.0716   22.7197 H   0  0  0  0  0  0
  -24.5815  -30.7142   25.7546 H   0  0  0  0  0  0
  -24.8783  -32.2891   26.4716 H   0  0  0  0  0  0
  -25.7831  -30.8827   27.0189 H   0  0  0  0  0  0
  -26.3047  -29.6696   24.1150 H   0  0  0  0  0  0
  -27.4148  -29.7324   25.4671 H   0  0  0  0  0  0
  -27.8881  -30.4344   23.9427 H   0  0  0  0  0  0
  -27.2655  -33.3709   26.1978 H   0  0  0  0  0  0
  -28.3854  -32.6848   25.0292 H   0  0  0  0  0  0
  -28.0692  -31.8519   26.5440 H   0  0  0  0  0  0
  -28.2570  -38.0064   24.7551 H   0  0  0  0  0  0
  -28.1073  -36.2595   24.6277 H   0  0  0  0  0  0
  -27.2280  -37.1399   25.8863 H   0  0  0  0  0  0
  -20.9457  -29.8696   21.6797 H   0  0  0  0  0  0
  -26.0218  -38.2904   24.1363 H   0  0  0  0  0  0
  -30.9202  -21.2386   20.4184 H   0  0  0  0  0  0
  -26.3736  -23.2660   21.4203 H   0  0  0  0  0  0
  -25.5910  -21.7324   21.3101 H   0  0  0  0  0  0
  -25.9392  -22.6101   19.8363 H   0  0  0  0  0  0
  -25.7749  -19.6761   20.7927 H   0  0  0  0  0  0
  -26.9386  -18.4706   21.3064 H   0  0  0  0  0  0
  -26.6752  -18.8076   19.5878 H   0  0  0  0  0  0
  -31.4531  -23.7204   20.8832 H   0  0  0  0  0  0
  -30.9259  -25.3166   20.3964 H   0  0  0  0  0  0
  -30.8983  -23.9991   19.2389 H   0  0  0  0  0  0
  -29.0034  -18.1624   19.3353 H   0  0  0  0  0  0
  -30.6254  -18.6931   19.4780 H   0  0  0  0  0  0
  -29.3882  -17.5583   22.0113 H   0  0  0  0  0  0
  -31.0238  -17.4631   21.4836 H   0  0  0  0  0  0
  -27.2990  -24.8886   20.6599 H   0  0  0  0  0  0
  -28.0443  -24.7744   19.0714 H   0  0  0  0  0  0
  -29.2880  -24.1154   21.8120 H   0  0  0  0  0  0
  -28.7880  -15.5973   20.8752 H   0  0  0  0  0  0
  1 25  1  0  0  0
  1 30  2  0  0  0
  1 83  1  0  0  0
  2  3  1  0  0  0
  2 25  1  0  0  0
  2 84  1  0  0  0
  2 85  1  0  0  0
  3  4  1  0  0  0
  3 86  1  0  0  0
  3 87  1  0  0  0
  4  5  1  0  0  0
  4 88  1  0  0  0
  4 89  1  0  0  0
  5  6  1  0  0  0
  5 26  1  0  0  0
  5 90  1  0  0  0
  6 25  1  0  0  0
  6 91  1  0  0  0
  6 92  1  0  0  0
  7  8  2  0  0  0
  7 26  1  0  0  0
  7 29  1  0  0  0
  8  9  1  0  0  0
  8 22  1  0  0  0
  9 10  1  0  0  0
  9 27  2  0  0  0
 10 11  2  0  0  0
 10 15  1  0  0  0
 11 12  1  0  0  0
 11 93  1  0  0  0
 12 13  2  0  0  0
 12 94  1  0  0  0
 13 14  1  0  0  0
 13 31  1  0  0  0
 14 15  2  0  0  0
 14 95  1  0  0  0
 15 96  1  0  0  0
 16 17  2  0  0  0
 16 21  1  0  0  0
 16 31  1  0  0  0
 17 18  1  0  0  0
 17 97  1  0  0  0
 18 19  2  0  0  0
 18 98  1  0  0  0
 19 20  1  0  0  0
 19 24  1  0  0  0
 20 21  2  0  0  0
 20 99  1  0  0  0
 21 23  1  0  0  0
 22 28  1  0  0  0
 22 32  2  0  0  0
 26 27  1  0  0  0
 28100  1  0  0  0
 28101  1  0  0  0
 29102  1  0  0  0
 29103  1  0  0  0
 33 34  1  0  0  0
 33 66  1  0  0  0
 33 70  2  0  0  0
 34 36  1  0  0  0
 34 59  1  0  0  0
 34104  1  0  0  0
 35 44  2  0  0  0
 35 45  1  0  0  0
 35 68  1  0  0  0
 36 56  1  0  0  0
 36105  1  0  0  0
 37 39  1  0  0  0
 37 47  1  0  0  0
 37 66  1  0  0  0
 37106  1  0  0  0
 38 43  2  0  0  0
 38 46  1  0  0  0
 38 47  1  0  0  0
 39 64  1  0  0  0
 39 67  2  0  0  0
 40 52  1  0  0  0
 40 53  2  0  0  0
 40 58  1  0  0  0
 41107  1  0  0  0
 41108  1  0  0  0
 41109  1  0  0  0
 41 48  1  0  0  0
 42 43  1  0  0  0
 42 66  1  0  0  0
 42110  1  0  0  0
 42111  1  0  0  0
 43 44  1  0  0  0
 44112  1  0  0  0
 45 46  2  0  0  0
 45113  1  0  0  0
 46114  1  0  0  0
 47115  1  0  0  0
 47116  1  0  0  0
 48 56  1  0  0  0
 48 65  1  0  0  0
 48117  1  0  0  0
 49 50  1  0  0  0
 49 53  1  0  0  0
 49 64  1  0  0  0
 49118  1  0  0  0
 50 51  1  0  0  0
 50119  1  0  0  0
 50120  1  0  0  0
 51 52  1  0  0  0
 51121  1  0  0  0
 51122  1  0  0  0
 52123  1  0  0  0
 52124  1  0  0  0
 53 54  1  0  0  0
 54 55  2  0  0  0
 54125  1  0  0  0
 55 57  1  0  0  0
 55126  1  0  0  0
 56 69  2  0  0  0
 57 58  2  0  0  0
 57127  1  0  0  0
 58128  1  0  0  0
 59 60  1  0  0  0
 59 61  1  0  0  0
 59 62  1  0  0  0
 60129  1  0  0  0
 60130  1  0  0  0
 60131  1  0  0  0
 61132  1  0  0  0
 61133  1  0  0  0
 61134  1  0  0  0
 62135  1  0  0  0
 62136  1  0  0  0
 62137  1  0  0  0
 63 65  1  0  0  0
 63138  1  0  0  0
 63139  1  0  0  0
 63140  1  0  0  0
 64141  1  0  0  0
 65142  1  0  0  0
 68 80  1  0  0  0
 71 72  2  0  0  0
 71 82  1  0  0  0
 71143  1  0  0  0
 72 73  1  0  0  0
 72 81  1  0  0  0
 73 74  2  0  0  0
 73 75  1  0  0  0
 74 76  1  0  0  0
 74 82  1  0  0  0
 75144  1  0  0  0
 75145  1  0  0  0
 75146  1  0  0  0
 76147  1  0  0  0
 76148  1  0  0  0
 76149  1  0  0  0
 77150  1  0  0  0
 77151  1  0  0  0
 77152  1  0  0  0
 77 81  1  0  0  0
 78 79  1  0  0  0
 78 82  1  0  0  0
 78153  1  0  0  0
 78154  1  0  0  0
 79 83  1  0  0  0
 79155  1  0  0  0
 79156  1  0  0  0
 80 81  1  0  0  0
 80157  1  0  0  0
 80158  1  0  0  0
 81159  1  0  0  0
 83160  1  0  0  0
M  ISO  4   1 100  68 101  80 101  83 100
M  END
> <chiral flag>
0

> <version>
0

> <s_m_source_file>
/data/baiqing/PycharmProjects/Reinvent-master-3.2/result/LINK_invent/BTK/process_docking_weight1_custom_sum_contain_oxygen_bond_distance_aromatic_linkinvent_7_9_3/rearranged_h_0124.sdf

> <i_m_source_file_index>
85

> <r_mmod_Potential_Energy-OPLS-2005>
141.13818359375

> <r_mmod_Stretch_Energy-OPLS-2005>
141.320388793945

> <r_mmod_Bend_Energy-OPLS-2005>
192.403076171875

> <r_mmod_Torsional_Energy-OPLS-2005>
228.107818603516

> <r_mmod_Improper_Torsional_Energy-OPLS-2005>
5.22476816177368

> <r_mmod_Van_der_Waal_Energy-OPLS-2005>
119.875999450684

> <r_mmod_Electrostatic_Energy-OPLS-2005>
-408.461364746094

> <r_mmod_Solvation_Energy-OPLS-2005>
-216.994201660156

> <b_mmod_Minimization_Converged-OPLS-2005>
0

> <r_mmod_RMS_Derivative-OPLS-2005>
8.05570602416992

$$$$
85
                    3D
 Structure written by MMmdl.
165173  0  0  1  0            999 V2000
  -30.6981  -14.4488   20.5134 C   0  0  0  0  0  0
  -30.4183  -12.2722   19.4210 C   0  0  0  0  0  0
  -29.4930  -12.4812   18.2042 C   0  0  0  0  0  0
  -28.0098  -12.3712   18.6120 C   0  0  0  0  0  0
  -27.6621  -13.2056   19.8754 C   0  0  2  0  0  0
  -28.7079  -12.9843   20.9937 C   0  0  0  0  0  0
  -25.2591  -13.8139   20.5676 C   0  0  0  0  0  0
  -24.1839  -13.0413   20.9167 C   0  0  0  0  0  0
  -24.6408  -11.6887   20.8743 C   0  0  0  0  0  0
  -23.9072  -10.4272   21.0419 C   0  0  0  0  0  0
  -24.3607   -9.4183   21.9205 C   0  0  0  0  0  0
  -23.6269   -8.2226   22.0765 C   0  0  0  0  0  0
  -22.4250   -8.0276   21.3549 C   0  0  0  0  0  0
  -21.9896   -9.0264   20.4659 C   0  0  0  0  0  0
  -22.7244  -10.2132   20.3066 C   0  0  0  0  0  0
  -21.6842   -6.0716   22.5275 C   0  0  0  0  0  0
  -21.4014   -6.5626   23.8204 C   0  0  0  0  0  0
  -21.3656   -5.6786   24.9174 C   0  0  0  0  0  0
  -21.6049   -4.3050   24.7230 C   0  0  0  0  0  0
  -21.8823   -3.8129   23.4357 C   0  0  0  0  0  0
  -21.9184   -4.6941   22.3403 C   0  0  0  0  0  0
  -22.7863  -13.5222   21.1848 C   0  0  0  0  0  0
  -22.1650   -4.2122   21.0982 F   0  0  0  0  0  0
  -21.5640   -3.4541   25.7748 F   0  0  0  0  0  0
  -30.0380  -13.2661   20.4335 N   0  0  0  0  0  0
  -26.3039  -12.9317   20.3391 N   0  0  0  0  0  0
  -25.9336  -11.6476   20.5779 N   0  0  0  0  0  0
  -22.0495  -12.8215   22.0402 N   0  0  0  0  0  0
  -25.4337  -15.1852   20.4098 N   0  0  0  0  0  0
  -31.8538  -14.6095   20.1131 O   0  0  0  0  0  0
  -21.6627   -6.8865   21.4233 O   0  0  0  0  0  0
  -22.3554  -14.5536   20.6710 O   0  0  0  0  0  0
  -24.6127  -31.8695   23.2113 C   0  0  0  0  0  0
  -25.9031  -32.4834   23.8409 C   0  0  1  0  0  0
  -27.2290  -27.4543   20.0956 C   0  0  0  0  0  0
  -25.5898  -33.8627   24.2353 N   0  0  0  0  0  0
  -23.3988  -30.4938   21.5515 C   0  0  2  0  0  0
  -24.8447  -28.9625   20.1135 C   0  0  0  0  0  0
  -22.7405  -29.4666   22.4996 C   0  0  0  0  0  0
  -18.0275  -28.1375   22.8492 C   0  0  0  0  0  0
  -24.1480  -36.7321   23.2635 C   0  0  0  0  0  0
  -25.9246  -30.8462   21.3557 C   0  0  0  0  0  0
  -26.0036  -29.4802   20.7050 C   0  0  0  0  0  0
  -27.2018  -28.7332   20.6912 C   0  0  0  0  0  0
  -26.0575  -26.9484   19.4927 C   0  0  0  0  0  0
  -24.8647  -27.6956   19.5036 C   0  0  0  0  0  0
  -23.6045  -29.8252   20.1653 C   0  0  0  0  0  0
  -25.4100  -36.3126   24.0338 C   0  0  1  0  0  0
  -20.5861  -28.3654   23.1335 C   0  0  2  0  0  0
  -20.6766  -26.9392   22.5425 C   0  0  0  0  0  0
  -19.5739  -26.6386   21.5225 C   0  0  0  0  0  0
  -18.1914  -26.7920   22.1632 C   0  0  0  0  0  0
  -19.1517  -28.8829   23.2912 C   0  0  0  0  0  0
  -18.9448  -30.1446   23.8918 C   0  0  0  0  0  0
  -17.6452  -30.6578   24.0566 C   0  0  0  0  0  0
  -25.9019  -34.9482   23.5132 C   0  0  0  0  0  0
  -16.5343  -29.9080   23.6325 C   0  0  0  0  0  0
  -16.7267  -28.6500   23.0340 C   0  0  0  0  0  0
  -26.4458  -31.6585   25.0710 C   0  0  0  0  0  0
  -25.3743  -31.3655   26.1464 C   0  0  0  0  0  0
  -27.0273  -30.3047   24.6023 C   0  0  0  0  0  0
  -27.6060  -32.4261   25.7478 C   0  0  0  0  0  0
  -27.5576  -37.1813   24.8468 C   0  0  0  0  0  0
  -21.4136  -29.3024   22.3740 N   0  0  0  0  0  0
  -26.4294  -37.3805   23.9405 N   0  0  0  0  0  0
  -24.6637  -31.0811   22.1000 N   0  0  0  0  0  0
  -23.4195  -28.8204   23.3022 O   0  0  0  0  0  0
  -28.3841  -26.7090   20.1135 O   0  0  0  0  0  0
  -26.5566  -34.8927   22.4694 O   0  0  0  0  0  0
  -23.5326  -32.1427   23.7533 O   0  0  0  0  0  0
  -29.1165  -18.9072   18.0785 C   0  0  0  0  0  0
  -27.7487  -19.3121   17.4853 C   0  0  0  0  0  0
  -26.8467  -20.0331   19.6988 C   0  0  0  0  0  0
  -29.2630  -19.1506   19.6067 C   0  0  1  0  0  0
  -28.3336  -20.3114   20.0659 C   0  0  1  0  0  0
  -29.0552  -17.8410   20.4238 C   0  0  0  0  0  0
  -28.8155  -21.7069   19.5696 C   0  0  0  0  0  0
  -28.3019  -22.8954   20.4139 C   0  0  0  0  0  0
  -28.6440  -24.2773   19.8164 C   0  0  0  0  0  0
  -30.2607  -16.8747   20.3637 C   0  0  0  0  0  0
  -28.2544  -25.4334   20.7540 C   0  0  0  0  0  0
  -29.9253  -15.5110   20.7925 N   0  0  0  0  0  0
  -26.6648  -19.2026   18.4820 N   0  3  0  0  0  0
  -31.4645  -12.3542   19.1217 H   0  0  0  0  0  0
  -30.3048  -11.2633   19.8204 H   0  0  0  0  0  0
  -29.7199  -11.7474   17.4302 H   0  0  0  0  0  0
  -29.6829  -13.4601   17.7607 H   0  0  0  0  0  0
  -27.7932  -11.3178   18.7895 H   0  0  0  0  0  0
  -27.3719  -12.6748   17.7822 H   0  0  0  0  0  0
  -27.7021  -14.2534   19.5775 H   0  0  0  0  0  0
  -28.6755  -11.9520   21.3458 H   0  0  0  0  0  0
  -28.4959  -13.6027   21.8670 H   0  0  0  0  0  0
  -25.2750   -9.5638   22.4792 H   0  0  0  0  0  0
  -23.9968   -7.4596   22.7467 H   0  0  0  0  0  0
  -21.0837   -8.8795   19.8948 H   0  0  0  0  0  0
  -22.3724  -10.9677   19.6170 H   0  0  0  0  0  0
  -21.2007   -7.6132   23.9701 H   0  0  0  0  0  0
  -21.1484   -6.0522   25.9076 H   0  0  0  0  0  0
  -22.0607   -2.7592   23.2870 H   0  0  0  0  0  0
  -22.4077  -11.9840   22.4757 H   0  0  0  0  0  0
  -21.1134  -13.1285   22.2635 H   0  0  0  0  0  0
  -24.6839  -15.8508   20.5614 H   0  0  0  0  0  0
  -26.3105  -15.6145   20.1523 H   0  0  0  0  0  0
  -26.7102  -32.5565   23.1183 H   0  0  0  0  0  0
  -25.0085  -33.9796   25.0520 H   0  0  0  0  0  0
  -22.6868  -31.3099   21.4127 H   0  0  0  0  0  0
  -23.3742  -35.9655   23.3315 H   0  0  0  0  0  0
  -24.3571  -36.8914   22.2046 H   0  0  0  0  0  0
  -23.7226  -37.6531   23.6632 H   0  0  0  0  0  0
  -26.0204  -31.6096   20.5824 H   0  0  0  0  0  0
  -26.8201  -30.9106   21.9622 H   0  0  0  0  0  0
  -28.0979  -29.1234   21.1535 H   0  0  0  0  0  0
  -26.0649  -25.9758   19.0207 H   0  0  0  0  0  0
  -23.9734  -27.2938   19.0427 H   0  0  0  0  0  0
  -23.7084  -30.5993   19.4038 H   0  0  0  0  0  0
  -22.7301  -29.2419   19.8729 H   0  0  0  0  0  0
  -25.1273  -36.2003   25.0830 H   0  0  0  0  0  0
  -20.9963  -28.3211   24.1450 H   0  0  0  0  0  0
  -20.5683  -26.2251   23.3602 H   0  0  0  0  0  0
  -21.6633  -26.7443   22.1196 H   0  0  0  0  0  0
  -19.6900  -25.6310   21.1219 H   0  0  0  0  0  0
  -19.6675  -27.3228   20.6779 H   0  0  0  0  0  0
  -17.4190  -26.6678   21.4028 H   0  0  0  0  0  0
  -18.0301  -26.0062   22.9026 H   0  0  0  0  0  0
  -19.7923  -30.7254   24.2278 H   0  0  0  0  0  0
  -17.5006  -31.6257   24.5170 H   0  0  0  0  0  0
  -15.5341  -30.2991   23.7635 H   0  0  0  0  0  0
  -15.8668  -28.0839   22.7030 H   0  0  0  0  0  0
  -24.5943  -30.6966   25.7798 H   0  0  0  0  0  0
  -24.8887  -32.2783   26.4924 H   0  0  0  0  0  0
  -25.8103  -30.8832   27.0218 H   0  0  0  0  0  0
  -26.2806  -29.6839   24.1058 H   0  0  0  0  0  0
  -27.4059  -29.7228   25.4432 H   0  0  0  0  0  0
  -27.8621  -30.4382   23.9141 H   0  0  0  0  0  0
  -27.2729  -33.3559   26.2094 H   0  0  0  0  0  0
  -28.3870  -32.6803   25.0302 H   0  0  0  0  0  0
  -28.0724  -31.8340   26.5363 H   0  0  0  0  0  0
  -28.2608  -38.0099   24.7522 H   0  0  0  0  0  0
  -28.1054  -36.2631   24.6296 H   0  0  0  0  0  0
  -27.2284  -37.1468   25.8868 H   0  0  0  0  0  0
  -20.9288  -29.8763   21.6986 H   0  0  0  0  0  0
  -26.0188  -38.2881   24.1427 H   0  0  0  0  0  0
  -29.8925  -19.4565   17.5429 H   0  0  0  0  0  0
  -29.2986  -17.8580   17.8477 H   0  0  0  0  0  0
  -27.5166  -18.6813   16.6255 H   0  0  0  0  0  0
  -27.7804  -20.3314   17.0984 H   0  0  0  0  0  0
  -26.3042  -20.9685   19.5627 H   0  0  0  0  0  0
  -26.3511  -19.5220   20.5259 H   0  0  0  0  0  0
  -30.2927  -19.4584   19.8006 H   0  0  0  0  0  0
  -28.4006  -20.3569   21.1544 H   0  0  0  0  0  0
  -28.1548  -17.3319   20.0802 H   0  0  0  0  0  0
  -28.8767  -18.0840   21.4723 H   0  0  0  0  0  0
  -28.5297  -21.8602   18.5302 H   0  0  0  0  0  0
  -29.9063  -21.7391   19.5771 H   0  0  0  0  0  0
  -28.7192  -22.8236   21.4198 H   0  0  0  0  0  0
  -27.2199  -22.8338   20.5321 H   0  0  0  0  0  0
  -28.1283  -24.3945   18.8630 H   0  0  0  0  0  0
  -29.7106  -24.3368   19.5983 H   0  0  0  0  0  0
  -31.0798  -17.2582   20.9734 H   0  0  0  0  0  0
  -30.6419  -16.8285   19.3411 H   0  0  0  0  0  0
  -28.9046  -25.4298   21.6294 H   0  0  0  0  0  0
  -27.2478  -25.2635   21.1430 H   0  0  0  0  0  0
  -28.9825  -15.3243   21.0997 H   0  0  0  0  0  0
  -26.5944  -18.2385   18.7584 H   0  0  0  0  0  0
  -25.7856  -19.4420   18.0501 H   0  0  0  0  0  0
  1 25  1  0  0  0
  1 30  2  0  0  0
  1 82  1  0  0  0
  2  3  1  0  0  0
  2 25  1  0  0  0
  2 84  1  0  0  0
  2 85  1  0  0  0
  3  4  1  0  0  0
  3 86  1  0  0  0
  3 87  1  0  0  0
  4  5  1  0  0  0
  4 88  1  0  0  0
  4 89  1  0  0  0
  5  6  1  0  0  0
  5 26  1  0  0  0
  5 90  1  0  0  0
  6 25  1  0  0  0
  6 91  1  0  0  0
  6 92  1  0  0  0
  7  8  2  0  0  0
  7 26  1  0  0  0
  7 29  1  0  0  0
  8  9  1  0  0  0
  8 22  1  0  0  0
  9 10  1  0  0  0
  9 27  2  0  0  0
 10 11  2  0  0  0
 10 15  1  0  0  0
 11 12  1  0  0  0
 11 93  1  0  0  0
 12 13  2  0  0  0
 12 94  1  0  0  0
 13 14  1  0  0  0
 13 31  1  0  0  0
 14 15  2  0  0  0
 14 95  1  0  0  0
 15 96  1  0  0  0
 16 17  2  0  0  0
 16 21  1  0  0  0
 16 31  1  0  0  0
 17 18  1  0  0  0
 17 97  1  0  0  0
 18 19  2  0  0  0
 18 98  1  0  0  0
 19 20  1  0  0  0
 19 24  1  0  0  0
 20 21  2  0  0  0
 20 99  1  0  0  0
 21 23  1  0  0  0
 22 28  1  0  0  0
 22 32  2  0  0  0
 26 27  1  0  0  0
 28100  1  0  0  0
 28101  1  0  0  0
 29102  1  0  0  0
 29103  1  0  0  0
 33 34  1  0  0  0
 33 66  1  0  0  0
 33 70  2  0  0  0
 34 36  1  0  0  0
 34 59  1  0  0  0
 34104  1  0  0  0
 35 44  2  0  0  0
 35 45  1  0  0  0
 35 68  1  0  0  0
 36 56  1  0  0  0
 36105  1  0  0  0
 37 39  1  0  0  0
 37 47  1  0  0  0
 37 66  1  0  0  0
 37106  1  0  0  0
 38 43  2  0  0  0
 38 46  1  0  0  0
 38 47  1  0  0  0
 39 64  1  0  0  0
 39 67  2  0  0  0
 40 52  1  0  0  0
 40 53  2  0  0  0
 40 58  1  0  0  0
 41107  1  0  0  0
 41108  1  0  0  0
 41109  1  0  0  0
 41 48  1  0  0  0
 42 43  1  0  0  0
 42 66  1  0  0  0
 42110  1  0  0  0
 42111  1  0  0  0
 43 44  1  0  0  0
 44112  1  0  0  0
 45 46  2  0  0  0
 45113  1  0  0  0
 46114  1  0  0  0
 47115  1  0  0  0
 47116  1  0  0  0
 48 56  1  0  0  0
 48 65  1  0  0  0
 48117  1  0  0  0
 49 50  1  0  0  0
 49 53  1  0  0  0
 49 64  1  0  0  0
 49118  1  0  0  0
 50 51  1  0  0  0
 50119  1  0  0  0
 50120  1  0  0  0
 51 52  1  0  0  0
 51121  1  0  0  0
 51122  1  0  0  0
 52123  1  0  0  0
 52124  1  0  0  0
 53 54  1  0  0  0
 54 55  2  0  0  0
 54125  1  0  0  0
 55 57  1  0  0  0
 55126  1  0  0  0
 56 69  2  0  0  0
 57 58  2  0  0  0
 57127  1  0  0  0
 58128  1  0  0  0
 59 60  1  0  0  0
 59 61  1  0  0  0
 59 62  1  0  0  0
 60129  1  0  0  0
 60130  1  0  0  0
 60131  1  0  0  0
 61132  1  0  0  0
 61133  1  0  0  0
 61134  1  0  0  0
 62135  1  0  0  0
 62136  1  0  0  0
 62137  1  0  0  0
 63 65  1  0  0  0
 63138  1  0  0  0
 63139  1  0  0  0
 63140  1  0  0  0
 64141  1  0  0  0
 65142  1  0  0  0
 68 81  1  0  0  0
 71 72  1  0  0  0
 71 74  1  0  0  0
 71143  1  0  0  0
 71144  1  0  0  0
 72 83  1  0  0  0
 72145  1  0  0  0
 72146  1  0  0  0
 73 75  1  0  0  0
 73 83  1  0  0  0
 73147  1  0  0  0
 73148  1  0  0  0
 74 75  1  0  0  0
 74 76  1  0  0  0
 74149  1  0  0  0
 75 77  1  0  0  0
 75150  1  0  0  0
 76 80  1  0  0  0
 76151  1  0  0  0
 76152  1  0  0  0
 77 78  1  0  0  0
 77153  1  0  0  0
 77154  1  0  0  0
 78 79  1  0  0  0
 78155  1  0  0  0
 78156  1  0  0  0
 79 81  1  0  0  0
 79157  1  0  0  0
 79158  1  0  0  0
 80 82  1  0  0  0
 80159  1  0  0  0
 80160  1  0  0  0
 81161  1  0  0  0
 81162  1  0  0  0
 82163  1  0  0  0
 83164  1  0  0  0
 83165  1  0  0  0
M  CHG  1  83   1
M  ISO  4   1 100  68 101  81 101  82 100
M  END
> <chiral flag>
0

> <version>
0

> <s_m_source_file>
/data/baiqing/PycharmProjects/Reinvent-master-3.2/result/LINK_invent/BTK/process_docking_weight1_custom_sum_contain_oxygen_bond_distance_aromatic_linkinvent_7_9_3/rearranged_h_0124.sdf

> <i_m_source_file_index>
86

> <r_mmod_Potential_Energy-OPLS-2005>
-127.26554107666

> <r_mmod_Stretch_Energy-OPLS-2005>
35.7837867736816

> <r_mmod_Bend_Energy-OPLS-2005>
91.3628387451172

> <r_mmod_Torsional_Energy-OPLS-2005>
308.438781738281

> <r_mmod_Improper_Torsional_Energy-OPLS-2005>
7.1469292640686

> <r_mmod_Van_der_Waal_Energy-OPLS-2005>
139.848052978516

> <r_mmod_Electrostatic_Energy-OPLS-2005>
-243.734161376953

> <r_mmod_Solvation_Energy-OPLS-2005>
-479.265167236328

> <b_mmod_Minimization_Converged-OPLS-2005>
0

> <r_mmod_RMS_Derivative-OPLS-2005>
2.06817007064819

$$$$
86
                    3D
 Structure written by MMmdl.
175184  0  0  1  0            999 V2000
  -30.7394  -14.4287   20.5697 C   0  0  0  0  0  0
  -30.4131  -12.2852   19.4126 C   0  0  0  0  0  0
  -29.4915  -12.5115   18.2002 C   0  0  0  0  0  0
  -28.0113  -12.3736   18.6076 C   0  0  0  0  0  0
  -27.6590  -13.2059   19.8683 C   0  0  2  0  0  0
  -28.7013  -12.9750   20.9836 C   0  0  0  0  0  0
  -25.2525  -13.8124   20.5568 C   0  0  0  0  0  0
  -24.1832  -13.0441   20.9212 C   0  0  0  0  0  0
  -24.6398  -11.6881   20.8770 C   0  0  0  0  0  0
  -23.9066  -10.4272   21.0427 C   0  0  0  0  0  0
  -24.3621   -9.4173   21.9191 C   0  0  0  0  0  0
  -23.6284   -8.2227   22.0767 C   0  0  0  0  0  0
  -22.4258   -8.0279   21.3560 C   0  0  0  0  0  0
  -21.9909   -9.0252   20.4663 C   0  0  0  0  0  0
  -22.7251  -10.2121   20.3064 C   0  0  0  0  0  0
  -21.6841   -6.0737   22.5271 C   0  0  0  0  0  0
  -21.4007   -6.5645   23.8219 C   0  0  0  0  0  0
  -21.3651   -5.6795   24.9178 C   0  0  0  0  0  0
  -21.6038   -4.3056   24.7230 C   0  0  0  0  0  0
  -21.8814   -3.8150   23.4359 C   0  0  0  0  0  0
  -21.9190   -4.6974   22.3416 C   0  0  0  0  0  0
  -22.7853  -13.5227   21.1873 C   0  0  0  0  0  0
  -22.1659   -4.2165   21.0991 F   0  0  0  0  0  0
  -21.5620   -3.4537   25.7744 F   0  0  0  0  0  0
  -30.0344  -13.2741   20.4327 N   0  0  0  0  0  0
  -26.3002  -12.9318   20.3314 N   0  0  0  0  0  0
  -25.9325  -11.6480   20.5796 N   0  0  0  0  0  0
  -22.0467  -12.8243   22.0404 N   0  0  0  0  0  0
  -25.4112  -15.1838   20.3650 N   0  0  0  0  0  0
  -31.8919  -14.5570   20.1419 O   0  0  0  0  0  0
  -21.6627   -6.8889   21.4237 O   0  0  0  0  0  0
  -22.3568  -14.5540   20.6684 O   0  0  0  0  0  0
  -24.6142  -31.8797   23.2133 C   0  0  0  0  0  0
  -25.9073  -32.4894   23.8427 C   0  0  1  0  0  0
  -27.2217  -27.4514   20.0566 C   0  0  0  0  0  0
  -25.5999  -33.8689   24.2391 N   0  0  0  0  0  0
  -23.3994  -30.5034   21.5556 C   0  0  2  0  0  0
  -24.8402  -28.9708   20.1185 C   0  0  0  0  0  0
  -22.7442  -29.4708   22.5013 C   0  0  0  0  0  0
  -18.0284  -28.1414   22.8449 C   0  0  0  0  0  0
  -24.1476  -36.7342   23.2626 C   0  0  0  0  0  0
  -25.9292  -30.8307   21.3759 C   0  0  0  0  0  0
  -26.0008  -29.4682   20.7202 C   0  0  0  0  0  0
  -27.1951  -28.7123   20.6962 C   0  0  0  0  0  0
  -26.0437  -26.9734   19.4404 C   0  0  0  0  0  0
  -24.8549  -27.7207   19.4802 C   0  0  0  0  0  0
  -23.6104  -29.8459   20.1651 C   0  0  0  0  0  0
  -25.4114  -36.3157   24.0330 C   0  0  1  0  0  0
  -20.5883  -28.3640   23.1226 C   0  0  2  0  0  0
  -20.6735  -26.9418   22.5212 C   0  0  0  0  0  0
  -19.5732  -26.6579   21.4933 C   0  0  0  0  0  0
  -18.1912  -26.8028   22.1398 C   0  0  0  0  0  0
  -19.1547  -28.8808   23.2937 C   0  0  0  0  0  0
  -18.9466  -30.1349   23.9059 C   0  0  0  0  0  0
  -17.6477  -30.6519   24.0688 C   0  0  0  0  0  0
  -25.9078  -34.9543   23.5163 C   0  0  0  0  0  0
  -16.5364  -29.9117   23.6339 C   0  0  0  0  0  0
  -16.7298  -28.6544   23.0336 C   0  0  0  0  0  0
  -26.4484  -31.6638   25.0753 C   0  0  0  0  0  0
  -25.3714  -31.3694   26.1457 C   0  0  0  0  0  0
  -27.0286  -30.3075   24.6131 C   0  0  0  0  0  0
  -27.6095  -32.4306   25.7522 C   0  0  0  0  0  0
  -27.5584  -37.1851   24.8473 C   0  0  0  0  0  0
  -21.4174  -29.3071   22.3701 N   0  0  0  0  0  0
  -26.4310  -37.3829   23.9394 N   0  0  0  0  0  0
  -24.6649  -31.0851   22.1065 N   0  0  0  0  0  0
  -23.4213  -28.8296   23.3089 O   0  0  0  0  0  0
  -28.3990  -26.7410   19.9698 O   0  0  0  0  0  0
  -26.5563  -34.8973   22.4672 O   0  0  0  0  0  0
  -23.5342  -32.1578   23.7531 O   0  0  0  0  0  0
  -23.0154  -23.2197   21.8702 C   0  0  0  0  0  0
  -23.6794  -22.0088   21.2138 C   0  0  0  0  0  0
  -24.3597  -23.9388   21.8000 C   0  0  0  0  0  0
  -30.1996  -16.6818   19.8530 C   0  0  0  0  0  0
  -29.5733  -15.9980   22.0877 C   0  0  0  0  0  0
  -28.8817  -17.4458   19.6834 C   0  0  0  0  0  0
  -28.2460  -16.7813   21.9779 C   0  0  0  0  0  0
  -25.0656  -22.5907   21.5401 C   0  0  0  0  0  0
  -27.2666  -20.1953   21.1109 C   0  0  0  0  0  0
  -26.5543  -21.0774   20.0588 C   0  0  0  0  0  0
  -27.0886  -18.6806   20.8374 C   0  0  0  0  0  0
  -27.9802  -24.2427   19.9647 C   0  0  0  0  0  0
  -28.4509  -25.5183   20.7112 C   0  0  0  0  0  0
  -26.1758  -22.5207   20.4756 C   0  0  2  0  0  0
  -29.9966  -15.5408   20.7580 N   0  0  0  0  0  0
  -28.3445  -17.8950   20.9934 N   0  3  0  0  0  0
  -27.3537  -23.3001   20.9303 N   0  3  0  0  0  0
  -31.4592  -12.3590   19.1117 H   0  0  0  0  0  0
  -30.2939  -11.2728   19.8031 H   0  0  0  0  0  0
  -29.7280  -11.8038   17.4070 H   0  0  0  0  0  0
  -29.6678  -13.5041   17.7820 H   0  0  0  0  0  0
  -27.8120  -11.3179   18.7880 H   0  0  0  0  0  0
  -27.3660  -12.6580   17.7758 H   0  0  0  0  0  0
  -27.7040  -14.2566   19.5804 H   0  0  0  0  0  0
  -28.6780  -11.9374   21.3225 H   0  0  0  0  0  0
  -28.4560  -13.5637   21.8618 H   0  0  0  0  0  0
  -25.2782   -9.5647   22.4752 H   0  0  0  0  0  0
  -23.9986   -7.4624   22.7491 H   0  0  0  0  0  0
  -21.0847   -8.8779   19.8984 H   0  0  0  0  0  0
  -22.3729  -10.9651   19.6166 H   0  0  0  0  0  0
  -21.1997   -7.6151   23.9724 H   0  0  0  0  0  0
  -21.1475   -6.0531   25.9087 H   0  0  0  0  0  0
  -22.0604   -2.7614   23.2853 H   0  0  0  0  0  0
  -22.4068  -11.9900   22.4821 H   0  0  0  0  0  0
  -21.1091  -13.1295   22.2589 H   0  0  0  0  0  0
  -24.5621  -15.7379   20.3194 H   0  0  0  0  0  0
  -26.1143  -15.5010   19.7132 H   0  0  0  0  0  0
  -26.7174  -32.5579   23.1208 H   0  0  0  0  0  0
  -25.0156  -33.9850   25.0543 H   0  0  0  0  0  0
  -22.6886  -31.3225   21.4207 H   0  0  0  0  0  0
  -23.3744  -35.9673   23.3329 H   0  0  0  0  0  0
  -24.3575  -36.8892   22.2030 H   0  0  0  0  0  0
  -23.7206  -37.6561   23.6605 H   0  0  0  0  0  0
  -26.0451  -31.5895   20.6021 H   0  0  0  0  0  0
  -26.8136  -30.8836   21.9977 H   0  0  0  0  0  0
  -28.0935  -29.0959   21.1584 H   0  0  0  0  0  0
  -26.0248  -26.0577   18.8744 H   0  0  0  0  0  0
  -23.9676  -27.3578   18.9820 H   0  0  0  0  0  0
  -23.7463  -30.6296   19.4183 H   0  0  0  0  0  0
  -22.7257  -29.2883   19.8460 H   0  0  0  0  0  0
  -25.1278  -36.2064   25.0822 H   0  0  0  0  0  0
  -21.0001  -28.3003   24.1306 H   0  0  0  0  0  0
  -20.5388  -26.2268   23.3329 H   0  0  0  0  0  0
  -21.6622  -26.7338   22.1086 H   0  0  0  0  0  0
  -19.6875  -25.6567   21.0763 H   0  0  0  0  0  0
  -19.6651  -27.3507   20.6557 H   0  0  0  0  0  0
  -17.4114  -26.6715   21.3840 H   0  0  0  0  0  0
  -18.0426  -26.0153   22.8790 H   0  0  0  0  0  0
  -19.7942  -30.7014   24.2639 H   0  0  0  0  0  0
  -17.5051  -31.6122   24.5423 H   0  0  0  0  0  0
  -15.5368  -30.3048   23.7617 H   0  0  0  0  0  0
  -15.8698  -28.0920   22.7025 H   0  0  0  0  0  0
  -24.5969  -30.6984   25.7704 H   0  0  0  0  0  0
  -24.8827  -32.2815   26.4919 H   0  0  0  0  0  0
  -25.8083  -30.8830   27.0191 H   0  0  0  0  0  0
  -26.2798  -29.6888   24.1175 H   0  0  0  0  0  0
  -27.3966  -29.7317   25.4634 H   0  0  0  0  0  0
  -27.8700  -30.4341   23.9303 H   0  0  0  0  0  0
  -27.2777  -33.3599   26.2158 H   0  0  0  0  0  0
  -28.3910  -32.6861   25.0349 H   0  0  0  0  0  0
  -28.0761  -31.8368   26.5386 H   0  0  0  0  0  0
  -28.2647  -38.0103   24.7525 H   0  0  0  0  0  0
  -28.1045  -36.2669   24.6331 H   0  0  0  0  0  0
  -27.2319  -37.1518   25.8874 H   0  0  0  0  0  0
  -20.9317  -29.8832   21.6958 H   0  0  0  0  0  0
  -26.0233  -38.2921   24.1387 H   0  0  0  0  0  0
  -22.6911  -23.0359   22.8963 H   0  0  0  0  0  0
  -22.2367  -23.6952   21.2722 H   0  0  0  0  0  0
  -23.4875  -21.9671   20.1406 H   0  0  0  0  0  0
  -23.4481  -21.0535   21.6907 H   0  0  0  0  0  0
  -24.6382  -24.4165   22.7396 H   0  0  0  0  0  0
  -24.4128  -24.6339   20.9603 H   0  0  0  0  0  0
  -30.9772  -17.3420   20.2411 H   0  0  0  0  0  0
  -30.5343  -16.3536   18.8659 H   0  0  0  0  0  0
  -29.4720  -15.1776   22.7971 H   0  0  0  0  0  0
  -30.3444  -16.6428   22.5101 H   0  0  0  0  0  0
  -28.1527  -16.7985   19.1893 H   0  0  0  0  0  0
  -29.0376  -18.3045   19.0292 H   0  0  0  0  0  0
  -27.9711  -17.1757   22.9556 H   0  0  0  0  0  0
  -27.4482  -16.0985   21.6928 H   0  0  0  0  0  0
  -25.3946  -22.1813   22.4972 H   0  0  0  0  0  0
  -26.8852  -20.4035   22.1097 H   0  0  0  0  0  0
  -28.3240  -20.4611   21.1399 H   0  0  0  0  0  0
  -25.6389  -20.5782   19.7371 H   0  0  0  0  0  0
  -27.1769  -21.1146   19.1647 H   0  0  0  0  0  0
  -26.7013  -18.5258   19.8302 H   0  0  0  0  0  0
  -26.3092  -18.2919   21.4937 H   0  0  0  0  0  0
  -28.8144  -23.7581   19.4568 H   0  0  0  0  0  0
  -27.2870  -24.4876   19.1680 H   0  0  0  0  0  0
  -29.4840  -25.3718   21.0264 H   0  0  0  0  0  0
  -27.8796  -25.6476   21.6307 H   0  0  0  0  0  0
  -25.7665  -22.9824   19.5749 H   0  0  0  0  0  0
  -29.0386  -18.5224   21.3743 H   0  0  0  0  0  0
  -27.0089  -23.8716   21.6856 H   0  0  0  0  0  0
  -28.0501  -22.6888   21.3279 H   0  0  0  0  0  0
  1 25  1  0  0  0
  1 30  2  0  0  0
  1 85  1  0  0  0
  2  3  1  0  0  0
  2 25  1  0  0  0
  2 88  1  0  0  0
  2 89  1  0  0  0
  3  4  1  0  0  0
  3 90  1  0  0  0
  3 91  1  0  0  0
  4  5  1  0  0  0
  4 92  1  0  0  0
  4 93  1  0  0  0
  5  6  1  0  0  0
  5 26  1  0  0  0
  5 94  1  0  0  0
  6 25  1  0  0  0
  6 95  1  0  0  0
  6 96  1  0  0  0
  7  8  2  0  0  0
  7 26  1  0  0  0
  7 29  1  0  0  0
  8  9  1  0  0  0
  8 22  1  0  0  0
  9 10  1  0  0  0
  9 27  2  0  0  0
 10 11  2  0  0  0
 10 15  1  0  0  0
 11 12  1  0  0  0
 11 97  1  0  0  0
 12 13  2  0  0  0
 12 98  1  0  0  0
 13 14  1  0  0  0
 13 31  1  0  0  0
 14 15  2  0  0  0
 14 99  1  0  0  0
 15100  1  0  0  0
 16 17  2  0  0  0
 16 21  1  0  0  0
 16 31  1  0  0  0
 17 18  1  0  0  0
 17101  1  0  0  0
 18 19  2  0  0  0
 18102  1  0  0  0
 19 20  1  0  0  0
 19 24  1  0  0  0
 20 21  2  0  0  0
 20103  1  0  0  0
 21 23  1  0  0  0
 22 28  1  0  0  0
 22 32  2  0  0  0
 26 27  1  0  0  0
 28104  1  0  0  0
 28105  1  0  0  0
 29106  1  0  0  0
 29107  1  0  0  0
 33 34  1  0  0  0
 33 66  1  0  0  0
 33 70  2  0  0  0
 34 36  1  0  0  0
 34 59  1  0  0  0
 34108  1  0  0  0
 35 44  2  0  0  0
 35 45  1  0  0  0
 35 68  1  0  0  0
 36 56  1  0  0  0
 36109  1  0  0  0
 37 39  1  0  0  0
 37 47  1  0  0  0
 37 66  1  0  0  0
 37110  1  0  0  0
 38 43  2  0  0  0
 38 46  1  0  0  0
 38 47  1  0  0  0
 39 64  1  0  0  0
 39 67  2  0  0  0
 40 52  1  0  0  0
 40 53  2  0  0  0
 40 58  1  0  0  0
 41111  1  0  0  0
 41112  1  0  0  0
 41113  1  0  0  0
 41 48  1  0  0  0
 42 43  1  0  0  0
 42 66  1  0  0  0
 42114  1  0  0  0
 42115  1  0  0  0
 43 44  1  0  0  0
 44116  1  0  0  0
 45 46  2  0  0  0
 45117  1  0  0  0
 46118  1  0  0  0
 47119  1  0  0  0
 47120  1  0  0  0
 48 56  1  0  0  0
 48 65  1  0  0  0
 48121  1  0  0  0
 49 50  1  0  0  0
 49 53  1  0  0  0
 49 64  1  0  0  0
 49122  1  0  0  0
 50 51  1  0  0  0
 50123  1  0  0  0
 50124  1  0  0  0
 51 52  1  0  0  0
 51125  1  0  0  0
 51126  1  0  0  0
 52127  1  0  0  0
 52128  1  0  0  0
 53 54  1  0  0  0
 54 55  2  0  0  0
 54129  1  0  0  0
 55 57  1  0  0  0
 55130  1  0  0  0
 56 69  2  0  0  0
 57 58  2  0  0  0
 57131  1  0  0  0
 58132  1  0  0  0
 59 60  1  0  0  0
 59 61  1  0  0  0
 59 62  1  0  0  0
 60133  1  0  0  0
 60134  1  0  0  0
 60135  1  0  0  0
 61136  1  0  0  0
 61137  1  0  0  0
 61138  1  0  0  0
 62139  1  0  0  0
 62140  1  0  0  0
 62141  1  0  0  0
 63 65  1  0  0  0
 63142  1  0  0  0
 63143  1  0  0  0
 63144  1  0  0  0
 64145  1  0  0  0
 65146  1  0  0  0
 68 83  1  0  0  0
 71 72  1  0  0  0
 71 73  1  0  0  0
 71147  1  0  0  0
 71148  1  0  0  0
 72149  1  0  0  0
 72150  1  0  0  0
 72 78  1  0  0  0
 73 78  1  0  0  0
 73151  1  0  0  0
 73152  1  0  0  0
 74 76  1  0  0  0
 74 85  1  0  0  0
 74153  1  0  0  0
 74154  1  0  0  0
 75 77  1  0  0  0
 75 85  1  0  0  0
 75155  1  0  0  0
 75156  1  0  0  0
 76 86  1  0  0  0
 76157  1  0  0  0
 76158  1  0  0  0
 77 86  1  0  0  0
 77159  1  0  0  0
 77160  1  0  0  0
 78 84  1  0  0  0
 78161  1  0  0  0
 79 80  1  0  0  0
 79 81  1  0  0  0
 79162  1  0  0  0
 79163  1  0  0  0
 80164  1  0  0  0
 80165  1  0  0  0
 80 84  1  0  0  0
 81166  1  0  0  0
 81167  1  0  0  0
 81 86  1  0  0  0
 82 83  1  0  0  0
 82 87  1  0  0  0
 82168  1  0  0  0
 82169  1  0  0  0
 83170  1  0  0  0
 83171  1  0  0  0
 84 87  1  0  0  0
 84172  1  0  0  0
 86173  1  0  0  0
 87174  1  0  0  0
 87175  1  0  0  0
M  CHG  2  86   1  87   1
M  ISO  4   1 100  68 101  83 101  85 100
M  END
> <chiral flag>
0

> <version>
0

> <s_m_source_file>
/data/baiqing/PycharmProjects/Reinvent-master-3.2/result/LINK_invent/BTK/process_docking_weight1_custom_sum_contain_oxygen_bond_distance_aromatic_linkinvent_7_9_3/rearranged_h_0124.sdf

> <i_m_source_file_index>
87

> <r_mmod_Potential_Energy-OPLS-2005>
46.6168899536133

> <r_mmod_Stretch_Energy-OPLS-2005>
36.7119598388672

> <r_mmod_Bend_Energy-OPLS-2005>
114.630317687988

> <r_mmod_Torsional_Energy-OPLS-2005>
485.665161132812

> <r_mmod_Improper_Torsional_Energy-OPLS-2005>
19.8066253662109

> <r_mmod_Van_der_Waal_Energy-OPLS-2005>
126.67204284668

> <r_mmod_Electrostatic_Energy-OPLS-2005>
140.578170776367

> <r_mmod_Solvation_Energy-OPLS-2005>
-892.063720703125

> <b_mmod_Minimization_Converged-OPLS-2005>
0

> <r_mmod_RMS_Derivative-OPLS-2005>
6.09131574630737

$$$$
87
                    3D
 Structure written by MMmdl.
166174  0  0  1  0            999 V2000
  -30.6523  -14.5715   20.5519 C   0  0  0  0  0  0
  -30.4370  -12.3665   19.4323 C   0  0  0  0  0  0
  -29.5012  -12.5069   18.2121 C   0  0  0  0  0  0
  -28.0236  -12.3507   18.6260 C   0  0  0  0  0  0
  -27.6557  -13.2084   19.8656 C   0  0  2  0  0  0
  -28.7003  -13.0311   20.9893 C   0  0  0  0  0  0
  -25.2573  -13.8148   20.5671 C   0  0  0  0  0  0
  -24.1831  -13.0432   20.9183 C   0  0  0  0  0  0
  -24.6387  -11.6896   20.8729 C   0  0  0  0  0  0
  -23.9053  -10.4286   21.0400 C   0  0  0  0  0  0
  -24.3606   -9.4204   21.9179 C   0  0  0  0  0  0
  -23.6283   -8.2239   22.0753 C   0  0  0  0  0  0
  -22.4266   -8.0274   21.3542 C   0  0  0  0  0  0
  -21.9903   -9.0246   20.4644 C   0  0  0  0  0  0
  -22.7226  -10.2125   20.3051 C   0  0  0  0  0  0
  -21.6852   -6.0728   22.5276 C   0  0  0  0  0  0
  -21.4014   -6.5636   23.8207 C   0  0  0  0  0  0
  -21.3658   -5.6793   24.9171 C   0  0  0  0  0  0
  -21.6042   -4.3056   24.7228 C   0  0  0  0  0  0
  -21.8820   -3.8144   23.4351 C   0  0  0  0  0  0
  -21.9194   -4.6956   22.3403 C   0  0  0  0  0  0
  -22.7856  -13.5231   21.1849 C   0  0  0  0  0  0
  -22.1663   -4.2142   21.0980 F   0  0  0  0  0  0
  -21.5630   -3.4539   25.7742 F   0  0  0  0  0  0
  -30.0190  -13.3681   20.4283 N   0  0  0  0  0  0
  -26.2997  -12.9318   20.3325 N   0  0  0  0  0  0
  -25.9313  -11.6478   20.5750 N   0  0  0  0  0  0
  -22.0504  -12.8216   22.0403 N   0  0  0  0  0  0
  -25.4307  -15.1868   20.4077 N   0  0  0  0  0  0
  -31.8046  -14.7580   20.1532 O   0  0  0  0  0  0
  -21.6638   -6.8867   21.4236 O   0  0  0  0  0  0
  -22.3549  -14.5543   20.6705 O   0  0  0  0  0  0
  -24.6210  -31.8637   23.2064 C   0  0  0  0  0  0
  -25.9078  -32.4806   23.8384 C   0  0  1  0  0  0
  -27.2334  -27.3745   20.1181 C   0  0  0  0  0  0
  -25.5911  -33.8606   24.2312 N   0  0  0  0  0  0
  -23.4135  -30.4845   21.5478 C   0  0  2  0  0  0
  -24.8633  -28.9395   20.1211 C   0  0  0  0  0  0
  -22.7452  -29.4632   22.4977 C   0  0  0  0  0  0
  -18.0278  -28.1382   22.8493 C   0  0  0  0  0  0
  -24.1491  -36.7304   23.2637 C   0  0  0  0  0  0
  -25.9478  -30.8108   21.3690 C   0  0  0  0  0  0
  -26.0264  -29.4377   20.7227 C   0  0  0  0  0  0
  -27.2170  -28.6625   20.7184 C   0  0  0  0  0  0
  -26.0563  -26.9083   19.5012 C   0  0  0  0  0  0
  -24.8751  -27.6752   19.5072 C   0  0  0  0  0  0
  -23.6284  -29.8143   20.1654 C   0  0  0  0  0  0
  -25.4116  -36.3099   24.0331 C   0  0  1  0  0  0
  -20.5877  -28.3676   23.1304 C   0  0  2  0  0  0
  -20.6771  -26.9406   22.5418 C   0  0  0  0  0  0
  -19.5747  -26.6383   21.5221 C   0  0  0  0  0  0
  -18.1922  -26.7926   22.1622 C   0  0  0  0  0  0
  -19.1528  -28.8846   23.2892 C   0  0  0  0  0  0
  -18.9454  -30.1451   23.8904 C   0  0  0  0  0  0
  -17.6456  -30.6594   24.0560 C   0  0  0  0  0  0
  -25.9043  -34.9465   23.5118 C   0  0  0  0  0  0
  -16.5349  -29.9092   23.6331 C   0  0  0  0  0  0
  -16.7266  -28.6507   23.0354 C   0  0  0  0  0  0
  -26.4486  -31.6591   25.0731 C   0  0  0  0  0  0
  -25.3732  -31.3693   26.1465 C   0  0  0  0  0  0
  -27.0334  -30.3037   24.6121 C   0  0  0  0  0  0
  -27.6069  -32.4312   25.7488 C   0  0  0  0  0  0
  -27.5581  -37.1805   24.8465 C   0  0  0  0  0  0
  -21.4173  -29.3032   22.3712 N   0  0  0  0  0  0
  -26.4298  -37.3787   23.9405 N   0  0  0  0  0  0
  -24.6793  -31.0687   22.0992 N   0  0  0  0  0  0
  -23.4195  -28.8171   23.3039 O   0  0  0  0  0  0
  -28.3667  -26.5753   20.0695 O   0  0  0  0  0  0
  -26.5612  -34.8915   22.4686 O   0  0  0  0  0  0
  -23.5386  -32.1418   23.7414 O   0  0  0  0  0  0
  -27.6141  -22.1208   19.7714 C   0  0  0  0  0  0
  -27.2800  -23.4738   20.0642 C   0  0  0  0  0  0
  -28.9285  -21.9040   20.0824 C   0  0  0  0  0  0
  -28.3839  -24.1129   20.5575 C   0  0  0  0  0  0
  -32.4834  -25.1771   20.6363 C   0  0  0  0  0  0
  -31.2107  -24.2344   18.6652 C   0  0  0  0  0  0
  -29.7586  -20.6305   19.8192 C   0  0  0  0  0  0
  -28.4969  -25.5543   21.0968 C   0  0  0  0  0  0
  -30.7637  -23.3496   21.0943 C   0  0  0  0  0  0
  -30.2176  -17.0131   21.3144 C   0  0  0  0  0  0
  -29.7200  -18.1083   20.2963 C   0  0  0  0  0  0
  -31.7739  -23.9372   20.0685 C   0  0  0  0  0  0
  -29.4075  -23.1325   20.5913 N   0  0  0  0  0  0
  -29.8782  -15.5944   20.9980 N   0  0  0  0  0  0
  -29.6975  -19.5216   20.8278 N   0  3  0  0  0  0
  -31.4773  -12.4959   19.1280 H   0  0  0  0  0  0
  -30.3716  -11.3630   19.8566 H   0  0  0  0  0  0
  -29.7566  -11.7650   17.4547 H   0  0  0  0  0  0
  -29.6484  -13.4824   17.7460 H   0  0  0  0  0  0
  -27.8508  -11.2962   18.8426 H   0  0  0  0  0  0
  -27.3696  -12.5993   17.7894 H   0  0  0  0  0  0
  -27.6846  -14.2489   19.5421 H   0  0  0  0  0  0
  -28.7025  -12.0010   21.3489 H   0  0  0  0  0  0
  -28.4507  -13.6429   21.8575 H   0  0  0  0  0  0
  -25.2748   -9.5685   22.4753 H   0  0  0  0  0  0
  -23.9996   -7.4633   22.7471 H   0  0  0  0  0  0
  -21.0836   -8.8752   19.8949 H   0  0  0  0  0  0
  -22.3675  -10.9660   19.6161 H   0  0  0  0  0  0
  -21.2005   -7.6144   23.9707 H   0  0  0  0  0  0
  -21.1481   -6.0525   25.9071 H   0  0  0  0  0  0
  -22.0601   -2.7607   23.2852 H   0  0  0  0  0  0
  -22.4120  -11.9866   22.4769 H   0  0  0  0  0  0
  -21.1122  -13.1235   22.2618 H   0  0  0  0  0  0
  -24.6621  -15.8412   20.5052 H   0  0  0  0  0  0
  -26.2757  -15.6197   20.0584 H   0  0  0  0  0  0
  -26.7147  -32.5511   23.1139 H   0  0  0  0  0  0
  -25.0081  -33.9761   25.0474 H   0  0  0  0  0  0
  -22.7050  -31.3023   21.4019 H   0  0  0  0  0  0
  -23.3752  -35.9637   23.3314 H   0  0  0  0  0  0
  -24.3578  -36.8920   22.2049 H   0  0  0  0  0  0
  -23.7241  -37.6507   23.6656 H   0  0  0  0  0  0
  -26.0660  -31.5691   20.5938 H   0  0  0  0  0  0
  -26.8333  -30.8689   21.9898 H   0  0  0  0  0  0
  -28.1163  -29.0429   21.1811 H   0  0  0  0  0  0
  -26.0550  -25.9467   19.0102 H   0  0  0  0  0  0
  -23.9836  -27.2876   19.0348 H   0  0  0  0  0  0
  -23.7435  -30.5866   19.4044 H   0  0  0  0  0  0
  -22.7513  -29.2381   19.8663 H   0  0  0  0  0  0
  -25.1285  -36.1967   25.0821 H   0  0  0  0  0  0
  -20.9960  -28.3250   24.1426 H   0  0  0  0  0  0
  -20.5692  -26.2280   23.3608 H   0  0  0  0  0  0
  -21.6636  -26.7459   22.1191 H   0  0  0  0  0  0
  -19.6916  -25.6299   21.1241 H   0  0  0  0  0  0
  -19.6690  -27.3199   20.6756 H   0  0  0  0  0  0
  -17.4194  -26.6689   21.4018 H   0  0  0  0  0  0
  -18.0313  -26.0070   22.9015 H   0  0  0  0  0  0
  -19.7933  -30.7261   24.2280 H   0  0  0  0  0  0
  -17.5013  -31.6271   24.5157 H   0  0  0  0  0  0
  -15.5350  -30.2985   23.7654 H   0  0  0  0  0  0
  -15.8668  -28.0820   22.7068 H   0  0  0  0  0  0
  -24.5921  -30.7026   25.7788 H   0  0  0  0  0  0
  -24.8894  -32.2834   26.4919 H   0  0  0  0  0  0
  -25.8066  -30.8858   27.0229 H   0  0  0  0  0  0
  -26.2886  -29.6782   24.1179 H   0  0  0  0  0  0
  -27.4115  -29.7287   25.4583 H   0  0  0  0  0  0
  -27.8711  -30.4372   23.9273 H   0  0  0  0  0  0
  -27.2718  -33.3627   26.2062 H   0  0  0  0  0  0
  -28.3873  -32.6848   25.0300 H   0  0  0  0  0  0
  -28.0732  -31.8429   26.5398 H   0  0  0  0  0  0
  -28.2598  -38.0104   24.7519 H   0  0  0  0  0  0
  -28.1075  -36.2631   24.6286 H   0  0  0  0  0  0
  -27.2289  -37.1452   25.8866 H   0  0  0  0  0  0
  -20.9359  -29.8759   21.6924 H   0  0  0  0  0  0
  -26.0187  -38.2865   24.1412 H   0  0  0  0  0  0
  -26.9500  -21.3779   19.3493 H   0  0  0  0  0  0
  -26.3085  -23.9298   19.9359 H   0  0  0  0  0  0
  -33.2718  -25.5227   19.9670 H   0  0  0  0  0  0
  -32.9469  -24.9626   21.5998 H   0  0  0  0  0  0
  -31.7870  -26.0041   20.7809 H   0  0  0  0  0  0
  -31.9941  -24.5924   17.9964 H   0  0  0  0  0  0
  -30.4341  -24.9989   18.6975 H   0  0  0  0  0  0
  -30.7844  -23.3416   18.2069 H   0  0  0  0  0  0
  -30.8050  -20.8860   19.6508 H   0  0  0  0  0  0
  -29.4216  -20.2252   18.8644 H   0  0  0  0  0  0
  -29.4544  -25.7165   21.5870 H   0  0  0  0  0  0
  -27.7470  -25.7014   21.8754 H   0  0  0  0  0  0
  -30.7061  -23.9716   21.9870 H   0  0  0  0  0  0
  -31.1486  -22.4021   21.4721 H   0  0  0  0  0  0
  -29.7777  -17.2180   22.2911 H   0  0  0  0  0  0
  -31.2963  -17.1068   21.4519 H   0  0  0  0  0  0
  -28.7161  -17.8668   19.9455 H   0  0  0  0  0  0
  -30.3659  -18.0681   19.4177 H   0  0  0  0  0  0
  -32.5456  -23.1782   19.9296 H   0  0  0  0  0  0
  -28.9372  -15.3178   21.2363 H   0  0  0  0  0  0
  -28.8537  -19.6403   21.3642 H   0  0  0  0  0  0
  -30.4715  -19.6480   21.4582 H   0  0  0  0  0  0
  1 25  1  0  0  0
  1 30  2  0  0  0
  1 84  1  0  0  0
  2  3  1  0  0  0
  2 25  1  0  0  0
  2 86  1  0  0  0
  2 87  1  0  0  0
  3  4  1  0  0  0
  3 88  1  0  0  0
  3 89  1  0  0  0
  4  5  1  0  0  0
  4 90  1  0  0  0
  4 91  1  0  0  0
  5  6  1  0  0  0
  5 26  1  0  0  0
  5 92  1  0  0  0
  6 25  1  0  0  0
  6 93  1  0  0  0
  6 94  1  0  0  0
  7  8  2  0  0  0
  7 26  1  0  0  0
  7 29  1  0  0  0
  8  9  1  0  0  0
  8 22  1  0  0  0
  9 10  1  0  0  0
  9 27  2  0  0  0
 10 11  2  0  0  0
 10 15  1  0  0  0
 11 12  1  0  0  0
 11 95  1  0  0  0
 12 13  2  0  0  0
 12 96  1  0  0  0
 13 14  1  0  0  0
 13 31  1  0  0  0
 14 15  2  0  0  0
 14 97  1  0  0  0
 15 98  1  0  0  0
 16 17  2  0  0  0
 16 21  1  0  0  0
 16 31  1  0  0  0
 17 18  1  0  0  0
 17 99  1  0  0  0
 18 19  2  0  0  0
 18100  1  0  0  0
 19 20  1  0  0  0
 19 24  1  0  0  0
 20 21  2  0  0  0
 20101  1  0  0  0
 21 23  1  0  0  0
 22 28  1  0  0  0
 22 32  2  0  0  0
 26 27  1  0  0  0
 28102  1  0  0  0
 28103  1  0  0  0
 29104  1  0  0  0
 29105  1  0  0  0
 33 34  1  0  0  0
 33 66  1  0  0  0
 33 70  2  0  0  0
 34 36  1  0  0  0
 34 59  1  0  0  0
 34106  1  0  0  0
 35 44  2  0  0  0
 35 45  1  0  0  0
 35 68  1  0  0  0
 36 56  1  0  0  0
 36107  1  0  0  0
 37 39  1  0  0  0
 37 47  1  0  0  0
 37 66  1  0  0  0
 37108  1  0  0  0
 38 43  2  0  0  0
 38 46  1  0  0  0
 38 47  1  0  0  0
 39 64  1  0  0  0
 39 67  2  0  0  0
 40 52  1  0  0  0
 40 53  2  0  0  0
 40 58  1  0  0  0
 41109  1  0  0  0
 41110  1  0  0  0
 41111  1  0  0  0
 41 48  1  0  0  0
 42 43  1  0  0  0
 42 66  1  0  0  0
 42112  1  0  0  0
 42113  1  0  0  0
 43 44  1  0  0  0
 44114  1  0  0  0
 45 46  2  0  0  0
 45115  1  0  0  0
 46116  1  0  0  0
 47117  1  0  0  0
 47118  1  0  0  0
 48 56  1  0  0  0
 48 65  1  0  0  0
 48119  1  0  0  0
 49 50  1  0  0  0
 49 53  1  0  0  0
 49 64  1  0  0  0
 49120  1  0  0  0
 50 51  1  0  0  0
 50121  1  0  0  0
 50122  1  0  0  0
 51 52  1  0  0  0
 51123  1  0  0  0
 51124  1  0  0  0
 52125  1  0  0  0
 52126  1  0  0  0
 53 54  1  0  0  0
 54 55  2  0  0  0
 54127  1  0  0  0
 55 57  1  0  0  0
 55128  1  0  0  0
 56 69  2  0  0  0
 57 58  2  0  0  0
 57129  1  0  0  0
 58130  1  0  0  0
 59 60  1  0  0  0
 59 61  1  0  0  0
 59 62  1  0  0  0
 60131  1  0  0  0
 60132  1  0  0  0
 60133  1  0  0  0
 61134  1  0  0  0
 61135  1  0  0  0
 61136  1  0  0  0
 62137  1  0  0  0
 62138  1  0  0  0
 62139  1  0  0  0
 63 65  1  0  0  0
 63140  1  0  0  0
 63141  1  0  0  0
 63142  1  0  0  0
 64143  1  0  0  0
 65144  1  0  0  0
 68 78  1  0  0  0
 71 72  1  0  0  0
 71 73  2  0  0  0
 71145  1  0  0  0
 72 74  2  0  0  0
 72146  1  0  0  0
 73 77  1  0  0  0
 73 83  1  0  0  0
 74 78  1  0  0  0
 74 83  1  0  0  0
 75147  1  0  0  0
 75148  1  0  0  0
 75149  1  0  0  0
 75 82  1  0  0  0
 76 82  1  0  0  0
 76150  1  0  0  0
 76151  1  0  0  0
 76152  1  0  0  0
 77 85  1  0  0  0
 77153  1  0  0  0
 77154  1  0  0  0
 78155  1  0  0  0
 78156  1  0  0  0
 79 82  1  0  0  0
 79 83  1  0  0  0
 79157  1  0  0  0
 79158  1  0  0  0
 80 81  1  0  0  0
 80 84  1  0  0  0
 80159  1  0  0  0
 80160  1  0  0  0
 81 85  1  0  0  0
 81161  1  0  0  0
 81162  1  0  0  0
 82163  1  0  0  0
 84164  1  0  0  0
 85165  1  0  0  0
 85166  1  0  0  0
M  CHG  1  85   1
M  ISO  4   1 100  68 101  78 101  84 100
M  END
> <chiral flag>
0

> <version>
0

> <s_m_source_file>
/data/baiqing/PycharmProjects/Reinvent-master-3.2/result/LINK_invent/BTK/process_docking_weight1_custom_sum_contain_oxygen_bond_distance_aromatic_linkinvent_7_9_3/rearranged_h_0124.sdf

> <i_m_source_file_index>
88

> <r_mmod_Potential_Energy-OPLS-2005>
-202.216766357422

> <r_mmod_Stretch_Energy-OPLS-2005>
57.8642272949219

> <r_mmod_Bend_Energy-OPLS-2005>
124.843269348145

> <r_mmod_Torsional_Energy-OPLS-2005>
258.639984130859

> <r_mmod_Improper_Torsional_Energy-OPLS-2005>
4.060950756073

> <r_mmod_Van_der_Waal_Energy-OPLS-2005>
114.066780090332

> <r_mmod_Electrostatic_Energy-OPLS-2005>
-307.854400634766

> <r_mmod_Solvation_Energy-OPLS-2005>
-481.269500732422

> <b_mmod_Minimization_Converged-OPLS-2005>
0

> <r_mmod_RMS_Derivative-OPLS-2005>
1.08920323848724

$$$$
88
                    3D
 Structure written by MMmdl.
156164  0  0  1  0            999 V2000
  -30.5699  -14.8287   20.4274 C   0  0  0  0  0  0
  -30.4356  -12.5065   19.4823 C   0  0  0  0  0  0
  -29.5139  -12.5186   18.2407 C   0  0  0  0  0  0
  -28.0418  -12.3296   18.6540 C   0  0  0  0  0  0
  -27.6367  -13.2378   19.8459 C   0  0  2  0  0  0
  -28.6810  -13.2061   20.9831 C   0  0  0  0  0  0
  -25.2492  -13.8206   20.5699 C   0  0  0  0  0  0
  -24.1795  -13.0442   20.9218 C   0  0  0  0  0  0
  -24.6396  -11.6926   20.8751 C   0  0  0  0  0  0
  -23.9081  -10.4299   21.0405 C   0  0  0  0  0  0
  -24.3632   -9.4215   21.9180 C   0  0  0  0  0  0
  -23.6307   -8.2250   22.0752 C   0  0  0  0  0  0
  -22.4286   -8.0286   21.3552 C   0  0  0  0  0  0
  -21.9920   -9.0256   20.4647 C   0  0  0  0  0  0
  -22.7248  -10.2137   20.3052 C   0  0  0  0  0  0
  -21.6858   -6.0745   22.5281 C   0  0  0  0  0  0
  -21.4011   -6.5645   23.8214 C   0  0  0  0  0  0
  -21.3658   -5.6795   24.9176 C   0  0  0  0  0  0
  -21.6048   -4.3058   24.7226 C   0  0  0  0  0  0
  -21.8821   -3.8154   23.4344 C   0  0  0  0  0  0
  -21.9190   -4.6973   22.3402 C   0  0  0  0  0  0
  -22.7816  -13.5220   21.1884 C   0  0  0  0  0  0
  -22.1665   -4.2155   21.0982 F   0  0  0  0  0  0
  -21.5629   -3.4544   25.7740 F   0  0  0  0  0  0
  -29.9732  -13.5814   20.3979 N   0  0  0  0  0  0
  -26.2913  -12.9416   20.3262 N   0  0  0  0  0  0
  -25.9322  -11.6561   20.5732 N   0  0  0  0  0  0
  -22.0472  -12.8190   22.0432 N   0  0  0  0  0  0
  -25.4172  -15.1936   20.4120 N   0  0  0  0  0  0
  -31.7579  -14.9284   20.1065 O   0  0  0  0  0  0
  -21.6649   -6.8884   21.4241 O   0  0  0  0  0  0
  -22.3499  -14.5533   20.6742 O   0  0  0  0  0  0
  -24.6362  -31.8495   23.1924 C   0  0  0  0  0  0
  -25.9162  -32.4718   23.8292 C   0  0  1  0  0  0
  -27.2236  -27.2045   20.1289 C   0  0  0  0  0  0
  -25.5930  -33.8524   24.2210 N   0  0  0  0  0  0
  -23.4360  -30.4712   21.5360 C   0  0  2  0  0  0
  -24.8840  -28.9065   20.1063 C   0  0  0  0  0  0
  -22.7522  -29.4581   22.4871 C   0  0  0  0  0  0
  -18.0298  -28.1399   22.8486 C   0  0  0  0  0  0
  -24.1493  -36.7270   23.2646 C   0  0  0  0  0  0
  -25.9870  -30.7435   21.3813 C   0  0  0  0  0  0
  -26.0565  -29.3615   20.7201 C   0  0  0  0  0  0
  -27.2226  -28.5222   20.7208 C   0  0  0  0  0  0
  -26.0202  -26.8256   19.4927 C   0  0  0  0  0  0
  -24.8735  -27.6488   19.4823 C   0  0  0  0  0  0
  -23.6576  -29.8014   20.1531 C   0  0  0  0  0  0
  -25.4124  -36.3049   24.0322 C   0  0  1  0  0  0
  -20.5906  -28.3724   23.1251 C   0  0  2  0  0  0
  -20.6787  -26.9430   22.5413 C   0  0  0  0  0  0
  -19.5766  -26.6387   21.5218 C   0  0  0  0  0  0
  -18.1944  -26.7940   22.1626 C   0  0  0  0  0  0
  -19.1552  -28.8880   23.2865 C   0  0  0  0  0  0
  -18.9467  -30.1476   23.8892 C   0  0  0  0  0  0
  -17.6464  -30.6599   24.0564 C   0  0  0  0  0  0
  -25.9066  -34.9418   23.5073 C   0  0  0  0  0  0
  -16.5356  -29.9097   23.6327 C   0  0  0  0  0  0
  -16.7282  -28.6513   23.0355 C   0  0  0  0  0  0
  -26.4512  -31.6566   25.0706 C   0  0  0  0  0  0
  -25.3707  -31.3734   26.1404 C   0  0  0  0  0  0
  -27.0373  -30.2972   24.6244 C   0  0  0  0  0  0
  -27.6053  -32.4325   25.7483 C   0  0  0  0  0  0
  -27.5578  -37.1795   24.8466 C   0  0  0  0  0  0
  -21.4221  -29.3052   22.3619 N   0  0  0  0  0  0
  -26.4296  -37.3753   23.9397 N   0  0  0  0  0  0
  -24.7058  -31.0409   22.0925 N   0  0  0  0  0  0
  -23.4197  -28.8126   23.2997 O   0  0  0  0  0  0
  -28.3199  -26.2954   20.2300 O   0  0  0  0  0  0
  -26.5656  -34.8911   22.4655 O   0  0  0  0  0  0
  -23.5495  -32.1344   23.7182 O   0  0  0  0  0  0
  -28.1652  -22.2759   19.0765 C   0  0  0  0  0  0
  -29.6059  -22.7776   20.9261 C   0  0  0  0  0  0
  -28.0894  -20.7427   19.5272 C   0  0  0  0  0  0
  -29.5299  -21.2309   21.3730 C   0  0  0  0  0  0
  -28.3624  -23.3927   20.1757 C   0  0  1  0  0  0
  -28.4266  -24.9337   19.5499 C   0  0  0  0  0  0
  -30.0354  -17.4590   20.1959 C   0  0  0  0  0  0
  -29.1217  -18.7028   20.7822 C   0  0  0  0  0  0
  -29.7753  -15.9724   20.5877 N   0  0  0  0  0  0
  -29.2677  -20.1954   20.2965 N   0  3  1  0  0  0
  -31.4728  -12.6460   19.1746 H   0  0  0  0  0  0
  -30.4015  -11.5359   19.9790 H   0  0  0  0  0  0
  -29.8080  -11.7359   17.5402 H   0  0  0  0  0  0
  -29.6253  -13.4639   17.7059 H   0  0  0  0  0  0
  -27.9087  -11.2815   18.9247 H   0  0  0  0  0  0
  -27.3838  -12.5090   17.8026 H   0  0  0  0  0  0
  -27.6180  -14.2533   19.4498 H   0  0  0  0  0  0
  -28.7357  -12.2167   21.4394 H   0  0  0  0  0  0
  -28.4020  -13.8974   21.7804 H   0  0  0  0  0  0
  -25.2778   -9.5691   22.4756 H   0  0  0  0  0  0
  -24.0021   -7.4639   22.7463 H   0  0  0  0  0  0
  -21.0857   -8.8777   19.8944 H   0  0  0  0  0  0
  -22.3708  -10.9682   19.6166 H   0  0  0  0  0  0
  -21.2004   -7.6152   23.9720 H   0  0  0  0  0  0
  -21.1478   -6.0526   25.9080 H   0  0  0  0  0  0
  -22.0598   -2.7616   23.2844 H   0  0  0  0  0  0
  -22.4111  -11.9837   22.4789 H   0  0  0  0  0  0
  -21.1088  -13.1188   22.2670 H   0  0  0  0  0  0
  -24.6436  -15.8409   20.5135 H   0  0  0  0  0  0
  -26.2503  -15.6289   20.0386 H   0  0  0  0  0  0
  -26.7225  -32.5346   23.1024 H   0  0  0  0  0  0
  -25.0028  -33.9642   25.0323 H   0  0  0  0  0  0
  -22.7361  -31.2962   21.3852 H   0  0  0  0  0  0
  -23.3755  -35.9601   23.3306 H   0  0  0  0  0  0
  -24.3579  -36.8902   22.2060 H   0  0  0  0  0  0
  -23.7247  -37.6469   23.6682 H   0  0  0  0  0  0
  -26.1367  -31.5044   20.6139 H   0  0  0  0  0  0
  -26.8605  -30.7891   22.0207 H   0  0  0  0  0  0
  -28.1175  -28.8640   21.2209 H   0  0  0  0  0  0
  -25.9172  -25.8550   19.0345 H   0  0  0  0  0  0
  -23.9717  -27.2916   19.0036 H   0  0  0  0  0  0
  -23.7867  -30.5780   19.3980 H   0  0  0  0  0  0
  -22.7741  -29.2393   19.8446 H   0  0  0  0  0  0
  -25.1314  -36.1891   25.0817 H   0  0  0  0  0  0
  -21.0008  -28.3322   24.1370 H   0  0  0  0  0  0
  -20.5679  -26.2338   23.3630 H   0  0  0  0  0  0
  -21.6657  -26.7442   22.1215 H   0  0  0  0  0  0
  -19.6927  -25.6293   21.1266 H   0  0  0  0  0  0
  -19.6707  -27.3187   20.6740 H   0  0  0  0  0  0
  -17.4212  -26.6687   21.4030 H   0  0  0  0  0  0
  -18.0343  -26.0087   22.9027 H   0  0  0  0  0  0
  -19.7941  -30.7295   24.2260 H   0  0  0  0  0  0
  -17.5016  -31.6276   24.5167 H   0  0  0  0  0  0
  -15.5358  -30.2992   23.7652 H   0  0  0  0  0  0
  -15.8685  -28.0824   22.7070 H   0  0  0  0  0  0
  -24.5897  -30.7074   25.7719 H   0  0  0  0  0  0
  -24.8879  -32.2901   26.4792 H   0  0  0  0  0  0
  -25.7992  -30.8929   27.0203 H   0  0  0  0  0  0
  -26.2971  -29.6693   24.1269 H   0  0  0  0  0  0
  -27.4027  -29.7273   25.4797 H   0  0  0  0  0  0
  -27.8862  -30.4233   23.9522 H   0  0  0  0  0  0
  -27.2659  -33.3642   26.2021 H   0  0  0  0  0  0
  -28.3879  -32.6854   25.0318 H   0  0  0  0  0  0
  -28.0700  -31.8471   26.5425 H   0  0  0  0  0  0
  -28.2598  -38.0091   24.7499 H   0  0  0  0  0  0
  -28.1074  -36.2614   24.6315 H   0  0  0  0  0  0
  -27.2288  -37.1468   25.8870 H   0  0  0  0  0  0
  -20.9413  -29.8762   21.6810 H   0  0  0  0  0  0
  -26.0169  -38.2829   24.1385 H   0  0  0  0  0  0
  -27.2559  -22.5043   18.5194 H   0  0  0  0  0  0
  -28.9702  -22.3698   18.3459 H   0  0  0  0  0  0
  -29.7932  -23.3780   21.8169 H   0  0  0  0  0  0
  -30.4905  -22.9113   20.3011 H   0  0  0  0  0  0
  -27.9423  -20.1212   18.6429 H   0  0  0  0  0  0
  -27.1921  -20.6115   20.1345 H   0  0  0  0  0  0
  -28.7469  -21.1365   22.1269 H   0  0  0  0  0  0
  -30.4590  -20.9626   21.8774 H   0  0  0  0  0  0
  -27.5029  -23.3510   20.8461 H   0  0  0  0  0  0
  -27.7572  -24.9437   18.6932 H   0  0  0  0  0  0
  -29.4019  -24.9868   19.0653 H   0  0  0  0  0  0
  -29.9606  -17.4956   19.1086 H   0  0  0  0  0  0
  -31.0823  -17.6743   20.4140 H   0  0  0  0  0  0
  -29.2704  -18.7078   21.8624 H   0  0  0  0  0  0
  -28.0750  -18.4256   20.6593 H   0  0  0  0  0  0
  -28.8247  -15.7686   20.8595 H   0  0  0  0  0  0
  -30.0647  -20.2173   19.6777 H   0  0  0  0  0  0
  1 25  1  0  0  0
  1 30  2  0  0  0
  1 79  1  0  0  0
  2  3  1  0  0  0
  2 25  1  0  0  0
  2 81  1  0  0  0
  2 82  1  0  0  0
  3  4  1  0  0  0
  3 83  1  0  0  0
  3 84  1  0  0  0
  4  5  1  0  0  0
  4 85  1  0  0  0
  4 86  1  0  0  0
  5  6  1  0  0  0
  5 26  1  0  0  0
  5 87  1  0  0  0
  6 25  1  0  0  0
  6 88  1  0  0  0
  6 89  1  0  0  0
  7  8  2  0  0  0
  7 26  1  0  0  0
  7 29  1  0  0  0
  8  9  1  0  0  0
  8 22  1  0  0  0
  9 10  1  0  0  0
  9 27  2  0  0  0
 10 11  2  0  0  0
 10 15  1  0  0  0
 11 12  1  0  0  0
 11 90  1  0  0  0
 12 13  2  0  0  0
 12 91  1  0  0  0
 13 14  1  0  0  0
 13 31  1  0  0  0
 14 15  2  0  0  0
 14 92  1  0  0  0
 15 93  1  0  0  0
 16 17  2  0  0  0
 16 21  1  0  0  0
 16 31  1  0  0  0
 17 18  1  0  0  0
 17 94  1  0  0  0
 18 19  2  0  0  0
 18 95  1  0  0  0
 19 20  1  0  0  0
 19 24  1  0  0  0
 20 21  2  0  0  0
 20 96  1  0  0  0
 21 23  1  0  0  0
 22 28  1  0  0  0
 22 32  2  0  0  0
 26 27  1  0  0  0
 28 97  1  0  0  0
 28 98  1  0  0  0
 29 99  1  0  0  0
 29100  1  0  0  0
 33 34  1  0  0  0
 33 66  1  0  0  0
 33 70  2  0  0  0
 34 36  1  0  0  0
 34 59  1  0  0  0
 34101  1  0  0  0
 35 44  2  0  0  0
 35 45  1  0  0  0
 35 68  1  0  0  0
 36 56  1  0  0  0
 36102  1  0  0  0
 37 39  1  0  0  0
 37 47  1  0  0  0
 37 66  1  0  0  0
 37103  1  0  0  0
 38 43  2  0  0  0
 38 46  1  0  0  0
 38 47  1  0  0  0
 39 64  1  0  0  0
 39 67  2  0  0  0
 40 52  1  0  0  0
 40 53  2  0  0  0
 40 58  1  0  0  0
 41104  1  0  0  0
 41105  1  0  0  0
 41106  1  0  0  0
 41 48  1  0  0  0
 42 43  1  0  0  0
 42 66  1  0  0  0
 42107  1  0  0  0
 42108  1  0  0  0
 43 44  1  0  0  0
 44109  1  0  0  0
 45 46  2  0  0  0
 45110  1  0  0  0
 46111  1  0  0  0
 47112  1  0  0  0
 47113  1  0  0  0
 48 56  1  0  0  0
 48 65  1  0  0  0
 48114  1  0  0  0
 49 50  1  0  0  0
 49 53  1  0  0  0
 49 64  1  0  0  0
 49115  1  0  0  0
 50 51  1  0  0  0
 50116  1  0  0  0
 50117  1  0  0  0
 51 52  1  0  0  0
 51118  1  0  0  0
 51119  1  0  0  0
 52120  1  0  0  0
 52121  1  0  0  0
 53 54  1  0  0  0
 54 55  2  0  0  0
 54122  1  0  0  0
 55 57  1  0  0  0
 55123  1  0  0  0
 56 69  2  0  0  0
 57 58  2  0  0  0
 57124  1  0  0  0
 58125  1  0  0  0
 59 60  1  0  0  0
 59 61  1  0  0  0
 59 62  1  0  0  0
 60126  1  0  0  0
 60127  1  0  0  0
 60128  1  0  0  0
 61129  1  0  0  0
 61130  1  0  0  0
 61131  1  0  0  0
 62132  1  0  0  0
 62133  1  0  0  0
 62134  1  0  0  0
 63 65  1  0  0  0
 63135  1  0  0  0
 63136  1  0  0  0
 63137  1  0  0  0
 64138  1  0  0  0
 65139  1  0  0  0
 68 76  1  0  0  0
 71 73  1  0  0  0
 71 75  1  0  0  0
 71140  1  0  0  0
 71141  1  0  0  0
 72 74  1  0  0  0
 72 75  1  0  0  0
 72142  1  0  0  0
 72143  1  0  0  0
 73 80  1  0  0  0
 73144  1  0  0  0
 73145  1  0  0  0
 74 80  1  0  0  0
 74146  1  0  0  0
 74147  1  0  0  0
 75 76  1  0  0  0
 75148  1  0  0  0
 76149  1  0  0  0
 76150  1  0  0  0
 77 78  1  0  0  0
 77 79  1  0  0  0
 77151  1  0  0  0
 77152  1  0  0  0
 78153  1  0  0  0
 78154  1  0  0  0
 78 80  1  0  0  0
 79155  1  0  0  0
 80156  1  0  0  0
M  CHG  1  80   1
M  ISO  4   1 100  68 101  76 101  79 100
M  END
> <chiral flag>
0

> <version>
0

> <s_m_source_file>
/data/baiqing/PycharmProjects/Reinvent-master-3.2/result/LINK_invent/BTK/process_docking_weight1_custom_sum_contain_oxygen_bond_distance_aromatic_linkinvent_7_9_3/rearranged_h_0124.sdf

> <i_m_source_file_index>
89

> <r_mmod_Potential_Energy-OPLS-2005>
182.693588256836

> <r_mmod_Stretch_Energy-OPLS-2005>
173.061553955078

> <r_mmod_Bend_Energy-OPLS-2005>
237.530212402344

> <r_mmod_Torsional_Energy-OPLS-2005>
243.002227783203

> <r_mmod_Improper_Torsional_Energy-OPLS-2005>
5.84979867935181

> <r_mmod_Van_der_Waal_Energy-OPLS-2005>
121.615310668945

> <r_mmod_Electrostatic_Energy-OPLS-2005>
-251.840560913086

> <r_mmod_Solvation_Energy-OPLS-2005>
-471.097808837891

> <b_mmod_Minimization_Converged-OPLS-2005>
0

> <r_mmod_RMS_Derivative-OPLS-2005>
1.62661218643188

$$$$
89
                    3D
 Structure written by MMmdl.
172182  0  0  1  0            999 V2000
  -30.6215  -14.7078   20.4508 C   0  0  0  0  0  0
  -30.4249  -12.4249   19.4703 C   0  0  0  0  0  0
  -29.5070  -12.5068   18.2320 C   0  0  0  0  0  0
  -28.0312  -12.3465   18.6461 C   0  0  0  0  0  0
  -27.6447  -13.2366   19.8589 C   0  0  2  0  0  0
  -28.6922  -13.1419   20.9921 C   0  0  0  0  0  0
  -25.2498  -13.8212   20.5719 C   0  0  0  0  0  0
  -24.1793  -13.0435   20.9220 C   0  0  0  0  0  0
  -24.6394  -11.6917   20.8743 C   0  0  0  0  0  0
  -23.9074  -10.4281   21.0403 C   0  0  0  0  0  0
  -24.3613   -9.4199   21.9188 C   0  0  0  0  0  0
  -23.6291   -8.2231   22.0759 C   0  0  0  0  0  0
  -22.4274   -8.0266   21.3546 C   0  0  0  0  0  0
  -21.9910   -9.0242   20.4651 C   0  0  0  0  0  0
  -22.7235  -10.2124   20.3065 C   0  0  0  0  0  0
  -21.6863   -6.0719   22.5281 C   0  0  0  0  0  0
  -21.4014   -6.5633   23.8198 C   0  0  0  0  0  0
  -21.3661   -5.6795   24.9174 C   0  0  0  0  0  0
  -21.6057   -4.3055   24.7222 C   0  0  0  0  0  0
  -21.8826   -3.8145   23.4351 C   0  0  0  0  0  0
  -21.9192   -4.6951   22.3406 C   0  0  0  0  0  0
  -22.7801  -13.5187   21.1900 C   0  0  0  0  0  0
  -22.1651   -4.2154   21.0987 F   0  0  0  0  0  0
  -21.5638   -3.4544   25.7738 F   0  0  0  0  0  0
  -29.9970  -13.4833   20.4130 N   0  0  0  0  0  0
  -26.2951  -12.9447   20.3326 N   0  0  0  0  0  0
  -25.9330  -11.6561   20.5752 N   0  0  0  0  0  0
  -22.0476  -12.8138   22.0457 N   0  0  0  0  0  0
  -25.4168  -15.1925   20.4036 N   0  0  0  0  0  0
  -31.7969  -14.8093   20.0881 O   0  0  0  0  0  0
  -21.6651   -6.8853   21.4234 O   0  0  0  0  0  0
  -22.3491  -14.5476   20.6740 O   0  0  0  0  0  0
  -24.6270  -31.8579   23.1979 C   0  0  0  0  0  0
  -25.9105  -32.4769   23.8331 C   0  0  1  0  0  0
  -27.2247  -27.3176   20.1246 C   0  0  0  0  0  0
  -25.5920  -33.8576   24.2288 N   0  0  0  0  0  0
  -23.4195  -30.4804   21.5396 C   0  0  2  0  0  0
  -24.8682  -28.9305   20.1097 C   0  0  0  0  0  0
  -22.7475  -29.4625   22.4914 C   0  0  0  0  0  0
  -18.0299  -28.1365   22.8461 C   0  0  0  0  0  0
  -24.1480  -36.7299   23.2637 C   0  0  0  0  0  0
  -25.9588  -30.7895   21.3642 C   0  0  0  0  0  0
  -26.0351  -29.4138   20.7158 C   0  0  0  0  0  0
  -27.2201  -28.6197   20.7124 C   0  0  0  0  0  0
  -26.0400  -26.8807   19.4963 C   0  0  0  0  0  0
  -24.8730  -27.6704   19.4885 C   0  0  0  0  0  0
  -23.6344  -29.8120   20.1552 C   0  0  0  0  0  0
  -25.4100  -36.3096   24.0351 C   0  0  1  0  0  0
  -20.5888  -28.3693   23.1252 C   0  0  2  0  0  0
  -20.6793  -26.9411   22.5393 C   0  0  0  0  0  0
  -19.5774  -26.6365   21.5196 C   0  0  0  0  0  0
  -18.1949  -26.7903   22.1600 C   0  0  0  0  0  0
  -19.1542  -28.8843   23.2852 C   0  0  0  0  0  0
  -18.9467  -30.1442   23.8884 C   0  0  0  0  0  0
  -17.6468  -30.6565   24.0568 C   0  0  0  0  0  0
  -25.9033  -34.9467   23.5126 C   0  0  0  0  0  0
  -16.5365  -29.9073   23.6315 C   0  0  0  0  0  0
  -16.7287  -28.6489   23.0329 C   0  0  0  0  0  0
  -26.4512  -31.6551   25.0686 C   0  0  0  0  0  0
  -25.3772  -31.3648   26.1431 C   0  0  0  0  0  0
  -27.0358  -30.2989   24.6083 C   0  0  0  0  0  0
  -27.6072  -32.4274   25.7478 C   0  0  0  0  0  0
  -27.5578  -37.1807   24.8473 C   0  0  0  0  0  0
  -21.4192  -29.3047   22.3669 N   0  0  0  0  0  0
  -26.4284  -37.3782   23.9413 N   0  0  0  0  0  0
  -24.6877  -31.0586   22.0924 N   0  0  0  0  0  0
  -23.4204  -28.8161   23.2988 O   0  0  0  0  0  0
  -28.3324  -26.4612   20.1479 O   0  0  0  0  0  0
  -26.5600  -34.8961   22.4695 O   0  0  0  0  0  0
  -23.5427  -32.1380   23.7294 O   0  0  0  0  0  0
  -26.9865  -21.1196   16.9035 C   0  0  0  0  0  0
  -32.0896  -19.6685   21.4014 C   0  0  0  0  0  0
  -27.8638  -20.1152   17.6559 C   0  0  0  0  0  0
  -27.1874  -22.0856   18.0743 C   0  0  0  0  0  0
  -31.1649  -20.6941   20.7315 C   0  0  0  0  0  0
  -29.3031  -24.7088   21.4244 C   0  0  0  0  0  0
  -31.3638  -18.8067   22.4623 C   0  0  0  0  0  0
  -28.9332  -23.7697   20.2969 C   0  0  2  0  0  0
  -28.4312  -21.2726   18.4910 C   0  0  0  0  0  0
  -29.9030  -20.0324   20.1057 C   0  0  1  0  0  0
  -28.0875  -25.0768   20.6200 C   0  0  2  0  0  0
  -29.5391  -18.5878   20.7685 C   0  0  1  0  0  0
  -28.5627  -22.2940   20.7537 C   0  0  0  0  0  0
  -30.1274  -17.2380   20.0872 C   0  0  0  0  0  0
  -29.8577  -15.8425   20.6554 N   0  0  0  0  0  0
  -28.8119  -21.0703   19.9048 N   0  0  0  0  0  0
  -29.9123  -18.6344   22.1968 N   0  3  0  0  0  0
  -31.4699  -12.5248   19.1724 H   0  0  0  0  0  0
  -30.3427  -11.4402   19.9342 H   0  0  0  0  0  0
  -29.7732  -11.7387   17.5046 H   0  0  0  0  0  0
  -29.6521  -13.4669   17.7329 H   0  0  0  0  0  0
  -27.8768  -11.2946   18.8978 H   0  0  0  0  0  0
  -27.3780  -12.5598   17.7999 H   0  0  0  0  0  0
  -27.6433  -14.2644   19.4925 H   0  0  0  0  0  0
  -28.7155  -12.1334   21.4021 H   0  0  0  0  0  0
  -28.4446  -13.8062   21.8224 H   0  0  0  0  0  0
  -25.2770   -9.5669   22.4766 H   0  0  0  0  0  0
  -24.0013   -7.4625   22.7461 H   0  0  0  0  0  0
  -21.0878   -8.8746   19.8939 H   0  0  0  0  0  0
  -22.3708  -10.9658   19.6166 H   0  0  0  0  0  0
  -21.1993   -7.6140   23.9692 H   0  0  0  0  0  0
  -21.1486   -6.0538   25.9070 H   0  0  0  0  0  0
  -22.0598   -2.7605   23.2863 H   0  0  0  0  0  0
  -22.4088  -11.9757   22.4821 H   0  0  0  0  0  0
  -21.1073  -13.1129   22.2637 H   0  0  0  0  0  0
  -24.6407  -15.8425   20.4843 H   0  0  0  0  0  0
  -26.2527  -15.6221   20.0297 H   0  0  0  0  0  0
  -26.7190  -32.5443   23.1090 H   0  0  0  0  0  0
  -25.0151  -33.9747   25.0490 H   0  0  0  0  0  0
  -22.7118  -31.2995   21.3941 H   0  0  0  0  0  0
  -23.3768  -35.9596   23.3266 H   0  0  0  0  0  0
  -24.3556  -36.8948   22.2051 H   0  0  0  0  0  0
  -23.7225  -37.6498   23.6661 H   0  0  0  0  0  0
  -26.0793  -31.5428   20.5841 H   0  0  0  0  0  0
  -26.8455  -30.8455   21.9846 H   0  0  0  0  0  0
  -28.1151  -28.9839   21.1968 H   0  0  0  0  0  0
  -26.0127  -25.9129   19.0136 H   0  0  0  0  0  0
  -23.9836  -27.2989   19.0009 H   0  0  0  0  0  0
  -23.7504  -30.5885   19.3976 H   0  0  0  0  0  0
  -22.7551  -29.2397   19.8543 H   0  0  0  0  0  0
  -25.1274  -36.1959   25.0841 H   0  0  0  0  0  0
  -20.9976  -28.3262   24.1369 H   0  0  0  0  0  0
  -20.5654  -26.2309   23.3596 H   0  0  0  0  0  0
  -21.6667  -26.7421   22.1201 H   0  0  0  0  0  0
  -19.6942  -25.6272   21.1229 H   0  0  0  0  0  0
  -19.6714  -27.3183   20.6733 H   0  0  0  0  0  0
  -17.4216  -26.6650   21.4005 H   0  0  0  0  0  0
  -18.0360  -26.0047   22.9000 H   0  0  0  0  0  0
  -19.7957  -30.7258   24.2229 H   0  0  0  0  0  0
  -17.5040  -31.6240   24.5183 H   0  0  0  0  0  0
  -15.5365  -30.2988   23.7631 H   0  0  0  0  0  0
  -15.8692  -28.0827   22.7024 H   0  0  0  0  0  0
  -24.5975  -30.6957   25.7772 H   0  0  0  0  0  0
  -24.8950  -32.2799   26.4869 H   0  0  0  0  0  0
  -25.8147  -30.8842   27.0192 H   0  0  0  0  0  0
  -26.2909  -29.6712   24.1177 H   0  0  0  0  0  0
  -27.4192  -29.7244   25.4524 H   0  0  0  0  0  0
  -27.8715  -30.4311   23.9206 H   0  0  0  0  0  0
  -27.2693  -33.3600   26.2002 H   0  0  0  0  0  0
  -28.3931  -32.6764   25.0336 H   0  0  0  0  0  0
  -28.0672  -31.8417   26.5445 H   0  0  0  0  0  0
  -28.2591  -38.0108   24.7519 H   0  0  0  0  0  0
  -28.1090  -36.2645   24.6294 H   0  0  0  0  0  0
  -27.2295  -37.1467   25.8878 H   0  0  0  0  0  0
  -20.9362  -29.8806   21.6926 H   0  0  0  0  0  0
  -26.0181  -38.2865   24.1394 H   0  0  0  0  0  0
  -25.9549  -20.7955   16.7529 H   0  0  0  0  0  0
  -27.4365  -21.4659   15.9723 H   0  0  0  0  0  0
  -32.9355  -20.1743   21.8697 H   0  0  0  0  0  0
  -32.5282  -19.0289   20.6352 H   0  0  0  0  0  0
  -28.5964  -19.6001   17.0318 H   0  0  0  0  0  0
  -27.2754  -19.4101   18.2460 H   0  0  0  0  0  0
  -26.3662  -22.0447   18.7930 H   0  0  0  0  0  0
  -27.3943  -23.1129   17.7671 H   0  0  0  0  0  0
  -31.7090  -21.2468   19.9630 H   0  0  0  0  0  0
  -30.9178  -21.4252   21.4973 H   0  0  0  0  0  0
  -30.2163  -25.2861   21.2904 H   0  0  0  0  0  0
  -29.1152  -24.3927   22.4488 H   0  0  0  0  0  0
  -31.4748  -19.2440   23.4566 H   0  0  0  0  0  0
  -31.8468  -17.8292   22.5067 H   0  0  0  0  0  0
  -29.5451  -23.8265   19.3998 H   0  0  0  0  0  0
  -29.3039  -21.6911   17.9847 H   0  0  0  0  0  0
  -30.2156  -19.7530   19.0983 H   0  0  0  0  0  0
  -27.1220  -24.9510   21.1096 H   0  0  0  0  0  0
  -28.4524  -18.4938   20.7419 H   0  0  0  0  0  0
  -27.4853  -22.3089   20.9198 H   0  0  0  0  0  0
  -28.9523  -22.1250   21.7553 H   0  0  0  0  0  0
  -31.2041  -17.3447   19.9759 H   0  0  0  0  0  0
  -29.7562  -17.2183   19.0639 H   0  0  0  0  0  0
  -28.9116  -15.6703   20.9654 H   0  0  0  0  0  0
  -29.4378  -19.4290   22.5950 H   0  0  0  0  0  0
  -29.5760  -17.8143   22.6727 H   0  0  0  0  0  0
  1 25  1  0  0  0
  1 30  2  0  0  0
  1 85  1  0  0  0
  2  3  1  0  0  0
  2 25  1  0  0  0
  2 88  1  0  0  0
  2 89  1  0  0  0
  3  4  1  0  0  0
  3 90  1  0  0  0
  3 91  1  0  0  0
  4  5  1  0  0  0
  4 92  1  0  0  0
  4 93  1  0  0  0
  5  6  1  0  0  0
  5 26  1  0  0  0
  5 94  1  0  0  0
  6 25  1  0  0  0
  6 95  1  0  0  0
  6 96  1  0  0  0
  7  8  2  0  0  0
  7 26  1  0  0  0
  7 29  1  0  0  0
  8  9  1  0  0  0
  8 22  1  0  0  0
  9 10  1  0  0  0
  9 27  2  0  0  0
 10 11  2  0  0  0
 10 15  1  0  0  0
 11 12  1  0  0  0
 11 97  1  0  0  0
 12 13  2  0  0  0
 12 98  1  0  0  0
 13 14  1  0  0  0
 13 31  1  0  0  0
 14 15  2  0  0  0
 14 99  1  0  0  0
 15100  1  0  0  0
 16 17  2  0  0  0
 16 21  1  0  0  0
 16 31  1  0  0  0
 17 18  1  0  0  0
 17101  1  0  0  0
 18 19  2  0  0  0
 18102  1  0  0  0
 19 20  1  0  0  0
 19 24  1  0  0  0
 20 21  2  0  0  0
 20103  1  0  0  0
 21 23  1  0  0  0
 22 28  1  0  0  0
 22 32  2  0  0  0
 26 27  1  0  0  0
 28104  1  0  0  0
 28105  1  0  0  0
 29106  1  0  0  0
 29107  1  0  0  0
 33 34  1  0  0  0
 33 66  1  0  0  0
 33 70  2  0  0  0
 34 36  1  0  0  0
 34 59  1  0  0  0
 34108  1  0  0  0
 35 44  2  0  0  0
 35 45  1  0  0  0
 35 68  1  0  0  0
 36 56  1  0  0  0
 36109  1  0  0  0
 37 39  1  0  0  0
 37 47  1  0  0  0
 37 66  1  0  0  0
 37110  1  0  0  0
 38 43  2  0  0  0
 38 46  1  0  0  0
 38 47  1  0  0  0
 39 64  1  0  0  0
 39 67  2  0  0  0
 40 52  1  0  0  0
 40 53  2  0  0  0
 40 58  1  0  0  0
 41111  1  0  0  0
 41112  1  0  0  0
 41113  1  0  0  0
 41 48  1  0  0  0
 42 43  1  0  0  0
 42 66  1  0  0  0
 42114  1  0  0  0
 42115  1  0  0  0
 43 44  1  0  0  0
 44116  1  0  0  0
 45 46  2  0  0  0
 45117  1  0  0  0
 46118  1  0  0  0
 47119  1  0  0  0
 47120  1  0  0  0
 48 56  1  0  0  0
 48 65  1  0  0  0
 48121  1  0  0  0
 49 50  1  0  0  0
 49 53  1  0  0  0
 49 64  1  0  0  0
 49122  1  0  0  0
 50 51  1  0  0  0
 50123  1  0  0  0
 50124  1  0  0  0
 51 52  1  0  0  0
 51125  1  0  0  0
 51126  1  0  0  0
 52127  1  0  0  0
 52128  1  0  0  0
 53 54  1  0  0  0
 54 55  2  0  0  0
 54129  1  0  0  0
 55 57  1  0  0  0
 55130  1  0  0  0
 56 69  2  0  0  0
 57 58  2  0  0  0
 57131  1  0  0  0
 58132  1  0  0  0
 59 60  1  0  0  0
 59 61  1  0  0  0
 59 62  1  0  0  0
 60133  1  0  0  0
 60134  1  0  0  0
 60135  1  0  0  0
 61136  1  0  0  0
 61137  1  0  0  0
 61138  1  0  0  0
 62139  1  0  0  0
 62140  1  0  0  0
 62141  1  0  0  0
 63 65  1  0  0  0
 63142  1  0  0  0
 63143  1  0  0  0
 63144  1  0  0  0
 64145  1  0  0  0
 65146  1  0  0  0
 68 81  1  0  0  0
 71 73  1  0  0  0
 71 74  1  0  0  0
 71147  1  0  0  0
 71148  1  0  0  0
 72 75  1  0  0  0
 72 77  1  0  0  0
 72149  1  0  0  0
 72150  1  0  0  0
 73 79  1  0  0  0
 73151  1  0  0  0
 73152  1  0  0  0
 74 79  1  0  0  0
 74153  1  0  0  0
 74154  1  0  0  0
 75 80  1  0  0  0
 75155  1  0  0  0
 75156  1  0  0  0
 76 78  1  0  0  0
 76 81  1  0  0  0
 76157  1  0  0  0
 76158  1  0  0  0
 77 87  1  0  0  0
 77159  1  0  0  0
 77160  1  0  0  0
 78 81  1  0  0  0
 78 83  1  0  0  0
 78161  1  0  0  0
 79 86  1  0  0  0
 79162  1  0  0  0
 80 82  1  0  0  0
 80 86  1  0  0  0
 80163  1  0  0  0
 81164  1  0  0  0
 82 84  1  0  0  0
 82 87  1  0  0  0
 82165  1  0  0  0
 83 86  1  0  0  0
 83166  1  0  0  0
 83167  1  0  0  0
 84 85  1  0  0  0
 84168  1  0  0  0
 84169  1  0  0  0
 85170  1  0  0  0
 87171  1  0  0  0
 87172  1  0  0  0
M  CHG  1  87   1
M  ISO  4   1 100  68 101  81 101  85 100
M  END
> <chiral flag>
0

> <version>
0

> <s_m_source_file>
/data/baiqing/PycharmProjects/Reinvent-master-3.2/result/LINK_invent/BTK/process_docking_weight1_custom_sum_contain_oxygen_bond_distance_aromatic_linkinvent_7_9_3/rearranged_h_0124.sdf

> <i_m_source_file_index>
90

> <r_mmod_Potential_Energy-OPLS-2005>
116.961898803711

> <r_mmod_Stretch_Energy-OPLS-2005>
111.825721740723

> <r_mmod_Bend_Energy-OPLS-2005>
220.074615478516

> <r_mmod_Torsional_Energy-OPLS-2005>
402.720458984375

> <r_mmod_Improper_Torsional_Energy-OPLS-2005>
6.79648876190186

> <r_mmod_Van_der_Waal_Energy-OPLS-2005>
122.964385986328

> <r_mmod_Electrostatic_Energy-OPLS-2005>
-341.211029052734

> <r_mmod_Solvation_Energy-OPLS-2005>
-468.578765869141

> <b_mmod_Minimization_Converged-OPLS-2005>
0

> <r_mmod_RMS_Derivative-OPLS-2005>
4.46065998077393

$$$$
90
                    3D
 Structure written by MMmdl.
166174  0  0  1  0            999 V2000
  -30.6670  -14.5697   20.5360 C   0  0  0  0  0  0
  -30.4368  -12.3606   19.4449 C   0  0  0  0  0  0
  -29.5067  -12.5034   18.2207 C   0  0  0  0  0  0
  -28.0290  -12.3485   18.6327 C   0  0  0  0  0  0
  -27.6596  -13.2106   19.8693 C   0  0  2  0  0  0
  -28.7030  -13.0477   20.9977 C   0  0  0  0  0  0
  -25.2576  -13.8163   20.5665 C   0  0  0  0  0  0
  -24.1838  -13.0446   20.9185 C   0  0  0  0  0  0
  -24.6402  -11.6910   20.8732 C   0  0  0  0  0  0
  -23.9067  -10.4297   21.0391 C   0  0  0  0  0  0
  -24.3616   -9.4216   21.9170 C   0  0  0  0  0  0
  -23.6296   -8.2248   22.0746 C   0  0  0  0  0  0
  -22.4270   -8.0283   21.3545 C   0  0  0  0  0  0
  -21.9912   -9.0253   20.4640 C   0  0  0  0  0  0
  -22.7236  -10.2134   20.3048 C   0  0  0  0  0  0
  -21.6851   -6.0735   22.5270 C   0  0  0  0  0  0
  -21.4013   -6.5636   23.8206 C   0  0  0  0  0  0
  -21.3667   -5.6788   24.9168 C   0  0  0  0  0  0
  -21.6044   -4.3051   24.7215 C   0  0  0  0  0  0
  -21.8829   -3.8148   23.4337 C   0  0  0  0  0  0
  -21.9198   -4.6966   22.3394 C   0  0  0  0  0  0
  -22.7859  -13.5240   21.1855 C   0  0  0  0  0  0
  -22.1661   -4.2155   21.0973 F   0  0  0  0  0  0
  -21.5640   -3.4535   25.7730 F   0  0  0  0  0  0
  -30.0254  -13.3678   20.4384 N   0  0  0  0  0  0
  -26.3025  -12.9342   20.3349 N   0  0  0  0  0  0
  -25.9336  -11.6504   20.5763 N   0  0  0  0  0  0
  -22.0506  -12.8217   22.0398 N   0  0  0  0  0  0
  -25.4309  -15.1879   20.4039 N   0  0  0  0  0  0
  -31.8096  -14.7404   20.1033 O   0  0  0  0  0  0
  -21.6645   -6.8872   21.4229 O   0  0  0  0  0  0
  -22.3546  -14.5554   20.6705 O   0  0  0  0  0  0
  -24.6192  -31.8644   23.2040 C   0  0  0  0  0  0
  -25.9056  -32.4799   23.8361 C   0  0  1  0  0  0
  -27.2255  -27.3800   20.1108 C   0  0  0  0  0  0
  -25.5896  -33.8595   24.2292 N   0  0  0  0  0  0
  -23.4104  -30.4866   21.5449 C   0  0  2  0  0  0
  -24.8561  -28.9434   20.1103 C   0  0  0  0  0  0
  -22.7443  -29.4653   22.4947 C   0  0  0  0  0  0
  -18.0278  -28.1375   22.8489 C   0  0  0  0  0  0
  -24.1508  -36.7320   23.2636 C   0  0  0  0  0  0
  -25.9442  -30.8133   21.3630 C   0  0  0  0  0  0
  -26.0190  -29.4453   20.7082 C   0  0  0  0  0  0
  -27.2092  -28.6739   20.6976 C   0  0  0  0  0  0
  -26.0475  -26.9050   19.5008 C   0  0  0  0  0  0
  -24.8698  -27.6784   19.4979 C   0  0  0  0  0  0
  -23.6209  -29.8158   20.1619 C   0  0  0  0  0  0
  -25.4112  -36.3087   24.0327 C   0  0  1  0  0  0
  -20.5869  -28.3671   23.1316 C   0  0  2  0  0  0
  -20.6770  -26.9400   22.5428 C   0  0  0  0  0  0
  -19.5752  -26.6374   21.5225 C   0  0  0  0  0  0
  -18.1912  -26.7917   22.1612 C   0  0  0  0  0  0
  -19.1514  -28.8826   23.2906 C   0  0  0  0  0  0
  -18.9456  -30.1428   23.8918 C   0  0  0  0  0  0
  -17.6456  -30.6579   24.0557 C   0  0  0  0  0  0
  -25.9048  -34.9456   23.5111 C   0  0  0  0  0  0
  -16.5352  -29.9069   23.6339 C   0  0  0  0  0  0
  -16.7262  -28.6493   23.0354 C   0  0  0  0  0  0
  -26.4455  -31.6587   25.0722 C   0  0  0  0  0  0
  -25.3692  -31.3670   26.1454 C   0  0  0  0  0  0
  -27.0279  -30.3021   24.6107 C   0  0  0  0  0  0
  -27.6044  -32.4295   25.7443 C   0  0  0  0  0  0
  -27.5570  -37.1800   24.8455 C   0  0  0  0  0  0
  -21.4155  -29.3052   22.3715 N   0  0  0  0  0  0
  -26.4290  -37.3774   23.9397 N   0  0  0  0  0  0
  -24.6765  -31.0710   22.0948 N   0  0  0  0  0  0
  -23.4184  -28.8188   23.3001 O   0  0  0  0  0  0
  -28.3723  -26.6008   20.1118 O   0  0  0  0  0  0
  -26.5640  -34.8926   22.4704 O   0  0  0  0  0  0
  -23.5375  -32.1396   23.7428 O   0  0  0  0  0  0
  -28.6148  -22.6815   20.4392 C   0  0  0  0  0  0
  -27.9978  -23.9055   18.6947 C   0  0  0  0  0  0
  -28.3389  -24.0292   20.0086 C   0  0  0  0  0  0
  -28.4256  -21.7789   19.4088 C   0  0  0  0  0  0
  -27.4280  -25.2804   22.0449 C   0  0  0  0  0  0
  -28.1844  -23.0843   15.8586 C   0  0  0  0  0  0
  -26.1767  -21.8905   16.8816 C   0  0  0  0  0  0
  -28.4423  -20.2275   19.3552 C   0  0  0  0  0  0
  -30.2386  -17.0732   20.9428 C   0  0  0  0  0  0
  -29.1608  -17.9607   20.2160 C   0  0  0  0  0  0
  -28.3936  -25.3297   20.8403 C   0  0  2  0  0  0
  -27.6948  -22.1170   16.9582 C   0  0  0  0  0  0
  -28.0632  -22.5700   18.3052 N   0  0  0  0  0  0
  -29.9157  -15.6145   20.9674 N   0  0  0  0  0  0
  -29.3718  -19.4536   20.2475 N   0  3  0  0  0  0
  -31.4794  -12.4781   19.1416 H   0  0  0  0  0  0
  -30.3643  -11.3608   19.8751 H   0  0  0  0  0  0
  -29.7652  -11.7564   17.4693 H   0  0  0  0  0  0
  -29.6591  -13.4774   17.7501 H   0  0  0  0  0  0
  -27.8566  -11.2937   18.8516 H   0  0  0  0  0  0
  -27.3780  -12.5966   17.7931 H   0  0  0  0  0  0
  -27.6863  -14.2503   19.5424 H   0  0  0  0  0  0
  -28.7003  -12.0264   21.3817 H   0  0  0  0  0  0
  -28.4548  -13.6809   21.8507 H   0  0  0  0  0  0
  -25.2766   -9.5693   22.4741 H   0  0  0  0  0  0
  -24.0015   -7.4636   22.7459 H   0  0  0  0  0  0
  -21.0856   -8.8774   19.8930 H   0  0  0  0  0  0
  -22.3704  -10.9674   19.6159 H   0  0  0  0  0  0
  -21.1996   -7.6141   23.9710 H   0  0  0  0  0  0
  -21.1478   -6.0513   25.9070 H   0  0  0  0  0  0
  -22.0605   -2.7610   23.2833 H   0  0  0  0  0  0
  -22.4126  -11.9874   22.4776 H   0  0  0  0  0  0
  -21.1124  -13.1223   22.2608 H   0  0  0  0  0  0
  -24.6592  -15.8412   20.4881 H   0  0  0  0  0  0
  -26.2758  -15.6170   20.0492 H   0  0  0  0  0  0
  -26.7114  -32.5489   23.1111 H   0  0  0  0  0  0
  -25.0013  -33.9746   25.0403 H   0  0  0  0  0  0
  -22.7026  -31.3055   21.3992 H   0  0  0  0  0  0
  -23.3756  -35.9672   23.3317 H   0  0  0  0  0  0
  -24.3583  -36.8949   22.2048 H   0  0  0  0  0  0
  -23.7285  -37.6534   23.6678 H   0  0  0  0  0  0
  -26.0700  -31.5738   20.5915 H   0  0  0  0  0  0
  -26.8278  -30.8653   21.9870 H   0  0  0  0  0  0
  -28.1100  -29.0531   21.1617 H   0  0  0  0  0  0
  -26.0357  -25.9285   19.0423 H   0  0  0  0  0  0
  -23.9791  -27.2875   19.0257 H   0  0  0  0  0  0
  -23.7279  -30.5900   19.4028 H   0  0  0  0  0  0
  -22.7432  -29.2352   19.8672 H   0  0  0  0  0  0
  -25.1287  -36.1942   25.0818 H   0  0  0  0  0  0
  -20.9967  -28.3242   24.1434 H   0  0  0  0  0  0
  -20.5692  -26.2254   23.3611 H   0  0  0  0  0  0
  -21.6624  -26.7454   22.1180 H   0  0  0  0  0  0
  -19.6929  -25.6296   21.1216 H   0  0  0  0  0  0
  -19.6691  -27.3213   20.6792 H   0  0  0  0  0  0
  -17.4195  -26.6694   21.4018 H   0  0  0  0  0  0
  -18.0301  -26.0056   22.9005 H   0  0  0  0  0  0
  -19.7932  -30.7237   24.2286 H   0  0  0  0  0  0
  -17.5017  -31.6265   24.5147 H   0  0  0  0  0  0
  -15.5344  -30.2971   23.7656 H   0  0  0  0  0  0
  -15.8674  -28.0814   22.7062 H   0  0  0  0  0  0
  -24.5920  -30.6967   25.7771 H   0  0  0  0  0  0
  -24.8808  -32.2802   26.4881 H   0  0  0  0  0  0
  -25.7991  -30.8848   27.0238 H   0  0  0  0  0  0
  -26.2818  -29.6770   24.1193 H   0  0  0  0  0  0
  -27.4094  -29.7255   25.4541 H   0  0  0  0  0  0
  -27.8629  -30.4340   23.9209 H   0  0  0  0  0  0
  -27.2735  -33.3645   26.1952 H   0  0  0  0  0  0
  -28.3834  -32.6762   25.0229 H   0  0  0  0  0  0
  -28.0727  -31.8456   26.5380 H   0  0  0  0  0  0
  -28.2572  -38.0116   24.7516 H   0  0  0  0  0  0
  -28.1054  -36.2635   24.6238 H   0  0  0  0  0  0
  -27.2281  -37.1416   25.8856 H   0  0  0  0  0  0
  -20.9305  -29.8766   21.6938 H   0  0  0  0  0  0
  -26.0173  -38.2848   24.1410 H   0  0  0  0  0  0
  -28.8875  -22.3958   21.4447 H   0  0  0  0  0  0
  -27.6974  -24.6741   17.9956 H   0  0  0  0  0  0
  -27.5234  -26.1768   22.6566 H   0  0  0  0  0  0
  -27.6435  -24.4208   22.6804 H   0  0  0  0  0  0
  -26.3881  -25.2012   21.7314 H   0  0  0  0  0  0
  -28.1234  -22.6162   14.8761 H   0  0  0  0  0  0
  -29.2243  -23.3743   16.0107 H   0  0  0  0  0  0
  -27.5910  -23.9978   15.8147 H   0  0  0  0  0  0
  -25.8756  -21.4956   15.9102 H   0  0  0  0  0  0
  -25.6277  -22.8193   17.0428 H   0  0  0  0  0  0
  -25.8482  -21.1780   17.6386 H   0  0  0  0  0  0
  -28.6798  -19.8899   18.3465 H   0  0  0  0  0  0
  -27.4262  -19.8734   19.5343 H   0  0  0  0  0  0
  -30.3478  -17.4043   21.9772 H   0  0  0  0  0  0
  -31.2118  -17.2363   20.4762 H   0  0  0  0  0  0
  -28.1807  -17.7519   20.6477 H   0  0  0  0  0  0
  -29.1035  -17.6411   19.1753 H   0  0  0  0  0  0
  -29.3951  -25.3094   21.2713 H   0  0  0  0  0  0
  -28.1953  -21.1715   16.7553 H   0  0  0  0  0  0
  -29.0085  -15.3617   21.3324 H   0  0  0  0  0  0
  -29.2608  -19.7720   21.1960 H   0  0  0  0  0  0
  -30.3143  -19.6599   19.9613 H   0  0  0  0  0  0
  1 25  1  0  0  0
  1 30  2  0  0  0
  1 84  1  0  0  0
  2  3  1  0  0  0
  2 25  1  0  0  0
  2 86  1  0  0  0
  2 87  1  0  0  0
  3  4  1  0  0  0
  3 88  1  0  0  0
  3 89  1  0  0  0
  4  5  1  0  0  0
  4 90  1  0  0  0
  4 91  1  0  0  0
  5  6  1  0  0  0
  5 26  1  0  0  0
  5 92  1  0  0  0
  6 25  1  0  0  0
  6 93  1  0  0  0
  6 94  1  0  0  0
  7  8  2  0  0  0
  7 26  1  0  0  0
  7 29  1  0  0  0
  8  9  1  0  0  0
  8 22  1  0  0  0
  9 10  1  0  0  0
  9 27  2  0  0  0
 10 11  2  0  0  0
 10 15  1  0  0  0
 11 12  1  0  0  0
 11 95  1  0  0  0
 12 13  2  0  0  0
 12 96  1  0  0  0
 13 14  1  0  0  0
 13 31  1  0  0  0
 14 15  2  0  0  0
 14 97  1  0  0  0
 15 98  1  0  0  0
 16 17  2  0  0  0
 16 21  1  0  0  0
 16 31  1  0  0  0
 17 18  1  0  0  0
 17 99  1  0  0  0
 18 19  2  0  0  0
 18100  1  0  0  0
 19 20  1  0  0  0
 19 24  1  0  0  0
 20 21  2  0  0  0
 20101  1  0  0  0
 21 23  1  0  0  0
 22 28  1  0  0  0
 22 32  2  0  0  0
 26 27  1  0  0  0
 28102  1  0  0  0
 28103  1  0  0  0
 29104  1  0  0  0
 29105  1  0  0  0
 33 34  1  0  0  0
 33 66  1  0  0  0
 33 70  2  0  0  0
 34 36  1  0  0  0
 34 59  1  0  0  0
 34106  1  0  0  0
 35 44  2  0  0  0
 35 45  1  0  0  0
 35 68  1  0  0  0
 36 56  1  0  0  0
 36107  1  0  0  0
 37 39  1  0  0  0
 37 47  1  0  0  0
 37 66  1  0  0  0
 37108  1  0  0  0
 38 43  2  0  0  0
 38 46  1  0  0  0
 38 47  1  0  0  0
 39 64  1  0  0  0
 39 67  2  0  0  0
 40 52  1  0  0  0
 40 53  2  0  0  0
 40 58  1  0  0  0
 41109  1  0  0  0
 41110  1  0  0  0
 41111  1  0  0  0
 41 48  1  0  0  0
 42 43  1  0  0  0
 42 66  1  0  0  0
 42112  1  0  0  0
 42113  1  0  0  0
 43 44  1  0  0  0
 44114  1  0  0  0
 45 46  2  0  0  0
 45115  1  0  0  0
 46116  1  0  0  0
 47117  1  0  0  0
 47118  1  0  0  0
 48 56  1  0  0  0
 48 65  1  0  0  0
 48119  1  0  0  0
 49 50  1  0  0  0
 49 53  1  0  0  0
 49 64  1  0  0  0
 49120  1  0  0  0
 50 51  1  0  0  0
 50121  1  0  0  0
 50122  1  0  0  0
 51 52  1  0  0  0
 51123  1  0  0  0
 51124  1  0  0  0
 52125  1  0  0  0
 52126  1  0  0  0
 53 54  1  0  0  0
 54 55  2  0  0  0
 54127  1  0  0  0
 55 57  1  0  0  0
 55128  1  0  0  0
 56 69  2  0  0  0
 57 58  2  0  0  0
 57129  1  0  0  0
 58130  1  0  0  0
 59 60  1  0  0  0
 59 61  1  0  0  0
 59 62  1  0  0  0
 60131  1  0  0  0
 60132  1  0  0  0
 60133  1  0  0  0
 61134  1  0  0  0
 61135  1  0  0  0
 61136  1  0  0  0
 62137  1  0  0  0
 62138  1  0  0  0
 62139  1  0  0  0
 63 65  1  0  0  0
 63140  1  0  0  0
 63141  1  0  0  0
 63142  1  0  0  0
 64143  1  0  0  0
 65144  1  0  0  0
 68 81  1  0  0  0
 71 73  1  0  0  0
 71 74  2  0  0  0
 71145  1  0  0  0
 72 73  2  0  0  0
 72 83  1  0  0  0
 72146  1  0  0  0
 73 81  1  0  0  0
 74 78  1  0  0  0
 74 83  1  0  0  0
 75147  1  0  0  0
 75148  1  0  0  0
 75149  1  0  0  0
 75 81  1  0  0  0
 76150  1  0  0  0
 76151  1  0  0  0
 76152  1  0  0  0
 76 82  1  0  0  0
 77 82  1  0  0  0
 77153  1  0  0  0
 77154  1  0  0  0
 77155  1  0  0  0
 78 85  1  0  0  0
 78156  1  0  0  0
 78157  1  0  0  0
 79 80  1  0  0  0
 79 84  1  0  0  0
 79158  1  0  0  0
 79159  1  0  0  0
 80 85  1  0  0  0
 80160  1  0  0  0
 80161  1  0  0  0
 81162  1  0  0  0
 82 83  1  0  0  0
 82163  1  0  0  0
 84164  1  0  0  0
 85165  1  0  0  0
 85166  1  0  0  0
M  CHG  1  85   1
M  ISO  4   1 100  68 101  81 101  84 100
M  END
> <chiral flag>
0

> <version>
0

> <s_m_source_file>
/data/baiqing/PycharmProjects/Reinvent-master-3.2/result/LINK_invent/BTK/process_docking_weight1_custom_sum_contain_oxygen_bond_distance_aromatic_linkinvent_7_9_3/rearranged_h_0124.sdf

> <i_m_source_file_index>
91

> <r_mmod_Potential_Energy-OPLS-2005>
-262.37158203125

> <r_mmod_Stretch_Energy-OPLS-2005>
57.1500282287598

> <r_mmod_Bend_Energy-OPLS-2005>
122.68236541748

> <r_mmod_Torsional_Energy-OPLS-2005>
250.289703369141

> <r_mmod_Improper_Torsional_Energy-OPLS-2005>
4.59594917297363

> <r_mmod_Van_der_Waal_Energy-OPLS-2005>
119.301162719727

> <r_mmod_Electrostatic_Energy-OPLS-2005>
-359.15771484375

> <r_mmod_Solvation_Energy-OPLS-2005>
-483.533355712891

> <b_mmod_Minimization_Converged-OPLS-2005>
0

> <r_mmod_RMS_Derivative-OPLS-2005>
3.83104109764099

$$$$
91
                    3D
 Structure written by MMmdl.
153161  0  0  1  0            999 V2000
  -30.5946  -14.8544   20.4280 C   0  0  0  0  0  0
  -30.4304  -12.5260   19.4918 C   0  0  0  0  0  0
  -29.5146  -12.5136   18.2482 C   0  0  0  0  0  0
  -28.0443  -12.3204   18.6636 C   0  0  0  0  0  0
  -27.6322  -13.2445   19.8405 C   0  0  2  0  0  0
  -28.6754  -13.2479   20.9783 C   0  0  0  0  0  0
  -25.2470  -13.8215   20.5709 C   0  0  0  0  0  0
  -24.1779  -13.0444   20.9221 C   0  0  0  0  0  0
  -24.6391  -11.6927   20.8752 C   0  0  0  0  0  0
  -23.9075  -10.4297   21.0407 C   0  0  0  0  0  0
  -24.3625   -9.4211   21.9182 C   0  0  0  0  0  0
  -23.6299   -8.2246   22.0753 C   0  0  0  0  0  0
  -22.4282   -8.0284   21.3544 C   0  0  0  0  0  0
  -21.9917   -9.0257   20.4646 C   0  0  0  0  0  0
  -22.7247  -10.2135   20.3055 C   0  0  0  0  0  0
  -21.6857   -6.0737   22.5276 C   0  0  0  0  0  0
  -21.4018   -6.5640   23.8209 C   0  0  0  0  0  0
  -21.3660   -5.6792   24.9170 C   0  0  0  0  0  0
  -21.6045   -4.3055   24.7220 C   0  0  0  0  0  0
  -21.8820   -3.8147   23.4341 C   0  0  0  0  0  0
  -21.9194   -4.6964   22.3399 C   0  0  0  0  0  0
  -22.7799  -13.5217   21.1871 C   0  0  0  0  0  0
  -22.1663   -4.2151   21.0976 F   0  0  0  0  0  0
  -21.5626   -3.4538   25.7732 F   0  0  0  0  0  0
  -29.9623  -13.6218   20.3820 N   0  0  0  0  0  0
  -26.2896  -12.9445   20.3253 N   0  0  0  0  0  0
  -25.9323  -11.6577   20.5748 N   0  0  0  0  0  0
  -22.0450  -12.8206   22.0430 N   0  0  0  0  0  0
  -25.4136  -15.1942   20.4132 N   0  0  0  0  0  0
  -31.7963  -14.8972   20.1492 O   0  0  0  0  0  0
  -21.6645   -6.8881   21.4240 O   0  0  0  0  0  0
  -22.3479  -14.5517   20.6709 O   0  0  0  0  0  0
  -24.6387  -31.8480   23.1920 C   0  0  0  0  0  0
  -25.9182  -32.4714   23.8289 C   0  0  1  0  0  0
  -27.2172  -27.1886   20.1424 C   0  0  0  0  0  0
  -25.5945  -33.8517   24.2209 N   0  0  0  0  0  0
  -23.4387  -30.4690   21.5366 C   0  0  2  0  0  0
  -24.8867  -28.9034   20.1091 C   0  0  0  0  0  0
  -22.7537  -29.4570   22.4879 C   0  0  0  0  0  0
  -18.0297  -28.1399   22.8475 C   0  0  0  0  0  0
  -24.1488  -36.7267   23.2643 C   0  0  0  0  0  0
  -25.9901  -30.7396   21.3810 C   0  0  0  0  0  0
  -26.0618  -29.3554   20.7225 C   0  0  0  0  0  0
  -27.2292  -28.5131   20.7224 C   0  0  0  0  0  0
  -26.0167  -26.8221   19.4956 C   0  0  0  0  0  0
  -24.8737  -27.6485   19.4818 C   0  0  0  0  0  0
  -23.6610  -29.7993   20.1547 C   0  0  0  0  0  0
  -25.4117  -36.3040   24.0317 C   0  0  1  0  0  0
  -20.5906  -28.3714   23.1250 C   0  0  2  0  0  0
  -20.6783  -26.9423   22.5407 C   0  0  0  0  0  0
  -19.5760  -26.6386   21.5213 C   0  0  0  0  0  0
  -18.1941  -26.7937   22.1625 C   0  0  0  0  0  0
  -19.1552  -28.8874   23.2854 C   0  0  0  0  0  0
  -18.9472  -30.1473   23.8876 C   0  0  0  0  0  0
  -17.6470  -30.6594   24.0561 C   0  0  0  0  0  0
  -25.9065  -34.9415   23.5068 C   0  0  0  0  0  0
  -16.5360  -29.9090   23.6337 C   0  0  0  0  0  0
  -16.7282  -28.6512   23.0350 C   0  0  0  0  0  0
  -26.4520  -31.6568   25.0714 C   0  0  0  0  0  0
  -25.3717  -31.3753   26.1420 C   0  0  0  0  0  0
  -27.0386  -30.2972   24.6266 C   0  0  0  0  0  0
  -27.6055  -32.4328   25.7503 C   0  0  0  0  0  0
  -27.5571  -37.1789   24.8464 C   0  0  0  0  0  0
  -21.4235  -29.3046   22.3626 N   0  0  0  0  0  0
  -26.4283  -37.3748   23.9407 N   0  0  0  0  0  0
  -24.7087  -31.0385   22.0924 N   0  0  0  0  0  0
  -23.4204  -28.8118   23.3010 O   0  0  0  0  0  0
  -28.2902  -26.2455   20.2120 O   0  0  0  0  0  0
  -26.5648  -34.8906   22.4644 O   0  0  0  0  0  0
  -23.5521  -32.1330   23.7179 O   0  0  0  0  0  0
  -29.3463  -21.2121   19.2084 C   0  0  0  0  0  0
  -29.6214  -19.7904   19.1944 C   0  0  0  0  0  0
  -29.1089  -21.1204   21.5585 C   0  0  0  0  0  0
  -29.1146  -21.9679   20.3993 C   0  0  0  0  0  0
  -29.7026  -18.9579   20.3606 C   0  0  0  0  0  0
  -29.3902  -19.6936   21.5525 C   0  0  0  0  0  0
  -29.4549  -18.9707   22.8849 C   0  0  0  0  0  0
  -29.1804  -23.6033   20.4868 C   0  0  0  0  0  0
  -30.4236  -17.4873   20.3127 C   0  0  0  0  0  0
  -28.0486  -24.7318   20.0712 C   0  0  0  0  0  0
  -29.8695  -16.0557   20.5549 N   0  0  0  0  0  0
  -31.4694  -12.6559   19.1848 H   0  0  0  0  0  0
  -30.3927  -11.5678   20.0124 H   0  0  0  0  0  0
  -29.8174  -11.7214   17.5620 H   0  0  0  0  0  0
  -29.6231  -13.4519   17.7019 H   0  0  0  0  0  0
  -27.9226  -11.2768   18.9557 H   0  0  0  0  0  0
  -27.3847  -12.4756   17.8089 H   0  0  0  0  0  0
  -27.6048  -14.2526   19.4257 H   0  0  0  0  0  0
  -28.7377  -12.2707   21.4590 H   0  0  0  0  0  0
  -28.3930  -13.9600   21.7556 H   0  0  0  0  0  0
  -25.2769   -9.5689   22.4757 H   0  0  0  0  0  0
  -24.0009   -7.4639   22.7474 H   0  0  0  0  0  0
  -21.0847   -8.8776   19.8950 H   0  0  0  0  0  0
  -22.3704  -10.9674   19.6164 H   0  0  0  0  0  0
  -21.2015   -7.6149   23.9714 H   0  0  0  0  0  0
  -21.1481   -6.0521   25.9074 H   0  0  0  0  0  0
  -22.0598   -2.7609   23.2839 H   0  0  0  0  0  0
  -22.4083  -11.9885   22.4836 H   0  0  0  0  0  0
  -21.1059  -13.1215   22.2621 H   0  0  0  0  0  0
  -24.6437  -15.8451   20.5241 H   0  0  0  0  0  0
  -26.2571  -15.6365   20.0721 H   0  0  0  0  0  0
  -26.7247  -32.5336   23.1021 H   0  0  0  0  0  0
  -25.0058  -33.9635   25.0333 H   0  0  0  0  0  0
  -22.7384  -31.2931   21.3855 H   0  0  0  0  0  0
  -23.3746  -35.9602   23.3298 H   0  0  0  0  0  0
  -24.3571  -36.8907   22.2059 H   0  0  0  0  0  0
  -23.7253  -37.6467   23.6682 H   0  0  0  0  0  0
  -26.1365  -31.4970   20.6097 H   0  0  0  0  0  0
  -26.8641  -30.7898   22.0187 H   0  0  0  0  0  0
  -28.1263  -28.8540   21.2198 H   0  0  0  0  0  0
  -25.9313  -25.8609   19.0115 H   0  0  0  0  0  0
  -23.9744  -27.2969   18.9950 H   0  0  0  0  0  0
  -23.7926  -30.5745   19.3987 H   0  0  0  0  0  0
  -22.7771  -29.2380   19.8464 H   0  0  0  0  0  0
  -25.1308  -36.1866   25.0810 H   0  0  0  0  0  0
  -20.9995  -28.3301   24.1371 H   0  0  0  0  0  0
  -20.5683  -26.2324   23.3619 H   0  0  0  0  0  0
  -21.6650  -26.7439   22.1202 H   0  0  0  0  0  0
  -19.6921  -25.6293   21.1255 H   0  0  0  0  0  0
  -19.6704  -27.3185   20.6732 H   0  0  0  0  0  0
  -17.4209  -26.6674   21.4030 H   0  0  0  0  0  0
  -18.0343  -26.0088   22.9032 H   0  0  0  0  0  0
  -19.7947  -30.7296   24.2238 H   0  0  0  0  0  0
  -17.5024  -31.6273   24.5167 H   0  0  0  0  0  0
  -15.5361  -30.2988   23.7678 H   0  0  0  0  0  0
  -15.8680  -28.0833   22.7070 H   0  0  0  0  0  0
  -24.5892  -30.7103   25.7746 H   0  0  0  0  0  0
  -24.8910  -32.2939   26.4796 H   0  0  0  0  0  0
  -25.8009  -30.8960   27.0227 H   0  0  0  0  0  0
  -26.2999  -29.6697   24.1266 H   0  0  0  0  0  0
  -27.4013  -29.7267   25.4827 H   0  0  0  0  0  0
  -27.8895  -30.4228   23.9565 H   0  0  0  0  0  0
  -27.2647  -33.3636   26.2045 H   0  0  0  0  0  0
  -28.3891  -32.6873   25.0355 H   0  0  0  0  0  0
  -28.0692  -31.8474   26.5453 H   0  0  0  0  0  0
  -28.2586  -38.0086   24.7497 H   0  0  0  0  0  0
  -28.1070  -36.2616   24.6305 H   0  0  0  0  0  0
  -27.2285  -37.1452   25.8866 H   0  0  0  0  0  0
  -20.9434  -29.8758   21.6812 H   0  0  0  0  0  0
  -26.0151  -38.2818   24.1407 H   0  0  0  0  0  0
  -29.4071  -21.7459   18.2696 H   0  0  0  0  0  0
  -29.8728  -19.3469   18.2404 H   0  0  0  0  0  0
  -28.9709  -21.6000   22.5183 H   0  0  0  0  0  0
  -28.9661  -19.5418   23.6749 H   0  0  0  0  0  0
  -30.4921  -18.8062   23.1784 H   0  0  0  0  0  0
  -28.9601  -18.0012   22.8226 H   0  0  0  0  0  0
  -30.0770  -23.8685   19.9262 H   0  0  0  0  0  0
  -29.4468  -23.8219   21.5210 H   0  0  0  0  0  0
  -31.2705  -17.5774   20.9941 H   0  0  0  0  0  0
  -30.8927  -17.4371   19.3290 H   0  0  0  0  0  0
  -27.1479  -24.4976   20.6401 H   0  0  0  0  0  0
  -27.7942  -24.5503   19.0266 H   0  0  0  0  0  0
  -28.8805  -15.9751   20.7359 H   0  0  0  0  0  0
  1 25  1  0  0  0
  1 30  2  0  0  0
  1 81  1  0  0  0
  2  3  1  0  0  0
  2 25  1  0  0  0
  2 82  1  0  0  0
  2 83  1  0  0  0
  3  4  1  0  0  0
  3 84  1  0  0  0
  3 85  1  0  0  0
  4  5  1  0  0  0
  4 86  1  0  0  0
  4 87  1  0  0  0
  5  6  1  0  0  0
  5 26  1  0  0  0
  5 88  1  0  0  0
  6 25  1  0  0  0
  6 89  1  0  0  0
  6 90  1  0  0  0
  7  8  2  0  0  0
  7 26  1  0  0  0
  7 29  1  0  0  0
  8  9  1  0  0  0
  8 22  1  0  0  0
  9 10  1  0  0  0
  9 27  2  0  0  0
 10 11  2  0  0  0
 10 15  1  0  0  0
 11 12  1  0  0  0
 11 91  1  0  0  0
 12 13  2  0  0  0
 12 92  1  0  0  0
 13 14  1  0  0  0
 13 31  1  0  0  0
 14 15  2  0  0  0
 14 93  1  0  0  0
 15 94  1  0  0  0
 16 17  2  0  0  0
 16 21  1  0  0  0
 16 31  1  0  0  0
 17 18  1  0  0  0
 17 95  1  0  0  0
 18 19  2  0  0  0
 18 96  1  0  0  0
 19 20  1  0  0  0
 19 24  1  0  0  0
 20 21  2  0  0  0
 20 97  1  0  0  0
 21 23  1  0  0  0
 22 28  1  0  0  0
 22 32  2  0  0  0
 26 27  1  0  0  0
 28 98  1  0  0  0
 28 99  1  0  0  0
 29100  1  0  0  0
 29101  1  0  0  0
 33 34  1  0  0  0
 33 66  1  0  0  0
 33 70  2  0  0  0
 34 36  1  0  0  0
 34 59  1  0  0  0
 34102  1  0  0  0
 35 44  2  0  0  0
 35 45  1  0  0  0
 35 68  1  0  0  0
 36 56  1  0  0  0
 36103  1  0  0  0
 37 39  1  0  0  0
 37 47  1  0  0  0
 37 66  1  0  0  0
 37104  1  0  0  0
 38 43  2  0  0  0
 38 46  1  0  0  0
 38 47  1  0  0  0
 39 64  1  0  0  0
 39 67  2  0  0  0
 40 52  1  0  0  0
 40 53  2  0  0  0
 40 58  1  0  0  0
 41105  1  0  0  0
 41106  1  0  0  0
 41107  1  0  0  0
 41 48  1  0  0  0
 42 43  1  0  0  0
 42 66  1  0  0  0
 42108  1  0  0  0
 42109  1  0  0  0
 43 44  1  0  0  0
 44110  1  0  0  0
 45 46  2  0  0  0
 45111  1  0  0  0
 46112  1  0  0  0
 47113  1  0  0  0
 47114  1  0  0  0
 48 56  1  0  0  0
 48 65  1  0  0  0
 48115  1  0  0  0
 49 50  1  0  0  0
 49 53  1  0  0  0
 49 64  1  0  0  0
 49116  1  0  0  0
 50 51  1  0  0  0
 50117  1  0  0  0
 50118  1  0  0  0
 51 52  1  0  0  0
 51119  1  0  0  0
 51120  1  0  0  0
 52121  1  0  0  0
 52122  1  0  0  0
 53 54  1  0  0  0
 54 55  2  0  0  0
 54123  1  0  0  0
 55 57  1  0  0  0
 55124  1  0  0  0
 56 69  2  0  0  0
 57 58  2  0  0  0
 57125  1  0  0  0
 58126  1  0  0  0
 59 60  1  0  0  0
 59 61  1  0  0  0
 59 62  1  0  0  0
 60127  1  0  0  0
 60128  1  0  0  0
 60129  1  0  0  0
 61130  1  0  0  0
 61131  1  0  0  0
 61132  1  0  0  0
 62133  1  0  0  0
 62134  1  0  0  0
 62135  1  0  0  0
 63 65  1  0  0  0
 63136  1  0  0  0
 63137  1  0  0  0
 63138  1  0  0  0
 64139  1  0  0  0
 65140  1  0  0  0
 68 80  1  0  0  0
 71 72  2  0  0  0
 71 74  1  0  0  0
 71141  1  0  0  0
 72 75  1  0  0  0
 72142  1  0  0  0
 73 74  2  0  0  0
 73 76  1  0  0  0
 73143  1  0  0  0
 74 78  1  0  0  0
 75 76  2  0  0  0
 75 79  1  0  0  0
 76 77  1  0  0  0
 77144  1  0  0  0
 77145  1  0  0  0
 77146  1  0  0  0
 78 80  1  0  0  0
 78147  1  0  0  0
 78148  1  0  0  0
 79 81  1  0  0  0
 79149  1  0  0  0
 79150  1  0  0  0
 80151  1  0  0  0
 80152  1  0  0  0
 81153  1  0  0  0
M  ISO  4   1 100  68 101  80 101  81 100
M  END
> <chiral flag>
0

> <version>
0

> <s_m_source_file>
/data/baiqing/PycharmProjects/Reinvent-master-3.2/result/LINK_invent/BTK/process_docking_weight1_custom_sum_contain_oxygen_bond_distance_aromatic_linkinvent_7_9_3/rearranged_h_0124.sdf

> <i_m_source_file_index>
92

> <r_mmod_Potential_Energy-OPLS-2005>
309.994171142578

> <r_mmod_Stretch_Energy-OPLS-2005>
181.55436706543

> <r_mmod_Bend_Energy-OPLS-2005>
227.508773803711

> <r_mmod_Torsional_Energy-OPLS-2005>
223.315444946289

> <r_mmod_Improper_Torsional_Energy-OPLS-2005>
9.97738456726074

> <r_mmod_Van_der_Waal_Energy-OPLS-2005>
133.844345092773

> <r_mmod_Electrostatic_Energy-OPLS-2005>
-399.849578857422

> <r_mmod_Solvation_Energy-OPLS-2005>
-206.01155090332

> <b_mmod_Minimization_Converged-OPLS-2005>
0

> <r_mmod_RMS_Derivative-OPLS-2005>
0.499997437000275

$$$$
92
                    3D
 Structure written by MMmdl.
153161  0  0  1  0            999 V2000
  -30.4228  -15.3014   20.3692 C   0  0  0  0  0  0
  -30.4417  -12.8277   19.5550 C   0  0  0  0  0  0
  -29.5500  -12.5917   18.3073 C   0  0  0  0  0  0
  -28.0965  -12.3081   18.7237 C   0  0  0  0  0  0
  -27.6180  -13.2797   19.8318 C   0  0  2  0  0  0
  -28.6431  -13.4632   20.9746 C   0  0  0  0  0  0
  -25.2409  -13.8262   20.5740 C   0  0  0  0  0  0
  -24.1758  -13.0449   20.9245 C   0  0  0  0  0  0
  -24.6417  -11.6948   20.8748 C   0  0  0  0  0  0
  -23.9113  -10.4304   21.0395 C   0  0  0  0  0  0
  -24.3653   -9.4215   21.9179 C   0  0  0  0  0  0
  -23.6317   -8.2254   22.0755 C   0  0  0  0  0  0
  -22.4293   -8.0300   21.3551 C   0  0  0  0  0  0
  -21.9939   -9.0279   20.4647 C   0  0  0  0  0  0
  -22.7282  -10.2151   20.3048 C   0  0  0  0  0  0
  -21.6864   -6.0747   22.5282 C   0  0  0  0  0  0
  -21.4023   -6.5644   23.8218 C   0  0  0  0  0  0
  -21.3654   -5.6791   24.9174 C   0  0  0  0  0  0
  -21.6042   -4.3056   24.7220 C   0  0  0  0  0  0
  -21.8819   -3.8155   23.4340 C   0  0  0  0  0  0
  -21.9194   -4.6973   22.3399 C   0  0  0  0  0  0
  -22.7774  -13.5202   21.1883 C   0  0  0  0  0  0
  -22.1662   -4.2160   21.0976 F   0  0  0  0  0  0
  -21.5620   -3.4533   25.7729 F   0  0  0  0  0  0
  -29.8823  -13.9777   20.3669 N   0  0  0  0  0  0
  -26.2848  -12.9548   20.3238 N   0  0  0  0  0  0
  -25.9361  -11.6647   20.5724 N   0  0  0  0  0  0
  -22.0415  -12.8191   22.0424 N   0  0  0  0  0  0
  -25.4045  -15.2000   20.4177 N   0  0  0  0  0  0
  -31.6205  -15.3135   20.0483 O   0  0  0  0  0  0
  -21.6653   -6.8898   21.4249 O   0  0  0  0  0  0
  -22.3458  -14.5507   20.6723 O   0  0  0  0  0  0
  -24.6676  -31.8207   23.1714 C   0  0  0  0  0  0
  -25.9344  -32.4562   23.8165 C   0  0  1  0  0  0
  -27.2005  -26.8637   20.1989 C   0  0  0  0  0  0
  -25.6003  -33.8384   24.2058 N   0  0  0  0  0  0
  -23.4839  -30.4330   21.5231 C   0  0  2  0  0  0
  -24.9390  -28.8204   20.1144 C   0  0  0  0  0  0
  -22.7690  -29.4413   22.4785 C   0  0  0  0  0  0
  -18.0327  -28.1420   22.8446 C   0  0  0  0  0  0
  -24.1507  -36.7193   23.2641 C   0  0  0  0  0  0
  -26.0580  -30.6008   21.4234 C   0  0  0  0  0  0
  -26.1199  -29.1853   20.7723 C   0  0  0  0  0  0
  -27.2401  -28.2263   20.8005 C   0  0  0  0  0  0
  -26.0237  -26.7195   19.4247 C   0  0  0  0  0  0
  -24.9209  -27.6083   19.4167 C   0  0  0  0  0  0
  -23.7286  -29.7536   20.1485 C   0  0  0  0  0  0
  -25.4147  -36.2945   24.0288 C   0  0  1  0  0  0
  -20.5952  -28.3758   23.1180 C   0  0  2  0  0  0
  -20.6815  -26.9442   22.5391 C   0  0  0  0  0  0
  -19.5782  -26.6386   21.5208 C   0  0  0  0  0  0
  -18.1964  -26.7950   22.1614 C   0  0  0  0  0  0
  -19.1588  -28.8916   23.2793 C   0  0  0  0  0  0
  -18.9489  -30.1506   23.8823 C   0  0  0  0  0  0
  -17.6480  -30.6601   24.0558 C   0  0  0  0  0  0
  -25.9107  -34.9330   23.4988 C   0  0  0  0  0  0
  -16.5373  -29.9079   23.6356 C   0  0  0  0  0  0
  -16.7308  -28.6515   23.0348 C   0  0  0  0  0  0
  -26.4579  -31.6518   25.0708 C   0  0  0  0  0  0
  -25.3684  -31.3781   26.1343 C   0  0  0  0  0  0
  -27.0483  -30.2868   24.6504 C   0  0  0  0  0  0
  -27.6069  -32.4336   25.7497 C   0  0  0  0  0  0
  -27.5574  -37.1755   24.8466 C   0  0  0  0  0  0
  -21.4359  -29.3031   22.3526 N   0  0  0  0  0  0
  -26.4286  -37.3686   23.9404 N   0  0  0  0  0  0
  -24.7576  -30.9802   22.0914 N   0  0  0  0  0  0
  -23.4218  -28.7988   23.3044 O   0  0  0  0  0  0
  -28.1662  -25.6981   20.2673 O   0  0  0  0  0  0
  -26.5714  -34.8862   22.4580 O   0  0  0  0  0  0
  -23.5737  -32.1220   23.6764 O   0  0  0  0  0  0
  -30.1374  -21.3826   22.3785 C   0  0  0  0  0  0
  -30.0674  -20.0774   21.8193 C   0  0  0  0  0  0
  -29.5376  -22.5486   21.8249 C   0  0  0  0  0  0
  -29.4137  -19.7962   20.6029 C   0  0  0  0  0  0
  -28.7748  -22.5548   20.6351 C   0  0  0  0  0  0
  -28.7786  -21.1069   20.0430 C   0  0  0  0  0  0
  -28.0883  -20.9304   18.7039 C   0  0  0  0  0  0
  -26.5532  -23.6347   19.6321 C   0  0  0  0  0  0
  -29.6315  -18.1584   19.9734 C   0  0  0  0  0  0
  -27.8360  -24.0442   20.3694 C   0  0  2  0  0  0
  -29.6563  -16.5712   20.5452 N   0  0  0  0  0  0
  -31.4645  -13.0234   19.2310 H   0  0  0  0  0  0
  -30.5060  -11.9227   20.1615 H   0  0  0  0  0  0
  -29.9418  -11.7639   17.7148 H   0  0  0  0  0  0
  -29.5820  -13.4736   17.6655 H   0  0  0  0  0  0
  -28.0520  -11.2839   19.0954 H   0  0  0  0  0  0
  -27.4353  -12.3486   17.8564 H   0  0  0  0  0  0
  -27.5349  -14.2469   19.3349 H   0  0  0  0  0  0
  -28.8096  -12.5328   21.5183 H   0  0  0  0  0  0
  -28.2720  -14.1824   21.7056 H   0  0  0  0  0  0
  -25.2797   -9.5688   22.4758 H   0  0  0  0  0  0
  -24.0019   -7.4645   22.7486 H   0  0  0  0  0  0
  -21.0864   -8.8820   19.8957 H   0  0  0  0  0  0
  -22.3754  -10.9698   19.6156 H   0  0  0  0  0  0
  -21.2027   -7.6154   23.9725 H   0  0  0  0  0  0
  -21.1469   -6.0517   25.9076 H   0  0  0  0  0  0
  -22.0600   -2.7621   23.2831 H   0  0  0  0  0  0
  -22.4047  -11.9889   22.4869 H   0  0  0  0  0  0
  -21.1026  -13.1228   22.2598 H   0  0  0  0  0  0
  -24.6351  -15.8507   20.5345 H   0  0  0  0  0  0
  -26.2427  -15.6409   20.0621 H   0  0  0  0  0  0
  -26.7407  -32.5073   23.0868 H   0  0  0  0  0  0
  -25.0114  -33.9457   25.0186 H   0  0  0  0  0  0
  -22.7984  -31.2663   21.3529 H   0  0  0  0  0  0
  -23.3763  -35.9529   23.3283 H   0  0  0  0  0  0
  -24.3577  -36.8861   22.2058 H   0  0  0  0  0  0
  -23.7266  -37.6377   23.6713 H   0  0  0  0  0  0
  -26.2498  -31.3346   20.6403 H   0  0  0  0  0  0
  -26.9151  -30.6600   22.0812 H   0  0  0  0  0  0
  -28.1228  -28.4976   21.3621 H   0  0  0  0  0  0
  -25.9150  -25.8651   18.7828 H   0  0  0  0  0  0
  -24.0479  -27.3426   18.8363 H   0  0  0  0  0  0
  -23.8897  -30.5243   19.3942 H   0  0  0  0  0  0
  -22.8390  -29.2112   19.8248 H   0  0  0  0  0  0
  -25.1352  -36.1739   25.0780 H   0  0  0  0  0  0
  -21.0017  -28.3361   24.1315 H   0  0  0  0  0  0
  -20.5709  -26.2367   23.3623 H   0  0  0  0  0  0
  -21.6677  -26.7434   22.1185 H   0  0  0  0  0  0
  -19.6939  -25.6282   21.1275 H   0  0  0  0  0  0
  -19.6732  -27.3164   20.6714 H   0  0  0  0  0  0
  -17.4234  -26.6675   21.4021 H   0  0  0  0  0  0
  -18.0368  -26.0115   22.9035 H   0  0  0  0  0  0
  -19.7963  -30.7355   24.2144 H   0  0  0  0  0  0
  -17.5031  -31.6269   24.5179 H   0  0  0  0  0  0
  -15.5367  -30.2958   23.7733 H   0  0  0  0  0  0
  -15.8709  -28.0828   22.7078 H   0  0  0  0  0  0
  -24.5883  -30.7124   25.7632 H   0  0  0  0  0  0
  -24.8847  -32.2983   26.4635 H   0  0  0  0  0  0
  -25.7891  -30.9017   27.0207 H   0  0  0  0  0  0
  -26.3169  -29.6516   24.1495 H   0  0  0  0  0  0
  -27.3956  -29.7268   25.5198 H   0  0  0  0  0  0
  -27.9147  -30.4013   23.9984 H   0  0  0  0  0  0
  -27.2645  -33.3689   26.1939 H   0  0  0  0  0  0
  -28.3938  -32.6815   25.0359 H   0  0  0  0  0  0
  -28.0676  -31.8546   26.5511 H   0  0  0  0  0  0
  -28.2575  -38.0066   24.7503 H   0  0  0  0  0  0
  -28.1083  -36.2586   24.6317 H   0  0  0  0  0  0
  -27.2278  -37.1430   25.8864 H   0  0  0  0  0  0
  -20.9633  -29.8702   21.6632 H   0  0  0  0  0  0
  -26.0124  -38.2746   24.1396 H   0  0  0  0  0  0
  -30.6802  -21.4949   23.3072 H   0  0  0  0  0  0
  -30.5769  -19.2699   22.3281 H   0  0  0  0  0  0
  -29.6229  -23.4723   22.3807 H   0  0  0  0  0  0
  -28.6317  -20.2205   18.0808 H   0  0  0  0  0  0
  -28.0545  -21.8685   18.1520 H   0  0  0  0  0  0
  -27.0706  -20.5601   18.8335 H   0  0  0  0  0  0
  -25.6895  -24.1941   19.9835 H   0  0  0  0  0  0
  -26.2923  -22.6029   19.8640 H   0  0  0  0  0  0
  -26.6461  -23.7256   18.5507 H   0  0  0  0  0  0
  -30.5690  -18.2322   19.4216 H   0  0  0  0  0  0
  -28.8776  -18.1016   19.1870 H   0  0  0  0  0  0
  -27.4641  -24.1067   21.3927 H   0  0  0  0  0  0
  -28.7588  -16.3477   20.9502 H   0  0  0  0  0  0
  1 25  1  0  0  0
  1 30  2  0  0  0
  1 81  1  0  0  0
  2  3  1  0  0  0
  2 25  1  0  0  0
  2 82  1  0  0  0
  2 83  1  0  0  0
  3  4  1  0  0  0
  3 84  1  0  0  0
  3 85  1  0  0  0
  4  5  1  0  0  0
  4 86  1  0  0  0
  4 87  1  0  0  0
  5  6  1  0  0  0
  5 26  1  0  0  0
  5 88  1  0  0  0
  6 25  1  0  0  0
  6 89  1  0  0  0
  6 90  1  0  0  0
  7  8  2  0  0  0
  7 26  1  0  0  0
  7 29  1  0  0  0
  8  9  1  0  0  0
  8 22  1  0  0  0
  9 10  1  0  0  0
  9 27  2  0  0  0
 10 11  2  0  0  0
 10 15  1  0  0  0
 11 12  1  0  0  0
 11 91  1  0  0  0
 12 13  2  0  0  0
 12 92  1  0  0  0
 13 14  1  0  0  0
 13 31  1  0  0  0
 14 15  2  0  0  0
 14 93  1  0  0  0
 15 94  1  0  0  0
 16 17  2  0  0  0
 16 21  1  0  0  0
 16 31  1  0  0  0
 17 18  1  0  0  0
 17 95  1  0  0  0
 18 19  2  0  0  0
 18 96  1  0  0  0
 19 20  1  0  0  0
 19 24  1  0  0  0
 20 21  2  0  0  0
 20 97  1  0  0  0
 21 23  1  0  0  0
 22 28  1  0  0  0
 22 32  2  0  0  0
 26 27  1  0  0  0
 28 98  1  0  0  0
 28 99  1  0  0  0
 29100  1  0  0  0
 29101  1  0  0  0
 33 34  1  0  0  0
 33 66  1  0  0  0
 33 70  2  0  0  0
 34 36  1  0  0  0
 34 59  1  0  0  0
 34102  1  0  0  0
 35 44  2  0  0  0
 35 45  1  0  0  0
 35 68  1  0  0  0
 36 56  1  0  0  0
 36103  1  0  0  0
 37 39  1  0  0  0
 37 47  1  0  0  0
 37 66  1  0  0  0
 37104  1  0  0  0
 38 43  2  0  0  0
 38 46  1  0  0  0
 38 47  1  0  0  0
 39 64  1  0  0  0
 39 67  2  0  0  0
 40 52  1  0  0  0
 40 53  2  0  0  0
 40 58  1  0  0  0
 41105  1  0  0  0
 41106  1  0  0  0
 41107  1  0  0  0
 41 48  1  0  0  0
 42 43  1  0  0  0
 42 66  1  0  0  0
 42108  1  0  0  0
 42109  1  0  0  0
 43 44  1  0  0  0
 44110  1  0  0  0
 45 46  2  0  0  0
 45111  1  0  0  0
 46112  1  0  0  0
 47113  1  0  0  0
 47114  1  0  0  0
 48 56  1  0  0  0
 48 65  1  0  0  0
 48115  1  0  0  0
 49 50  1  0  0  0
 49 53  1  0  0  0
 49 64  1  0  0  0
 49116  1  0  0  0
 50 51  1  0  0  0
 50117  1  0  0  0
 50118  1  0  0  0
 51 52  1  0  0  0
 51119  1  0  0  0
 51120  1  0  0  0
 52121  1  0  0  0
 52122  1  0  0  0
 53 54  1  0  0  0
 54 55  2  0  0  0
 54123  1  0  0  0
 55 57  1  0  0  0
 55124  1  0  0  0
 56 69  2  0  0  0
 57 58  2  0  0  0
 57125  1  0  0  0
 58126  1  0  0  0
 59 60  1  0  0  0
 59 61  1  0  0  0
 59 62  1  0  0  0
 60127  1  0  0  0
 60128  1  0  0  0
 60129  1  0  0  0
 61130  1  0  0  0
 61131  1  0  0  0
 61132  1  0  0  0
 62133  1  0  0  0
 62134  1  0  0  0
 62135  1  0  0  0
 63 65  1  0  0  0
 63136  1  0  0  0
 63137  1  0  0  0
 63138  1  0  0  0
 64139  1  0  0  0
 65140  1  0  0  0
 68 80  1  0  0  0
 71 72  2  0  0  0
 71 73  1  0  0  0
 71141  1  0  0  0
 72 74  1  0  0  0
 72142  1  0  0  0
 73 75  2  0  0  0
 73143  1  0  0  0
 74 76  2  0  0  0
 74 79  1  0  0  0
 75 76  1  0  0  0
 75 80  1  0  0  0
 76 77  1  0  0  0
 77144  1  0  0  0
 77145  1  0  0  0
 77146  1  0  0  0
 78147  1  0  0  0
 78148  1  0  0  0
 78149  1  0  0  0
 78 80  1  0  0  0
 79 81  1  0  0  0
 79150  1  0  0  0
 79151  1  0  0  0
 80152  1  0  0  0
 81153  1  0  0  0
M  ISO  4   1 100  68 101  80 101  81 100
M  END
> <chiral flag>
0

> <version>
0

> <s_m_source_file>
/data/baiqing/PycharmProjects/Reinvent-master-3.2/result/LINK_invent/BTK/process_docking_weight1_custom_sum_contain_oxygen_bond_distance_aromatic_linkinvent_7_9_3/rearranged_h_0124.sdf

> <i_m_source_file_index>
93

> <r_mmod_Potential_Energy-OPLS-2005>
1447.37158203125

> <r_mmod_Stretch_Energy-OPLS-2005>
659.263732910156

> <r_mmod_Bend_Energy-OPLS-2005>
480.304656982422

> <r_mmod_Torsional_Energy-OPLS-2005>
247.802825927734

> <r_mmod_Improper_Torsional_Energy-OPLS-2005>
7.4668116569519

> <r_mmod_Van_der_Waal_Energy-OPLS-2005>
134.771728515625

> <r_mmod_Electrostatic_Energy-OPLS-2005>
-393.10546875

> <r_mmod_Solvation_Energy-OPLS-2005>
-214.914672851562

> <b_mmod_Minimization_Converged-OPLS-2005>
0

> <r_mmod_RMS_Derivative-OPLS-2005>
1.83830273151398

$$$$
93
                    3D
 Structure written by MMmdl.
168177  0  0  1  0            999 V2000
  -30.5522  -14.5574   20.5174 C   0  0  0  0  0  0
  -30.4398  -12.3439   19.4148 C   0  0  0  0  0  0
  -29.4992  -12.5211   18.2029 C   0  0  0  0  0  0
  -28.0187  -12.3705   18.6121 C   0  0  0  0  0  0
  -27.6556  -13.1962   19.8767 C   0  0  2  0  0  0
  -28.6973  -12.9556   20.9955 C   0  0  0  0  0  0
  -25.2588  -13.8129   20.5656 C   0  0  0  0  0  0
  -24.1851  -13.0416   20.9198 C   0  0  0  0  0  0
  -24.6391  -11.6896   20.8759 C   0  0  0  0  0  0
  -23.9065  -10.4292   21.0428 C   0  0  0  0  0  0
  -24.3637   -9.4188   21.9177 C   0  0  0  0  0  0
  -23.6300   -8.2225   22.0752 C   0  0  0  0  0  0
  -22.4267   -8.0291   21.3561 C   0  0  0  0  0  0
  -21.9911   -9.0260   20.4657 C   0  0  0  0  0  0
  -22.7253  -10.2132   20.3058 C   0  0  0  0  0  0
  -21.6854   -6.0746   22.5276 C   0  0  0  0  0  0
  -21.4011   -6.5643   23.8215 C   0  0  0  0  0  0
  -21.3652   -5.6793   24.9180 C   0  0  0  0  0  0
  -21.6057   -4.3058   24.7227 C   0  0  0  0  0  0
  -21.8818   -3.8147   23.4348 C   0  0  0  0  0  0
  -21.9200   -4.6969   22.3406 C   0  0  0  0  0  0
  -22.7871  -13.5210   21.1859 C   0  0  0  0  0  0
  -22.1663   -4.2160   21.0981 F   0  0  0  0  0  0
  -21.5632   -3.4540   25.7734 F   0  0  0  0  0  0
  -30.0130  -13.3138   20.4425 N   0  0  0  0  0  0
  -26.2988  -12.9276   20.3326 N   0  0  0  0  0  0
  -25.9304  -11.6467   20.5753 N   0  0  0  0  0  0
  -22.0537  -12.8206   22.0457 N   0  0  0  0  0  0
  -25.4219  -15.1838   20.3867 N   0  0  0  0  0  0
  -31.6965  -14.8189   20.1179 O   0  0  0  0  0  0
  -21.6646   -6.8895   21.4240 O   0  0  0  0  0  0
  -22.3576  -14.5519   20.6718 O   0  0  0  0  0  0
  -24.6214  -31.8646   23.2104 C   0  0  0  0  0  0
  -25.9077  -32.4837   23.8383 C   0  0  1  0  0  0
  -27.1934  -27.3742   20.0862 C   0  0  0  0  0  0
  -25.5892  -33.8608   24.2363 N   0  0  0  0  0  0
  -23.4079  -30.4948   21.5548 C   0  0  2  0  0  0
  -24.8431  -28.9577   20.1131 C   0  0  0  0  0  0
  -22.7506  -29.4658   22.5031 C   0  0  0  0  0  0
  -18.0271  -28.1407   22.8577 C   0  0  0  0  0  0
  -24.1487  -36.7322   23.2646 C   0  0  0  0  0  0
  -25.9413  -30.8175   21.3612 C   0  0  0  0  0  0
  -26.0093  -29.4432   20.7119 C   0  0  0  0  0  0
  -27.1897  -28.6547   20.7002 C   0  0  0  0  0  0
  -25.9945  -26.9064   19.5049 C   0  0  0  0  0  0
  -24.8281  -27.6909   19.5116 C   0  0  0  0  0  0
  -23.6201  -29.8442   20.1620 C   0  0  0  0  0  0
  -25.4105  -36.3135   24.0356 C   0  0  1  0  0  0
  -20.5893  -28.3643   23.1314 C   0  0  2  0  0  0
  -20.6741  -26.9369   22.5389 C   0  0  0  0  0  0
  -19.5630  -26.6128   21.5355 C   0  0  0  0  0  0
  -18.1813  -26.7910   22.1725 C   0  0  0  0  0  0
  -19.1568  -28.8864   23.2909 C   0  0  0  0  0  0
  -18.9608  -30.1491   23.8860 C   0  0  0  0  0  0
  -17.6641  -30.6677   24.0472 C   0  0  0  0  0  0
  -25.9019  -34.9472   23.5185 C   0  0  0  0  0  0
  -16.5449  -29.9155   23.6404 C   0  0  0  0  0  0
  -16.7271  -28.6525   23.0513 C   0  0  0  0  0  0
  -26.4471  -31.6561   25.0710 C   0  0  0  0  0  0
  -25.3733  -31.3578   26.1471 C   0  0  0  0  0  0
  -27.0277  -30.3023   24.5999 C   0  0  0  0  0  0
  -27.6073  -32.4239   25.7477 C   0  0  0  0  0  0
  -27.5592  -37.1839   24.8485 C   0  0  0  0  0  0
  -21.4209  -29.3071   22.3863 N   0  0  0  0  0  0
  -26.4301  -37.3822   23.9429 N   0  0  0  0  0  0
  -24.6763  -31.0766   22.1021 N   0  0  0  0  0  0
  -23.4279  -28.8211   23.3071 O   0  0  0  0  0  0
  -28.3499  -26.6074   20.0866 O   0  0  0  0  0  0
  -26.5585  -34.8905   22.4765 O   0  0  0  0  0  0
  -23.5392  -32.1358   23.7465 O   0  0  0  0  0  0
  -27.2517  -22.4951   21.4554 C   0  0  0  0  0  0
  -27.5905  -23.8126   21.0428 C   0  0  0  0  0  0
  -28.0283  -22.9663   18.8287 C   0  0  0  0  0  0
  -27.3386  -21.3669   20.5817 C   0  0  0  0  0  0
  -27.9940  -24.0657   19.7158 C   0  0  0  0  0  0
  -27.7043  -21.6453   19.2346 C   0  0  0  0  0  0
  -28.7098  -19.0634   22.6962 C   0  0  0  0  0  0
  -27.9673  -20.0369   23.6332 C   0  0  0  0  0  0
  -25.9958  -19.7040   22.1474 C   0  0  0  0  0  0
  -27.0562  -19.8918   21.0193 C   0  0  2  0  0  0
  -27.7416  -20.5351   18.1848 C   0  0  0  0  0  0
  -28.4503  -25.4545   19.2095 C   0  0  0  0  0  0
  -28.2819  -17.6733   20.7866 C   0  0  0  0  0  0
  -29.7071  -16.9920   20.7244 C   0  0  0  0  0  0
  -28.2851  -19.0798   21.2757 N   0  0  0  0  0  0
  -29.6544  -15.5176   20.8576 N   0  0  0  0  0  0
  -26.4985  -19.9306   23.5220 N   0  3  0  0  0  0
  -31.4751  -12.4869   19.1036 H   0  0  0  0  0  0
  -30.3818  -11.3228   19.7983 H   0  0  0  0  0  0
  -29.7449  -11.7953   17.4278 H   0  0  0  0  0  0
  -29.6620  -13.5035   17.7593 H   0  0  0  0  0  0
  -27.8244  -11.3099   18.7976 H   0  0  0  0  0  0
  -27.3658  -12.6568   17.7853 H   0  0  0  0  0  0
  -27.6988  -14.2465   19.5851 H   0  0  0  0  0  0
  -28.6949  -11.9080   21.3039 H   0  0  0  0  0  0
  -28.4574  -13.5251   21.8972 H   0  0  0  0  0  0
  -25.2816   -9.5652   22.4732 H   0  0  0  0  0  0
  -24.0029   -7.4628   22.7453 H   0  0  0  0  0  0
  -21.0861   -8.8813   19.8956 H   0  0  0  0  0  0
  -22.3758  -10.9689   19.6163 H   0  0  0  0  0  0
  -21.1988   -7.6152   23.9724 H   0  0  0  0  0  0
  -21.1471   -6.0522   25.9090 H   0  0  0  0  0  0
  -22.0603   -2.7613   23.2846 H   0  0  0  0  0  0
  -22.4154  -11.9815   22.4780 H   0  0  0  0  0  0
  -21.1148  -13.1205   22.2679 H   0  0  0  0  0  0
  -24.6084  -15.7885   20.4047 H   0  0  0  0  0  0
  -26.1821  -15.5667   19.8380 H   0  0  0  0  0  0
  -26.7193  -32.5525   23.1168 H   0  0  0  0  0  0
  -25.0065  -33.9720   25.0524 H   0  0  0  0  0  0
  -22.6903  -31.3058   21.4290 H   0  0  0  0  0  0
  -23.3744  -35.9662   23.3320 H   0  0  0  0  0  0
  -24.3621  -36.8921   22.2071 H   0  0  0  0  0  0
  -23.7184  -37.6514   23.6642 H   0  0  0  0  0  0
  -26.0548  -31.5777   20.5807 H   0  0  0  0  0  0
  -26.8365  -30.8814   21.9664 H   0  0  0  0  0  0
  -28.1002  -29.0091   21.1634 H   0  0  0  0  0  0
  -25.9271  -25.9220   19.0605 H   0  0  0  0  0  0
  -23.9246  -27.3071   19.0573 H   0  0  0  0  0  0
  -23.7612  -30.6444   19.4307 H   0  0  0  0  0  0
  -22.7324  -29.2956   19.8402 H   0  0  0  0  0  0
  -25.1268  -36.2052   25.0840 H   0  0  0  0  0  0
  -20.9977  -28.3258   24.1408 H   0  0  0  0  0  0
  -20.5745  -26.2079   23.3472 H   0  0  0  0  0  0
  -21.6642  -26.7562   22.1201 H   0  0  0  0  0  0
  -19.6707  -25.5815   21.1968 H   0  0  0  0  0  0
  -19.6541  -27.2570   20.6583 H   0  0  0  0  0  0
  -17.3996  -26.6723   21.4189 H   0  0  0  0  0  0
  -18.0031  -26.0048   22.9084 H   0  0  0  0  0  0
  -19.8217  -30.7297   24.2011 H   0  0  0  0  0  0
  -17.5369  -31.6442   24.4995 H   0  0  0  0  0  0
  -15.5470  -30.3070   23.7715 H   0  0  0  0  0  0
  -15.8632  -28.0797   22.7356 H   0  0  0  0  0  0
  -24.5957  -30.6904   25.7796 H   0  0  0  0  0  0
  -24.8851  -32.2664   26.4989 H   0  0  0  0  0  0
  -25.8073  -30.8706   27.0208 H   0  0  0  0  0  0
  -26.2804  -29.6871   24.1009 H   0  0  0  0  0  0
  -27.4089  -29.7184   25.4385 H   0  0  0  0  0  0
  -27.8613  -30.4451   23.9119 H   0  0  0  0  0  0
  -27.2772  -33.3570   26.2055 H   0  0  0  0  0  0
  -28.3858  -32.6738   25.0260 H   0  0  0  0  0  0
  -28.0772  -31.8332   26.5368 H   0  0  0  0  0  0
  -28.2636  -38.0117   24.7555 H   0  0  0  0  0  0
  -28.1054  -36.2662   24.6286 H   0  0  0  0  0  0
  -27.2336  -37.1471   25.8892 H   0  0  0  0  0  0
  -20.9277  -29.9235   21.7573 H   0  0  0  0  0  0
  -26.0202  -38.2913   24.1398 H   0  0  0  0  0  0
  -26.9208  -22.3832   22.4744 H   0  0  0  0  0  0
  -27.5659  -24.6260   21.7540 H   0  0  0  0  0  0
  -28.3137  -23.1420   17.7999 H   0  0  0  0  0  0
  -28.6192  -18.0625   23.1242 H   0  0  0  0  0  0
  -29.7741  -19.2962   22.7352 H   0  0  0  0  0  0
  -28.2867  -21.0575   23.4523 H   0  0  0  0  0  0
  -28.2645  -19.8141   24.6576 H   0  0  0  0  0  0
  -25.6270  -18.6788   22.1171 H   0  0  0  0  0  0
  -25.1256  -20.3441   21.9906 H   0  0  0  0  0  0
  -26.5805  -19.4565   20.1418 H   0  0  0  0  0  0
  -28.0499  -20.9158   17.2086 H   0  0  0  0  0  0
  -26.7575  -20.0913   18.0418 H   0  0  0  0  0  0
  -28.4387  -19.7440   18.4613 H   0  0  0  0  0  0
  -27.9696  -25.6739   18.2498 H   0  0  0  0  0  0
  -29.5090  -25.3425   18.9682 H   0  0  0  0  0  0
  -27.5801  -17.0875   21.3934 H   0  0  0  0  0  0
  -27.8727  -17.6456   19.7753 H   0  0  0  0  0  0
  -30.3622  -17.3831   21.4995 H   0  0  0  0  0  0
  -30.1857  -17.2627   19.7827 H   0  0  0  0  0  0
  -28.7730  -15.1432   21.1856 H   0  0  0  0  0  0
  -26.0756  -20.7579   23.9029 H   0  0  0  0  0  0
  -26.1826  -19.1608   24.0957 H   0  0  0  0  0  0
  1 25  1  0  0  0
  1 30  2  0  0  0
  1 86  1  0  0  0
  2  3  1  0  0  0
  2 25  1  0  0  0
  2 88  1  0  0  0
  2 89  1  0  0  0
  3  4  1  0  0  0
  3 90  1  0  0  0
  3 91  1  0  0  0
  4  5  1  0  0  0
  4 92  1  0  0  0
  4 93  1  0  0  0
  5  6  1  0  0  0
  5 26  1  0  0  0
  5 94  1  0  0  0
  6 25  1  0  0  0
  6 95  1  0  0  0
  6 96  1  0  0  0
  7  8  2  0  0  0
  7 26  1  0  0  0
  7 29  1  0  0  0
  8  9  1  0  0  0
  8 22  1  0  0  0
  9 10  1  0  0  0
  9 27  2  0  0  0
 10 11  2  0  0  0
 10 15  1  0  0  0
 11 12  1  0  0  0
 11 97  1  0  0  0
 12 13  2  0  0  0
 12 98  1  0  0  0
 13 14  1  0  0  0
 13 31  1  0  0  0
 14 15  2  0  0  0
 14 99  1  0  0  0
 15100  1  0  0  0
 16 17  2  0  0  0
 16 21  1  0  0  0
 16 31  1  0  0  0
 17 18  1  0  0  0
 17101  1  0  0  0
 18 19  2  0  0  0
 18102  1  0  0  0
 19 20  1  0  0  0
 19 24  1  0  0  0
 20 21  2  0  0  0
 20103  1  0  0  0
 21 23  1  0  0  0
 22 28  1  0  0  0
 22 32  2  0  0  0
 26 27  1  0  0  0
 28104  1  0  0  0
 28105  1  0  0  0
 29106  1  0  0  0
 29107  1  0  0  0
 33 34  1  0  0  0
 33 66  1  0  0  0
 33 70  2  0  0  0
 34 36  1  0  0  0
 34 59  1  0  0  0
 34108  1  0  0  0
 35 44  2  0  0  0
 35 45  1  0  0  0
 35 68  1  0  0  0
 36 56  1  0  0  0
 36109  1  0  0  0
 37 39  1  0  0  0
 37 47  1  0  0  0
 37 66  1  0  0  0
 37110  1  0  0  0
 38 43  2  0  0  0
 38 46  1  0  0  0
 38 47  1  0  0  0
 39 64  1  0  0  0
 39 67  2  0  0  0
 40 52  1  0  0  0
 40 53  2  0  0  0
 40 58  1  0  0  0
 41111  1  0  0  0
 41112  1  0  0  0
 41113  1  0  0  0
 41 48  1  0  0  0
 42 43  1  0  0  0
 42 66  1  0  0  0
 42114  1  0  0  0
 42115  1  0  0  0
 43 44  1  0  0  0
 44116  1  0  0  0
 45 46  2  0  0  0
 45117  1  0  0  0
 46118  1  0  0  0
 47119  1  0  0  0
 47120  1  0  0  0
 48 56  1  0  0  0
 48 65  1  0  0  0
 48121  1  0  0  0
 49 50  1  0  0  0
 49 53  1  0  0  0
 49 64  1  0  0  0
 49122  1  0  0  0
 50 51  1  0  0  0
 50123  1  0  0  0
 50124  1  0  0  0
 51 52  1  0  0  0
 51125  1  0  0  0
 51126  1  0  0  0
 52127  1  0  0  0
 52128  1  0  0  0
 53 54  1  0  0  0
 54 55  2  0  0  0
 54129  1  0  0  0
 55 57  1  0  0  0
 55130  1  0  0  0
 56 69  2  0  0  0
 57 58  2  0  0  0
 57131  1  0  0  0
 58132  1  0  0  0
 59 60  1  0  0  0
 59 61  1  0  0  0
 59 62  1  0  0  0
 60133  1  0  0  0
 60134  1  0  0  0
 60135  1  0  0  0
 61136  1  0  0  0
 61137  1  0  0  0
 61138  1  0  0  0
 62139  1  0  0  0
 62140  1  0  0  0
 62141  1  0  0  0
 63 65  1  0  0  0
 63142  1  0  0  0
 63143  1  0  0  0
 63144  1  0  0  0
 64145  1  0  0  0
 65146  1  0  0  0
 68 82  1  0  0  0
 71 72  2  0  0  0
 71 74  1  0  0  0
 71147  1  0  0  0
 72 75  1  0  0  0
 72148  1  0  0  0
 73 75  2  0  0  0
 73 76  1  0  0  0
 73149  1  0  0  0
 74 76  2  0  0  0
 74 80  1  0  0  0
 75 82  1  0  0  0
 76 81  1  0  0  0
 77 78  1  0  0  0
 77 85  1  0  0  0
 77150  1  0  0  0
 77151  1  0  0  0
 78 87  1  0  0  0
 78152  1  0  0  0
 78153  1  0  0  0
 79 80  1  0  0  0
 79 87  1  0  0  0
 79154  1  0  0  0
 79155  1  0  0  0
 80 85  1  0  0  0
 80156  1  0  0  0
 81157  1  0  0  0
 81158  1  0  0  0
 81159  1  0  0  0
 82160  1  0  0  0
 82161  1  0  0  0
 83 84  1  0  0  0
 83 85  1  0  0  0
 83162  1  0  0  0
 83163  1  0  0  0
 84 86  1  0  0  0
 84164  1  0  0  0
 84165  1  0  0  0
 86166  1  0  0  0
 87167  1  0  0  0
 87168  1  0  0  0
M  CHG  1  87   1
M  ISO  4   1 100  68 101  82 101  86 100
M  END
> <chiral flag>
0

> <version>
0

> <s_m_source_file>
/data/baiqing/PycharmProjects/Reinvent-master-3.2/result/LINK_invent/BTK/process_docking_weight1_custom_sum_contain_oxygen_bond_distance_aromatic_linkinvent_7_9_3/rearranged_h_0124.sdf

> <i_m_source_file_index>
94

> <r_mmod_Potential_Energy-OPLS-2005>
-99.8215103149414

> <r_mmod_Stretch_Energy-OPLS-2005>
60.813907623291

> <r_mmod_Bend_Energy-OPLS-2005>
133.988723754883

> <r_mmod_Torsional_Energy-OPLS-2005>
284.327880859375

> <r_mmod_Improper_Torsional_Energy-OPLS-2005>
7.40470170974731

> <r_mmod_Van_der_Waal_Energy-OPLS-2005>
163.374313354492

> <r_mmod_Electrostatic_Energy-OPLS-2005>
-295.309204101562

> <r_mmod_Solvation_Energy-OPLS-2005>
-485.243591308594

> <b_mmod_Minimization_Converged-OPLS-2005>
0

> <r_mmod_RMS_Derivative-OPLS-2005>
10.2858514785767

$$$$
