0
                    3D
 Structure written by MMmdl.
172180  0  0  1  0            999 V2000
  -30.6839  -14.5416   20.5472 C   0  0  0  0  0  0
  -30.4257  -12.3452   19.4309 C   0  0  0  0  0  0
  -29.4968  -12.5068   18.2094 C   0  0  0  0  0  0
  -28.0188  -12.3600   18.6245 C   0  0  0  0  0  0
  -27.6571  -13.2147   19.8693 C   0  0  2  0  0  0
  -28.7018  -13.0379   20.9928 C   0  0  0  0  0  0
  -25.2578  -13.8174   20.5693 C   0  0  0  0  0  0
  -24.1831  -13.0446   20.9177 C   0  0  0  0  0  0
  -24.6396  -11.6919   20.8742 C   0  0  0  0  0  0
  -23.9073  -10.4294   21.0415 C   0  0  0  0  0  0
  -24.3617   -9.4208   21.9192 C   0  0  0  0  0  0
  -23.6292   -8.2248   22.0756 C   0  0  0  0  0  0
  -22.4281   -8.0282   21.3543 C   0  0  0  0  0  0
  -21.9917   -9.0255   20.4644 C   0  0  0  0  0  0
  -22.7250  -10.2138   20.3057 C   0  0  0  0  0  0
  -21.6853   -6.0736   22.5282 C   0  0  0  0  0  0
  -21.4008   -6.5639   23.8209 C   0  0  0  0  0  0
  -21.3661   -5.6795   24.9171 C   0  0  0  0  0  0
  -21.6041   -4.3056   24.7228 C   0  0  0  0  0  0
  -21.8819   -3.8150   23.4351 C   0  0  0  0  0  0
  -21.9192   -4.6964   22.3408 C   0  0  0  0  0  0
  -22.7855  -13.5237   21.1846 C   0  0  0  0  0  0
  -22.1662   -4.2150   21.0985 F   0  0  0  0  0  0
  -21.5633   -3.4544   25.7746 F   0  0  0  0  0  0
  -30.0228  -13.3536   20.4276 N   0  0  0  0  0  0
  -26.3015  -12.9353   20.3364 N   0  0  0  0  0  0
  -25.9331  -11.6506   20.5776 N   0  0  0  0  0  0
  -22.0490  -12.8224   22.0395 N   0  0  0  0  0  0
  -25.4305  -15.1891   20.4110 N   0  0  0  0  0  0
  -31.8334  -14.6981   20.1268 O   0  0  0  0  0  0
  -21.6642   -6.8883   21.4247 O   0  0  0  0  0  0
  -22.3549  -14.5556   20.6709 O   0  0  0  0  0  0
  -24.6196  -31.8655   23.2103 C   0  0  0  0  0  0
  -25.9076  -32.4812   23.8399 C   0  0  1  0  0  0
  -27.2242  -27.3886   20.1111 C   0  0  0  0  0  0
  -25.5928  -33.8609   24.2340 N   0  0  0  0  0  0
  -23.4102  -30.4889   21.5510 C   0  0  2  0  0  0
  -24.8597  -28.9583   20.1072 C   0  0  0  0  0  0
  -22.7439  -29.4626   22.4976 C   0  0  0  0  0  0
  -18.0264  -28.1384   22.8491 C   0  0  0  0  0  0
  -24.1479  -36.7287   23.2637 C   0  0  0  0  0  0
  -25.9445  -30.8171   21.3720 C   0  0  0  0  0  0
  -26.0229  -29.4505   20.7140 C   0  0  0  0  0  0
  -27.2125  -28.6746   20.7114 C   0  0  0  0  0  0
  -26.0499  -26.9366   19.4712 C   0  0  0  0  0  0
  -24.8717  -27.7046   19.4758 C   0  0  0  0  0  0
  -23.6207  -29.8273   20.1630 C   0  0  0  0  0  0
  -25.4106  -36.3101   24.0338 C   0  0  1  0  0  0
  -20.5860  -28.3673   23.1310 C   0  0  2  0  0  0
  -20.6761  -26.9402   22.5423 C   0  0  0  0  0  0
  -19.5746  -26.6375   21.5218 C   0  0  0  0  0  0
  -18.1907  -26.7929   22.1611 C   0  0  0  0  0  0
  -19.1516  -28.8840   23.2901 C   0  0  0  0  0  0
  -18.9452  -30.1449   23.8924 C   0  0  0  0  0  0
  -17.6457  -30.6598   24.0558 C   0  0  0  0  0  0
  -25.9040  -34.9461   23.5142 C   0  0  0  0  0  0
  -16.5345  -29.9087   23.6346 C   0  0  0  0  0  0
  -16.7256  -28.6495   23.0376 C   0  0  0  0  0  0
  -26.4491  -31.6598   25.0736 C   0  0  0  0  0  0
  -25.3740  -31.3695   26.1470 C   0  0  0  0  0  0
  -27.0335  -30.3039   24.6136 C   0  0  0  0  0  0
  -27.6074  -32.4313   25.7506 C   0  0  0  0  0  0
  -27.5582  -37.1794   24.8465 C   0  0  0  0  0  0
  -21.4156  -29.3040   22.3725 N   0  0  0  0  0  0
  -26.4283  -37.3797   23.9423 N   0  0  0  0  0  0
  -24.6762  -31.0701   22.1029 N   0  0  0  0  0  0
  -23.4183  -28.8155   23.3026 O   0  0  0  0  0  0
  -28.3281  -26.5495   20.1493 O   0  0  0  0  0  0
  -26.5578  -34.8911   22.4689 O   0  0  0  0  0  0
  -23.5380  -32.1424   23.7468 O   0  0  0  0  0  0
  -30.1379  -23.9949   19.9444 C   0  0  0  0  0  0
  -28.8529  -24.0464   20.4072 C   0  0  0  0  0  0
  -28.3959  -22.6753   20.4371 C   0  0  0  0  0  0
  -29.3974  -21.8567   19.9517 C   0  0  0  0  0  0
  -29.7551  -19.3764   20.6430 C   0  0  0  0  0  0
  -30.0191  -18.0749   20.3250 C   0  0  0  0  0  0
  -29.4006  -20.4008   19.6125 C   0  0  0  0  0  0
  -24.6478  -21.6608   20.1460 C   0  0  0  0  0  0
  -30.9719  -22.4556   16.6467 C   0  0  0  0  0  0
  -33.4464  -22.5323   17.1781 C   0  0  0  0  0  0
  -27.0294  -22.2086   20.8899 C   0  0  0  0  0  0
  -28.0804  -25.3017   20.8613 C   0  0  0  0  0  0
  -30.4531  -16.9656   21.3049 C   0  0  0  0  0  0
  -26.0736  -22.0103   19.7053 C   0  0  0  0  0  0
  -31.7802  -22.3055   19.0839 C   0  0  0  0  0  0
  -32.0355  -22.8847   17.6724 C   0  0  0  0  0  0
  -30.4789  -22.6843   19.6343 N   0  0  0  0  0  0
  -29.9650  -15.5898   21.0206 N   0  0  0  0  0  0
  -29.1322  -20.0695   18.4548 O   0  0  0  0  0  0
  -31.4706  -12.4465   19.1305 H   0  0  0  0  0  0
  -30.3328  -11.3431   19.8518 H   0  0  0  0  0  0
  -29.7430  -11.7665   17.4473 H   0  0  0  0  0  0
  -29.6548  -13.4845   17.7502 H   0  0  0  0  0  0
  -27.8402  -11.3054   18.8366 H   0  0  0  0  0  0
  -27.3651  -12.6160   17.7907 H   0  0  0  0  0  0
  -27.6863  -14.2574   19.5512 H   0  0  0  0  0  0
  -28.6936  -12.0116   21.3635 H   0  0  0  0  0  0
  -28.4618  -13.6627   21.8547 H   0  0  0  0  0  0
  -25.2760   -9.5689   22.4773 H   0  0  0  0  0  0
  -24.0001   -7.4638   22.7477 H   0  0  0  0  0  0
  -21.0853   -8.8776   19.8947 H   0  0  0  0  0  0
  -22.3712  -10.9675   19.6168 H   0  0  0  0  0  0
  -21.1993   -7.6144   23.9717 H   0  0  0  0  0  0
  -21.1480   -6.0523   25.9074 H   0  0  0  0  0  0
  -22.0597   -2.7616   23.2854 H   0  0  0  0  0  0
  -22.4093  -11.9867   22.4769 H   0  0  0  0  0  0
  -21.1119  -13.1262   22.2618 H   0  0  0  0  0  0
  -24.6657  -15.8466   20.5131 H   0  0  0  0  0  0
  -26.2835  -15.6249   20.0848 H   0  0  0  0  0  0
  -26.7142  -32.5508   23.1154 H   0  0  0  0  0  0
  -25.0124  -33.9768   25.0520 H   0  0  0  0  0  0
  -22.7014  -31.3075   21.4113 H   0  0  0  0  0  0
  -23.3758  -35.9598   23.3293 H   0  0  0  0  0  0
  -24.3572  -36.8926   22.2055 H   0  0  0  0  0  0
  -23.7204  -37.6475   23.6663 H   0  0  0  0  0  0
  -26.0635  -31.5813   20.6026 H   0  0  0  0  0  0
  -26.8286  -30.8666   21.9962 H   0  0  0  0  0  0
  -28.1042  -29.0395   21.2014 H   0  0  0  0  0  0
  -26.0384  -25.9725   18.9829 H   0  0  0  0  0  0
  -23.9823  -27.3285   18.9904 H   0  0  0  0  0  0
  -23.7245  -30.6054   19.4055 H   0  0  0  0  0  0
  -22.7442  -29.2478   19.8695 H   0  0  0  0  0  0
  -25.1280  -36.1968   25.0827 H   0  0  0  0  0  0
  -20.9943  -28.3244   24.1434 H   0  0  0  0  0  0
  -20.5704  -26.2271   23.3608 H   0  0  0  0  0  0
  -21.6625  -26.7460   22.1194 H   0  0  0  0  0  0
  -19.6918  -25.6290   21.1241 H   0  0  0  0  0  0
  -19.6701  -27.3187   20.6751 H   0  0  0  0  0  0
  -17.4192  -26.6706   21.3990 H   0  0  0  0  0  0
  -18.0295  -26.0053   22.8994 H   0  0  0  0  0  0
  -19.7939  -30.7251   24.2303 H   0  0  0  0  0  0
  -17.5011  -31.6291   24.5140 H   0  0  0  0  0  0
  -15.5348  -30.2998   23.7667 H   0  0  0  0  0  0
  -15.8646  -28.0813   22.7122 H   0  0  0  0  0  0
  -24.5953  -30.6999   25.7803 H   0  0  0  0  0  0
  -24.8857  -32.2825   26.4890 H   0  0  0  0  0  0
  -25.8066  -30.8897   27.0259 H   0  0  0  0  0  0
  -26.2886  -29.6787   24.1196 H   0  0  0  0  0  0
  -27.4116  -29.7300   25.4610 H   0  0  0  0  0  0
  -27.8717  -30.4360   23.9285 H   0  0  0  0  0  0
  -27.2730  -33.3651   26.2043 H   0  0  0  0  0  0
  -28.3910  -32.6828   25.0342 H   0  0  0  0  0  0
  -28.0695  -31.8447   26.5458 H   0  0  0  0  0  0
  -28.2592  -38.0108   24.7544 H   0  0  0  0  0  0
  -28.1095  -36.2638   24.6257 H   0  0  0  0  0  0
  -27.2282  -37.1392   25.8864 H   0  0  0  0  0  0
  -20.9331  -29.8773   21.6950 H   0  0  0  0  0  0
  -26.0177  -38.2874   24.1455 H   0  0  0  0  0  0
  -30.8486  -24.7969   19.7895 H   0  0  0  0  0  0
  -29.8102  -19.7116   21.6682 H   0  0  0  0  0  0
  -29.9692  -17.7754   19.2872 H   0  0  0  0  0  0
  -24.0019  -21.4969   19.2825 H   0  0  0  0  0  0
  -24.2090  -22.4653   20.7365 H   0  0  0  0  0  0
  -24.6315  -20.7534   20.7507 H   0  0  0  0  0  0
  -31.1704  -22.8902   15.6662 H   0  0  0  0  0  0
  -29.9740  -22.7776   16.9471 H   0  0  0  0  0  0
  -30.9491  -21.3718   16.5305 H   0  0  0  0  0  0
  -33.6530  -22.9862   16.2083 H   0  0  0  0  0  0
  -33.5748  -21.4544   17.0740 H   0  0  0  0  0  0
  -34.2071  -22.8920   17.8718 H   0  0  0  0  0  0
  -26.6107  -22.9250   21.5972 H   0  0  0  0  0  0
  -27.1339  -21.2759   21.4446 H   0  0  0  0  0  0
  -28.3317  -25.4713   21.9089 H   0  0  0  0  0  0
  -27.0220  -25.0406   20.8665 H   0  0  0  0  0  0
  -30.1349  -17.2384   22.3115 H   0  0  0  0  0  0
  -31.5442  -16.9631   21.3339 H   0  0  0  0  0  0
  -26.0471  -22.9176   19.1001 H   0  0  0  0  0  0
  -26.4536  -21.2191   19.0579 H   0  0  0  0  0  0
  -32.5463  -22.6657   19.7731 H   0  0  0  0  0  0
  -31.8831  -21.2206   19.0675 H   0  0  0  0  0  0
  -31.9920  -23.9719   17.7440 H   0  0  0  0  0  0
  -29.0185  -15.3785   21.3004 H   0  0  0  0  0  0
  1 25  1  0  0  0
  1 30  2  0  0  0
  1 88  1  0  0  0
  2  3  1  0  0  0
  2 25  1  0  0  0
  2 90  1  0  0  0
  2 91  1  0  0  0
  3  4  1  0  0  0
  3 92  1  0  0  0
  3 93  1  0  0  0
  4  5  1  0  0  0
  4 94  1  0  0  0
  4 95  1  0  0  0
  5  6  1  0  0  0
  5 26  1  0  0  0
  5 96  1  0  0  0
  6 25  1  0  0  0
  6 97  1  0  0  0
  6 98  1  0  0  0
  7  8  2  0  0  0
  7 26  1  0  0  0
  7 29  1  0  0  0
  8  9  1  0  0  0
  8 22  1  0  0  0
  9 10  1  0  0  0
  9 27  2  0  0  0
 10 11  2  0  0  0
 10 15  1  0  0  0
 11 12  1  0  0  0
 11 99  1  0  0  0
 12 13  2  0  0  0
 12100  1  0  0  0
 13 14  1  0  0  0
 13 31  1  0  0  0
 14 15  2  0  0  0
 14101  1  0  0  0
 15102  1  0  0  0
 16 17  2  0  0  0
 16 21  1  0  0  0
 16 31  1  0  0  0
 17 18  1  0  0  0
 17103  1  0  0  0
 18 19  2  0  0  0
 18104  1  0  0  0
 19 20  1  0  0  0
 19 24  1  0  0  0
 20 21  2  0  0  0
 20105  1  0  0  0
 21 23  1  0  0  0
 22 28  1  0  0  0
 22 32  2  0  0  0
 26 27  1  0  0  0
 28106  1  0  0  0
 28107  1  0  0  0
 29108  1  0  0  0
 29109  1  0  0  0
 33 34  1  0  0  0
 33 66  1  0  0  0
 33 70  2  0  0  0
 34 36  1  0  0  0
 34 59  1  0  0  0
 34110  1  0  0  0
 35 44  2  0  0  0
 35 45  1  0  0  0
 35 68  1  0  0  0
 36 56  1  0  0  0
 36111  1  0  0  0
 37 39  1  0  0  0
 37 47  1  0  0  0
 37 66  1  0  0  0
 37112  1  0  0  0
 38 43  2  0  0  0
 38 46  1  0  0  0
 38 47  1  0  0  0
 39 64  1  0  0  0
 39 67  2  0  0  0
 40 52  1  0  0  0
 40 53  2  0  0  0
 40 58  1  0  0  0
 41113  1  0  0  0
 41114  1  0  0  0
 41115  1  0  0  0
 41 48  1  0  0  0
 42 43  1  0  0  0
 42 66  1  0  0  0
 42116  1  0  0  0
 42117  1  0  0  0
 43 44  1  0  0  0
 44118  1  0  0  0
 45 46  2  0  0  0
 45119  1  0  0  0
 46120  1  0  0  0
 47121  1  0  0  0
 47122  1  0  0  0
 48 56  1  0  0  0
 48 65  1  0  0  0
 48123  1  0  0  0
 49 50  1  0  0  0
 49 53  1  0  0  0
 49 64  1  0  0  0
 49124  1  0  0  0
 50 51  1  0  0  0
 50125  1  0  0  0
 50126  1  0  0  0
 51 52  1  0  0  0
 51127  1  0  0  0
 51128  1  0  0  0
 52129  1  0  0  0
 52130  1  0  0  0
 53 54  1  0  0  0
 54 55  2  0  0  0
 54131  1  0  0  0
 55 57  1  0  0  0
 55132  1  0  0  0
 56 69  2  0  0  0
 57 58  2  0  0  0
 57133  1  0  0  0
 58134  1  0  0  0
 59 60  1  0  0  0
 59 61  1  0  0  0
 59 62  1  0  0  0
 60135  1  0  0  0
 60136  1  0  0  0
 60137  1  0  0  0
 61138  1  0  0  0
 61139  1  0  0  0
 61140  1  0  0  0
 62141  1  0  0  0
 62142  1  0  0  0
 62143  1  0  0  0
 63 65  1  0  0  0
 63144  1  0  0  0
 63145  1  0  0  0
 63146  1  0  0  0
 64147  1  0  0  0
 65148  1  0  0  0
 68 82  1  0  0  0
 71 72  2  0  0  0
 71 87  1  0  0  0
 71149  1  0  0  0
 72 73  1  0  0  0
 72 82  1  0  0  0
 73 74  2  0  0  0
 73 81  1  0  0  0
 74 77  1  0  0  0
 74 87  1  0  0  0
 75 76  2  0  0  0
 75 77  1  0  0  0
 75150  1  0  0  0
 76 83  1  0  0  0
 76151  1  0  0  0
 77 89  2  0  0  0
 78 84  1  0  0  0
 78152  1  0  0  0
 78153  1  0  0  0
 78154  1  0  0  0
 79155  1  0  0  0
 79156  1  0  0  0
 79157  1  0  0  0
 79 86  1  0  0  0
 80 86  1  0  0  0
 80158  1  0  0  0
 80159  1  0  0  0
 80160  1  0  0  0
 81 84  1  0  0  0
 81161  1  0  0  0
 81162  1  0  0  0
 82163  1  0  0  0
 82164  1  0  0  0
 83 88  1  0  0  0
 83165  1  0  0  0
 83166  1  0  0  0
 84167  1  0  0  0
 84168  1  0  0  0
 85 86  1  0  0  0
 85 87  1  0  0  0
 85169  1  0  0  0
 85170  1  0  0  0
 86171  1  0  0  0
 88172  1  0  0  0
M  ISO  4   1 100  68 101  82 101  88 100
M  END
> <chiral flag>
0

> <version>
0

> <s_m_source_file>
/data/baiqing/PycharmProjects/Reinvent-master-3.2/result/LINK_invent/BTK/process_docking_weight1_custom_sum_contain_oxygen_bond_distance_aromatic_linkinvent_7_9_3/rearranged_h_0113.sdf

> <i_m_source_file_index>
1

> <r_mmod_Potential_Energy-OPLS-2005>
45.3053932189941

> <r_mmod_Stretch_Energy-OPLS-2005>
50.4267997741699

> <r_mmod_Bend_Energy-OPLS-2005>
108.654762268066

> <r_mmod_Torsional_Energy-OPLS-2005>
275.939971923828

> <r_mmod_Improper_Torsional_Energy-OPLS-2005>
4.12987232208252

> <r_mmod_Van_der_Waal_Energy-OPLS-2005>
116.158340454102

> <r_mmod_Electrostatic_Energy-OPLS-2005>
-322.0791015625

> <r_mmod_Solvation_Energy-OPLS-2005>
-213.88069152832

> <b_mmod_Minimization_Converged-OPLS-2005>
0

> <r_mmod_RMS_Derivative-OPLS-2005>
2.05266284942627

$$$$
1
                    3D
 Structure written by MMmdl.
176185  0  0  1  0            999 V2000
  -30.6798  -14.6988   20.3730 C   0  0  0  0  0  0
  -30.4114  -12.4246   19.4455 C   0  0  0  0  0  0
  -29.4874  -12.4645   18.2120 C   0  0  0  0  0  0
  -28.0159  -12.3183   18.6392 C   0  0  0  0  0  0
  -27.6320  -13.2371   19.8317 C   0  0  2  0  0  0
  -28.6886  -13.2142   20.9546 C   0  0  0  0  0  0
  -25.2491  -13.8217   20.5712 C   0  0  0  0  0  0
  -24.1797  -13.0448   20.9231 C   0  0  0  0  0  0
  -24.6404  -11.6931   20.8776 C   0  0  0  0  0  0
  -23.9086  -10.4299   21.0414 C   0  0  0  0  0  0
  -24.3630   -9.4209   21.9193 C   0  0  0  0  0  0
  -23.6300   -8.2245   22.0761 C   0  0  0  0  0  0
  -22.4285   -8.0287   21.3544 C   0  0  0  0  0  0
  -21.9922   -9.0265   20.4647 C   0  0  0  0  0  0
  -22.7257  -10.2144   20.3061 C   0  0  0  0  0  0
  -21.6857   -6.0744   22.5280 C   0  0  0  0  0  0
  -21.4017   -6.5645   23.8215 C   0  0  0  0  0  0
  -21.3658   -5.6797   24.9174 C   0  0  0  0  0  0
  -21.6041   -4.3058   24.7224 C   0  0  0  0  0  0
  -21.8819   -3.8151   23.4343 C   0  0  0  0  0  0
  -21.9195   -4.6970   22.3401 C   0  0  0  0  0  0
  -22.7817  -13.5222   21.1876 C   0  0  0  0  0  0
  -22.1662   -4.2155   21.0979 F   0  0  0  0  0  0
  -21.5627   -3.4543   25.7738 F   0  0  0  0  0  0
  -29.9781  -13.5221   20.3323 N   0  0  0  0  0  0
  -26.2914  -12.9439   20.3263 N   0  0  0  0  0  0
  -25.9336  -11.6578   20.5771 N   0  0  0  0  0  0
  -22.0467  -12.8206   22.0420 N   0  0  0  0  0  0
  -25.4160  -15.1949   20.4129 N   0  0  0  0  0  0
  -31.9085  -14.6480   20.3808 O   0  0  0  0  0  0
  -21.6646   -6.8887   21.4238 O   0  0  0  0  0  0
  -22.3494  -14.5525   20.6726 O   0  0  0  0  0  0
  -24.6267  -31.8593   23.1990 C   0  0  0  0  0  0
  -25.9120  -32.4788   23.8334 C   0  0  1  0  0  0
  -27.2233  -27.3020   20.1392 C   0  0  0  0  0  0
  -25.5937  -33.8580   24.2279 N   0  0  0  0  0  0
  -23.4203  -30.4785   21.5442 C   0  0  2  0  0  0
  -24.8661  -28.9191   20.1208 C   0  0  0  0  0  0
  -22.7475  -29.4620   22.4959 C   0  0  0  0  0  0
  -18.0271  -28.1380   22.8470 C   0  0  0  0  0  0
  -24.1489  -36.7289   23.2643 C   0  0  0  0  0  0
  -25.9570  -30.7874   21.3662 C   0  0  0  0  0  0
  -26.0345  -29.4077   20.7197 C   0  0  0  0  0  0
  -27.2186  -28.6132   20.7106 C   0  0  0  0  0  0
  -26.0342  -26.8542   19.5306 C   0  0  0  0  0  0
  -24.8677  -27.6490   19.5196 C   0  0  0  0  0  0
  -23.6355  -29.8054   20.1606 C   0  0  0  0  0  0
  -25.4116  -36.3092   24.0338 C   0  0  1  0  0  0
  -20.5875  -28.3683   23.1292 C   0  0  2  0  0  0
  -20.6772  -26.9407   22.5422 C   0  0  0  0  0  0
  -19.5750  -26.6379   21.5224 C   0  0  0  0  0  0
  -18.1915  -26.7923   22.1618 C   0  0  0  0  0  0
  -19.1524  -28.8852   23.2867 C   0  0  0  0  0  0
  -18.9462  -30.1447   23.8892 C   0  0  0  0  0  0
  -17.6470  -30.6587   24.0559 C   0  0  0  0  0  0
  -25.9055  -34.9460   23.5116 C   0  0  0  0  0  0
  -16.5355  -29.9085   23.6329 C   0  0  0  0  0  0
  -16.7271  -28.6501   23.0349 C   0  0  0  0  0  0
  -26.4484  -31.6595   25.0702 C   0  0  0  0  0  0
  -25.3707  -31.3724   26.1428 C   0  0  0  0  0  0
  -27.0339  -30.3035   24.6133 C   0  0  0  0  0  0
  -27.6048  -32.4313   25.7470 C   0  0  0  0  0  0
  -27.5582  -37.1798   24.8467 C   0  0  0  0  0  0
  -21.4188  -29.3031   22.3696 N   0  0  0  0  0  0
  -26.4295  -37.3790   23.9409 N   0  0  0  0  0  0
  -24.6865  -31.0600   22.0944 N   0  0  0  0  0  0
  -23.4187  -28.8164   23.3038 O   0  0  0  0  0  0
  -28.3752  -26.5109   20.0733 O   0  0  0  0  0  0
  -26.5624  -34.8929   22.4675 O   0  0  0  0  0  0
  -23.5434  -32.1400   23.7324 O   0  0  0  0  0  0
  -31.5309  -19.0475   19.0875 C   0  0  0  0  0  0
  -32.2775  -18.1510   18.3935 C   0  0  0  0  0  0
  -31.6312  -16.8932   18.5275 C   0  0  0  0  0  0
  -30.6487  -17.0286   19.5018 C   0  0  0  0  0  0
  -28.7860  -20.1892   18.8169 C   0  0  0  0  0  0
  -27.9411  -21.4845   19.0444 C   0  0  0  0  0  0
  -28.8090  -21.7908   21.2481 C   0  0  0  0  0  0
  -29.7145  -20.4838   21.1375 C   0  0  2  0  0  0
  -29.2863  -19.3867   20.0732 C   0  0  2  0  0  0
  -32.0336  -15.6881   17.6998 C   0  0  0  0  0  0
  -29.8974  -19.8196   22.5132 C   0  0  0  0  0  0
  -34.5833  -19.1614   18.4345 C   0  0  0  0  0  0
  -33.1394  -19.3335   16.3515 C   0  0  0  0  0  0
  -27.8422  -23.8496   19.9265 C   0  0  0  0  0  0
  -28.4629  -25.1357   20.6401 C   0  0  0  0  0  0
  -33.5082  -18.4817   17.5736 C   0  0  0  0  0  0
  -30.4019  -18.4511   19.6330 N   0  0  0  0  0  0
  -30.0378  -15.9038   20.0874 N   0  0  0  0  0  0
  -28.5853  -22.4952   19.9414 N   0  3  2  0  0  0
  -31.4531  -12.5247   19.1333 H   0  0  0  0  0  0
  -30.3379  -11.4631   19.9569 H   0  0  0  0  0  0
  -29.7543  -11.6710   17.5126 H   0  0  0  0  0  0
  -29.6142  -13.4028   17.6712 H   0  0  0  0  0  0
  -27.8606  -11.2737   18.9112 H   0  0  0  0  0  0
  -27.3577  -12.5116   17.7904 H   0  0  0  0  0  0
  -27.6127  -14.2500   19.4308 H   0  0  0  0  0  0
  -28.7229  -12.2410   21.4460 H   0  0  0  0  0  0
  -28.4512  -13.9495   21.7250 H   0  0  0  0  0  0
  -25.2774   -9.5692   22.4771 H   0  0  0  0  0  0
  -24.0016   -7.4636   22.7484 H   0  0  0  0  0  0
  -21.0854   -8.8779   19.8950 H   0  0  0  0  0  0
  -22.3709  -10.9685   19.6172 H   0  0  0  0  0  0
  -21.2011   -7.6153   23.9717 H   0  0  0  0  0  0
  -21.1477   -6.0528   25.9076 H   0  0  0  0  0  0
  -22.0599   -2.7615   23.2844 H   0  0  0  0  0  0
  -22.4081  -11.9862   22.4800 H   0  0  0  0  0  0
  -21.1078  -13.1214   22.2626 H   0  0  0  0  0  0
  -24.6468  -15.8462   20.5281 H   0  0  0  0  0  0
  -26.2628  -15.6376   20.0804 H   0  0  0  0  0  0
  -26.7178  -32.5459   23.1078 H   0  0  0  0  0  0
  -25.0084  -33.9714   25.0431 H   0  0  0  0  0  0
  -22.7155  -31.2993   21.3971 H   0  0  0  0  0  0
  -23.3766  -35.9612   23.3323 H   0  0  0  0  0  0
  -24.3565  -36.8898   22.2057 H   0  0  0  0  0  0
  -23.7235  -37.6490   23.6654 H   0  0  0  0  0  0
  -26.0803  -31.5465   20.5930 H   0  0  0  0  0  0
  -26.8408  -30.8472   21.9884 H   0  0  0  0  0  0
  -28.1251  -28.9933   21.1627 H   0  0  0  0  0  0
  -26.0047  -25.8879   19.0484 H   0  0  0  0  0  0
  -23.9715  -27.2696   19.0491 H   0  0  0  0  0  0
  -23.7572  -30.5792   19.3996 H   0  0  0  0  0  0
  -22.7531  -29.2368   19.8633 H   0  0  0  0  0  0
  -25.1292  -36.1953   25.0834 H   0  0  0  0  0  0
  -20.9946  -28.3257   24.1431 H   0  0  0  0  0  0
  -20.5711  -26.2287   23.3614 H   0  0  0  0  0  0
  -21.6632  -26.7471   22.1203 H   0  0  0  0  0  0
  -19.6940  -25.6298   21.1239 H   0  0  0  0  0  0
  -19.6703  -27.3207   20.6754 H   0  0  0  0  0  0
  -17.4204  -26.6678   21.3995 H   0  0  0  0  0  0
  -18.0293  -26.0074   22.9020 H   0  0  0  0  0  0
  -19.7952  -30.7222   24.2292 H   0  0  0  0  0  0
  -17.5042  -31.6278   24.5135 H   0  0  0  0  0  0
  -15.5355  -30.2985   23.7672 H   0  0  0  0  0  0
  -15.8664  -28.0820   22.7078 H   0  0  0  0  0  0
  -24.5917  -30.7037   25.7753 H   0  0  0  0  0  0
  -24.8841  -32.2878   26.4806 H   0  0  0  0  0  0
  -25.8020  -30.8947   27.0235 H   0  0  0  0  0  0
  -26.2917  -29.6769   24.1175 H   0  0  0  0  0  0
  -27.4094  -29.7300   25.4616 H   0  0  0  0  0  0
  -27.8752  -30.4357   23.9320 H   0  0  0  0  0  0
  -27.2712  -33.3655   26.1991 H   0  0  0  0  0  0
  -28.3889  -32.6802   25.0307 H   0  0  0  0  0  0
  -28.0682  -31.8463   26.5425 H   0  0  0  0  0  0
  -28.2597  -38.0093   24.7518 H   0  0  0  0  0  0
  -28.1075  -36.2625   24.6293 H   0  0  0  0  0  0
  -27.2283  -37.1444   25.8863 H   0  0  0  0  0  0
  -20.9391  -29.8773   21.6912 H   0  0  0  0  0  0
  -26.0188  -38.2870   24.1415 H   0  0  0  0  0  0
  -31.6754  -20.1181   19.1300 H   0  0  0  0  0  0
  -29.6299  -20.4956   18.1991 H   0  0  0  0  0  0
  -28.2180  -19.5098   18.1808 H   0  0  0  0  0  0
  -26.9600  -21.2210   19.4427 H   0  0  0  0  0  0
  -27.7520  -21.9421   18.0726 H   0  0  0  0  0  0
  -29.2701  -22.4926   21.9440 H   0  0  0  0  0  0
  -27.8411  -21.5340   21.6812 H   0  0  0  0  0  0
  -30.6941  -20.8670   20.8632 H   0  0  0  0  0  0
  -28.4636  -18.7875   20.4657 H   0  0  0  0  0  0
  -32.2299  -15.9876   16.6705 H   0  0  0  0  0  0
  -31.2434  -14.9434   17.6600 H   0  0  0  0  0  0
  -32.9401  -15.2272   18.0908 H   0  0  0  0  0  0
  -28.9658  -19.3707   22.8606 H   0  0  0  0  0  0
  -30.2204  -20.5374   23.2673 H   0  0  0  0  0  0
  -30.6464  -19.0279   22.4708 H   0  0  0  0  0  0
  -34.8978  -18.5096   19.2508 H   0  0  0  0  0  0
  -34.2205  -20.0905   18.8746 H   0  0  0  0  0  0
  -35.4695  -19.4001   17.8446 H   0  0  0  0  0  0
  -32.4211  -18.8146   15.7156 H   0  0  0  0  0  0
  -34.0185  -19.5498   15.7435 H   0  0  0  0  0  0
  -32.6976  -20.2854   16.6473 H   0  0  0  0  0  0
  -27.7293  -24.1236   18.8772 H   0  0  0  0  0  0
  -26.8293  -23.7004   20.2999 H   0  0  0  0  0  0
  -29.5370  -24.9600   20.7116 H   0  0  0  0  0  0
  -28.1236  -25.1674   21.6753 H   0  0  0  0  0  0
  -33.9370  -17.5479   17.2086 H   0  0  0  0  0  0
  -29.0360  -15.9263   20.2014 H   0  0  0  0  0  0
  -29.4991  -22.6883   19.5564 H   0  0  0  0  0  0
  1 25  1  0  0  0
  1 30  2  0  0  0
  1 88  1  0  0  0
  2  3  1  0  0  0
  2 25  1  0  0  0
  2 90  1  0  0  0
  2 91  1  0  0  0
  3  4  1  0  0  0
  3 92  1  0  0  0
  3 93  1  0  0  0
  4  5  1  0  0  0
  4 94  1  0  0  0
  4 95  1  0  0  0
  5  6  1  0  0  0
  5 26  1  0  0  0
  5 96  1  0  0  0
  6 25  1  0  0  0
  6 97  1  0  0  0
  6 98  1  0  0  0
  7  8  2  0  0  0
  7 26  1  0  0  0
  7 29  1  0  0  0
  8  9  1  0  0  0
  8 22  1  0  0  0
  9 10  1  0  0  0
  9 27  2  0  0  0
 10 11  2  0  0  0
 10 15  1  0  0  0
 11 12  1  0  0  0
 11 99  1  0  0  0
 12 13  2  0  0  0
 12100  1  0  0  0
 13 14  1  0  0  0
 13 31  1  0  0  0
 14 15  2  0  0  0
 14101  1  0  0  0
 15102  1  0  0  0
 16 17  2  0  0  0
 16 21  1  0  0  0
 16 31  1  0  0  0
 17 18  1  0  0  0
 17103  1  0  0  0
 18 19  2  0  0  0
 18104  1  0  0  0
 19 20  1  0  0  0
 19 24  1  0  0  0
 20 21  2  0  0  0
 20105  1  0  0  0
 21 23  1  0  0  0
 22 28  1  0  0  0
 22 32  2  0  0  0
 26 27  1  0  0  0
 28106  1  0  0  0
 28107  1  0  0  0
 29108  1  0  0  0
 29109  1  0  0  0
 33 34  1  0  0  0
 33 66  1  0  0  0
 33 70  2  0  0  0
 34 36  1  0  0  0
 34 59  1  0  0  0
 34110  1  0  0  0
 35 44  2  0  0  0
 35 45  1  0  0  0
 35 68  1  0  0  0
 36 56  1  0  0  0
 36111  1  0  0  0
 37 39  1  0  0  0
 37 47  1  0  0  0
 37 66  1  0  0  0
 37112  1  0  0  0
 38 43  2  0  0  0
 38 46  1  0  0  0
 38 47  1  0  0  0
 39 64  1  0  0  0
 39 67  2  0  0  0
 40 52  1  0  0  0
 40 53  2  0  0  0
 40 58  1  0  0  0
 41113  1  0  0  0
 41114  1  0  0  0
 41115  1  0  0  0
 41 48  1  0  0  0
 42 43  1  0  0  0
 42 66  1  0  0  0
 42116  1  0  0  0
 42117  1  0  0  0
 43 44  1  0  0  0
 44118  1  0  0  0
 45 46  2  0  0  0
 45119  1  0  0  0
 46120  1  0  0  0
 47121  1  0  0  0
 47122  1  0  0  0
 48 56  1  0  0  0
 48 65  1  0  0  0
 48123  1  0  0  0
 49 50  1  0  0  0
 49 53  1  0  0  0
 49 64  1  0  0  0
 49124  1  0  0  0
 50 51  1  0  0  0
 50125  1  0  0  0
 50126  1  0  0  0
 51 52  1  0  0  0
 51127  1  0  0  0
 51128  1  0  0  0
 52129  1  0  0  0
 52130  1  0  0  0
 53 54  1  0  0  0
 54 55  2  0  0  0
 54131  1  0  0  0
 55 57  1  0  0  0
 55132  1  0  0  0
 56 69  2  0  0  0
 57 58  2  0  0  0
 57133  1  0  0  0
 58134  1  0  0  0
 59 60  1  0  0  0
 59 61  1  0  0  0
 59 62  1  0  0  0
 60135  1  0  0  0
 60136  1  0  0  0
 60137  1  0  0  0
 61138  1  0  0  0
 61139  1  0  0  0
 61140  1  0  0  0
 62141  1  0  0  0
 62142  1  0  0  0
 62143  1  0  0  0
 63 65  1  0  0  0
 63144  1  0  0  0
 63145  1  0  0  0
 63146  1  0  0  0
 64147  1  0  0  0
 65148  1  0  0  0
 68 85  1  0  0  0
 71 72  2  0  0  0
 71 87  1  0  0  0
 71149  1  0  0  0
 72 73  1  0  0  0
 72 86  1  0  0  0
 73 74  2  0  0  0
 73 80  1  0  0  0
 74 87  1  0  0  0
 74 88  1  0  0  0
 75 76  1  0  0  0
 75 79  1  0  0  0
 75150  1  0  0  0
 75151  1  0  0  0
 76 89  1  0  0  0
 76152  1  0  0  0
 76153  1  0  0  0
 77 78  1  0  0  0
 77 89  1  0  0  0
 77154  1  0  0  0
 77155  1  0  0  0
 78 79  1  0  0  0
 78 81  1  0  0  0
 78156  1  0  0  0
 79 87  1  0  0  0
 79157  1  0  0  0
 80158  1  0  0  0
 80159  1  0  0  0
 80160  1  0  0  0
 81161  1  0  0  0
 81162  1  0  0  0
 81163  1  0  0  0
 82164  1  0  0  0
 82165  1  0  0  0
 82166  1  0  0  0
 82 86  1  0  0  0
 83 86  1  0  0  0
 83167  1  0  0  0
 83168  1  0  0  0
 83169  1  0  0  0
 84 85  1  0  0  0
 84170  1  0  0  0
 84171  1  0  0  0
 84 89  1  0  0  0
 85172  1  0  0  0
 85173  1  0  0  0
 86174  1  0  0  0
 88175  1  0  0  0
 89176  1  0  0  0
M  CHG  1  89   1
M  ISO  4   1 100  68 101  85 101  88 100
M  END
> <chiral flag>
0

> <version>
0

> <s_m_source_file>
/data/baiqing/PycharmProjects/Reinvent-master-3.2/result/LINK_invent/BTK/process_docking_weight1_custom_sum_contain_oxygen_bond_distance_aromatic_linkinvent_7_9_3/rearranged_h_0113.sdf

> <i_m_source_file_index>
2

> <r_mmod_Potential_Energy-OPLS-2005>
178.358535766602

> <r_mmod_Stretch_Energy-OPLS-2005>
106.621604919434

> <r_mmod_Bend_Energy-OPLS-2005>
220.817520141602

> <r_mmod_Torsional_Energy-OPLS-2005>
361.901336669922

> <r_mmod_Improper_Torsional_Energy-OPLS-2005>
9.14562034606934

> <r_mmod_Van_der_Waal_Energy-OPLS-2005>
127.418251037598

> <r_mmod_Electrostatic_Energy-OPLS-2005>
-279.099670410156

> <r_mmod_Solvation_Energy-OPLS-2005>
-448.227996826172

> <b_mmod_Minimization_Converged-OPLS-2005>
0

> <r_mmod_RMS_Derivative-OPLS-2005>
2.35784435272217

$$$$
2
                    3D
 Structure written by MMmdl.
170178  0  0  1  0            999 V2000
  -30.5590  -14.9080   20.4382 C   0  0  0  0  0  0
  -30.4330  -12.5630   19.4933 C   0  0  0  0  0  0
  -29.5165  -12.5284   18.2500 C   0  0  0  0  0  0
  -28.0491  -12.3191   18.6674 C   0  0  0  0  0  0
  -27.6293  -13.2455   19.8387 C   0  0  2  0  0  0
  -28.6706  -13.2595   20.9770 C   0  0  0  0  0  0
  -25.2460  -13.8210   20.5703 C   0  0  0  0  0  0
  -24.1776  -13.0435   20.9225 C   0  0  0  0  0  0
  -24.6389  -11.6919   20.8745 C   0  0  0  0  0  0
  -23.9073  -10.4295   21.0407 C   0  0  0  0  0  0
  -24.3624   -9.4211   21.9185 C   0  0  0  0  0  0
  -23.6303   -8.2247   22.0755 C   0  0  0  0  0  0
  -22.4284   -8.0283   21.3547 C   0  0  0  0  0  0
  -21.9921   -9.0254   20.4646 C   0  0  0  0  0  0
  -22.7247  -10.2135   20.3058 C   0  0  0  0  0  0
  -21.6859   -6.0734   22.5279 C   0  0  0  0  0  0
  -21.4015   -6.5638   23.8208 C   0  0  0  0  0  0
  -21.3662   -5.6792   24.9173 C   0  0  0  0  0  0
  -21.6045   -4.3056   24.7225 C   0  0  0  0  0  0
  -21.8820   -3.8145   23.4346 C   0  0  0  0  0  0
  -21.9195   -4.6962   22.3400 C   0  0  0  0  0  0
  -22.7797  -13.5208   21.1873 C   0  0  0  0  0  0
  -22.1664   -4.2146   21.0979 F   0  0  0  0  0  0
  -21.5629   -3.4537   25.7739 F   0  0  0  0  0  0
  -29.9487  -13.6604   20.3775 N   0  0  0  0  0  0
  -26.2877  -12.9433   20.3238 N   0  0  0  0  0  0
  -25.9318  -11.6564   20.5733 N   0  0  0  0  0  0
  -22.0456  -12.8194   22.0431 N   0  0  0  0  0  0
  -25.4128  -15.1940   20.4118 N   0  0  0  0  0  0
  -31.7612  -14.9481   20.1593 O   0  0  0  0  0  0
  -21.6647   -6.8882   21.4243 O   0  0  0  0  0  0
  -22.3480  -14.5517   20.6722 O   0  0  0  0  0  0
  -24.6433  -31.8457   23.1892 C   0  0  0  0  0  0
  -25.9209  -32.4701   23.8276 C   0  0  1  0  0  0
  -27.2092  -27.1421   20.1494 C   0  0  0  0  0  0
  -25.5961  -33.8507   24.2196 N   0  0  0  0  0  0
  -23.4452  -30.4672   21.5358 C   0  0  2  0  0  0
  -24.8922  -28.8964   20.1108 C   0  0  0  0  0  0
  -22.7562  -29.4567   22.4868 C   0  0  0  0  0  0
  -18.0305  -28.1391   22.8479 C   0  0  0  0  0  0
  -24.1496  -36.7257   23.2644 C   0  0  0  0  0  0
  -26.0021  -30.7216   21.3869 C   0  0  0  0  0  0
  -26.0707  -29.3341   20.7276 C   0  0  0  0  0  0
  -27.2317  -28.4734   20.7296 C   0  0  0  0  0  0
  -26.0033  -26.8055   19.4948 C   0  0  0  0  0  0
  -24.8703  -27.6449   19.4801 C   0  0  0  0  0  0
  -23.6697  -29.7985   20.1545 C   0  0  0  0  0  0
  -25.4129  -36.3036   24.0315 C   0  0  1  0  0  0
  -20.5921  -28.3723   23.1236 C   0  0  2  0  0  0
  -20.6801  -26.9429   22.5403 C   0  0  0  0  0  0
  -19.5771  -26.6383   21.5215 C   0  0  0  0  0  0
  -18.1948  -26.7928   22.1623 C   0  0  0  0  0  0
  -19.1564  -28.8874   23.2852 C   0  0  0  0  0  0
  -18.9476  -30.1469   23.8879 C   0  0  0  0  0  0
  -17.6476  -30.6592   24.0556 C   0  0  0  0  0  0
  -25.9077  -34.9411   23.5065 C   0  0  0  0  0  0
  -16.5365  -29.9083   23.6333 C   0  0  0  0  0  0
  -16.7290  -28.6498   23.0361 C   0  0  0  0  0  0
  -26.4526  -31.6564   25.0712 C   0  0  0  0  0  0
  -25.3697  -31.3744   26.1394 C   0  0  0  0  0  0
  -27.0394  -30.2963   24.6291 C   0  0  0  0  0  0
  -27.6061  -32.4327   25.7491 C   0  0  0  0  0  0
  -27.5580  -37.1786   24.8465 C   0  0  0  0  0  0
  -21.4260  -29.3050   22.3607 N   0  0  0  0  0  0
  -26.4295  -37.3744   23.9401 N   0  0  0  0  0  0
  -24.7166  -31.0328   22.0921 N   0  0  0  0  0  0
  -23.4209  -28.8119   23.3018 O   0  0  0  0  0  0
  -28.2583  -26.1565   20.2186 O   0  0  0  0  0  0
  -26.5665  -34.8905   22.4642 O   0  0  0  0  0  0
  -23.5554  -32.1322   23.7130 O   0  0  0  0  0  0
  -29.5086  -18.7708   18.6457 C   0  0  0  0  0  0
  -30.7285  -20.7606   19.2923 C   0  0  0  0  0  0
  -29.2939  -18.9432   20.1615 C   0  0  2  0  0  0
  -29.6190  -20.6012   20.3498 C   0  0  2  0  0  0
  -31.7515  -17.8602   23.7486 C   0  0  0  0  0  0
  -33.3209  -19.2904   22.3978 C   0  0  0  0  0  0
  -27.6831  -21.6155   19.0993 C   0  0  0  0  0  0
  -31.5730  -17.9003   21.1988 C   0  0  0  0  0  0
  -28.9966  -23.3267   20.3188 C   0  0  0  0  0  0
  -27.9520  -24.6351   20.1052 C   0  0  0  0  0  0
  -30.0624  -17.6340   20.9365 C   0  0  2  0  0  0
  -31.8996  -18.7118   22.4735 C   0  0  0  0  0  0
  -29.7896  -16.0939   20.6209 N   0  0  0  0  0  0
  -28.6078  -21.8041   20.2137 N   0  0  0  0  0  0
  -30.3991  -19.8522   18.1781 N   0  3  0  0  0  0
  -31.4692  -12.7092   19.1846 H   0  0  0  0  0  0
  -30.4118  -11.6066   20.0182 H   0  0  0  0  0  0
  -29.8306  -11.7374   17.5678 H   0  0  0  0  0  0
  -29.6111  -13.4655   17.6988 H   0  0  0  0  0  0
  -27.9390  -11.2759   18.9660 H   0  0  0  0  0  0
  -27.3869  -12.4630   17.8124 H   0  0  0  0  0  0
  -27.5975  -14.2508   19.4180 H   0  0  0  0  0  0
  -28.7472  -12.2805   21.4522 H   0  0  0  0  0  0
  -28.3758  -13.9602   21.7598 H   0  0  0  0  0  0
  -25.2769   -9.5682   22.4754 H   0  0  0  0  0  0
  -24.0009   -7.4638   22.7471 H   0  0  0  0  0  0
  -21.0857   -8.8771   19.8949 H   0  0  0  0  0  0
  -22.3708  -10.9671   19.6164 H   0  0  0  0  0  0
  -21.2009   -7.6146   23.9710 H   0  0  0  0  0  0
  -21.1482   -6.0523   25.9075 H   0  0  0  0  0  0
  -22.0598   -2.7607   23.2845 H   0  0  0  0  0  0
  -22.4091  -11.9871   22.4827 H   0  0  0  0  0  0
  -21.1066  -13.1197   22.2624 H   0  0  0  0  0  0
  -24.6395  -15.8416   20.5187 H   0  0  0  0  0  0
  -26.2483  -15.6352   20.0508 H   0  0  0  0  0  0
  -26.7281  -32.5305   23.1012 H   0  0  0  0  0  0
  -25.0064  -33.9610   25.0317 H   0  0  0  0  0  0
  -22.7477  -31.2936   21.3837 H   0  0  0  0  0  0
  -23.3762  -35.9582   23.3295 H   0  0  0  0  0  0
  -24.3587  -36.8902   22.2061 H   0  0  0  0  0  0
  -23.7246  -37.6452   23.6686 H   0  0  0  0  0  0
  -26.1585  -31.4767   20.6152 H   0  0  0  0  0  0
  -26.8721  -30.7694   22.0297 H   0  0  0  0  0  0
  -28.1291  -28.8029   21.2347 H   0  0  0  0  0  0
  -25.8939  -25.8512   19.0041 H   0  0  0  0  0  0
  -23.9690  -27.3041   18.9886 H   0  0  0  0  0  0
  -23.8041  -30.5732   19.3984 H   0  0  0  0  0  0
  -22.7832  -29.2415   19.8466 H   0  0  0  0  0  0
  -25.1317  -36.1869   25.0807 H   0  0  0  0  0  0
  -21.0012  -28.3317   24.1357 H   0  0  0  0  0  0
  -20.5708  -26.2333   23.3620 H   0  0  0  0  0  0
  -21.6663  -26.7444   22.1189 H   0  0  0  0  0  0
  -19.6935  -25.6290   21.1258 H   0  0  0  0  0  0
  -19.6709  -27.3180   20.6735 H   0  0  0  0  0  0
  -17.4222  -26.6680   21.4025 H   0  0  0  0  0  0
  -18.0346  -26.0068   22.9016 H   0  0  0  0  0  0
  -19.7954  -30.7291   24.2242 H   0  0  0  0  0  0
  -17.5027  -31.6267   24.5166 H   0  0  0  0  0  0
  -15.5368  -30.2979   23.7661 H   0  0  0  0  0  0
  -15.8690  -28.0806   22.7092 H   0  0  0  0  0  0
  -24.5889  -30.7088   25.7697 H   0  0  0  0  0  0
  -24.8858  -32.2916   26.4761 H   0  0  0  0  0  0
  -25.7952  -30.8945   27.0214 H   0  0  0  0  0  0
  -26.3009  -29.6680   24.1298 H   0  0  0  0  0  0
  -27.4019  -29.7269   25.4863 H   0  0  0  0  0  0
  -27.8912  -30.4213   23.9599 H   0  0  0  0  0  0
  -27.2674  -33.3659   26.2004 H   0  0  0  0  0  0
  -28.3897  -32.6840   25.0327 H   0  0  0  0  0  0
  -28.0703  -31.8490   26.5454 H   0  0  0  0  0  0
  -28.2590  -38.0090   24.7517 H   0  0  0  0  0  0
  -28.1087  -36.2619   24.6294 H   0  0  0  0  0  0
  -27.2293  -37.1434   25.8868 H   0  0  0  0  0  0
  -20.9474  -29.8749   21.6773 H   0  0  0  0  0  0
  -26.0168  -38.2816   24.1393 H   0  0  0  0  0  0
  -28.5586  -18.8522   18.1159 H   0  0  0  0  0  0
  -29.9249  -17.7960   18.3891 H   0  0  0  0  0  0
  -31.6857  -20.4619   19.7165 H   0  0  0  0  0  0
  -30.8727  -21.7763   18.9300 H   0  0  0  0  0  0
  -28.2323  -18.8074   20.3714 H   0  0  0  0  0  0
  -30.0533  -20.7561   21.3345 H   0  0  0  0  0  0
  -31.9888  -18.4419   24.6403 H   0  0  0  0  0  0
  -32.4221  -17.0000   23.7338 H   0  0  0  0  0  0
  -30.7373  -17.4815   23.8764 H   0  0  0  0  0  0
  -34.0687  -18.4975   22.3497 H   0  0  0  0  0  0
  -33.5436  -19.9045   23.2707 H   0  0  0  0  0  0
  -33.4515  -19.9201   21.5174 H   0  0  0  0  0  0
  -28.1675  -21.7898   18.1376 H   0  0  0  0  0  0
  -26.8378  -22.3007   19.1754 H   0  0  0  0  0  0
  -27.2603  -20.6101   19.0983 H   0  0  0  0  0  0
  -32.0090  -18.3620   20.3156 H   0  0  0  0  0  0
  -32.1362  -16.9807   21.3121 H   0  0  0  0  0  0
  -29.4633  -23.4506   21.2964 H   0  0  0  0  0  0
  -29.8039  -23.5032   19.6097 H   0  0  0  0  0  0
  -27.1059  -24.4580   20.7700 H   0  0  0  0  0  0
  -27.5587  -24.5037   19.0983 H   0  0  0  0  0  0
  -29.6061  -17.6791   21.9250 H   0  0  0  0  0  0
  -31.2129  -19.5490   22.5647 H   0  0  0  0  0  0
  -28.8117  -15.8615   20.7153 H   0  0  0  0  0  0
  -29.9267  -20.3669   17.4529 H   0  0  0  0  0  0
  -31.2420  -19.4730   17.7787 H   0  0  0  0  0  0
  1 25  1  0  0  0
  1 30  2  0  0  0
  1 83  1  0  0  0
  2  3  1  0  0  0
  2 25  1  0  0  0
  2 86  1  0  0  0
  2 87  1  0  0  0
  3  4  1  0  0  0
  3 88  1  0  0  0
  3 89  1  0  0  0
  4  5  1  0  0  0
  4 90  1  0  0  0
  4 91  1  0  0  0
  5  6  1  0  0  0
  5 26  1  0  0  0
  5 92  1  0  0  0
  6 25  1  0  0  0
  6 93  1  0  0  0
  6 94  1  0  0  0
  7  8  2  0  0  0
  7 26  1  0  0  0
  7 29  1  0  0  0
  8  9  1  0  0  0
  8 22  1  0  0  0
  9 10  1  0  0  0
  9 27  2  0  0  0
 10 11  2  0  0  0
 10 15  1  0  0  0
 11 12  1  0  0  0
 11 95  1  0  0  0
 12 13  2  0  0  0
 12 96  1  0  0  0
 13 14  1  0  0  0
 13 31  1  0  0  0
 14 15  2  0  0  0
 14 97  1  0  0  0
 15 98  1  0  0  0
 16 17  2  0  0  0
 16 21  1  0  0  0
 16 31  1  0  0  0
 17 18  1  0  0  0
 17 99  1  0  0  0
 18 19  2  0  0  0
 18100  1  0  0  0
 19 20  1  0  0  0
 19 24  1  0  0  0
 20 21  2  0  0  0
 20101  1  0  0  0
 21 23  1  0  0  0
 22 28  1  0  0  0
 22 32  2  0  0  0
 26 27  1  0  0  0
 28102  1  0  0  0
 28103  1  0  0  0
 29104  1  0  0  0
 29105  1  0  0  0
 33 34  1  0  0  0
 33 66  1  0  0  0
 33 70  2  0  0  0
 34 36  1  0  0  0
 34 59  1  0  0  0
 34106  1  0  0  0
 35 44  2  0  0  0
 35 45  1  0  0  0
 35 68  1  0  0  0
 36 56  1  0  0  0
 36107  1  0  0  0
 37 39  1  0  0  0
 37 47  1  0  0  0
 37 66  1  0  0  0
 37108  1  0  0  0
 38 43  2  0  0  0
 38 46  1  0  0  0
 38 47  1  0  0  0
 39 64  1  0  0  0
 39 67  2  0  0  0
 40 52  1  0  0  0
 40 53  2  0  0  0
 40 58  1  0  0  0
 41109  1  0  0  0
 41110  1  0  0  0
 41111  1  0  0  0
 41 48  1  0  0  0
 42 43  1  0  0  0
 42 66  1  0  0  0
 42112  1  0  0  0
 42113  1  0  0  0
 43 44  1  0  0  0
 44114  1  0  0  0
 45 46  2  0  0  0
 45115  1  0  0  0
 46116  1  0  0  0
 47117  1  0  0  0
 47118  1  0  0  0
 48 56  1  0  0  0
 48 65  1  0  0  0
 48119  1  0  0  0
 49 50  1  0  0  0
 49 53  1  0  0  0
 49 64  1  0  0  0
 49120  1  0  0  0
 50 51  1  0  0  0
 50121  1  0  0  0
 50122  1  0  0  0
 51 52  1  0  0  0
 51123  1  0  0  0
 51124  1  0  0  0
 52125  1  0  0  0
 52126  1  0  0  0
 53 54  1  0  0  0
 54 55  2  0  0  0
 54127  1  0  0  0
 55 57  1  0  0  0
 55128  1  0  0  0
 56 69  2  0  0  0
 57 58  2  0  0  0
 57129  1  0  0  0
 58130  1  0  0  0
 59 60  1  0  0  0
 59 61  1  0  0  0
 59 62  1  0  0  0
 60131  1  0  0  0
 60132  1  0  0  0
 60133  1  0  0  0
 61134  1  0  0  0
 61135  1  0  0  0
 61136  1  0  0  0
 62137  1  0  0  0
 62138  1  0  0  0
 62139  1  0  0  0
 63 65  1  0  0  0
 63140  1  0  0  0
 63141  1  0  0  0
 63142  1  0  0  0
 64143  1  0  0  0
 65144  1  0  0  0
 68 80  1  0  0  0
 71 85  1  0  0  0
 71145  1  0  0  0
 71146  1  0  0  0
 71 73  1  0  0  0
 72 74  1  0  0  0
 72 85  1  0  0  0
 72147  1  0  0  0
 72148  1  0  0  0
 73 74  1  0  0  0
 73 81  1  0  0  0
 73149  1  0  0  0
 74 84  1  0  0  0
 74150  1  0  0  0
 75151  1  0  0  0
 75152  1  0  0  0
 75153  1  0  0  0
 75 82  1  0  0  0
 76 82  1  0  0  0
 76154  1  0  0  0
 76155  1  0  0  0
 76156  1  0  0  0
 77 84  1  0  0  0
 77157  1  0  0  0
 77158  1  0  0  0
 77159  1  0  0  0
 78 82  1  0  0  0
 78160  1  0  0  0
 78161  1  0  0  0
 78 81  1  0  0  0
 79 80  1  0  0  0
 79 84  1  0  0  0
 79162  1  0  0  0
 79163  1  0  0  0
 80164  1  0  0  0
 80165  1  0  0  0
 81 83  1  0  0  0
 81166  1  0  0  0
 82167  1  0  0  0
 83168  1  0  0  0
 85169  1  0  0  0
 85170  1  0  0  0
M  CHG  1  85   1
M  ISO  4   1 100  68 101  80 101  83 100
M  END
> <chiral flag>
0

> <version>
0

> <s_m_source_file>
/data/baiqing/PycharmProjects/Reinvent-master-3.2/result/LINK_invent/BTK/process_docking_weight1_custom_sum_contain_oxygen_bond_distance_aromatic_linkinvent_7_9_3/rearranged_h_0113.sdf

> <i_m_source_file_index>
3

> <r_mmod_Potential_Energy-OPLS-2005>
526.399353027344

> <r_mmod_Stretch_Energy-OPLS-2005>
284.937408447266

> <r_mmod_Bend_Energy-OPLS-2005>
322.607391357422

> <r_mmod_Torsional_Energy-OPLS-2005>
305.051483154297

> <r_mmod_Improper_Torsional_Energy-OPLS-2005>
4.34586620330811

> <r_mmod_Van_der_Waal_Energy-OPLS-2005>
118.91276550293

> <r_mmod_Electrostatic_Energy-OPLS-2005>
-211.902648925781

> <r_mmod_Solvation_Energy-OPLS-2005>
-472.396392822266

> <b_mmod_Minimization_Converged-OPLS-2005>
0

> <r_mmod_RMS_Derivative-OPLS-2005>
1.20209419727325

$$$$
3
                    3D
 Structure written by MMmdl.
178187  0  0  1  0            999 V2000
  -30.6184  -14.7011   20.4879 C   0  0  0  0  0  0
  -30.4410  -12.4303   19.4785 C   0  0  0  0  0  0
  -29.5163  -12.5124   18.2432 C   0  0  0  0  0  0
  -28.0386  -12.3482   18.6514 C   0  0  0  0  0  0
  -27.6517  -13.2310   19.8677 C   0  0  2  0  0  0
  -28.6935  -13.1346   21.0066 C   0  0  0  0  0  0
  -25.2528  -13.8214   20.5709 C   0  0  0  0  0  0
  -24.1813  -13.0471   20.9198 C   0  0  0  0  0  0
  -24.6392  -11.6939   20.8745 C   0  0  0  0  0  0
  -23.9069  -10.4324   21.0410 C   0  0  0  0  0  0
  -24.3619   -9.4241   21.9189 C   0  0  0  0  0  0
  -23.6306   -8.2265   22.0748 C   0  0  0  0  0  0
  -22.4283   -8.0288   21.3553 C   0  0  0  0  0  0
  -21.9924   -9.0262   20.4658 C   0  0  0  0  0  0
  -22.7239  -10.2146   20.3077 C   0  0  0  0  0  0
  -21.6857   -6.0750   22.5278 C   0  0  0  0  0  0
  -21.4018   -6.5646   23.8213 C   0  0  0  0  0  0
  -21.3648   -5.6801   24.9179 C   0  0  0  0  0  0
  -21.6052   -4.3065   24.7234 C   0  0  0  0  0  0
  -21.8819   -3.8156   23.4353 C   0  0  0  0  0  0
  -21.9195   -4.6978   22.3410 C   0  0  0  0  0  0
  -22.7840  -13.5258   21.1895 C   0  0  0  0  0  0
  -22.1670   -4.2178   21.0986 F   0  0  0  0  0  0
  -21.5617   -3.4528   25.7732 F   0  0  0  0  0  0
  -30.0059  -13.4726   20.4393 N   0  0  0  0  0  0
  -26.2986  -12.9440   20.3358 N   0  0  0  0  0  0
  -25.9338  -11.6586   20.5802 N   0  0  0  0  0  0
  -22.0453  -12.8227   22.0404 N   0  0  0  0  0  0
  -25.4207  -15.1949   20.4091 N   0  0  0  0  0  0
  -31.7720  -14.8401   20.0749 O   0  0  0  0  0  0
  -21.6631   -6.8899   21.4246 O   0  0  0  0  0  0
  -22.3564  -14.5602   20.6779 O   0  0  0  0  0  0
  -24.6226  -31.8620   23.2051 C   0  0  0  0  0  0
  -25.9086  -32.4781   23.8360 C   0  0  1  0  0  0
  -27.2167  -27.3122   20.1426 C   0  0  0  0  0  0
  -25.5910  -33.8570   24.2275 N   0  0  0  0  0  0
  -23.4172  -30.4829   21.5466 C   0  0  2  0  0  0
  -24.8641  -28.9293   20.1183 C   0  0  0  0  0  0
  -22.7486  -29.4615   22.4960 C   0  0  0  0  0  0
  -18.0313  -28.1348   22.8434 C   0  0  0  0  0  0
  -24.1504  -36.7284   23.2642 C   0  0  0  0  0  0
  -25.9559  -30.7910   21.3731 C   0  0  0  0  0  0
  -26.0298  -29.4098   20.7295 C   0  0  0  0  0  0
  -27.2127  -28.6126   20.7313 C   0  0  0  0  0  0
  -26.0337  -26.8726   19.5178 C   0  0  0  0  0  0
  -24.8663  -27.6636   19.5041 C   0  0  0  0  0  0
  -23.6335  -29.8188   20.1609 C   0  0  0  0  0  0
  -25.4119  -36.3066   24.0351 C   0  0  1  0  0  0
  -20.5889  -28.3634   23.1286 C   0  0  2  0  0  0
  -20.6810  -26.9370   22.5401 C   0  0  0  0  0  0
  -19.5797  -26.6352   21.5188 C   0  0  0  0  0  0
  -18.1970  -26.7886   22.1576 C   0  0  0  0  0  0
  -19.1553  -28.8802   23.2839 C   0  0  0  0  0  0
  -18.9491  -30.1410   23.8834 C   0  0  0  0  0  0
  -17.6492  -30.6543   24.0517 C   0  0  0  0  0  0
  -25.9053  -34.9443   23.5117 C   0  0  0  0  0  0
  -16.5375  -29.9043   23.6324 C   0  0  0  0  0  0
  -16.7302  -28.6469   23.0335 C   0  0  0  0  0  0
  -26.4472  -31.6609   25.0725 C   0  0  0  0  0  0
  -25.3679  -31.3770   26.1465 C   0  0  0  0  0  0
  -27.0324  -30.3057   24.6088 C   0  0  0  0  0  0
  -27.6027  -32.4397   25.7472 C   0  0  0  0  0  0
  -27.5595  -37.1807   24.8472 C   0  0  0  0  0  0
  -21.4203  -29.2998   22.3688 N   0  0  0  0  0  0
  -26.4276  -37.3787   23.9448 N   0  0  0  0  0  0
  -24.6841  -31.0641   22.0967 N   0  0  0  0  0  0
  -23.4215  -28.8183   23.3067 O   0  0  0  0  0  0
  -28.3394  -26.4777   20.0864 O   0  0  0  0  0  0
  -26.5639  -34.8908   22.4689 O   0  0  0  0  0  0
  -23.5413  -32.1437   23.7387 O   0  0  0  0  0  0
  -27.6452  -22.9234   21.3475 C   0  0  0  0  0  0
  -29.6109  -21.9844   19.7371 C   0  0  0  0  0  0
  -27.8194  -21.5031   21.2470 C   0  0  0  0  0  0
  -28.8608  -20.9775   20.4205 C   0  0  0  0  0  0
  -28.4914  -23.8516   20.6823 C   0  0  0  0  0  0
  -24.8069  -18.2327   25.1562 C   0  0  0  0  0  0
  -25.7797  -18.7300   24.0854 C   0  0  0  0  0  0
  -23.5585  -19.1222   25.1520 C   0  0  0  0  0  0
  -25.1380  -18.8162   22.6671 C   0  0  1  0  0  0
  -23.7139  -19.4742   22.6831 C   0  0  1  0  0  0
  -22.9327  -19.1676   21.3867 C   0  0  0  0  0  0
  -27.9100  -25.7232   22.4407 C   0  0  0  0  0  0
  -26.9430  -20.6465   22.1666 C   0  0  0  0  0  0
  -26.1304  -19.4424   21.6165 C   0  0  0  0  0  0
  -29.9591  -17.1984   20.1847 C   0  0  0  0  0  0
  -29.5804  -18.5474   20.9887 C   0  0  0  0  0  0
  -28.5480  -25.3979   21.0760 C   0  0  2  0  0  0
  -29.4655  -23.3412   19.8804 N   0  0  0  0  0  0
  -29.8423  -15.8024   20.7815 N   0  0  0  0  0  0
  -22.8867  -19.0375   23.8407 N   0  3  0  0  0  0
  -29.0671  -19.6082   20.0917 O   0  0  0  0  0  0
  -31.4791  -12.5585   19.1675 H   0  0  0  0  0  0
  -30.3860  -11.4422   19.9369 H   0  0  0  0  0  0
  -29.7869  -11.7466   17.5151 H   0  0  0  0  0  0
  -29.6592  -13.4740   17.7441 H   0  0  0  0  0  0
  -27.8765  -11.2958   18.8902 H   0  0  0  0  0  0
  -27.3897  -12.5677   17.8055 H   0  0  0  0  0  0
  -27.6606  -14.2608   19.5095 H   0  0  0  0  0  0
  -28.7135  -12.1355   21.4421 H   0  0  0  0  0  0
  -28.4345  -13.8134   21.8197 H   0  0  0  0  0  0
  -25.2767   -9.5700   22.4770 H   0  0  0  0  0  0
  -24.0007   -7.4652   22.7456 H   0  0  0  0  0  0
  -21.0863   -8.8821   19.8958 H   0  0  0  0  0  0
  -22.3721  -10.9704   19.6196 H   0  0  0  0  0  0
  -21.2012   -7.6145   23.9754 H   0  0  0  0  0  0
  -21.1461   -6.0501   25.9093 H   0  0  0  0  0  0
  -22.0604   -2.7618   23.2838 H   0  0  0  0  0  0
  -22.4009  -11.9807   22.4713 H   0  0  0  0  0  0
  -21.1090  -13.1302   22.2649 H   0  0  0  0  0  0
  -24.6375  -15.8346   20.4732 H   0  0  0  0  0  0
  -26.2711  -15.6385   20.0866 H   0  0  0  0  0  0
  -26.7140  -32.5462   23.1081 H   0  0  0  0  0  0
  -25.0005  -33.9705   25.0387 H   0  0  0  0  0  0
  -22.7062  -31.3008   21.4123 H   0  0  0  0  0  0
  -23.3752  -35.9638   23.3298 H   0  0  0  0  0  0
  -24.3564  -36.8921   22.2059 H   0  0  0  0  0  0
  -23.7276  -37.6480   23.6677 H   0  0  0  0  0  0
  -26.0743  -31.5414   20.5907 H   0  0  0  0  0  0
  -26.8382  -30.8483   22.0009 H   0  0  0  0  0  0
  -28.1096  -28.9760   21.2160 H   0  0  0  0  0  0
  -26.0076  -25.8981   19.0488 H   0  0  0  0  0  0
  -23.9738  -27.2920   19.0180 H   0  0  0  0  0  0
  -23.7677  -30.5991   19.4110 H   0  0  0  0  0  0
  -22.7465  -29.2634   19.8485 H   0  0  0  0  0  0
  -25.1296  -36.1911   25.0850 H   0  0  0  0  0  0
  -20.9960  -28.3208   24.1409 H   0  0  0  0  0  0
  -20.5780  -26.2225   23.3586 H   0  0  0  0  0  0
  -21.6692  -26.7490   22.1161 H   0  0  0  0  0  0
  -19.6985  -25.6272   21.1205 H   0  0  0  0  0  0
  -19.6746  -27.3159   20.6707 H   0  0  0  0  0  0
  -17.4276  -26.6640   21.3943 H   0  0  0  0  0  0
  -18.0346  -26.0009   22.8947 H   0  0  0  0  0  0
  -19.7988  -30.7219   24.2192 H   0  0  0  0  0  0
  -17.5077  -31.6244   24.5096 H   0  0  0  0  0  0
  -15.5373  -30.2927   23.7700 H   0  0  0  0  0  0
  -15.8703  -28.0784   22.7069 H   0  0  0  0  0  0
  -24.5813  -30.7131   25.7819 H   0  0  0  0  0  0
  -24.8832  -32.2959   26.4808 H   0  0  0  0  0  0
  -25.7974  -30.9015   27.0297 H   0  0  0  0  0  0
  -26.2880  -29.6790   24.1115 H   0  0  0  0  0  0
  -27.4138  -29.7319   25.4537 H   0  0  0  0  0  0
  -27.8721  -30.4445   23.9265 H   0  0  0  0  0  0
  -27.2599  -33.3743   26.1940 H   0  0  0  0  0  0
  -28.3835  -32.6869   25.0270 H   0  0  0  0  0  0
  -28.0636  -31.8549   26.5446 H   0  0  0  0  0  0
  -28.2591  -38.0119   24.7510 H   0  0  0  0  0  0
  -28.1109  -36.2644   24.6304 H   0  0  0  0  0  0
  -27.2297  -37.1454   25.8863 H   0  0  0  0  0  0
  -20.9409  -29.8640   21.6807 H   0  0  0  0  0  0
  -26.0148  -38.2862   24.1452 H   0  0  0  0  0  0
  -26.8892  -23.3077   22.0192 H   0  0  0  0  0  0
  -30.3749  -21.6834   19.0350 H   0  0  0  0  0  0
  -25.2844  -18.2663   26.1383 H   0  0  0  0  0  0
  -24.5357  -17.1908   24.9808 H   0  0  0  0  0  0
  -26.6575  -18.0862   24.0560 H   0  0  0  0  0  0
  -26.1268  -19.7040   24.4289 H   0  0  0  0  0  0
  -23.8285  -20.1581   25.3581 H   0  0  0  0  0  0
  -22.8699  -18.8242   25.9458 H   0  0  0  0  0  0
  -24.9763  -17.7834   22.3529 H   0  0  0  0  0  0
  -23.8232  -20.5561   22.7708 H   0  0  0  0  0  0
  -22.7928  -18.0927   21.2591 H   0  0  0  0  0  0
  -23.4449  -19.5313   20.4952 H   0  0  0  0  0  0
  -21.9409  -19.6237   21.3892 H   0  0  0  0  0  0
  -28.1978  -26.7205   22.7762 H   0  0  0  0  0  0
  -28.2461  -25.0228   23.2043 H   0  0  0  0  0  0
  -26.8241  -25.6892   22.4058 H   0  0  0  0  0  0
  -26.2320  -21.3134   22.6530 H   0  0  0  0  0  0
  -27.6182  -20.2900   22.9448 H   0  0  0  0  0  0
  -25.6114  -19.7273   20.6988 H   0  0  0  0  0  0
  -26.8154  -18.6587   21.3047 H   0  0  0  0  0  0
  -30.9388  -17.3323   19.7210 H   0  0  0  0  0  0
  -29.2715  -17.1608   19.3438 H   0  0  0  0  0  0
  -30.4725  -18.9193   21.4974 H   0  0  0  0  0  0
  -28.8649  -18.3425   21.7863 H   0  0  0  0  0  0
  -29.6145  -25.5245   21.2715 H   0  0  0  0  0  0
  -28.9343  -15.5809   21.1614 H   0  0  0  0  0  0
  -22.0640  -19.6194   23.8870 H   0  0  0  0  0  0
  -22.5759  -18.0890   23.7045 H   0  0  0  0  0  0
  1 25  1  0  0  0
  1 30  2  0  0  0
  1 89  1  0  0  0
  2  3  1  0  0  0
  2 25  1  0  0  0
  2 92  1  0  0  0
  2 93  1  0  0  0
  3  4  1  0  0  0
  3 94  1  0  0  0
  3 95  1  0  0  0
  4  5  1  0  0  0
  4 96  1  0  0  0
  4 97  1  0  0  0
  5  6  1  0  0  0
  5 26  1  0  0  0
  5 98  1  0  0  0
  6 25  1  0  0  0
  6 99  1  0  0  0
  6100  1  0  0  0
  7  8  2  0  0  0
  7 26  1  0  0  0
  7 29  1  0  0  0
  8  9  1  0  0  0
  8 22  1  0  0  0
  9 10  1  0  0  0
  9 27  2  0  0  0
 10 11  2  0  0  0
 10 15  1  0  0  0
 11 12  1  0  0  0
 11101  1  0  0  0
 12 13  2  0  0  0
 12102  1  0  0  0
 13 14  1  0  0  0
 13 31  1  0  0  0
 14 15  2  0  0  0
 14103  1  0  0  0
 15104  1  0  0  0
 16 17  2  0  0  0
 16 21  1  0  0  0
 16 31  1  0  0  0
 17 18  1  0  0  0
 17105  1  0  0  0
 18 19  2  0  0  0
 18106  1  0  0  0
 19 20  1  0  0  0
 19 24  1  0  0  0
 20 21  2  0  0  0
 20107  1  0  0  0
 21 23  1  0  0  0
 22 28  1  0  0  0
 22 32  2  0  0  0
 26 27  1  0  0  0
 28108  1  0  0  0
 28109  1  0  0  0
 29110  1  0  0  0
 29111  1  0  0  0
 33 34  1  0  0  0
 33 66  1  0  0  0
 33 70  2  0  0  0
 34 36  1  0  0  0
 34 59  1  0  0  0
 34112  1  0  0  0
 35 44  2  0  0  0
 35 45  1  0  0  0
 35 68  1  0  0  0
 36 56  1  0  0  0
 36113  1  0  0  0
 37 39  1  0  0  0
 37 47  1  0  0  0
 37 66  1  0  0  0
 37114  1  0  0  0
 38 43  2  0  0  0
 38 46  1  0  0  0
 38 47  1  0  0  0
 39 64  1  0  0  0
 39 67  2  0  0  0
 40 52  1  0  0  0
 40 53  2  0  0  0
 40 58  1  0  0  0
 41115  1  0  0  0
 41116  1  0  0  0
 41117  1  0  0  0
 41 48  1  0  0  0
 42 43  1  0  0  0
 42 66  1  0  0  0
 42118  1  0  0  0
 42119  1  0  0  0
 43 44  1  0  0  0
 44120  1  0  0  0
 45 46  2  0  0  0
 45121  1  0  0  0
 46122  1  0  0  0
 47123  1  0  0  0
 47124  1  0  0  0
 48 56  1  0  0  0
 48 65  1  0  0  0
 48125  1  0  0  0
 49 50  1  0  0  0
 49 53  1  0  0  0
 49 64  1  0  0  0
 49126  1  0  0  0
 50 51  1  0  0  0
 50127  1  0  0  0
 50128  1  0  0  0
 51 52  1  0  0  0
 51129  1  0  0  0
 51130  1  0  0  0
 52131  1  0  0  0
 52132  1  0  0  0
 53 54  1  0  0  0
 54 55  2  0  0  0
 54133  1  0  0  0
 55 57  1  0  0  0
 55134  1  0  0  0
 56 69  2  0  0  0
 57 58  2  0  0  0
 57135  1  0  0  0
 58136  1  0  0  0
 59 60  1  0  0  0
 59 61  1  0  0  0
 59 62  1  0  0  0
 60137  1  0  0  0
 60138  1  0  0  0
 60139  1  0  0  0
 61140  1  0  0  0
 61141  1  0  0  0
 61142  1  0  0  0
 62143  1  0  0  0
 62144  1  0  0  0
 62145  1  0  0  0
 63 65  1  0  0  0
 63146  1  0  0  0
 63147  1  0  0  0
 63148  1  0  0  0
 64149  1  0  0  0
 65150  1  0  0  0
 68 87  1  0  0  0
 71 73  2  0  0  0
 71 75  1  0  0  0
 71151  1  0  0  0
 72 74  2  0  0  0
 72 88  1  0  0  0
 72152  1  0  0  0
 73 74  1  0  0  0
 73 83  1  0  0  0
 74 91  1  0  0  0
 75 87  1  0  0  0
 75 88  2  0  0  0
 76 77  1  0  0  0
 76 78  1  0  0  0
 76153  1  0  0  0
 76154  1  0  0  0
 77 79  1  0  0  0
 77155  1  0  0  0
 77156  1  0  0  0
 78 90  1  0  0  0
 78157  1  0  0  0
 78158  1  0  0  0
 79 80  1  0  0  0
 79 84  1  0  0  0
 79159  1  0  0  0
 80 81  1  0  0  0
 80 90  1  0  0  0
 80160  1  0  0  0
 81161  1  0  0  0
 81162  1  0  0  0
 81163  1  0  0  0
 82164  1  0  0  0
 82165  1  0  0  0
 82166  1  0  0  0
 82 87  1  0  0  0
 83 84  1  0  0  0
 83167  1  0  0  0
 83168  1  0  0  0
 84169  1  0  0  0
 84170  1  0  0  0
 85 86  1  0  0  0
 85 89  1  0  0  0
 85171  1  0  0  0
 85172  1  0  0  0
 86 91  1  0  0  0
 86173  1  0  0  0
 86174  1  0  0  0
 87175  1  0  0  0
 89176  1  0  0  0
 90177  1  0  0  0
 90178  1  0  0  0
M  CHG  1  90   1
M  ISO  4   1 100  68 101  87 101  89 100
M  END
> <chiral flag>
0

> <version>
0

> <s_m_source_file>
/data/baiqing/PycharmProjects/Reinvent-master-3.2/result/LINK_invent/BTK/process_docking_weight1_custom_sum_contain_oxygen_bond_distance_aromatic_linkinvent_7_9_3/rearranged_h_0113.sdf

> <i_m_source_file_index>
4

> <r_mmod_Potential_Energy-OPLS-2005>
-35.2511291503906

> <r_mmod_Stretch_Energy-OPLS-2005>
104.496742248535

> <r_mmod_Bend_Energy-OPLS-2005>
202.677841186523

> <r_mmod_Torsional_Energy-OPLS-2005>
330.418731689453

> <r_mmod_Improper_Torsional_Energy-OPLS-2005>
9.98575592041016

> <r_mmod_Van_der_Waal_Energy-OPLS-2005>
138.436416625977

> <r_mmod_Electrostatic_Energy-OPLS-2005>
-384.014099121094

> <r_mmod_Solvation_Energy-OPLS-2005>
-496.410247802734

> <b_mmod_Minimization_Converged-OPLS-2005>
0

> <r_mmod_RMS_Derivative-OPLS-2005>
6.15235233306885

$$$$
4
                    3D
 Structure written by MMmdl.
164172  0  0  1  0            999 V2000
  -30.5880  -14.7281   20.4743 C   0  0  0  0  0  0
  -30.4492  -12.4501   19.4481 C   0  0  0  0  0  0
  -29.5125  -12.5005   18.2192 C   0  0  0  0  0  0
  -28.0395  -12.3177   18.6403 C   0  0  0  0  0  0
  -27.6422  -13.2173   19.8393 C   0  0  2  0  0  0
  -28.6899  -13.1331   20.9681 C   0  0  0  0  0  0
  -25.2533  -13.8149   20.5641 C   0  0  0  0  0  0
  -24.1812  -13.0427   20.9182 C   0  0  0  0  0  0
  -24.6371  -11.6901   20.8720 C   0  0  0  0  0  0
  -23.9038  -10.4289   21.0400 C   0  0  0  0  0  0
  -24.3588   -9.4207   21.9186 C   0  0  0  0  0  0
  -23.6263   -8.2241   22.0762 C   0  0  0  0  0  0
  -22.4244   -8.0274   21.3550 C   0  0  0  0  0  0
  -21.9863   -9.0247   20.4655 C   0  0  0  0  0  0
  -22.7207  -10.2127   20.3059 C   0  0  0  0  0  0
  -21.6851   -6.0709   22.5274 C   0  0  0  0  0  0
  -21.4020   -6.5616   23.8211 C   0  0  0  0  0  0
  -21.3665   -5.6772   24.9173 C   0  0  0  0  0  0
  -21.6049   -4.3031   24.7232 C   0  0  0  0  0  0
  -21.8822   -3.8126   23.4354 C   0  0  0  0  0  0
  -21.9192   -4.6933   22.3410 C   0  0  0  0  0  0
  -22.7836  -13.5239   21.1843 C   0  0  0  0  0  0
  -22.1664   -4.2121   21.0985 F   0  0  0  0  0  0
  -21.5624   -3.4526   25.7749 F   0  0  0  0  0  0
  -29.9899  -13.4955   20.3850 N   0  0  0  0  0  0
  -26.2932  -12.9328   20.3180 N   0  0  0  0  0  0
  -25.9286  -11.6480   20.5666 N   0  0  0  0  0  0
  -22.0449  -12.8272   22.0411 N   0  0  0  0  0  0
  -25.4213  -15.1878   20.4058 N   0  0  0  0  0  0
  -31.7863  -14.8724   20.2235 O   0  0  0  0  0  0
  -21.6635   -6.8854   21.4241 O   0  0  0  0  0  0
  -22.3533  -14.5543   20.6677 O   0  0  0  0  0  0
  -24.6304  -31.8545   23.1973 C   0  0  0  0  0  0
  -25.9116  -32.4761   23.8331 C   0  0  1  0  0  0
  -27.2215  -27.2544   20.1347 C   0  0  0  0  0  0
  -25.5897  -33.8566   24.2228 N   0  0  0  0  0  0
  -23.4284  -30.4760   21.5421 C   0  0  2  0  0  0
  -24.8772  -28.9235   20.1148 C   0  0  0  0  0  0
  -22.7504  -29.4587   22.4915 C   0  0  0  0  0  0
  -18.0286  -28.1403   22.8484 C   0  0  0  0  0  0
  -24.1488  -36.7299   23.2635 C   0  0  0  0  0  0
  -25.9766  -30.7684   21.3774 C   0  0  0  0  0  0
  -26.0512  -29.3888   20.7213 C   0  0  0  0  0  0
  -27.2256  -28.5688   20.7168 C   0  0  0  0  0  0
  -26.0185  -26.8603   19.5016 C   0  0  0  0  0  0
  -24.8666  -27.6677   19.4944 C   0  0  0  0  0  0
  -23.6482  -29.8097   20.1598 C   0  0  0  0  0  0
  -25.4111  -36.3074   24.0316 C   0  0  1  0  0  0
  -20.5891  -28.3697   23.1287 C   0  0  2  0  0  0
  -20.6776  -26.9413   22.5417 C   0  0  0  0  0  0
  -19.5752  -26.6388   21.5217 C   0  0  0  0  0  0
  -18.1929  -26.7950   22.1624 C   0  0  0  0  0  0
  -19.1538  -28.8867   23.2890 C   0  0  0  0  0  0
  -18.9461  -30.1469   23.8909 C   0  0  0  0  0  0
  -17.6455  -30.6599   24.0563 C   0  0  0  0  0  0
  -25.9052  -34.9443   23.5078 C   0  0  0  0  0  0
  -16.5348  -29.9090   23.6332 C   0  0  0  0  0  0
  -16.7271  -28.6511   23.0352 C   0  0  0  0  0  0
  -26.4468  -31.6609   25.0736 C   0  0  0  0  0  0
  -25.3667  -31.3796   26.1443 C   0  0  0  0  0  0
  -27.0272  -30.3004   24.6242 C   0  0  0  0  0  0
  -27.6033  -32.4346   25.7503 C   0  0  0  0  0  0
  -27.5579  -37.1798   24.8452 C   0  0  0  0  0  0
  -21.4208  -29.3035   22.3671 N   0  0  0  0  0  0
  -26.4284  -37.3772   23.9404 N   0  0  0  0  0  0
  -24.6981  -31.0508   22.0956 N   0  0  0  0  0  0
  -23.4199  -28.8116   23.3013 O   0  0  0  0  0  0
  -28.3198  -26.3601   20.1823 O   0  0  0  0  0  0
  -26.5651  -34.8919   22.4666 O   0  0  0  0  0  0
  -23.5445  -32.1365   23.7250 O   0  0  0  0  0  0
  -29.7539  -18.3951   20.3036 C   0  0  0  0  0  0
  -29.7490  -19.7057   22.3158 C   0  0  0  0  0  0
  -29.6895  -19.7107   20.9143 C   0  0  0  0  0  0
  -29.8666  -17.1775   21.0879 C   0  0  0  0  0  0
  -29.8646  -17.3674   22.4972 C   0  0  0  0  0  0
  -28.2610  -15.9823   23.8823 C   0  0  0  0  0  0
  -30.6373  -16.3776   24.7306 C   0  0  0  0  0  0
  -30.2176  -24.1288   21.4527 C   0  0  0  0  0  0
  -29.7094  -21.1138   20.1493 C   0  0  0  0  0  0
  -28.0452  -24.8750   20.2446 C   0  0  0  0  0  0
  -29.7312  -16.2103   23.4953 C   0  0  0  0  0  0
  -29.2128  -23.7481   20.3470 C   0  0  2  0  0  0
  -29.8024  -18.5912   23.0713 N   0  0  0  0  0  0
  -29.7280  -15.8108   20.5387 N   0  0  0  0  0  0
  -28.7664  -22.2736   20.5295 N   0  3  0  0  0  0
  -31.4879  -12.5984   19.1446 H   0  0  0  0  0  0
  -30.4042  -11.4696   19.9250 H   0  0  0  0  0  0
  -29.7915  -11.7293   17.4983 H   0  0  0  0  0  0
  -29.6308  -13.4530   17.7003 H   0  0  0  0  0  0
  -27.9034  -11.2690   18.9093 H   0  0  0  0  0  0
  -27.3792  -12.5036   17.7933 H   0  0  0  0  0  0
  -27.6366  -14.2377   19.4581 H   0  0  0  0  0  0
  -28.7272  -12.1275   21.3873 H   0  0  0  0  0  0
  -28.4251  -13.7938   21.7943 H   0  0  0  0  0  0
  -25.2740   -9.5678   22.4748 H   0  0  0  0  0  0
  -23.9977   -7.4628   22.7467 H   0  0  0  0  0  0
  -21.0781   -8.8771   19.8961 H   0  0  0  0  0  0
  -22.3668  -10.9651   19.6162 H   0  0  0  0  0  0
  -21.2027   -7.6126   23.9705 H   0  0  0  0  0  0
  -21.1472   -6.0502   25.9074 H   0  0  0  0  0  0
  -22.0590   -2.7576   23.2870 H   0  0  0  0  0  0
  -22.4037  -11.9979   22.4894 H   0  0  0  0  0  0
  -21.1063  -13.1336   22.2556 H   0  0  0  0  0  0
  -24.6407  -15.8284   20.5012 H   0  0  0  0  0  0
  -26.2442  -15.6283   20.0189 H   0  0  0  0  0  0
  -26.7186  -32.5404   23.1084 H   0  0  0  0  0  0
  -24.9976  -33.9704   25.0322 H   0  0  0  0  0  0
  -22.7253  -31.2981   21.3940 H   0  0  0  0  0  0
  -23.3738  -35.9642   23.3289 H   0  0  0  0  0  0
  -24.3583  -36.8938   22.2054 H   0  0  0  0  0  0
  -23.7261  -37.6499   23.6678 H   0  0  0  0  0  0
  -26.1091  -31.5263   20.6038 H   0  0  0  0  0  0
  -26.8560  -30.8233   22.0083 H   0  0  0  0  0  0
  -28.1264  -28.9187   21.2028 H   0  0  0  0  0  0
  -25.9225  -25.9076   19.0071 H   0  0  0  0  0  0
  -23.9669  -27.3050   19.0162 H   0  0  0  0  0  0
  -23.7721  -30.5839   19.4019 H   0  0  0  0  0  0
  -22.7679  -29.2404   19.8549 H   0  0  0  0  0  0
  -25.1293  -36.1917   25.0808 H   0  0  0  0  0  0
  -20.9981  -28.3269   24.1411 H   0  0  0  0  0  0
  -20.5676  -26.2289   23.3608 H   0  0  0  0  0  0
  -21.6646  -26.7441   22.1208 H   0  0  0  0  0  0
  -19.6907  -25.6289   21.1264 H   0  0  0  0  0  0
  -19.6712  -27.3185   20.6737 H   0  0  0  0  0  0
  -17.4196  -26.6693   21.4032 H   0  0  0  0  0  0
  -18.0333  -26.0104   22.9031 H   0  0  0  0  0  0
  -19.7927  -30.7297   24.2292 H   0  0  0  0  0  0
  -17.4997  -31.6289   24.5149 H   0  0  0  0  0  0
  -15.5344  -30.2994   23.7665 H   0  0  0  0  0  0
  -15.8669  -28.0836   22.7067 H   0  0  0  0  0  0
  -24.5849  -30.7136   25.7772 H   0  0  0  0  0  0
  -24.8834  -32.2972   26.4815 H   0  0  0  0  0  0
  -25.7950  -30.9013   27.0260 H   0  0  0  0  0  0
  -26.2839  -29.6814   24.1199 H   0  0  0  0  0  0
  -27.3827  -29.7245   25.4799 H   0  0  0  0  0  0
  -27.8793  -30.4243   23.9554 H   0  0  0  0  0  0
  -27.2644  -33.3638   26.2107 H   0  0  0  0  0  0
  -28.3828  -32.6928   25.0320 H   0  0  0  0  0  0
  -28.0723  -31.8457   26.5399 H   0  0  0  0  0  0
  -28.2582  -38.0104   24.7489 H   0  0  0  0  0  0
  -28.1086  -36.2634   24.6271 H   0  0  0  0  0  0
  -27.2308  -37.1450   25.8857 H   0  0  0  0  0  0
  -20.9377  -29.8759   21.6887 H   0  0  0  0  0  0
  -26.0158  -38.2840   24.1418 H   0  0  0  0  0  0
  -29.7144  -18.3170   19.2264 H   0  0  0  0  0  0
  -29.7487  -20.6358   22.8659 H   0  0  0  0  0  0
  -27.6419  -15.8444   22.9954 H   0  0  0  0  0  0
  -27.8539  -16.8268   24.4383 H   0  0  0  0  0  0
  -28.1531  -15.0894   24.4960 H   0  0  0  0  0  0
  -31.6832  -16.4720   24.4372 H   0  0  0  0  0  0
  -30.5526  -15.5213   25.3995 H   0  0  0  0  0  0
  -30.3749  -17.2651   25.3065 H   0  0  0  0  0  0
  -30.5961  -25.1405   21.3029 H   0  0  0  0  0  0
  -31.0811  -23.4639   21.4644 H   0  0  0  0  0  0
  -29.7615  -24.0948   22.4417 H   0  0  0  0  0  0
  -29.5747  -20.9185   19.0844 H   0  0  0  0  0  0
  -30.7333  -21.4794   20.2386 H   0  0  0  0  0  0
  -27.3641  -24.7217   21.0822 H   0  0  0  0  0  0
  -27.4875  -24.5982   19.3518 H   0  0  0  0  0  0
  -30.0727  -15.2930   23.0265 H   0  0  0  0  0  0
  -29.7459  -23.7894   19.3968 H   0  0  0  0  0  0
  -28.7682  -15.5234   20.4310 H   0  0  0  0  0  0
  -28.4752  -22.1561   21.4864 H   0  0  0  0  0  0
  -27.9355  -22.1335   19.9737 H   0  0  0  0  0  0
  1 25  1  0  0  0
  1 30  2  0  0  0
  1 84  1  0  0  0
  2  3  1  0  0  0
  2 25  1  0  0  0
  2 86  1  0  0  0
  2 87  1  0  0  0
  3  4  1  0  0  0
  3 88  1  0  0  0
  3 89  1  0  0  0
  4  5  1  0  0  0
  4 90  1  0  0  0
  4 91  1  0  0  0
  5  6  1  0  0  0
  5 26  1  0  0  0
  5 92  1  0  0  0
  6 25  1  0  0  0
  6 93  1  0  0  0
  6 94  1  0  0  0
  7  8  2  0  0  0
  7 26  1  0  0  0
  7 29  1  0  0  0
  8  9  1  0  0  0
  8 22  1  0  0  0
  9 10  1  0  0  0
  9 27  2  0  0  0
 10 11  2  0  0  0
 10 15  1  0  0  0
 11 12  1  0  0  0
 11 95  1  0  0  0
 12 13  2  0  0  0
 12 96  1  0  0  0
 13 14  1  0  0  0
 13 31  1  0  0  0
 14 15  2  0  0  0
 14 97  1  0  0  0
 15 98  1  0  0  0
 16 17  2  0  0  0
 16 21  1  0  0  0
 16 31  1  0  0  0
 17 18  1  0  0  0
 17 99  1  0  0  0
 18 19  2  0  0  0
 18100  1  0  0  0
 19 20  1  0  0  0
 19 24  1  0  0  0
 20 21  2  0  0  0
 20101  1  0  0  0
 21 23  1  0  0  0
 22 28  1  0  0  0
 22 32  2  0  0  0
 26 27  1  0  0  0
 28102  1  0  0  0
 28103  1  0  0  0
 29104  1  0  0  0
 29105  1  0  0  0
 33 34  1  0  0  0
 33 66  1  0  0  0
 33 70  2  0  0  0
 34 36  1  0  0  0
 34 59  1  0  0  0
 34106  1  0  0  0
 35 44  2  0  0  0
 35 45  1  0  0  0
 35 68  1  0  0  0
 36 56  1  0  0  0
 36107  1  0  0  0
 37 39  1  0  0  0
 37 47  1  0  0  0
 37 66  1  0  0  0
 37108  1  0  0  0
 38 43  2  0  0  0
 38 46  1  0  0  0
 38 47  1  0  0  0
 39 64  1  0  0  0
 39 67  2  0  0  0
 40 52  1  0  0  0
 40 53  2  0  0  0
 40 58  1  0  0  0
 41109  1  0  0  0
 41110  1  0  0  0
 41111  1  0  0  0
 41 48  1  0  0  0
 42 43  1  0  0  0
 42 66  1  0  0  0
 42112  1  0  0  0
 42113  1  0  0  0
 43 44  1  0  0  0
 44114  1  0  0  0
 45 46  2  0  0  0
 45115  1  0  0  0
 46116  1  0  0  0
 47117  1  0  0  0
 47118  1  0  0  0
 48 56  1  0  0  0
 48 65  1  0  0  0
 48119  1  0  0  0
 49 50  1  0  0  0
 49 53  1  0  0  0
 49 64  1  0  0  0
 49120  1  0  0  0
 50 51  1  0  0  0
 50121  1  0  0  0
 50122  1  0  0  0
 51 52  1  0  0  0
 51123  1  0  0  0
 51124  1  0  0  0
 52125  1  0  0  0
 52126  1  0  0  0
 53 54  1  0  0  0
 54 55  2  0  0  0
 54127  1  0  0  0
 55 57  1  0  0  0
 55128  1  0  0  0
 56 69  2  0  0  0
 57 58  2  0  0  0
 57129  1  0  0  0
 58130  1  0  0  0
 59 60  1  0  0  0
 59 61  1  0  0  0
 59 62  1  0  0  0
 60131  1  0  0  0
 60132  1  0  0  0
 60133  1  0  0  0
 61134  1  0  0  0
 61135  1  0  0  0
 61136  1  0  0  0
 62137  1  0  0  0
 62138  1  0  0  0
 62139  1  0  0  0
 63 65  1  0  0  0
 63140  1  0  0  0
 63141  1  0  0  0
 63142  1  0  0  0
 64143  1  0  0  0
 65144  1  0  0  0
 68 80  1  0  0  0
 71 73  2  0  0  0
 71 74  1  0  0  0
 71145  1  0  0  0
 72 73  1  0  0  0
 72 83  2  0  0  0
 72146  1  0  0  0
 73 79  1  0  0  0
 74 75  2  0  0  0
 74 84  1  0  0  0
 75 81  1  0  0  0
 75 83  1  0  0  0
 76147  1  0  0  0
 76148  1  0  0  0
 76149  1  0  0  0
 76 81  1  0  0  0
 77 81  1  0  0  0
 77150  1  0  0  0
 77151  1  0  0  0
 77152  1  0  0  0
 78153  1  0  0  0
 78154  1  0  0  0
 78155  1  0  0  0
 78 82  1  0  0  0
 79 85  1  0  0  0
 79156  1  0  0  0
 79157  1  0  0  0
 80 82  1  0  0  0
 80158  1  0  0  0
 80159  1  0  0  0
 81160  1  0  0  0
 82 85  1  0  0  0
 82161  1  0  0  0
 84162  1  0  0  0
 85163  1  0  0  0
 85164  1  0  0  0
M  CHG  1  85   1
M  ISO  4   1 100  68 101  80 101  84 100
M  END
> <chiral flag>
0

> <version>
0

> <s_m_source_file>
/data/baiqing/PycharmProjects/Reinvent-master-3.2/result/LINK_invent/BTK/process_docking_weight1_custom_sum_contain_oxygen_bond_distance_aromatic_linkinvent_7_9_3/rearranged_h_0113.sdf

> <i_m_source_file_index>
5

> <r_mmod_Potential_Energy-OPLS-2005>
-99.3926696777344

> <r_mmod_Stretch_Energy-OPLS-2005>
122.062461853027

> <r_mmod_Bend_Energy-OPLS-2005>
164.187408447266

> <r_mmod_Torsional_Energy-OPLS-2005>
250.170959472656

> <r_mmod_Improper_Torsional_Energy-OPLS-2005>
11.5322675704956

> <r_mmod_Van_der_Waal_Energy-OPLS-2005>
134.416015625

> <r_mmod_Electrostatic_Energy-OPLS-2005>
-401.478271484375

> <r_mmod_Solvation_Energy-OPLS-2005>
-466.513580322266

> <b_mmod_Minimization_Converged-OPLS-2005>
0

> <r_mmod_RMS_Derivative-OPLS-2005>
2.86112403869629

$$$$
5
                    3D
 Structure written by MMmdl.
154161  0  0  1  0            999 V2000
  -30.5600  -14.8880   20.4241 C   0  0  0  0  0  0
  -30.4356  -12.5471   19.4961 C   0  0  0  0  0  0
  -29.5161  -12.5217   18.2537 C   0  0  0  0  0  0
  -28.0494  -12.3169   18.6751 C   0  0  0  0  0  0
  -27.6321  -13.2441   19.8459 C   0  0  2  0  0  0
  -28.6743  -13.2480   20.9833 C   0  0  0  0  0  0
  -25.2466  -13.8199   20.5728 C   0  0  0  0  0  0
  -24.1774  -13.0436   20.9247 C   0  0  0  0  0  0
  -24.6386  -11.6917   20.8776 C   0  0  0  0  0  0
  -23.9070  -10.4286   21.0416 C   0  0  0  0  0  0
  -24.3613   -9.4201   21.9193 C   0  0  0  0  0  0
  -23.6300   -8.2226   22.0754 C   0  0  0  0  0  0
  -22.4285   -8.0268   21.3529 C   0  0  0  0  0  0
  -21.9913   -9.0239   20.4634 C   0  0  0  0  0  0
  -22.7243  -10.2128   20.3056 C   0  0  0  0  0  0
  -21.6852   -6.0738   22.5284 C   0  0  0  0  0  0
  -21.4004   -6.5644   23.8214 C   0  0  0  0  0  0
  -21.3660   -5.6795   24.9175 C   0  0  0  0  0  0
  -21.6043   -4.3060   24.7221 C   0  0  0  0  0  0
  -21.8819   -3.8152   23.4343 C   0  0  0  0  0  0
  -21.9191   -4.6964   22.3397 C   0  0  0  0  0  0
  -22.7800  -13.5207   21.1922 C   0  0  0  0  0  0
  -22.1670   -4.2149   21.0977 F   0  0  0  0  0  0
  -21.5633   -3.4545   25.7737 F   0  0  0  0  0  0
  -29.9561  -13.6396   20.3860 N   0  0  0  0  0  0
  -26.2894  -12.9428   20.3290 N   0  0  0  0  0  0
  -25.9317  -11.6561   20.5761 N   0  0  0  0  0  0
  -22.0449  -12.8158   22.0450 N   0  0  0  0  0  0
  -25.4138  -15.1923   20.4116 N   0  0  0  0  0  0
  -31.7598  -14.9594   20.1443 O   0  0  0  0  0  0
  -21.6646   -6.8873   21.4244 O   0  0  0  0  0  0
  -22.3477  -14.5527   20.6797 O   0  0  0  0  0  0
  -24.6412  -31.8475   23.1912 C   0  0  0  0  0  0
  -25.9204  -32.4719   23.8273 C   0  0  1  0  0  0
  -27.1975  -27.1596   20.1279 C   0  0  0  0  0  0
  -25.5984  -33.8521   24.2205 N   0  0  0  0  0  0
  -23.4428  -30.4710   21.5385 C   0  0  2  0  0  0
  -24.8864  -28.9106   20.1043 C   0  0  0  0  0  0
  -22.7568  -29.4569   22.4869 C   0  0  0  0  0  0
  -18.0301  -28.1400   22.8479 C   0  0  0  0  0  0
  -24.1487  -36.7244   23.2642 C   0  0  0  0  0  0
  -25.9976  -30.7300   21.3852 C   0  0  0  0  0  0
  -26.0640  -29.3429   20.7291 C   0  0  0  0  0  0
  -27.2233  -28.4788   20.7346 C   0  0  0  0  0  0
  -25.9978  -26.8419   19.4531 C   0  0  0  0  0  0
  -24.8624  -27.6707   19.4552 C   0  0  0  0  0  0
  -23.6635  -29.8107   20.1536 C   0  0  0  0  0  0
  -25.4119  -36.3037   24.0318 C   0  0  1  0  0  0
  -20.5922  -28.3718   23.1251 C   0  0  2  0  0  0
  -20.6796  -26.9427   22.5403 C   0  0  0  0  0  0
  -19.5765  -26.6381   21.5222 C   0  0  0  0  0  0
  -18.1938  -26.7947   22.1605 C   0  0  0  0  0  0
  -19.1565  -28.8868   23.2865 C   0  0  0  0  0  0
  -18.9486  -30.1465   23.8887 C   0  0  0  0  0  0
  -17.6489  -30.6605   24.0549 C   0  0  0  0  0  0
  -25.9069  -34.9424   23.5058 C   0  0  0  0  0  0
  -16.5370  -29.9104   23.6334 C   0  0  0  0  0  0
  -16.7286  -28.6517   23.0357 C   0  0  0  0  0  0
  -26.4533  -31.6571   25.0696 C   0  0  0  0  0  0
  -25.3724  -31.3754   26.1392 C   0  0  0  0  0  0
  -27.0388  -30.2979   24.6212 C   0  0  0  0  0  0
  -27.6071  -32.4323   25.7479 C   0  0  0  0  0  0
  -27.5571  -37.1782   24.8464 C   0  0  0  0  0  0
  -21.4259  -29.3062   22.3636 N   0  0  0  0  0  0
  -26.4263  -37.3766   23.9437 N   0  0  0  0  0  0
  -24.7144  -31.0377   22.0929 N   0  0  0  0  0  0
  -23.4237  -28.8080   23.2968 O   0  0  0  0  0  0
  -28.2155  -26.1433   20.1605 O   0  0  0  0  0  0
  -26.5638  -34.8937   22.4623 O   0  0  0  0  0  0
  -23.5548  -32.1325   23.7148 O   0  0  0  0  0  0
  -27.8815  -24.6557   20.3936 C   0  0  0  0  0  0
  -27.5044  -21.5123   19.0613 C   0  0  0  0  0  0
  -28.9254  -23.4154   20.1304 C   0  0  0  0  0  0
  -29.1097  -18.8741   20.3895 C   0  0  0  0  0  0
  -30.1815  -17.5825   20.4400 C   0  0  0  0  0  0
  -28.4755  -21.7902   20.2250 C   0  0  2  0  0  0
  -29.5540  -20.5015   20.3279 C   0  0  1  0  0  0
  -29.7870  -16.0659   20.5637 N   0  0  0  0  0  0
  -30.4451  -20.7769   21.4683 N   0  3  0  0  0  0
  -26.7702  -24.3250   20.8137 O   0  0  0  0  0  0
  -31.4745  -12.6888   19.1912 H   0  0  0  0  0  0
  -30.4070  -11.5880   20.0159 H   0  0  0  0  0  0
  -29.8212  -11.7282   17.5699 H   0  0  0  0  0  0
  -29.6142  -13.4583   17.7018 H   0  0  0  0  0  0
  -27.9426  -11.2772   18.9833 H   0  0  0  0  0  0
  -27.3812  -12.4546   17.8241 H   0  0  0  0  0  0
  -27.6022  -14.2506   19.4299 H   0  0  0  0  0  0
  -28.7458  -12.2675   21.4544 H   0  0  0  0  0  0
  -28.3890  -13.9490   21.7700 H   0  0  0  0  0  0
  -25.2742   -9.5698   22.4789 H   0  0  0  0  0  0
  -24.0021   -7.4606   22.7460 H   0  0  0  0  0  0
  -21.0857   -8.8741   19.8925 H   0  0  0  0  0  0
  -22.3686  -10.9667   19.6175 H   0  0  0  0  0  0
  -21.1989   -7.6157   23.9711 H   0  0  0  0  0  0
  -21.1493   -6.0533   25.9076 H   0  0  0  0  0  0
  -22.0596   -2.7613   23.2839 H   0  0  0  0  0  0
  -22.4054  -11.9781   22.4779 H   0  0  0  0  0  0
  -21.1073  -13.1170   22.2700 H   0  0  0  0  0  0
  -24.6390  -15.8413   20.4921 H   0  0  0  0  0  0
  -26.2504  -15.6211   20.0397 H   0  0  0  0  0  0
  -26.7257  -32.5326   23.0998 H   0  0  0  0  0  0
  -25.0181  -33.9646   25.0383 H   0  0  0  0  0  0
  -22.7432  -31.2949   21.3896 H   0  0  0  0  0  0
  -23.3771  -35.9556   23.3265 H   0  0  0  0  0  0
  -24.3587  -36.8889   22.2065 H   0  0  0  0  0  0
  -23.7200  -37.6424   23.6680 H   0  0  0  0  0  0
  -26.1460  -31.4811   20.6078 H   0  0  0  0  0  0
  -26.8753  -30.7845   22.0176 H   0  0  0  0  0  0
  -28.1214  -28.7985   21.2400 H   0  0  0  0  0  0
  -25.9051  -25.8972   18.9368 H   0  0  0  0  0  0
  -23.9662  -27.3359   18.9517 H   0  0  0  0  0  0
  -23.7975  -30.5883   19.4006 H   0  0  0  0  0  0
  -22.7779  -29.2538   19.8411 H   0  0  0  0  0  0
  -25.1298  -36.1853   25.0802 H   0  0  0  0  0  0
  -20.9996  -28.3285   24.1384 H   0  0  0  0  0  0
  -20.5711  -26.2325   23.3611 H   0  0  0  0  0  0
  -21.6652  -26.7457   22.1173 H   0  0  0  0  0  0
  -19.6934  -25.6298   21.1244 H   0  0  0  0  0  0
  -19.6699  -27.3197   20.6757 H   0  0  0  0  0  0
  -17.4208  -26.6690   21.3999 H   0  0  0  0  0  0
  -18.0318  -26.0117   22.9014 H   0  0  0  0  0  0
  -19.7964  -30.7273   24.2246 H   0  0  0  0  0  0
  -17.5047  -31.6290   24.5142 H   0  0  0  0  0  0
  -15.5369  -30.2997   23.7705 H   0  0  0  0  0  0
  -15.8670  -28.0835   22.7092 H   0  0  0  0  0  0
  -24.5938  -30.7059   25.7709 H   0  0  0  0  0  0
  -24.8883  -32.2936   26.4729 H   0  0  0  0  0  0
  -25.8021  -30.8994   27.0204 H   0  0  0  0  0  0
  -26.2984  -29.6728   24.1209 H   0  0  0  0  0  0
  -27.4044  -29.7249   25.4736 H   0  0  0  0  0  0
  -27.8868  -30.4267   23.9484 H   0  0  0  0  0  0
  -27.2696  -33.3684   26.1941 H   0  0  0  0  0  0
  -28.3961  -32.6761   25.0352 H   0  0  0  0  0  0
  -28.0635  -31.8498   26.5499 H   0  0  0  0  0  0
  -28.2541  -38.0124   24.7570 H   0  0  0  0  0  0
  -28.1101  -36.2657   24.6190 H   0  0  0  0  0  0
  -27.2300  -37.1290   25.8864 H   0  0  0  0  0  0
  -20.9445  -29.8812   21.6860 H   0  0  0  0  0  0
  -26.0111  -38.2809   24.1509 H   0  0  0  0  0  0
  -26.6743  -22.2194   19.0501 H   0  0  0  0  0  0
  -27.0663  -20.5164   19.1207 H   0  0  0  0  0  0
  -28.0113  -21.5917   18.0986 H   0  0  0  0  0  0
  -29.7496  -23.5861   20.8218 H   0  0  0  0  0  0
  -29.3429  -23.5853   19.1383 H   0  0  0  0  0  0
  -28.4358  -18.7607   21.2411 H   0  0  0  0  0  0
  -28.4740  -18.6959   19.5213 H   0  0  0  0  0  0
  -30.8529  -17.7692   21.2772 H   0  0  0  0  0  0
  -30.8175  -17.6553   19.5564 H   0  0  0  0  0  0
  -27.8726  -21.7210   21.1326 H   0  0  0  0  0  0
  -30.1812  -20.5854   19.4408 H   0  0  0  0  0  0
  -28.8169  -15.8929   20.7753 H   0  0  0  0  0  0
  -29.9478  -20.7050   22.3384 H   0  0  0  0  0  0
  -30.8208  -21.7056   21.3984 H   0  0  0  0  0  0
  -31.2199  -20.1393   21.4897 H   0  0  0  0  0  0
  1 25  1  0  0  0
  1 30  2  0  0  0
  1 78  1  0  0  0
  2  3  1  0  0  0
  2 25  1  0  0  0
  2 81  1  0  0  0
  2 82  1  0  0  0
  3  4  1  0  0  0
  3 83  1  0  0  0
  3 84  1  0  0  0
  4  5  1  0  0  0
  4 85  1  0  0  0
  4 86  1  0  0  0
  5  6  1  0  0  0
  5 26  1  0  0  0
  5 87  1  0  0  0
  6 25  1  0  0  0
  6 88  1  0  0  0
  6 89  1  0  0  0
  7  8  2  0  0  0
  7 26  1  0  0  0
  7 29  1  0  0  0
  8  9  1  0  0  0
  8 22  1  0  0  0
  9 10  1  0  0  0
  9 27  2  0  0  0
 10 11  2  0  0  0
 10 15  1  0  0  0
 11 12  1  0  0  0
 11 90  1  0  0  0
 12 13  2  0  0  0
 12 91  1  0  0  0
 13 14  1  0  0  0
 13 31  1  0  0  0
 14 15  2  0  0  0
 14 92  1  0  0  0
 15 93  1  0  0  0
 16 17  2  0  0  0
 16 21  1  0  0  0
 16 31  1  0  0  0
 17 18  1  0  0  0
 17 94  1  0  0  0
 18 19  2  0  0  0
 18 95  1  0  0  0
 19 20  1  0  0  0
 19 24  1  0  0  0
 20 21  2  0  0  0
 20 96  1  0  0  0
 21 23  1  0  0  0
 22 28  1  0  0  0
 22 32  2  0  0  0
 26 27  1  0  0  0
 28 97  1  0  0  0
 28 98  1  0  0  0
 29 99  1  0  0  0
 29100  1  0  0  0
 33 34  1  0  0  0
 33 66  1  0  0  0
 33 70  2  0  0  0
 34 36  1  0  0  0
 34 59  1  0  0  0
 34101  1  0  0  0
 35 44  2  0  0  0
 35 45  1  0  0  0
 35 68  1  0  0  0
 36 56  1  0  0  0
 36102  1  0  0  0
 37 39  1  0  0  0
 37 47  1  0  0  0
 37 66  1  0  0  0
 37103  1  0  0  0
 38 43  2  0  0  0
 38 46  1  0  0  0
 38 47  1  0  0  0
 39 64  1  0  0  0
 39 67  2  0  0  0
 40 52  1  0  0  0
 40 53  2  0  0  0
 40 58  1  0  0  0
 41104  1  0  0  0
 41105  1  0  0  0
 41106  1  0  0  0
 41 48  1  0  0  0
 42 43  1  0  0  0
 42 66  1  0  0  0
 42107  1  0  0  0
 42108  1  0  0  0
 43 44  1  0  0  0
 44109  1  0  0  0
 45 46  2  0  0  0
 45110  1  0  0  0
 46111  1  0  0  0
 47112  1  0  0  0
 47113  1  0  0  0
 48 56  1  0  0  0
 48 65  1  0  0  0
 48114  1  0  0  0
 49 50  1  0  0  0
 49 53  1  0  0  0
 49 64  1  0  0  0
 49115  1  0  0  0
 50 51  1  0  0  0
 50116  1  0  0  0
 50117  1  0  0  0
 51 52  1  0  0  0
 51118  1  0  0  0
 51119  1  0  0  0
 52120  1  0  0  0
 52121  1  0  0  0
 53 54  1  0  0  0
 54 55  2  0  0  0
 54122  1  0  0  0
 55 57  1  0  0  0
 55123  1  0  0  0
 56 69  2  0  0  0
 57 58  2  0  0  0
 57124  1  0  0  0
 58125  1  0  0  0
 59 60  1  0  0  0
 59 61  1  0  0  0
 59 62  1  0  0  0
 60126  1  0  0  0
 60127  1  0  0  0
 60128  1  0  0  0
 61129  1  0  0  0
 61130  1  0  0  0
 61131  1  0  0  0
 62132  1  0  0  0
 62133  1  0  0  0
 62134  1  0  0  0
 63 65  1  0  0  0
 63135  1  0  0  0
 63136  1  0  0  0
 63137  1  0  0  0
 64138  1  0  0  0
 65139  1  0  0  0
 68 71  1  0  0  0
 71 73  1  0  0  0
 71 80  2  0  0  0
 72140  1  0  0  0
 72141  1  0  0  0
 72142  1  0  0  0
 72 76  1  0  0  0
 73 76  1  0  0  0
 73143  1  0  0  0
 73144  1  0  0  0
 74 75  1  0  0  0
 74 77  1  0  0  0
 74145  1  0  0  0
 74146  1  0  0  0
 75 78  1  0  0  0
 75147  1  0  0  0
 75148  1  0  0  0
 76 77  1  0  0  0
 76149  1  0  0  0
 77 79  1  0  0  0
 77150  1  0  0  0
 78151  1  0  0  0
 79152  1  0  0  0
 79153  1  0  0  0
 79154  1  0  0  0
M  CHG  1  79   1
M  ISO  4   1 100  68 101  71 101  78 100
M  END
> <chiral flag>
0

> <version>
0

> <s_m_source_file>
/data/baiqing/PycharmProjects/Reinvent-master-3.2/result/LINK_invent/BTK/process_docking_weight1_custom_sum_contain_oxygen_bond_distance_aromatic_linkinvent_7_9_3/rearranged_h_0113.sdf

> <i_m_source_file_index>
6

> <r_mmod_Potential_Energy-OPLS-2005>
184.829360961914

> <r_mmod_Stretch_Energy-OPLS-2005>
261.933471679688

> <r_mmod_Bend_Energy-OPLS-2005>
226.741409301758

> <r_mmod_Torsional_Energy-OPLS-2005>
214.856201171875

> <r_mmod_Improper_Torsional_Energy-OPLS-2005>
4.64982843399048

> <r_mmod_Van_der_Waal_Energy-OPLS-2005>
115.88924407959

> <r_mmod_Electrostatic_Energy-OPLS-2005>
-291.630645751953

> <r_mmod_Solvation_Energy-OPLS-2005>
-515.119323730469

> <b_mmod_Minimization_Converged-OPLS-2005>
0

> <r_mmod_RMS_Derivative-OPLS-2005>
3.29654121398926

$$$$
6
                    3D
 Structure written by MMmdl.
167175  0  0  1  0            999 V2000
  -30.6762  -14.5145   20.5537 C   0  0  0  0  0  0
  -30.4218  -12.3310   19.4239 C   0  0  0  0  0  0
  -29.4914  -12.5057   18.2057 C   0  0  0  0  0  0
  -28.0123  -12.3644   18.6177 C   0  0  0  0  0  0
  -27.6545  -13.2116   19.8689 C   0  0  2  0  0  0
  -28.6971  -13.0129   20.9905 C   0  0  0  0  0  0
  -25.2563  -13.8182   20.5690 C   0  0  0  0  0  0
  -24.1818  -13.0438   20.9160 C   0  0  0  0  0  0
  -24.6383  -11.6912   20.8725 C   0  0  0  0  0  0
  -23.9059  -10.4292   21.0398 C   0  0  0  0  0  0
  -24.3617   -9.4210   21.9175 C   0  0  0  0  0  0
  -23.6295   -8.2245   22.0750 C   0  0  0  0  0  0
  -22.4274   -8.0283   21.3543 C   0  0  0  0  0  0
  -21.9907   -9.0253   20.4645 C   0  0  0  0  0  0
  -22.7233  -10.2132   20.3049 C   0  0  0  0  0  0
  -21.6851   -6.0739   22.5283 C   0  0  0  0  0  0
  -21.4015   -6.5645   23.8217 C   0  0  0  0  0  0
  -21.3656   -5.6794   24.9179 C   0  0  0  0  0  0
  -21.6042   -4.3059   24.7226 C   0  0  0  0  0  0
  -21.8819   -3.8152   23.4349 C   0  0  0  0  0  0
  -21.9194   -4.6969   22.3405 C   0  0  0  0  0  0
  -22.7844  -13.5235   21.1841 C   0  0  0  0  0  0
  -22.1663   -4.2158   21.0979 F   0  0  0  0  0  0
  -21.5624   -3.4539   25.7736 F   0  0  0  0  0  0
  -30.0200  -13.3272   20.4302 N   0  0  0  0  0  0
  -26.2988  -12.9355   20.3350 N   0  0  0  0  0  0
  -25.9311  -11.6509   20.5754 N   0  0  0  0  0  0
  -22.0500  -12.8213   22.0409 N   0  0  0  0  0  0
  -25.4271  -15.1907   20.4166 N   0  0  0  0  0  0
  -31.8257  -14.6808   20.1371 O   0  0  0  0  0  0
  -21.6637   -6.8882   21.4243 O   0  0  0  0  0  0
  -22.3518  -14.5537   20.6702 O   0  0  0  0  0  0
  -24.6179  -31.8649   23.2056 C   0  0  0  0  0  0
  -25.9060  -32.4798   23.8361 C   0  0  1  0  0  0
  -27.2239  -27.3864   20.1032 C   0  0  0  0  0  0
  -25.5916  -33.8598   24.2296 N   0  0  0  0  0  0
  -23.4073  -30.4876   21.5478 C   0  0  2  0  0  0
  -24.8500  -28.9483   20.1129 C   0  0  0  0  0  0
  -22.7432  -29.4632   22.4970 C   0  0  0  0  0  0
  -18.0278  -28.1371   22.8461 C   0  0  0  0  0  0
  -24.1495  -36.7308   23.2635 C   0  0  0  0  0  0
  -25.9393  -30.8168   21.3632 C   0  0  0  0  0  0
  -26.0133  -29.4477   20.7097 C   0  0  0  0  0  0
  -27.2006  -28.6745   20.6991 C   0  0  0  0  0  0
  -26.0355  -26.9126   19.4994 C   0  0  0  0  0  0
  -24.8583  -27.6833   19.5045 C   0  0  0  0  0  0
  -23.6172  -29.8227   20.1613 C   0  0  0  0  0  0
  -25.4118  -36.3088   24.0328 C   0  0  1  0  0  0
  -20.5868  -28.3656   23.1301 C   0  0  2  0  0  0
  -20.6767  -26.9392   22.5406 C   0  0  0  0  0  0
  -19.5758  -26.6373   21.5192 C   0  0  0  0  0  0
  -18.1937  -26.7909   22.1605 C   0  0  0  0  0  0
  -19.1527  -28.8829   23.2871 C   0  0  0  0  0  0
  -18.9464  -30.1434   23.8882 C   0  0  0  0  0  0
  -17.6467  -30.6572   24.0558 C   0  0  0  0  0  0
  -25.9052  -34.9459   23.5109 C   0  0  0  0  0  0
  -16.5354  -29.9080   23.6318 C   0  0  0  0  0  0
  -16.7267  -28.6504   23.0318 C   0  0  0  0  0  0
  -26.4473  -31.6584   25.0698 C   0  0  0  0  0  0
  -25.3735  -31.3718   26.1448 C   0  0  0  0  0  0
  -27.0302  -30.3025   24.6073 C   0  0  0  0  0  0
  -27.6039  -32.4307   25.7477 C   0  0  0  0  0  0
  -27.5586  -37.1813   24.8463 C   0  0  0  0  0  0
  -21.4157  -29.3023   22.3717 N   0  0  0  0  0  0
  -26.4296  -37.3781   23.9409 N   0  0  0  0  0  0
  -24.6737  -31.0717   22.0971 N   0  0  0  0  0  0
  -23.4187  -28.8161   23.3015 O   0  0  0  0  0  0
  -28.3944  -26.6405   20.1497 O   0  0  0  0  0  0
  -26.5608  -34.8913   22.4666 O   0  0  0  0  0  0
  -23.5366  -32.1414   23.7437 O   0  0  0  0  0  0
  -29.2335  -17.9904   20.8106 C   0  0  0  0  0  0
  -28.0608  -24.2620   21.0398 C   0  0  0  0  0  0
  -30.7909  -21.0915   18.9622 C   0  0  0  0  0  0
  -30.2084  -19.6754   19.1548 C   0  0  0  0  0  0
  -30.2002  -22.1564   19.9146 C   0  0  0  0  0  0
  -28.4699  -20.5417   20.8020 C   0  0  0  0  0  0
  -29.6128  -19.4847   20.5602 C   0  0  1  0  0  0
  -28.6832  -21.9791   20.1702 C   0  0  2  0  0  0
  -27.4718  -24.9799   22.2397 C   0  0  0  0  0  0
  -27.8660  -22.0863   18.8615 C   0  0  0  0  0  0
  -31.0009  -17.1980   22.5147 C   0  0  0  0  0  0
  -28.4078  -25.2126   19.8544 C   0  0  0  0  0  0
  -30.3723  -16.9685   21.1275 C   0  0  1  0  0  0
  -28.1879  -22.9747   21.1459 N   0  0  0  0  0  0
  -29.9414  -15.5540   21.0087 N   0  0  0  0  0  0
  -28.0528  -17.6341   20.7592 O   0  0  0  0  0  0
  -31.4641  -12.4414   19.1199 H   0  0  0  0  0  0
  -30.3355  -11.3241   19.8347 H   0  0  0  0  0  0
  -29.7353  -11.7735   17.4350 H   0  0  0  0  0  0
  -29.6528  -13.4870   17.7572 H   0  0  0  0  0  0
  -27.8216  -11.3091   18.8165 H   0  0  0  0  0  0
  -27.3632  -12.6368   17.7843 H   0  0  0  0  0  0
  -27.6900  -14.2563   19.5602 H   0  0  0  0  0  0
  -28.6825  -11.9810   21.3444 H   0  0  0  0  0  0
  -28.4584  -13.6259   21.8611 H   0  0  0  0  0  0
  -25.2767   -9.5687   22.4745 H   0  0  0  0  0  0
  -24.0012   -7.4633   22.7463 H   0  0  0  0  0  0
  -21.0842   -8.8769   19.8950 H   0  0  0  0  0  0
  -22.3694  -10.9669   19.6157 H   0  0  0  0  0  0
  -21.2009   -7.6152   23.9724 H   0  0  0  0  0  0
  -21.1474   -6.0523   25.9079 H   0  0  0  0  0  0
  -22.0602   -2.7616   23.2843 H   0  0  0  0  0  0
  -22.4133  -11.9877   22.4787 H   0  0  0  0  0  0
  -21.1120  -13.1232   22.2637 H   0  0  0  0  0  0
  -24.6630  -15.8444   20.5482 H   0  0  0  0  0  0
  -26.2957  -15.6513   20.1701 H   0  0  0  0  0  0
  -26.7131  -32.5495   23.1121 H   0  0  0  0  0  0
  -25.0068  -33.9762   25.0438 H   0  0  0  0  0  0
  -22.6961  -31.3041   21.4074 H   0  0  0  0  0  0
  -23.3745  -35.9655   23.3301 H   0  0  0  0  0  0
  -24.3580  -36.8922   22.2049 H   0  0  0  0  0  0
  -23.7268  -37.6519   23.6652 H   0  0  0  0  0  0
  -26.0553  -31.5798   20.5921 H   0  0  0  0  0  0
  -26.8265  -30.8700   21.9830 H   0  0  0  0  0  0
  -28.0971  -29.0516   21.1712 H   0  0  0  0  0  0
  -25.9784  -25.9458   19.0254 H   0  0  0  0  0  0
  -23.9617  -27.2921   19.0423 H   0  0  0  0  0  0
  -23.7356  -30.5983   19.4034 H   0  0  0  0  0  0
  -22.7383  -29.2499   19.8611 H   0  0  0  0  0  0
  -25.1298  -36.1939   25.0821 H   0  0  0  0  0  0
  -20.9955  -28.3224   24.1422 H   0  0  0  0  0  0
  -20.5672  -26.2264   23.3594 H   0  0  0  0  0  0
  -21.6645  -26.7442   22.1211 H   0  0  0  0  0  0
  -19.6937  -25.6288   21.1220 H   0  0  0  0  0  0
  -19.6707  -27.3181   20.6721 H   0  0  0  0  0  0
  -17.4206  -26.6626   21.4009 H   0  0  0  0  0  0
  -18.0359  -26.0057   22.9014 H   0  0  0  0  0  0
  -19.7948  -30.7237   24.2259 H   0  0  0  0  0  0
  -17.5036  -31.6257   24.5160 H   0  0  0  0  0  0
  -15.5360  -30.2984   23.7660 H   0  0  0  0  0  0
  -15.8662  -28.0844   22.7015 H   0  0  0  0  0  0
  -24.5901  -30.7061   25.7804 H   0  0  0  0  0  0
  -24.8930  -32.2885   26.4876 H   0  0  0  0  0  0
  -25.8081  -30.8908   27.0219 H   0  0  0  0  0  0
  -26.2844  -29.6794   24.1117 H   0  0  0  0  0  0
  -27.4070  -29.7243   25.4517 H   0  0  0  0  0  0
  -27.8673  -30.4342   23.9217 H   0  0  0  0  0  0
  -27.2646  -33.3601   26.2061 H   0  0  0  0  0  0
  -28.3853  -32.6877   25.0318 H   0  0  0  0  0  0
  -28.0685  -31.8418   26.5394 H   0  0  0  0  0  0
  -28.2600  -38.0111   24.7505 H   0  0  0  0  0  0
  -28.1087  -36.2642   24.6296 H   0  0  0  0  0  0
  -27.2299  -37.1465   25.8863 H   0  0  0  0  0  0
  -20.9323  -29.8769   21.6958 H   0  0  0  0  0  0
  -26.0175  -38.2858   24.1399 H   0  0  0  0  0  0
  -30.6421  -21.3982   17.9257 H   0  0  0  0  0  0
  -31.8710  -21.0636   19.1084 H   0  0  0  0  0  0
  -30.9824  -18.9369   18.9444 H   0  0  0  0  0  0
  -29.4284  -19.4895   18.4153 H   0  0  0  0  0  0
  -30.4415  -23.1367   19.5136 H   0  0  0  0  0  0
  -30.7251  -22.0964   20.8699 H   0  0  0  0  0  0
  -28.3614  -20.6292   21.8841 H   0  0  0  0  0  0
  -27.5103  -20.1439   20.4683 H   0  0  0  0  0  0
  -30.4078  -19.7127   21.2698 H   0  0  0  0  0  0
  -26.4981  -25.3973   21.9865 H   0  0  0  0  0  0
  -28.1267  -25.7857   22.5715 H   0  0  0  0  0  0
  -27.3311  -24.2987   23.0795 H   0  0  0  0  0  0
  -26.7951  -22.1407   19.0601 H   0  0  0  0  0  0
  -28.0174  -21.2240   18.2151 H   0  0  0  0  0  0
  -28.1460  -22.9529   18.2665 H   0  0  0  0  0  0
  -31.4004  -18.2070   22.6163 H   0  0  0  0  0  0
  -31.8268  -16.5088   22.6945 H   0  0  0  0  0  0
  -30.2690  -17.0518   23.3100 H   0  0  0  0  0  0
  -27.8039  -24.9779   18.9830 H   0  0  0  0  0  0
  -29.4295  -25.0074   19.5485 H   0  0  0  0  0  0
  -31.1582  -17.1371   20.3907 H   0  0  0  0  0  0
  -28.9754  -15.3688   21.2348 H   0  0  0  0  0  0
  1 25  1  0  0  0
  1 30  2  0  0  0
  1 85  1  0  0  0
  2  3  1  0  0  0
  2 25  1  0  0  0
  2 87  1  0  0  0
  2 88  1  0  0  0
  3  4  1  0  0  0
  3 89  1  0  0  0
  3 90  1  0  0  0
  4  5  1  0  0  0
  4 91  1  0  0  0
  4 92  1  0  0  0
  5  6  1  0  0  0
  5 26  1  0  0  0
  5 93  1  0  0  0
  6 25  1  0  0  0
  6 94  1  0  0  0
  6 95  1  0  0  0
  7  8  2  0  0  0
  7 26  1  0  0  0
  7 29  1  0  0  0
  8  9  1  0  0  0
  8 22  1  0  0  0
  9 10  1  0  0  0
  9 27  2  0  0  0
 10 11  2  0  0  0
 10 15  1  0  0  0
 11 12  1  0  0  0
 11 96  1  0  0  0
 12 13  2  0  0  0
 12 97  1  0  0  0
 13 14  1  0  0  0
 13 31  1  0  0  0
 14 15  2  0  0  0
 14 98  1  0  0  0
 15 99  1  0  0  0
 16 17  2  0  0  0
 16 21  1  0  0  0
 16 31  1  0  0  0
 17 18  1  0  0  0
 17100  1  0  0  0
 18 19  2  0  0  0
 18101  1  0  0  0
 19 20  1  0  0  0
 19 24  1  0  0  0
 20 21  2  0  0  0
 20102  1  0  0  0
 21 23  1  0  0  0
 22 28  1  0  0  0
 22 32  2  0  0  0
 26 27  1  0  0  0
 28103  1  0  0  0
 28104  1  0  0  0
 29105  1  0  0  0
 29106  1  0  0  0
 33 34  1  0  0  0
 33 66  1  0  0  0
 33 70  2  0  0  0
 34 36  1  0  0  0
 34 59  1  0  0  0
 34107  1  0  0  0
 35 44  2  0  0  0
 35 45  1  0  0  0
 35 68  1  0  0  0
 36 56  1  0  0  0
 36108  1  0  0  0
 37 39  1  0  0  0
 37 47  1  0  0  0
 37 66  1  0  0  0
 37109  1  0  0  0
 38 43  2  0  0  0
 38 46  1  0  0  0
 38 47  1  0  0  0
 39 64  1  0  0  0
 39 67  2  0  0  0
 40 52  1  0  0  0
 40 53  2  0  0  0
 40 58  1  0  0  0
 41110  1  0  0  0
 41111  1  0  0  0
 41112  1  0  0  0
 41 48  1  0  0  0
 42 43  1  0  0  0
 42 66  1  0  0  0
 42113  1  0  0  0
 42114  1  0  0  0
 43 44  1  0  0  0
 44115  1  0  0  0
 45 46  2  0  0  0
 45116  1  0  0  0
 46117  1  0  0  0
 47118  1  0  0  0
 47119  1  0  0  0
 48 56  1  0  0  0
 48 65  1  0  0  0
 48120  1  0  0  0
 49 50  1  0  0  0
 49 53  1  0  0  0
 49 64  1  0  0  0
 49121  1  0  0  0
 50 51  1  0  0  0
 50122  1  0  0  0
 50123  1  0  0  0
 51 52  1  0  0  0
 51124  1  0  0  0
 51125  1  0  0  0
 52126  1  0  0  0
 52127  1  0  0  0
 53 54  1  0  0  0
 54 55  2  0  0  0
 54128  1  0  0  0
 55 57  1  0  0  0
 55129  1  0  0  0
 56 69  2  0  0  0
 57 58  2  0  0  0
 57130  1  0  0  0
 58131  1  0  0  0
 59 60  1  0  0  0
 59 61  1  0  0  0
 59 62  1  0  0  0
 60132  1  0  0  0
 60133  1  0  0  0
 60134  1  0  0  0
 61135  1  0  0  0
 61136  1  0  0  0
 61137  1  0  0  0
 62138  1  0  0  0
 62139  1  0  0  0
 62140  1  0  0  0
 63 65  1  0  0  0
 63141  1  0  0  0
 63142  1  0  0  0
 63143  1  0  0  0
 64144  1  0  0  0
 65145  1  0  0  0
 68 82  1  0  0  0
 71 83  1  0  0  0
 71 86  2  0  0  0
 71 77  1  0  0  0
 72 79  1  0  0  0
 72 82  1  0  0  0
 72 84  2  0  0  0
 73 74  1  0  0  0
 73 75  1  0  0  0
 73146  1  0  0  0
 73147  1  0  0  0
 74 77  1  0  0  0
 74148  1  0  0  0
 74149  1  0  0  0
 75 78  1  0  0  0
 75150  1  0  0  0
 75151  1  0  0  0
 76 77  1  0  0  0
 76 78  1  0  0  0
 76152  1  0  0  0
 76153  1  0  0  0
 77154  1  0  0  0
 78 80  1  0  0  0
 78 84  1  0  0  0
 79155  1  0  0  0
 79156  1  0  0  0
 79157  1  0  0  0
 80158  1  0  0  0
 80159  1  0  0  0
 80160  1  0  0  0
 81161  1  0  0  0
 81162  1  0  0  0
 81163  1  0  0  0
 81 83  1  0  0  0
 82164  1  0  0  0
 82165  1  0  0  0
 83 85  1  0  0  0
 83166  1  0  0  0
 85167  1  0  0  0
M  ISO  4   1 100  68 101  82 101  85 100
M  END
> <chiral flag>
0

> <version>
0

> <s_m_source_file>
/data/baiqing/PycharmProjects/Reinvent-master-3.2/result/LINK_invent/BTK/process_docking_weight1_custom_sum_contain_oxygen_bond_distance_aromatic_linkinvent_7_9_3/rearranged_h_0113.sdf

> <i_m_source_file_index>
7

> <r_mmod_Potential_Energy-OPLS-2005>
-60.9898262023926

> <r_mmod_Stretch_Energy-OPLS-2005>
56.4621772766113

> <r_mmod_Bend_Energy-OPLS-2005>
149.364181518555

> <r_mmod_Torsional_Energy-OPLS-2005>
247.476211547852

> <r_mmod_Improper_Torsional_Energy-OPLS-2005>
3.38420391082764

> <r_mmod_Van_der_Waal_Energy-OPLS-2005>
144.274749755859

> <r_mmod_Electrostatic_Energy-OPLS-2005>
-485.037506103516

> <r_mmod_Solvation_Energy-OPLS-2005>
-197.586456298828

> <b_mmod_Minimization_Converged-OPLS-2005>
0

> <r_mmod_RMS_Derivative-OPLS-2005>
1.34816443920135

$$$$
7
                    3D
 Structure written by MMmdl.
160167  0  0  1  0            999 V2000
  -30.6659  -14.6462   20.4870 C   0  0  0  0  0  0
  -30.4273  -12.3986   19.4590 C   0  0  0  0  0  0
  -29.5068  -12.4901   18.2233 C   0  0  0  0  0  0
  -28.0303  -12.3253   18.6346 C   0  0  0  0  0  0
  -27.6417  -13.2192   19.8437 C   0  0  2  0  0  0
  -28.6869  -13.1300   20.9798 C   0  0  0  0  0  0
  -25.2507  -13.8180   20.5644 C   0  0  0  0  0  0
  -24.1807  -13.0438   20.9209 C   0  0  0  0  0  0
  -24.6394  -11.6914   20.8752 C   0  0  0  0  0  0
  -23.9073  -10.4295   21.0410 C   0  0  0  0  0  0
  -24.3625   -9.4209   21.9180 C   0  0  0  0  0  0
  -23.6299   -8.2250   22.0753 C   0  0  0  0  0  0
  -22.4278   -8.0286   21.3550 C   0  0  0  0  0  0
  -21.9920   -9.0258   20.4648 C   0  0  0  0  0  0
  -22.7248  -10.2136   20.3055 C   0  0  0  0  0  0
  -21.6865   -6.0740   22.5278 C   0  0  0  0  0  0
  -21.4016   -6.5637   23.8209 C   0  0  0  0  0  0
  -21.3662   -5.6790   24.9177 C   0  0  0  0  0  0
  -21.6051   -4.3054   24.7228 C   0  0  0  0  0  0
  -21.8820   -3.8142   23.4349 C   0  0  0  0  0  0
  -21.9200   -4.6969   22.3406 C   0  0  0  0  0  0
  -22.7827  -13.5222   21.1865 C   0  0  0  0  0  0
  -22.1661   -4.2156   21.0985 F   0  0  0  0  0  0
  -21.5637   -3.4531   25.7737 F   0  0  0  0  0  0
  -29.9979  -13.4512   20.4027 N   0  0  0  0  0  0
  -26.2923  -12.9360   20.3206 N   0  0  0  0  0  0
  -25.9303  -11.6520   20.5725 N   0  0  0  0  0  0
  -22.0471  -12.8219   22.0430 N   0  0  0  0  0  0
  -25.4193  -15.1909   20.4018 N   0  0  0  0  0  0
  -31.8645  -14.7316   20.1849 O   0  0  0  0  0  0
  -21.6645   -6.8879   21.4240 O   0  0  0  0  0  0
  -22.3521  -14.5525   20.6703 O   0  0  0  0  0  0
  -24.6256  -31.8617   23.2008 C   0  0  0  0  0  0
  -25.9113  -32.4789   23.8338 C   0  0  1  0  0  0
  -27.2286  -27.3337   20.1353 C   0  0  0  0  0  0
  -25.5939  -33.8589   24.2276 N   0  0  0  0  0  0
  -23.4182  -30.4839   21.5420 C   0  0  2  0  0  0
  -24.8663  -28.9336   20.1158 C   0  0  0  0  0  0
  -22.7467  -29.4647   22.4935 C   0  0  0  0  0  0
  -18.0291  -28.1368   22.8486 C   0  0  0  0  0  0
  -24.1492  -36.7295   23.2636 C   0  0  0  0  0  0
  -25.9560  -30.7996   21.3673 C   0  0  0  0  0  0
  -26.0331  -29.4250   20.7158 C   0  0  0  0  0  0
  -27.2204  -28.6378   20.7117 C   0  0  0  0  0  0
  -26.0449  -26.8872   19.5116 C   0  0  0  0  0  0
  -24.8729  -27.6686   19.5036 C   0  0  0  0  0  0
  -23.6336  -29.8131   20.1596 C   0  0  0  0  0  0
  -25.4115  -36.3086   24.0331 C   0  0  1  0  0  0
  -20.5888  -28.3684   23.1280 C   0  0  2  0  0  0
  -20.6779  -26.9414   22.5406 C   0  0  0  0  0  0
  -19.5757  -26.6374   21.5206 C   0  0  0  0  0  0
  -18.1935  -26.7917   22.1612 C   0  0  0  0  0  0
  -19.1544  -28.8839   23.2877 C   0  0  0  0  0  0
  -18.9467  -30.1443   23.8893 C   0  0  0  0  0  0
  -17.6469  -30.6577   24.0556 C   0  0  0  0  0  0
  -25.9058  -34.9459   23.5094 C   0  0  0  0  0  0
  -16.5358  -29.9075   23.6322 C   0  0  0  0  0  0
  -16.7279  -28.6486   23.0349 C   0  0  0  0  0  0
  -26.4496  -31.6588   25.0708 C   0  0  0  0  0  0
  -25.3731  -31.3726   26.1438 C   0  0  0  0  0  0
  -27.0325  -30.3009   24.6146 C   0  0  0  0  0  0
  -27.6050  -32.4312   25.7488 C   0  0  0  0  0  0
  -27.5589  -37.1800   24.8463 C   0  0  0  0  0  0
  -21.4180  -29.3048   22.3675 N   0  0  0  0  0  0
  -26.4290  -37.3781   23.9420 N   0  0  0  0  0  0
  -24.6847  -31.0649   22.0940 N   0  0  0  0  0  0
  -23.4200  -28.8202   23.3017 O   0  0  0  0  0  0
  -28.3485  -26.4974   20.1487 O   0  0  0  0  0  0
  -26.5624  -34.8928   22.4655 O   0  0  0  0  0  0
  -23.5423  -32.1396   23.7353 O   0  0  0  0  0  0
  -30.3737  -17.2135   20.5689 C   0  0  0  0  0  0
  -30.1378  -20.1407   22.2935 C   0  0  0  0  0  0
  -28.8734  -20.9206   18.6479 C   0  0  0  0  0  0
  -29.4122  -18.4505   20.4710 C   0  0  0  0  0  0
  -28.8216  -22.4800   20.7106 C   0  0  0  0  0  0
  -28.1879  -25.1521   20.7425 C   0  0  0  0  0  0
  -30.0283  -19.9126   20.7762 C   0  0  1  0  0  0
  -29.5560  -21.2489   19.9870 C   0  0  1  0  0  0
  -29.0111  -23.9519   20.0977 C   0  0  1  0  0  0
  -29.8939  -15.9053   20.6435 N   0  0  0  0  0  0
  -31.7013  -17.4621   20.5156 N   0  3  0  0  0  0
  -30.3764  -24.2926   20.2687 O   0  0  0  0  0  0
  -31.4707  -12.5056   19.1567 H   0  0  0  0  0  0
  -30.3489  -11.4156   19.9262 H   0  0  0  0  0  0
  -29.7791  -11.7261   17.4937 H   0  0  0  0  0  0
  -29.6462  -13.4515   17.7268 H   0  0  0  0  0  0
  -27.8769  -11.2754   18.8863 H   0  0  0  0  0  0
  -27.3788  -12.5302   17.7849 H   0  0  0  0  0  0
  -27.6430  -14.2422   19.4697 H   0  0  0  0  0  0
  -28.7042  -12.1283   21.4112 H   0  0  0  0  0  0
  -28.4327  -13.8085   21.7964 H   0  0  0  0  0  0
  -25.2783   -9.5690   22.4735 H   0  0  0  0  0  0
  -24.0023   -7.4646   22.7470 H   0  0  0  0  0  0
  -21.0851   -8.8772   19.8952 H   0  0  0  0  0  0
  -22.3706  -10.9671   19.6156 H   0  0  0  0  0  0
  -21.1994   -7.6140   23.9717 H   0  0  0  0  0  0
  -21.1479   -6.0515   25.9079 H   0  0  0  0  0  0
  -22.0598   -2.7607   23.2846 H   0  0  0  0  0  0
  -22.4066  -11.9884   22.4837 H   0  0  0  0  0  0
  -21.1084  -13.1239   22.2594 H   0  0  0  0  0  0
  -24.6390  -15.8323   20.4930 H   0  0  0  0  0  0
  -26.2312  -15.6279   19.9867 H   0  0  0  0  0  0
  -26.7194  -32.5463   23.1098 H   0  0  0  0  0  0
  -25.0093  -33.9711   25.0433 H   0  0  0  0  0  0
  -22.7119  -31.3033   21.3960 H   0  0  0  0  0  0
  -23.3766  -35.9615   23.3271 H   0  0  0  0  0  0
  -24.3601  -36.8945   22.2059 H   0  0  0  0  0  0
  -23.7228  -37.6482   23.6673 H   0  0  0  0  0  0
  -26.0830  -31.5621   20.5963 H   0  0  0  0  0  0
  -26.8379  -30.8515   21.9943 H   0  0  0  0  0  0
  -28.1185  -29.0131   21.1821 H   0  0  0  0  0  0
  -26.0208  -25.9173   19.0348 H   0  0  0  0  0  0
  -23.9783  -27.2817   19.0340 H   0  0  0  0  0  0
  -23.7535  -30.5857   19.3990 H   0  0  0  0  0  0
  -22.7535  -29.2422   19.8586 H   0  0  0  0  0  0
  -25.1295  -36.1929   25.0826 H   0  0  0  0  0  0
  -20.9986  -28.3266   24.1397 H   0  0  0  0  0  0
  -20.5667  -26.2313   23.3611 H   0  0  0  0  0  0
  -21.6650  -26.7433   22.1215 H   0  0  0  0  0  0
  -19.6921  -25.6280   21.1247 H   0  0  0  0  0  0
  -19.6688  -27.3173   20.6728 H   0  0  0  0  0  0
  -17.4213  -26.6679   21.4004 H   0  0  0  0  0  0
  -18.0325  -26.0047   22.8991 H   0  0  0  0  0  0
  -19.7939  -30.7252   24.2274 H   0  0  0  0  0  0
  -17.5019  -31.6261   24.5145 H   0  0  0  0  0  0
  -15.5358  -30.2969   23.7633 H   0  0  0  0  0  0
  -15.8685  -28.0794   22.7065 H   0  0  0  0  0  0
  -24.5911  -30.7065   25.7783 H   0  0  0  0  0  0
  -24.8914  -32.2889   26.4856 H   0  0  0  0  0  0
  -25.8067  -30.8920   27.0219 H   0  0  0  0  0  0
  -26.2883  -29.6766   24.1185 H   0  0  0  0  0  0
  -27.4046  -29.7264   25.4643 H   0  0  0  0  0  0
  -27.8748  -30.4299   23.9340 H   0  0  0  0  0  0
  -27.2659  -33.3607   26.2071 H   0  0  0  0  0  0
  -28.3867  -32.6879   25.0326 H   0  0  0  0  0  0
  -28.0711  -31.8429   26.5403 H   0  0  0  0  0  0
  -28.2592  -38.0112   24.7537 H   0  0  0  0  0  0
  -28.1095  -36.2647   24.6242 H   0  0  0  0  0  0
  -27.2319  -37.1402   25.8867 H   0  0  0  0  0  0
  -20.9363  -29.8792   21.6898 H   0  0  0  0  0  0
  -26.0173  -38.2860   24.1414 H   0  0  0  0  0  0
  -30.6236  -19.2961   22.7838 H   0  0  0  0  0  0
  -29.1544  -20.2642   22.7491 H   0  0  0  0  0  0
  -30.7298  -21.0274   22.5229 H   0  0  0  0  0  0
  -28.7321  -21.8150   18.0413 H   0  0  0  0  0  0
  -27.8914  -20.4717   18.8010 H   0  0  0  0  0  0
  -29.4768  -20.2329   18.0537 H   0  0  0  0  0  0
  -28.5479  -18.2829   21.1155 H   0  0  0  0  0  0
  -29.0170  -18.4273   19.4580 H   0  0  0  0  0  0
  -29.1258  -22.5300   21.7554 H   0  0  0  0  0  0
  -27.7540  -22.2579   20.7450 H   0  0  0  0  0  0
  -28.4578  -25.2381   21.7970 H   0  0  0  0  0  0
  -27.1374  -24.8609   20.7534 H   0  0  0  0  0  0
  -31.0594  -19.8381   20.4374 H   0  0  0  0  0  0
  -30.5082  -21.7000   19.7008 H   0  0  0  0  0  0
  -28.7857  -23.9277   19.0309 H   0  0  0  0  0  0
  -28.8994  -15.8613   20.7833 H   0  0  0  0  0  0
  -32.0704  -18.4002   20.4519 H   0  0  0  0  0  0
  -32.3571  -16.6869   20.4502 H   0  0  0  0  0  0
  -30.4781  -25.1865   19.9505 H   0  0  0  0  0  0
  1 25  1  0  0  0
  1 30  2  0  0  0
  1 80  1  0  0  0
  2  3  1  0  0  0
  2 25  1  0  0  0
  2 83  1  0  0  0
  2 84  1  0  0  0
  3  4  1  0  0  0
  3 85  1  0  0  0
  3 86  1  0  0  0
  4  5  1  0  0  0
  4 87  1  0  0  0
  4 88  1  0  0  0
  5  6  1  0  0  0
  5 26  1  0  0  0
  5 89  1  0  0  0
  6 25  1  0  0  0
  6 90  1  0  0  0
  6 91  1  0  0  0
  7  8  2  0  0  0
  7 26  1  0  0  0
  7 29  1  0  0  0
  8  9  1  0  0  0
  8 22  1  0  0  0
  9 10  1  0  0  0
  9 27  2  0  0  0
 10 11  2  0  0  0
 10 15  1  0  0  0
 11 12  1  0  0  0
 11 92  1  0  0  0
 12 13  2  0  0  0
 12 93  1  0  0  0
 13 14  1  0  0  0
 13 31  1  0  0  0
 14 15  2  0  0  0
 14 94  1  0  0  0
 15 95  1  0  0  0
 16 17  2  0  0  0
 16 21  1  0  0  0
 16 31  1  0  0  0
 17 18  1  0  0  0
 17 96  1  0  0  0
 18 19  2  0  0  0
 18 97  1  0  0  0
 19 20  1  0  0  0
 19 24  1  0  0  0
 20 21  2  0  0  0
 20 98  1  0  0  0
 21 23  1  0  0  0
 22 28  1  0  0  0
 22 32  2  0  0  0
 26 27  1  0  0  0
 28 99  1  0  0  0
 28100  1  0  0  0
 29101  1  0  0  0
 29102  1  0  0  0
 33 34  1  0  0  0
 33 66  1  0  0  0
 33 70  2  0  0  0
 34 36  1  0  0  0
 34 59  1  0  0  0
 34103  1  0  0  0
 35 44  2  0  0  0
 35 45  1  0  0  0
 35 68  1  0  0  0
 36 56  1  0  0  0
 36104  1  0  0  0
 37 39  1  0  0  0
 37 47  1  0  0  0
 37 66  1  0  0  0
 37105  1  0  0  0
 38 43  2  0  0  0
 38 46  1  0  0  0
 38 47  1  0  0  0
 39 64  1  0  0  0
 39 67  2  0  0  0
 40 52  1  0  0  0
 40 53  2  0  0  0
 40 58  1  0  0  0
 41106  1  0  0  0
 41107  1  0  0  0
 41108  1  0  0  0
 41 48  1  0  0  0
 42 43  1  0  0  0
 42 66  1  0  0  0
 42109  1  0  0  0
 42110  1  0  0  0
 43 44  1  0  0  0
 44111  1  0  0  0
 45 46  2  0  0  0
 45112  1  0  0  0
 46113  1  0  0  0
 47114  1  0  0  0
 47115  1  0  0  0
 48 56  1  0  0  0
 48 65  1  0  0  0
 48116  1  0  0  0
 49 50  1  0  0  0
 49 53  1  0  0  0
 49 64  1  0  0  0
 49117  1  0  0  0
 50 51  1  0  0  0
 50118  1  0  0  0
 50119  1  0  0  0
 51 52  1  0  0  0
 51120  1  0  0  0
 51121  1  0  0  0
 52122  1  0  0  0
 52123  1  0  0  0
 53 54  1  0  0  0
 54 55  2  0  0  0
 54124  1  0  0  0
 55 57  1  0  0  0
 55125  1  0  0  0
 56 69  2  0  0  0
 57 58  2  0  0  0
 57126  1  0  0  0
 58127  1  0  0  0
 59 60  1  0  0  0
 59 61  1  0  0  0
 59 62  1  0  0  0
 60128  1  0  0  0
 60129  1  0  0  0
 60130  1  0  0  0
 61131  1  0  0  0
 61132  1  0  0  0
 61133  1  0  0  0
 62134  1  0  0  0
 62135  1  0  0  0
 62136  1  0  0  0
 63 65  1  0  0  0
 63137  1  0  0  0
 63138  1  0  0  0
 63139  1  0  0  0
 64140  1  0  0  0
 65141  1  0  0  0
 68 76  1  0  0  0
 71 74  1  0  0  0
 71 80  1  0  0  0
 71 81  2  0  0  0
 72142  1  0  0  0
 72143  1  0  0  0
 72144  1  0  0  0
 72 77  1  0  0  0
 73145  1  0  0  0
 73146  1  0  0  0
 73147  1  0  0  0
 73 78  1  0  0  0
 74 77  1  0  0  0
 74148  1  0  0  0
 74149  1  0  0  0
 75 78  1  0  0  0
 75 79  1  0  0  0
 75150  1  0  0  0
 75151  1  0  0  0
 76 79  1  0  0  0
 76152  1  0  0  0
 76153  1  0  0  0
 77 78  1  0  0  0
 77154  1  0  0  0
 78155  1  0  0  0
 79 82  1  0  0  0
 79156  1  0  0  0
 80157  1  0  0  0
 81158  1  0  0  0
 81159  1  0  0  0
 82160  1  0  0  0
M  CHG  1  81   1
M  ISO  4   1 100  68 101  76 101  80 100
M  END
> <chiral flag>
0

> <version>
0

> <s_m_source_file>
/data/baiqing/PycharmProjects/Reinvent-master-3.2/result/LINK_invent/BTK/process_docking_weight1_custom_sum_contain_oxygen_bond_distance_aromatic_linkinvent_7_9_3/rearranged_h_0113.sdf

> <i_m_source_file_index>
8

> <r_mmod_Potential_Energy-OPLS-2005>
121.984985351562

> <r_mmod_Stretch_Energy-OPLS-2005>
99.0802841186523

> <r_mmod_Bend_Energy-OPLS-2005>
156.906402587891

> <r_mmod_Torsional_Energy-OPLS-2005>
262.439147949219

> <r_mmod_Improper_Torsional_Energy-OPLS-2005>
7.19763898849487

> <r_mmod_Van_der_Waal_Energy-OPLS-2005>
135.537109375

> <r_mmod_Electrostatic_Energy-OPLS-2005>
-145.489166259766

> <r_mmod_Solvation_Energy-OPLS-2005>
-443.712188720703

> <b_mmod_Minimization_Converged-OPLS-2005>
0

> <r_mmod_RMS_Derivative-OPLS-2005>
1.87614607810974

$$$$
9
                    3D
 Structure written by MMmdl.
172180  0  0  1  0            999 V2000
  -30.7699  -14.3635   20.6717 C   0  0  0  0  0  0
  -30.4059  -12.2774   19.4133 C   0  0  0  0  0  0
  -29.4947  -12.5355   18.2011 C   0  0  0  0  0  0
  -28.0148  -12.3928   18.6034 C   0  0  0  0  0  0
  -27.6654  -13.2113   19.8753 C   0  0  2  0  0  0
  -28.6965  -12.9637   20.9987 C   0  0  0  0  0  0
  -25.2615  -13.8185   20.5665 C   0  0  0  0  0  0
  -24.1858  -13.0471   20.9171 C   0  0  0  0  0  0
  -24.6413  -11.6932   20.8720 C   0  0  0  0  0  0
  -23.9083  -10.4322   21.0408 C   0  0  0  0  0  0
  -24.3621   -9.4242   21.9200 C   0  0  0  0  0  0
  -23.6299   -8.2275   22.0777 C   0  0  0  0  0  0
  -22.4295   -8.0302   21.3557 C   0  0  0  0  0  0
  -21.9915   -9.0285   20.4677 C   0  0  0  0  0  0
  -22.7244  -10.2161   20.3084 C   0  0  0  0  0  0
  -21.6864   -6.0752   22.5302 C   0  0  0  0  0  0
  -21.4017   -6.5653   23.8235 C   0  0  0  0  0  0
  -21.3656   -5.6797   24.9188 C   0  0  0  0  0  0
  -21.6051   -4.3066   24.7224 C   0  0  0  0  0  0
  -21.8809   -3.8162   23.4345 C   0  0  0  0  0  0
  -21.9185   -4.6980   22.3413 C   0  0  0  0  0  0
  -22.7875  -13.5285   21.1823 C   0  0  0  0  0  0
  -22.1656   -4.2170   21.0983 F   0  0  0  0  0  0
  -21.5620   -3.4549   25.7730 F   0  0  0  0  0  0
  -30.0458  -13.2342   20.4686 N   0  0  0  0  0  0
  -26.3040  -12.9367   20.3317 N   0  0  0  0  0  0
  -25.9331  -11.6530   20.5706 N   0  0  0  0  0  0
  -22.0495  -12.8290   22.0369 N   0  0  0  0  0  0
  -25.4339  -15.1901   20.4105 N   0  0  0  0  0  0
  -31.7850  -14.6437   20.0271 O   0  0  0  0  0  0
  -21.6664   -6.8896   21.4260 O   0  0  0  0  0  0
  -22.3581  -14.5609   20.6694 O   0  0  0  0  0  0
  -24.6167  -31.8675   23.2135 C   0  0  0  0  0  0
  -25.9074  -32.4812   23.8387 C   0  0  1  0  0  0
  -27.2292  -27.4422   20.0830 C   0  0  0  0  0  0
  -25.5952  -33.8609   24.2334 N   0  0  0  0  0  0
  -23.4028  -30.4989   21.5521 C   0  0  2  0  0  0
  -24.8454  -28.9657   20.1131 C   0  0  0  0  0  0
  -22.7410  -29.4721   22.4985 C   0  0  0  0  0  0
  -18.0318  -28.1356   22.8494 C   0  0  0  0  0  0
  -24.1499  -36.7325   23.2618 C   0  0  0  0  0  0
  -25.9318  -30.8404   21.3614 C   0  0  0  0  0  0
  -26.0079  -29.4751   20.7079 C   0  0  0  0  0  0
  -27.1989  -28.7184   20.6925 C   0  0  0  0  0  0
  -26.0460  -26.9562   19.4718 C   0  0  0  0  0  0
  -24.8594  -27.7077   19.4939 C   0  0  0  0  0  0
  -23.6114  -29.8358   20.1636 C   0  0  0  0  0  0
  -25.4116  -36.3102   24.0319 C   0  0  1  0  0  0
  -20.5885  -28.3746   23.1325 C   0  0  2  0  0  0
  -20.6839  -26.9486   22.5461 C   0  0  0  0  0  0
  -19.5844  -26.6391   21.5257 C   0  0  0  0  0  0
  -18.2035  -26.7882   22.1698 C   0  0  0  0  0  0
  -19.1524  -28.8874   23.2875 C   0  0  0  0  0  0
  -18.9393  -30.1507   23.8834 C   0  0  0  0  0  0
  -17.6375  -30.6576   24.0515 C   0  0  0  0  0  0
  -25.9051  -34.9468   23.5103 C   0  0  0  0  0  0
  -16.5316  -29.8997   23.6305 C   0  0  0  0  0  0
  -16.7280  -28.6427   23.0316 C   0  0  0  0  0  0
  -26.4510  -31.6585   25.0686 C   0  0  0  0  0  0
  -25.3793  -31.3686   26.1443 C   0  0  0  0  0  0
  -27.0344  -30.3035   24.6063 C   0  0  0  0  0  0
  -27.6105  -32.4262   25.7452 C   0  0  0  0  0  0
  -27.5583  -37.1815   24.8451 C   0  0  0  0  0  0
  -21.4144  -29.3084   22.3697 N   0  0  0  0  0  0
  -26.4294  -37.3783   23.9391 N   0  0  0  0  0  0
  -24.6689  -31.0818   22.1010 N   0  0  0  0  0  0
  -23.4148  -28.8285   23.3077 O   0  0  0  0  0  0
  -28.4142  -26.7336   20.1198 O   0  0  0  0  0  0
  -26.5590  -34.8903   22.4654 O   0  0  0  0  0  0
  -23.5375  -32.1425   23.7565 O   0  0  0  0  0  0
  -28.6337  -19.4463   21.0761 C   0  0  0  0  0  0
  -28.3967  -23.9596   21.6607 C   0  0  0  0  0  0
  -27.5937  -23.0726   19.3890 C   0  0  0  0  0  0
  -28.6431  -22.4488   21.8648 C   0  0  0  0  0  0
  -26.8455  -21.9256   20.0888 C   0  0  0  0  0  0
  -27.7491  -24.3128   20.2952 C   0  0  2  0  0  0
  -27.4051  -21.5902   21.4985 C   0  0  1  0  0  0
  -25.4076  -19.0481   21.7130 C   0  0  0  0  0  0
  -29.0799  -18.0634   21.6097 C   0  0  0  0  0  0
  -28.4901  -25.4385   19.5226 C   0  0  0  0  0  0
  -26.6232  -19.4771   22.5474 C   0  0  0  0  0  0
  -31.0103  -16.4063   22.0450 C   0  0  0  0  0  0
  -30.5375  -17.6429   21.2370 C   0  0  2  0  0  0
  -30.3357  -15.1705   21.6477 N   0  0  0  0  0  0
  -27.6345  -20.1336   21.6962 N   0  0  0  0  0  0
  -31.5049  -18.7481   21.4143 N   0  3  0  0  0  0
  -29.2787  -19.9348   20.1436 O   0  0  0  0  0  0
  -31.4573  -12.3465   19.1278 H   0  0  0  0  0  0
  -30.2678  -11.2604   19.7803 H   0  0  0  0  0  0
  -29.7337  -11.8489   17.3893 H   0  0  0  0  0  0
  -29.6741  -13.5395   17.8171 H   0  0  0  0  0  0
  -27.8068  -11.3347   18.7682 H   0  0  0  0  0  0
  -27.3753  -12.6991   17.7745 H   0  0  0  0  0  0
  -27.7200  -14.2646   19.5993 H   0  0  0  0  0  0
  -28.6437  -11.9260   21.3350 H   0  0  0  0  0  0
  -28.4442  -13.5628   21.8728 H   0  0  0  0  0  0
  -25.2761   -9.5720   22.4775 H   0  0  0  0  0  0
  -24.0021   -7.4671   22.7493 H   0  0  0  0  0  0
  -21.0855   -8.8826   19.8974 H   0  0  0  0  0  0
  -22.3732  -10.9707   19.6206 H   0  0  0  0  0  0
  -21.2023   -7.6165   23.9742 H   0  0  0  0  0  0
  -21.1486   -6.0528   25.9087 H   0  0  0  0  0  0
  -22.0581   -2.7624   23.2852 H   0  0  0  0  0  0
  -22.4065  -11.9931   22.4769 H   0  0  0  0  0  0
  -21.1146  -13.1405   22.2588 H   0  0  0  0  0  0
  -24.6655  -15.8415   20.5232 H   0  0  0  0  0  0
  -26.2745  -15.6250   20.0537 H   0  0  0  0  0  0
  -26.7126  -32.5496   23.1127 H   0  0  0  0  0  0
  -25.0140  -33.9776   25.0506 H   0  0  0  0  0  0
  -22.6919  -31.3163   21.4154 H   0  0  0  0  0  0
  -23.3734  -35.9679   23.3289 H   0  0  0  0  0  0
  -24.3570  -36.8929   22.2024 H   0  0  0  0  0  0
  -23.7273  -37.6536   23.6645 H   0  0  0  0  0  0
  -26.0316  -31.6103   20.5946 H   0  0  0  0  0  0
  -26.8235  -30.8976   21.9756 H   0  0  0  0  0  0
  -28.0973  -29.1171   21.1447 H   0  0  0  0  0  0
  -26.0134  -26.0013   18.9642 H   0  0  0  0  0  0
  -23.9625  -27.3137   19.0324 H   0  0  0  0  0  0
  -23.7293  -30.6151   19.4092 H   0  0  0  0  0  0
  -22.7348  -29.2665   19.8548 H   0  0  0  0  0  0
  -25.1281  -36.1963   25.0806 H   0  0  0  0  0  0
  -20.9915  -28.3417   24.1482 H   0  0  0  0  0  0
  -20.5889  -26.2390   23.3705 H   0  0  0  0  0  0
  -21.6689  -26.7634   22.1187 H   0  0  0  0  0  0
  -19.7120  -25.6272   21.1346 H   0  0  0  0  0  0
  -19.6706  -27.3145   20.6729 H   0  0  0  0  0  0
  -17.4304  -26.6553   21.4101 H   0  0  0  0  0  0
  -18.0502  -26.0088   22.9174 H   0  0  0  0  0  0
  -19.7860  -30.7347   24.2145 H   0  0  0  0  0  0
  -17.4856  -31.6242   24.5126 H   0  0  0  0  0  0
  -15.5274  -30.2810   23.7661 H   0  0  0  0  0  0
  -15.8694  -28.0724   22.6981 H   0  0  0  0  0  0
  -24.5982  -30.7005   25.7788 H   0  0  0  0  0  0
  -24.8971  -32.2853   26.4878 H   0  0  0  0  0  0
  -25.8166  -30.8864   27.0200 H   0  0  0  0  0  0
  -26.2889  -29.6764   24.1169 H   0  0  0  0  0  0
  -27.4178  -29.7288   25.4505 H   0  0  0  0  0  0
  -27.8691  -30.4329   23.9154 H   0  0  0  0  0  0
  -27.2757  -33.3544   26.2094 H   0  0  0  0  0  0
  -28.3924  -32.6829   25.0286 H   0  0  0  0  0  0
  -28.0797  -31.8319   26.5315 H   0  0  0  0  0  0
  -28.2604  -38.0115   24.7499 H   0  0  0  0  0  0
  -28.1083  -36.2643   24.6293 H   0  0  0  0  0  0
  -27.2293  -37.1474   25.8851 H   0  0  0  0  0  0
  -20.9314  -29.8739   21.6859 H   0  0  0  0  0  0
  -26.0194  -38.2843   24.1420 H   0  0  0  0  0  0
  -29.3413  -24.4897   21.7867 H   0  0  0  0  0  0
  -27.7519  -24.3263   22.4595 H   0  0  0  0  0  0
  -27.0537  -23.3490   18.4832 H   0  0  0  0  0  0
  -28.5729  -22.7270   19.0531 H   0  0  0  0  0  0
  -28.9389  -22.2558   22.8956 H   0  0  0  0  0  0
  -29.5027  -22.1725   21.2555 H   0  0  0  0  0  0
  -26.8556  -21.0526   19.4368 H   0  0  0  0  0  0
  -25.7936  -22.2010   20.1828 H   0  0  0  0  0  0
  -26.7352  -24.6380   20.5221 H   0  0  0  0  0  0
  -26.6393  -21.9196   22.1995 H   0  0  0  0  0  0
  -25.6834  -18.3257   20.9433 H   0  0  0  0  0  0
  -24.9527  -19.9054   21.2170 H   0  0  0  0  0  0
  -24.6449  -18.5886   22.3419 H   0  0  0  0  0  0
  -28.3729  -17.3096   21.2656 H   0  0  0  0  0  0
  -29.0188  -18.0776   22.6958 H   0  0  0  0  0  0
  -28.1510  -25.4984   18.4872 H   0  0  0  0  0  0
  -29.5453  -25.1748   19.4512 H   0  0  0  0  0  0
  -27.0055  -18.6071   23.0802 H   0  0  0  0  0  0
  -26.3028  -20.1496   23.3421 H   0  0  0  0  0  0
  -30.8306  -16.5669   23.1092 H   0  0  0  0  0  0
  -32.0913  -16.2791   21.9510 H   0  0  0  0  0  0
  -30.5591  -17.3967   20.1733 H   0  0  0  0  0  0
  -29.5230  -14.8766   22.1699 H   0  0  0  0  0  0
  -31.6315  -19.0035   22.3784 H   0  0  0  0  0  0
  -31.1678  -19.5454   20.8954 H   0  0  0  0  0  0
  -32.3986  -18.4952   21.0322 H   0  0  0  0  0  0
  1 25  1  0  0  0
  1 30  2  0  0  0
  1 84  1  0  0  0
  2  3  1  0  0  0
  2 25  1  0  0  0
  2 88  1  0  0  0
  2 89  1  0  0  0
  3  4  1  0  0  0
  3 90  1  0  0  0
  3 91  1  0  0  0
  4  5  1  0  0  0
  4 92  1  0  0  0
  4 93  1  0  0  0
  5  6  1  0  0  0
  5 26  1  0  0  0
  5 94  1  0  0  0
  6 25  1  0  0  0
  6 95  1  0  0  0
  6 96  1  0  0  0
  7  8  2  0  0  0
  7 26  1  0  0  0
  7 29  1  0  0  0
  8  9  1  0  0  0
  8 22  1  0  0  0
  9 10  1  0  0  0
  9 27  2  0  0  0
 10 11  2  0  0  0
 10 15  1  0  0  0
 11 12  1  0  0  0
 11 97  1  0  0  0
 12 13  2  0  0  0
 12 98  1  0  0  0
 13 14  1  0  0  0
 13 31  1  0  0  0
 14 15  2  0  0  0
 14 99  1  0  0  0
 15100  1  0  0  0
 16 17  2  0  0  0
 16 21  1  0  0  0
 16 31  1  0  0  0
 17 18  1  0  0  0
 17101  1  0  0  0
 18 19  2  0  0  0
 18102  1  0  0  0
 19 20  1  0  0  0
 19 24  1  0  0  0
 20 21  2  0  0  0
 20103  1  0  0  0
 21 23  1  0  0  0
 22 28  1  0  0  0
 22 32  2  0  0  0
 26 27  1  0  0  0
 28104  1  0  0  0
 28105  1  0  0  0
 29106  1  0  0  0
 29107  1  0  0  0
 33 34  1  0  0  0
 33 66  1  0  0  0
 33 70  2  0  0  0
 34 36  1  0  0  0
 34 59  1  0  0  0
 34108  1  0  0  0
 35 44  2  0  0  0
 35 45  1  0  0  0
 35 68  1  0  0  0
 36 56  1  0  0  0
 36109  1  0  0  0
 37 39  1  0  0  0
 37 47  1  0  0  0
 37 66  1  0  0  0
 37110  1  0  0  0
 38 43  2  0  0  0
 38 46  1  0  0  0
 38 47  1  0  0  0
 39 64  1  0  0  0
 39 67  2  0  0  0
 40 52  1  0  0  0
 40 53  2  0  0  0
 40 58  1  0  0  0
 41111  1  0  0  0
 41112  1  0  0  0
 41113  1  0  0  0
 41 48  1  0  0  0
 42 43  1  0  0  0
 42 66  1  0  0  0
 42114  1  0  0  0
 42115  1  0  0  0
 43 44  1  0  0  0
 44116  1  0  0  0
 45 46  2  0  0  0
 45117  1  0  0  0
 46118  1  0  0  0
 47119  1  0  0  0
 47120  1  0  0  0
 48 56  1  0  0  0
 48 65  1  0  0  0
 48121  1  0  0  0
 49 50  1  0  0  0
 49 53  1  0  0  0
 49 64  1  0  0  0
 49122  1  0  0  0
 50 51  1  0  0  0
 50123  1  0  0  0
 50124  1  0  0  0
 51 52  1  0  0  0
 51125  1  0  0  0
 51126  1  0  0  0
 52127  1  0  0  0
 52128  1  0  0  0
 53 54  1  0  0  0
 54 55  2  0  0  0
 54129  1  0  0  0
 55 57  1  0  0  0
 55130  1  0  0  0
 56 69  2  0  0  0
 57 58  2  0  0  0
 57131  1  0  0  0
 58132  1  0  0  0
 59 60  1  0  0  0
 59 61  1  0  0  0
 59 62  1  0  0  0
 60133  1  0  0  0
 60134  1  0  0  0
 60135  1  0  0  0
 61136  1  0  0  0
 61137  1  0  0  0
 61138  1  0  0  0
 62139  1  0  0  0
 62140  1  0  0  0
 62141  1  0  0  0
 63 65  1  0  0  0
 63142  1  0  0  0
 63143  1  0  0  0
 63144  1  0  0  0
 64145  1  0  0  0
 65146  1  0  0  0
 68 80  1  0  0  0
 71 79  1  0  0  0
 71 85  1  0  0  0
 71 87  2  0  0  0
 72 74  1  0  0  0
 72 76  1  0  0  0
 72147  1  0  0  0
 72148  1  0  0  0
 73 75  1  0  0  0
 73 76  1  0  0  0
 73149  1  0  0  0
 73150  1  0  0  0
 74 77  1  0  0  0
 74151  1  0  0  0
 74152  1  0  0  0
 75 77  1  0  0  0
 75153  1  0  0  0
 75154  1  0  0  0
 76 80  1  0  0  0
 76155  1  0  0  0
 77 85  1  0  0  0
 77156  1  0  0  0
 78 81  1  0  0  0
 78157  1  0  0  0
 78158  1  0  0  0
 78159  1  0  0  0
 79 83  1  0  0  0
 79160  1  0  0  0
 79161  1  0  0  0
 80162  1  0  0  0
 80163  1  0  0  0
 81 85  1  0  0  0
 81164  1  0  0  0
 81165  1  0  0  0
 82 83  1  0  0  0
 82 84  1  0  0  0
 82166  1  0  0  0
 82167  1  0  0  0
 83 86  1  0  0  0
 83168  1  0  0  0
 84169  1  0  0  0
 86170  1  0  0  0
 86171  1  0  0  0
 86172  1  0  0  0
M  CHG  1  86   1
M  ISO  4   1 100  68 101  80 101  84 100
M  END
> <chiral flag>
0

> <version>
0

> <s_m_source_file>
/data/baiqing/PycharmProjects/Reinvent-master-3.2/result/LINK_invent/BTK/process_docking_weight1_custom_sum_contain_oxygen_bond_distance_aromatic_linkinvent_7_9_3/rearranged_h_0113.sdf

> <i_m_source_file_index>
9

> <r_mmod_Potential_Energy-OPLS-2005>
-287.081420898438

> <r_mmod_Stretch_Energy-OPLS-2005>
40.0580749511719

> <r_mmod_Bend_Energy-OPLS-2005>
109.91178894043

> <r_mmod_Torsional_Energy-OPLS-2005>
256.792816162109

> <r_mmod_Improper_Torsional_Energy-OPLS-2005>
2.82483506202698

> <r_mmod_Van_der_Waal_Energy-OPLS-2005>
162.517425537109

> <r_mmod_Electrostatic_Energy-OPLS-2005>
-395.645324707031

> <r_mmod_Solvation_Energy-OPLS-2005>
-472.500335693359

> <b_mmod_Minimization_Converged-OPLS-2005>
0

> <r_mmod_RMS_Derivative-OPLS-2005>
4.58739709854126

$$$$
10
                    3D
 Structure written by MMmdl.
165173  0  0  1  0            999 V2000
  -30.6929  -14.5749   20.5992 C   0  0  0  0  0  0
  -30.4270  -12.3779   19.4551 C   0  0  0  0  0  0
  -29.5053  -12.5193   18.2249 C   0  0  0  0  0  0
  -28.0279  -12.3548   18.6301 C   0  0  0  0  0  0
  -27.6550  -13.2145   19.8652 C   0  0  2  0  0  0
  -28.6888  -13.0369   20.9937 C   0  0  0  0  0  0
  -25.2567  -13.8168   20.5671 C   0  0  0  0  0  0
  -24.1824  -13.0437   20.9161 C   0  0  0  0  0  0
  -24.6388  -11.6907   20.8713 C   0  0  0  0  0  0
  -23.9057  -10.4291   21.0394 C   0  0  0  0  0  0
  -24.3602   -9.4211   21.9179 C   0  0  0  0  0  0
  -23.6279   -8.2247   22.0760 C   0  0  0  0  0  0
  -22.4262   -8.0283   21.3549 C   0  0  0  0  0  0
  -21.9892   -9.0258   20.4656 C   0  0  0  0  0  0
  -22.7225  -10.2135   20.3055 C   0  0  0  0  0  0
  -21.6856   -6.0727   22.5278 C   0  0  0  0  0  0
  -21.4021   -6.5632   23.8211 C   0  0  0  0  0  0
  -21.3657   -5.6785   24.9172 C   0  0  0  0  0  0
  -21.6045   -4.3047   24.7227 C   0  0  0  0  0  0
  -21.8816   -3.8138   23.4347 C   0  0  0  0  0  0
  -21.9191   -4.6954   22.3401 C   0  0  0  0  0  0
  -22.7855  -13.5243   21.1832 C   0  0  0  0  0  0
  -22.1661   -4.2138   21.0981 F   0  0  0  0  0  0
  -21.5627   -3.4533   25.7741 F   0  0  0  0  0  0
  -30.0158  -13.3871   20.4560 N   0  0  0  0  0  0
  -26.2984  -12.9347   20.3289 N   0  0  0  0  0  0
  -25.9310  -11.6501   20.5717 N   0  0  0  0  0  0
  -22.0496  -12.8246   22.0398 N   0  0  0  0  0  0
  -25.4307  -15.1891   20.4126 N   0  0  0  0  0  0
  -31.7898  -14.7413   20.0544 O   0  0  0  0  0  0
  -21.6642   -6.8869   21.4238 O   0  0  0  0  0  0
  -22.3541  -14.5553   20.6693 O   0  0  0  0  0  0
  -24.6222  -31.8622   23.2032 C   0  0  0  0  0  0
  -25.9087  -32.4785   23.8352 C   0  0  1  0  0  0
  -27.2308  -27.3519   20.1062 C   0  0  0  0  0  0
  -25.5913  -33.8588   24.2288 N   0  0  0  0  0  0
  -23.4129  -30.4850   21.5458 C   0  0  2  0  0  0
  -24.8575  -28.9381   20.1156 C   0  0  0  0  0  0
  -22.7438  -29.4631   22.4952 C   0  0  0  0  0  0
  -18.0276  -28.1381   22.8491 C   0  0  0  0  0  0
  -24.1487  -36.7299   23.2640 C   0  0  0  0  0  0
  -25.9496  -30.8028   21.3673 C   0  0  0  0  0  0
  -26.0235  -29.4311   20.7127 C   0  0  0  0  0  0
  -27.2092  -28.6484   20.6981 C   0  0  0  0  0  0
  -26.0332  -26.8884   19.5138 C   0  0  0  0  0  0
  -24.8618  -27.6699   19.5125 C   0  0  0  0  0  0
  -23.6242  -29.8143   20.1625 C   0  0  0  0  0  0
  -25.4112  -36.3088   24.0332 C   0  0  1  0  0  0
  -20.5869  -28.3679   23.1297 C   0  0  2  0  0  0
  -20.6764  -26.9404   22.5414 C   0  0  0  0  0  0
  -19.5739  -26.6383   21.5213 C   0  0  0  0  0  0
  -18.1921  -26.7927   22.1629 C   0  0  0  0  0  0
  -19.1527  -28.8847   23.2892 C   0  0  0  0  0  0
  -18.9450  -30.1451   23.8905 C   0  0  0  0  0  0
  -17.6452  -30.6585   24.0566 C   0  0  0  0  0  0
  -25.9047  -34.9456   23.5109 C   0  0  0  0  0  0
  -16.5343  -29.9086   23.6329 C   0  0  0  0  0  0
  -16.7265  -28.6502   23.0353 C   0  0  0  0  0  0
  -26.4494  -31.6586   25.0710 C   0  0  0  0  0  0
  -25.3740  -31.3711   26.1453 C   0  0  0  0  0  0
  -27.0328  -30.3007   24.6143 C   0  0  0  0  0  0
  -27.6059  -32.4314   25.7482 C   0  0  0  0  0  0
  -27.5578  -37.1807   24.8465 C   0  0  0  0  0  0
  -21.4158  -29.3041   22.3696 N   0  0  0  0  0  0
  -26.4295  -37.3784   23.9409 N   0  0  0  0  0  0
  -24.6803  -31.0664   22.0961 N   0  0  0  0  0  0
  -23.4180  -28.8169   23.3015 O   0  0  0  0  0  0
  -28.4039  -26.5933   20.1350 O   0  0  0  0  0  0
  -26.5617  -34.8923   22.4676 O   0  0  0  0  0  0
  -23.5396  -32.1409   23.7386 O   0  0  0  0  0  0
  -29.6804  -20.3906   19.7100 C   0  0  0  0  0  0
  -29.6697  -21.9532   19.8882 C   0  0  0  0  0  0
  -27.9454  -21.6988   21.6412 C   0  0  0  0  0  0
  -29.2033  -19.6040   20.9665 C   0  0  2  0  0  0
  -28.3033  -22.5363   20.3706 C   0  0  2  0  0  0
  -27.2190  -22.3358   19.2858 C   0  0  0  0  0  0
  -29.7925  -15.5567   22.6369 C   0  0  0  0  0  0
  -29.0311  -18.0274   20.8124 C   0  0  0  0  0  0
  -28.3331  -24.0846   20.7657 C   0  0  0  0  0  0
  -30.2952  -17.0772   20.7857 C   0  0  0  0  0  0
  -28.4719  -25.2041   19.6651 C   0  0  0  0  0  0
  -30.0490  -15.6421   21.1899 N   0  0  0  0  0  0
  -27.9241  -20.2221   21.4173 N   0  3  0  0  0  0
  -31.4710  -12.4824   19.1555 H   0  0  0  0  0  0
  -30.3471  -11.3760   19.8804 H   0  0  0  0  0  0
  -29.7698  -11.7804   17.4672 H   0  0  0  0  0  0
  -29.6546  -13.4964   17.7624 H   0  0  0  0  0  0
  -27.8613  -11.3001   18.8525 H   0  0  0  0  0  0
  -27.3746  -12.5942   17.7908 H   0  0  0  0  0  0
  -27.6870  -14.2570   19.5475 H   0  0  0  0  0  0
  -28.6919  -12.0058   21.3499 H   0  0  0  0  0  0
  -28.3895  -13.6285   21.8533 H   0  0  0  0  0  0
  -25.2744   -9.5694   22.4753 H   0  0  0  0  0  0
  -23.9988   -7.4639   22.7478 H   0  0  0  0  0  0
  -21.0825   -8.8774   19.8966 H   0  0  0  0  0  0
  -22.3673  -10.9672   19.6164 H   0  0  0  0  0  0
  -21.2023   -7.6141   23.9712 H   0  0  0  0  0  0
  -21.1482   -6.0517   25.9073 H   0  0  0  0  0  0
  -22.0597   -2.7601   23.2853 H   0  0  0  0  0  0
  -22.4096  -11.9899   22.4782 H   0  0  0  0  0  0
  -21.1134  -13.1317   22.2631 H   0  0  0  0  0  0
  -24.6674  -15.8479   20.5221 H   0  0  0  0  0  0
  -26.2922  -15.6242   20.1080 H   0  0  0  0  0  0
  -26.7153  -32.5470   23.1103 H   0  0  0  0  0  0
  -25.0045  -33.9724   25.0420 H   0  0  0  0  0  0
  -22.7057  -31.3047   21.4027 H   0  0  0  0  0  0
  -23.3743  -35.9635   23.3311 H   0  0  0  0  0  0
  -24.3575  -36.8910   22.2051 H   0  0  0  0  0  0
  -23.7244  -37.6509   23.6653 H   0  0  0  0  0  0
  -26.0744  -31.5654   20.5975 H   0  0  0  0  0  0
  -26.8327  -30.8529   21.9926 H   0  0  0  0  0  0
  -28.1091  -29.0277   21.1621 H   0  0  0  0  0  0
  -25.9617  -25.9145   19.0567 H   0  0  0  0  0  0
  -23.9620  -27.2799   19.0558 H   0  0  0  0  0  0
  -23.7381  -30.5865   19.4008 H   0  0  0  0  0  0
  -22.7459  -29.2376   19.8662 H   0  0  0  0  0  0
  -25.1293  -36.1944   25.0824 H   0  0  0  0  0  0
  -20.9965  -28.3247   24.1417 H   0  0  0  0  0  0
  -20.5663  -26.2285   23.3609 H   0  0  0  0  0  0
  -21.6638  -26.7439   22.1210 H   0  0  0  0  0  0
  -19.6898  -25.6295   21.1239 H   0  0  0  0  0  0
  -19.6679  -27.3200   20.6746 H   0  0  0  0  0  0
  -17.4193  -26.6676   21.4030 H   0  0  0  0  0  0
  -18.0320  -26.0067   22.9021 H   0  0  0  0  0  0
  -19.7923  -30.7264   24.2282 H   0  0  0  0  0  0
  -17.5006  -31.6267   24.5164 H   0  0  0  0  0  0
  -15.5345  -30.2990   23.7647 H   0  0  0  0  0  0
  -15.8665  -28.0822   22.7067 H   0  0  0  0  0  0
  -24.5889  -30.7092   25.7782 H   0  0  0  0  0  0
  -24.8958  -32.2878   26.4918 H   0  0  0  0  0  0
  -25.8070  -30.8855   27.0207 H   0  0  0  0  0  0
  -26.2894  -29.6777   24.1161 H   0  0  0  0  0  0
  -27.4027  -29.7251   25.4638 H   0  0  0  0  0  0
  -27.8760  -30.4304   23.9354 H   0  0  0  0  0  0
  -27.2666  -33.3598   26.2088 H   0  0  0  0  0  0
  -28.3850  -32.6906   25.0302 H   0  0  0  0  0  0
  -28.0747  -31.8425   26.5376 H   0  0  0  0  0  0
  -28.2610  -38.0094   24.7503 H   0  0  0  0  0  0
  -28.1064  -36.2627   24.6304 H   0  0  0  0  0  0
  -27.2295  -37.1474   25.8870 H   0  0  0  0  0  0
  -20.9326  -29.8761   21.6909 H   0  0  0  0  0  0
  -26.0175  -38.2858   24.1413 H   0  0  0  0  0  0
  -30.6871  -20.0647   19.4461 H   0  0  0  0  0  0
  -29.0570  -20.1224   18.8567 H   0  0  0  0  0  0
  -29.9669  -22.4279   18.9526 H   0  0  0  0  0  0
  -30.4437  -22.2216   20.6093 H   0  0  0  0  0  0
  -26.9693  -21.9993   22.0243 H   0  0  0  0  0  0
  -28.6560  -21.9117   22.4418 H   0  0  0  0  0  0
  -29.9267  -19.7762   21.7654 H   0  0  0  0  0  0
  -26.2700  -22.7853   19.5824 H   0  0  0  0  0  0
  -27.0179  -21.2867   19.0734 H   0  0  0  0  0  0
  -27.5122  -22.7903   18.3387 H   0  0  0  0  0  0
  -30.1225  -14.6111   23.0742 H   0  0  0  0  0  0
  -30.3075  -16.3421   23.1929 H   0  0  0  0  0  0
  -28.7263  -15.6608   22.8412 H   0  0  0  0  0  0
  -28.4168  -17.8173   19.9356 H   0  0  0  0  0  0
  -28.4250  -17.7061   21.6586 H   0  0  0  0  0  0
  -29.1236  -24.2413   21.5012 H   0  0  0  0  0  0
  -27.4091  -24.3039   21.3028 H   0  0  0  0  0  0
  -30.7203  -17.1099   19.7809 H   0  0  0  0  0  0
  -31.0722  -17.4905   21.4307 H   0  0  0  0  0  0
  -27.8009  -25.0234   18.8303 H   0  0  0  0  0  0
  -29.4624  -25.0932   19.2236 H   0  0  0  0  0  0
  -27.2037  -20.0171   20.7446 H   0  0  0  0  0  0
  -27.6504  -19.7900   22.2857 H   0  0  0  0  0  0
  1 25  1  0  0  0
  1 30  2  0  0  0
  1 82  1  0  0  0
  2  3  1  0  0  0
  2 25  1  0  0  0
  2 84  1  0  0  0
  2 85  1  0  0  0
  3  4  1  0  0  0
  3 86  1  0  0  0
  3 87  1  0  0  0
  4  5  1  0  0  0
  4 88  1  0  0  0
  4 89  1  0  0  0
  5  6  1  0  0  0
  5 26  1  0  0  0
  5 90  1  0  0  0
  6 25  1  0  0  0
  6 91  1  0  0  0
  6 92  1  0  0  0
  7  8  2  0  0  0
  7 26  1  0  0  0
  7 29  1  0  0  0
  8  9  1  0  0  0
  8 22  1  0  0  0
  9 10  1  0  0  0
  9 27  2  0  0  0
 10 11  2  0  0  0
 10 15  1  0  0  0
 11 12  1  0  0  0
 11 93  1  0  0  0
 12 13  2  0  0  0
 12 94  1  0  0  0
 13 14  1  0  0  0
 13 31  1  0  0  0
 14 15  2  0  0  0
 14 95  1  0  0  0
 15 96  1  0  0  0
 16 17  2  0  0  0
 16 21  1  0  0  0
 16 31  1  0  0  0
 17 18  1  0  0  0
 17 97  1  0  0  0
 18 19  2  0  0  0
 18 98  1  0  0  0
 19 20  1  0  0  0
 19 24  1  0  0  0
 20 21  2  0  0  0
 20 99  1  0  0  0
 21 23  1  0  0  0
 22 28  1  0  0  0
 22 32  2  0  0  0
 26 27  1  0  0  0
 28100  1  0  0  0
 28101  1  0  0  0
 29102  1  0  0  0
 29103  1  0  0  0
 33 34  1  0  0  0
 33 66  1  0  0  0
 33 70  2  0  0  0
 34 36  1  0  0  0
 34 59  1  0  0  0
 34104  1  0  0  0
 35 44  2  0  0  0
 35 45  1  0  0  0
 35 68  1  0  0  0
 36 56  1  0  0  0
 36105  1  0  0  0
 37 39  1  0  0  0
 37 47  1  0  0  0
 37 66  1  0  0  0
 37106  1  0  0  0
 38 43  2  0  0  0
 38 46  1  0  0  0
 38 47  1  0  0  0
 39 64  1  0  0  0
 39 67  2  0  0  0
 40 52  1  0  0  0
 40 53  2  0  0  0
 40 58  1  0  0  0
 41107  1  0  0  0
 41108  1  0  0  0
 41109  1  0  0  0
 41 48  1  0  0  0
 42 43  1  0  0  0
 42 66  1  0  0  0
 42110  1  0  0  0
 42111  1  0  0  0
 43 44  1  0  0  0
 44112  1  0  0  0
 45 46  2  0  0  0
 45113  1  0  0  0
 46114  1  0  0  0
 47115  1  0  0  0
 47116  1  0  0  0
 48 56  1  0  0  0
 48 65  1  0  0  0
 48117  1  0  0  0
 49 50  1  0  0  0
 49 53  1  0  0  0
 49 64  1  0  0  0
 49118  1  0  0  0
 50 51  1  0  0  0
 50119  1  0  0  0
 50120  1  0  0  0
 51 52  1  0  0  0
 51121  1  0  0  0
 51122  1  0  0  0
 52123  1  0  0  0
 52124  1  0  0  0
 53 54  1  0  0  0
 54 55  2  0  0  0
 54125  1  0  0  0
 55 57  1  0  0  0
 55126  1  0  0  0
 56 69  2  0  0  0
 57 58  2  0  0  0
 57127  1  0  0  0
 58128  1  0  0  0
 59 60  1  0  0  0
 59 61  1  0  0  0
 59 62  1  0  0  0
 60129  1  0  0  0
 60130  1  0  0  0
 60131  1  0  0  0
 61132  1  0  0  0
 61133  1  0  0  0
 61134  1  0  0  0
 62135  1  0  0  0
 62136  1  0  0  0
 62137  1  0  0  0
 63 65  1  0  0  0
 63138  1  0  0  0
 63139  1  0  0  0
 63140  1  0  0  0
 64141  1  0  0  0
 65142  1  0  0  0
 68 81  1  0  0  0
 71 72  1  0  0  0
 71 74  1  0  0  0
 71143  1  0  0  0
 71144  1  0  0  0
 72 75  1  0  0  0
 72145  1  0  0  0
 72146  1  0  0  0
 73 75  1  0  0  0
 73 83  1  0  0  0
 73147  1  0  0  0
 73148  1  0  0  0
 74 78  1  0  0  0
 74 83  1  0  0  0
 74149  1  0  0  0
 75 76  1  0  0  0
 75 79  1  0  0  0
 76150  1  0  0  0
 76151  1  0  0  0
 76152  1  0  0  0
 77 82  1  0  0  0
 77153  1  0  0  0
 77154  1  0  0  0
 77155  1  0  0  0
 78 80  1  0  0  0
 78156  1  0  0  0
 78157  1  0  0  0
 79 81  1  0  0  0
 79158  1  0  0  0
 79159  1  0  0  0
 80 82  1  0  0  0
 80160  1  0  0  0
 80161  1  0  0  0
 81162  1  0  0  0
 81163  1  0  0  0
 83164  1  0  0  0
 83165  1  0  0  0
M  CHG  1  83   1
M  ISO  4   1 100  68 101  81 101  82 100
M  END
> <chiral flag>
0

> <version>
0

> <s_m_source_file>
/data/baiqing/PycharmProjects/Reinvent-master-3.2/result/LINK_invent/BTK/process_docking_weight1_custom_sum_contain_oxygen_bond_distance_aromatic_linkinvent_7_9_3/rearranged_h_0113.sdf

> <i_m_source_file_index>
10

> <r_mmod_Potential_Energy-OPLS-2005>
70.1322402954102

> <r_mmod_Stretch_Energy-OPLS-2005>
73.809455871582

> <r_mmod_Bend_Energy-OPLS-2005>
149.332305908203

> <r_mmod_Torsional_Energy-OPLS-2005>
308.409332275391

> <r_mmod_Improper_Torsional_Energy-OPLS-2005>
7.02849102020264

> <r_mmod_Van_der_Waal_Energy-OPLS-2005>
136.950866699219

> <r_mmod_Electrostatic_Energy-OPLS-2005>
-184.886383056641

> <r_mmod_Solvation_Energy-OPLS-2005>
-449.10595703125

> <b_mmod_Minimization_Converged-OPLS-2005>
0

> <r_mmod_RMS_Derivative-OPLS-2005>
1.23357582092285

$$$$
11
                    3D
 Structure written by MMmdl.
169177  0  0  1  0            999 V2000
  -30.6183  -14.7376   20.4476 C   0  0  0  0  0  0
  -30.4345  -12.4507   19.4646 C   0  0  0  0  0  0
  -29.5130  -12.5055   18.2266 C   0  0  0  0  0  0
  -28.0343  -12.3448   18.6321 C   0  0  0  0  0  0
  -27.6408  -13.2345   19.8420 C   0  0  2  0  0  0
  -28.6884  -13.1628   20.9740 C   0  0  0  0  0  0
  -25.2527  -13.8205   20.5695 C   0  0  0  0  0  0
  -24.1821  -13.0448   20.9224 C   0  0  0  0  0  0
  -24.6402  -11.6920   20.8726 C   0  0  0  0  0  0
  -23.9072  -10.4301   21.0386 C   0  0  0  0  0  0
  -24.3624   -9.4215   21.9165 C   0  0  0  0  0  0
  -23.6295   -8.2247   22.0749 C   0  0  0  0  0  0
  -22.4274   -8.0285   21.3544 C   0  0  0  0  0  0
  -21.9916   -9.0247   20.4636 C   0  0  0  0  0  0
  -22.7241  -10.2124   20.3038 C   0  0  0  0  0  0
  -21.6862   -6.0729   22.5271 C   0  0  0  0  0  0
  -21.4016   -6.5633   23.8198 C   0  0  0  0  0  0
  -21.3658   -5.6789   24.9170 C   0  0  0  0  0  0
  -21.6048   -4.3048   24.7218 C   0  0  0  0  0  0
  -21.8825   -3.8138   23.4338 C   0  0  0  0  0  0
  -21.9194   -4.6959   22.3396 C   0  0  0  0  0  0
  -22.7833  -13.5221   21.1863 C   0  0  0  0  0  0
  -22.1663   -4.2141   21.0977 F   0  0  0  0  0  0
  -21.5628   -3.4535   25.7728 F   0  0  0  0  0  0
  -29.9878  -13.5157   20.3894 N   0  0  0  0  0  0
  -26.2940  -12.9411   20.3214 N   0  0  0  0  0  0
  -25.9331  -11.6553   20.5705 N   0  0  0  0  0  0
  -22.0463  -12.8214   22.0401 N   0  0  0  0  0  0
  -25.4226  -15.1947   20.4126 N   0  0  0  0  0  0
  -31.8145  -14.8262   20.1602 O   0  0  0  0  0  0
  -21.6648   -6.8875   21.4235 O   0  0  0  0  0  0
  -22.3532  -14.5515   20.6693 O   0  0  0  0  0  0
  -24.6330  -31.8537   23.1910 C   0  0  0  0  0  0
  -25.9157  -32.4748   23.8283 C   0  0  1  0  0  0
  -27.2391  -27.2493   20.1152 C   0  0  0  0  0  0
  -25.5967  -33.8554   24.2216 N   0  0  0  0  0  0
  -23.4308  -30.4747   21.5319 C   0  0  2  0  0  0
  -24.8779  -28.9091   20.1071 C   0  0  0  0  0  0
  -22.7519  -29.4620   22.4845 C   0  0  0  0  0  0
  -18.0313  -28.1440   22.8493 C   0  0  0  0  0  0
  -24.1463  -36.7210   23.2647 C   0  0  0  0  0  0
  -25.9752  -30.7599   21.3704 C   0  0  0  0  0  0
  -26.0448  -29.3778   20.7156 C   0  0  0  0  0  0
  -27.2191  -28.5592   20.7089 C   0  0  0  0  0  0
  -26.0340  -26.8367   19.5075 C   0  0  0  0  0  0
  -24.8758  -27.6450   19.4957 C   0  0  0  0  0  0
  -23.6506  -29.8002   20.1492 C   0  0  0  0  0  0
  -25.4097  -36.3031   24.0336 C   0  0  1  0  0  0
  -20.5920  -28.3725   23.1244 C   0  0  2  0  0  0
  -20.6784  -26.9445   22.5408 C   0  0  0  0  0  0
  -19.5760  -26.6415   21.5225 C   0  0  0  0  0  0
  -18.1934  -26.7984   22.1635 C   0  0  0  0  0  0
  -19.1579  -28.8897   23.2870 C   0  0  0  0  0  0
  -18.9515  -30.1496   23.8884 C   0  0  0  0  0  0
  -17.6513  -30.6630   24.0593 C   0  0  0  0  0  0
  -25.9070  -34.9448   23.5075 C   0  0  0  0  0  0
  -16.5387  -29.9153   23.6348 C   0  0  0  0  0  0
  -16.7306  -28.6575   23.0353 C   0  0  0  0  0  0
  -26.4508  -31.6582   25.0678 C   0  0  0  0  0  0
  -25.3718  -31.3777   26.1382 C   0  0  0  0  0  0
  -27.0373  -30.3010   24.6182 C   0  0  0  0  0  0
  -27.6075  -32.4302   25.7451 C   0  0  0  0  0  0
  -27.5546  -37.1740   24.8481 C   0  0  0  0  0  0
  -21.4228  -29.3066   22.3605 N   0  0  0  0  0  0
  -26.4228  -37.3778   23.9466 N   0  0  0  0  0  0
  -24.6983  -31.0490   22.0876 N   0  0  0  0  0  0
  -23.4209  -28.8177   23.2968 O   0  0  0  0  0  0
  -28.4058  -26.4400   20.1722 O   0  0  0  0  0  0
  -26.5641  -34.8935   22.4638 O   0  0  0  0  0  0
  -23.5476  -32.1347   23.7208 O   0  0  0  0  0  0
  -29.2263  -21.5828   22.6935 C   0  0  0  0  0  0
  -29.2254  -20.4827   23.5683 C   0  0  0  0  0  0
  -29.1326  -21.1523   21.3978 C   0  0  0  0  0  0
  -29.1561  -19.3400   22.8330 C   0  0  0  0  0  0
  -29.6961  -17.7310   24.7489 C   0  0  0  0  0  0
  -30.2127  -25.2131   19.4332 C   0  0  0  0  0  0
  -28.0985  -24.7652   18.2504 C   0  0  0  0  0  0
  -28.9886  -22.2148   20.2330 C   0  0  0  0  0  0
  -28.5119  -23.7475   20.6156 C   0  0  0  0  0  0
  -29.2619  -18.5916   20.3926 C   0  0  0  0  0  0
  -30.3148  -17.3453   20.5042 C   0  0  0  0  0  0
  -28.9596  -17.9508   23.4103 C   0  0  1  0  0  0
  -28.6919  -25.0435   19.6469 C   0  0  0  0  0  0
  -29.2268  -19.6839   21.4613 N   0  0  0  0  0  0
  -29.8541  -15.8843   20.6070 N   0  0  0  0  0  0
  -27.5218  -17.6823   23.5580 N   0  3  0  0  0  0
  -31.4750  -12.5751   19.1614 H   0  0  0  0  0  0
  -30.3808  -11.4742   19.9471 H   0  0  0  0  0  0
  -29.7904  -11.7302   17.5114 H   0  0  0  0  0  0
  -29.6504  -13.4568   17.7116 H   0  0  0  0  0  0
  -27.8682  -11.2946   18.8721 H   0  0  0  0  0  0
  -27.3880  -12.5638   17.7811 H   0  0  0  0  0  0
  -27.6344  -14.2568   19.4662 H   0  0  0  0  0  0
  -28.7242  -12.1627   21.4054 H   0  0  0  0  0  0
  -28.4299  -13.8397   21.7877 H   0  0  0  0  0  0
  -25.2765   -9.5693   22.4732 H   0  0  0  0  0  0
  -23.9996   -7.4651   22.7479 H   0  0  0  0  0  0
  -21.0841   -8.8760   19.8945 H   0  0  0  0  0  0
  -22.3696  -10.9653   19.6134 H   0  0  0  0  0  0
  -21.2017   -7.6138   23.9702 H   0  0  0  0  0  0
  -21.1471   -6.0516   25.9068 H   0  0  0  0  0  0
  -22.0607   -2.7601   23.2839 H   0  0  0  0  0  0
  -22.4059  -11.9878   22.4804 H   0  0  0  0  0  0
  -21.1052  -13.1221   22.2553 H   0  0  0  0  0  0
  -24.6284  -15.8235   20.4676 H   0  0  0  0  0  0
  -26.2144  -15.6011   19.9324 H   0  0  0  0  0  0
  -26.7221  -32.5390   23.1029 H   0  0  0  0  0  0
  -25.0233  -33.9691   25.0437 H   0  0  0  0  0  0
  -22.7287  -31.2966   21.3813 H   0  0  0  0  0  0
  -23.3744  -35.9510   23.3317 H   0  0  0  0  0  0
  -24.3560  -36.8828   22.2057 H   0  0  0  0  0  0
  -23.7185  -37.6410   23.6655 H   0  0  0  0  0  0
  -26.1128  -31.5141   20.5933 H   0  0  0  0  0  0
  -26.8525  -30.8131   22.0019 H   0  0  0  0  0  0
  -28.1126  -28.9238   21.1962 H   0  0  0  0  0  0
  -25.9385  -25.8660   19.0603 H   0  0  0  0  0  0
  -23.9789  -27.2727   19.0235 H   0  0  0  0  0  0
  -23.7862  -30.5738   19.3895 H   0  0  0  0  0  0
  -22.7646  -29.2427   19.8386 H   0  0  0  0  0  0
  -25.1279  -36.1838   25.0820 H   0  0  0  0  0  0
  -21.0042  -28.3316   24.1354 H   0  0  0  0  0  0
  -20.5703  -26.2361   23.3631 H   0  0  0  0  0  0
  -21.6643  -26.7492   22.1197 H   0  0  0  0  0  0
  -19.6933  -25.6336   21.1259 H   0  0  0  0  0  0
  -19.6679  -27.3223   20.6754 H   0  0  0  0  0  0
  -17.4216  -26.6745   21.4029 H   0  0  0  0  0  0
  -18.0309  -26.0151   22.9048 H   0  0  0  0  0  0
  -19.8007  -30.7331   24.2196 H   0  0  0  0  0  0
  -17.5103  -31.6306   24.5234 H   0  0  0  0  0  0
  -15.5411  -30.3088   23.7683 H   0  0  0  0  0  0
  -15.8690  -28.0929   22.7038 H   0  0  0  0  0  0
  -24.5918  -30.7090   25.7721 H   0  0  0  0  0  0
  -24.8847  -32.2960   26.4677 H   0  0  0  0  0  0
  -25.8003  -30.9066   27.0237 H   0  0  0  0  0  0
  -26.2963  -29.6733   24.1208 H   0  0  0  0  0  0
  -27.4115  -29.7303   25.4691 H   0  0  0  0  0  0
  -27.8813  -30.4340   23.9406 H   0  0  0  0  0  0
  -27.2733  -33.3668   26.1933 H   0  0  0  0  0  0
  -28.3924  -32.6758   25.0278 H   0  0  0  0  0  0
  -28.0686  -31.8476   26.5425 H   0  0  0  0  0  0
  -28.2559  -38.0052   24.7548 H   0  0  0  0  0  0
  -28.1042  -36.2583   24.6241 H   0  0  0  0  0  0
  -27.2283  -37.1306   25.8895 H   0  0  0  0  0  0
  -20.9400  -29.8790   21.6800 H   0  0  0  0  0  0
  -26.0080  -38.2818   24.1548 H   0  0  0  0  0  0
  -29.2486  -22.6091   23.0264 H   0  0  0  0  0  0
  -29.2214  -20.5341   24.6485 H   0  0  0  0  0  0
  -30.7686  -17.8964   24.6373 H   0  0  0  0  0  0
  -29.5682  -16.7083   25.1069 H   0  0  0  0  0  0
  -29.3392  -18.3973   25.5334 H   0  0  0  0  0  0
  -30.6595  -24.3565   18.9272 H   0  0  0  0  0  0
  -30.7396  -25.3349   20.3805 H   0  0  0  0  0  0
  -30.4380  -26.0946   18.8316 H   0  0  0  0  0  0
  -28.6854  -24.0181   17.7152 H   0  0  0  0  0  0
  -28.0835  -25.6626   17.6304 H   0  0  0  0  0  0
  -27.0951  -24.3512   18.3008 H   0  0  0  0  0  0
  -28.3064  -21.8263   19.4762 H   0  0  0  0  0  0
  -29.9551  -22.2774   19.7313 H   0  0  0  0  0  0
  -29.0511  -24.0368   21.5146 H   0  0  0  0  0  0
  -27.4671  -23.7036   20.9250 H   0  0  0  0  0  0
  -28.2514  -18.1910   20.2933 H   0  0  0  0  0  0
  -29.4526  -19.0988   19.4465 H   0  0  0  0  0  0
  -31.0211  -17.5392   21.3111 H   0  0  0  0  0  0
  -30.9422  -17.3937   19.6128 H   0  0  0  0  0  0
  -29.3341  -17.1823   22.7521 H   0  0  0  0  0  0
  -28.8683  -15.7295   20.7493 H   0  0  0  0  0  0
  -27.1257  -18.2880   24.2536 H   0  0  0  0  0  0
  -27.3613  -16.7275   23.8256 H   0  0  0  0  0  0
  -27.0502  -17.8568   22.6892 H   0  0  0  0  0  0
  1 25  1  0  0  0
  1 30  2  0  0  0
  1 85  1  0  0  0
  2  3  1  0  0  0
  2 25  1  0  0  0
  2 87  1  0  0  0
  2 88  1  0  0  0
  3  4  1  0  0  0
  3 89  1  0  0  0
  3 90  1  0  0  0
  4  5  1  0  0  0
  4 91  1  0  0  0
  4 92  1  0  0  0
  5  6  1  0  0  0
  5 26  1  0  0  0
  5 93  1  0  0  0
  6 25  1  0  0  0
  6 94  1  0  0  0
  6 95  1  0  0  0
  7  8  2  0  0  0
  7 26  1  0  0  0
  7 29  1  0  0  0
  8  9  1  0  0  0
  8 22  1  0  0  0
  9 10  1  0  0  0
  9 27  2  0  0  0
 10 11  2  0  0  0
 10 15  1  0  0  0
 11 12  1  0  0  0
 11 96  1  0  0  0
 12 13  2  0  0  0
 12 97  1  0  0  0
 13 14  1  0  0  0
 13 31  1  0  0  0
 14 15  2  0  0  0
 14 98  1  0  0  0
 15 99  1  0  0  0
 16 17  2  0  0  0
 16 21  1  0  0  0
 16 31  1  0  0  0
 17 18  1  0  0  0
 17100  1  0  0  0
 18 19  2  0  0  0
 18101  1  0  0  0
 19 20  1  0  0  0
 19 24  1  0  0  0
 20 21  2  0  0  0
 20102  1  0  0  0
 21 23  1  0  0  0
 22 28  1  0  0  0
 22 32  2  0  0  0
 26 27  1  0  0  0
 28103  1  0  0  0
 28104  1  0  0  0
 29105  1  0  0  0
 29106  1  0  0  0
 33 34  1  0  0  0
 33 66  1  0  0  0
 33 70  2  0  0  0
 34 36  1  0  0  0
 34 59  1  0  0  0
 34107  1  0  0  0
 35 44  2  0  0  0
 35 45  1  0  0  0
 35 68  1  0  0  0
 36 56  1  0  0  0
 36108  1  0  0  0
 37 39  1  0  0  0
 37 47  1  0  0  0
 37 66  1  0  0  0
 37109  1  0  0  0
 38 43  2  0  0  0
 38 46  1  0  0  0
 38 47  1  0  0  0
 39 64  1  0  0  0
 39 67  2  0  0  0
 40 52  1  0  0  0
 40 53  2  0  0  0
 40 58  1  0  0  0
 41110  1  0  0  0
 41111  1  0  0  0
 41112  1  0  0  0
 41 48  1  0  0  0
 42 43  1  0  0  0
 42 66  1  0  0  0
 42113  1  0  0  0
 42114  1  0  0  0
 43 44  1  0  0  0
 44115  1  0  0  0
 45 46  2  0  0  0
 45116  1  0  0  0
 46117  1  0  0  0
 47118  1  0  0  0
 47119  1  0  0  0
 48 56  1  0  0  0
 48 65  1  0  0  0
 48120  1  0  0  0
 49 50  1  0  0  0
 49 53  1  0  0  0
 49 64  1  0  0  0
 49121  1  0  0  0
 50 51  1  0  0  0
 50122  1  0  0  0
 50123  1  0  0  0
 51 52  1  0  0  0
 51124  1  0  0  0
 51125  1  0  0  0
 52126  1  0  0  0
 52127  1  0  0  0
 53 54  1  0  0  0
 54 55  2  0  0  0
 54128  1  0  0  0
 55 57  1  0  0  0
 55129  1  0  0  0
 56 69  2  0  0  0
 57 58  2  0  0  0
 57130  1  0  0  0
 58131  1  0  0  0
 59 60  1  0  0  0
 59 61  1  0  0  0
 59 62  1  0  0  0
 60132  1  0  0  0
 60133  1  0  0  0
 60134  1  0  0  0
 61135  1  0  0  0
 61136  1  0  0  0
 61137  1  0  0  0
 62138  1  0  0  0
 62139  1  0  0  0
 62140  1  0  0  0
 63 65  1  0  0  0
 63141  1  0  0  0
 63142  1  0  0  0
 63143  1  0  0  0
 64144  1  0  0  0
 65145  1  0  0  0
 68 83  1  0  0  0
 71 72  1  0  0  0
 71 73  2  0  0  0
 71146  1  0  0  0
 72 74  2  0  0  0
 72147  1  0  0  0
 73 78  1  0  0  0
 73 84  1  0  0  0
 74 82  1  0  0  0
 74 84  1  0  0  0
 75148  1  0  0  0
 75149  1  0  0  0
 75150  1  0  0  0
 75 82  1  0  0  0
 76151  1  0  0  0
 76152  1  0  0  0
 76153  1  0  0  0
 76 83  1  0  0  0
 77 83  1  0  0  0
 77154  1  0  0  0
 77155  1  0  0  0
 77156  1  0  0  0
 78 79  1  0  0  0
 78157  1  0  0  0
 78158  1  0  0  0
 79 83  1  0  0  0
 79159  1  0  0  0
 79160  1  0  0  0
 80 81  1  0  0  0
 80 84  1  0  0  0
 80161  1  0  0  0
 80162  1  0  0  0
 81 85  1  0  0  0
 81163  1  0  0  0
 81164  1  0  0  0
 82 86  1  0  0  0
 82165  1  0  0  0
 85166  1  0  0  0
 86167  1  0  0  0
 86168  1  0  0  0
 86169  1  0  0  0
M  CHG  1  86   1
M  ISO  4   1 100  68 101  83 101  85 100
M  END
> <chiral flag>
0

> <version>
0

> <s_m_source_file>
/data/baiqing/PycharmProjects/Reinvent-master-3.2/result/LINK_invent/BTK/process_docking_weight1_custom_sum_contain_oxygen_bond_distance_aromatic_linkinvent_7_9_3/rearranged_h_0113.sdf

> <i_m_source_file_index>
11

> <r_mmod_Potential_Energy-OPLS-2005>
-48.1499252319336

> <r_mmod_Stretch_Energy-OPLS-2005>
157.620346069336

> <r_mmod_Bend_Energy-OPLS-2005>
246.920288085938

> <r_mmod_Torsional_Energy-OPLS-2005>
230.475463867188

> <r_mmod_Improper_Torsional_Energy-OPLS-2005>
6.53630399703979

> <r_mmod_Van_der_Waal_Energy-OPLS-2005>
119.848480224609

> <r_mmod_Electrostatic_Energy-OPLS-2005>
-388.536315917969

> <r_mmod_Solvation_Energy-OPLS-2005>
-502.479156494141

> <b_mmod_Minimization_Converged-OPLS-2005>
0

> <r_mmod_RMS_Derivative-OPLS-2005>
3.5802276134491

$$$$
12
                    3D
 Structure written by MMmdl.
170178  0  0  1  0            999 V2000
  -30.7102  -14.5808   20.5716 C   0  0  0  0  0  0
  -30.4221  -12.3753   19.4589 C   0  0  0  0  0  0
  -29.5026  -12.5117   18.2273 C   0  0  0  0  0  0
  -28.0259  -12.3541   18.6348 C   0  0  0  0  0  0
  -27.6524  -13.2214   19.8644 C   0  0  2  0  0  0
  -28.6931  -13.0846   20.9956 C   0  0  0  0  0  0
  -25.2549  -13.8173   20.5689 C   0  0  0  0  0  0
  -24.1827  -13.0436   20.9203 C   0  0  0  0  0  0
  -24.6405  -11.6913   20.8753 C   0  0  0  0  0  0
  -23.9072  -10.4295   21.0405 C   0  0  0  0  0  0
  -24.3620   -9.4205   21.9183 C   0  0  0  0  0  0
  -23.6291   -8.2244   22.0757 C   0  0  0  0  0  0
  -22.4275   -8.0284   21.3546 C   0  0  0  0  0  0
  -21.9911   -9.0261   20.4648 C   0  0  0  0  0  0
  -22.7244  -10.2137   20.3057 C   0  0  0  0  0  0
  -21.6853   -6.0735   22.5279 C   0  0  0  0  0  0
  -21.4014   -6.5637   23.8209 C   0  0  0  0  0  0
  -21.3658   -5.6794   24.9172 C   0  0  0  0  0  0
  -21.6043   -4.3057   24.7226 C   0  0  0  0  0  0
  -21.8820   -3.8146   23.4344 C   0  0  0  0  0  0
  -21.9191   -4.6962   22.3400 C   0  0  0  0  0  0
  -22.7843  -13.5224   21.1857 C   0  0  0  0  0  0
  -22.1661   -4.2147   21.0977 F   0  0  0  0  0  0
  -21.5628   -3.4542   25.7735 F   0  0  0  0  0  0
  -30.0163  -13.4039   20.4403 N   0  0  0  0  0  0
  -26.2984  -12.9379   20.3330 N   0  0  0  0  0  0
  -25.9335  -11.6525   20.5775 N   0  0  0  0  0  0
  -22.0487  -12.8220   22.0416 N   0  0  0  0  0  0
  -25.4230  -15.1888   20.4055 N   0  0  0  0  0  0
  -31.8433  -14.6972   20.0937 O   0  0  0  0  0  0
  -21.6641   -6.8882   21.4242 O   0  0  0  0  0  0
  -22.3528  -14.5528   20.6704 O   0  0  0  0  0  0
  -24.6249  -31.8617   23.2066 C   0  0  0  0  0  0
  -25.9100  -32.4778   23.8396 C   0  0  1  0  0  0
  -27.2244  -27.3272   20.1013 C   0  0  0  0  0  0
  -25.5926  -33.8586   24.2300 N   0  0  0  0  0  0
  -23.4180  -30.4872   21.5503 C   0  0  2  0  0  0
  -24.8645  -28.9548   20.1085 C   0  0  0  0  0  0
  -22.7470  -29.4622   22.4957 C   0  0  0  0  0  0
  -18.0281  -28.1368   22.8493 C   0  0  0  0  0  0
  -24.1478  -36.7287   23.2642 C   0  0  0  0  0  0
  -25.9617  -30.7895   21.3842 C   0  0  0  0  0  0
  -26.0333  -29.4209   20.7223 C   0  0  0  0  0  0
  -27.2116  -28.6155   20.7190 C   0  0  0  0  0  0
  -26.0320  -26.9338   19.4396 C   0  0  0  0  0  0
  -24.8657  -27.7143   19.4614 C   0  0  0  0  0  0
  -23.6305  -29.8298   20.1639 C   0  0  0  0  0  0
  -25.4104  -36.3072   24.0329 C   0  0  1  0  0  0
  -20.5886  -28.3664   23.1285 C   0  0  2  0  0  0
  -20.6768  -26.9386   22.5404 C   0  0  0  0  0  0
  -19.5737  -26.6368   21.5205 C   0  0  0  0  0  0
  -18.1920  -26.7910   22.1625 C   0  0  0  0  0  0
  -19.1539  -28.8834   23.2882 C   0  0  0  0  0  0
  -18.9466  -30.1448   23.8872 C   0  0  0  0  0  0
  -17.6465  -30.6567   24.0553 C   0  0  0  0  0  0
  -25.9043  -34.9445   23.5105 C   0  0  0  0  0  0
  -16.5355  -29.9061   23.6336 C   0  0  0  0  0  0
  -16.7279  -28.6492   23.0346 C   0  0  0  0  0  0
  -26.4493  -31.6589   25.0756 C   0  0  0  0  0  0
  -25.3747  -31.3724   26.1504 C   0  0  0  0  0  0
  -27.0366  -30.3016   24.6235 C   0  0  0  0  0  0
  -27.6042  -32.4369   25.7509 C   0  0  0  0  0  0
  -27.5574  -37.1787   24.8461 C   0  0  0  0  0  0
  -21.4190  -29.3020   22.3680 N   0  0  0  0  0  0
  -26.4276  -37.3773   23.9418 N   0  0  0  0  0  0
  -24.6866  -31.0633   22.1028 N   0  0  0  0  0  0
  -23.4198  -28.8161   23.3032 O   0  0  0  0  0  0
  -28.3443  -26.4740   20.1748 O   0  0  0  0  0  0
  -26.5608  -34.8897   22.4668 O   0  0  0  0  0  0
  -23.5412  -32.1437   23.7382 O   0  0  0  0  0  0
  -30.1577  -20.6408   19.8918 C   0  0  0  0  0  0
  -30.4696  -19.2520   19.8766 C   0  0  0  0  0  0
  -29.5335  -18.3010   20.3838 C   0  0  0  0  0  0
  -28.9331  -21.0883   20.4260 C   0  0  0  0  0  0
  -28.3728  -18.8603   20.9890 C   0  0  0  0  0  0
  -31.7647  -18.8208   19.2112 C   0  0  0  0  0  0
  -27.2668  -18.0032   21.5807 C   0  0  0  0  0  0
  -30.0237  -15.1378   23.5281 C   0  0  0  0  0  0
  -31.7682  -16.7141   22.6144 C   0  0  0  0  0  0
  -28.5657  -25.0988   18.2036 C   0  0  0  0  0  0
  -29.6618  -16.7580   20.0654 C   0  0  0  0  0  0
  -28.3097  -22.4797   20.0983 C   0  0  0  0  0  0
  -28.9877  -23.8761   20.4192 C   0  0  0  0  0  0
  -30.3307  -16.1841   22.4384 C   0  0  0  0  0  0
  -28.2227  -25.0750   19.7062 C   0  0  1  0  0  0
  -28.0999  -20.1942   21.0120 N   0  0  0  0  0  0
  -30.0584  -15.6946   21.0618 N   0  0  0  0  0  0
  -31.4673  -12.4672   19.1576 H   0  0  0  0  0  0
  -30.3319  -11.3798   19.8981 H   0  0  0  0  0  0
  -29.7631  -11.7639   17.4769 H   0  0  0  0  0  0
  -29.6557  -13.4848   17.7576 H   0  0  0  0  0  0
  -27.8564  -11.3008   18.8617 H   0  0  0  0  0  0
  -27.3732  -12.5929   17.7939 H   0  0  0  0  0  0
  -27.6719  -14.2580   19.5280 H   0  0  0  0  0  0
  -28.6922  -12.0736   21.4065 H   0  0  0  0  0  0
  -28.4222  -13.7438   21.8157 H   0  0  0  0  0  0
  -25.2760   -9.5681   22.4762 H   0  0  0  0  0  0
  -23.9998   -7.4634   22.7480 H   0  0  0  0  0  0
  -21.0841   -8.8777   19.8956 H   0  0  0  0  0  0
  -22.3695  -10.9678   19.6172 H   0  0  0  0  0  0
  -21.2012   -7.6147   23.9713 H   0  0  0  0  0  0
  -21.1478   -6.0523   25.9074 H   0  0  0  0  0  0
  -22.0600   -2.7609   23.2847 H   0  0  0  0  0  0
  -22.4105  -11.9882   22.4804 H   0  0  0  0  0  0
  -21.1107  -13.1253   22.2628 H   0  0  0  0  0  0
  -24.6497  -15.8370   20.5006 H   0  0  0  0  0  0
  -26.2628  -15.6198   20.0458 H   0  0  0  0  0  0
  -26.7159  -32.5440   23.1140 H   0  0  0  0  0  0
  -25.0086  -33.9763   25.0451 H   0  0  0  0  0  0
  -22.7098  -31.3067   21.4106 H   0  0  0  0  0  0
  -23.3735  -35.9617   23.3291 H   0  0  0  0  0  0
  -24.3582  -36.8931   22.2058 H   0  0  0  0  0  0
  -23.7230  -37.6484   23.6684 H   0  0  0  0  0  0
  -26.1014  -31.5562   20.6204 H   0  0  0  0  0  0
  -26.8376  -30.8316   22.0190 H   0  0  0  0  0  0
  -28.1051  -28.9669   21.2165 H   0  0  0  0  0  0
  -25.9504  -26.0141   18.8836 H   0  0  0  0  0  0
  -23.9761  -27.3575   18.9599 H   0  0  0  0  0  0
  -23.7406  -30.6082   19.4079 H   0  0  0  0  0  0
  -22.7514  -29.2565   19.8659 H   0  0  0  0  0  0
  -25.1268  -36.1922   25.0816 H   0  0  0  0  0  0
  -20.9989  -28.3228   24.1406 H   0  0  0  0  0  0
  -20.5671  -26.2268   23.3604 H   0  0  0  0  0  0
  -21.6638  -26.7412   22.1193 H   0  0  0  0  0  0
  -19.6894  -25.6280   21.1234 H   0  0  0  0  0  0
  -19.6665  -27.3183   20.6733 H   0  0  0  0  0  0
  -17.4192  -26.6669   21.4021 H   0  0  0  0  0  0
  -18.0312  -26.0042   22.9010 H   0  0  0  0  0  0
  -19.7945  -30.7282   24.2212 H   0  0  0  0  0  0
  -17.5015  -31.6244   24.5160 H   0  0  0  0  0  0
  -15.5356  -30.2948   23.7669 H   0  0  0  0  0  0
  -15.8684  -28.0806   22.7053 H   0  0  0  0  0  0
  -24.5893  -30.7093   25.7854 H   0  0  0  0  0  0
  -24.8967  -32.2892   26.4973 H   0  0  0  0  0  0
  -25.8094  -30.8883   27.0258 H   0  0  0  0  0  0
  -26.2965  -29.6739   24.1261 H   0  0  0  0  0  0
  -27.4060  -29.7294   25.4755 H   0  0  0  0  0  0
  -27.8822  -30.4292   23.9473 H   0  0  0  0  0  0
  -27.2627  -33.3684   26.2044 H   0  0  0  0  0  0
  -28.3849  -32.6940   25.0331 H   0  0  0  0  0  0
  -28.0710  -31.8546   26.5466 H   0  0  0  0  0  0
  -28.2556  -38.0112   24.7547 H   0  0  0  0  0  0
  -28.1099  -36.2650   24.6233 H   0  0  0  0  0  0
  -27.2311  -37.1373   25.8866 H   0  0  0  0  0  0
  -20.9357  -29.8768   21.6919 H   0  0  0  0  0  0
  -26.0146  -38.2830   24.1459 H   0  0  0  0  0  0
  -30.8125  -21.3497   19.4031 H   0  0  0  0  0  0
  -32.5138  -19.6113   19.2736 H   0  0  0  0  0  0
  -31.5931  -18.5993   18.1580 H   0  0  0  0  0  0
  -32.1901  -17.9357   19.6817 H   0  0  0  0  0  0
  -27.5448  -16.9578   21.6954 H   0  0  0  0  0  0
  -26.3775  -18.0495   20.9516 H   0  0  0  0  0  0
  -26.9967  -18.3721   22.5702 H   0  0  0  0  0  0
  -30.3024  -15.5122   24.5137 H   0  0  0  0  0  0
  -30.5641  -14.2022   23.3790 H   0  0  0  0  0  0
  -28.9580  -14.9171   23.5780 H   0  0  0  0  0  0
  -31.8982  -17.1548   23.6041 H   0  0  0  0  0  0
  -31.9992  -17.4960   21.8937 H   0  0  0  0  0  0
  -32.5161  -15.9280   22.5094 H   0  0  0  0  0  0
  -28.2663  -24.1832   17.6967 H   0  0  0  0  0  0
  -29.6398  -25.2164   18.0524 H   0  0  0  0  0  0
  -28.0746  -25.9218   17.6863 H   0  0  0  0  0  0
  -30.2947  -16.6596   19.1817 H   0  0  0  0  0  0
  -28.6867  -16.4515   19.6868 H   0  0  0  0  0  0
  -27.3199  -22.4986   20.5567 H   0  0  0  0  0  0
  -28.1113  -22.4317   19.0292 H   0  0  0  0  0  0
  -30.0322  -23.8653   20.1062 H   0  0  0  0  0  0
  -28.9936  -24.0212   21.4999 H   0  0  0  0  0  0
  -29.6670  -17.0200   22.6483 H   0  0  0  0  0  0
  -27.1923  -24.7620   19.8440 H   0  0  0  0  0  0
  1 25  1  0  0  0
  1 30  2  0  0  0
  1 87  1  0  0  0
  2  3  1  0  0  0
  2 25  1  0  0  0
  2 88  1  0  0  0
  2 89  1  0  0  0
  3  4  1  0  0  0
  3 90  1  0  0  0
  3 91  1  0  0  0
  4  5  1  0  0  0
  4 92  1  0  0  0
  4 93  1  0  0  0
  5  6  1  0  0  0
  5 26  1  0  0  0
  5 94  1  0  0  0
  6 25  1  0  0  0
  6 95  1  0  0  0
  6 96  1  0  0  0
  7  8  2  0  0  0
  7 26  1  0  0  0
  7 29  1  0  0  0
  8  9  1  0  0  0
  8 22  1  0  0  0
  9 10  1  0  0  0
  9 27  2  0  0  0
 10 11  2  0  0  0
 10 15  1  0  0  0
 11 12  1  0  0  0
 11 97  1  0  0  0
 12 13  2  0  0  0
 12 98  1  0  0  0
 13 14  1  0  0  0
 13 31  1  0  0  0
 14 15  2  0  0  0
 14 99  1  0  0  0
 15100  1  0  0  0
 16 17  2  0  0  0
 16 21  1  0  0  0
 16 31  1  0  0  0
 17 18  1  0  0  0
 17101  1  0  0  0
 18 19  2  0  0  0
 18102  1  0  0  0
 19 20  1  0  0  0
 19 24  1  0  0  0
 20 21  2  0  0  0
 20103  1  0  0  0
 21 23  1  0  0  0
 22 28  1  0  0  0
 22 32  2  0  0  0
 26 27  1  0  0  0
 28104  1  0  0  0
 28105  1  0  0  0
 29106  1  0  0  0
 29107  1  0  0  0
 33 34  1  0  0  0
 33 66  1  0  0  0
 33 70  2  0  0  0
 34 36  1  0  0  0
 34 59  1  0  0  0
 34108  1  0  0  0
 35 44  2  0  0  0
 35 45  1  0  0  0
 35 68  1  0  0  0
 36 56  1  0  0  0
 36109  1  0  0  0
 37 39  1  0  0  0
 37 47  1  0  0  0
 37 66  1  0  0  0
 37110  1  0  0  0
 38 43  2  0  0  0
 38 46  1  0  0  0
 38 47  1  0  0  0
 39 64  1  0  0  0
 39 67  2  0  0  0
 40 52  1  0  0  0
 40 53  2  0  0  0
 40 58  1  0  0  0
 41111  1  0  0  0
 41112  1  0  0  0
 41113  1  0  0  0
 41 48  1  0  0  0
 42 43  1  0  0  0
 42 66  1  0  0  0
 42114  1  0  0  0
 42115  1  0  0  0
 43 44  1  0  0  0
 44116  1  0  0  0
 45 46  2  0  0  0
 45117  1  0  0  0
 46118  1  0  0  0
 47119  1  0  0  0
 47120  1  0  0  0
 48 56  1  0  0  0
 48 65  1  0  0  0
 48121  1  0  0  0
 49 50  1  0  0  0
 49 53  1  0  0  0
 49 64  1  0  0  0
 49122  1  0  0  0
 50 51  1  0  0  0
 50123  1  0  0  0
 50124  1  0  0  0
 51 52  1  0  0  0
 51125  1  0  0  0
 51126  1  0  0  0
 52127  1  0  0  0
 52128  1  0  0  0
 53 54  1  0  0  0
 54 55  2  0  0  0
 54129  1  0  0  0
 55 57  1  0  0  0
 55130  1  0  0  0
 56 69  2  0  0  0
 57 58  2  0  0  0
 57131  1  0  0  0
 58132  1  0  0  0
 59 60  1  0  0  0
 59 61  1  0  0  0
 59 62  1  0  0  0
 60133  1  0  0  0
 60134  1  0  0  0
 60135  1  0  0  0
 61136  1  0  0  0
 61137  1  0  0  0
 61138  1  0  0  0
 62139  1  0  0  0
 62140  1  0  0  0
 62141  1  0  0  0
 63 65  1  0  0  0
 63142  1  0  0  0
 63143  1  0  0  0
 63144  1  0  0  0
 64145  1  0  0  0
 65146  1  0  0  0
 68 85  1  0  0  0
 71 72  2  0  0  0
 71 74  1  0  0  0
 71147  1  0  0  0
 72 73  1  0  0  0
 72 76  1  0  0  0
 73 75  2  0  0  0
 73 81  1  0  0  0
 74 82  1  0  0  0
 74 86  2  0  0  0
 75 77  1  0  0  0
 75 86  1  0  0  0
 76148  1  0  0  0
 76149  1  0  0  0
 76150  1  0  0  0
 77151  1  0  0  0
 77152  1  0  0  0
 77153  1  0  0  0
 78154  1  0  0  0
 78155  1  0  0  0
 78156  1  0  0  0
 78 84  1  0  0  0
 79 84  1  0  0  0
 79157  1  0  0  0
 79158  1  0  0  0
 79159  1  0  0  0
 80160  1  0  0  0
 80161  1  0  0  0
 80162  1  0  0  0
 80 85  1  0  0  0
 81 87  1  0  0  0
 81163  1  0  0  0
 81164  1  0  0  0
 82 83  1  0  0  0
 82165  1  0  0  0
 82166  1  0  0  0
 83 85  1  0  0  0
 83167  1  0  0  0
 83168  1  0  0  0
 84 87  1  0  0  0
 84169  1  0  0  0
 85170  1  0  0  0
M  ISO  4   1 100  68 101  85 101  87 100
M  END
> <chiral flag>
0

> <version>
0

> <s_m_source_file>
/data/baiqing/PycharmProjects/Reinvent-master-3.2/result/LINK_invent/BTK/process_docking_weight1_custom_sum_contain_oxygen_bond_distance_aromatic_linkinvent_7_9_3/rearranged_h_0113.sdf

> <i_m_source_file_index>
12

> <r_mmod_Potential_Energy-OPLS-2005>
128.311965942383

> <r_mmod_Stretch_Energy-OPLS-2005>
80.2078704833984

> <r_mmod_Bend_Energy-OPLS-2005>
164.693161010742

> <r_mmod_Torsional_Energy-OPLS-2005>
302.690338134766

> <r_mmod_Improper_Torsional_Energy-OPLS-2005>
10.1296167373657

> <r_mmod_Van_der_Waal_Energy-OPLS-2005>
151.752532958984

> <r_mmod_Electrostatic_Energy-OPLS-2005>
-425.406829833984

> <r_mmod_Solvation_Energy-OPLS-2005>
-195.785339355469

> <b_mmod_Minimization_Converged-OPLS-2005>
0

> <r_mmod_RMS_Derivative-OPLS-2005>
1.8143447637558

$$$$
13
                    3D
 Structure written by MMmdl.
160168  0  0  1  0            999 V2000
  -30.6100  -14.7372   20.4409 C   0  0  0  0  0  0
  -30.4354  -12.4451   19.4496 C   0  0  0  0  0  0
  -29.5019  -12.4922   18.2215 C   0  0  0  0  0  0
  -28.0292  -12.3202   18.6456 C   0  0  0  0  0  0
  -27.6376  -13.2261   19.8435 C   0  0  2  0  0  0
  -28.6936  -13.1549   20.9671 C   0  0  0  0  0  0
  -25.2485  -13.8157   20.5681 C   0  0  0  0  0  0
  -24.1776  -13.0444   20.9261 C   0  0  0  0  0  0
  -24.6378  -11.6903   20.8795 C   0  0  0  0  0  0
  -23.9064  -10.4304   21.0438 C   0  0  0  0  0  0
  -24.3622   -9.4193   21.9179 C   0  0  0  0  0  0
  -23.6294   -8.2231   22.0742 C   0  0  0  0  0  0
  -22.4285   -8.0274   21.3521 C   0  0  0  0  0  0
  -21.9921   -9.0267   20.4635 C   0  0  0  0  0  0
  -22.7261  -10.2144   20.3057 C   0  0  0  0  0  0
  -21.6866   -6.0743   22.5285 C   0  0  0  0  0  0
  -21.4020   -6.5643   23.8231 C   0  0  0  0  0  0
  -21.3645   -5.6779   24.9185 C   0  0  0  0  0  0
  -21.6036   -4.3042   24.7243 C   0  0  0  0  0  0
  -21.8822   -3.8155   23.4359 C   0  0  0  0  0  0
  -21.9199   -4.6965   22.3417 C   0  0  0  0  0  0
  -22.7812  -13.5239   21.1941 C   0  0  0  0  0  0
  -22.1668   -4.2145   21.0988 F   0  0  0  0  0  0
  -21.5601   -3.4501   25.7747 F   0  0  0  0  0  0
  -29.9891  -13.5095   20.3727 N   0  0  0  0  0  0
  -26.2920  -12.9352   20.3276 N   0  0  0  0  0  0
  -25.9298  -11.6499   20.5760 N   0  0  0  0  0  0
  -22.0471  -12.8183   22.0468 N   0  0  0  0  0  0
  -25.4148  -15.1858   20.3978 N   0  0  0  0  0  0
  -31.8124  -14.8435   20.2004 O   0  0  0  0  0  0
  -21.6641   -6.8875   21.4243 O   0  0  0  0  0  0
  -22.3468  -14.5562   20.6819 O   0  0  0  0  0  0
  -24.6347  -31.8541   23.1947 C   0  0  0  0  0  0
  -25.9193  -32.4711   23.8339 C   0  0  1  0  0  0
  -27.2425  -27.2368   20.1592 C   0  0  0  0  0  0
  -25.6040  -33.8524   24.2330 N   0  0  0  0  0  0
  -23.4337  -30.4687   21.5317 C   0  0  2  0  0  0
  -24.8915  -28.9116   20.1045 C   0  0  0  0  0  0
  -22.7501  -29.4561   22.4832 C   0  0  0  0  0  0
  -18.0289  -28.1384   22.8433 C   0  0  0  0  0  0
  -24.1528  -36.7192   23.2619 C   0  0  0  0  0  0
  -25.9778  -30.7580   21.3776 C   0  0  0  0  0  0
  -26.0547  -29.3748   20.7310 C   0  0  0  0  0  0
  -27.2240  -28.5471   20.7550 C   0  0  0  0  0  0
  -26.0677  -26.8588   19.4692 C   0  0  0  0  0  0
  -24.9092  -27.6642   19.4588 C   0  0  0  0  0  0
  -23.6560  -29.7934   20.1501 C   0  0  0  0  0  0
  -25.4155  -36.3036   24.0325 C   0  0  1  0  0  0
  -20.5880  -28.3692   23.1255 C   0  0  2  0  0  0
  -20.6745  -26.9381   22.5421 C   0  0  0  0  0  0
  -19.5764  -26.6373   21.5172 C   0  0  0  0  0  0
  -18.1930  -26.7941   22.1547 C   0  0  0  0  0  0
  -19.1538  -28.8841   23.2835 C   0  0  0  0  0  0
  -18.9475  -30.1432   23.8872 C   0  0  0  0  0  0
  -17.6480  -30.6564   24.0558 C   0  0  0  0  0  0
  -25.9104  -34.9397   23.5123 C   0  0  0  0  0  0
  -16.5368  -29.9076   23.6347 C   0  0  0  0  0  0
  -16.7279  -28.6520   23.0317 C   0  0  0  0  0  0
  -26.4535  -31.6453   25.0680 C   0  0  0  0  0  0
  -25.3765  -31.3584   26.1393 C   0  0  0  0  0  0
  -27.0271  -30.2844   24.6081 C   0  0  0  0  0  0
  -27.6208  -32.4020   25.7484 C   0  0  0  0  0  0
  -27.5582  -37.1740   24.8488 C   0  0  0  0  0  0
  -21.4185  -29.3039   22.3625 N   0  0  0  0  0  0
  -26.4321  -37.3740   23.9412 N   0  0  0  0  0  0
  -24.7002  -31.0476   22.0907 N   0  0  0  0  0  0
  -23.4188  -28.8102   23.2942 O   0  0  0  0  0  0
  -28.3408  -26.3439   20.2696 O   0  0  0  0  0  0
  -26.5606  -34.8875   22.4648 O   0  0  0  0  0  0
  -23.5501  -32.1415   23.7202 O   0  0  0  0  0  0
  -27.7351  -21.5370   20.0814 C   0  0  0  0  0  0
  -29.8351  -21.1067   20.5728 C   0  0  0  0  0  0
  -28.9240  -22.1812   20.5322 C   0  0  0  0  0  0
  -27.9564  -20.2026   19.8219 C   0  0  0  0  0  0
  -27.0120  -19.1940   19.2513 C   0  0  0  0  0  0
  -30.5576  -24.1166   20.8639 C   0  0  0  0  0  0
  -28.6342  -23.8504   22.4041 C   0  0  0  0  0  0
  -29.9276  -18.5069   19.8273 C   0  0  0  0  0  0
  -30.0843  -17.3197   20.9140 C   0  0  0  0  0  0
  -28.1762  -24.8442   20.0979 C   0  0  0  0  0  0
  -29.0650  -23.7383   20.9261 C   0  0  0  0  0  0
  -29.2738  -19.8732   20.1286 N   0  0  0  0  0  0
  -29.7994  -15.8508   20.5747 N   0  0  0  0  0  0
  -31.4732  -12.5720   19.1418 H   0  0  0  0  0  0
  -30.3843  -11.4744   19.9402 H   0  0  0  0  0  0
  -29.7726  -11.7175   17.5037 H   0  0  0  0  0  0
  -29.6243  -13.4435   17.7038 H   0  0  0  0  0  0
  -27.8866  -11.2738   18.9177 H   0  0  0  0  0  0
  -27.3634  -12.5004   17.8016 H   0  0  0  0  0  0
  -27.6278  -14.2459   19.4591 H   0  0  0  0  0  0
  -28.7334  -12.1534   21.3945 H   0  0  0  0  0  0
  -28.4397  -13.8290   21.7866 H   0  0  0  0  0  0
  -25.2777   -9.5651   22.4749 H   0  0  0  0  0  0
  -23.9985   -7.4625   22.7479 H   0  0  0  0  0  0
  -21.0835   -8.8840   19.8945 H   0  0  0  0  0  0
  -22.3744  -10.9689   19.6167 H   0  0  0  0  0  0
  -21.2013   -7.6150   23.9734 H   0  0  0  0  0  0
  -21.1449   -6.0505   25.9081 H   0  0  0  0  0  0
  -22.0615   -2.7615   23.2876 H   0  0  0  0  0  0
  -22.4013  -11.9773   22.4749 H   0  0  0  0  0  0
  -21.1112  -13.1234   22.2735 H   0  0  0  0  0  0
  -24.6339  -15.8278   20.4887 H   0  0  0  0  0  0
  -26.2381  -15.6193   20.0006 H   0  0  0  0  0  0
  -26.7238  -32.5374   23.1058 H   0  0  0  0  0  0
  -25.0425  -33.9718   25.0630 H   0  0  0  0  0  0
  -22.7311  -31.2902   21.3721 H   0  0  0  0  0  0
  -23.3854  -35.9459   23.3320 H   0  0  0  0  0  0
  -24.3668  -36.8755   22.2031 H   0  0  0  0  0  0
  -23.7186  -37.6343   23.6634 H   0  0  0  0  0  0
  -26.1152  -31.5079   20.5980 H   0  0  0  0  0  0
  -26.8621  -30.8148   22.0000 H   0  0  0  0  0  0
  -28.1051  -28.8819   21.2874 H   0  0  0  0  0  0
  -26.0209  -25.9152   18.9430 H   0  0  0  0  0  0
  -24.0270  -27.3057   18.9444 H   0  0  0  0  0  0
  -23.7675  -30.5631   19.3879 H   0  0  0  0  0  0
  -22.7781  -29.2190   19.8500 H   0  0  0  0  0  0
  -25.1313  -36.1896   25.0810 H   0  0  0  0  0  0
  -21.0018  -28.3280   24.1359 H   0  0  0  0  0  0
  -20.5536  -26.2291   23.3614 H   0  0  0  0  0  0
  -21.6633  -26.7303   22.1276 H   0  0  0  0  0  0
  -19.6920  -25.6292   21.1181 H   0  0  0  0  0  0
  -19.6757  -27.3200   20.6735 H   0  0  0  0  0  0
  -17.4192  -26.6674   21.3932 H   0  0  0  0  0  0
  -18.0299  -26.0052   22.8943 H   0  0  0  0  0  0
  -19.7953  -30.7219   24.2227 H   0  0  0  0  0  0
  -17.5054  -31.6245   24.5166 H   0  0  0  0  0  0
  -15.5364  -30.2973   23.7712 H   0  0  0  0  0  0
  -15.8655  -28.0861   22.7020 H   0  0  0  0  0  0
  -24.6042  -30.6797   25.7750 H   0  0  0  0  0  0
  -24.8830  -32.2699   26.4774 H   0  0  0  0  0  0
  -25.8124  -30.8813   27.0184 H   0  0  0  0  0  0
  -26.2766  -29.6657   24.1125 H   0  0  0  0  0  0
  -27.3925  -29.7009   25.4546 H   0  0  0  0  0  0
  -27.8720  -30.4030   23.9277 H   0  0  0  0  0  0
  -27.3062  -33.3468   26.1921 H   0  0  0  0  0  0
  -28.4220  -32.6215   25.0413 H   0  0  0  0  0  0
  -28.0611  -31.8059   26.5472 H   0  0  0  0  0  0
  -28.2594  -38.0047   24.7602 H   0  0  0  0  0  0
  -28.1052  -36.2560   24.6287 H   0  0  0  0  0  0
  -27.2285  -37.1385   25.8882 H   0  0  0  0  0  0
  -20.9361  -29.8799   21.6869 H   0  0  0  0  0  0
  -26.0181  -38.2784   24.1497 H   0  0  0  0  0  0
  -26.7814  -22.0238   19.9290 H   0  0  0  0  0  0
  -30.8809  -21.1143   20.8546 H   0  0  0  0  0  0
  -26.9762  -18.2929   19.8608 H   0  0  0  0  0  0
  -27.3247  -18.9067   18.2489 H   0  0  0  0  0  0
  -25.9995  -19.5890   19.1759 H   0  0  0  0  0  0
  -31.1568  -23.5040   21.5451 H   0  0  0  0  0  0
  -30.7172  -25.1592   21.1483 H   0  0  0  0  0  0
  -30.9545  -23.9886   19.8571 H   0  0  0  0  0  0
  -29.2063  -23.1760   23.0444 H   0  0  0  0  0  0
  -27.5821  -23.6001   22.5499 H   0  0  0  0  0  0
  -28.7836  -24.8651   22.7766 H   0  0  0  0  0  0
  -29.4257  -18.0947   18.9525 H   0  0  0  0  0  0
  -30.9247  -18.7198   19.4418 H   0  0  0  0  0  0
  -31.0983  -17.3745   21.3121 H   0  0  0  0  0  0
  -29.4394  -17.5606   21.7574 H   0  0  0  0  0  0
  -27.1372  -24.5925   20.3184 H   0  0  0  0  0  0
  -28.3022  -24.6426   19.0317 H   0  0  0  0  0  0
  -28.8197  -15.6118   20.5897 H   0  0  0  0  0  0
  1 25  1  0  0  0
  1 30  2  0  0  0
  1 83  1  0  0  0
  2  3  1  0  0  0
  2 25  1  0  0  0
  2 84  1  0  0  0
  2 85  1  0  0  0
  3  4  1  0  0  0
  3 86  1  0  0  0
  3 87  1  0  0  0
  4  5  1  0  0  0
  4 88  1  0  0  0
  4 89  1  0  0  0
  5  6  1  0  0  0
  5 26  1  0  0  0
  5 90  1  0  0  0
  6 25  1  0  0  0
  6 91  1  0  0  0
  6 92  1  0  0  0
  7  8  2  0  0  0
  7 26  1  0  0  0
  7 29  1  0  0  0
  8  9  1  0  0  0
  8 22  1  0  0  0
  9 10  1  0  0  0
  9 27  2  0  0  0
 10 11  2  0  0  0
 10 15  1  0  0  0
 11 12  1  0  0  0
 11 93  1  0  0  0
 12 13  2  0  0  0
 12 94  1  0  0  0
 13 14  1  0  0  0
 13 31  1  0  0  0
 14 15  2  0  0  0
 14 95  1  0  0  0
 15 96  1  0  0  0
 16 17  2  0  0  0
 16 21  1  0  0  0
 16 31  1  0  0  0
 17 18  1  0  0  0
 17 97  1  0  0  0
 18 19  2  0  0  0
 18 98  1  0  0  0
 19 20  1  0  0  0
 19 24  1  0  0  0
 20 21  2  0  0  0
 20 99  1  0  0  0
 21 23  1  0  0  0
 22 28  1  0  0  0
 22 32  2  0  0  0
 26 27  1  0  0  0
 28100  1  0  0  0
 28101  1  0  0  0
 29102  1  0  0  0
 29103  1  0  0  0
 33 34  1  0  0  0
 33 66  1  0  0  0
 33 70  2  0  0  0
 34 36  1  0  0  0
 34 59  1  0  0  0
 34104  1  0  0  0
 35 44  2  0  0  0
 35 45  1  0  0  0
 35 68  1  0  0  0
 36 56  1  0  0  0
 36105  1  0  0  0
 37 39  1  0  0  0
 37 47  1  0  0  0
 37 66  1  0  0  0
 37106  1  0  0  0
 38 43  2  0  0  0
 38 46  1  0  0  0
 38 47  1  0  0  0
 39 64  1  0  0  0
 39 67  2  0  0  0
 40 52  1  0  0  0
 40 53  2  0  0  0
 40 58  1  0  0  0
 41107  1  0  0  0
 41108  1  0  0  0
 41109  1  0  0  0
 41 48  1  0  0  0
 42 43  1  0  0  0
 42 66  1  0  0  0
 42110  1  0  0  0
 42111  1  0  0  0
 43 44  1  0  0  0
 44112  1  0  0  0
 45 46  2  0  0  0
 45113  1  0  0  0
 46114  1  0  0  0
 47115  1  0  0  0
 47116  1  0  0  0
 48 56  1  0  0  0
 48 65  1  0  0  0
 48117  1  0  0  0
 49 50  1  0  0  0
 49 53  1  0  0  0
 49 64  1  0  0  0
 49118  1  0  0  0
 50 51  1  0  0  0
 50119  1  0  0  0
 50120  1  0  0  0
 51 52  1  0  0  0
 51121  1  0  0  0
 51122  1  0  0  0
 52123  1  0  0  0
 52124  1  0  0  0
 53 54  1  0  0  0
 54 55  2  0  0  0
 54125  1  0  0  0
 55 57  1  0  0  0
 55126  1  0  0  0
 56 69  2  0  0  0
 57 58  2  0  0  0
 57127  1  0  0  0
 58128  1  0  0  0
 59 60  1  0  0  0
 59 61  1  0  0  0
 59 62  1  0  0  0
 60129  1  0  0  0
 60130  1  0  0  0
 60131  1  0  0  0
 61132  1  0  0  0
 61133  1  0  0  0
 61134  1  0  0  0
 62135  1  0  0  0
 62136  1  0  0  0
 62137  1  0  0  0
 63 65  1  0  0  0
 63138  1  0  0  0
 63139  1  0  0  0
 63140  1  0  0  0
 64141  1  0  0  0
 65142  1  0  0  0
 68 80  1  0  0  0
 71 73  1  0  0  0
 71 74  2  0  0  0
 71143  1  0  0  0
 72 73  2  0  0  0
 72 82  1  0  0  0
 72144  1  0  0  0
 73 81  1  0  0  0
 74 75  1  0  0  0
 74 82  1  0  0  0
 75145  1  0  0  0
 75146  1  0  0  0
 75147  1  0  0  0
 76148  1  0  0  0
 76149  1  0  0  0
 76150  1  0  0  0
 76 81  1  0  0  0
 77 81  1  0  0  0
 77151  1  0  0  0
 77152  1  0  0  0
 77153  1  0  0  0
 78 79  1  0  0  0
 78 82  1  0  0  0
 78154  1  0  0  0
 78155  1  0  0  0
 79 83  1  0  0  0
 79156  1  0  0  0
 79157  1  0  0  0
 80 81  1  0  0  0
 80158  1  0  0  0
 80159  1  0  0  0
 83160  1  0  0  0
M  ISO  4   1 100  68 101  80 101  83 100
M  END
> <chiral flag>
0

> <version>
0

> <s_m_source_file>
/data/baiqing/PycharmProjects/Reinvent-master-3.2/result/LINK_invent/BTK/process_docking_weight1_custom_sum_contain_oxygen_bond_distance_aromatic_linkinvent_7_9_3/rearranged_h_0113.sdf

> <i_m_source_file_index>
13

> <r_mmod_Potential_Energy-OPLS-2005>
160.333541870117

> <r_mmod_Stretch_Energy-OPLS-2005>
136.33869934082

> <r_mmod_Bend_Energy-OPLS-2005>
188.119995117188

> <r_mmod_Torsional_Energy-OPLS-2005>
236.102874755859

> <r_mmod_Improper_Torsional_Energy-OPLS-2005>
6.12431526184082

> <r_mmod_Van_der_Waal_Energy-OPLS-2005>
110.131652832031

> <r_mmod_Electrostatic_Energy-OPLS-2005>
-401.956481933594

> <r_mmod_Solvation_Energy-OPLS-2005>
-209.812927246094

> <b_mmod_Minimization_Converged-OPLS-2005>
0

> <r_mmod_RMS_Derivative-OPLS-2005>
6.09845685958862

$$$$
14
                    3D
 Structure written by MMmdl.
180188  0  0  1  0            999 V2000
  -30.6608  -14.6375   20.5384 C   0  0  0  0  0  0
  -30.4281  -12.4064   19.4517 C   0  0  0  0  0  0
  -29.5002  -12.5021   18.2217 C   0  0  0  0  0  0
  -28.0255  -12.3398   18.6388 C   0  0  0  0  0  0
  -27.6474  -13.2232   19.8583 C   0  0  2  0  0  0
  -28.6918  -13.1061   20.9909 C   0  0  0  0  0  0
  -25.2541  -13.8195   20.5704 C   0  0  0  0  0  0
  -24.1809  -13.0457   20.9207 C   0  0  0  0  0  0
  -24.6377  -11.6925   20.8743 C   0  0  0  0  0  0
  -23.9048  -10.4306   21.0398 C   0  0  0  0  0  0
  -24.3604   -9.4230   21.9179 C   0  0  0  0  0  0
  -23.6290   -8.2260   22.0754 C   0  0  0  0  0  0
  -22.4277   -8.0288   21.3542 C   0  0  0  0  0  0
  -21.9906   -9.0252   20.4645 C   0  0  0  0  0  0
  -22.7220  -10.2142   20.3050 C   0  0  0  0  0  0
  -21.6860   -6.0744   22.5274 C   0  0  0  0  0  0
  -21.4014   -6.5644   23.8212 C   0  0  0  0  0  0
  -21.3656   -5.6791   24.9170 C   0  0  0  0  0  0
  -21.6042   -4.3051   24.7216 C   0  0  0  0  0  0
  -21.8823   -3.8155   23.4332 C   0  0  0  0  0  0
  -21.9194   -4.6975   22.3389 C   0  0  0  0  0  0
  -22.7835  -13.5248   21.1860 C   0  0  0  0  0  0
  -22.1668   -4.2170   21.0971 F   0  0  0  0  0  0
  -21.5620   -3.4530   25.7728 F   0  0  0  0  0  0
  -30.0039  -13.4408   20.4193 N   0  0  0  0  0  0
  -26.2958  -12.9379   20.3318 N   0  0  0  0  0  0
  -25.9309  -11.6527   20.5761 N   0  0  0  0  0  0
  -22.0456  -12.8242   22.0398 N   0  0  0  0  0  0
  -25.4246  -15.1922   20.4126 N   0  0  0  0  0  0
  -31.8048  -14.7632   20.0986 O   0  0  0  0  0  0
  -21.6645   -6.8885   21.4237 O   0  0  0  0  0  0
  -22.3530  -14.5560   20.6719 O   0  0  0  0  0  0
  -24.6260  -31.8592   23.2016 C   0  0  0  0  0  0
  -25.9103  -32.4776   23.8344 C   0  0  1  0  0  0
  -27.2269  -27.3181   20.1013 C   0  0  0  0  0  0
  -25.5926  -33.8579   24.2269 N   0  0  0  0  0  0
  -23.4189  -30.4830   21.5447 C   0  0  2  0  0  0
  -24.8634  -28.9359   20.1107 C   0  0  0  0  0  0
  -22.7463  -29.4614   22.4932 C   0  0  0  0  0  0
  -18.0289  -28.1374   22.8490 C   0  0  0  0  0  0
  -24.1493  -36.7294   23.2639 C   0  0  0  0  0  0
  -25.9597  -30.7887   21.3714 C   0  0  0  0  0  0
  -26.0324  -29.4160   20.7123 C   0  0  0  0  0  0
  -27.2129  -28.6170   20.7006 C   0  0  0  0  0  0
  -26.0227  -26.8786   19.5047 C   0  0  0  0  0  0
  -24.8591  -27.6715   19.5038 C   0  0  0  0  0  0
  -23.6327  -29.8186   20.1595 C   0  0  0  0  0  0
  -25.4115  -36.3087   24.0332 C   0  0  1  0  0  0
  -20.5887  -28.3672   23.1288 C   0  0  2  0  0  0
  -20.6777  -26.9397   22.5409 C   0  0  0  0  0  0
  -19.5754  -26.6379   21.5206 C   0  0  0  0  0  0
  -18.1934  -26.7920   22.1619 C   0  0  0  0  0  0
  -19.1542  -28.8839   23.2889 C   0  0  0  0  0  0
  -18.9466  -30.1442   23.8900 C   0  0  0  0  0  0
  -17.6468  -30.6578   24.0561 C   0  0  0  0  0  0
  -25.9056  -34.9453   23.5102 C   0  0  0  0  0  0
  -16.5359  -29.9075   23.6326 C   0  0  0  0  0  0
  -16.7280  -28.6495   23.0347 C   0  0  0  0  0  0
  -26.4489  -31.6592   25.0716 C   0  0  0  0  0  0
  -25.3728  -31.3716   26.1446 C   0  0  0  0  0  0
  -27.0328  -30.3022   24.6153 C   0  0  0  0  0  0
  -27.6041  -32.4332   25.7493 C   0  0  0  0  0  0
  -27.5576  -37.1805   24.8465 C   0  0  0  0  0  0
  -21.4177  -29.3036   22.3682 N   0  0  0  0  0  0
  -26.4291  -37.3777   23.9413 N   0  0  0  0  0  0
  -24.6874  -31.0609   22.0963 N   0  0  0  0  0  0
  -23.4193  -28.8151   23.3009 O   0  0  0  0  0  0
  -28.3725  -26.5073   20.1531 O   0  0  0  0  0  0
  -26.5619  -34.8921   22.4665 O   0  0  0  0  0  0
  -23.5426  -32.1394   23.7349 O   0  0  0  0  0  0
  -27.6599  -22.7233   19.6345 C   0  0  0  0  0  0
  -30.0959  -23.2064   19.9865 C   0  0  0  0  0  0
  -27.9070  -21.2390   20.1028 C   0  0  0  0  0  0
  -30.2962  -21.7222   20.4617 C   0  0  0  0  0  0
  -28.6622  -23.8134   20.1488 C   0  0  1  0  0  0
  -29.3323  -20.7279   19.7598 C   0  0  1  0  0  0
  -29.5948  -18.6088   17.2796 C   0  0  0  0  0  0
  -32.8329  -16.5060   22.3496 C   0  0  0  0  0  0
  -30.0046  -16.8940   23.1195 C   0  0  0  0  0  0
  -33.3759  -19.3916   21.2508 C   0  0  0  0  0  0
  -28.4956  -25.2333   19.4115 C   0  0  0  0  0  0
  -28.9957  -18.3661   18.6728 C   0  0  0  0  0  0
  -29.4353  -18.3250   21.1598 C   0  0  0  0  0  0
  -29.6748  -19.1459   19.8248 C   0  0  2  0  0  0
  -31.8889  -17.3916   21.4921 C   0  0  1  0  0  0
  -30.3484  -17.0611   21.6161 C   0  0  1  0  0  0
  -29.9571  -15.7022   21.0518 N   0  0  0  0  0  0
  -32.1572  -18.8049   21.8486 N   0  3  0  0  0  0
  -31.4694  -12.5190   19.1444 H   0  0  0  0  0  0
  -30.3605  -11.4185   19.9087 H   0  0  0  0  0  0
  -29.7650  -11.7371   17.4896 H   0  0  0  0  0  0
  -29.6398  -13.4631   17.7233 H   0  0  0  0  0  0
  -27.8647  -11.2879   18.8799 H   0  0  0  0  0  0
  -27.3676  -12.5541   17.7956 H   0  0  0  0  0  0
  -27.6574  -14.2550   19.5049 H   0  0  0  0  0  0
  -28.7087  -12.0959   21.4013 H   0  0  0  0  0  0
  -28.4326  -13.7600   21.8242 H   0  0  0  0  0  0
  -25.2741   -9.5731   22.4765 H   0  0  0  0  0  0
  -24.0014   -7.4657   22.7477 H   0  0  0  0  0  0
  -21.0843   -8.8746   19.8949 H   0  0  0  0  0  0
  -22.3650  -10.9674   19.6168 H   0  0  0  0  0  0
  -21.2006   -7.6162   23.9721 H   0  0  0  0  0  0
  -21.1472   -6.0519   25.9075 H   0  0  0  0  0  0
  -22.0605   -2.7621   23.2816 H   0  0  0  0  0  0
  -22.4058  -11.9910   22.4810 H   0  0  0  0  0  0
  -21.1063  -13.1271   22.2570 H   0  0  0  0  0  0
  -24.6543  -15.8427   20.5183 H   0  0  0  0  0  0
  -26.2700  -15.6324   20.0719 H   0  0  0  0  0  0
  -26.7165  -32.5436   23.1086 H   0  0  0  0  0  0
  -25.0089  -33.9734   25.0425 H   0  0  0  0  0  0
  -22.7132  -31.3040   21.4021 H   0  0  0  0  0  0
  -23.3759  -35.9622   23.3305 H   0  0  0  0  0  0
  -24.3585  -36.8914   22.2053 H   0  0  0  0  0  0
  -23.7246  -37.6496   23.6662 H   0  0  0  0  0  0
  -26.0914  -31.5525   20.6044 H   0  0  0  0  0  0
  -26.8395  -30.8370   21.9999 H   0  0  0  0  0  0
  -28.1117  -28.9834   21.1755 H   0  0  0  0  0  0
  -25.9282  -25.9005   19.0616 H   0  0  0  0  0  0
  -23.9568  -27.2891   19.0466 H   0  0  0  0  0  0
  -23.7540  -30.5966   19.4047 H   0  0  0  0  0  0
  -22.7515  -29.2517   19.8547 H   0  0  0  0  0  0
  -25.1300  -36.1935   25.0825 H   0  0  0  0  0  0
  -20.9992  -28.3247   24.1403 H   0  0  0  0  0  0
  -20.5675  -26.2278   23.3605 H   0  0  0  0  0  0
  -21.6647  -26.7424   22.1201 H   0  0  0  0  0  0
  -19.6917  -25.6292   21.1232 H   0  0  0  0  0  0
  -19.6699  -27.3192   20.6742 H   0  0  0  0  0  0
  -17.4204  -26.6673   21.4018 H   0  0  0  0  0  0
  -18.0335  -26.0051   22.9007 H   0  0  0  0  0  0
  -19.7939  -30.7255   24.2270 H   0  0  0  0  0  0
  -17.5021  -31.6263   24.5154 H   0  0  0  0  0  0
  -15.5356  -30.2976   23.7655 H   0  0  0  0  0  0
  -15.8680  -28.0821   22.7048 H   0  0  0  0  0  0
  -24.5920  -30.7043   25.7783 H   0  0  0  0  0  0
  -24.8895  -32.2869   26.4869 H   0  0  0  0  0  0
  -25.8068  -30.8908   27.0222 H   0  0  0  0  0  0
  -26.2890  -29.6782   24.1184 H   0  0  0  0  0  0
  -27.4050  -29.7273   25.4642 H   0  0  0  0  0  0
  -27.8753  -30.4328   23.9356 H   0  0  0  0  0  0
  -27.2647  -33.3639   26.2052 H   0  0  0  0  0  0
  -28.3860  -32.6881   25.0327 H   0  0  0  0  0  0
  -28.0694  -31.8466   26.5424 H   0  0  0  0  0  0
  -28.2592  -38.0103   24.7514 H   0  0  0  0  0  0
  -28.1079  -36.2636   24.6297 H   0  0  0  0  0  0
  -27.2300  -37.1463   25.8868 H   0  0  0  0  0  0
  -20.9341  -29.8780   21.6917 H   0  0  0  0  0  0
  -26.0176  -38.2855   24.1406 H   0  0  0  0  0  0
  -26.6474  -23.0191   19.9123 H   0  0  0  0  0  0
  -27.6728  -22.7299   18.5438 H   0  0  0  0  0  0
  -30.3737  -23.2538   18.9322 H   0  0  0  0  0  0
  -30.8116  -23.8494   20.5010 H   0  0  0  0  0  0
  -27.1619  -20.5965   19.6324 H   0  0  0  0  0  0
  -27.7322  -21.1572   21.1771 H   0  0  0  0  0  0
  -30.1771  -21.6639   21.5444 H   0  0  0  0  0  0
  -31.3277  -21.4392   20.2524 H   0  0  0  0  0  0
  -28.4768  -23.9597   21.2139 H   0  0  0  0  0  0
  -29.4569  -20.9669   18.7041 H   0  0  0  0  0  0
  -29.1147  -17.9643   16.5423 H   0  0  0  0  0  0
  -30.6618  -18.3848   17.2592 H   0  0  0  0  0  0
  -29.4593  -19.6355   16.9426 H   0  0  0  0  0  0
  -32.5869  -15.4483   22.3312 H   0  0  0  0  0  0
  -32.8200  -16.8005   23.3995 H   0  0  0  0  0  0
  -33.8631  -16.5897   22.0040 H   0  0  0  0  0  0
  -30.2982  -17.7573   23.7170 H   0  0  0  0  0  0
  -30.4831  -16.0206   23.5644 H   0  0  0  0  0  0
  -28.9310  -16.7643   23.2654 H   0  0  0  0  0  0
  -33.4712  -20.4381   21.5392 H   0  0  0  0  0  0
  -33.3433  -19.3503   20.1614 H   0  0  0  0  0  0
  -34.2767  -18.8765   21.5844 H   0  0  0  0  0  0
  -27.7635  -25.1438   18.6137 H   0  0  0  0  0  0
  -29.4087  -25.3863   18.8358 H   0  0  0  0  0  0
  -29.0817  -17.2963   18.8662 H   0  0  0  0  0  0
  -27.9251  -18.5707   18.6575 H   0  0  0  0  0  0
  -28.3883  -18.0177   21.1846 H   0  0  0  0  0  0
  -29.4827  -19.0698   21.9556 H   0  0  0  0  0  0
  -30.7402  -19.0938   19.6099 H   0  0  0  0  0  0
  -32.1536  -17.2733   20.4397 H   0  0  0  0  0  0
  -28.9979  -15.4566   21.2403 H   0  0  0  0  0  0
  -31.3646  -19.3381   21.5262 H   0  0  0  0  0  0
  -32.1988  -18.8986   22.8512 H   0  0  0  0  0  0
  1 25  1  0  0  0
  1 30  2  0  0  0
  1 87  1  0  0  0
  2  3  1  0  0  0
  2 25  1  0  0  0
  2 89  1  0  0  0
  2 90  1  0  0  0
  3  4  1  0  0  0
  3 91  1  0  0  0
  3 92  1  0  0  0
  4  5  1  0  0  0
  4 93  1  0  0  0
  4 94  1  0  0  0
  5  6  1  0  0  0
  5 26  1  0  0  0
  5 95  1  0  0  0
  6 25  1  0  0  0
  6 96  1  0  0  0
  6 97  1  0  0  0
  7  8  2  0  0  0
  7 26  1  0  0  0
  7 29  1  0  0  0
  8  9  1  0  0  0
  8 22  1  0  0  0
  9 10  1  0  0  0
  9 27  2  0  0  0
 10 11  2  0  0  0
 10 15  1  0  0  0
 11 12  1  0  0  0
 11 98  1  0  0  0
 12 13  2  0  0  0
 12 99  1  0  0  0
 13 14  1  0  0  0
 13 31  1  0  0  0
 14 15  2  0  0  0
 14100  1  0  0  0
 15101  1  0  0  0
 16 17  2  0  0  0
 16 21  1  0  0  0
 16 31  1  0  0  0
 17 18  1  0  0  0
 17102  1  0  0  0
 18 19  2  0  0  0
 18103  1  0  0  0
 19 20  1  0  0  0
 19 24  1  0  0  0
 20 21  2  0  0  0
 20104  1  0  0  0
 21 23  1  0  0  0
 22 28  1  0  0  0
 22 32  2  0  0  0
 26 27  1  0  0  0
 28105  1  0  0  0
 28106  1  0  0  0
 29107  1  0  0  0
 29108  1  0  0  0
 33 34  1  0  0  0
 33 66  1  0  0  0
 33 70  2  0  0  0
 34 36  1  0  0  0
 34 59  1  0  0  0
 34109  1  0  0  0
 35 44  2  0  0  0
 35 45  1  0  0  0
 35 68  1  0  0  0
 36 56  1  0  0  0
 36110  1  0  0  0
 37 39  1  0  0  0
 37 47  1  0  0  0
 37 66  1  0  0  0
 37111  1  0  0  0
 38 43  2  0  0  0
 38 46  1  0  0  0
 38 47  1  0  0  0
 39 64  1  0  0  0
 39 67  2  0  0  0
 40 52  1  0  0  0
 40 53  2  0  0  0
 40 58  1  0  0  0
 41112  1  0  0  0
 41113  1  0  0  0
 41114  1  0  0  0
 41 48  1  0  0  0
 42 43  1  0  0  0
 42 66  1  0  0  0
 42115  1  0  0  0
 42116  1  0  0  0
 43 44  1  0  0  0
 44117  1  0  0  0
 45 46  2  0  0  0
 45118  1  0  0  0
 46119  1  0  0  0
 47120  1  0  0  0
 47121  1  0  0  0
 48 56  1  0  0  0
 48 65  1  0  0  0
 48122  1  0  0  0
 49 50  1  0  0  0
 49 53  1  0  0  0
 49 64  1  0  0  0
 49123  1  0  0  0
 50 51  1  0  0  0
 50124  1  0  0  0
 50125  1  0  0  0
 51 52  1  0  0  0
 51126  1  0  0  0
 51127  1  0  0  0
 52128  1  0  0  0
 52129  1  0  0  0
 53 54  1  0  0  0
 54 55  2  0  0  0
 54130  1  0  0  0
 55 57  1  0  0  0
 55131  1  0  0  0
 56 69  2  0  0  0
 57 58  2  0  0  0
 57132  1  0  0  0
 58133  1  0  0  0
 59 60  1  0  0  0
 59 61  1  0  0  0
 59 62  1  0  0  0
 60134  1  0  0  0
 60135  1  0  0  0
 60136  1  0  0  0
 61137  1  0  0  0
 61138  1  0  0  0
 61139  1  0  0  0
 62140  1  0  0  0
 62141  1  0  0  0
 62142  1  0  0  0
 63 65  1  0  0  0
 63143  1  0  0  0
 63144  1  0  0  0
 63145  1  0  0  0
 64146  1  0  0  0
 65147  1  0  0  0
 68 81  1  0  0  0
 71 73  1  0  0  0
 71 75  1  0  0  0
 71148  1  0  0  0
 71149  1  0  0  0
 72 74  1  0  0  0
 72 75  1  0  0  0
 72150  1  0  0  0
 72151  1  0  0  0
 73152  1  0  0  0
 73153  1  0  0  0
 73 76  1  0  0  0
 74 76  1  0  0  0
 74154  1  0  0  0
 74155  1  0  0  0
 75 81  1  0  0  0
 75156  1  0  0  0
 76 84  1  0  0  0
 76157  1  0  0  0
 77 82  1  0  0  0
 77158  1  0  0  0
 77159  1  0  0  0
 77160  1  0  0  0
 78161  1  0  0  0
 78162  1  0  0  0
 78163  1  0  0  0
 78 85  1  0  0  0
 79164  1  0  0  0
 79165  1  0  0  0
 79166  1  0  0  0
 79 86  1  0  0  0
 80 88  1  0  0  0
 80167  1  0  0  0
 80168  1  0  0  0
 80169  1  0  0  0
 81170  1  0  0  0
 81171  1  0  0  0
 82172  1  0  0  0
 82173  1  0  0  0
 82 84  1  0  0  0
 83 84  1  0  0  0
 83 86  1  0  0  0
 83174  1  0  0  0
 83175  1  0  0  0
 84176  1  0  0  0
 85 86  1  0  0  0
 85 88  1  0  0  0
 85177  1  0  0  0
 86 87  1  0  0  0
 87178  1  0  0  0
 88179  1  0  0  0
 88180  1  0  0  0
M  CHG  1  88   1
M  ISO  4   1 100  68 101  81 101  87 100
M  END
> <chiral flag>
0

> <version>
0

> <s_m_source_file>
/data/baiqing/PycharmProjects/Reinvent-master-3.2/result/LINK_invent/BTK/process_docking_weight1_custom_sum_contain_oxygen_bond_distance_aromatic_linkinvent_7_9_3/rearranged_h_0113.sdf

> <i_m_source_file_index>
14

> <r_mmod_Potential_Energy-OPLS-2005>
8.29987049102783

> <r_mmod_Stretch_Energy-OPLS-2005>
98.8420028686523

> <r_mmod_Bend_Energy-OPLS-2005>
207.258880615234

> <r_mmod_Torsional_Energy-OPLS-2005>
293.776702880859

> <r_mmod_Improper_Torsional_Energy-OPLS-2005>
3.02980852127075

> <r_mmod_Van_der_Waal_Energy-OPLS-2005>
132.929229736328

> <r_mmod_Electrostatic_Energy-OPLS-2005>
-355.419982910156

> <r_mmod_Solvation_Energy-OPLS-2005>
-418.302673339844

> <b_mmod_Minimization_Converged-OPLS-2005>
0

> <r_mmod_RMS_Derivative-OPLS-2005>
1.63458943367004

$$$$
15
                    3D
 Structure written by MMmdl.
168176  0  0  1  0            999 V2000
  -30.6821  -14.5765   20.4638 C   0  0  0  0  0  0
  -30.4127  -12.3443   19.4641 C   0  0  0  0  0  0
  -29.5012  -12.5042   18.2301 C   0  0  0  0  0  0
  -28.0266  -12.3385   18.6403 C   0  0  0  0  0  0
  -27.6469  -13.2153   19.8650 C   0  0  2  0  0  0
  -28.6899  -13.1049   20.9982 C   0  0  0  0  0  0
  -25.2504  -13.8159   20.5697 C   0  0  0  0  0  0
  -24.1801  -13.0438   20.9227 C   0  0  0  0  0  0
  -24.6388  -11.6902   20.8784 C   0  0  0  0  0  0
  -23.9064  -10.4281   21.0425 C   0  0  0  0  0  0
  -24.3615   -9.4172   21.9192 C   0  0  0  0  0  0
  -23.6277   -8.2218   22.0779 C   0  0  0  0  0  0
  -22.4255   -8.0274   21.3564 C   0  0  0  0  0  0
  -21.9896   -9.0256   20.4666 C   0  0  0  0  0  0
  -22.7237  -10.2129   20.3061 C   0  0  0  0  0  0
  -21.6818   -6.0745   22.5302 C   0  0  0  0  0  0
  -21.3988   -6.5655   23.8237 C   0  0  0  0  0  0
  -21.3628   -5.6799   24.9189 C   0  0  0  0  0  0
  -21.6026   -4.3070   24.7241 C   0  0  0  0  0  0
  -21.8806   -3.8166   23.4363 C   0  0  0  0  0  0
  -21.9178   -4.6979   22.3415 C   0  0  0  0  0  0
  -22.7818  -13.5232   21.1865 C   0  0  0  0  0  0
  -22.1653   -4.2162   21.0991 F   0  0  0  0  0  0
  -21.5625   -3.4543   25.7758 F   0  0  0  0  0  0
  -30.0127  -13.3885   20.4251 N   0  0  0  0  0  0
  -26.2950  -12.9347   20.3332 N   0  0  0  0  0  0
  -25.9299  -11.6499   20.5791 N   0  0  0  0  0  0
  -22.0461  -12.8249   22.0445 N   0  0  0  0  0  0
  -25.4146  -15.1893   20.4077 N   0  0  0  0  0  0
  -31.8755  -14.6547   20.1602 O   0  0  0  0  0  0
  -21.6609   -6.8888   21.4273 O   0  0  0  0  0  0
  -22.3464  -14.5481   20.6639 O   0  0  0  0  0  0
  -24.6192  -31.8646   23.2071 C   0  0  0  0  0  0
  -25.9071  -32.4813   23.8384 C   0  0  1  0  0  0
  -27.2405  -27.4086   20.1104 C   0  0  0  0  0  0
  -25.5899  -33.8610   24.2317 N   0  0  0  0  0  0
  -23.4113  -30.4873   21.5471 C   0  0  2  0  0  0
  -24.8604  -28.9477   20.1149 C   0  0  0  0  0  0
  -22.7436  -29.4686   22.4979 C   0  0  0  0  0  0
  -18.0310  -28.1366   22.8496 C   0  0  0  0  0  0
  -24.1490  -36.7324   23.2635 C   0  0  0  0  0  0
  -25.9413  -30.8229   21.3636 C   0  0  0  0  0  0
  -26.0223  -29.4552   20.7121 C   0  0  0  0  0  0
  -27.2184  -28.6945   20.7026 C   0  0  0  0  0  0
  -26.0661  -26.9246   19.4995 C   0  0  0  0  0  0
  -24.8777  -27.6808   19.5040 C   0  0  0  0  0  0
  -23.6229  -29.8157   20.1636 C   0  0  0  0  0  0
  -25.4105  -36.3115   24.0335 C   0  0  1  0  0  0
  -20.5894  -28.3707   23.1335 C   0  0  2  0  0  0
  -20.6793  -26.9422   22.5485 C   0  0  0  0  0  0
  -19.5824  -26.6424   21.5231 C   0  0  0  0  0  0
  -18.2000  -26.7903   22.1667 C   0  0  0  0  0  0
  -19.1538  -28.8843   23.2924 C   0  0  0  0  0  0
  -18.9455  -30.1452   23.8909 C   0  0  0  0  0  0
  -17.6441  -30.6594   24.0548 C   0  0  0  0  0  0
  -25.9025  -34.9476   23.5126 C   0  0  0  0  0  0
  -16.5348  -29.9070   23.6301 C   0  0  0  0  0  0
  -16.7290  -28.6480   23.0350 C   0  0  0  0  0  0
  -26.4472  -31.6601   25.0730 C   0  0  0  0  0  0
  -25.3740  -31.3714   26.1485 C   0  0  0  0  0  0
  -27.0288  -30.3037   24.6109 C   0  0  0  0  0  0
  -27.6053  -32.4314   25.7485 C   0  0  0  0  0  0
  -27.5579  -37.1817   24.8458 C   0  0  0  0  0  0
  -21.4166  -29.3067   22.3709 N   0  0  0  0  0  0
  -26.4305  -37.3791   23.9383 N   0  0  0  0  0  0
  -24.6766  -31.0739   22.0979 N   0  0  0  0  0  0
  -23.4177  -28.8257   23.3073 O   0  0  0  0  0  0
  -28.3755  -26.6173   20.1263 O   0  0  0  0  0  0
  -26.5609  -34.8934   22.4700 O   0  0  0  0  0  0
  -23.5378  -32.1384   23.7447 O   0  0  0  0  0  0
  -29.7259  -19.2106   21.3154 C   0  0  0  0  0  0
  -27.8170  -17.6594   18.2865 C   0  0  0  0  0  0
  -28.8094  -16.5865   17.7952 C   0  0  0  0  0  0
  -27.9761  -18.0194   19.7813 C   0  0  0  0  0  0
  -30.2600  -16.7806   18.3017 C   0  0  0  0  0  0
  -29.4568  -18.3132   20.0779 C   0  0  2  0  0  0
  -30.3195  -17.0010   19.8407 C   0  0  1  0  0  0
  -30.5862  -24.8315   20.0820 C   0  0  0  0  0  0
  -29.0982  -20.6378   21.3382 C   0  0  0  0  0  0
  -29.6307  -21.6838   20.3029 C   0  0  0  0  0  0
  -28.7745  -22.9952   20.1619 C   0  0  0  0  0  0
  -28.2517  -25.4439   20.9650 C   0  0  0  0  0  0
  -29.3267  -24.3135   20.7961 C   0  0  2  0  0  0
  -30.4348  -18.8132   22.2847 N   0  0  0  0  0  0
  -29.9252  -15.7099   20.5059 N   0  0  0  0  0  0
  -31.4633  -12.4131   19.1800 H   0  0  0  0  0  0
  -30.2962  -11.3534   19.9057 H   0  0  0  0  0  0
  -29.7686  -11.7797   17.4621 H   0  0  0  0  0  0
  -29.6516  -13.4862   17.7790 H   0  0  0  0  0  0
  -27.8795  -11.2848   18.8816 H   0  0  0  0  0  0
  -27.3681  -12.5563   17.7984 H   0  0  0  0  0  0
  -27.6491  -14.2461   19.5215 H   0  0  0  0  0  0
  -28.6828  -12.1097   21.4453 H   0  0  0  0  0  0
  -28.4519  -13.8027   21.8014 H   0  0  0  0  0  0
  -25.2785   -9.5577   22.4733 H   0  0  0  0  0  0
  -23.9953   -7.4587   22.7467 H   0  0  0  0  0  0
  -21.0834   -8.8767   19.8957 H   0  0  0  0  0  0
  -22.3740  -10.9653   19.6124 H   0  0  0  0  0  0
  -21.1987   -7.6166   23.9742 H   0  0  0  0  0  0
  -21.1446   -6.0540   25.9092 H   0  0  0  0  0  0
  -22.0617   -2.7636   23.2856 H   0  0  0  0  0  0
  -22.4118  -11.9907   22.4766 H   0  0  0  0  0  0
  -21.1051  -13.1222   22.2619 H   0  0  0  0  0  0
  -24.6261  -15.8238   20.4718 H   0  0  0  0  0  0
  -26.2492  -15.6246   20.0427 H   0  0  0  0  0  0
  -26.7167  -32.5512   23.1167 H   0  0  0  0  0  0
  -25.0067  -33.9763   25.0475 H   0  0  0  0  0  0
  -22.7010  -31.3044   21.4043 H   0  0  0  0  0  0
  -23.3744  -35.9664   23.3314 H   0  0  0  0  0  0
  -24.3597  -36.8926   22.2047 H   0  0  0  0  0  0
  -23.7258  -37.6541   23.6641 H   0  0  0  0  0  0
  -26.0558  -31.5848   20.5937 H   0  0  0  0  0  0
  -26.8272  -30.8772   21.9830 H   0  0  0  0  0  0
  -28.1165  -29.0799   21.1633 H   0  0  0  0  0  0
  -26.0683  -25.9523   19.0256 H   0  0  0  0  0  0
  -23.9870  -27.2827   19.0368 H   0  0  0  0  0  0
  -23.7293  -30.5875   19.4009 H   0  0  0  0  0  0
  -22.7467  -29.2352   19.8726 H   0  0  0  0  0  0
  -25.1291  -36.1987   25.0835 H   0  0  0  0  0  0
  -21.0017  -28.3323   24.1440 H   0  0  0  0  0  0
  -21.6682  -26.7486   22.1308 H   0  0  0  0  0  0
  -20.5633  -26.2291   23.3672 H   0  0  0  0  0  0
  -19.6715  -27.3297   20.6798 H   0  0  0  0  0  0
  -19.7072  -25.6342   21.1266 H   0  0  0  0  0  0
  -17.4231  -26.6560   21.4122 H   0  0  0  0  0  0
  -18.0474  -26.0104   22.9138 H   0  0  0  0  0  0
  -19.7946  -30.7253   24.2245 H   0  0  0  0  0  0
  -17.4971  -31.6278   24.5131 H   0  0  0  0  0  0
  -15.5333  -30.2971   23.7566 H   0  0  0  0  0  0
  -15.8661  -28.0820   22.7074 H   0  0  0  0  0  0
  -24.5905  -30.7064   25.7843 H   0  0  0  0  0  0
  -24.8936  -32.2865   26.4953 H   0  0  0  0  0  0
  -25.8096  -30.8884   27.0236 H   0  0  0  0  0  0
  -26.2821  -29.6819   24.1150 H   0  0  0  0  0  0
  -27.4041  -29.7263   25.4570 H   0  0  0  0  0  0
  -27.8677  -30.4355   23.9268 H   0  0  0  0  0  0
  -27.2677  -33.3589   26.2110 H   0  0  0  0  0  0
  -28.3828  -32.6905   25.0296 H   0  0  0  0  0  0
  -28.0754  -31.8409   26.5354 H   0  0  0  0  0  0
  -28.2621  -38.0093   24.7491 H   0  0  0  0  0  0
  -28.1063  -36.2632   24.6311 H   0  0  0  0  0  0
  -27.2306  -37.1497   25.8868 H   0  0  0  0  0  0
  -20.9373  -29.8606   21.6749 H   0  0  0  0  0  0
  -26.0206  -38.2882   24.1359 H   0  0  0  0  0  0
  -26.7968  -17.3302   18.0932 H   0  0  0  0  0  0
  -27.9505  -18.5631   17.6907 H   0  0  0  0  0  0
  -28.7999  -16.5627   16.7041 H   0  0  0  0  0  0
  -28.4545  -15.6075   18.0978 H   0  0  0  0  0  0
  -27.6140  -17.2231   20.4286 H   0  0  0  0  0  0
  -27.3423  -18.8818   19.9851 H   0  0  0  0  0  0
  -30.8691  -15.9283   17.9978 H   0  0  0  0  0  0
  -30.7127  -17.6334   17.7921 H   0  0  0  0  0  0
  -29.7669  -18.9895   19.2789 H   0  0  0  0  0  0
  -31.3489  -17.2259   20.1288 H   0  0  0  0  0  0
  -30.9766  -25.7182   20.5815 H   0  0  0  0  0  0
  -30.3756  -25.1088   19.0493 H   0  0  0  0  0  0
  -31.3846  -24.0916   20.0718 H   0  0  0  0  0  0
  -29.2384  -21.0617   22.3332 H   0  0  0  0  0  0
  -28.0218  -20.5393   21.2306 H   0  0  0  0  0  0
  -29.6390  -21.2134   19.3207 H   0  0  0  0  0  0
  -30.6754  -21.9213   20.5110 H   0  0  0  0  0  0
  -28.6082  -23.1907   19.1015 H   0  0  0  0  0  0
  -27.7821  -22.7948   20.5642 H   0  0  0  0  0  0
  -28.3122  -25.8050   21.9918 H   0  0  0  0  0  0
  -27.2569  -25.0059   20.8755 H   0  0  0  0  0  0
  -29.6272  -24.0399   21.8080 H   0  0  0  0  0  0
  -30.5307  -19.5201   23.0085 H   0  0  0  0  0  0
  -28.9591  -15.6081   20.7758 H   0  0  0  0  0  0
  1 25  1  0  0  0
  1 30  2  0  0  0
  1 85  1  0  0  0
  2  3  1  0  0  0
  2 25  1  0  0  0
  2 86  1  0  0  0
  2 87  1  0  0  0
  3  4  1  0  0  0
  3 88  1  0  0  0
  3 89  1  0  0  0
  4  5  1  0  0  0
  4 90  1  0  0  0
  4 91  1  0  0  0
  5  6  1  0  0  0
  5 26  1  0  0  0
  5 92  1  0  0  0
  6 25  1  0  0  0
  6 93  1  0  0  0
  6 94  1  0  0  0
  7  8  2  0  0  0
  7 26  1  0  0  0
  7 29  1  0  0  0
  8  9  1  0  0  0
  8 22  1  0  0  0
  9 10  1  0  0  0
  9 27  2  0  0  0
 10 11  2  0  0  0
 10 15  1  0  0  0
 11 12  1  0  0  0
 11 95  1  0  0  0
 12 13  2  0  0  0
 12 96  1  0  0  0
 13 14  1  0  0  0
 13 31  1  0  0  0
 14 15  2  0  0  0
 14 97  1  0  0  0
 15 98  1  0  0  0
 16 17  2  0  0  0
 16 21  1  0  0  0
 16 31  1  0  0  0
 17 18  1  0  0  0
 17 99  1  0  0  0
 18 19  2  0  0  0
 18100  1  0  0  0
 19 20  1  0  0  0
 19 24  1  0  0  0
 20 21  2  0  0  0
 20101  1  0  0  0
 21 23  1  0  0  0
 22 28  1  0  0  0
 22 32  2  0  0  0
 26 27  1  0  0  0
 28102  1  0  0  0
 28103  1  0  0  0
 29104  1  0  0  0
 29105  1  0  0  0
 33 34  1  0  0  0
 33 66  1  0  0  0
 33 70  2  0  0  0
 34 36  1  0  0  0
 34 59  1  0  0  0
 34106  1  0  0  0
 35 44  2  0  0  0
 35 45  1  0  0  0
 35 68  1  0  0  0
 36 56  1  0  0  0
 36107  1  0  0  0
 37 39  1  0  0  0
 37 47  1  0  0  0
 37 66  1  0  0  0
 37108  1  0  0  0
 38 43  2  0  0  0
 38 46  1  0  0  0
 38 47  1  0  0  0
 39 64  1  0  0  0
 39 67  2  0  0  0
 40 52  1  0  0  0
 40 53  2  0  0  0
 40 58  1  0  0  0
 41109  1  0  0  0
 41110  1  0  0  0
 41111  1  0  0  0
 41 48  1  0  0  0
 42 43  1  0  0  0
 42 66  1  0  0  0
 42112  1  0  0  0
 42113  1  0  0  0
 43 44  1  0  0  0
 44114  1  0  0  0
 45 46  2  0  0  0
 45115  1  0  0  0
 46116  1  0  0  0
 47117  1  0  0  0
 47118  1  0  0  0
 48 56  1  0  0  0
 48 65  1  0  0  0
 48119  1  0  0  0
 49 50  1  0  0  0
 49 53  1  0  0  0
 49 64  1  0  0  0
 49120  1  0  0  0
 50 51  1  0  0  0
 50121  1  0  0  0
 50122  1  0  0  0
 51 52  1  0  0  0
 51123  1  0  0  0
 51124  1  0  0  0
 52125  1  0  0  0
 52126  1  0  0  0
 53 54  1  0  0  0
 54 55  2  0  0  0
 54127  1  0  0  0
 55 57  1  0  0  0
 55128  1  0  0  0
 56 69  2  0  0  0
 57 58  2  0  0  0
 57129  1  0  0  0
 58130  1  0  0  0
 59 60  1  0  0  0
 59 61  1  0  0  0
 59 62  1  0  0  0
 60131  1  0  0  0
 60132  1  0  0  0
 60133  1  0  0  0
 61134  1  0  0  0
 61135  1  0  0  0
 61136  1  0  0  0
 62137  1  0  0  0
 62138  1  0  0  0
 62139  1  0  0  0
 63 65  1  0  0  0
 63140  1  0  0  0
 63141  1  0  0  0
 63142  1  0  0  0
 64143  1  0  0  0
 65144  1  0  0  0
 68 82  1  0  0  0
 71 79  1  0  0  0
 71 84  2  0  0  0
 71 76  1  0  0  0
 72 73  1  0  0  0
 72 74  1  0  0  0
 72145  1  0  0  0
 72146  1  0  0  0
 73 75  1  0  0  0
 73147  1  0  0  0
 73148  1  0  0  0
 74 76  1  0  0  0
 74149  1  0  0  0
 74150  1  0  0  0
 75 77  1  0  0  0
 75151  1  0  0  0
 75152  1  0  0  0
 76 77  1  0  0  0
 76153  1  0  0  0
 77 85  1  0  0  0
 77154  1  0  0  0
 78155  1  0  0  0
 78156  1  0  0  0
 78157  1  0  0  0
 78 83  1  0  0  0
 79 80  1  0  0  0
 79158  1  0  0  0
 79159  1  0  0  0
 80 81  1  0  0  0
 80160  1  0  0  0
 80161  1  0  0  0
 81 83  1  0  0  0
 81162  1  0  0  0
 81163  1  0  0  0
 82 83  1  0  0  0
 82164  1  0  0  0
 82165  1  0  0  0
 83166  1  0  0  0
 84167  1  0  0  0
 85168  1  0  0  0
M  ISO  4   1 100  68 101  82 101  85 100
M  END
> <chiral flag>
0

> <version>
0

> <s_m_source_file>
/data/baiqing/PycharmProjects/Reinvent-master-3.2/result/LINK_invent/BTK/process_docking_weight1_custom_sum_contain_oxygen_bond_distance_aromatic_linkinvent_7_9_3/rearranged_h_0113.sdf

> <i_m_source_file_index>
15

> <r_mmod_Potential_Energy-OPLS-2005>
105.911903381348

> <r_mmod_Stretch_Energy-OPLS-2005>
56.6484336853027

> <r_mmod_Bend_Energy-OPLS-2005>
137.831115722656

> <r_mmod_Torsional_Energy-OPLS-2005>
289.166412353516

> <r_mmod_Improper_Torsional_Energy-OPLS-2005>
9.83009910583496

> <r_mmod_Van_der_Waal_Energy-OPLS-2005>
128.205017089844

> <r_mmod_Electrostatic_Energy-OPLS-2005>
-341.653411865234

> <r_mmod_Solvation_Energy-OPLS-2005>
-204.690567016602

> <b_mmod_Minimization_Converged-OPLS-2005>
0

> <r_mmod_RMS_Derivative-OPLS-2005>
4.23218822479248

$$$$
16
                    3D
 Structure written by MMmdl.
163171  0  0  1  0            999 V2000
  -30.6476  -14.7256   20.3544 C   0  0  0  0  0  0
  -30.4374  -12.4063   19.4778 C   0  0  0  0  0  0
  -29.5182  -12.3437   18.2394 C   0  0  0  0  0  0
  -28.0236  -12.2995   18.6375 C   0  0  0  0  0  0
  -27.6311  -13.2149   19.8331 C   0  0  2  0  0  0
  -28.6909  -13.2071   20.9525 C   0  0  0  0  0  0
  -25.2518  -13.8155   20.5726 C   0  0  0  0  0  0
  -24.1790  -13.0430   20.9237 C   0  0  0  0  0  0
  -24.6361  -11.6910   20.8791 C   0  0  0  0  0  0
  -23.9034  -10.4302   21.0432 C   0  0  0  0  0  0
  -24.3609   -9.4220   21.9197 C   0  0  0  0  0  0
  -23.6301   -8.2245   22.0749 C   0  0  0  0  0  0
  -22.4285   -8.0286   21.3541 C   0  0  0  0  0  0
  -21.9904   -9.0251   20.4647 C   0  0  0  0  0  0
  -22.7214  -10.2144   20.3064 C   0  0  0  0  0  0
  -21.6854   -6.0744   22.5282 C   0  0  0  0  0  0
  -21.4020   -6.5641   23.8219 C   0  0  0  0  0  0
  -21.3657   -5.6790   24.9177 C   0  0  0  0  0  0
  -21.6030   -4.3046   24.7222 C   0  0  0  0  0  0
  -21.8820   -3.8148   23.4337 C   0  0  0  0  0  0
  -21.9191   -4.6971   22.3403 C   0  0  0  0  0  0
  -22.7814  -13.5243   21.1877 C   0  0  0  0  0  0
  -22.1660   -4.2161   21.0973 F   0  0  0  0  0  0
  -21.5620   -3.4529   25.7732 F   0  0  0  0  0  0
  -29.9824  -13.5211   20.3323 N   0  0  0  0  0  0
  -26.2911  -12.9301   20.3303 N   0  0  0  0  0  0
  -25.9284  -11.6480   20.5816 N   0  0  0  0  0  0
  -22.0433  -12.8252   22.0437 N   0  0  0  0  0  0
  -25.4227  -15.1886   20.4159 N   0  0  0  0  0  0
  -31.8786  -14.7406   20.2979 O   0  0  0  0  0  0
  -21.6632   -6.8893   21.4257 O   0  0  0  0  0  0
  -22.3514  -14.5539   20.6698 O   0  0  0  0  0  0
  -24.6271  -31.8582   23.1993 C   0  0  0  0  0  0
  -25.9114  -32.4774   23.8335 C   0  0  1  0  0  0
  -27.2250  -27.3088   20.1252 C   0  0  0  0  0  0
  -25.5925  -33.8574   24.2268 N   0  0  0  0  0  0
  -23.4203  -30.4794   21.5419 C   0  0  2  0  0  0
  -24.8650  -28.9281   20.1093 C   0  0  0  0  0  0
  -22.7474  -29.4621   22.4938 C   0  0  0  0  0  0
  -18.0286  -28.1405   22.8496 C   0  0  0  0  0  0
  -24.1476  -36.7277   23.2639 C   0  0  0  0  0  0
  -25.9583  -30.7870   21.3666 C   0  0  0  0  0  0
  -26.0310  -29.4113   20.7147 C   0  0  0  0  0  0
  -27.2089  -28.6111   20.7147 C   0  0  0  0  0  0
  -26.0346  -26.8715   19.5008 C   0  0  0  0  0  0
  -24.8691  -27.6652   19.4950 C   0  0  0  0  0  0
  -23.6328  -29.8084   20.1579 C   0  0  0  0  0  0
  -25.4102  -36.3076   24.0327 C   0  0  1  0  0  0
  -20.5882  -28.3696   23.1292 C   0  0  2  0  0  0
  -20.6770  -26.9416   22.5417 C   0  0  0  0  0  0
  -19.5750  -26.6406   21.5210 C   0  0  0  0  0  0
  -18.1930  -26.7954   22.1624 C   0  0  0  0  0  0
  -19.1540  -28.8862   23.2898 C   0  0  0  0  0  0
  -18.9464  -30.1465   23.8910 C   0  0  0  0  0  0
  -17.6463  -30.6604   24.0568 C   0  0  0  0  0  0
  -25.9043  -34.9449   23.5094 C   0  0  0  0  0  0
  -16.5353  -29.9097   23.6338 C   0  0  0  0  0  0
  -16.7271  -28.6517   23.0355 C   0  0  0  0  0  0
  -26.4489  -31.6599   25.0721 C   0  0  0  0  0  0
  -25.3704  -31.3754   26.1435 C   0  0  0  0  0  0
  -27.0329  -30.3023   24.6175 C   0  0  0  0  0  0
  -27.6072  -32.4308   25.7498 C   0  0  0  0  0  0
  -27.5564  -37.1795   24.8469 C   0  0  0  0  0  0
  -21.4180  -29.3052   22.3690 N   0  0  0  0  0  0
  -26.4276  -37.3776   23.9417 N   0  0  0  0  0  0
  -24.6879  -31.0588   22.0936 N   0  0  0  0  0  0
  -23.4199  -28.8163   23.3020 O   0  0  0  0  0  0
  -28.3674  -26.5022   20.2118 O   0  0  0  0  0  0
  -26.5618  -34.8910   22.4665 O   0  0  0  0  0  0
  -23.5438  -32.1372   23.7330 O   0  0  0  0  0  0
  -31.0632  -17.4060   18.7526 C   0  0  0  0  0  0
  -29.3343  -15.9477   18.7510 C   0  0  0  0  0  0
  -30.5734  -17.2952   20.2056 C   0  0  1  0  0  0
  -30.9806  -20.5274   19.4556 C   0  0  0  0  0  0
  -26.7218  -23.5181   20.6494 C   0  0  0  0  0  0
  -29.5364  -18.5328   20.4586 C   0  0  0  0  0  0
  -28.7961  -21.2005   20.6929 C   0  0  0  0  0  0
  -28.4785  -25.1354   19.6475 C   0  0  0  0  0  0
  -29.9698  -20.0979   20.5371 C   0  0  2  0  0  0
  -28.2310  -23.8149   20.5339 C   0  0  2  0  0  0
  -30.2441  -16.7421   17.9549 N   0  0  0  0  0  0
  -29.9387  -15.9066   20.0963 N   0  0  0  0  0  0
  -29.0059  -22.5780   20.0612 N   0  3  0  0  0  0
  -32.1156  -17.9291   18.3906 O   0  0  0  0  0  0
  -31.4782  -12.5215   19.1684 H   0  0  0  0  0  0
  -30.3923  -11.4710   20.0381 H   0  0  0  0  0  0
  -29.7546  -11.4392   17.6761 H   0  0  0  0  0  0
  -29.7360  -13.1483   17.5420 H   0  0  0  0  0  0
  -27.8056  -11.2643   18.8946 H   0  0  0  0  0  0
  -27.3993  -12.5235   17.7715 H   0  0  0  0  0  0
  -27.5757  -14.2201   19.4358 H   0  0  0  0  0  0
  -28.7279  -12.2402   21.4552 H   0  0  0  0  0  0
  -28.4467  -13.9481   21.7145 H   0  0  0  0  0  0
  -25.2751   -9.5685   22.4782 H   0  0  0  0  0  0
  -23.9998   -7.4625   22.7454 H   0  0  0  0  0  0
  -21.0825   -8.8764   19.8971 H   0  0  0  0  0  0
  -22.3654  -10.9686   19.6182 H   0  0  0  0  0  0
  -21.2034   -7.6150   23.9727 H   0  0  0  0  0  0
  -21.1473   -6.0516   25.9078 H   0  0  0  0  0  0
  -22.0606   -2.7614   23.2822 H   0  0  0  0  0  0
  -22.4003  -11.9917   22.4857 H   0  0  0  0  0  0
  -21.1058  -13.1308   22.2641 H   0  0  0  0  0  0
  -24.6587  -15.8446   20.5350 H   0  0  0  0  0  0
  -26.2838  -15.6355   20.1294 H   0  0  0  0  0  0
  -26.7184  -32.5423   23.1091 H   0  0  0  0  0  0
  -25.0093  -33.9729   25.0422 H   0  0  0  0  0  0
  -22.7161  -31.3001   21.3969 H   0  0  0  0  0  0
  -23.3745  -35.9607   23.3308 H   0  0  0  0  0  0
  -24.3567  -36.8886   22.2054 H   0  0  0  0  0  0
  -23.7216  -37.6471   23.6658 H   0  0  0  0  0  0
  -26.0791  -31.5450   20.5921 H   0  0  0  0  0  0
  -26.8439  -30.8464   21.9881 H   0  0  0  0  0  0
  -28.1007  -28.9779   21.2026 H   0  0  0  0  0  0
  -25.9666  -25.8983   19.0397 H   0  0  0  0  0  0
  -23.9715  -27.2868   19.0262 H   0  0  0  0  0  0
  -23.7506  -30.5806   19.3979 H   0  0  0  0  0  0
  -22.7525  -29.2365   19.8585 H   0  0  0  0  0  0
  -25.1284  -36.1926   25.0818 H   0  0  0  0  0  0
  -20.9989  -28.3253   24.1405 H   0  0  0  0  0  0
  -20.5670  -26.2289   23.3608 H   0  0  0  0  0  0
  -21.6634  -26.7442   22.1202 H   0  0  0  0  0  0
  -19.6906  -25.6321   21.1225 H   0  0  0  0  0  0
  -19.6693  -27.3226   20.6751 H   0  0  0  0  0  0
  -17.4197  -26.6706   21.4026 H   0  0  0  0  0  0
  -18.0326  -26.0103   22.9025 H   0  0  0  0  0  0
  -19.7931  -30.7286   24.2287 H   0  0  0  0  0  0
  -17.5010  -31.6283   24.5170 H   0  0  0  0  0  0
  -15.5350  -30.3003   23.7671 H   0  0  0  0  0  0
  -15.8668  -28.0840   22.7071 H   0  0  0  0  0  0
  -24.5940  -30.7026   25.7770 H   0  0  0  0  0  0
  -24.8819  -32.2922   26.4751 H   0  0  0  0  0  0
  -25.8020  -30.9034   27.0274 H   0  0  0  0  0  0
  -26.2912  -29.6801   24.1161 H   0  0  0  0  0  0
  -27.3994  -29.7260   25.4683 H   0  0  0  0  0  0
  -27.8787  -30.4324   23.9420 H   0  0  0  0  0  0
  -27.2734  -33.3652   26.2023 H   0  0  0  0  0  0
  -28.3932  -32.6775   25.0345 H   0  0  0  0  0  0
  -28.0681  -31.8439   26.5458 H   0  0  0  0  0  0
  -28.2592  -38.0083   24.7509 H   0  0  0  0  0  0
  -28.1051  -36.2617   24.6307 H   0  0  0  0  0  0
  -27.2291  -37.1444   25.8875 H   0  0  0  0  0  0
  -20.9359  -29.8757   21.6880 H   0  0  0  0  0  0
  -26.0151  -38.2849   24.1429 H   0  0  0  0  0  0
  -29.2084  -14.9959   18.2592 H   0  0  0  0  0  0
  -28.3503  -16.4165   18.7838 H   0  0  0  0  0  0
  -31.4039  -17.3117   20.9132 H   0  0  0  0  0  0
  -30.6179  -20.3263   18.4473 H   0  0  0  0  0  0
  -31.9266  -20.0102   19.5967 H   0  0  0  0  0  0
  -31.2528  -21.5805   19.5115 H   0  0  0  0  0  0
  -26.5146  -22.7293   21.3729 H   0  0  0  0  0  0
  -26.2967  -23.2155   19.6902 H   0  0  0  0  0  0
  -26.1732  -24.3988   20.9855 H   0  0  0  0  0  0
  -29.0061  -18.3065   21.3839 H   0  0  0  0  0  0
  -28.7614  -18.4808   19.6951 H   0  0  0  0  0  0
  -28.6190  -21.3479   21.7593 H   0  0  0  0  0  0
  -27.8618  -20.7970   20.2989 H   0  0  0  0  0  0
  -27.9450  -25.0642   18.6990 H   0  0  0  0  0  0
  -29.5253  -25.0912   19.3475 H   0  0  0  0  0  0
  -30.5427  -20.1790   21.4627 H   0  0  0  0  0  0
  -28.6038  -24.0258   21.5376 H   0  0  0  0  0  0
  -30.3848  -16.6116   16.9611 H   0  0  0  0  0  0
  -28.8350  -22.4565   19.0742 H   0  0  0  0  0  0
  -29.9884  -22.7874   20.1519 H   0  0  0  0  0  0
  1 25  1  0  0  0
  1 30  2  0  0  0
  1 82  1  0  0  0
  2  3  1  0  0  0
  2 25  1  0  0  0
  2 85  1  0  0  0
  2 86  1  0  0  0
  3  4  1  0  0  0
  3 87  1  0  0  0
  3 88  1  0  0  0
  4  5  1  0  0  0
  4 89  1  0  0  0
  4 90  1  0  0  0
  5  6  1  0  0  0
  5 26  1  0  0  0
  5 91  1  0  0  0
  6 25  1  0  0  0
  6 92  1  0  0  0
  6 93  1  0  0  0
  7  8  2  0  0  0
  7 26  1  0  0  0
  7 29  1  0  0  0
  8  9  1  0  0  0
  8 22  1  0  0  0
  9 10  1  0  0  0
  9 27  2  0  0  0
 10 11  2  0  0  0
 10 15  1  0  0  0
 11 12  1  0  0  0
 11 94  1  0  0  0
 12 13  2  0  0  0
 12 95  1  0  0  0
 13 14  1  0  0  0
 13 31  1  0  0  0
 14 15  2  0  0  0
 14 96  1  0  0  0
 15 97  1  0  0  0
 16 17  2  0  0  0
 16 21  1  0  0  0
 16 31  1  0  0  0
 17 18  1  0  0  0
 17 98  1  0  0  0
 18 19  2  0  0  0
 18 99  1  0  0  0
 19 20  1  0  0  0
 19 24  1  0  0  0
 20 21  2  0  0  0
 20100  1  0  0  0
 21 23  1  0  0  0
 22 28  1  0  0  0
 22 32  2  0  0  0
 26 27  1  0  0  0
 28101  1  0  0  0
 28102  1  0  0  0
 29103  1  0  0  0
 29104  1  0  0  0
 33 34  1  0  0  0
 33 66  1  0  0  0
 33 70  2  0  0  0
 34 36  1  0  0  0
 34 59  1  0  0  0
 34105  1  0  0  0
 35 44  2  0  0  0
 35 45  1  0  0  0
 35 68  1  0  0  0
 36 56  1  0  0  0
 36106  1  0  0  0
 37 39  1  0  0  0
 37 47  1  0  0  0
 37 66  1  0  0  0
 37107  1  0  0  0
 38 43  2  0  0  0
 38 46  1  0  0  0
 38 47  1  0  0  0
 39 64  1  0  0  0
 39 67  2  0  0  0
 40 52  1  0  0  0
 40 53  2  0  0  0
 40 58  1  0  0  0
 41108  1  0  0  0
 41109  1  0  0  0
 41110  1  0  0  0
 41 48  1  0  0  0
 42 43  1  0  0  0
 42 66  1  0  0  0
 42111  1  0  0  0
 42112  1  0  0  0
 43 44  1  0  0  0
 44113  1  0  0  0
 45 46  2  0  0  0
 45114  1  0  0  0
 46115  1  0  0  0
 47116  1  0  0  0
 47117  1  0  0  0
 48 56  1  0  0  0
 48 65  1  0  0  0
 48118  1  0  0  0
 49 50  1  0  0  0
 49 53  1  0  0  0
 49 64  1  0  0  0
 49119  1  0  0  0
 50 51  1  0  0  0
 50120  1  0  0  0
 50121  1  0  0  0
 51 52  1  0  0  0
 51122  1  0  0  0
 51123  1  0  0  0
 52124  1  0  0  0
 52125  1  0  0  0
 53 54  1  0  0  0
 54 55  2  0  0  0
 54126  1  0  0  0
 55 57  1  0  0  0
 55127  1  0  0  0
 56 69  2  0  0  0
 57 58  2  0  0  0
 57128  1  0  0  0
 58129  1  0  0  0
 59 60  1  0  0  0
 59 61  1  0  0  0
 59 62  1  0  0  0
 60130  1  0  0  0
 60131  1  0  0  0
 60132  1  0  0  0
 61133  1  0  0  0
 61134  1  0  0  0
 61135  1  0  0  0
 62136  1  0  0  0
 62137  1  0  0  0
 62138  1  0  0  0
 63 65  1  0  0  0
 63139  1  0  0  0
 63140  1  0  0  0
 63141  1  0  0  0
 64142  1  0  0  0
 65143  1  0  0  0
 68 78  1  0  0  0
 71 73  1  0  0  0
 71 81  1  0  0  0
 71 84  2  0  0  0
 72 81  1  0  0  0
 72 82  1  0  0  0
 72144  1  0  0  0
 72145  1  0  0  0
 73 76  1  0  0  0
 73 82  1  0  0  0
 73146  1  0  0  0
 74147  1  0  0  0
 74148  1  0  0  0
 74149  1  0  0  0
 74 79  1  0  0  0
 75150  1  0  0  0
 75151  1  0  0  0
 75152  1  0  0  0
 75 80  1  0  0  0
 76 79  1  0  0  0
 76153  1  0  0  0
 76154  1  0  0  0
 77 79  1  0  0  0
 77 83  1  0  0  0
 77155  1  0  0  0
 77156  1  0  0  0
 78 80  1  0  0  0
 78157  1  0  0  0
 78158  1  0  0  0
 79159  1  0  0  0
 80 83  1  0  0  0
 80160  1  0  0  0
 81161  1  0  0  0
 83162  1  0  0  0
 83163  1  0  0  0
M  CHG  1  83   1
M  ISO  4   1 100  68 101  78 101  82 100
M  END
> <chiral flag>
0

> <version>
0

> <s_m_source_file>
/data/baiqing/PycharmProjects/Reinvent-master-3.2/result/LINK_invent/BTK/process_docking_weight1_custom_sum_contain_oxygen_bond_distance_aromatic_linkinvent_7_9_3/rearranged_h_0113.sdf

> <i_m_source_file_index>
16

> <r_mmod_Potential_Energy-OPLS-2005>
192.008728027344

> <r_mmod_Stretch_Energy-OPLS-2005>
115.94367980957

> <r_mmod_Bend_Energy-OPLS-2005>
239.005905151367

> <r_mmod_Torsional_Energy-OPLS-2005>
322.054809570312

> <r_mmod_Improper_Torsional_Energy-OPLS-2005>
15.5271797180176

> <r_mmod_Van_der_Waal_Energy-OPLS-2005>
137.594329833984

> <r_mmod_Electrostatic_Energy-OPLS-2005>
-250.089797973633

> <r_mmod_Solvation_Energy-OPLS-2005>
-472.943878173828

> <b_mmod_Minimization_Converged-OPLS-2005>
0

> <r_mmod_RMS_Derivative-OPLS-2005>
2.50087356567383

$$$$
17
                    3D
 Structure written by MMmdl.
165173  0  0  1  0            999 V2000
  -30.7535  -14.6800   20.2325 C   0  0  0  0  0  0
  -30.3908  -12.3377   19.4544 C   0  0  0  0  0  0
  -29.4445  -12.2941   18.2254 C   0  0  0  0  0  0
  -27.9864  -12.2260   18.6797 C   0  0  0  0  0  0
  -27.6317  -13.2236   19.8153 C   0  0  2  0  0  0
  -28.7189  -13.2743   20.9147 C   0  0  0  0  0  0
  -25.2550  -13.8240   20.5792 C   0  0  0  0  0  0
  -24.1819  -13.0491   20.9285 C   0  0  0  0  0  0
  -24.6382  -11.6965   20.8856 C   0  0  0  0  0  0
  -23.9061  -10.4324   21.0445 C   0  0  0  0  0  0
  -24.3605   -9.4226   21.9207 C   0  0  0  0  0  0
  -23.6281   -8.2261   22.0765 C   0  0  0  0  0  0
  -22.4271   -8.0290   21.3549 C   0  0  0  0  0  0
  -21.9909   -9.0267   20.4663 C   0  0  0  0  0  0
  -22.7237  -10.2151   20.3086 C   0  0  0  0  0  0
  -21.6857   -6.0729   22.5273 C   0  0  0  0  0  0
  -21.4010   -6.5632   23.8201 C   0  0  0  0  0  0
  -21.3664   -5.6788   24.9165 C   0  0  0  0  0  0
  -21.6046   -4.3051   24.7217 C   0  0  0  0  0  0
  -21.8822   -3.8132   23.4345 C   0  0  0  0  0  0
  -21.9193   -4.6952   22.3401 C   0  0  0  0  0  0
  -22.7830  -13.5257   21.1850 C   0  0  0  0  0  0
  -22.1647   -4.2133   21.0978 F   0  0  0  0  0  0
  -21.5641   -3.4540   25.7734 F   0  0  0  0  0  0
  -30.0035  -13.5217   20.2407 N   0  0  0  0  0  0
  -26.2961  -12.9439   20.3397 N   0  0  0  0  0  0
  -25.9327  -11.6606   20.6008 N   0  0  0  0  0  0
  -22.0446  -12.8263   22.0401 N   0  0  0  0  0  0
  -25.4288  -15.1951   20.4143 N   0  0  0  0  0  0
  -31.9481  -14.6263   20.5127 O   0  0  0  0  0  0
  -21.6646   -6.8874   21.4238 O   0  0  0  0  0  0
  -22.3532  -14.5547   20.6659 O   0  0  0  0  0  0
  -24.6231  -31.8628   23.2042 C   0  0  0  0  0  0
  -25.9082  -32.4789   23.8364 C   0  0  1  0  0  0
  -27.2068  -27.3159   20.1238 C   0  0  0  0  0  0
  -25.5926  -33.8601   24.2300 N   0  0  0  0  0  0
  -23.4153  -30.4865   21.5484 C   0  0  2  0  0  0
  -24.8564  -28.9461   20.1123 C   0  0  0  0  0  0
  -22.7468  -29.4626   22.4962 C   0  0  0  0  0  0
  -18.0305  -28.1367   22.8501 C   0  0  0  0  0  0
  -24.1487  -36.7292   23.2633 C   0  0  0  0  0  0
  -25.9547  -30.7923   21.3748 C   0  0  0  0  0  0
  -26.0250  -29.4193   20.7199 C   0  0  0  0  0  0
  -27.2004  -28.6148   20.7194 C   0  0  0  0  0  0
  -26.0119  -26.8975   19.4903 C   0  0  0  0  0  0
  -24.8525  -27.6912   19.4897 C   0  0  0  0  0  0
  -23.6266  -29.8280   20.1608 C   0  0  0  0  0  0
  -25.4110  -36.3089   24.0335 C   0  0  1  0  0  0
  -20.5905  -28.3662   23.1296 C   0  0  2  0  0  0
  -20.6793  -26.9392   22.5399 C   0  0  0  0  0  0
  -19.5762  -26.6374   21.5202 C   0  0  0  0  0  0
  -18.1947  -26.7914   22.1629 C   0  0  0  0  0  0
  -19.1559  -28.8823   23.2905 C   0  0  0  0  0  0
  -18.9484  -30.1432   23.8908 C   0  0  0  0  0  0
  -17.6482  -30.6569   24.0557 C   0  0  0  0  0  0
  -25.9050  -34.9463   23.5107 C   0  0  0  0  0  0
  -16.5366  -29.9074   23.6330 C   0  0  0  0  0  0
  -16.7294  -28.6492   23.0354 C   0  0  0  0  0  0
  -26.4483  -31.6591   25.0724 C   0  0  0  0  0  0
  -25.3721  -31.3717   26.1450 C   0  0  0  0  0  0
  -27.0308  -30.3021   24.6144 C   0  0  0  0  0  0
  -27.6060  -32.4312   25.7491 C   0  0  0  0  0  0
  -27.5577  -37.1803   24.8468 C   0  0  0  0  0  0
  -21.4183  -29.3031   22.3701 N   0  0  0  0  0  0
  -26.4294  -37.3781   23.9402 N   0  0  0  0  0  0
  -24.6829  -31.0636   22.0989 N   0  0  0  0  0  0
  -23.4213  -28.8169   23.3029 O   0  0  0  0  0  0
  -28.3481  -26.5047   20.1895 O   0  0  0  0  0  0
  -26.5614  -34.8926   22.4672 O   0  0  0  0  0  0
  -23.5400  -32.1448   23.7366 O   0  0  0  0  0  0
  -31.2648  -19.2973   18.5784 C   0  0  0  0  0  0
  -30.5978  -19.9265   19.6116 C   0  0  0  0  0  0
  -31.1252  -17.9167   18.3768 C   0  0  0  0  0  0
  -29.7423  -19.1648   20.4110 C   0  0  0  0  0  0
  -30.4313  -17.0873   19.3495 C   0  0  0  0  0  0
  -28.8236  -19.3134   22.7593 C   0  0  0  0  0  0
  -31.1024  -15.0943   17.9757 C   0  0  0  0  0  0
  -31.0300  -17.8900   16.0244 C   0  0  0  0  0  0
  -28.5939  -23.9817   20.9324 C   0  0  0  0  0  0
  -28.4616  -22.4449   20.5097 C   0  0  0  0  0  0
  -28.3409  -25.0724   19.8119 C   0  0  0  0  0  0
  -28.7729  -19.9449   21.3557 C   0  0  1  0  0  0
  -29.7029  -17.7781   20.3059 N   0  0  0  0  0  0
  -30.4680  -15.5898   19.2237 N   0  0  0  0  0  0
  -29.0184  -21.4406   21.5000 N   0  3  0  0  0  0
  -31.7223  -17.5041   17.2105 O   0  0  0  0  0  0
  -31.4421  -12.3496   19.1608 H   0  0  0  0  0  0
  -30.2768  -11.4312   20.0523 H   0  0  0  0  0  0
  -29.6795  -11.4210   17.6155 H   0  0  0  0  0  0
  -29.5189  -13.1399   17.5507 H   0  0  0  0  0  0
  -27.8259  -11.2051   19.0255 H   0  0  0  0  0  0
  -27.3149  -12.3619   17.8299 H   0  0  0  0  0  0
  -27.5988  -14.2084   19.3482 H   0  0  0  0  0  0
  -28.7493  -12.3442   21.4839 H   0  0  0  0  0  0
  -28.5059  -14.0759   21.6242 H   0  0  0  0  0  0
  -25.2731   -9.5709   22.4801 H   0  0  0  0  0  0
  -24.0002   -7.4641   22.7466 H   0  0  0  0  0  0
  -21.0849   -8.8765   19.8956 H   0  0  0  0  0  0
  -22.3663  -10.9687   19.6209 H   0  0  0  0  0  0
  -21.1996   -7.6132   23.9696 H   0  0  0  0  0  0
  -21.1488   -6.0517   25.9070 H   0  0  0  0  0  0
  -22.0603   -2.7597   23.2846 H   0  0  0  0  0  0
  -22.4029  -11.9942   22.4831 H   0  0  0  0  0  0
  -21.1060  -13.1319   22.2531 H   0  0  0  0  0  0
  -24.6735  -15.8585   20.5494 H   0  0  0  0  0  0
  -26.2949  -15.6323   20.1232 H   0  0  0  0  0  0
  -26.7145  -32.5459   23.1108 H   0  0  0  0  0  0
  -25.0074  -33.9771   25.0447 H   0  0  0  0  0  0
  -22.7070  -31.3059   21.4107 H   0  0  0  0  0  0
  -23.3762  -35.9610   23.3304 H   0  0  0  0  0  0
  -24.3574  -36.8894   22.2039 H   0  0  0  0  0  0
  -23.7244  -37.6502   23.6650 H   0  0  0  0  0  0
  -26.0816  -31.5547   20.6049 H   0  0  0  0  0  0
  -26.8362  -30.8444   22.0008 H   0  0  0  0  0  0
  -28.0971  -28.9732   21.2049 H   0  0  0  0  0  0
  -25.9115  -25.9525   18.9849 H   0  0  0  0  0  0
  -23.9564  -27.3237   19.0085 H   0  0  0  0  0  0
  -23.7488  -30.6085   19.4079 H   0  0  0  0  0  0
  -22.7447  -29.2586   19.8596 H   0  0  0  0  0  0
  -25.1298  -36.1935   25.0834 H   0  0  0  0  0  0
  -21.0006  -28.3208   24.1415 H   0  0  0  0  0  0
  -20.5686  -26.2268   23.3583 H   0  0  0  0  0  0
  -21.6661  -26.7412   22.1187 H   0  0  0  0  0  0
  -19.6904  -25.6285   21.1215 H   0  0  0  0  0  0
  -19.6690  -27.3196   20.6748 H   0  0  0  0  0  0
  -17.4207  -26.6666   21.4038 H   0  0  0  0  0  0
  -18.0388  -26.0047   22.9029 H   0  0  0  0  0  0
  -19.7952  -30.7252   24.2282 H   0  0  0  0  0  0
  -17.5037  -31.6250   24.5162 H   0  0  0  0  0  0
  -15.5372  -30.2986   23.7628 H   0  0  0  0  0  0
  -15.8711  -28.0797   22.7060 H   0  0  0  0  0  0
  -24.5920  -30.7042   25.7770 H   0  0  0  0  0  0
  -24.8884  -32.2876   26.4861 H   0  0  0  0  0  0
  -25.8044  -30.8911   27.0235 H   0  0  0  0  0  0
  -26.2862  -29.6792   24.1166 H   0  0  0  0  0  0
  -27.4025  -29.7247   25.4619 H   0  0  0  0  0  0
  -27.8731  -30.4324   23.9344 H   0  0  0  0  0  0
  -27.2704  -33.3629   26.2065 H   0  0  0  0  0  0
  -28.3875  -32.6842   25.0310 H   0  0  0  0  0  0
  -28.0728  -31.8436   26.5405 H   0  0  0  0  0  0
  -28.2606  -38.0087   24.7512 H   0  0  0  0  0  0
  -28.1075  -36.2631   24.6316 H   0  0  0  0  0  0
  -27.2304  -37.1468   25.8874 H   0  0  0  0  0  0
  -20.9335  -29.8807   21.6969 H   0  0  0  0  0  0
  -26.0179  -38.2857   24.1407 H   0  0  0  0  0  0
  -31.8566  -19.8930   17.8978 H   0  0  0  0  0  0
  -30.7099  -20.9948   19.6900 H   0  0  0  0  0  0
  -28.5376  -18.2610   22.7264 H   0  0  0  0  0  0
  -28.1409  -19.8093   23.4492 H   0  0  0  0  0  0
  -29.8287  -19.3670   23.1793 H   0  0  0  0  0  0
  -32.1304  -15.4460   17.9111 H   0  0  0  0  0  0
  -30.5271  -15.3757   17.0942 H   0  0  0  0  0  0
  -31.3068  -14.0397   17.8811 H   0  0  0  0  0  0
  -31.5402  -17.4737   15.1561 H   0  0  0  0  0  0
  -30.9873  -18.9715   15.8932 H   0  0  0  0  0  0
  -30.0093  -17.5025   16.0232 H   0  0  0  0  0  0
  -29.5912  -24.1567   21.3392 H   0  0  0  0  0  0
  -27.9011  -24.1701   21.7539 H   0  0  0  0  0  0
  -28.9446  -22.2954   19.5442 H   0  0  0  0  0  0
  -27.4081  -22.2174   20.3462 H   0  0  0  0  0  0
  -29.1509  -24.9699   19.0888 H   0  0  0  0  0  0
  -27.4710  -24.7597   19.2469 H   0  0  0  0  0  0
  -27.7643  -19.8136   20.9630 H   0  0  0  0  0  0
  -28.6154  -21.6779   22.3914 H   0  0  0  0  0  0
  -30.0130  -21.5719   21.5842 H   0  0  0  0  0  0
  1 25  1  0  0  0
  1 30  2  0  0  0
  1 84  1  0  0  0
  2  3  1  0  0  0
  2 25  1  0  0  0
  2 87  1  0  0  0
  2 88  1  0  0  0
  3  4  1  0  0  0
  3 89  1  0  0  0
  3 90  1  0  0  0
  4  5  1  0  0  0
  4 91  1  0  0  0
  4 92  1  0  0  0
  5  6  1  0  0  0
  5 26  1  0  0  0
  5 93  1  0  0  0
  6 25  1  0  0  0
  6 94  1  0  0  0
  6 95  1  0  0  0
  7  8  2  0  0  0
  7 26  1  0  0  0
  7 29  1  0  0  0
  8  9  1  0  0  0
  8 22  1  0  0  0
  9 10  1  0  0  0
  9 27  2  0  0  0
 10 11  2  0  0  0
 10 15  1  0  0  0
 11 12  1  0  0  0
 11 96  1  0  0  0
 12 13  2  0  0  0
 12 97  1  0  0  0
 13 14  1  0  0  0
 13 31  1  0  0  0
 14 15  2  0  0  0
 14 98  1  0  0  0
 15 99  1  0  0  0
 16 17  2  0  0  0
 16 21  1  0  0  0
 16 31  1  0  0  0
 17 18  1  0  0  0
 17100  1  0  0  0
 18 19  2  0  0  0
 18101  1  0  0  0
 19 20  1  0  0  0
 19 24  1  0  0  0
 20 21  2  0  0  0
 20102  1  0  0  0
 21 23  1  0  0  0
 22 28  1  0  0  0
 22 32  2  0  0  0
 26 27  1  0  0  0
 28103  1  0  0  0
 28104  1  0  0  0
 29105  1  0  0  0
 29106  1  0  0  0
 33 34  1  0  0  0
 33 66  1  0  0  0
 33 70  2  0  0  0
 34 36  1  0  0  0
 34 59  1  0  0  0
 34107  1  0  0  0
 35 44  2  0  0  0
 35 45  1  0  0  0
 35 68  1  0  0  0
 36 56  1  0  0  0
 36108  1  0  0  0
 37 39  1  0  0  0
 37 47  1  0  0  0
 37 66  1  0  0  0
 37109  1  0  0  0
 38 43  2  0  0  0
 38 46  1  0  0  0
 38 47  1  0  0  0
 39 64  1  0  0  0
 39 67  2  0  0  0
 40 52  1  0  0  0
 40 53  2  0  0  0
 40 58  1  0  0  0
 41110  1  0  0  0
 41111  1  0  0  0
 41112  1  0  0  0
 41 48  1  0  0  0
 42 43  1  0  0  0
 42 66  1  0  0  0
 42113  1  0  0  0
 42114  1  0  0  0
 43 44  1  0  0  0
 44115  1  0  0  0
 45 46  2  0  0  0
 45116  1  0  0  0
 46117  1  0  0  0
 47118  1  0  0  0
 47119  1  0  0  0
 48 56  1  0  0  0
 48 65  1  0  0  0
 48120  1  0  0  0
 49 50  1  0  0  0
 49 53  1  0  0  0
 49 64  1  0  0  0
 49121  1  0  0  0
 50 51  1  0  0  0
 50122  1  0  0  0
 50123  1  0  0  0
 51 52  1  0  0  0
 51124  1  0  0  0
 51125  1  0  0  0
 52126  1  0  0  0
 52127  1  0  0  0
 53 54  1  0  0  0
 54 55  2  0  0  0
 54128  1  0  0  0
 55 57  1  0  0  0
 55129  1  0  0  0
 56 69  2  0  0  0
 57 58  2  0  0  0
 57130  1  0  0  0
 58131  1  0  0  0
 59 60  1  0  0  0
 59 61  1  0  0  0
 59 62  1  0  0  0
 60132  1  0  0  0
 60133  1  0  0  0
 60134  1  0  0  0
 61135  1  0  0  0
 61136  1  0  0  0
 61137  1  0  0  0
 62138  1  0  0  0
 62139  1  0  0  0
 62140  1  0  0  0
 63 65  1  0  0  0
 63141  1  0  0  0
 63142  1  0  0  0
 63143  1  0  0  0
 64144  1  0  0  0
 65145  1  0  0  0
 68 81  1  0  0  0
 71 72  2  0  0  0
 71 73  1  0  0  0
 71146  1  0  0  0
 72 74  1  0  0  0
 72147  1  0  0  0
 73 75  2  0  0  0
 73 86  1  0  0  0
 74 82  1  0  0  0
 74 83  2  0  0  0
 75 83  1  0  0  0
 75 84  1  0  0  0
 76148  1  0  0  0
 76149  1  0  0  0
 76150  1  0  0  0
 76 82  1  0  0  0
 77 84  1  0  0  0
 77151  1  0  0  0
 77152  1  0  0  0
 77153  1  0  0  0
 78 86  1  0  0  0
 78154  1  0  0  0
 78155  1  0  0  0
 78156  1  0  0  0
 79 80  1  0  0  0
 79 81  1  0  0  0
 79157  1  0  0  0
 79158  1  0  0  0
 80 85  1  0  0  0
 80159  1  0  0  0
 80160  1  0  0  0
 81161  1  0  0  0
 81162  1  0  0  0
 82 85  1  0  0  0
 82163  1  0  0  0
 85164  1  0  0  0
 85165  1  0  0  0
M  CHG  1  85   1
M  ISO  4   1 100  68 101  81 101  84 100
M  END
> <chiral flag>
0

> <version>
0

> <s_m_source_file>
/data/baiqing/PycharmProjects/Reinvent-master-3.2/result/LINK_invent/BTK/process_docking_weight1_custom_sum_contain_oxygen_bond_distance_aromatic_linkinvent_7_9_3/rearranged_h_0113.sdf

> <i_m_source_file_index>
17

> <r_mmod_Potential_Energy-OPLS-2005>
109.286460876465

> <r_mmod_Stretch_Energy-OPLS-2005>
104.607093811035

> <r_mmod_Bend_Energy-OPLS-2005>
198.933151245117

> <r_mmod_Torsional_Energy-OPLS-2005>
338.83642578125

> <r_mmod_Improper_Torsional_Energy-OPLS-2005>
35.6259994506836

> <r_mmod_Van_der_Waal_Energy-OPLS-2005>
196.947677612305

> <r_mmod_Electrostatic_Energy-OPLS-2005>
-395.826324462891

> <r_mmod_Solvation_Energy-OPLS-2005>
-484.610382080078

> <b_mmod_Minimization_Converged-OPLS-2005>
0

> <r_mmod_RMS_Derivative-OPLS-2005>
2.42591285705566

$$$$
18
                    3D
 Structure written by MMmdl.
171179  0  0  1  0            999 V2000
  -30.5161  -15.0880   20.3691 C   0  0  0  0  0  0
  -30.4393  -12.6774   19.5198 C   0  0  0  0  0  0
  -29.5330  -12.5578   18.2719 C   0  0  0  0  0  0
  -28.0713  -12.3161   18.6885 C   0  0  0  0  0  0
  -27.6255  -13.2670   19.8299 C   0  0  2  0  0  0
  -28.6641  -13.3742   20.9685 C   0  0  0  0  0  0
  -25.2458  -13.8258   20.5715 C   0  0  0  0  0  0
  -24.1793  -13.0459   20.9238 C   0  0  0  0  0  0
  -24.6437  -11.6942   20.8757 C   0  0  0  0  0  0
  -23.9126  -10.4300   21.0416 C   0  0  0  0  0  0
  -24.3663   -9.4217   21.9189 C   0  0  0  0  0  0
  -23.6326   -8.2252   22.0744 C   0  0  0  0  0  0
  -22.4302   -8.0309   21.3546 C   0  0  0  0  0  0
  -21.9960   -9.0293   20.4650 C   0  0  0  0  0  0
  -22.7300  -10.2162   20.3058 C   0  0  0  0  0  0
  -21.6855   -6.0764   22.5280 C   0  0  0  0  0  0
  -21.4022   -6.5650   23.8234 C   0  0  0  0  0  0
  -21.3650   -5.6787   24.9176 C   0  0  0  0  0  0
  -21.6037   -4.3048   24.7213 C   0  0  0  0  0  0
  -21.8818   -3.8163   23.4329 C   0  0  0  0  0  0
  -21.9197   -4.6990   22.3395 C   0  0  0  0  0  0
  -22.7803  -13.5224   21.1871 C   0  0  0  0  0  0
  -22.1666   -4.2184   21.0964 F   0  0  0  0  0  0
  -21.5616   -3.4522   25.7722 F   0  0  0  0  0  0
  -29.9258  -13.8102   20.3575 N   0  0  0  0  0  0
  -26.2894  -12.9519   20.3223 N   0  0  0  0  0  0
  -25.9385  -11.6632   20.5748 N   0  0  0  0  0  0
  -22.0418  -12.8231   22.0414 N   0  0  0  0  0  0
  -25.4127  -15.1986   20.4150 N   0  0  0  0  0  0
  -31.7242  -15.1063   20.1003 O   0  0  0  0  0  0
  -21.6639   -6.8919   21.4259 O   0  0  0  0  0  0
  -22.3494  -14.5528   20.6709 O   0  0  0  0  0  0
  -24.6549  -31.8325   23.1800 C   0  0  0  0  0  0
  -25.9277  -32.4628   23.8228 C   0  0  1  0  0  0
  -27.2236  -27.0235   20.1711 C   0  0  0  0  0  0
  -25.5989  -33.8434   24.2150 N   0  0  0  0  0  0
  -23.4648  -30.4488   21.5252 C   0  0  2  0  0  0
  -24.9190  -28.8495   20.1175 C   0  0  0  0  0  0
  -22.7620  -29.4494   22.4805 C   0  0  0  0  0  0
  -18.0308  -28.1405   22.8454 C   0  0  0  0  0  0
  -24.1494  -36.7215   23.2640 C   0  0  0  0  0  0
  -26.0293  -30.6689   21.3978 C   0  0  0  0  0  0
  -26.1002  -29.2661   20.7456 C   0  0  0  0  0  0
  -27.2500  -28.3713   20.7535 C   0  0  0  0  0  0
  -26.0165  -26.7398   19.4952 C   0  0  0  0  0  0
  -24.8962  -27.6031   19.4751 C   0  0  0  0  0  0
  -23.7023  -29.7671   20.1505 C   0  0  0  0  0  0
  -25.4122  -36.2984   24.0318 C   0  0  1  0  0  0
  -20.5932  -28.3746   23.1191 C   0  0  2  0  0  0
  -20.6789  -26.9436   22.5391 C   0  0  0  0  0  0
  -19.5764  -26.6381   21.5195 C   0  0  0  0  0  0
  -18.1942  -26.7942   22.1603 C   0  0  0  0  0  0
  -19.1573  -28.8892   23.2812 C   0  0  0  0  0  0
  -18.9489  -30.1483   23.8839 C   0  0  0  0  0  0
  -17.6482  -30.6595   24.0546 C   0  0  0  0  0  0
  -25.9082  -34.9370   23.5045 C   0  0  0  0  0  0
  -16.5370  -29.9083   23.6343 C   0  0  0  0  0  0
  -16.7294  -28.6505   23.0349 C   0  0  0  0  0  0
  -26.4566  -31.6527   25.0710 C   0  0  0  0  0  0
  -25.3740  -31.3750   26.1409 C   0  0  0  0  0  0
  -27.0439  -30.2897   24.6387 C   0  0  0  0  0  0
  -27.6090  -32.4308   25.7485 C   0  0  0  0  0  0
  -27.5580  -37.1750   24.8458 C   0  0  0  0  0  0
  -21.4303  -29.3058   22.3551 N   0  0  0  0  0  0
  -26.4264  -37.3720   23.9431 N   0  0  0  0  0  0
  -24.7368  -31.0076   22.0888 N   0  0  0  0  0  0
  -23.4203  -28.8039   23.3000 O   0  0  0  0  0  0
  -28.2583  -25.9790   20.1830 O   0  0  0  0  0  0
  -26.5656  -34.8888   22.4614 O   0  0  0  0  0  0
  -23.5644  -32.1251   23.6943 O   0  0  0  0  0  0
  -28.1388  -20.0469   19.8306 C   0  0  0  0  0  0
  -27.6708  -21.5631   20.2377 C   0  0  0  0  0  0
  -29.5075  -19.4535   20.3951 C   0  0  2  0  0  0
  -28.6265  -22.8405   20.0279 C   0  0  1  0  0  0
  -30.4264  -20.8063   20.1090 C   0  0  1  0  0  0
  -32.0140  -22.1055   18.5471 C   0  0  0  0  0  0
  -31.4699  -19.7612   17.9180 C   0  0  0  0  0  0
  -31.2007  -23.8268   21.9929 C   0  0  0  0  0  0
  -30.7645  -21.5306   22.9477 C   0  0  0  0  0  0
  -30.1070  -17.8430   19.9916 C   0  0  0  0  0  0
  -27.9812  -24.4235   20.4827 C   0  0  0  0  0  0
  -30.9237  -21.0091   18.6305 C   0  0  0  0  0  0
  -30.2320  -22.6329   22.0077 C   0  0  0  0  0  0
  -29.7684  -16.3281   20.4587 N   0  0  0  0  0  0
  -29.9318  -22.2309   20.5960 N   0  3  2  0  0  0
  -31.4717  -12.8371   19.2073 H   0  0  0  0  0  0
  -30.4477  -11.7458   20.0888 H   0  0  0  0  0  0
  -29.8852  -11.7557   17.6228 H   0  0  0  0  0  0
  -29.5991  -13.4780   17.6873 H   0  0  0  0  0  0
  -27.9898  -11.2807   19.0229 H   0  0  0  0  0  0
  -27.4072  -12.4136   17.8285 H   0  0  0  0  0  0
  -27.5659  -14.2530   19.3659 H   0  0  0  0  0  0
  -28.7793  -12.4308   21.5027 H   0  0  0  0  0  0
  -28.3381  -14.1062   21.7087 H   0  0  0  0  0  0
  -25.2806   -9.5704   22.4775 H   0  0  0  0  0  0
  -24.0045   -7.4643   22.7464 H   0  0  0  0  0  0
  -21.0884   -8.8852   19.8955 H   0  0  0  0  0  0
  -22.3787  -10.9718   19.6171 H   0  0  0  0  0  0
  -21.2030   -7.6164   23.9758 H   0  0  0  0  0  0
  -21.1450   -6.0490   25.9083 H   0  0  0  0  0  0
  -22.0608   -2.7635   23.2791 H   0  0  0  0  0  0
  -22.4010  -11.9899   22.4832 H   0  0  0  0  0  0
  -21.1051  -13.1318   22.2599 H   0  0  0  0  0  0
  -24.6431  -15.8517   20.5171 H   0  0  0  0  0  0
  -26.2612  -15.6377   20.0799 H   0  0  0  0  0  0
  -26.7338  -32.5207   23.0936 H   0  0  0  0  0  0
  -25.0199  -33.9522   25.0348 H   0  0  0  0  0  0
  -22.7735  -31.2781   21.3580 H   0  0  0  0  0  0
  -23.3789  -35.9514   23.3232 H   0  0  0  0  0  0
  -24.3597  -36.8918   22.2073 H   0  0  0  0  0  0
  -23.7206  -37.6369   23.6718 H   0  0  0  0  0  0
  -26.1945  -31.4118   20.6160 H   0  0  0  0  0  0
  -26.8951  -30.7273   22.0468 H   0  0  0  0  0  0
  -28.1453  -28.6856   21.2716 H   0  0  0  0  0  0
  -25.9142  -25.7989   18.9754 H   0  0  0  0  0  0
  -24.0009  -27.2810   18.9609 H   0  0  0  0  0  0
  -23.8563  -30.5355   19.3917 H   0  0  0  0  0  0
  -22.8149  -29.2160   19.8317 H   0  0  0  0  0  0
  -25.1304  -36.1783   25.0807 H   0  0  0  0  0  0
  -21.0017  -28.3355   24.1314 H   0  0  0  0  0  0
  -20.5655  -26.2371   23.3626 H   0  0  0  0  0  0
  -21.6655  -26.7408   22.1207 H   0  0  0  0  0  0
  -19.6925  -25.6273   21.1262 H   0  0  0  0  0  0
  -19.6714  -27.3159   20.6697 H   0  0  0  0  0  0
  -17.4215  -26.6682   21.3999 H   0  0  0  0  0  0
  -18.0345  -26.0092   22.9011 H   0  0  0  0  0  0
  -19.7962  -30.7313   24.2184 H   0  0  0  0  0  0
  -17.5037  -31.6271   24.5161 H   0  0  0  0  0  0
  -15.5363  -30.2963   23.7703 H   0  0  0  0  0  0
  -15.8696  -28.0813   22.7081 H   0  0  0  0  0  0
  -24.5912  -30.7097   25.7743 H   0  0  0  0  0  0
  -24.8944  -32.2945   26.4770 H   0  0  0  0  0  0
  -25.8028  -30.8964   27.0223 H   0  0  0  0  0  0
  -26.3090  -29.6589   24.1376 H   0  0  0  0  0  0
  -27.3972  -29.7233   25.5012 H   0  0  0  0  0  0
  -27.9034  -30.4081   23.9786 H   0  0  0  0  0  0
  -27.2692  -33.3655   26.1954 H   0  0  0  0  0  0
  -28.3944  -32.6787   25.0332 H   0  0  0  0  0  0
  -28.0712  -31.8503   26.5476 H   0  0  0  0  0  0
  -28.2529  -38.0114   24.7558 H   0  0  0  0  0  0
  -28.1132  -36.2630   24.6184 H   0  0  0  0  0  0
  -27.2310  -37.1287   25.8864 H   0  0  0  0  0  0
  -20.9535  -29.8789   21.6732 H   0  0  0  0  0  0
  -26.0117  -38.2774   24.1474 H   0  0  0  0  0  0
  -28.1686  -19.9907   18.7420 H   0  0  0  0  0  0
  -27.3418  -19.3607   20.1196 H   0  0  0  0  0  0
  -27.3983  -21.5390   21.2950 H   0  0  0  0  0  0
  -26.7315  -21.7677   19.7225 H   0  0  0  0  0  0
  -29.3769  -19.3993   21.4724 H   0  0  0  0  0  0
  -28.7740  -22.9173   18.9514 H   0  0  0  0  0  0
  -31.3591  -20.5988   20.6285 H   0  0  0  0  0  0
  -31.6755  -23.0821   18.8883 H   0  0  0  0  0  0
  -32.3437  -22.2508   17.5172 H   0  0  0  0  0  0
  -32.8987  -21.8375   19.1280 H   0  0  0  0  0  0
  -30.6598  -19.1399   17.5429 H   0  0  0  0  0  0
  -32.1231  -19.1707   18.5568 H   0  0  0  0  0  0
  -32.0529  -20.0215   17.0342 H   0  0  0  0  0  0
  -31.4198  -24.1642   23.0054 H   0  0  0  0  0  0
  -30.7907  -24.6810   21.4527 H   0  0  0  0  0  0
  -32.1541  -23.5659   21.5293 H   0  0  0  0  0  0
  -30.8756  -21.9250   23.9575 H   0  0  0  0  0  0
  -31.7476  -21.1596   22.6582 H   0  0  0  0  0  0
  -30.0776  -20.6924   23.0329 H   0  0  0  0  0  0
  -31.1867  -17.8924   20.1318 H   0  0  0  0  0  0
  -29.9621  -17.7424   18.9192 H   0  0  0  0  0  0
  -27.8662  -24.3965   21.5656 H   0  0  0  0  0  0
  -26.9534  -24.3136   20.1444 H   0  0  0  0  0  0
  -30.0864  -21.3463   18.0201 H   0  0  0  0  0  0
  -29.3031  -22.9622   22.4716 H   0  0  0  0  0  0
  -28.7990  -16.1858   20.6997 H   0  0  0  0  0  0
  -30.6186  -22.7956   20.1170 H   0  0  0  0  0  0
  1 25  1  0  0  0
  1 30  2  0  0  0
  1 84  1  0  0  0
  2  3  1  0  0  0
  2 25  1  0  0  0
  2 86  1  0  0  0
  2 87  1  0  0  0
  3  4  1  0  0  0
  3 88  1  0  0  0
  3 89  1  0  0  0
  4  5  1  0  0  0
  4 90  1  0  0  0
  4 91  1  0  0  0
  5  6  1  0  0  0
  5 26  1  0  0  0
  5 92  1  0  0  0
  6 25  1  0  0  0
  6 93  1  0  0  0
  6 94  1  0  0  0
  7  8  2  0  0  0
  7 26  1  0  0  0
  7 29  1  0  0  0
  8  9  1  0  0  0
  8 22  1  0  0  0
  9 10  1  0  0  0
  9 27  2  0  0  0
 10 11  2  0  0  0
 10 15  1  0  0  0
 11 12  1  0  0  0
 11 95  1  0  0  0
 12 13  2  0  0  0
 12 96  1  0  0  0
 13 14  1  0  0  0
 13 31  1  0  0  0
 14 15  2  0  0  0
 14 97  1  0  0  0
 15 98  1  0  0  0
 16 17  2  0  0  0
 16 21  1  0  0  0
 16 31  1  0  0  0
 17 18  1  0  0  0
 17 99  1  0  0  0
 18 19  2  0  0  0
 18100  1  0  0  0
 19 20  1  0  0  0
 19 24  1  0  0  0
 20 21  2  0  0  0
 20101  1  0  0  0
 21 23  1  0  0  0
 22 28  1  0  0  0
 22 32  2  0  0  0
 26 27  1  0  0  0
 28102  1  0  0  0
 28103  1  0  0  0
 29104  1  0  0  0
 29105  1  0  0  0
 33 34  1  0  0  0
 33 66  1  0  0  0
 33 70  2  0  0  0
 34 36  1  0  0  0
 34 59  1  0  0  0
 34106  1  0  0  0
 35 44  2  0  0  0
 35 45  1  0  0  0
 35 68  1  0  0  0
 36 56  1  0  0  0
 36107  1  0  0  0
 37 39  1  0  0  0
 37 47  1  0  0  0
 37 66  1  0  0  0
 37108  1  0  0  0
 38 43  2  0  0  0
 38 46  1  0  0  0
 38 47  1  0  0  0
 39 64  1  0  0  0
 39 67  2  0  0  0
 40 52  1  0  0  0
 40 53  2  0  0  0
 40 58  1  0  0  0
 41109  1  0  0  0
 41110  1  0  0  0
 41111  1  0  0  0
 41 48  1  0  0  0
 42 43  1  0  0  0
 42 66  1  0  0  0
 42112  1  0  0  0
 42113  1  0  0  0
 43 44  1  0  0  0
 44114  1  0  0  0
 45 46  2  0  0  0
 45115  1  0  0  0
 46116  1  0  0  0
 47117  1  0  0  0
 47118  1  0  0  0
 48 56  1  0  0  0
 48 65  1  0  0  0
 48119  1  0  0  0
 49 50  1  0  0  0
 49 53  1  0  0  0
 49 64  1  0  0  0
 49120  1  0  0  0
 50 51  1  0  0  0
 50121  1  0  0  0
 50122  1  0  0  0
 51 52  1  0  0  0
 51123  1  0  0  0
 51124  1  0  0  0
 52125  1  0  0  0
 52126  1  0  0  0
 53 54  1  0  0  0
 54 55  2  0  0  0
 54127  1  0  0  0
 55 57  1  0  0  0
 55128  1  0  0  0
 56 69  2  0  0  0
 57 58  2  0  0  0
 57129  1  0  0  0
 58130  1  0  0  0
 59 60  1  0  0  0
 59 61  1  0  0  0
 59 62  1  0  0  0
 60131  1  0  0  0
 60132  1  0  0  0
 60133  1  0  0  0
 61134  1  0  0  0
 61135  1  0  0  0
 61136  1  0  0  0
 62137  1  0  0  0
 62138  1  0  0  0
 62139  1  0  0  0
 63 65  1  0  0  0
 63140  1  0  0  0
 63141  1  0  0  0
 63142  1  0  0  0
 64143  1  0  0  0
 65144  1  0  0  0
 68 81  1  0  0  0
 71 72  1  0  0  0
 71 73  1  0  0  0
 71145  1  0  0  0
 71146  1  0  0  0
 72 74  1  0  0  0
 72147  1  0  0  0
 72148  1  0  0  0
 73 75  1  0  0  0
 73 80  1  0  0  0
 73149  1  0  0  0
 74 81  1  0  0  0
 74 85  1  0  0  0
 74150  1  0  0  0
 75 82  1  0  0  0
 75 85  1  0  0  0
 75151  1  0  0  0
 76152  1  0  0  0
 76153  1  0  0  0
 76154  1  0  0  0
 76 82  1  0  0  0
 77 82  1  0  0  0
 77155  1  0  0  0
 77156  1  0  0  0
 77157  1  0  0  0
 78158  1  0  0  0
 78159  1  0  0  0
 78160  1  0  0  0
 78 83  1  0  0  0
 79 83  1  0  0  0
 79161  1  0  0  0
 79162  1  0  0  0
 79163  1  0  0  0
 80 84  1  0  0  0
 80164  1  0  0  0
 80165  1  0  0  0
 81166  1  0  0  0
 81167  1  0  0  0
 82168  1  0  0  0
 83169  1  0  0  0
 83 85  1  0  0  0
 84170  1  0  0  0
 85171  1  0  0  0
M  CHG  1  85   1
M  ISO  4   1 100  68 101  81 101  84 100
M  END
> <chiral flag>
0

> <version>
0

> <s_m_source_file>
/data/baiqing/PycharmProjects/Reinvent-master-3.2/result/LINK_invent/BTK/process_docking_weight1_custom_sum_contain_oxygen_bond_distance_aromatic_linkinvent_7_9_3/rearranged_h_0113.sdf

> <i_m_source_file_index>
18

> <r_mmod_Potential_Energy-OPLS-2005>
976.262084960938

> <r_mmod_Stretch_Energy-OPLS-2005>
411.757415771484

> <r_mmod_Bend_Energy-OPLS-2005>
438.039306640625

> <r_mmod_Torsional_Energy-OPLS-2005>
313.212677001953

> <r_mmod_Improper_Torsional_Energy-OPLS-2005>
4.91495847702026

> <r_mmod_Van_der_Waal_Energy-OPLS-2005>
123.155693054199

> <r_mmod_Electrostatic_Energy-OPLS-2005>
-209.342987060547

> <r_mmod_Solvation_Energy-OPLS-2005>
-407.892700195312

> <b_mmod_Minimization_Converged-OPLS-2005>
0

> <r_mmod_RMS_Derivative-OPLS-2005>
3.11666345596313

$$$$
19
                    3D
 Structure written by MMmdl.
172181  0  0  1  0            999 V2000
  -30.6923  -14.5175   20.5572 C   0  0  0  0  0  0
  -30.4155  -12.3302   19.4659 C   0  0  0  0  0  0
  -29.5083  -12.4887   18.2307 C   0  0  0  0  0  0
  -28.0237  -12.3524   18.6204 C   0  0  0  0  0  0
  -27.6459  -13.2183   19.8529 C   0  0  2  0  0  0
  -28.6758  -13.0569   20.9931 C   0  0  0  0  0  0
  -25.2513  -13.8203   20.5626 C   0  0  0  0  0  0
  -24.1774  -13.0447   20.9166 C   0  0  0  0  0  0
  -24.6352  -11.6938   20.8715 C   0  0  0  0  0  0
  -23.9039  -10.4313   21.0384 C   0  0  0  0  0  0
  -24.3606   -9.4231   21.9164 C   0  0  0  0  0  0
  -23.6303   -8.2257   22.0728 C   0  0  0  0  0  0
  -22.4289   -8.0281   21.3532 C   0  0  0  0  0  0
  -21.9921   -9.0236   20.4640 C   0  0  0  0  0  0
  -22.7215  -10.2124   20.3024 C   0  0  0  0  0  0
  -21.6851   -6.0743   22.5271 C   0  0  0  0  0  0
  -21.4036   -6.5646   23.8208 C   0  0  0  0  0  0
  -21.3652   -5.6791   24.9171 C   0  0  0  0  0  0
  -21.6023   -4.3044   24.7214 C   0  0  0  0  0  0
  -21.8830   -3.8149   23.4338 C   0  0  0  0  0  0
  -21.9212   -4.6985   22.3402 C   0  0  0  0  0  0
  -22.7812  -13.5241   21.1831 C   0  0  0  0  0  0
  -22.1653   -4.2164   21.0980 F   0  0  0  0  0  0
  -21.5629   -3.4520   25.7730 F   0  0  0  0  0  0
  -30.0042  -13.3521   20.4463 N   0  0  0  0  0  0
  -26.2910  -12.9363   20.3177 N   0  0  0  0  0  0
  -25.9261  -11.6520   20.5691 N   0  0  0  0  0  0
  -22.0441  -12.8247   22.0411 N   0  0  0  0  0  0
  -25.4241  -15.1930   20.4081 N   0  0  0  0  0  0
  -31.8655  -14.6026   20.1818 O   0  0  0  0  0  0
  -21.6635   -6.8879   21.4226 O   0  0  0  0  0  0
  -22.3498  -14.5540   20.6681 O   0  0  0  0  0  0
  -24.6243  -31.8548   23.1952 C   0  0  0  0  0  0
  -25.9107  -32.4719   23.8242 C   0  0  1  0  0  0
  -27.2196  -27.3575   20.1043 C   0  0  0  0  0  0
  -25.5943  -33.8504   24.2170 N   0  0  0  0  0  0
  -23.4168  -30.4743   21.5408 C   0  0  2  0  0  0
  -24.8530  -28.9247   20.1170 C   0  0  0  0  0  0
  -22.7471  -29.4590   22.4955 C   0  0  0  0  0  0
  -18.0280  -28.1392   22.8466 C   0  0  0  0  0  0
  -24.1507  -36.7299   23.2628 C   0  0  0  0  0  0
  -25.9520  -30.7934   21.3599 C   0  0  0  0  0  0
  -26.0196  -29.4236   20.7078 C   0  0  0  0  0  0
  -27.2034  -28.6484   20.6932 C   0  0  0  0  0  0
  -26.0287  -26.8835   19.5037 C   0  0  0  0  0  0
  -24.8536  -27.6566   19.5140 C   0  0  0  0  0  0
  -23.6243  -29.8000   20.1607 C   0  0  0  0  0  0
  -25.4138  -36.3031   24.0278 C   0  0  1  0  0  0
  -20.5878  -28.3664   23.1311 C   0  0  2  0  0  0
  -20.6785  -26.9400   22.5424 C   0  0  0  0  0  0
  -19.5760  -26.6385   21.5235 C   0  0  0  0  0  0
  -18.1929  -26.7933   22.1628 C   0  0  0  0  0  0
  -19.1531  -28.8857   23.2871 C   0  0  0  0  0  0
  -18.9463  -30.1469   23.8877 C   0  0  0  0  0  0
  -17.6464  -30.6594   24.0570 C   0  0  0  0  0  0
  -25.9076  -34.9406   23.5034 C   0  0  0  0  0  0
  -16.5355  -29.9082   23.6336 C   0  0  0  0  0  0
  -16.7266  -28.6511   23.0319 C   0  0  0  0  0  0
  -26.4511  -31.6529   25.0618 C   0  0  0  0  0  0
  -25.3772  -31.3707   26.1376 C   0  0  0  0  0  0
  -27.0284  -30.2922   24.6052 C   0  0  0  0  0  0
  -27.6024  -32.4276   25.7448 C   0  0  0  0  0  0
  -27.5570  -37.1787   24.8443 C   0  0  0  0  0  0
  -21.4191  -29.3016   22.3722 N   0  0  0  0  0  0
  -26.4295  -37.3742   23.9378 N   0  0  0  0  0  0
  -24.6846  -31.0556   22.0900 N   0  0  0  0  0  0
  -23.4200  -28.8184   23.3069 O   0  0  0  0  0  0
  -28.3897  -26.6107   20.1475 O   0  0  0  0  0  0
  -26.5634  -34.8909   22.4587 O   0  0  0  0  0  0
  -23.5414  -32.1380   23.7255 O   0  0  0  0  0  0
  -31.7436  -21.1696   18.9243 C   0  0  0  0  0  0
  -30.6058  -20.8070   19.5996 C   0  0  0  0  0  0
  -32.4458  -19.9728   18.6584 C   0  0  0  0  0  0
  -29.5270  -22.2311   21.5241 C   0  0  0  0  0  0
  -28.2069  -21.8204   19.3985 C   0  0  0  0  0  0
  -28.9006  -23.6477   21.7426 C   0  0  0  0  0  0
  -27.2441  -22.9097   19.9486 C   0  0  0  0  0  0
  -29.6014  -21.8643   20.0344 C   0  0  2  0  0  0
  -27.8890  -24.1323   20.6601 C   0  0  2  0  0  0
  -34.7533  -19.0068   18.9294 C   0  0  0  0  0  0
  -34.4106  -21.0676   17.5235 C   0  0  0  0  0  0
  -28.4216  -25.2337   19.6757 C   0  0  0  0  0  0
  -29.8332  -18.3497   20.4240 C   0  0  0  0  0  0
  -30.5993  -16.9602   20.4584 C   0  0  0  0  0  0
  -33.7835  -19.7454   17.9887 C   0  0  0  0  0  0
  -31.7614  -18.9436   19.0921 N   0  0  0  0  0  0
  -30.6615  -19.3986   19.7522 N   0  0  0  0  0  0
  -30.0004  -15.6537   20.8523 N   0  0  0  0  0  0
  -31.4611  -12.4246   19.1722 H   0  0  0  0  0  0
  -30.3206  -11.3347   19.9008 H   0  0  0  0  0  0
  -29.7652  -11.7410   17.4760 H   0  0  0  0  0  0
  -29.6821  -13.4648   17.7717 H   0  0  0  0  0  0
  -27.8362  -11.2986   18.8349 H   0  0  0  0  0  0
  -27.3883  -12.5943   17.7655 H   0  0  0  0  0  0
  -27.6721  -14.2570   19.5207 H   0  0  0  0  0  0
  -28.6540  -12.0337   21.3750 H   0  0  0  0  0  0
  -28.4275  -13.7027   21.8362 H   0  0  0  0  0  0
  -25.2740   -9.5731   22.4729 H   0  0  0  0  0  0
  -24.0020   -7.4669   22.7444 H   0  0  0  0  0  0
  -21.0839   -8.8732   19.8977 H   0  0  0  0  0  0
  -22.3638  -10.9639   19.6139 H   0  0  0  0  0  0
  -21.1997   -7.6140   23.9723 H   0  0  0  0  0  0
  -21.1467   -6.0503   25.9072 H   0  0  0  0  0  0
  -22.0620   -2.7607   23.2819 H   0  0  0  0  0  0
  -22.4049  -11.9930   22.4829 H   0  0  0  0  0  0
  -21.1053  -13.1277   22.2583 H   0  0  0  0  0  0
  -24.6613  -15.8541   20.5119 H   0  0  0  0  0  0
  -26.2796  -15.6265   20.0809 H   0  0  0  0  0  0
  -26.7157  -32.5418   23.0958 H   0  0  0  0  0  0
  -25.0064  -33.9599   25.0288 H   0  0  0  0  0  0
  -22.7099  -31.2922   21.3896 H   0  0  0  0  0  0
  -23.3731  -35.9677   23.3303 H   0  0  0  0  0  0
  -24.3607  -36.8925   22.2051 H   0  0  0  0  0  0
  -23.7323  -37.6510   23.6681 H   0  0  0  0  0  0
  -26.0845  -31.5463   20.5813 H   0  0  0  0  0  0
  -26.8328  -30.8326   21.9887 H   0  0  0  0  0  0
  -28.1077  -29.0239   21.1492 H   0  0  0  0  0  0
  -25.9720  -25.9148   19.0289 H   0  0  0  0  0  0
  -23.9524  -27.2686   19.0602 H   0  0  0  0  0  0
  -23.7418  -30.5668   19.3932 H   0  0  0  0  0  0
  -22.7496  -29.2160   19.8699 H   0  0  0  0  0  0
  -25.1333  -36.1830   25.0765 H   0  0  0  0  0  0
  -20.9927  -28.3236   24.1439 H   0  0  0  0  0  0
  -20.5752  -26.2263   23.3604 H   0  0  0  0  0  0
  -21.6643  -26.7462   22.1186 H   0  0  0  0  0  0
  -19.6955  -25.6309   21.1232 H   0  0  0  0  0  0
  -19.6727  -27.3223   20.6795 H   0  0  0  0  0  0
  -17.4216  -26.6661   21.4016 H   0  0  0  0  0  0
  -18.0323  -26.0088   22.9038 H   0  0  0  0  0  0
  -19.7947  -30.7293   24.2211 H   0  0  0  0  0  0
  -17.5016  -31.6264   24.5190 H   0  0  0  0  0  0
  -15.5349  -30.2979   23.7680 H   0  0  0  0  0  0
  -15.8661  -28.0855   22.6979 H   0  0  0  0  0  0
  -24.5921  -30.7041   25.7775 H   0  0  0  0  0  0
  -24.9008  -32.2890   26.4799 H   0  0  0  0  0  0
  -25.8138  -30.8928   27.0149 H   0  0  0  0  0  0
  -26.2771  -29.6717   24.1137 H   0  0  0  0  0  0
  -27.4016  -29.7133   25.4502 H   0  0  0  0  0  0
  -27.8658  -30.4139   23.9187 H   0  0  0  0  0  0
  -27.2532  -33.3546   26.2008 H   0  0  0  0  0  0
  -28.3882  -32.6865   25.0346 H   0  0  0  0  0  0
  -28.0633  -31.8426   26.5410 H   0  0  0  0  0  0
  -28.2561  -38.0107   24.7470 H   0  0  0  0  0  0
  -28.1079  -36.2608   24.6281 H   0  0  0  0  0  0
  -27.2278  -37.1463   25.8847 H   0  0  0  0  0  0
  -20.9389  -29.8665   21.6861 H   0  0  0  0  0  0
  -26.0157  -38.2798   24.1388 H   0  0  0  0  0  0
  -32.0380  -22.1748   18.6539 H   0  0  0  0  0  0
  -28.9659  -21.4612   22.0598 H   0  0  0  0  0  0
  -30.5330  -22.2438   21.9513 H   0  0  0  0  0  0
  -28.3039  -21.9511   18.3223 H   0  0  0  0  0  0
  -27.7644  -20.8379   19.5477 H   0  0  0  0  0  0
  -28.3985  -23.6322   22.7106 H   0  0  0  0  0  0
  -29.6869  -24.3946   21.8504 H   0  0  0  0  0  0
  -26.6022  -22.4306   20.6881 H   0  0  0  0  0  0
  -26.5674  -23.2316   19.1587 H   0  0  0  0  0  0
  -30.0233  -22.7695   19.5969 H   0  0  0  0  0  0
  -27.0682  -24.6148   21.1909 H   0  0  0  0  0  0
  -34.3716  -18.0213   19.1978 H   0  0  0  0  0  0
  -34.9015  -19.5659   19.8522 H   0  0  0  0  0  0
  -35.7287  -18.8657   18.4592 H   0  0  0  0  0  0
  -35.3614  -20.8959   17.0158 H   0  0  0  0  0  0
  -34.6095  -21.7121   18.3821 H   0  0  0  0  0  0
  -33.7505  -21.6017   16.8364 H   0  0  0  0  0  0
  -29.4549  -25.0085   19.4244 H   0  0  0  0  0  0
  -27.9142  -25.1566   18.7155 H   0  0  0  0  0  0
  -29.6183  -18.6861   21.4373 H   0  0  0  0  0  0
  -28.8768  -18.2684   19.9064 H   0  0  0  0  0  0
  -30.8861  -16.7634   19.4248 H   0  0  0  0  0  0
  -31.5228  -17.1003   21.0256 H   0  0  0  0  0  0
  -33.6396  -19.1135   17.1107 H   0  0  0  0  0  0
  -29.0357  -15.5919   21.1396 H   0  0  0  0  0  0
  1 25  1  0  0  0
  1 30  2  0  0  0
  1 88  1  0  0  0
  2  3  1  0  0  0
  2 25  1  0  0  0
  2 89  1  0  0  0
  2 90  1  0  0  0
  3  4  1  0  0  0
  3 91  1  0  0  0
  3 92  1  0  0  0
  4  5  1  0  0  0
  4 93  1  0  0  0
  4 94  1  0  0  0
  5  6  1  0  0  0
  5 26  1  0  0  0
  5 95  1  0  0  0
  6 25  1  0  0  0
  6 96  1  0  0  0
  6 97  1  0  0  0
  7  8  2  0  0  0
  7 26  1  0  0  0
  7 29  1  0  0  0
  8  9  1  0  0  0
  8 22  1  0  0  0
  9 10  1  0  0  0
  9 27  2  0  0  0
 10 11  2  0  0  0
 10 15  1  0  0  0
 11 12  1  0  0  0
 11 98  1  0  0  0
 12 13  2  0  0  0
 12 99  1  0  0  0
 13 14  1  0  0  0
 13 31  1  0  0  0
 14 15  2  0  0  0
 14100  1  0  0  0
 15101  1  0  0  0
 16 17  2  0  0  0
 16 21  1  0  0  0
 16 31  1  0  0  0
 17 18  1  0  0  0
 17102  1  0  0  0
 18 19  2  0  0  0
 18103  1  0  0  0
 19 20  1  0  0  0
 19 24  1  0  0  0
 20 21  2  0  0  0
 20104  1  0  0  0
 21 23  1  0  0  0
 22 28  1  0  0  0
 22 32  2  0  0  0
 26 27  1  0  0  0
 28105  1  0  0  0
 28106  1  0  0  0
 29107  1  0  0  0
 29108  1  0  0  0
 33 34  1  0  0  0
 33 66  1  0  0  0
 33 70  2  0  0  0
 34 36  1  0  0  0
 34 59  1  0  0  0
 34109  1  0  0  0
 35 44  2  0  0  0
 35 45  1  0  0  0
 35 68  1  0  0  0
 36 56  1  0  0  0
 36110  1  0  0  0
 37 39  1  0  0  0
 37 47  1  0  0  0
 37 66  1  0  0  0
 37111  1  0  0  0
 38 43  2  0  0  0
 38 46  1  0  0  0
 38 47  1  0  0  0
 39 64  1  0  0  0
 39 67  2  0  0  0
 40 52  1  0  0  0
 40 53  2  0  0  0
 40 58  1  0  0  0
 41112  1  0  0  0
 41113  1  0  0  0
 41114  1  0  0  0
 41 48  1  0  0  0
 42 43  1  0  0  0
 42 66  1  0  0  0
 42115  1  0  0  0
 42116  1  0  0  0
 43 44  1  0  0  0
 44117  1  0  0  0
 45 46  2  0  0  0
 45118  1  0  0  0
 46119  1  0  0  0
 47120  1  0  0  0
 47121  1  0  0  0
 48 56  1  0  0  0
 48 65  1  0  0  0
 48122  1  0  0  0
 49 50  1  0  0  0
 49 53  1  0  0  0
 49 64  1  0  0  0
 49123  1  0  0  0
 50 51  1  0  0  0
 50124  1  0  0  0
 50125  1  0  0  0
 51 52  1  0  0  0
 51126  1  0  0  0
 51127  1  0  0  0
 52128  1  0  0  0
 52129  1  0  0  0
 53 54  1  0  0  0
 54 55  2  0  0  0
 54130  1  0  0  0
 55 57  1  0  0  0
 55131  1  0  0  0
 56 69  2  0  0  0
 57 58  2  0  0  0
 57132  1  0  0  0
 58133  1  0  0  0
 59 60  1  0  0  0
 59 61  1  0  0  0
 59 62  1  0  0  0
 60134  1  0  0  0
 60135  1  0  0  0
 60136  1  0  0  0
 61137  1  0  0  0
 61138  1  0  0  0
 61139  1  0  0  0
 62140  1  0  0  0
 62141  1  0  0  0
 62142  1  0  0  0
 63 65  1  0  0  0
 63143  1  0  0  0
 63144  1  0  0  0
 63145  1  0  0  0
 64146  1  0  0  0
 65147  1  0  0  0
 68 82  1  0  0  0
 71 72  2  0  0  0
 71 73  1  0  0  0
 71148  1  0  0  0
 72 87  1  0  0  0
 72 78  1  0  0  0
 73 85  1  0  0  0
 73 86  2  0  0  0
 74 76  1  0  0  0
 74 78  1  0  0  0
 74149  1  0  0  0
 74150  1  0  0  0
 75 77  1  0  0  0
 75 78  1  0  0  0
 75151  1  0  0  0
 75152  1  0  0  0
 76 79  1  0  0  0
 76153  1  0  0  0
 76154  1  0  0  0
 77 79  1  0  0  0
 77155  1  0  0  0
 77156  1  0  0  0
 78157  1  0  0  0
 79 82  1  0  0  0
 79158  1  0  0  0
 80159  1  0  0  0
 80160  1  0  0  0
 80161  1  0  0  0
 80 85  1  0  0  0
 81 85  1  0  0  0
 81162  1  0  0  0
 81163  1  0  0  0
 81164  1  0  0  0
 82165  1  0  0  0
 82166  1  0  0  0
 83 84  1  0  0  0
 83 87  1  0  0  0
 83167  1  0  0  0
 83168  1  0  0  0
 84 88  1  0  0  0
 84169  1  0  0  0
 84170  1  0  0  0
 85171  1  0  0  0
 86 87  1  0  0  0
 88172  1  0  0  0
M  ISO  4   1 100  68 101  82 101  88 100
M  END
> <chiral flag>
0

> <version>
0

> <s_m_source_file>
/data/baiqing/PycharmProjects/Reinvent-master-3.2/result/LINK_invent/BTK/process_docking_weight1_custom_sum_contain_oxygen_bond_distance_aromatic_linkinvent_7_9_3/rearranged_h_0113.sdf

> <i_m_source_file_index>
19

> <r_mmod_Potential_Energy-OPLS-2005>
72.3064956665039

> <r_mmod_Stretch_Energy-OPLS-2005>
55.7718887329102

> <r_mmod_Bend_Energy-OPLS-2005>
183.234588623047

> <r_mmod_Torsional_Energy-OPLS-2005>
262.8486328125

> <r_mmod_Improper_Torsional_Energy-OPLS-2005>
6.01748752593994

> <r_mmod_Van_der_Waal_Energy-OPLS-2005>
152.129974365234

> <r_mmod_Electrostatic_Energy-OPLS-2005>
-402.822021484375

> <r_mmod_Solvation_Energy-OPLS-2005>
-213.906112670898

> <b_mmod_Minimization_Converged-OPLS-2005>
0

> <r_mmod_RMS_Derivative-OPLS-2005>
6.43397569656372

$$$$
20
                    3D
 Structure written by MMmdl.
186194  0  0  1  0            999 V2000
  -30.6362  -14.6654   20.4718 C   0  0  0  0  0  0
  -30.4301  -12.4092   19.4483 C   0  0  0  0  0  0
  -29.5001  -12.4787   18.2184 C   0  0  0  0  0  0
  -28.0270  -12.3169   18.6429 C   0  0  0  0  0  0
  -27.6429  -13.2186   19.8461 C   0  0  2  0  0  0
  -28.6903  -13.1259   20.9760 C   0  0  0  0  0  0
  -25.2524  -13.8167   20.5701 C   0  0  0  0  0  0
  -24.1806  -13.0427   20.9216 C   0  0  0  0  0  0
  -24.6381  -11.6906   20.8757 C   0  0  0  0  0  0
  -23.9045  -10.4291   21.0407 C   0  0  0  0  0  0
  -24.3595   -9.4207   21.9188 C   0  0  0  0  0  0
  -23.6284   -8.2239   22.0749 C   0  0  0  0  0  0
  -22.4273   -8.0266   21.3533 C   0  0  0  0  0  0
  -21.9904   -9.0238   20.4632 C   0  0  0  0  0  0
  -22.7224  -10.2125   20.3054 C   0  0  0  0  0  0
  -21.6845   -6.0730   22.5266 C   0  0  0  0  0  0
  -21.4009   -6.5634   23.8200 C   0  0  0  0  0  0
  -21.3658   -5.6788   24.9168 C   0  0  0  0  0  0
  -21.6046   -4.3053   24.7223 C   0  0  0  0  0  0
  -21.8825   -3.8141   23.4344 C   0  0  0  0  0  0
  -21.9196   -4.6956   22.3398 C   0  0  0  0  0  0
  -22.7835  -13.5218   21.1895 C   0  0  0  0  0  0
  -22.1666   -4.2142   21.0975 F   0  0  0  0  0  0
  -21.5633   -3.4540   25.7738 F   0  0  0  0  0  0
  -29.9930  -13.4605   20.3880 N   0  0  0  0  0  0
  -26.2938  -12.9353   20.3273 N   0  0  0  0  0  0
  -25.9301  -11.6508   20.5752 N   0  0  0  0  0  0
  -22.0476  -12.8191   22.0436 N   0  0  0  0  0  0
  -25.4232  -15.1895   20.4123 N   0  0  0  0  0  0
  -31.8251  -14.7718   20.1765 O   0  0  0  0  0  0
  -21.6633   -6.8870   21.4231 O   0  0  0  0  0  0
  -22.3520  -14.5531   20.6755 O   0  0  0  0  0  0
  -24.6292  -31.8549   23.1991 C   0  0  0  0  0  0
  -25.9119  -32.4753   23.8336 C   0  0  1  0  0  0
  -27.2404  -27.3020   20.1136 C   0  0  0  0  0  0
  -25.5920  -33.8546   24.2269 N   0  0  0  0  0  0
  -23.4240  -30.4743   21.5424 C   0  0  2  0  0  0
  -24.8723  -28.9123   20.1199 C   0  0  0  0  0  0
  -22.7487  -29.4596   22.4950 C   0  0  0  0  0  0
  -18.0287  -28.1378   22.8506 C   0  0  0  0  0  0
  -24.1444  -36.7238   23.2660 C   0  0  0  0  0  0
  -25.9655  -30.7747   21.3735 C   0  0  0  0  0  0
  -26.0404  -29.3984   20.7198 C   0  0  0  0  0  0
  -27.2277  -28.6065   20.7019 C   0  0  0  0  0  0
  -26.0484  -26.8591   19.5045 C   0  0  0  0  0  0
  -24.8766  -27.6474   19.5075 C   0  0  0  0  0  0
  -23.6419  -29.7989   20.1622 C   0  0  0  0  0  0
  -25.4083  -36.3054   24.0345 C   0  0  1  0  0  0
  -20.5892  -28.3675   23.1282 C   0  0  2  0  0  0
  -20.6763  -26.9397   22.5415 C   0  0  0  0  0  0
  -19.5729  -26.6368   21.5227 C   0  0  0  0  0  0
  -18.1910  -26.7921   22.1633 C   0  0  0  0  0  0
  -19.1549  -28.8848   23.2876 C   0  0  0  0  0  0
  -18.9483  -30.1458   23.8888 C   0  0  0  0  0  0
  -17.6485  -30.6588   24.0568 C   0  0  0  0  0  0
  -25.9041  -34.9428   23.5111 C   0  0  0  0  0  0
  -16.5367  -29.9090   23.6350 C   0  0  0  0  0  0
  -16.7282  -28.6500   23.0388 C   0  0  0  0  0  0
  -26.4517  -31.6589   25.0723 C   0  0  0  0  0  0
  -25.3745  -31.3682   26.1444 C   0  0  0  0  0  0
  -27.0436  -30.3040   24.6195 C   0  0  0  0  0  0
  -27.6054  -32.4366   25.7484 C   0  0  0  0  0  0
  -27.5540  -37.1763   24.8491 C   0  0  0  0  0  0
  -21.4206  -29.3012   22.3672 N   0  0  0  0  0  0
  -26.4248  -37.3764   23.9448 N   0  0  0  0  0  0
  -24.6911  -31.0531   22.0951 N   0  0  0  0  0  0
  -23.4192  -28.8159   23.3065 O   0  0  0  0  0  0
  -28.3941  -26.4984   20.0659 O   0  0  0  0  0  0
  -26.5624  -34.8907   22.4683 O   0  0  0  0  0  0
  -23.5447  -32.1382   23.7296 O   0  0  0  0  0  0
  -32.3236  -14.5639   24.8836 C   0  0  0  0  0  0
  -33.9740  -15.2750   23.1160 C   0  0  0  0  0  0
  -31.4569  -15.7808   24.5146 C   0  0  0  0  0  0
  -33.0602  -16.4704   22.7857 C   0  0  0  0  0  0
  -33.8119  -14.8110   24.5752 C   0  0  2  0  0  0
  -34.6582  -13.5606   24.8588 C   0  0  0  0  0  0
  -28.2590  -24.7090   17.3873 C   0  0  0  0  0  0
  -30.8281  -20.3749   21.7921 C   0  0  0  0  0  0
  -27.5118  -24.9909   21.8484 C   0  0  0  0  0  0
  -29.1506  -23.9673   18.3949 C   0  0  0  0  0  0
  -29.4242  -18.4358   20.6906 C   0  0  0  0  0  0
  -30.6853  -17.2065   22.6450 C   0  0  0  0  0  0
  -28.8618  -21.1363   20.2740 C   0  0  0  0  0  0
  -29.9486  -19.9743   20.5923 C   0  0  1  0  0  0
  -30.3873  -17.1945   21.1124 C   0  0  1  0  0  0
  -28.5251  -23.7583   19.7973 C   0  0  2  0  0  0
  -28.4847  -25.1283   20.6652 C   0  0  1  0  0  0
  -29.9008  -15.7838   20.8000 N   0  0  0  0  0  0
  -31.6389  -16.1551   23.0888 N   0  3  2  0  0  0
  -29.2805  -22.5989   20.4723 N   0  3  0  0  0  0
  -31.4707  -12.5301   19.1408 H   0  0  0  0  0  0
  -30.3689  -11.4280   19.9224 H   0  0  0  0  0  0
  -29.7662  -11.6990   17.5027 H   0  0  0  0  0  0
  -29.6353  -13.4298   17.7000 H   0  0  0  0  0  0
  -27.8843  -11.2700   18.9142 H   0  0  0  0  0  0
  -27.3634  -12.5032   17.7982 H   0  0  0  0  0  0
  -27.6465  -14.2428   19.4706 H   0  0  0  0  0  0
  -28.7152  -12.1218   21.4022 H   0  0  0  0  0  0
  -28.4377  -13.7973   21.7978 H   0  0  0  0  0  0
  -25.2732   -9.5692   22.4777 H   0  0  0  0  0  0
  -23.9989   -7.4631   22.7474 H   0  0  0  0  0  0
  -21.0838   -8.8746   19.8934 H   0  0  0  0  0  0
  -22.3668  -10.9663   19.6167 H   0  0  0  0  0  0
  -21.1992   -7.6140   23.9702 H   0  0  0  0  0  0
  -21.1475   -6.0520   25.9069 H   0  0  0  0  0  0
  -22.0610   -2.7604   23.2846 H   0  0  0  0  0  0
  -22.4090  -11.9833   22.4793 H   0  0  0  0  0  0
  -21.1092  -13.1199   22.2660 H   0  0  0  0  0  0
  -24.6509  -15.8375   20.5211 H   0  0  0  0  0  0
  -26.2595  -15.6290   20.0503 H   0  0  0  0  0  0
  -26.7187  -32.5421   23.1081 H   0  0  0  0  0  0
  -25.0081  -33.9682   25.0423 H   0  0  0  0  0  0
  -22.7184  -31.2943   21.3920 H   0  0  0  0  0  0
  -23.3723  -35.9548   23.3343 H   0  0  0  0  0  0
  -24.3517  -36.8852   22.2069 H   0  0  0  0  0  0
  -23.7175  -37.6424   23.6689 H   0  0  0  0  0  0
  -26.1000  -31.5311   20.5996 H   0  0  0  0  0  0
  -26.8444  -30.8265   22.0050 H   0  0  0  0  0  0
  -28.1308  -28.9827   21.1601 H   0  0  0  0  0  0
  -26.0204  -25.8928   19.0211 H   0  0  0  0  0  0
  -23.9797  -27.2680   19.0383 H   0  0  0  0  0  0
  -23.7705  -30.5709   19.4028 H   0  0  0  0  0  0
  -22.7592  -29.2333   19.8587 H   0  0  0  0  0  0
  -25.1253  -36.1885   25.0834 H   0  0  0  0  0  0
  -20.9986  -28.3248   24.1401 H   0  0  0  0  0  0
  -20.5671  -26.2284   23.3619 H   0  0  0  0  0  0
  -21.6625  -26.7407   22.1204 H   0  0  0  0  0  0
  -19.6870  -25.6277   21.1261 H   0  0  0  0  0  0
  -19.6658  -27.3171   20.6751 H   0  0  0  0  0  0
  -17.4184  -26.6722   21.4025 H   0  0  0  0  0  0
  -18.0270  -26.0047   22.9005 H   0  0  0  0  0  0
  -19.7965  -30.7283   24.2229 H   0  0  0  0  0  0
  -17.5048  -31.6274   24.5162 H   0  0  0  0  0  0
  -15.5374  -30.2997   23.7677 H   0  0  0  0  0  0
  -15.8673  -28.0815   22.7123 H   0  0  0  0  0  0
  -24.5956  -30.6994   25.7774 H   0  0  0  0  0  0
  -24.8878  -32.2813   26.4871 H   0  0  0  0  0  0
  -25.8073  -30.8878   27.0227 H   0  0  0  0  0  0
  -26.3038  -29.6696   24.1304 H   0  0  0  0  0  0
  -27.4279  -29.7392   25.4699 H   0  0  0  0  0  0
  -27.8817  -30.4392   23.9354 H   0  0  0  0  0  0
  -27.2676  -33.3713   26.1973 H   0  0  0  0  0  0
  -28.3884  -32.6864   25.0311 H   0  0  0  0  0  0
  -28.0703  -31.8558   26.5466 H   0  0  0  0  0  0
  -28.2581  -38.0041   24.7550 H   0  0  0  0  0  0
  -28.1018  -36.2574   24.6317 H   0  0  0  0  0  0
  -27.2266  -37.1421   25.8900 H   0  0  0  0  0  0
  -20.9406  -29.8710   21.6848 H   0  0  0  0  0  0
  -26.0115  -38.2817   24.1507 H   0  0  0  0  0  0
  -31.9682  -13.6845   24.3435 H   0  0  0  0  0  0
  -32.1943  -14.3396   25.9435 H   0  0  0  0  0  0
  -35.0119  -15.5545   22.9289 H   0  0  0  0  0  0
  -33.7557  -14.4511   22.4342 H   0  0  0  0  0  0
  -31.7061  -16.6328   25.1493 H   0  0  0  0  0  0
  -30.4114  -15.5380   24.7101 H   0  0  0  0  0  0
  -33.1796  -16.7201   21.7314 H   0  0  0  0  0  0
  -33.3699  -17.3507   23.3509 H   0  0  0  0  0  0
  -34.1653  -15.6120   25.2274 H   0  0  0  0  0  0
  -34.3412  -12.7162   24.2449 H   0  0  0  0  0  0
  -34.5782  -13.2581   25.9032 H   0  0  0  0  0  0
  -35.7127  -13.7422   24.6491 H   0  0  0  0  0  0
  -28.7220  -24.7219   16.3993 H   0  0  0  0  0  0
  -28.0948  -25.7466   17.6704 H   0  0  0  0  0  0
  -27.2884  -24.2234   17.2855 H   0  0  0  0  0  0
  -31.7357  -19.7717   21.8249 H   0  0  0  0  0  0
  -30.2952  -20.2768   22.7388 H   0  0  0  0  0  0
  -31.1932  -21.3984   21.7268 H   0  0  0  0  0  0
  -27.7026  -24.0829   22.4175 H   0  0  0  0  0  0
  -26.4776  -24.9494   21.5072 H   0  0  0  0  0  0
  -27.6087  -25.8323   22.5340 H   0  0  0  0  0  0
  -30.1082  -24.4832   18.4857 H   0  0  0  0  0  0
  -29.3771  -22.9960   17.9515 H   0  0  0  0  0  0
  -29.0064  -18.1969   19.7120 H   0  0  0  0  0  0
  -28.5654  -18.4226   21.3627 H   0  0  0  0  0  0
  -29.7329  -17.0576   23.1576 H   0  0  0  0  0  0
  -31.0495  -18.1547   23.0196 H   0  0  0  0  0  0
  -27.9750  -20.9718   20.8867 H   0  0  0  0  0  0
  -28.5298  -21.0119   19.2425 H   0  0  0  0  0  0
  -30.6275  -19.9877   19.7382 H   0  0  0  0  0  0
  -31.3193  -17.3430   20.5659 H   0  0  0  0  0  0
  -27.4948  -23.4279   19.6568 H   0  0  0  0  0  0
  -29.4786  -25.1790   21.1128 H   0  0  0  0  0  0
  -28.9118  -15.6211   20.9254 H   0  0  0  0  0  0
  -31.4113  -15.3354   22.5508 H   0  0  0  0  0  0
  -30.2428  -22.6755   20.1812 H   0  0  0  0  0  0
  -29.2763  -22.7564   21.4679 H   0  0  0  0  0  0
  1 25  1  0  0  0
  1 30  2  0  0  0
  1 88  1  0  0  0
  2  3  1  0  0  0
  2 25  1  0  0  0
  2 91  1  0  0  0
  2 92  1  0  0  0
  3  4  1  0  0  0
  3 93  1  0  0  0
  3 94  1  0  0  0
  4  5  1  0  0  0
  4 95  1  0  0  0
  4 96  1  0  0  0
  5  6  1  0  0  0
  5 26  1  0  0  0
  5 97  1  0  0  0
  6 25  1  0  0  0
  6 98  1  0  0  0
  6 99  1  0  0  0
  7  8  2  0  0  0
  7 26  1  0  0  0
  7 29  1  0  0  0
  8  9  1  0  0  0
  8 22  1  0  0  0
  9 10  1  0  0  0
  9 27  2  0  0  0
 10 11  2  0  0  0
 10 15  1  0  0  0
 11 12  1  0  0  0
 11100  1  0  0  0
 12 13  2  0  0  0
 12101  1  0  0  0
 13 14  1  0  0  0
 13 31  1  0  0  0
 14 15  2  0  0  0
 14102  1  0  0  0
 15103  1  0  0  0
 16 17  2  0  0  0
 16 21  1  0  0  0
 16 31  1  0  0  0
 17 18  1  0  0  0
 17104  1  0  0  0
 18 19  2  0  0  0
 18105  1  0  0  0
 19 20  1  0  0  0
 19 24  1  0  0  0
 20 21  2  0  0  0
 20106  1  0  0  0
 21 23  1  0  0  0
 22 28  1  0  0  0
 22 32  2  0  0  0
 26 27  1  0  0  0
 28107  1  0  0  0
 28108  1  0  0  0
 29109  1  0  0  0
 29110  1  0  0  0
 33 34  1  0  0  0
 33 66  1  0  0  0
 33 70  2  0  0  0
 34 36  1  0  0  0
 34 59  1  0  0  0
 34111  1  0  0  0
 35 44  2  0  0  0
 35 45  1  0  0  0
 35 68  1  0  0  0
 36 56  1  0  0  0
 36112  1  0  0  0
 37 39  1  0  0  0
 37 47  1  0  0  0
 37 66  1  0  0  0
 37113  1  0  0  0
 38 43  2  0  0  0
 38 46  1  0  0  0
 38 47  1  0  0  0
 39 64  1  0  0  0
 39 67  2  0  0  0
 40 52  1  0  0  0
 40 53  2  0  0  0
 40 58  1  0  0  0
 41114  1  0  0  0
 41115  1  0  0  0
 41116  1  0  0  0
 41 48  1  0  0  0
 42 43  1  0  0  0
 42 66  1  0  0  0
 42117  1  0  0  0
 42118  1  0  0  0
 43 44  1  0  0  0
 44119  1  0  0  0
 45 46  2  0  0  0
 45120  1  0  0  0
 46121  1  0  0  0
 47122  1  0  0  0
 47123  1  0  0  0
 48 56  1  0  0  0
 48 65  1  0  0  0
 48124  1  0  0  0
 49 50  1  0  0  0
 49 53  1  0  0  0
 49 64  1  0  0  0
 49125  1  0  0  0
 50 51  1  0  0  0
 50126  1  0  0  0
 50127  1  0  0  0
 51 52  1  0  0  0
 51128  1  0  0  0
 51129  1  0  0  0
 52130  1  0  0  0
 52131  1  0  0  0
 53 54  1  0  0  0
 54 55  2  0  0  0
 54132  1  0  0  0
 55 57  1  0  0  0
 55133  1  0  0  0
 56 69  2  0  0  0
 57 58  2  0  0  0
 57134  1  0  0  0
 58135  1  0  0  0
 59 60  1  0  0  0
 59 61  1  0  0  0
 59 62  1  0  0  0
 60136  1  0  0  0
 60137  1  0  0  0
 60138  1  0  0  0
 61139  1  0  0  0
 61140  1  0  0  0
 61141  1  0  0  0
 62142  1  0  0  0
 62143  1  0  0  0
 62144  1  0  0  0
 63 65  1  0  0  0
 63145  1  0  0  0
 63146  1  0  0  0
 63147  1  0  0  0
 64148  1  0  0  0
 65149  1  0  0  0
 68 87  1  0  0  0
 71 73  1  0  0  0
 71 75  1  0  0  0
 71150  1  0  0  0
 71151  1  0  0  0
 72 74  1  0  0  0
 72 75  1  0  0  0
 72152  1  0  0  0
 72153  1  0  0  0
 73 89  1  0  0  0
 73154  1  0  0  0
 73155  1  0  0  0
 74 89  1  0  0  0
 74156  1  0  0  0
 74157  1  0  0  0
 75 76  1  0  0  0
 75158  1  0  0  0
 76159  1  0  0  0
 76160  1  0  0  0
 76161  1  0  0  0
 77 80  1  0  0  0
 77162  1  0  0  0
 77163  1  0  0  0
 77164  1  0  0  0
 78165  1  0  0  0
 78166  1  0  0  0
 78167  1  0  0  0
 78 84  1  0  0  0
 79168  1  0  0  0
 79169  1  0  0  0
 79170  1  0  0  0
 79 87  1  0  0  0
 80171  1  0  0  0
 80172  1  0  0  0
 80 86  1  0  0  0
 81 84  1  0  0  0
 81173  1  0  0  0
 81174  1  0  0  0
 81 85  1  0  0  0
 82 85  1  0  0  0
 82175  1  0  0  0
 82176  1  0  0  0
 82 89  1  0  0  0
 83 84  1  0  0  0
 83 90  1  0  0  0
 83177  1  0  0  0
 83178  1  0  0  0
 84179  1  0  0  0
 85 88  1  0  0  0
 85180  1  0  0  0
 86 87  1  0  0  0
 86 90  1  0  0  0
 86181  1  0  0  0
 87182  1  0  0  0
 88183  1  0  0  0
 89184  1  0  0  0
 90185  1  0  0  0
 90186  1  0  0  0
M  CHG  2  89   1  90   1
M  ISO  4   1 100  68 101  87 101  88 100
M  END
> <chiral flag>
0

> <version>
0

> <s_m_source_file>
/data/baiqing/PycharmProjects/Reinvent-master-3.2/result/LINK_invent/BTK/process_docking_weight1_custom_sum_contain_oxygen_bond_distance_aromatic_linkinvent_7_9_3/rearranged_h_0113.sdf

> <i_m_source_file_index>
20

> <r_mmod_Potential_Energy-OPLS-2005>
14.9477348327637

> <r_mmod_Stretch_Energy-OPLS-2005>
118.532608032227

> <r_mmod_Bend_Energy-OPLS-2005>
183.016540527344

> <r_mmod_Torsional_Energy-OPLS-2005>
333.577484130859

> <r_mmod_Improper_Torsional_Energy-OPLS-2005>
2.4837920665741

> <r_mmod_Van_der_Waal_Energy-OPLS-2005>
117.28279876709

> <r_mmod_Electrostatic_Energy-OPLS-2005>
23.0046997070312

> <r_mmod_Solvation_Energy-OPLS-2005>
-818.89794921875

> <b_mmod_Minimization_Converged-OPLS-2005>
0

> <r_mmod_RMS_Derivative-OPLS-2005>
2.05870747566223

$$$$
21
                    3D
 Structure written by MMmdl.
155164  0  0  1  0            999 V2000
  -30.3893  -15.5648   20.3438 C   0  0  0  0  0  0
  -30.4213  -13.0394   19.5292 C   0  0  0  0  0  0
  -29.5396  -12.6279   18.3223 C   0  0  0  0  0  0
  -28.1140  -12.2892   18.7788 C   0  0  0  0  0  0
  -27.5974  -13.3074   19.8205 C   0  0  2  0  0  0
  -28.6208  -13.6340   20.9334 C   0  0  0  0  0  0
  -25.2319  -13.8307   20.5822 C   0  0  0  0  0  0
  -24.1699  -13.0462   20.9302 C   0  0  0  0  0  0
  -24.6391  -11.6969   20.8778 C   0  0  0  0  0  0
  -23.9095  -10.4311   21.0397 C   0  0  0  0  0  0
  -24.3626   -9.4214   21.9174 C   0  0  0  0  0  0
  -23.6289   -8.2247   22.0738 C   0  0  0  0  0  0
  -22.4278   -8.0283   21.3528 C   0  0  0  0  0  0
  -21.9920   -9.0275   20.4642 C   0  0  0  0  0  0
  -22.7250  -10.2152   20.3056 C   0  0  0  0  0  0
  -21.6867   -6.0729   22.5269 C   0  0  0  0  0  0
  -21.4012   -6.5630   23.8206 C   0  0  0  0  0  0
  -21.3657   -5.6781   24.9164 C   0  0  0  0  0  0
  -21.6049   -4.3044   24.7222 C   0  0  0  0  0  0
  -21.8818   -3.8133   23.4345 C   0  0  0  0  0  0
  -21.9195   -4.6954   22.3394 C   0  0  0  0  0  0
  -22.7711  -13.5198   21.1954 C   0  0  0  0  0  0
  -22.1664   -4.2137   21.0973 F   0  0  0  0  0  0
  -21.5633   -3.4528   25.7735 F   0  0  0  0  0  0
  -29.7988  -14.2348   20.2629 N   0  0  0  0  0  0
  -26.2775  -12.9638   20.3323 N   0  0  0  0  0  0
  -25.9342  -11.6704   20.5763 N   0  0  0  0  0  0
  -22.0367  -12.8183   22.0507 N   0  0  0  0  0  0
  -25.3911  -15.2043   20.4240 N   0  0  0  0  0  0
  -31.6149  -15.4290   20.1605 O   0  0  0  0  0  0
  -21.6642   -6.8871   21.4226 O   0  0  0  0  0  0
  -22.3393  -14.5500   20.6794 O   0  0  0  0  0  0
  -24.6812  -31.8034   23.1532 C   0  0  0  0  0  0
  -25.9404  -32.4476   23.8044 C   0  0  1  0  0  0
  -27.2121  -26.7401   20.2037 C   0  0  0  0  0  0
  -25.5994  -33.8311   24.1913 N   0  0  0  0  0  0
  -23.5003  -30.4114   21.5081 C   0  0  2  0  0  0
  -24.9501  -28.7580   20.1161 C   0  0  0  0  0  0
  -22.7723  -29.4361   22.4726 C   0  0  0  0  0  0
  -18.0334  -28.1436   22.8460 C   0  0  0  0  0  0
  -24.1469  -36.7153   23.2661 C   0  0  0  0  0  0
  -26.0804  -30.5463   21.4096 C   0  0  0  0  0  0
  -26.1408  -29.1176   20.7562 C   0  0  0  0  0  0
  -27.2599  -28.1365   20.7691 C   0  0  0  0  0  0
  -25.9880  -26.5764   19.5131 C   0  0  0  0  0  0
  -24.9092  -27.5100   19.4687 C   0  0  0  0  0  0
  -23.7475  -29.7145   20.1420 C   0  0  0  0  0  0
  -25.4119  -36.2874   24.0278 C   0  0  1  0  0  0
  -20.5968  -28.3775   23.1172 C   0  0  2  0  0  0
  -20.6802  -26.9431   22.5448 C   0  0  0  0  0  0
  -19.5787  -26.6360   21.5266 C   0  0  0  0  0  0
  -18.1948  -26.7976   22.1612 C   0  0  0  0  0  0
  -19.1602  -28.8925   23.2807 C   0  0  0  0  0  0
  -18.9534  -30.1519   23.8833 C   0  0  0  0  0  0
  -17.6528  -30.6626   24.0563 C   0  0  0  0  0  0
  -25.9120  -34.9292   23.4915 C   0  0  0  0  0  0
  -16.5418  -29.9098   23.6390 C   0  0  0  0  0  0
  -16.7323  -28.6524   23.0383 C   0  0  0  0  0  0
  -26.4566  -31.6520   25.0672 C   0  0  0  0  0  0
  -25.3617  -31.3892   26.1284 C   0  0  0  0  0  0
  -27.0516  -30.2856   24.6588 C   0  0  0  0  0  0
  -27.5982  -32.4435   25.7498 C   0  0  0  0  0  0
  -27.5536  -37.1720   24.8472 C   0  0  0  0  0  0
  -21.4390  -29.3037   22.3468 N   0  0  0  0  0  0
  -26.4211  -37.3673   23.9442 N   0  0  0  0  0  0
  -24.7762  -30.9509   22.0761 N   0  0  0  0  0  0
  -23.4187  -28.8002   23.3079 O   0  0  0  0  0  0
  -28.1836  -25.5439   20.2455 O   0  0  0  0  0  0
  -26.5789  -34.8875   22.4554 O   0  0  0  0  0  0
  -23.5833  -32.1089   23.6506 O   0  0  0  0  0  0
  -29.0458  -22.3831   20.1025 C   0  0  0  0  0  0
  -25.9177  -20.6586   21.3405 C   0  0  0  0  0  0
  -25.9267  -19.2586   21.9038 C   0  0  0  0  0  0
  -30.3149  -19.9107   19.8486 C   0  0  0  0  0  0
  -30.3616  -18.2303   19.4554 C   0  0  0  0  0  0
  -28.8275  -17.9631   21.0516 C   0  0  0  0  0  0
  -27.2305  -19.9927   21.6972 C   0  0  0  0  0  0
  -28.2236  -19.5680   20.6256 C   0  0  1  0  0  0
  -27.9177  -23.8233   20.2779 C   0  0  0  0  0  0
  -29.0854  -20.8247   20.2030 N   0  0  0  0  0  0
  -29.7827  -16.9994   20.2356 N   0  0  0  0  0  0
  -30.1488  -22.8222   19.7599 O   0  0  0  0  0  0
  -31.4125  -13.2804   19.1425 H   0  0  0  0  0  0
  -30.5821  -12.2033   20.2114 H   0  0  0  0  0  0
  -29.9824  -11.7760   17.8051 H   0  0  0  0  0  0
  -29.5095  -13.4469   17.6025 H   0  0  0  0  0  0
  -28.1417  -11.2962   19.2293 H   0  0  0  0  0  0
  -27.4389  -12.2229   17.9247 H   0  0  0  0  0  0
  -27.4628  -14.2298   19.2523 H   0  0  0  0  0  0
  -28.8729  -12.7498   21.5214 H   0  0  0  0  0  0
  -28.2006  -14.3589   21.6335 H   0  0  0  0  0  0
  -25.2757   -9.5698   22.4771 H   0  0  0  0  0  0
  -23.9997   -7.4639   22.7461 H   0  0  0  0  0  0
  -21.0839   -8.8804   19.8955 H   0  0  0  0  0  0
  -22.3686  -10.9702   19.6188 H   0  0  0  0  0  0
  -21.1986   -7.6136   23.9715 H   0  0  0  0  0  0
  -21.1487   -6.0498   25.9073 H   0  0  0  0  0  0
  -22.0594   -2.7594   23.2849 H   0  0  0  0  0  0
  -22.3970  -11.9846   22.4916 H   0  0  0  0  0  0
  -21.0991  -13.1220   22.2733 H   0  0  0  0  0  0
  -24.6154  -15.8496   20.5231 H   0  0  0  0  0  0
  -26.2388  -15.6502   20.0964 H   0  0  0  0  0  0
  -26.7442  -32.4925   23.0716 H   0  0  0  0  0  0
  -25.0090  -33.9396   25.0026 H   0  0  0  0  0  0
  -22.8254  -31.2530   21.3252 H   0  0  0  0  0  0
  -23.3750  -35.9474   23.3261 H   0  0  0  0  0  0
  -24.3509  -36.8877   22.2081 H   0  0  0  0  0  0
  -23.7216  -37.6302   23.6793 H   0  0  0  0  0  0
  -26.2923  -31.2714   20.6235 H   0  0  0  0  0  0
  -26.9291  -30.5964   22.0788 H   0  0  0  0  0  0
  -28.1559  -28.4213   21.3012 H   0  0  0  0  0  0
  -25.8275  -25.6318   19.0118 H   0  0  0  0  0  0
  -24.0108  -27.2190   18.9449 H   0  0  0  0  0  0
  -23.9226  -30.4823   19.3863 H   0  0  0  0  0  0
  -22.8473  -29.1913   19.8142 H   0  0  0  0  0  0
  -25.1318  -36.1594   25.0763 H   0  0  0  0  0  0
  -21.0083  -28.3401   24.1294 H   0  0  0  0  0  0
  -20.5758  -26.2381   23.3708 H   0  0  0  0  0  0
  -21.6646  -26.7464   22.1209 H   0  0  0  0  0  0
  -19.6975  -25.6274   21.1298 H   0  0  0  0  0  0
  -19.6733  -27.3165   20.6794 H   0  0  0  0  0  0
  -17.4254  -26.6809   21.3962 H   0  0  0  0  0  0
  -18.0259  -26.0145   22.9009 H   0  0  0  0  0  0
  -19.8025  -30.7345   24.2147 H   0  0  0  0  0  0
  -17.5093  -31.6317   24.5159 H   0  0  0  0  0  0
  -15.5406  -30.2975   23.7772 H   0  0  0  0  0  0
  -15.8719  -28.0823   22.7139 H   0  0  0  0  0  0
  -24.5863  -30.7149   25.7607 H   0  0  0  0  0  0
  -24.8752  -32.3146   26.4385 H   0  0  0  0  0  0
  -25.7766  -30.9295   27.0263 H   0  0  0  0  0  0
  -26.3239  -29.6442   24.1605 H   0  0  0  0  0  0
  -27.3968  -29.7326   25.5333 H   0  0  0  0  0  0
  -27.9171  -30.3960   24.0068 H   0  0  0  0  0  0
  -27.2460  -33.3826   26.1792 H   0  0  0  0  0  0
  -28.3907  -32.6890   25.0409 H   0  0  0  0  0  0
  -28.0495  -31.8778   26.5654 H   0  0  0  0  0  0
  -28.2519  -38.0047   24.7509 H   0  0  0  0  0  0
  -28.1046  -36.2577   24.6252 H   0  0  0  0  0  0
  -27.2279  -37.1287   25.8880 H   0  0  0  0  0  0
  -20.9673  -29.8670   21.6532 H   0  0  0  0  0  0
  -26.0013  -38.2695   24.1530 H   0  0  0  0  0  0
  -25.5514  -21.4544   21.9865 H   0  0  0  0  0  0
  -25.6567  -20.7601   20.2884 H   0  0  0  0  0  0
  -25.6827  -18.4480   21.2195 H   0  0  0  0  0  0
  -25.5819  -19.1260   22.9294 H   0  0  0  0  0  0
  -30.7742  -20.4026   18.9887 H   0  0  0  0  0  0
  -31.0357  -20.0781   20.6508 H   0  0  0  0  0  0
  -31.4185  -17.9996   19.3063 H   0  0  0  0  0  0
  -29.9281  -18.1438   18.4582 H   0  0  0  0  0  0
  -27.9519  -17.3478   21.2532 H   0  0  0  0  0  0
  -29.3095  -18.0652   22.0234 H   0  0  0  0  0  0
  -27.7112  -20.3489   22.6096 H   0  0  0  0  0  0
  -27.6266  -19.3856   19.7305 H   0  0  0  0  0  0
  -27.4093  -23.6412   21.2238 H   0  0  0  0  0  0
  -27.1471  -23.6408   19.5305 H   0  0  0  0  0  0
  1 25  1  0  0  0
  1 30  2  0  0  0
  1 81  1  0  0  0
  2  3  1  0  0  0
  2 25  1  0  0  0
  2 83  1  0  0  0
  2 84  1  0  0  0
  3  4  1  0  0  0
  3 85  1  0  0  0
  3 86  1  0  0  0
  4  5  1  0  0  0
  4 87  1  0  0  0
  4 88  1  0  0  0
  5  6  1  0  0  0
  5 26  1  0  0  0
  5 89  1  0  0  0
  6 25  1  0  0  0
  6 90  1  0  0  0
  6 91  1  0  0  0
  7  8  2  0  0  0
  7 26  1  0  0  0
  7 29  1  0  0  0
  8  9  1  0  0  0
  8 22  1  0  0  0
  9 10  1  0  0  0
  9 27  2  0  0  0
 10 11  2  0  0  0
 10 15  1  0  0  0
 11 12  1  0  0  0
 11 92  1  0  0  0
 12 13  2  0  0  0
 12 93  1  0  0  0
 13 14  1  0  0  0
 13 31  1  0  0  0
 14 15  2  0  0  0
 14 94  1  0  0  0
 15 95  1  0  0  0
 16 17  2  0  0  0
 16 21  1  0  0  0
 16 31  1  0  0  0
 17 18  1  0  0  0
 17 96  1  0  0  0
 18 19  2  0  0  0
 18 97  1  0  0  0
 19 20  1  0  0  0
 19 24  1  0  0  0
 20 21  2  0  0  0
 20 98  1  0  0  0
 21 23  1  0  0  0
 22 28  1  0  0  0
 22 32  2  0  0  0
 26 27  1  0  0  0
 28 99  1  0  0  0
 28100  1  0  0  0
 29101  1  0  0  0
 29102  1  0  0  0
 33 34  1  0  0  0
 33 66  1  0  0  0
 33 70  2  0  0  0
 34 36  1  0  0  0
 34 59  1  0  0  0
 34103  1  0  0  0
 35 44  2  0  0  0
 35 45  1  0  0  0
 35 68  1  0  0  0
 36 56  1  0  0  0
 36104  1  0  0  0
 37 39  1  0  0  0
 37 47  1  0  0  0
 37 66  1  0  0  0
 37105  1  0  0  0
 38 43  2  0  0  0
 38 46  1  0  0  0
 38 47  1  0  0  0
 39 64  1  0  0  0
 39 67  2  0  0  0
 40 52  1  0  0  0
 40 53  2  0  0  0
 40 58  1  0  0  0
 41106  1  0  0  0
 41107  1  0  0  0
 41108  1  0  0  0
 41 48  1  0  0  0
 42 43  1  0  0  0
 42 66  1  0  0  0
 42109  1  0  0  0
 42110  1  0  0  0
 43 44  1  0  0  0
 44111  1  0  0  0
 45 46  2  0  0  0
 45112  1  0  0  0
 46113  1  0  0  0
 47114  1  0  0  0
 47115  1  0  0  0
 48 56  1  0  0  0
 48 65  1  0  0  0
 48116  1  0  0  0
 49 50  1  0  0  0
 49 53  1  0  0  0
 49 64  1  0  0  0
 49117  1  0  0  0
 50 51  1  0  0  0
 50118  1  0  0  0
 50119  1  0  0  0
 51 52  1  0  0  0
 51120  1  0  0  0
 51121  1  0  0  0
 52122  1  0  0  0
 52123  1  0  0  0
 53 54  1  0  0  0
 54 55  2  0  0  0
 54124  1  0  0  0
 55 57  1  0  0  0
 55125  1  0  0  0
 56 69  2  0  0  0
 57 58  2  0  0  0
 57126  1  0  0  0
 58127  1  0  0  0
 59 60  1  0  0  0
 59 61  1  0  0  0
 59 62  1  0  0  0
 60128  1  0  0  0
 60129  1  0  0  0
 60130  1  0  0  0
 61131  1  0  0  0
 61132  1  0  0  0
 61133  1  0  0  0
 62134  1  0  0  0
 62135  1  0  0  0
 62136  1  0  0  0
 63 65  1  0  0  0
 63137  1  0  0  0
 63138  1  0  0  0
 63139  1  0  0  0
 64140  1  0  0  0
 65141  1  0  0  0
 68 79  1  0  0  0
 71 79  1  0  0  0
 71 80  1  0  0  0
 71 82  2  0  0  0
 72 73  1  0  0  0
 72142  1  0  0  0
 72143  1  0  0  0
 72 77  1  0  0  0
 73 77  1  0  0  0
 73144  1  0  0  0
 73145  1  0  0  0
 74 75  1  0  0  0
 74 80  1  0  0  0
 74146  1  0  0  0
 74147  1  0  0  0
 75 81  1  0  0  0
 75148  1  0  0  0
 75149  1  0  0  0
 76 81  1  0  0  0
 76150  1  0  0  0
 76151  1  0  0  0
 76 78  1  0  0  0
 77 78  1  0  0  0
 77152  1  0  0  0
 78 80  1  0  0  0
 78153  1  0  0  0
 79154  1  0  0  0
 79155  1  0  0  0
M  ISO  4   1 100  68 101  79 101  81 100
M  END
> <chiral flag>
0

> <version>
0

> <s_m_source_file>
/data/baiqing/PycharmProjects/Reinvent-master-3.2/result/LINK_invent/BTK/process_docking_weight1_custom_sum_contain_oxygen_bond_distance_aromatic_linkinvent_7_9_3/rearranged_h_0113.sdf

> <i_m_source_file_index>
21

> <r_mmod_Potential_Energy-OPLS-2005>
2438.83520507812

> <r_mmod_Stretch_Energy-OPLS-2005>
871.945129394531

> <r_mmod_Bend_Energy-OPLS-2005>
719.353942871094

> <r_mmod_Torsional_Energy-OPLS-2005>
428.202301025391

> <r_mmod_Improper_Torsional_Energy-OPLS-2005>
13.3115386962891

> <r_mmod_Van_der_Waal_Energy-OPLS-2005>
113.314277648926

> <r_mmod_Electrostatic_Energy-OPLS-2005>
-264.265808105469

> <r_mmod_Solvation_Energy-OPLS-2005>
-241.135131835938

> <b_mmod_Minimization_Converged-OPLS-2005>
0

> <r_mmod_RMS_Derivative-OPLS-2005>
4.06291675567627

$$$$
22
                    3D
 Structure written by MMmdl.
157164  0  0  1  0            999 V2000
  -30.7256  -14.4022   20.6286 C   0  0  0  0  0  0
  -30.4218  -12.2831   19.4117 C   0  0  0  0  0  0
  -29.4902  -12.5110   18.2037 C   0  0  0  0  0  0
  -28.0107  -12.3749   18.6146 C   0  0  0  0  0  0
  -27.6655  -13.1986   19.8839 C   0  0  2  0  0  0
  -28.7040  -12.9401   21.0010 C   0  0  0  0  0  0
  -25.2607  -13.8151   20.5699 C   0  0  0  0  0  0
  -24.1846  -13.0444   20.9185 C   0  0  0  0  0  0
  -24.6394  -11.6906   20.8752 C   0  0  0  0  0  0
  -23.9067  -10.4294   21.0402 C   0  0  0  0  0  0
  -24.3621   -9.4210   21.9185 C   0  0  0  0  0  0
  -23.6295   -8.2248   22.0756 C   0  0  0  0  0  0
  -22.4270   -8.0291   21.3559 C   0  0  0  0  0  0
  -21.9908   -9.0267   20.4659 C   0  0  0  0  0  0
  -22.7238  -10.2141   20.3061 C   0  0  0  0  0  0
  -21.6849   -6.0740   22.5288 C   0  0  0  0  0  0
  -21.4009   -6.5645   23.8218 C   0  0  0  0  0  0
  -21.3657   -5.6798   24.9179 C   0  0  0  0  0  0
  -21.6037   -4.3063   24.7231 C   0  0  0  0  0  0
  -21.8820   -3.8155   23.4358 C   0  0  0  0  0  0
  -21.9187   -4.6968   22.3410 C   0  0  0  0  0  0
  -22.7873  -13.5258   21.1857 C   0  0  0  0  0  0
  -22.1657   -4.2151   21.0988 F   0  0  0  0  0  0
  -21.5625   -3.4552   25.7747 F   0  0  0  0  0  0
  -30.0455  -13.2367   20.4635 N   0  0  0  0  0  0
  -26.3032  -12.9304   20.3412 N   0  0  0  0  0  0
  -25.9312  -11.6470   20.5795 N   0  0  0  0  0  0
  -22.0518  -12.8238   22.0400 N   0  0  0  0  0  0
  -25.4380  -15.1858   20.4113 N   0  0  0  0  0  0
  -31.7932  -14.6549   20.0630 O   0  0  0  0  0  0
  -21.6641   -6.8887   21.4248 O   0  0  0  0  0  0
  -22.3580  -14.5591   20.6724 O   0  0  0  0  0  0
  -24.6113  -31.8706   23.2132 C   0  0  0  0  0  0
  -25.9030  -32.4833   23.8401 C   0  0  1  0  0  0
  -27.2352  -27.4625   20.0605 C   0  0  0  0  0  0
  -25.5904  -33.8640   24.2321 N   0  0  0  0  0  0
  -23.3931  -30.4957   21.5564 C   0  0  2  0  0  0
  -24.8327  -28.9578   20.1231 C   0  0  0  0  0  0
  -22.7361  -29.4690   22.5059 C   0  0  0  0  0  0
  -18.0256  -28.1363   22.8485 C   0  0  0  0  0  0
  -24.1488  -36.7319   23.2635 C   0  0  0  0  0  0
  -25.9202  -30.8398   21.3607 C   0  0  0  0  0  0
  -25.9935  -29.4744   20.7109 C   0  0  0  0  0  0
  -27.1898  -28.7274   20.6882 C   0  0  0  0  0  0
  -26.0462  -26.9439   19.4980 C   0  0  0  0  0  0
  -24.8497  -27.6865   19.5257 C   0  0  0  0  0  0
  -23.5949  -29.8238   20.1725 C   0  0  0  0  0  0
  -25.4110  -36.3116   24.0332 C   0  0  1  0  0  0
  -20.5842  -28.3652   23.1341 C   0  0  2  0  0  0
  -20.6757  -26.9400   22.5414 C   0  0  0  0  0  0
  -19.5734  -26.6387   21.5210 C   0  0  0  0  0  0
  -18.1913  -26.7914   22.1614 C   0  0  0  0  0  0
  -19.1508  -28.8817   23.2911 C   0  0  0  0  0  0
  -18.9441  -30.1425   23.8915 C   0  0  0  0  0  0
  -17.6449  -30.6581   24.0551 C   0  0  0  0  0  0
  -25.9038  -34.9486   23.5117 C   0  0  0  0  0  0
  -16.5334  -29.9076   23.6323 C   0  0  0  0  0  0
  -16.7251  -28.6484   23.0357 C   0  0  0  0  0  0
  -26.4474  -31.6610   25.0725 C   0  0  0  0  0  0
  -25.3760  -31.3718   26.1492 C   0  0  0  0  0  0
  -27.0295  -30.3056   24.6080 C   0  0  0  0  0  0
  -27.6054  -32.4323   25.7494 C   0  0  0  0  0  0
  -27.5583  -37.1813   24.8468 C   0  0  0  0  0  0
  -21.4103  -29.3040   22.3780 N   0  0  0  0  0  0
  -26.4296  -37.3799   23.9411 N   0  0  0  0  0  0
  -24.6598  -31.0829   22.1019 N   0  0  0  0  0  0
  -23.4142  -28.8237   23.3093 O   0  0  0  0  0  0
  -28.4455  -26.8009   20.0452 O   0  0  0  0  0  0
  -26.5602  -34.8923   22.4678 O   0  0  0  0  0  0
  -23.5326  -32.1459   23.7564 O   0  0  0  0  0  0
  -29.2138  -23.4345   19.1543 C   0  0  0  0  0  0
  -28.3706  -24.4832   19.2045 C   0  0  0  0  0  0
  -28.7469  -22.0777   19.3634 C   0  0  0  0  0  0
  -28.5042  -26.4373   17.5610 C   0  0  0  0  0  0
  -29.5352  -19.7334   19.0749 C   0  0  0  0  0  0
  -30.1031  -19.0315   20.3238 C   0  0  0  0  0  0
  -30.3995  -16.7639   21.3681 C   0  0  0  0  0  0
  -28.8128  -25.9184   18.9777 C   0  0  1  0  0  0
  -29.7126  -21.1827   19.1167 N   0  0  0  0  0  0
  -30.0811  -15.3334   21.3434 N   0  0  0  0  0  0
  -29.9014  -17.5698   20.2273 N   0  3  0  0  0  0
  -27.6061  -21.7515   19.6991 O   0  0  0  0  0  0
  -31.4645  -12.3877   19.1082 H   0  0  0  0  0  0
  -30.3261  -11.2628   19.7863 H   0  0  0  0  0  0
  -29.7262  -11.7971   17.4127 H   0  0  0  0  0  0
  -29.6636  -13.5036   17.7844 H   0  0  0  0  0  0
  -27.8122  -11.3177   18.7968 H   0  0  0  0  0  0
  -27.3638  -12.6658   17.7874 H   0  0  0  0  0  0
  -27.7205  -14.2528   19.6096 H   0  0  0  0  0  0
  -28.6669  -11.8954   21.3140 H   0  0  0  0  0  0
  -28.4604  -13.5128   21.8956 H   0  0  0  0  0  0
  -25.2775   -9.5672   22.4749 H   0  0  0  0  0  0
  -24.0001   -7.4634   22.7473 H   0  0  0  0  0  0
  -21.0841   -8.8794   19.8957 H   0  0  0  0  0  0
  -22.3714  -10.9683   19.6167 H   0  0  0  0  0  0
  -21.1991   -7.6153   23.9725 H   0  0  0  0  0  0
  -21.1483   -6.0532   25.9086 H   0  0  0  0  0  0
  -22.0591   -2.7622   23.2857 H   0  0  0  0  0  0
  -22.4135  -11.9877   22.4742 H   0  0  0  0  0  0
  -21.1150  -13.1266   22.2660 H   0  0  0  0  0  0
  -24.6814  -15.8480   20.5422 H   0  0  0  0  0  0
  -26.2923  -15.6188   20.0881 H   0  0  0  0  0  0
  -26.7107  -32.5519   23.1173 H   0  0  0  0  0  0
  -25.0062  -33.9809   25.0474 H   0  0  0  0  0  0
  -22.6816  -31.3135   21.4221 H   0  0  0  0  0  0
  -23.3743  -35.9660   23.3321 H   0  0  0  0  0  0
  -24.3564  -36.8905   22.2042 H   0  0  0  0  0  0
  -23.7259  -37.6540   23.6633 H   0  0  0  0  0  0
  -26.0285  -31.6056   20.5911 H   0  0  0  0  0  0
  -26.8112  -30.8915   21.9742 H   0  0  0  0  0  0
  -28.0909  -29.1308   21.1287 H   0  0  0  0  0  0
  -26.0219  -25.9728   19.0293 H   0  0  0  0  0  0
  -23.9503  -27.2733   19.0886 H   0  0  0  0  0  0
  -23.6982  -30.5973   19.4104 H   0  0  0  0  0  0
  -22.7175  -29.2423   19.8815 H   0  0  0  0  0  0
  -25.1294  -36.1982   25.0828 H   0  0  0  0  0  0
  -20.9919  -28.3198   24.1463 H   0  0  0  0  0  0
  -20.5690  -26.2247   23.3582 H   0  0  0  0  0  0
  -21.6631  -26.7486   22.1182 H   0  0  0  0  0  0
  -19.6907  -25.6306   21.1218 H   0  0  0  0  0  0
  -19.6667  -27.3214   20.6747 H   0  0  0  0  0  0
  -17.4186  -26.6673   21.4009 H   0  0  0  0  0  0
  -18.0314  -26.0047   22.8994 H   0  0  0  0  0  0
  -19.7925  -30.7224   24.2288 H   0  0  0  0  0  0
  -17.5009  -31.6258   24.5159 H   0  0  0  0  0  0
  -15.5330  -30.2985   23.7642 H   0  0  0  0  0  0
  -15.8641  -28.0799   22.7094 H   0  0  0  0  0  0
  -24.5924  -30.7068   25.7853 H   0  0  0  0  0  0
  -24.8965  -32.2873   26.4966 H   0  0  0  0  0  0
  -25.8133  -30.8883   27.0236 H   0  0  0  0  0  0
  -26.2819  -29.6839   24.1139 H   0  0  0  0  0  0
  -27.4084  -29.7280   25.4527 H   0  0  0  0  0  0
  -27.8651  -30.4388   23.9203 H   0  0  0  0  0  0
  -27.2664  -33.3596   26.2132 H   0  0  0  0  0  0
  -28.3845  -32.6925   25.0317 H   0  0  0  0  0  0
  -28.0745  -31.8408   26.5372 H   0  0  0  0  0  0
  -28.2626  -38.0087   24.7498 H   0  0  0  0  0  0
  -28.1050  -36.2621   24.6317 H   0  0  0  0  0  0
  -27.2285  -37.1495   25.8864 H   0  0  0  0  0  0
  -20.9257  -29.8730   21.6985 H   0  0  0  0  0  0
  -26.0191  -38.2880   24.1399 H   0  0  0  0  0  0
  -30.2581  -23.6148   18.9461 H   0  0  0  0  0  0
  -27.3237  -24.3147   19.4127 H   0  0  0  0  0  0
  -29.0329  -25.8401   16.8194 H   0  0  0  0  0  0
  -28.8304  -27.4697   17.4390 H   0  0  0  0  0  0
  -27.4476  -26.3865   17.3049 H   0  0  0  0  0  0
  -28.4818  -19.4785   18.9401 H   0  0  0  0  0  0
  -30.0431  -19.3699   18.1786 H   0  0  0  0  0  0
  -29.6154  -19.4157   21.2214 H   0  0  0  0  0  0
  -31.1681  -19.2493   20.4231 H   0  0  0  0  0  0
  -31.4789  -16.9039   21.4610 H   0  0  0  0  0  0
  -29.9737  -17.1710   22.2867 H   0  0  0  0  0  0
  -29.9016  -25.9031   19.0424 H   0  0  0  0  0  0
  -30.6213  -21.5404   18.8513 H   0  0  0  0  0  0
  -29.2415  -15.0353   21.8170 H   0  0  0  0  0  0
  -30.3578  -17.2533   19.3872 H   0  0  0  0  0  0
  -28.9120  -17.4140   20.1274 H   0  0  0  0  0  0
  1 25  1  0  0  0
  1 30  2  0  0  0
  1 80  1  0  0  0
  2  3  1  0  0  0
  2 25  1  0  0  0
  2 83  1  0  0  0
  2 84  1  0  0  0
  3  4  1  0  0  0
  3 85  1  0  0  0
  3 86  1  0  0  0
  4  5  1  0  0  0
  4 87  1  0  0  0
  4 88  1  0  0  0
  5  6  1  0  0  0
  5 26  1  0  0  0
  5 89  1  0  0  0
  6 25  1  0  0  0
  6 90  1  0  0  0
  6 91  1  0  0  0
  7  8  2  0  0  0
  7 26  1  0  0  0
  7 29  1  0  0  0
  8  9  1  0  0  0
  8 22  1  0  0  0
  9 10  1  0  0  0
  9 27  2  0  0  0
 10 11  2  0  0  0
 10 15  1  0  0  0
 11 12  1  0  0  0
 11 92  1  0  0  0
 12 13  2  0  0  0
 12 93  1  0  0  0
 13 14  1  0  0  0
 13 31  1  0  0  0
 14 15  2  0  0  0
 14 94  1  0  0  0
 15 95  1  0  0  0
 16 17  2  0  0  0
 16 21  1  0  0  0
 16 31  1  0  0  0
 17 18  1  0  0  0
 17 96  1  0  0  0
 18 19  2  0  0  0
 18 97  1  0  0  0
 19 20  1  0  0  0
 19 24  1  0  0  0
 20 21  2  0  0  0
 20 98  1  0  0  0
 21 23  1  0  0  0
 22 28  1  0  0  0
 22 32  2  0  0  0
 26 27  1  0  0  0
 28 99  1  0  0  0
 28100  1  0  0  0
 29101  1  0  0  0
 29102  1  0  0  0
 33 34  1  0  0  0
 33 66  1  0  0  0
 33 70  2  0  0  0
 34 36  1  0  0  0
 34 59  1  0  0  0
 34103  1  0  0  0
 35 44  2  0  0  0
 35 45  1  0  0  0
 35 68  1  0  0  0
 36 56  1  0  0  0
 36104  1  0  0  0
 37 39  1  0  0  0
 37 47  1  0  0  0
 37 66  1  0  0  0
 37105  1  0  0  0
 38 43  2  0  0  0
 38 46  1  0  0  0
 38 47  1  0  0  0
 39 64  1  0  0  0
 39 67  2  0  0  0
 40 52  1  0  0  0
 40 53  2  0  0  0
 40 58  1  0  0  0
 41106  1  0  0  0
 41107  1  0  0  0
 41108  1  0  0  0
 41 48  1  0  0  0
 42 43  1  0  0  0
 42 66  1  0  0  0
 42109  1  0  0  0
 42110  1  0  0  0
 43 44  1  0  0  0
 44111  1  0  0  0
 45 46  2  0  0  0
 45112  1  0  0  0
 46113  1  0  0  0
 47114  1  0  0  0
 47115  1  0  0  0
 48 56  1  0  0  0
 48 65  1  0  0  0
 48116  1  0  0  0
 49 50  1  0  0  0
 49 53  1  0  0  0
 49 64  1  0  0  0
 49117  1  0  0  0
 50 51  1  0  0  0
 50118  1  0  0  0
 50119  1  0  0  0
 51 52  1  0  0  0
 51120  1  0  0  0
 51121  1  0  0  0
 52122  1  0  0  0
 52123  1  0  0  0
 53 54  1  0  0  0
 54 55  2  0  0  0
 54124  1  0  0  0
 55 57  1  0  0  0
 55125  1  0  0  0
 56 69  2  0  0  0
 57 58  2  0  0  0
 57126  1  0  0  0
 58127  1  0  0  0
 59 60  1  0  0  0
 59 61  1  0  0  0
 59 62  1  0  0  0
 60128  1  0  0  0
 60129  1  0  0  0
 60130  1  0  0  0
 61131  1  0  0  0
 61132  1  0  0  0
 61133  1  0  0  0
 62134  1  0  0  0
 62135  1  0  0  0
 62136  1  0  0  0
 63 65  1  0  0  0
 63137  1  0  0  0
 63138  1  0  0  0
 63139  1  0  0  0
 64140  1  0  0  0
 65141  1  0  0  0
 68 78  1  0  0  0
 71 72  2  0  0  0
 71 73  1  0  0  0
 71142  1  0  0  0
 72 78  1  0  0  0
 72143  1  0  0  0
 73 79  1  0  0  0
 73 82  2  0  0  0
 74144  1  0  0  0
 74145  1  0  0  0
 74146  1  0  0  0
 74 78  1  0  0  0
 75 76  1  0  0  0
 75 79  1  0  0  0
 75147  1  0  0  0
 75148  1  0  0  0
 76 81  1  0  0  0
 76149  1  0  0  0
 76150  1  0  0  0
 77 80  1  0  0  0
 77 81  1  0  0  0
 77151  1  0  0  0
 77152  1  0  0  0
 78153  1  0  0  0
 79154  1  0  0  0
 80155  1  0  0  0
 81156  1  0  0  0
 81157  1  0  0  0
M  CHG  1  81   1
M  ISO  4   1 100  68 101  78 101  80 100
M  END
> <chiral flag>
0

> <version>
0

> <s_m_source_file>
/data/baiqing/PycharmProjects/Reinvent-master-3.2/result/LINK_invent/BTK/process_docking_weight1_custom_sum_contain_oxygen_bond_distance_aromatic_linkinvent_7_9_3/rearranged_h_0113.sdf

> <i_m_source_file_index>
22

> <r_mmod_Potential_Energy-OPLS-2005>
-470.623168945312

> <r_mmod_Stretch_Energy-OPLS-2005>
31.4054260253906

> <r_mmod_Bend_Energy-OPLS-2005>
102.922439575195

> <r_mmod_Torsional_Energy-OPLS-2005>
180.055725097656

> <r_mmod_Improper_Torsional_Energy-OPLS-2005>
3.45223546028137

> <r_mmod_Van_der_Waal_Energy-OPLS-2005>
139.943405151367

> <r_mmod_Electrostatic_Energy-OPLS-2005>
-416.841217041016

> <r_mmod_Solvation_Energy-OPLS-2005>
-519.921508789062

> <b_mmod_Minimization_Converged-OPLS-2005>
0

> <r_mmod_RMS_Derivative-OPLS-2005>
2.75606679916382

$$$$
23
                    3D
 Structure written by MMmdl.
150158  0  0  1  0            999 V2000
  -30.6238  -14.6552   20.4929 C   0  0  0  0  0  0
  -30.4375  -12.3986   19.4575 C   0  0  0  0  0  0
  -29.5085  -12.5054   18.2275 C   0  0  0  0  0  0
  -28.0318  -12.3412   18.6392 C   0  0  0  0  0  0
  -27.6518  -13.2175   19.8622 C   0  0  2  0  0  0
  -28.6969  -13.0853   20.9934 C   0  0  0  0  0  0
  -25.2553  -13.8171   20.5683 C   0  0  0  0  0  0
  -24.1824  -13.0436   20.9196 C   0  0  0  0  0  0
  -24.6393  -11.6908   20.8744 C   0  0  0  0  0  0
  -23.9063  -10.4290   21.0406 C   0  0  0  0  0  0
  -24.3615   -9.4205   21.9183 C   0  0  0  0  0  0
  -23.6290   -8.2241   22.0753 C   0  0  0  0  0  0
  -22.4273   -8.0279   21.3544 C   0  0  0  0  0  0
  -21.9907   -9.0252   20.4646 C   0  0  0  0  0  0
  -22.7235  -10.2132   20.3056 C   0  0  0  0  0  0
  -21.6853   -6.0733   22.5277 C   0  0  0  0  0  0
  -21.4013   -6.5638   23.8210 C   0  0  0  0  0  0
  -21.3660   -5.6791   24.9173 C   0  0  0  0  0  0
  -21.6045   -4.3053   24.7224 C   0  0  0  0  0  0
  -21.8819   -3.8145   23.4345 C   0  0  0  0  0  0
  -21.9192   -4.6961   22.3401 C   0  0  0  0  0  0
  -22.7847  -13.5229   21.1857 C   0  0  0  0  0  0
  -22.1661   -4.2146   21.0979 F   0  0  0  0  0  0
  -21.5630   -3.4537   25.7737 F   0  0  0  0  0  0
  -30.0118  -13.4278   20.4284 N   0  0  0  0  0  0
  -26.2980  -12.9352   20.3314 N   0  0  0  0  0  0
  -25.9322  -11.6509   20.5761 N   0  0  0  0  0  0
  -22.0491  -12.8221   22.0415 N   0  0  0  0  0  0
  -25.4257  -15.1893   20.4077 N   0  0  0  0  0  0
  -31.7949  -14.7906   20.1214 O   0  0  0  0  0  0
  -21.6639   -6.8875   21.4239 O   0  0  0  0  0  0
  -22.3534  -14.5537   20.6706 O   0  0  0  0  0  0
  -24.6269  -31.8594   23.2028 C   0  0  0  0  0  0
  -25.9114  -32.4778   23.8355 C   0  0  1  0  0  0
  -27.2222  -27.3123   20.1137 C   0  0  0  0  0  0
  -25.5926  -33.8578   24.2277 N   0  0  0  0  0  0
  -23.4208  -30.4848   21.5457 C   0  0  2  0  0  0
  -24.8666  -28.9415   20.1108 C   0  0  0  0  0  0
  -22.7480  -29.4625   22.4930 C   0  0  0  0  0  0
  -18.0286  -28.1386   22.8487 C   0  0  0  0  0  0
  -24.1487  -36.7293   23.2641 C   0  0  0  0  0  0
  -25.9638  -30.7882   21.3754 C   0  0  0  0  0  0
  -26.0372  -29.4160   20.7156 C   0  0  0  0  0  0
  -27.2184  -28.6139   20.7071 C   0  0  0  0  0  0
  -26.0255  -26.8963   19.4826 C   0  0  0  0  0  0
  -24.8631  -27.6871   19.4855 C   0  0  0  0  0  0
  -23.6355  -29.8224   20.1603 C   0  0  0  0  0  0
  -25.4112  -36.3082   24.0330 C   0  0  1  0  0  0
  -20.5888  -28.3690   23.1278 C   0  0  2  0  0  0
  -20.6775  -26.9414   22.5406 C   0  0  0  0  0  0
  -19.5748  -26.6383   21.5212 C   0  0  0  0  0  0
  -18.1928  -26.7928   22.1626 C   0  0  0  0  0  0
  -19.1540  -28.8855   23.2879 C   0  0  0  0  0  0
  -18.9465  -30.1458   23.8893 C   0  0  0  0  0  0
  -17.6466  -30.6588   24.0565 C   0  0  0  0  0  0
  -25.9050  -34.9452   23.5104 C   0  0  0  0  0  0
  -16.5355  -29.9089   23.6334 C   0  0  0  0  0  0
  -16.7274  -28.6508   23.0351 C   0  0  0  0  0  0
  -26.4493  -31.6590   25.0729 C   0  0  0  0  0  0
  -25.3725  -31.3734   26.1457 C   0  0  0  0  0  0
  -27.0339  -30.3013   24.6190 C   0  0  0  0  0  0
  -27.6048  -32.4331   25.7501 C   0  0  0  0  0  0
  -27.5576  -37.1803   24.8467 C   0  0  0  0  0  0
  -21.4192  -29.3046   22.3675 N   0  0  0  0  0  0
  -26.4288  -37.3777   23.9411 N   0  0  0  0  0  0
  -24.6894  -31.0606   22.0980 N   0  0  0  0  0  0
  -23.4204  -28.8156   23.3004 O   0  0  0  0  0  0
  -28.3327  -26.4498   20.1675 O   0  0  0  0  0  0
  -26.5623  -34.8922   22.4673 O   0  0  0  0  0  0
  -23.5431  -32.1390   23.7355 O   0  0  0  0  0  0
  -28.7992  -19.3768   20.9467 C   0  0  0  0  0  0
  -28.7927  -17.9509   21.0278 C   0  0  0  0  0  0
  -31.0484  -19.2012   20.1943 C   0  0  0  0  0  0
  -29.9628  -20.0578   20.5203 C   0  0  0  0  0  0
  -29.9308  -17.1661   20.6906 C   0  0  0  0  0  0
  -29.2553  -24.0084   20.3666 C   0  0  0  0  0  0
  -30.1755  -21.6249   20.5107 C   0  0  0  0  0  0
  -28.0775  -24.9931   19.9971 C   0  0  0  0  0  0
  -31.0362  -17.8350   20.2691 N   0  0  0  0  0  0
  -29.8118  -15.7125   20.8267 N   0  0  0  0  0  0
  -29.0843  -22.6421   20.3018 N   0  0  0  0  0  0
  -30.3425  -24.4883   20.6979 O   0  0  0  0  0  0
  -31.4790  -12.5203   19.1549 H   0  0  0  0  0  0
  -30.3722  -11.4059   19.9056 H   0  0  0  0  0  0
  -29.7754  -11.7501   17.4870 H   0  0  0  0  0  0
  -29.6486  -13.4725   17.7419 H   0  0  0  0  0  0
  -27.8724  -11.2887   18.8765 H   0  0  0  0  0  0
  -27.3766  -12.5639   17.7961 H   0  0  0  0  0  0
  -27.6654  -14.2501   19.5136 H   0  0  0  0  0  0
  -28.7108  -12.0671   21.3854 H   0  0  0  0  0  0
  -28.4403  -13.7245   21.8395 H   0  0  0  0  0  0
  -25.2762   -9.5680   22.4755 H   0  0  0  0  0  0
  -24.0000   -7.4631   22.7472 H   0  0  0  0  0  0
  -21.0839   -8.8769   19.8952 H   0  0  0  0  0  0
  -22.3693  -10.9670   19.6164 H   0  0  0  0  0  0
  -21.2005   -7.6146   23.9712 H   0  0  0  0  0  0
  -21.1484   -6.0523   25.9076 H   0  0  0  0  0  0
  -22.0599   -2.7607   23.2845 H   0  0  0  0  0  0
  -22.4111  -11.9883   22.4800 H   0  0  0  0  0  0
  -21.1110  -13.1246   22.2627 H   0  0  0  0  0  0
  -24.6499  -15.8363   20.4997 H   0  0  0  0  0  0
  -26.2590  -15.6252   20.0352 H   0  0  0  0  0  0
  -26.7182  -32.5440   23.1102 H   0  0  0  0  0  0
  -25.0066  -33.9724   25.0417 H   0  0  0  0  0  0
  -22.7148  -31.3057   21.4035 H   0  0  0  0  0  0
  -23.3749  -35.9627   23.3306 H   0  0  0  0  0  0
  -24.3575  -36.8908   22.2054 H   0  0  0  0  0  0
  -23.7244  -37.6498   23.6660 H   0  0  0  0  0  0
  -26.0977  -31.5524   20.6084 H   0  0  0  0  0  0
  -26.8434  -30.8344   22.0059 H   0  0  0  0  0  0
  -28.1156  -28.9735   21.1914 H   0  0  0  0  0  0
  -25.9515  -25.9413   18.9857 H   0  0  0  0  0  0
  -23.9664  -27.3181   19.0066 H   0  0  0  0  0  0
  -23.7569  -30.6002   19.4055 H   0  0  0  0  0  0
  -22.7549  -29.2538   19.8559 H   0  0  0  0  0  0
  -25.1292  -36.1931   25.0823 H   0  0  0  0  0  0
  -20.9981  -28.3263   24.1399 H   0  0  0  0  0  0
  -20.5671  -26.2304   23.3608 H   0  0  0  0  0  0
  -21.6642  -26.7437   22.1200 H   0  0  0  0  0  0
  -19.6911  -25.6294   21.1242 H   0  0  0  0  0  0
  -19.6684  -27.3196   20.6743 H   0  0  0  0  0  0
  -17.4197  -26.6674   21.4030 H   0  0  0  0  0  0
  -18.0330  -26.0068   22.9021 H   0  0  0  0  0  0
  -19.7942  -30.7276   24.2254 H   0  0  0  0  0  0
  -17.5024  -31.6267   24.5169 H   0  0  0  0  0  0
  -15.5358  -30.2994   23.7663 H   0  0  0  0  0  0
  -15.8671  -28.0834   22.7063 H   0  0  0  0  0  0
  -24.5898  -30.7084   25.7792 H   0  0  0  0  0  0
  -24.8921  -32.2905   26.4880 H   0  0  0  0  0  0
  -25.8049  -30.8916   27.0236 H   0  0  0  0  0  0
  -26.2919  -29.6765   24.1206 H   0  0  0  0  0  0
  -27.4027  -29.7268   25.4698 H   0  0  0  0  0  0
  -27.8791  -30.4301   23.9425 H   0  0  0  0  0  0
  -27.2649  -33.3629   26.2075 H   0  0  0  0  0  0
  -28.3859  -32.6894   25.0332 H   0  0  0  0  0  0
  -28.0714  -31.8460   26.5421 H   0  0  0  0  0  0
  -28.2598  -38.0096   24.7504 H   0  0  0  0  0  0
  -28.1065  -36.2626   24.6298 H   0  0  0  0  0  0
  -27.2294  -37.1458   25.8870 H   0  0  0  0  0  0
  -20.9369  -29.8788   21.6901 H   0  0  0  0  0  0
  -26.0167  -38.2852   24.1409 H   0  0  0  0  0  0
  -27.9225  -19.9359   21.2408 H   0  0  0  0  0  0
  -27.8893  -17.4658   21.3718 H   0  0  0  0  0  0
  -31.9890  -19.6305   19.8812 H   0  0  0  0  0  0
  -30.9336  -21.8321   19.7530 H   0  0  0  0  0  0
  -30.6571  -21.8641   21.4605 H   0  0  0  0  0  0
  -27.2173  -24.7004   20.6013 H   0  0  0  0  0  0
  -27.8278  -24.7969   18.9540 H   0  0  0  0  0  0
  -28.9049  -15.4075   21.1383 H   0  0  0  0  0  0
  -28.1737  -22.3044   20.0205 H   0  0  0  0  0  0
  1 25  1  0  0  0
  1 30  2  0  0  0
  1 80  1  0  0  0
  2  3  1  0  0  0
  2 25  1  0  0  0
  2 83  1  0  0  0
  2 84  1  0  0  0
  3  4  1  0  0  0
  3 85  1  0  0  0
  3 86  1  0  0  0
  4  5  1  0  0  0
  4 87  1  0  0  0
  4 88  1  0  0  0
  5  6  1  0  0  0
  5 26  1  0  0  0
  5 89  1  0  0  0
  6 25  1  0  0  0
  6 90  1  0  0  0
  6 91  1  0  0  0
  7  8  2  0  0  0
  7 26  1  0  0  0
  7 29  1  0  0  0
  8  9  1  0  0  0
  8 22  1  0  0  0
  9 10  1  0  0  0
  9 27  2  0  0  0
 10 11  2  0  0  0
 10 15  1  0  0  0
 11 12  1  0  0  0
 11 92  1  0  0  0
 12 13  2  0  0  0
 12 93  1  0  0  0
 13 14  1  0  0  0
 13 31  1  0  0  0
 14 15  2  0  0  0
 14 94  1  0  0  0
 15 95  1  0  0  0
 16 17  2  0  0  0
 16 21  1  0  0  0
 16 31  1  0  0  0
 17 18  1  0  0  0
 17 96  1  0  0  0
 18 19  2  0  0  0
 18 97  1  0  0  0
 19 20  1  0  0  0
 19 24  1  0  0  0
 20 21  2  0  0  0
 20 98  1  0  0  0
 21 23  1  0  0  0
 22 28  1  0  0  0
 22 32  2  0  0  0
 26 27  1  0  0  0
 28 99  1  0  0  0
 28100  1  0  0  0
 29101  1  0  0  0
 29102  1  0  0  0
 33 34  1  0  0  0
 33 66  1  0  0  0
 33 70  2  0  0  0
 34 36  1  0  0  0
 34 59  1  0  0  0
 34103  1  0  0  0
 35 44  2  0  0  0
 35 45  1  0  0  0
 35 68  1  0  0  0
 36 56  1  0  0  0
 36104  1  0  0  0
 37 39  1  0  0  0
 37 47  1  0  0  0
 37 66  1  0  0  0
 37105  1  0  0  0
 38 43  2  0  0  0
 38 46  1  0  0  0
 38 47  1  0  0  0
 39 64  1  0  0  0
 39 67  2  0  0  0
 40 52  1  0  0  0
 40 53  2  0  0  0
 40 58  1  0  0  0
 41106  1  0  0  0
 41107  1  0  0  0
 41108  1  0  0  0
 41 48  1  0  0  0
 42 43  1  0  0  0
 42 66  1  0  0  0
 42109  1  0  0  0
 42110  1  0  0  0
 43 44  1  0  0  0
 44111  1  0  0  0
 45 46  2  0  0  0
 45112  1  0  0  0
 46113  1  0  0  0
 47114  1  0  0  0
 47115  1  0  0  0
 48 56  1  0  0  0
 48 65  1  0  0  0
 48116  1  0  0  0
 49 50  1  0  0  0
 49 53  1  0  0  0
 49 64  1  0  0  0
 49117  1  0  0  0
 50 51  1  0  0  0
 50118  1  0  0  0
 50119  1  0  0  0
 51 52  1  0  0  0
 51120  1  0  0  0
 51121  1  0  0  0
 52122  1  0  0  0
 52123  1  0  0  0
 53 54  1  0  0  0
 54 55  2  0  0  0
 54124  1  0  0  0
 55 57  1  0  0  0
 55125  1  0  0  0
 56 69  2  0  0  0
 57 58  2  0  0  0
 57126  1  0  0  0
 58127  1  0  0  0
 59 60  1  0  0  0
 59 61  1  0  0  0
 59 62  1  0  0  0
 60128  1  0  0  0
 60129  1  0  0  0
 60130  1  0  0  0
 61131  1  0  0  0
 61132  1  0  0  0
 61133  1  0  0  0
 62134  1  0  0  0
 62135  1  0  0  0
 62136  1  0  0  0
 63 65  1  0  0  0
 63137  1  0  0  0
 63138  1  0  0  0
 63139  1  0  0  0
 64140  1  0  0  0
 65141  1  0  0  0
 68 78  1  0  0  0
 71 72  2  0  0  0
 71 74  1  0  0  0
 71142  1  0  0  0
 72 75  1  0  0  0
 72143  1  0  0  0
 73 74  2  0  0  0
 73 79  1  0  0  0
 73144  1  0  0  0
 74 77  1  0  0  0
 75 79  2  0  0  0
 75 80  1  0  0  0
 76 78  1  0  0  0
 76 81  1  0  0  0
 76 82  2  0  0  0
 77 81  1  0  0  0
 77145  1  0  0  0
 77146  1  0  0  0
 78147  1  0  0  0
 78148  1  0  0  0
 80149  1  0  0  0
 81150  1  0  0  0
M  ISO  4   1 100  68 101  78 101  80 100
M  END
> <chiral flag>
0

> <version>
0

> <s_m_source_file>
/data/baiqing/PycharmProjects/Reinvent-master-3.2/result/LINK_invent/BTK/process_docking_weight1_custom_sum_contain_oxygen_bond_distance_aromatic_linkinvent_7_9_3/rearranged_h_0113.sdf

> <i_m_source_file_index>
23

> <r_mmod_Potential_Energy-OPLS-2005>
-131.440856933594

> <r_mmod_Stretch_Energy-OPLS-2005>
81.7145309448242

> <r_mmod_Bend_Energy-OPLS-2005>
144.455032348633

> <r_mmod_Torsional_Energy-OPLS-2005>
198.656021118164

> <r_mmod_Improper_Torsional_Energy-OPLS-2005>
4.57702112197876

> <r_mmod_Van_der_Waal_Energy-OPLS-2005>
147.417739868164

> <r_mmod_Electrostatic_Energy-OPLS-2005>
-481.898803710938

> <r_mmod_Solvation_Energy-OPLS-2005>
-279.238067626953

> <b_mmod_Minimization_Converged-OPLS-2005>
0

> <r_mmod_RMS_Derivative-OPLS-2005>
0.381732821464539

$$$$
24
                    3D
 Structure written by MMmdl.
169177  0  0  1  0            999 V2000
  -30.5473  -14.9507   20.4155 C   0  0  0  0  0  0
  -30.4363  -12.5840   19.5033 C   0  0  0  0  0  0
  -29.5316  -12.5368   18.2517 C   0  0  0  0  0  0
  -28.0565  -12.3404   18.6540 C   0  0  0  0  0  0
  -27.6318  -13.2544   19.8366 C   0  0  2  0  0  0
  -28.6746  -13.2690   20.9755 C   0  0  0  0  0  0
  -25.2462  -13.8216   20.5686 C   0  0  0  0  0  0
  -24.1789  -13.0420   20.9220 C   0  0  0  0  0  0
  -24.6405  -11.6914   20.8706 C   0  0  0  0  0  0
  -23.9070  -10.4285   21.0367 C   0  0  0  0  0  0
  -24.3622   -9.4209   21.9147 C   0  0  0  0  0  0
  -23.6302   -8.2241   22.0738 C   0  0  0  0  0  0
  -22.4275   -8.0267   21.3539 C   0  0  0  0  0  0
  -21.9903   -9.0226   20.4637 C   0  0  0  0  0  0
  -22.7229  -10.2111   20.3030 C   0  0  0  0  0  0
  -21.6864   -6.0721   22.5276 C   0  0  0  0  0  0
  -21.4023   -6.5623   23.8208 C   0  0  0  0  0  0
  -21.3662   -5.6780   24.9172 C   0  0  0  0  0  0
  -21.6046   -4.3044   24.7234 C   0  0  0  0  0  0
  -21.8820   -3.8132   23.4354 C   0  0  0  0  0  0
  -21.9203   -4.6941   22.3409 C   0  0  0  0  0  0
  -22.7813  -13.5188   21.1889 C   0  0  0  0  0  0
  -22.1658   -4.2123   21.0987 F   0  0  0  0  0  0
  -21.5633   -3.4528   25.7751 F   0  0  0  0  0  0
  -29.9489  -13.6886   20.3809 N   0  0  0  0  0  0
  -26.2898  -12.9457   20.3207 N   0  0  0  0  0  0
  -25.9345  -11.6571   20.5687 N   0  0  0  0  0  0
  -22.0456  -12.8171   22.0442 N   0  0  0  0  0  0
  -25.4074  -15.1948   20.4093 N   0  0  0  0  0  0
  -31.7469  -15.0041   20.1271 O   0  0  0  0  0  0
  -21.6652   -6.8853   21.4236 O   0  0  0  0  0  0
  -22.3493  -14.5476   20.6725 O   0  0  0  0  0  0
  -24.6477  -31.8420   23.1851 C   0  0  0  0  0  0
  -25.9230  -32.4689   23.8262 C   0  0  1  0  0  0
  -27.2186  -27.1019   20.1423 C   0  0  0  0  0  0
  -25.5976  -33.8495   24.2192 N   0  0  0  0  0  0
  -23.4528  -30.4586   21.5323 C   0  0  2  0  0  0
  -24.9030  -28.8832   20.1039 C   0  0  0  0  0  0
  -22.7591  -29.4532   22.4856 C   0  0  0  0  0  0
  -18.0315  -28.1394   22.8466 C   0  0  0  0  0  0
  -24.1493  -36.7240   23.2640 C   0  0  0  0  0  0
  -26.0119  -30.7005   21.3928 C   0  0  0  0  0  0
  -26.0797  -29.3096   20.7314 C   0  0  0  0  0  0
  -27.2334  -28.4329   20.7379 C   0  0  0  0  0  0
  -26.0202  -26.7981   19.4561 C   0  0  0  0  0  0
  -24.8900  -27.6430   19.4499 C   0  0  0  0  0  0
  -23.6793  -29.7866   20.1514 C   0  0  0  0  0  0
  -25.4132  -36.3034   24.0318 C   0  0  1  0  0  0
  -20.5926  -28.3738   23.1227 C   0  0  2  0  0  0
  -20.6801  -26.9442   22.5401 C   0  0  0  0  0  0
  -19.5776  -26.6385   21.5210 C   0  0  0  0  0  0
  -18.1957  -26.7935   22.1615 C   0  0  0  0  0  0
  -19.1565  -28.8885   23.2837 C   0  0  0  0  0  0
  -18.9480  -30.1480   23.8864 C   0  0  0  0  0  0
  -17.6474  -30.6593   24.0554 C   0  0  0  0  0  0
  -25.9087  -34.9408   23.5074 C   0  0  0  0  0  0
  -16.5367  -29.9076   23.6337 C   0  0  0  0  0  0
  -16.7296  -28.6495   23.0360 C   0  0  0  0  0  0
  -26.4538  -31.6551   25.0712 C   0  0  0  0  0  0
  -25.3711  -31.3715   26.1392 C   0  0  0  0  0  0
  -27.0416  -30.2949   24.6311 C   0  0  0  0  0  0
  -27.6079  -32.4311   25.7496 C   0  0  0  0  0  0
  -27.5580  -37.1787   24.8469 C   0  0  0  0  0  0
  -21.4280  -29.3058   22.3600 N   0  0  0  0  0  0
  -26.4296  -37.3749   23.9406 N   0  0  0  0  0  0
  -24.7240  -31.0226   22.0914 N   0  0  0  0  0  0
  -23.4214  -28.8105   23.3045 O   0  0  0  0  0  0
  -28.2604  -26.0975   20.2616 O   0  0  0  0  0  0
  -26.5664  -34.8904   22.4648 O   0  0  0  0  0  0
  -23.5591  -32.1322   23.7041 O   0  0  0  0  0  0
  -28.9098  -22.0351   18.0605 C   0  0  0  0  0  0
  -29.1432  -19.8405   18.1850 C   0  0  0  0  0  0
  -29.0649  -20.8582   17.2916 C   0  0  0  0  0  0
  -28.9226  -21.7870   19.4110 C   0  0  0  0  0  0
  -30.1367  -23.3957   21.0186 C   0  0  0  0  0  0
  -28.4193  -21.5908   13.4720 C   0  0  0  0  0  0
  -26.8483  -21.8125   15.4178 C   0  0  0  0  0  0
  -29.2335  -19.0860   20.5316 C   0  0  0  0  0  0
  -30.1523  -17.6688   20.2319 C   0  0  0  0  0  0
  -28.1856  -24.6120   19.7443 C   0  0  0  0  0  0
  -29.1480  -20.7261   15.7812 C   0  0  1  0  0  0
  -28.7781  -23.1215   20.3660 C   0  0  1  0  0  0
  -28.3305  -21.7925   14.9978 C   0  0  0  0  0  0
  -29.1354  -20.2856   19.5033 N   0  0  0  0  0  0
  -29.7887  -16.1513   20.5511 N   0  0  0  0  0  0
  -30.5686  -20.7482   15.4140 N   0  3  0  0  0  0
  -31.4768  -12.7207   19.2070 H   0  0  0  0  0  0
  -30.4029  -11.6287   20.0286 H   0  0  0  0  0  0
  -29.8485  -11.7334   17.5839 H   0  0  0  0  0  0
  -29.6449  -13.4636   17.6871 H   0  0  0  0  0  0
  -27.9297  -11.2930   18.9294 H   0  0  0  0  0  0
  -27.4096  -12.5091   17.7921 H   0  0  0  0  0  0
  -27.5973  -14.2649   19.4253 H   0  0  0  0  0  0
  -28.7677  -12.2827   21.4345 H   0  0  0  0  0  0
  -28.3799  -13.9581   21.7685 H   0  0  0  0  0  0
  -25.2764   -9.5706   22.4725 H   0  0  0  0  0  0
  -24.0018   -7.4649   22.7464 H   0  0  0  0  0  0
  -21.0827   -8.8725   19.8953 H   0  0  0  0  0  0
  -22.3652  -10.9634   19.6146 H   0  0  0  0  0  0
  -21.2002   -7.6131   23.9700 H   0  0  0  0  0  0
  -21.1488   -6.0514   25.9074 H   0  0  0  0  0  0
  -22.0602   -2.7589   23.2871 H   0  0  0  0  0  0
  -22.4077  -11.9859   22.4880 H   0  0  0  0  0  0
  -21.1052  -13.1166   22.2575 H   0  0  0  0  0  0
  -24.6270  -15.8351   20.5116 H   0  0  0  0  0  0
  -26.2337  -15.6394   20.0312 H   0  0  0  0  0  0
  -26.7309  -32.5273   23.0994 H   0  0  0  0  0  0
  -25.0111  -33.9612   25.0337 H   0  0  0  0  0  0
  -22.7589  -31.2872   21.3760 H   0  0  0  0  0  0
  -23.3777  -35.9547   23.3284 H   0  0  0  0  0  0
  -24.3580  -36.8885   22.2056 H   0  0  0  0  0  0
  -23.7221  -37.6422   23.6686 H   0  0  0  0  0  0
  -26.1753  -31.4531   20.6192 H   0  0  0  0  0  0
  -26.8805  -30.7498   22.0380 H   0  0  0  0  0  0
  -28.1271  -28.7491   21.2576 H   0  0  0  0  0  0
  -25.9023  -25.8656   18.9303 H   0  0  0  0  0  0
  -23.9971  -27.3162   18.9339 H   0  0  0  0  0  0
  -23.8136  -30.5605   19.3957 H   0  0  0  0  0  0
  -22.7941  -29.2275   19.8436 H   0  0  0  0  0  0
  -25.1320  -36.1862   25.0812 H   0  0  0  0  0  0
  -21.0011  -28.3320   24.1347 H   0  0  0  0  0  0
  -20.5713  -26.2350   23.3618 H   0  0  0  0  0  0
  -21.6666  -26.7460   22.1185 H   0  0  0  0  0  0
  -19.6945  -25.6285   21.1265 H   0  0  0  0  0  0
  -19.6708  -27.3173   20.6719 H   0  0  0  0  0  0
  -17.4231  -26.6683   21.4013 H   0  0  0  0  0  0
  -18.0353  -26.0081   22.9014 H   0  0  0  0  0  0
  -19.7954  -30.7310   24.2220 H   0  0  0  0  0  0
  -17.5026  -31.6271   24.5156 H   0  0  0  0  0  0
  -15.5368  -30.2974   23.7682 H   0  0  0  0  0  0
  -15.8692  -28.0808   22.7101 H   0  0  0  0  0  0
  -24.5918  -30.7050   25.7678 H   0  0  0  0  0  0
  -24.8865  -32.2876   26.4777 H   0  0  0  0  0  0
  -25.7981  -30.8900   27.0198 H   0  0  0  0  0  0
  -26.3038  -29.6658   24.1320 H   0  0  0  0  0  0
  -27.4028  -29.7265   25.4893 H   0  0  0  0  0  0
  -27.8950  -30.4193   23.9641 H   0  0  0  0  0  0
  -27.2701  -33.3648   26.2003 H   0  0  0  0  0  0
  -28.3917  -32.6805   25.0329 H   0  0  0  0  0  0
  -28.0716  -31.8472   26.5456 H   0  0  0  0  0  0
  -28.2591  -38.0094   24.7534 H   0  0  0  0  0  0
  -28.1093  -36.2627   24.6285 H   0  0  0  0  0  0
  -27.2300  -37.1410   25.8874 H   0  0  0  0  0  0
  -20.9514  -29.8744   21.6736 H   0  0  0  0  0  0
  -26.0160  -38.2821   24.1397 H   0  0  0  0  0  0
  -28.7883  -23.0101   17.6156 H   0  0  0  0  0  0
  -29.2150  -18.7879   17.9550 H   0  0  0  0  0  0
  -30.4888  -22.5325   21.5829 H   0  0  0  0  0  0
  -30.0730  -24.2386   21.7063 H   0  0  0  0  0  0
  -30.8931  -23.6336   20.2695 H   0  0  0  0  0  0
  -27.8263  -22.3391   12.9439 H   0  0  0  0  0  0
  -28.0435  -20.6098   13.1765 H   0  0  0  0  0  0
  -29.4419  -21.6813   13.1039 H   0  0  0  0  0  0
  -26.3028  -22.6036   14.9027 H   0  0  0  0  0  0
  -26.7201  -21.9860   16.4857 H   0  0  0  0  0  0
  -26.3650  -20.8644   15.1800 H   0  0  0  0  0  0
  -29.5341  -19.5089   21.4893 H   0  0  0  0  0  0
  -28.2034  -18.7636   20.6875 H   0  0  0  0  0  0
  -31.1064  -17.8400   20.7326 H   0  0  0  0  0  0
  -30.4472  -17.6530   19.1848 H   0  0  0  0  0  0
  -27.1558  -24.3756   19.5000 H   0  0  0  0  0  0
  -28.6764  -24.7405   18.7829 H   0  0  0  0  0  0
  -28.7527  -19.7416   15.5221 H   0  0  0  0  0  0
  -28.0990  -22.8505   21.1757 H   0  0  0  0  0  0
  -28.7449  -22.7762   15.2187 H   0  0  0  0  0  0
  -28.8257  -15.9959   20.8094 H   0  0  0  0  0  0
  -30.9812  -21.6258   15.6696 H   0  0  0  0  0  0
  -30.6815  -20.6069   14.4286 H   0  0  0  0  0  0
  -31.0515  -20.0132   15.8983 H   0  0  0  0  0  0
  1 25  1  0  0  0
  1 30  2  0  0  0
  1 85  1  0  0  0
  2  3  1  0  0  0
  2 25  1  0  0  0
  2 87  1  0  0  0
  2 88  1  0  0  0
  3  4  1  0  0  0
  3 89  1  0  0  0
  3 90  1  0  0  0
  4  5  1  0  0  0
  4 91  1  0  0  0
  4 92  1  0  0  0
  5  6  1  0  0  0
  5 26  1  0  0  0
  5 93  1  0  0  0
  6 25  1  0  0  0
  6 94  1  0  0  0
  6 95  1  0  0  0
  7  8  2  0  0  0
  7 26  1  0  0  0
  7 29  1  0  0  0
  8  9  1  0  0  0
  8 22  1  0  0  0
  9 10  1  0  0  0
  9 27  2  0  0  0
 10 11  2  0  0  0
 10 15  1  0  0  0
 11 12  1  0  0  0
 11 96  1  0  0  0
 12 13  2  0  0  0
 12 97  1  0  0  0
 13 14  1  0  0  0
 13 31  1  0  0  0
 14 15  2  0  0  0
 14 98  1  0  0  0
 15 99  1  0  0  0
 16 17  2  0  0  0
 16 21  1  0  0  0
 16 31  1  0  0  0
 17 18  1  0  0  0
 17100  1  0  0  0
 18 19  2  0  0  0
 18101  1  0  0  0
 19 20  1  0  0  0
 19 24  1  0  0  0
 20 21  2  0  0  0
 20102  1  0  0  0
 21 23  1  0  0  0
 22 28  1  0  0  0
 22 32  2  0  0  0
 26 27  1  0  0  0
 28103  1  0  0  0
 28104  1  0  0  0
 29105  1  0  0  0
 29106  1  0  0  0
 33 34  1  0  0  0
 33 66  1  0  0  0
 33 70  2  0  0  0
 34 36  1  0  0  0
 34 59  1  0  0  0
 34107  1  0  0  0
 35 44  2  0  0  0
 35 45  1  0  0  0
 35 68  1  0  0  0
 36 56  1  0  0  0
 36108  1  0  0  0
 37 39  1  0  0  0
 37 47  1  0  0  0
 37 66  1  0  0  0
 37109  1  0  0  0
 38 43  2  0  0  0
 38 46  1  0  0  0
 38 47  1  0  0  0
 39 64  1  0  0  0
 39 67  2  0  0  0
 40 52  1  0  0  0
 40 53  2  0  0  0
 40 58  1  0  0  0
 41110  1  0  0  0
 41111  1  0  0  0
 41112  1  0  0  0
 41 48  1  0  0  0
 42 43  1  0  0  0
 42 66  1  0  0  0
 42113  1  0  0  0
 42114  1  0  0  0
 43 44  1  0  0  0
 44115  1  0  0  0
 45 46  2  0  0  0
 45116  1  0  0  0
 46117  1  0  0  0
 47118  1  0  0  0
 47119  1  0  0  0
 48 56  1  0  0  0
 48 65  1  0  0  0
 48120  1  0  0  0
 49 50  1  0  0  0
 49 53  1  0  0  0
 49 64  1  0  0  0
 49121  1  0  0  0
 50 51  1  0  0  0
 50122  1  0  0  0
 50123  1  0  0  0
 51 52  1  0  0  0
 51124  1  0  0  0
 51125  1  0  0  0
 52126  1  0  0  0
 52127  1  0  0  0
 53 54  1  0  0  0
 54 55  2  0  0  0
 54128  1  0  0  0
 55 57  1  0  0  0
 55129  1  0  0  0
 56 69  2  0  0  0
 57 58  2  0  0  0
 57130  1  0  0  0
 58131  1  0  0  0
 59 60  1  0  0  0
 59 61  1  0  0  0
 59 62  1  0  0  0
 60132  1  0  0  0
 60133  1  0  0  0
 60134  1  0  0  0
 61135  1  0  0  0
 61136  1  0  0  0
 61137  1  0  0  0
 62138  1  0  0  0
 62139  1  0  0  0
 62140  1  0  0  0
 63 65  1  0  0  0
 63141  1  0  0  0
 63142  1  0  0  0
 63143  1  0  0  0
 64144  1  0  0  0
 65145  1  0  0  0
 68 80  1  0  0  0
 71 73  1  0  0  0
 71 74  2  0  0  0
 71146  1  0  0  0
 72 73  2  0  0  0
 72 84  1  0  0  0
 72147  1  0  0  0
 73 81  1  0  0  0
 74 82  1  0  0  0
 74 84  1  0  0  0
 75148  1  0  0  0
 75149  1  0  0  0
 75150  1  0  0  0
 75 82  1  0  0  0
 76151  1  0  0  0
 76152  1  0  0  0
 76153  1  0  0  0
 76 83  1  0  0  0
 77 83  1  0  0  0
 77154  1  0  0  0
 77155  1  0  0  0
 77156  1  0  0  0
 78 79  1  0  0  0
 78 84  1  0  0  0
 78157  1  0  0  0
 78158  1  0  0  0
 79 85  1  0  0  0
 79159  1  0  0  0
 79160  1  0  0  0
 80 82  1  0  0  0
 80161  1  0  0  0
 80162  1  0  0  0
 81 83  1  0  0  0
 81 86  1  0  0  0
 81163  1  0  0  0
 82164  1  0  0  0
 83165  1  0  0  0
 85166  1  0  0  0
 86167  1  0  0  0
 86168  1  0  0  0
 86169  1  0  0  0
M  CHG  1  86   1
M  ISO  4   1 100  68 101  80 101  85 100
M  END
> <chiral flag>
0

> <version>
0

> <s_m_source_file>
/data/baiqing/PycharmProjects/Reinvent-master-3.2/result/LINK_invent/BTK/process_docking_weight1_custom_sum_contain_oxygen_bond_distance_aromatic_linkinvent_7_9_3/rearranged_h_0113.sdf

> <i_m_source_file_index>
24

> <r_mmod_Potential_Energy-OPLS-2005>
377.477081298828

> <r_mmod_Stretch_Energy-OPLS-2005>
324.591369628906

> <r_mmod_Bend_Energy-OPLS-2005>
355.925323486328

> <r_mmod_Torsional_Energy-OPLS-2005>
234.452011108398

> <r_mmod_Improper_Torsional_Energy-OPLS-2005>
5.63023328781128

> <r_mmod_Van_der_Waal_Energy-OPLS-2005>
118.078750610352

> <r_mmod_Electrostatic_Energy-OPLS-2005>
-383.590972900391

> <r_mmod_Solvation_Energy-OPLS-2005>
-484.886199951172

> <b_mmod_Minimization_Converged-OPLS-2005>
0

> <r_mmod_RMS_Derivative-OPLS-2005>
2.65199708938599

$$$$
25
                    3D
 Structure written by MMmdl.
167175  0  0  1  0            999 V2000
  -30.5610  -14.7508   20.5068 C   0  0  0  0  0  0
  -30.4430  -12.4727   19.4417 C   0  0  0  0  0  0
  -29.4990  -12.5039   18.2160 C   0  0  0  0  0  0
  -28.0275  -12.3145   18.6447 C   0  0  0  0  0  0
  -27.6342  -13.2184   19.8436 C   0  0  2  0  0  0
  -28.6835  -13.1223   20.9705 C   0  0  0  0  0  0
  -25.2452  -13.8158   20.5691 C   0  0  0  0  0  0
  -24.1764  -13.0391   20.9237 C   0  0  0  0  0  0
  -24.6354  -11.6868   20.8754 C   0  0  0  0  0  0
  -23.9048  -10.4243   21.0414 C   0  0  0  0  0  0
  -24.3594   -9.4163   21.9196 C   0  0  0  0  0  0
  -23.6263   -8.2203   22.0790 C   0  0  0  0  0  0
  -22.4250   -8.0249   21.3575 C   0  0  0  0  0  0
  -21.9881   -9.0232   20.4685 C   0  0  0  0  0  0
  -22.7219  -10.2098   20.3076 C   0  0  0  0  0  0
  -21.6840   -6.0713   22.5286 C   0  0  0  0  0  0
  -21.4022   -6.5629   23.8216 C   0  0  0  0  0  0
  -21.3670   -5.6795   24.9177 C   0  0  0  0  0  0
  -21.6050   -4.3060   24.7247 C   0  0  0  0  0  0
  -21.8789   -3.8135   23.4362 C   0  0  0  0  0  0
  -21.9166   -4.6941   22.3405 C   0  0  0  0  0  0
  -22.7786  -13.5176   21.1874 C   0  0  0  0  0  0
  -22.1631   -4.2121   21.0994 F   0  0  0  0  0  0
  -21.5623   -3.4550   25.7760 F   0  0  0  0  0  0
  -29.9757  -13.5107   20.3857 N   0  0  0  0  0  0
  -26.2877  -12.9343   20.3233 N   0  0  0  0  0  0
  -25.9262  -11.6504   20.5725 N   0  0  0  0  0  0
  -22.0410  -12.8230   22.0466 N   0  0  0  0  0  0
  -25.4056  -15.1898   20.4138 N   0  0  0  0  0  0
  -31.7645  -14.9020   20.2797 O   0  0  0  0  0  0
  -21.6616   -6.8853   21.4255 O   0  0  0  0  0  0
  -22.3459  -14.5467   20.6685 O   0  0  0  0  0  0
  -24.6238  -31.8556   23.1960 C   0  0  0  0  0  0
  -25.9061  -32.4753   23.8320 C   0  0  1  0  0  0
  -27.2474  -27.2909   20.1420 C   0  0  0  0  0  0
  -25.5836  -33.8565   24.2245 N   0  0  0  0  0  0
  -23.4224  -30.4757   21.5329 C   0  0  2  0  0  0
  -24.8813  -28.9180   20.1117 C   0  0  0  0  0  0
  -22.7444  -29.4608   22.4859 C   0  0  0  0  0  0
  -18.0275  -28.1393   22.8498 C   0  0  0  0  0  0
  -24.1458  -36.7313   23.2649 C   0  0  0  0  0  0
  -25.9611  -30.7812   21.3688 C   0  0  0  0  0  0
  -26.0467  -29.4004   20.7244 C   0  0  0  0  0  0
  -27.2307  -28.6000   20.7283 C   0  0  0  0  0  0
  -26.0679  -26.8706   19.4942 C   0  0  0  0  0  0
  -24.8975  -27.6587   19.4849 C   0  0  0  0  0  0
  -23.6460  -29.7975   20.1547 C   0  0  0  0  0  0
  -25.4079  -36.3104   24.0333 C   0  0  1  0  0  0
  -20.5871  -28.3715   23.1244 C   0  0  2  0  0  0
  -20.6741  -26.9426   22.5403 C   0  0  0  0  0  0
  -19.5730  -26.6397   21.5190 C   0  0  0  0  0  0
  -18.1907  -26.7936   22.1618 C   0  0  0  0  0  0
  -19.1529  -28.8861   23.2861 C   0  0  0  0  0  0
  -18.9480  -30.1461   23.8878 C   0  0  0  0  0  0
  -17.6487  -30.6587   24.0593 C   0  0  0  0  0  0
  -25.9025  -34.9450   23.5113 C   0  0  0  0  0  0
  -16.5368  -29.9107   23.6363 C   0  0  0  0  0  0
  -16.7257  -28.6522   23.0371 C   0  0  0  0  0  0
  -26.4465  -31.6583   25.0709 C   0  0  0  0  0  0
  -25.3693  -31.3786   26.1457 C   0  0  0  0  0  0
  -27.0307  -30.2980   24.6219 C   0  0  0  0  0  0
  -27.6009  -32.4319   25.7485 C   0  0  0  0  0  0
  -27.5555  -37.1806   24.8460 C   0  0  0  0  0  0
  -21.4146  -29.3064   22.3594 N   0  0  0  0  0  0
  -26.4267  -37.3790   23.9425 N   0  0  0  0  0  0
  -24.6872  -31.0555   22.0896 N   0  0  0  0  0  0
  -23.4136  -28.8164   23.2968 O   0  0  0  0  0  0
  -28.3688  -26.4330   20.1374 O   0  0  0  0  0  0
  -26.5646  -34.8925   22.4712 O   0  0  0  0  0  0
  -23.5390  -32.1356   23.7255 O   0  0  0  0  0  0
  -29.2967  -19.7849   20.9312 C   0  0  0  0  0  0
  -29.8829  -21.1116   20.8291 C   0  0  0  0  0  0
  -31.3084  -21.0980   20.6640 C   0  0  0  0  0  0
  -30.0665  -18.5674   20.7747 C   0  0  0  0  0  0
  -31.9382  -19.8613   20.3081 C   0  0  0  0  0  0
  -33.4045  -19.7423   19.9199 C   0  0  0  0  0  0
  -32.3009  -22.5205   22.5659 C   0  0  0  0  0  0
  -32.0673  -23.5897   20.2663 C   0  0  0  0  0  0
  -27.2053  -25.0134   21.8676 C   0  0  0  0  0  0
  -29.0398  -22.4325   21.1804 C   0  0  0  0  0  0
  -29.7009  -17.1527   21.3907 C   0  0  0  0  0  0
  -28.7347  -23.6954   20.1977 C   0  0  0  0  0  0
  -32.2384  -22.2840   21.0427 C   0  0  0  0  0  0
  -28.3947  -25.1299   20.8940 C   0  0  1  0  0  0
  -31.3370  -18.6531   20.3641 N   0  0  0  0  0  0
  -29.6843  -15.8078   20.6717 N   0  0  0  0  0  0
  -31.4735  -12.6398   19.1288 H   0  0  0  0  0  0
  -30.4290  -11.4920   19.9185 H   0  0  0  0  0  0
  -29.7797  -11.7297   17.5003 H   0  0  0  0  0  0
  -29.6040  -13.4533   17.6897 H   0  0  0  0  0  0
  -27.9007  -11.2679   18.9243 H   0  0  0  0  0  0
  -27.3562  -12.4791   17.8018 H   0  0  0  0  0  0
  -27.6321  -14.2415   19.4672 H   0  0  0  0  0  0
  -28.7330  -12.1049   21.3629 H   0  0  0  0  0  0
  -28.4143  -13.7575   21.8168 H   0  0  0  0  0  0
  -25.2717   -9.5642   22.4787 H   0  0  0  0  0  0
  -23.9961   -7.4593   22.7506 H   0  0  0  0  0  0
  -21.0800   -8.8750   19.8988 H   0  0  0  0  0  0
  -22.3666  -10.9642   19.6199 H   0  0  0  0  0  0
  -21.2056   -7.6146   23.9730 H   0  0  0  0  0  0
  -21.1529   -6.0526   25.9089 H   0  0  0  0  0  0
  -22.0564   -2.7595   23.2866 H   0  0  0  0  0  0
  -22.3982  -11.9915   22.4932 H   0  0  0  0  0  0
  -21.1045  -13.1313   22.2642 H   0  0  0  0  0  0
  -24.6257  -15.8247   20.5502 H   0  0  0  0  0  0
  -26.2235  -15.6531   20.0435 H   0  0  0  0  0  0
  -26.7109  -32.5451   23.1048 H   0  0  0  0  0  0
  -24.9875  -33.9713   25.0317 H   0  0  0  0  0  0
  -22.7123  -31.2907   21.3749 H   0  0  0  0  0  0
  -23.3705  -35.9668   23.3342 H   0  0  0  0  0  0
  -24.3535  -36.8936   22.2062 H   0  0  0  0  0  0
  -23.7221  -37.6514   23.6676 H   0  0  0  0  0  0
  -26.0766  -31.5362   20.5899 H   0  0  0  0  0  0
  -26.8408  -30.8505   21.9947 H   0  0  0  0  0  0
  -28.1253  -28.9717   21.2077 H   0  0  0  0  0  0
  -26.0603  -25.9100   18.9966 H   0  0  0  0  0  0
  -24.0114  -27.2833   18.9907 H   0  0  0  0  0  0
  -23.7515  -30.5645   19.3860 H   0  0  0  0  0  0
  -22.7714  -29.2154   19.8611 H   0  0  0  0  0  0
  -25.1249  -36.1968   25.0821 H   0  0  0  0  0  0
  -20.9980  -28.3342   24.1361 H   0  0  0  0  0  0
  -20.5578  -26.2342   23.3620 H   0  0  0  0  0  0
  -21.6615  -26.7404   22.1241 H   0  0  0  0  0  0
  -19.6892  -25.6311   21.1209 H   0  0  0  0  0  0
  -19.6670  -27.3209   20.6716 H   0  0  0  0  0  0
  -17.4160  -26.6673   21.4039 H   0  0  0  0  0  0
  -18.0339  -26.0062   22.8998 H   0  0  0  0  0  0
  -19.7969  -30.7271   24.2215 H   0  0  0  0  0  0
  -17.5070  -31.6274   24.5202 H   0  0  0  0  0  0
  -15.5381  -30.3024   23.7699 H   0  0  0  0  0  0
  -15.8646  -28.0849   22.7113 H   0  0  0  0  0  0
  -24.5828  -30.7154   25.7852 H   0  0  0  0  0  0
  -24.8919  -32.2985   26.4845 H   0  0  0  0  0  0
  -25.8023  -30.9017   27.0259 H   0  0  0  0  0  0
  -26.2925  -29.6697   24.1221 H   0  0  0  0  0  0
  -27.3927  -29.7288   25.4796 H   0  0  0  0  0  0
  -27.8822  -30.4205   23.9512 H   0  0  0  0  0  0
  -27.2607  -33.3620   26.2040 H   0  0  0  0  0  0
  -28.3851  -32.6857   25.0342 H   0  0  0  0  0  0
  -28.0622  -31.8438   26.5429 H   0  0  0  0  0  0
  -28.2593  -38.0081   24.7478 H   0  0  0  0  0  0
  -28.1024  -36.2610   24.6301 H   0  0  0  0  0  0
  -27.2291  -37.1501   25.8872 H   0  0  0  0  0  0
  -20.9264  -29.8785   21.6839 H   0  0  0  0  0  0
  -26.0153  -38.2873   24.1430 H   0  0  0  0  0  0
  -28.2668  -19.7047   21.2558 H   0  0  0  0  0  0
  -34.0445  -19.8448   20.7962 H   0  0  0  0  0  0
  -33.6775  -20.4973   19.1832 H   0  0  0  0  0  0
  -33.6230  -18.7713   19.4720 H   0  0  0  0  0  0
  -32.6510  -21.6306   23.0925 H   0  0  0  0  0  0
  -31.3453  -22.7954   23.0050 H   0  0  0  0  0  0
  -32.9973  -23.3274   22.7991 H   0  0  0  0  0  0
  -31.9043  -23.4189   19.2022 H   0  0  0  0  0  0
  -32.9672  -24.1989   20.3631 H   0  0  0  0  0  0
  -31.2725  -24.2030   20.6788 H   0  0  0  0  0  0
  -27.1230  -25.9072   22.4862 H   0  0  0  0  0  0
  -27.3169  -24.1706   22.5494 H   0  0  0  0  0  0
  -26.2636  -24.8820   21.3380 H   0  0  0  0  0  0
  -29.4621  -22.8390   22.0935 H   0  0  0  0  0  0
  -28.0628  -22.0765   21.5038 H   0  0  0  0  0  0
  -28.6949  -17.2659   21.8006 H   0  0  0  0  0  0
  -30.3292  -17.0361   22.2750 H   0  0  0  0  0  0
  -27.9174  -23.4144   19.5327 H   0  0  0  0  0  0
  -29.5678  -23.8416   19.5164 H   0  0  0  0  0  0
  -33.2601  -22.0094   20.8028 H   0  0  0  0  0  0
  -29.2531  -25.2965   21.5461 H   0  0  0  0  0  0
  -28.7369  -15.4891   20.5540 H   0  0  0  0  0  0
  1 25  1  0  0  0
  1 30  2  0  0  0
  1 86  1  0  0  0
  2  3  1  0  0  0
  2 25  1  0  0  0
  2 87  1  0  0  0
  2 88  1  0  0  0
  3  4  1  0  0  0
  3 89  1  0  0  0
  3 90  1  0  0  0
  4  5  1  0  0  0
  4 91  1  0  0  0
  4 92  1  0  0  0
  5  6  1  0  0  0
  5 26  1  0  0  0
  5 93  1  0  0  0
  6 25  1  0  0  0
  6 94  1  0  0  0
  6 95  1  0  0  0
  7  8  2  0  0  0
  7 26  1  0  0  0
  7 29  1  0  0  0
  8  9  1  0  0  0
  8 22  1  0  0  0
  9 10  1  0  0  0
  9 27  2  0  0  0
 10 11  2  0  0  0
 10 15  1  0  0  0
 11 12  1  0  0  0
 11 96  1  0  0  0
 12 13  2  0  0  0
 12 97  1  0  0  0
 13 14  1  0  0  0
 13 31  1  0  0  0
 14 15  2  0  0  0
 14 98  1  0  0  0
 15 99  1  0  0  0
 16 17  2  0  0  0
 16 21  1  0  0  0
 16 31  1  0  0  0
 17 18  1  0  0  0
 17100  1  0  0  0
 18 19  2  0  0  0
 18101  1  0  0  0
 19 20  1  0  0  0
 19 24  1  0  0  0
 20 21  2  0  0  0
 20102  1  0  0  0
 21 23  1  0  0  0
 22 28  1  0  0  0
 22 32  2  0  0  0
 26 27  1  0  0  0
 28103  1  0  0  0
 28104  1  0  0  0
 29105  1  0  0  0
 29106  1  0  0  0
 33 34  1  0  0  0
 33 66  1  0  0  0
 33 70  2  0  0  0
 34 36  1  0  0  0
 34 59  1  0  0  0
 34107  1  0  0  0
 35 44  2  0  0  0
 35 45  1  0  0  0
 35 68  1  0  0  0
 36 56  1  0  0  0
 36108  1  0  0  0
 37 39  1  0  0  0
 37 47  1  0  0  0
 37 66  1  0  0  0
 37109  1  0  0  0
 38 43  2  0  0  0
 38 46  1  0  0  0
 38 47  1  0  0  0
 39 64  1  0  0  0
 39 67  2  0  0  0
 40 52  1  0  0  0
 40 53  2  0  0  0
 40 58  1  0  0  0
 41110  1  0  0  0
 41111  1  0  0  0
 41112  1  0  0  0
 41 48  1  0  0  0
 42 43  1  0  0  0
 42 66  1  0  0  0
 42113  1  0  0  0
 42114  1  0  0  0
 43 44  1  0  0  0
 44115  1  0  0  0
 45 46  2  0  0  0
 45116  1  0  0  0
 46117  1  0  0  0
 47118  1  0  0  0
 47119  1  0  0  0
 48 56  1  0  0  0
 48 65  1  0  0  0
 48120  1  0  0  0
 49 50  1  0  0  0
 49 53  1  0  0  0
 49 64  1  0  0  0
 49121  1  0  0  0
 50 51  1  0  0  0
 50122  1  0  0  0
 50123  1  0  0  0
 51 52  1  0  0  0
 51124  1  0  0  0
 51125  1  0  0  0
 52126  1  0  0  0
 52127  1  0  0  0
 53 54  1  0  0  0
 54 55  2  0  0  0
 54128  1  0  0  0
 55 57  1  0  0  0
 55129  1  0  0  0
 56 69  2  0  0  0
 57 58  2  0  0  0
 57130  1  0  0  0
 58131  1  0  0  0
 59 60  1  0  0  0
 59 61  1  0  0  0
 59 62  1  0  0  0
 60132  1  0  0  0
 60133  1  0  0  0
 60134  1  0  0  0
 61135  1  0  0  0
 61136  1  0  0  0
 61137  1  0  0  0
 62138  1  0  0  0
 62139  1  0  0  0
 62140  1  0  0  0
 63 65  1  0  0  0
 63141  1  0  0  0
 63142  1  0  0  0
 63143  1  0  0  0
 64144  1  0  0  0
 65145  1  0  0  0
 68 84  1  0  0  0
 71 72  2  0  0  0
 71 74  1  0  0  0
 71146  1  0  0  0
 72 73  1  0  0  0
 72 80  1  0  0  0
 73 75  2  0  0  0
 73 83  1  0  0  0
 74 81  1  0  0  0
 74 85  2  0  0  0
 75 76  1  0  0  0
 75 85  1  0  0  0
 76147  1  0  0  0
 76148  1  0  0  0
 76149  1  0  0  0
 77150  1  0  0  0
 77151  1  0  0  0
 77152  1  0  0  0
 77 83  1  0  0  0
 78 83  1  0  0  0
 78153  1  0  0  0
 78154  1  0  0  0
 78155  1  0  0  0
 79156  1  0  0  0
 79157  1  0  0  0
 79158  1  0  0  0
 79 84  1  0  0  0
 80 82  1  0  0  0
 80159  1  0  0  0
 80160  1  0  0  0
 81 86  1  0  0  0
 81161  1  0  0  0
 81162  1  0  0  0
 82 84  1  0  0  0
 82163  1  0  0  0
 82164  1  0  0  0
 83165  1  0  0  0
 84166  1  0  0  0
 86167  1  0  0  0
M  ISO  4   1 100  68 101  84 101  86 100
M  END
> <chiral flag>
0

> <version>
0

> <s_m_source_file>
/data/baiqing/PycharmProjects/Reinvent-master-3.2/result/LINK_invent/BTK/process_docking_weight1_custom_sum_contain_oxygen_bond_distance_aromatic_linkinvent_7_9_3/rearranged_h_0113.sdf

> <i_m_source_file_index>
25

> <r_mmod_Potential_Energy-OPLS-2005>
1.59099566936493

> <r_mmod_Stretch_Energy-OPLS-2005>
127.794204711914

> <r_mmod_Bend_Energy-OPLS-2005>
218.855911254883

> <r_mmod_Torsional_Energy-OPLS-2005>
287.626220703125

> <r_mmod_Improper_Torsional_Energy-OPLS-2005>
11.3489828109741

> <r_mmod_Van_der_Waal_Energy-OPLS-2005>
144.927139282227

> <r_mmod_Electrostatic_Energy-OPLS-2005>
-636.537109375

> <r_mmod_Solvation_Energy-OPLS-2005>
-233.895706176758

> <b_mmod_Minimization_Converged-OPLS-2005>
0

> <r_mmod_RMS_Derivative-OPLS-2005>
5.05388021469116

$$$$
26
                    3D
 Structure written by MMmdl.
160168  0  0  1  0            999 V2000
  -30.3908  -15.4059   20.3646 C   0  0  0  0  0  0
  -30.4365  -12.9210   19.5110 C   0  0  0  0  0  0
  -29.5359  -12.5935   18.2912 C   0  0  0  0  0  0
  -28.0953  -12.2879   18.7348 C   0  0  0  0  0  0
  -27.6028  -13.2829   19.8125 C   0  0  2  0  0  0
  -28.6362  -13.5254   20.9326 C   0  0  0  0  0  0
  -25.2361  -13.8245   20.5776 C   0  0  0  0  0  0
  -24.1721  -13.0427   20.9278 C   0  0  0  0  0  0
  -24.6389  -11.6931   20.8768 C   0  0  0  0  0  0
  -23.9084  -10.4291   21.0410 C   0  0  0  0  0  0
  -24.3634   -9.4203   21.9185 C   0  0  0  0  0  0
  -23.6309   -8.2237   22.0747 C   0  0  0  0  0  0
  -22.4289   -8.0280   21.3542 C   0  0  0  0  0  0
  -21.9929   -9.0250   20.4640 C   0  0  0  0  0  0
  -22.7255  -10.2129   20.3055 C   0  0  0  0  0  0
  -21.6855   -6.0740   22.5279 C   0  0  0  0  0  0
  -21.4013   -6.5645   23.8211 C   0  0  0  0  0  0
  -21.3658   -5.6799   24.9174 C   0  0  0  0  0  0
  -21.6044   -4.3061   24.7226 C   0  0  0  0  0  0
  -21.8820   -3.8153   23.4347 C   0  0  0  0  0  0
  -21.9194   -4.6970   22.3403 C   0  0  0  0  0  0
  -22.7739  -13.5174   21.1923 C   0  0  0  0  0  0
  -22.1667   -4.2156   21.0980 F   0  0  0  0  0  0
  -21.5626   -3.4543   25.7737 F   0  0  0  0  0  0
  -29.8358  -14.0825   20.2782 N   0  0  0  0  0  0
  -26.2792  -12.9533   20.3223 N   0  0  0  0  0  0
  -25.9326  -11.6630   20.5714 N   0  0  0  0  0  0
  -22.0409  -12.8148   22.0484 N   0  0  0  0  0  0
  -25.3981  -15.1981   20.4219 N   0  0  0  0  0  0
  -31.6274  -15.3715   20.2589 O   0  0  0  0  0  0
  -21.6646   -6.8882   21.4243 O   0  0  0  0  0  0
  -22.3416  -14.5478   20.6766 O   0  0  0  0  0  0
  -24.6715  -31.8157   23.1635 C   0  0  0  0  0  0
  -25.9369  -32.4548   23.8118 C   0  0  1  0  0  0
  -27.2177  -26.8383   20.2050 C   0  0  0  0  0  0
  -25.6004  -33.8362   24.2024 N   0  0  0  0  0  0
  -23.4892  -30.4253   21.5153 C   0  0  2  0  0  0
  -24.9437  -28.7937   20.1187 C   0  0  0  0  0  0
  -22.7704  -29.4413   22.4757 C   0  0  0  0  0  0
  -18.0330  -28.1425   22.8471 C   0  0  0  0  0  0
  -24.1485  -36.7171   23.2652 C   0  0  0  0  0  0
  -26.0641  -30.5946   21.4068 C   0  0  0  0  0  0
  -26.1314  -29.1732   20.7566 C   0  0  0  0  0  0
  -27.2623  -28.2224   20.7668 C   0  0  0  0  0  0
  -25.9990  -26.6370   19.5133 C   0  0  0  0  0  0
  -24.9088  -27.5476   19.4733 C   0  0  0  0  0  0
  -23.7355  -29.7344   20.1453 C   0  0  0  0  0  0
  -25.4130  -36.2935   24.0293 C   0  0  1  0  0  0
  -20.5962  -28.3779   23.1173 C   0  0  2  0  0  0
  -20.6803  -26.9452   22.5409 C   0  0  0  0  0  0
  -19.5770  -26.6389   21.5225 C   0  0  0  0  0  0
  -18.1954  -26.7956   22.1634 C   0  0  0  0  0  0
  -19.1598  -28.8925   23.2808 C   0  0  0  0  0  0
  -18.9508  -30.1512   23.8845 C   0  0  0  0  0  0
  -17.6502  -30.6614   24.0559 C   0  0  0  0  0  0
  -25.9105  -34.9324   23.4977 C   0  0  0  0  0  0
  -16.5389  -29.9097   23.6356 C   0  0  0  0  0  0
  -16.7312  -28.6519   23.0370 C   0  0  0  0  0  0
  -26.4580  -31.6530   25.0688 C   0  0  0  0  0  0
  -25.3688  -31.3822   26.1339 C   0  0  0  0  0  0
  -27.0489  -30.2882   24.6494 C   0  0  0  0  0  0
  -27.6046  -32.4361   25.7507 C   0  0  0  0  0  0
  -27.5554  -37.1743   24.8467 C   0  0  0  0  0  0
  -21.4368  -29.3051   22.3511 N   0  0  0  0  0  0
  -26.4257  -37.3687   23.9419 N   0  0  0  0  0  0
  -24.7638  -30.9741   22.0815 N   0  0  0  0  0  0
  -23.4212  -28.8003   23.3047 O   0  0  0  0  0  0
  -28.2031  -25.6844   20.2335 O   0  0  0  0  0  0
  -26.5718  -34.8881   22.4574 O   0  0  0  0  0  0
  -23.5773  -32.1170   23.6685 O   0  0  0  0  0  0
  -29.9017  -20.8737   19.2122 C   0  0  0  0  0  0
  -28.5830  -21.2085   20.8247 C   0  0  0  0  0  0
  -29.3461  -20.0651   20.2794 C   0  0  0  0  0  0
  -29.5429  -22.2426   19.1829 C   0  0  0  0  0  0
  -31.5458  -24.3575   20.0545 C   0  0  0  0  0  0
  -28.6513  -22.4455   16.2262 C   0  0  0  0  0  0
  -29.8491  -18.3698   20.7463 C   0  0  0  0  0  0
  -31.4354  -23.8259   18.6166 C   0  0  0  0  0  0
  -30.0390  -22.8317   16.7590 C   0  0  0  0  0  0
  -27.8099  -24.0934   20.4681 C   0  0  0  0  0  0
  -30.0359  -23.3003   18.2291 C   0  0  0  0  0  0
  -28.6458  -22.6039   20.2040 N   0  0  0  0  0  0
  -29.6316  -16.7159   20.3727 N   0  0  0  0  0  0
  -31.4384  -13.1645   19.1545 H   0  0  0  0  0  0
  -30.5588  -12.0471   20.1533 H   0  0  0  0  0  0
  -29.9438  -11.7500   17.7325 H   0  0  0  0  0  0
  -29.5320  -13.4422   17.6060 H   0  0  0  0  0  0
  -28.0829  -11.2763   19.1425 H   0  0  0  0  0  0
  -27.4211  -12.2811   17.8775 H   0  0  0  0  0  0
  -27.4930  -14.2291   19.2811 H   0  0  0  0  0  0
  -28.8494  -12.6114   21.4885 H   0  0  0  0  0  0
  -28.2494  -14.2454   21.6552 H   0  0  0  0  0  0
  -25.2772   -9.5685   22.4766 H   0  0  0  0  0  0
  -24.0020   -7.4627   22.7462 H   0  0  0  0  0  0
  -21.0861   -8.8766   19.8944 H   0  0  0  0  0  0
  -22.3706  -10.9671   19.6172 H   0  0  0  0  0  0
  -21.2001   -7.6151   23.9716 H   0  0  0  0  0  0
  -21.1480   -6.0527   25.9075 H   0  0  0  0  0  0
  -22.0598   -2.7615   23.2842 H   0  0  0  0  0  0
  -22.4062  -11.9819   22.4864 H   0  0  0  0  0  0
  -21.1015  -13.1129   22.2698 H   0  0  0  0  0  0
  -24.6260  -15.8464   20.5338 H   0  0  0  0  0  0
  -26.2403  -15.6417   20.0820 H   0  0  0  0  0  0
  -26.7446  -32.5068   23.0831 H   0  0  0  0  0  0
  -25.0103  -33.9410   25.0149 H   0  0  0  0  0  0
  -22.8073  -31.2605   21.3381 H   0  0  0  0  0  0
  -23.3761  -35.9488   23.3279 H   0  0  0  0  0  0
  -24.3560  -36.8850   22.2075 H   0  0  0  0  0  0
  -23.7230  -37.6343   23.6729 H   0  0  0  0  0  0
  -26.2540  -31.3300   20.6235 H   0  0  0  0  0  0
  -26.9208  -30.6565   22.0658 H   0  0  0  0  0  0
  -28.1623  -28.5196   21.2861 H   0  0  0  0  0  0
  -25.8543  -25.6962   19.0029 H   0  0  0  0  0  0
  -24.0118  -27.2528   18.9461 H   0  0  0  0  0  0
  -23.9022  -30.5002   19.3863 H   0  0  0  0  0  0
  -22.8412  -29.1976   19.8229 H   0  0  0  0  0  0
  -25.1336  -36.1698   25.0783 H   0  0  0  0  0  0
  -21.0057  -28.3398   24.1297 H   0  0  0  0  0  0
  -20.5686  -26.2402   23.3661 H   0  0  0  0  0  0
  -21.6660  -26.7412   22.1218 H   0  0  0  0  0  0
  -19.6915  -25.6287   21.1287 H   0  0  0  0  0  0
  -19.6702  -27.3170   20.6731 H   0  0  0  0  0  0
  -17.4227  -26.6719   21.4034 H   0  0  0  0  0  0
  -18.0325  -26.0117   22.9045 H   0  0  0  0  0  0
  -19.7984  -30.7341   24.2189 H   0  0  0  0  0  0
  -17.5055  -31.6289   24.5171 H   0  0  0  0  0  0
  -15.5388  -30.2982   23.7711 H   0  0  0  0  0  0
  -15.8712  -28.0815   22.7114 H   0  0  0  0  0  0
  -24.5877  -30.7149   25.7670 H   0  0  0  0  0  0
  -24.8877  -32.3045   26.4607 H   0  0  0  0  0  0
  -25.7923  -30.9107   27.0216 H   0  0  0  0  0  0
  -26.3181  -29.6541   24.1466 H   0  0  0  0  0  0
  -27.3941  -29.7275   25.5191 H   0  0  0  0  0  0
  -27.9151  -30.4032   23.9974 H   0  0  0  0  0  0
  -27.2582  -33.3706   26.1929 H   0  0  0  0  0  0
  -28.3946  -32.6850   25.0409 H   0  0  0  0  0  0
  -28.0608  -31.8592   26.5562 H   0  0  0  0  0  0
  -28.2554  -38.0053   24.7513 H   0  0  0  0  0  0
  -28.1059  -36.2580   24.6283 H   0  0  0  0  0  0
  -27.2273  -37.1380   25.8869 H   0  0  0  0  0  0
  -20.9645  -29.8711   21.6603 H   0  0  0  0  0  0
  -26.0082  -38.2729   24.1454 H   0  0  0  0  0  0
  -30.6141  -20.4753   18.5023 H   0  0  0  0  0  0
  -27.9555  -21.1555   21.7049 H   0  0  0  0  0  0
  -32.5359  -24.7743   20.2387 H   0  0  0  0  0  0
  -31.3832  -23.5689   20.7900 H   0  0  0  0  0  0
  -30.8166  -25.1453   20.2408 H   0  0  0  0  0  0
  -28.7069  -22.1608   15.1752 H   0  0  0  0  0  0
  -27.9523  -23.2785   16.3090 H   0  0  0  0  0  0
  -28.2322  -21.6005   16.7732 H   0  0  0  0  0  0
  -29.6327  -18.3723   21.8146 H   0  0  0  0  0  0
  -30.9360  -18.4533   20.7149 H   0  0  0  0  0  0
  -32.1726  -23.0335   18.4791 H   0  0  0  0  0  0
  -31.7200  -24.6233   17.9290 H   0  0  0  0  0  0
  -30.4377  -23.6299   16.1315 H   0  0  0  0  0  0
  -30.7202  -21.9885   16.6369 H   0  0  0  0  0  0
  -27.5328  -24.0601   21.5225 H   0  0  0  0  0  0
  -26.8716  -23.9541   19.9332 H   0  0  0  0  0  0
  -29.3598  -24.1551   18.2734 H   0  0  0  0  0  0
  -28.6476  -16.5197   20.2654 H   0  0  0  0  0  0
  1 25  1  0  0  0
  1 30  2  0  0  0
  1 83  1  0  0  0
  2  3  1  0  0  0
  2 25  1  0  0  0
  2 84  1  0  0  0
  2 85  1  0  0  0
  3  4  1  0  0  0
  3 86  1  0  0  0
  3 87  1  0  0  0
  4  5  1  0  0  0
  4 88  1  0  0  0
  4 89  1  0  0  0
  5  6  1  0  0  0
  5 26  1  0  0  0
  5 90  1  0  0  0
  6 25  1  0  0  0
  6 91  1  0  0  0
  6 92  1  0  0  0
  7  8  2  0  0  0
  7 26  1  0  0  0
  7 29  1  0  0  0
  8  9  1  0  0  0
  8 22  1  0  0  0
  9 10  1  0  0  0
  9 27  2  0  0  0
 10 11  2  0  0  0
 10 15  1  0  0  0
 11 12  1  0  0  0
 11 93  1  0  0  0
 12 13  2  0  0  0
 12 94  1  0  0  0
 13 14  1  0  0  0
 13 31  1  0  0  0
 14 15  2  0  0  0
 14 95  1  0  0  0
 15 96  1  0  0  0
 16 17  2  0  0  0
 16 21  1  0  0  0
 16 31  1  0  0  0
 17 18  1  0  0  0
 17 97  1  0  0  0
 18 19  2  0  0  0
 18 98  1  0  0  0
 19 20  1  0  0  0
 19 24  1  0  0  0
 20 21  2  0  0  0
 20 99  1  0  0  0
 21 23  1  0  0  0
 22 28  1  0  0  0
 22 32  2  0  0  0
 26 27  1  0  0  0
 28100  1  0  0  0
 28101  1  0  0  0
 29102  1  0  0  0
 29103  1  0  0  0
 33 34  1  0  0  0
 33 66  1  0  0  0
 33 70  2  0  0  0
 34 36  1  0  0  0
 34 59  1  0  0  0
 34104  1  0  0  0
 35 44  2  0  0  0
 35 45  1  0  0  0
 35 68  1  0  0  0
 36 56  1  0  0  0
 36105  1  0  0  0
 37 39  1  0  0  0
 37 47  1  0  0  0
 37 66  1  0  0  0
 37106  1  0  0  0
 38 43  2  0  0  0
 38 46  1  0  0  0
 38 47  1  0  0  0
 39 64  1  0  0  0
 39 67  2  0  0  0
 40 52  1  0  0  0
 40 53  2  0  0  0
 40 58  1  0  0  0
 41107  1  0  0  0
 41108  1  0  0  0
 41109  1  0  0  0
 41 48  1  0  0  0
 42 43  1  0  0  0
 42 66  1  0  0  0
 42110  1  0  0  0
 42111  1  0  0  0
 43 44  1  0  0  0
 44112  1  0  0  0
 45 46  2  0  0  0
 45113  1  0  0  0
 46114  1  0  0  0
 47115  1  0  0  0
 47116  1  0  0  0
 48 56  1  0  0  0
 48 65  1  0  0  0
 48117  1  0  0  0
 49 50  1  0  0  0
 49 53  1  0  0  0
 49 64  1  0  0  0
 49118  1  0  0  0
 50 51  1  0  0  0
 50119  1  0  0  0
 50120  1  0  0  0
 51 52  1  0  0  0
 51121  1  0  0  0
 51122  1  0  0  0
 52123  1  0  0  0
 52124  1  0  0  0
 53 54  1  0  0  0
 54 55  2  0  0  0
 54125  1  0  0  0
 55 57  1  0  0  0
 55126  1  0  0  0
 56 69  2  0  0  0
 57 58  2  0  0  0
 57127  1  0  0  0
 58128  1  0  0  0
 59 60  1  0  0  0
 59 61  1  0  0  0
 59 62  1  0  0  0
 60129  1  0  0  0
 60130  1  0  0  0
 60131  1  0  0  0
 61132  1  0  0  0
 61133  1  0  0  0
 61134  1  0  0  0
 62135  1  0  0  0
 62136  1  0  0  0
 62137  1  0  0  0
 63 65  1  0  0  0
 63138  1  0  0  0
 63139  1  0  0  0
 63140  1  0  0  0
 64141  1  0  0  0
 65142  1  0  0  0
 68 80  1  0  0  0
 71 73  1  0  0  0
 71 74  2  0  0  0
 71143  1  0  0  0
 72 73  2  0  0  0
 72 82  1  0  0  0
 72144  1  0  0  0
 73 77  1  0  0  0
 74 81  1  0  0  0
 74 82  1  0  0  0
 75 78  1  0  0  0
 75145  1  0  0  0
 75146  1  0  0  0
 75147  1  0  0  0
 76 79  1  0  0  0
 76148  1  0  0  0
 76149  1  0  0  0
 76150  1  0  0  0
 77 83  1  0  0  0
 77151  1  0  0  0
 77152  1  0  0  0
 78153  1  0  0  0
 78154  1  0  0  0
 78 81  1  0  0  0
 79 81  1  0  0  0
 79155  1  0  0  0
 79156  1  0  0  0
 80 82  1  0  0  0
 80157  1  0  0  0
 80158  1  0  0  0
 81159  1  0  0  0
 83160  1  0  0  0
M  ISO  4   1 100  68 101  80 101  83 100
M  END
> <chiral flag>
0

> <version>
0

> <s_m_source_file>
/data/baiqing/PycharmProjects/Reinvent-master-3.2/result/LINK_invent/BTK/process_docking_weight1_custom_sum_contain_oxygen_bond_distance_aromatic_linkinvent_7_9_3/rearranged_h_0113.sdf

> <i_m_source_file_index>
26

> <r_mmod_Potential_Energy-OPLS-2005>
1606.6640625

> <r_mmod_Stretch_Energy-OPLS-2005>
716.976196289062

> <r_mmod_Bend_Energy-OPLS-2005>
528.520141601562

> <r_mmod_Torsional_Energy-OPLS-2005>
244.837631225586

> <r_mmod_Improper_Torsional_Energy-OPLS-2005>
7.65065240859985

> <r_mmod_Van_der_Waal_Energy-OPLS-2005>
102.662452697754

> <r_mmod_Electrostatic_Energy-OPLS-2005>
-393.994842529297

> <r_mmod_Solvation_Energy-OPLS-2005>
-212.658279418945

> <b_mmod_Minimization_Converged-OPLS-2005>
0

> <r_mmod_RMS_Derivative-OPLS-2005>
1.24699914455414

$$$$
27
                    3D
 Structure written by MMmdl.
164172  0  0  1  0            999 V2000
  -30.4792  -15.2009   20.3844 C   0  0  0  0  0  0
  -30.4385  -12.7715   19.5089 C   0  0  0  0  0  0
  -29.5270  -12.5570   18.2761 C   0  0  0  0  0  0
  -28.0753  -12.2922   18.7115 C   0  0  0  0  0  0
  -27.6124  -13.2683   19.8217 C   0  0  2  0  0  0
  -28.6516  -13.4285   20.9506 C   0  0  0  0  0  0
  -25.2397  -13.8233   20.5741 C   0  0  0  0  0  0
  -24.1743  -13.0432   20.9259 C   0  0  0  0  0  0
  -24.6396  -11.6927   20.8773 C   0  0  0  0  0  0
  -23.9091  -10.4291   21.0413 C   0  0  0  0  0  0
  -24.3636   -9.4204   21.9187 C   0  0  0  0  0  0
  -23.6303   -8.2241   22.0754 C   0  0  0  0  0  0
  -22.4284   -8.0285   21.3550 C   0  0  0  0  0  0
  -21.9925   -9.0259   20.4647 C   0  0  0  0  0  0
  -22.7260  -10.2135   20.3057 C   0  0  0  0  0  0
  -21.6852   -6.0737   22.5278 C   0  0  0  0  0  0
  -21.4017   -6.5642   23.8212 C   0  0  0  0  0  0
  -21.3655   -5.6796   24.9171 C   0  0  0  0  0  0
  -21.6037   -4.3057   24.7223 C   0  0  0  0  0  0
  -21.8822   -3.8150   23.4346 C   0  0  0  0  0  0
  -21.9197   -4.6967   22.3401 C   0  0  0  0  0  0
  -22.7764  -13.5194   21.1902 C   0  0  0  0  0  0
  -22.1663   -4.2153   21.0977 F   0  0  0  0  0  0
  -21.5627   -3.4540   25.7734 F   0  0  0  0  0  0
  -29.8869  -13.9157   20.3168 N   0  0  0  0  0  0
  -26.2824  -12.9501   20.3234 N   0  0  0  0  0  0
  -25.9333  -11.6615   20.5742 N   0  0  0  0  0  0
  -22.0426  -12.8173   22.0455 N   0  0  0  0  0  0
  -25.4041  -15.1965   20.4157 N   0  0  0  0  0  0
  -31.7042  -15.1899   20.2111 O   0  0  0  0  0  0
  -21.6645   -6.8882   21.4240 O   0  0  0  0  0  0
  -22.3445  -14.5496   20.6742 O   0  0  0  0  0  0
  -24.6611  -31.8281   23.1742 C   0  0  0  0  0  0
  -25.9302  -32.4616   23.8199 C   0  0  1  0  0  0
  -27.2142  -26.9623   20.1662 C   0  0  0  0  0  0
  -25.5992  -33.8434   24.2106 N   0  0  0  0  0  0
  -23.4741  -30.4439   21.5235 C   0  0  2  0  0  0
  -24.9251  -28.8443   20.1097 C   0  0  0  0  0  0
  -22.7664  -29.4465   22.4778 C   0  0  0  0  0  0
  -18.0322  -28.1413   22.8476 C   0  0  0  0  0  0
  -24.1485  -36.7186   23.2652 C   0  0  0  0  0  0
  -26.0444  -30.6439   21.4024 C   0  0  0  0  0  0
  -26.1109  -29.2405   20.7413 C   0  0  0  0  0  0
  -27.2504  -28.3200   20.7468 C   0  0  0  0  0  0
  -25.9920  -26.7145   19.4953 C   0  0  0  0  0  0
  -24.8896  -27.6004   19.4673 C   0  0  0  0  0  0
  -23.7138  -29.7709   20.1460 C   0  0  0  0  0  0
  -25.4122  -36.2971   24.0315 C   0  0  1  0  0  0
  -20.5957  -28.3763   23.1186 C   0  0  2  0  0  0
  -20.6807  -26.9445   22.5397 C   0  0  0  0  0  0
  -19.5773  -26.6379   21.5223 C   0  0  0  0  0  0
  -18.1953  -26.7948   22.1625 C   0  0  0  0  0  0
  -19.1589  -28.8905   23.2823 C   0  0  0  0  0  0
  -18.9508  -30.1497   23.8850 C   0  0  0  0  0  0
  -17.6506  -30.6611   24.0561 C   0  0  0  0  0  0
  -25.9096  -34.9364   23.5018 C   0  0  0  0  0  0
  -16.5388  -29.9103   23.6355 C   0  0  0  0  0  0
  -16.7307  -28.6524   23.0368 C   0  0  0  0  0  0
  -26.4564  -31.6551   25.0714 C   0  0  0  0  0  0
  -25.3705  -31.3789   26.1382 C   0  0  0  0  0  0
  -27.0476  -30.2924   24.6441 C   0  0  0  0  0  0
  -27.6062  -32.4364   25.7498 C   0  0  0  0  0  0
  -27.5555  -37.1744   24.8476 C   0  0  0  0  0  0
  -21.4338  -29.3060   22.3536 N   0  0  0  0  0  0
  -26.4256  -37.3710   23.9435 N   0  0  0  0  0  0
  -24.7479  -30.9976   22.0869 N   0  0  0  0  0  0
  -23.4230  -28.8029   23.3003 O   0  0  0  0  0  0
  -28.2078  -25.8559   20.2642 O   0  0  0  0  0  0
  -26.5696  -34.8898   22.4608 O   0  0  0  0  0  0
  -23.5679  -32.1239   23.6833 O   0  0  0  0  0  0
  -29.9748  -22.2777   20.0221 C   0  0  0  0  0  0
  -28.2698  -20.2658   20.5658 C   0  0  0  0  0  0
  -30.4394  -20.8723   20.0995 C   0  0  0  0  0  0
  -29.5990  -19.6915   20.3865 C   0  0  0  0  0  0
  -28.6366  -22.7569   20.2333 C   0  0  0  0  0  0
  -32.7817  -21.4388   20.9235 C   0  0  0  0  0  0
  -32.3399  -21.1768   18.4399 C   0  0  0  0  0  0
  -28.0841  -24.3634   18.2756 C   0  0  0  0  0  0
  -30.7813  -18.2299   22.1497 C   0  0  0  0  0  0
  -31.9463  -20.7136   19.8525 C   0  0  0  0  0  0
  -30.2210  -18.0745   20.7038 C   0  0  1  0  0  0
  -27.9614  -24.3060   19.8084 C   0  0  2  0  0  0
  -27.8408  -21.6265   20.4717 N   0  0  0  0  0  0
  -29.7638  -16.4884   20.5107 N   0  0  0  0  0  0
  -31.5008  -17.0725   22.7046 N   0  3  0  0  0  0
  -31.4565  -12.9712   19.1715 H   0  0  0  0  0  0
  -30.5022  -11.8638   20.1113 H   0  0  0  0  0  0
  -29.8946  -11.7269   17.6711 H   0  0  0  0  0  0
  -29.5609  -13.4412   17.6383 H   0  0  0  0  0  0
  -28.0273  -11.2683   19.0846 H   0  0  0  0  0  0
  -27.4018  -12.3359   17.8546 H   0  0  0  0  0  0
  -27.5317  -14.2370   19.3274 H   0  0  0  0  0  0
  -28.8100  -12.4913   21.4848 H   0  0  0  0  0  0
  -28.3021  -14.1525   21.6884 H   0  0  0  0  0  0
  -25.2780   -9.5678   22.4769 H   0  0  0  0  0  0
  -24.0006   -7.4632   22.7478 H   0  0  0  0  0  0
  -21.0855   -8.8785   19.8955 H   0  0  0  0  0  0
  -22.3721  -10.9679   19.6172 H   0  0  0  0  0  0
  -21.2008   -7.6151   23.9715 H   0  0  0  0  0  0
  -21.1468   -6.0523   25.9072 H   0  0  0  0  0  0
  -22.0604   -2.7613   23.2841 H   0  0  0  0  0  0
  -22.4049  -11.9836   22.4844 H   0  0  0  0  0  0
  -21.1041  -13.1188   22.2669 H   0  0  0  0  0  0
  -24.6287  -15.8428   20.5132 H   0  0  0  0  0  0
  -26.2392  -15.6363   20.0533 H   0  0  0  0  0  0
  -26.7375  -32.5160   23.0916 H   0  0  0  0  0  0
  -25.0151  -33.9535   25.0266 H   0  0  0  0  0  0
  -22.7863  -31.2749   21.3576 H   0  0  0  0  0  0
  -23.3775  -35.9492   23.3294 H   0  0  0  0  0  0
  -24.3557  -36.8833   22.2066 H   0  0  0  0  0  0
  -23.7208  -37.6354   23.6717 H   0  0  0  0  0  0
  -26.2277  -31.3895   20.6277 H   0  0  0  0  0  0
  -26.9024  -30.6918   22.0608 H   0  0  0  0  0  0
  -28.1466  -28.6191   21.2726 H   0  0  0  0  0  0
  -25.8278  -25.7651   19.0127 H   0  0  0  0  0  0
  -23.9865  -27.2860   18.9613 H   0  0  0  0  0  0
  -23.8734  -30.5458   19.3956 H   0  0  0  0  0  0
  -22.8231  -29.2317   19.8203 H   0  0  0  0  0  0
  -25.1311  -36.1752   25.0803 H   0  0  0  0  0  0
  -21.0055  -28.3358   24.1302 H   0  0  0  0  0  0
  -20.5701  -26.2378   23.3638 H   0  0  0  0  0  0
  -21.6665  -26.7423   22.1188 H   0  0  0  0  0  0
  -19.6942  -25.6280   21.1272 H   0  0  0  0  0  0
  -19.6702  -27.3178   20.6749 H   0  0  0  0  0  0
  -17.4221  -26.6705   21.4028 H   0  0  0  0  0  0
  -18.0331  -26.0095   22.9023 H   0  0  0  0  0  0
  -19.7989  -30.7326   24.2183 H   0  0  0  0  0  0
  -17.5066  -31.6286   24.5171 H   0  0  0  0  0  0
  -15.5390  -30.2998   23.7723 H   0  0  0  0  0  0
  -15.8701  -28.0839   22.7113 H   0  0  0  0  0  0
  -24.5901  -30.7132   25.7682 H   0  0  0  0  0  0
  -24.8892  -32.2992   26.4707 H   0  0  0  0  0  0
  -25.7945  -30.9008   27.0223 H   0  0  0  0  0  0
  -26.3158  -29.6589   24.1424 H   0  0  0  0  0  0
  -27.4002  -29.7291   25.5090 H   0  0  0  0  0  0
  -27.9092  -30.4121   23.9870 H   0  0  0  0  0  0
  -27.2647  -33.3728   26.1919 H   0  0  0  0  0  0
  -28.3938  -32.6820   25.0365 H   0  0  0  0  0  0
  -28.0670  -31.8595   26.5522 H   0  0  0  0  0  0
  -28.2554  -38.0058   24.7524 H   0  0  0  0  0  0
  -28.1053  -36.2578   24.6283 H   0  0  0  0  0  0
  -27.2272  -37.1356   25.8878 H   0  0  0  0  0  0
  -20.9586  -29.8739   21.6662 H   0  0  0  0  0  0
  -26.0092  -38.2753   24.1487 H   0  0  0  0  0  0
  -30.6920  -23.0394   19.7521 H   0  0  0  0  0  0
  -27.4756  -19.5862   20.8377 H   0  0  0  0  0  0
  -32.5406  -21.0851   21.9252 H   0  0  0  0  0  0
  -32.6186  -22.5165   20.9135 H   0  0  0  0  0  0
  -33.8472  -21.2694   20.7667 H   0  0  0  0  0  0
  -31.7461  -20.6684   17.6805 H   0  0  0  0  0  0
  -33.3887  -20.9586   18.2372 H   0  0  0  0  0  0
  -32.2042  -22.2494   18.3040 H   0  0  0  0  0  0
  -27.6606  -23.4694   17.8189 H   0  0  0  0  0  0
  -29.1327  -24.4132   17.9810 H   0  0  0  0  0  0
  -27.5878  -25.2232   17.8324 H   0  0  0  0  0  0
  -29.9613  -18.4679   22.8284 H   0  0  0  0  0  0
  -31.4597  -19.0795   22.1948 H   0  0  0  0  0  0
  -32.2405  -19.6732   19.9086 H   0  0  0  0  0  0
  -31.0716  -18.0210   20.0313 H   0  0  0  0  0  0
  -26.9102  -24.1470   20.0456 H   0  0  0  0  0  0
  -28.7634  -16.3608   20.5472 H   0  0  0  0  0  0
  -30.8587  -16.3349   22.9277 H   0  0  0  0  0  0
  -31.9613  -17.3424   23.5552 H   0  0  0  0  0  0
  -32.1957  -16.7363   22.0596 H   0  0  0  0  0  0
  1 25  1  0  0  0
  1 30  2  0  0  0
  1 84  1  0  0  0
  2  3  1  0  0  0
  2 25  1  0  0  0
  2 86  1  0  0  0
  2 87  1  0  0  0
  3  4  1  0  0  0
  3 88  1  0  0  0
  3 89  1  0  0  0
  4  5  1  0  0  0
  4 90  1  0  0  0
  4 91  1  0  0  0
  5  6  1  0  0  0
  5 26  1  0  0  0
  5 92  1  0  0  0
  6 25  1  0  0  0
  6 93  1  0  0  0
  6 94  1  0  0  0
  7  8  2  0  0  0
  7 26  1  0  0  0
  7 29  1  0  0  0
  8  9  1  0  0  0
  8 22  1  0  0  0
  9 10  1  0  0  0
  9 27  2  0  0  0
 10 11  2  0  0  0
 10 15  1  0  0  0
 11 12  1  0  0  0
 11 95  1  0  0  0
 12 13  2  0  0  0
 12 96  1  0  0  0
 13 14  1  0  0  0
 13 31  1  0  0  0
 14 15  2  0  0  0
 14 97  1  0  0  0
 15 98  1  0  0  0
 16 17  2  0  0  0
 16 21  1  0  0  0
 16 31  1  0  0  0
 17 18  1  0  0  0
 17 99  1  0  0  0
 18 19  2  0  0  0
 18100  1  0  0  0
 19 20  1  0  0  0
 19 24  1  0  0  0
 20 21  2  0  0  0
 20101  1  0  0  0
 21 23  1  0  0  0
 22 28  1  0  0  0
 22 32  2  0  0  0
 26 27  1  0  0  0
 28102  1  0  0  0
 28103  1  0  0  0
 29104  1  0  0  0
 29105  1  0  0  0
 33 34  1  0  0  0
 33 66  1  0  0  0
 33 70  2  0  0  0
 34 36  1  0  0  0
 34 59  1  0  0  0
 34106  1  0  0  0
 35 44  2  0  0  0
 35 45  1  0  0  0
 35 68  1  0  0  0
 36 56  1  0  0  0
 36107  1  0  0  0
 37 39  1  0  0  0
 37 47  1  0  0  0
 37 66  1  0  0  0
 37108  1  0  0  0
 38 43  2  0  0  0
 38 46  1  0  0  0
 38 47  1  0  0  0
 39 64  1  0  0  0
 39 67  2  0  0  0
 40 52  1  0  0  0
 40 53  2  0  0  0
 40 58  1  0  0  0
 41109  1  0  0  0
 41110  1  0  0  0
 41111  1  0  0  0
 41 48  1  0  0  0
 42 43  1  0  0  0
 42 66  1  0  0  0
 42112  1  0  0  0
 42113  1  0  0  0
 43 44  1  0  0  0
 44114  1  0  0  0
 45 46  2  0  0  0
 45115  1  0  0  0
 46116  1  0  0  0
 47117  1  0  0  0
 47118  1  0  0  0
 48 56  1  0  0  0
 48 65  1  0  0  0
 48119  1  0  0  0
 49 50  1  0  0  0
 49 53  1  0  0  0
 49 64  1  0  0  0
 49120  1  0  0  0
 50 51  1  0  0  0
 50121  1  0  0  0
 50122  1  0  0  0
 51 52  1  0  0  0
 51123  1  0  0  0
 51124  1  0  0  0
 52125  1  0  0  0
 52126  1  0  0  0
 53 54  1  0  0  0
 54 55  2  0  0  0
 54127  1  0  0  0
 55 57  1  0  0  0
 55128  1  0  0  0
 56 69  2  0  0  0
 57 58  2  0  0  0
 57129  1  0  0  0
 58130  1  0  0  0
 59 60  1  0  0  0
 59 61  1  0  0  0
 59 62  1  0  0  0
 60131  1  0  0  0
 60132  1  0  0  0
 60133  1  0  0  0
 61134  1  0  0  0
 61135  1  0  0  0
 61136  1  0  0  0
 62137  1  0  0  0
 62138  1  0  0  0
 62139  1  0  0  0
 63 65  1  0  0  0
 63140  1  0  0  0
 63141  1  0  0  0
 63142  1  0  0  0
 64143  1  0  0  0
 65144  1  0  0  0
 68 82  1  0  0  0
 71 73  2  0  0  0
 71 75  1  0  0  0
 71145  1  0  0  0
 72 74  2  0  0  0
 72 83  1  0  0  0
 72146  1  0  0  0
 73 74  1  0  0  0
 73 80  1  0  0  0
 74 81  1  0  0  0
 75 82  1  0  0  0
 75 83  2  0  0  0
 76147  1  0  0  0
 76148  1  0  0  0
 76149  1  0  0  0
 76 80  1  0  0  0
 77 80  1  0  0  0
 77150  1  0  0  0
 77151  1  0  0  0
 77152  1  0  0  0
 78153  1  0  0  0
 78154  1  0  0  0
 78155  1  0  0  0
 78 82  1  0  0  0
 79 85  1  0  0  0
 79156  1  0  0  0
 79157  1  0  0  0
 79 81  1  0  0  0
 80158  1  0  0  0
 81 84  1  0  0  0
 81159  1  0  0  0
 82160  1  0  0  0
 84161  1  0  0  0
 85162  1  0  0  0
 85163  1  0  0  0
 85164  1  0  0  0
M  CHG  1  85   1
M  ISO  4   1 100  68 101  82 101  84 100
M  END
> <chiral flag>
0

> <version>
0

> <s_m_source_file>
/data/baiqing/PycharmProjects/Reinvent-master-3.2/result/LINK_invent/BTK/process_docking_weight1_custom_sum_contain_oxygen_bond_distance_aromatic_linkinvent_7_9_3/rearranged_h_0113.sdf

> <i_m_source_file_index>
27

> <r_mmod_Potential_Energy-OPLS-2005>
679.078369140625

> <r_mmod_Stretch_Energy-OPLS-2005>
493.611480712891

> <r_mmod_Bend_Energy-OPLS-2005>
455.447143554688

> <r_mmod_Torsional_Energy-OPLS-2005>
241.581008911133

> <r_mmod_Improper_Torsional_Energy-OPLS-2005>
7.11727476119995

> <r_mmod_Van_der_Waal_Energy-OPLS-2005>
144.086761474609

> <r_mmod_Electrostatic_Energy-OPLS-2005>
-572.072448730469

> <r_mmod_Solvation_Energy-OPLS-2005>
-495.862884521484

> <b_mmod_Minimization_Converged-OPLS-2005>
0

> <r_mmod_RMS_Derivative-OPLS-2005>
1.68821334838867

$$$$
28
                    3D
 Structure written by MMmdl.
157165  0  0  1  0            999 V2000
  -30.5529  -14.8825   20.4199 C   0  0  0  0  0  0
  -30.4455  -12.5444   19.4877 C   0  0  0  0  0  0
  -29.5251  -12.5325   18.2486 C   0  0  0  0  0  0
  -28.0547  -12.3229   18.6628 C   0  0  0  0  0  0
  -27.6369  -13.2419   19.8435 C   0  0  2  0  0  0
  -28.6795  -13.2268   20.9802 C   0  0  0  0  0  0
  -25.2474  -13.8200   20.5671 C   0  0  0  0  0  0
  -24.1781  -13.0435   20.9183 C   0  0  0  0  0  0
  -24.6384  -11.6925   20.8713 C   0  0  0  0  0  0
  -23.9064  -10.4290   21.0387 C   0  0  0  0  0  0
  -24.3606   -9.4223   21.9187 C   0  0  0  0  0  0
  -23.6281   -8.2260   22.0770 C   0  0  0  0  0  0
  -22.4272   -8.0280   21.3543 C   0  0  0  0  0  0
  -21.9897   -9.0259   20.4647 C   0  0  0  0  0  0
  -22.7234  -10.2134   20.3047 C   0  0  0  0  0  0
  -21.6859   -6.0724   22.5267 C   0  0  0  0  0  0
  -21.4033   -6.5624   23.8207 C   0  0  0  0  0  0
  -21.3672   -5.6776   24.9166 C   0  0  0  0  0  0
  -21.6046   -4.3038   24.7213 C   0  0  0  0  0  0
  -21.8811   -3.8132   23.4335 C   0  0  0  0  0  0
  -21.9186   -4.6946   22.3397 C   0  0  0  0  0  0
  -22.7796  -13.5217   21.1819 C   0  0  0  0  0  0
  -22.1640   -4.2130   21.0971 F   0  0  0  0  0  0
  -21.5639   -3.4519   25.7727 F   0  0  0  0  0  0
  -29.9620  -13.6274   20.3875 N   0  0  0  0  0  0
  -26.2907  -12.9422   20.3231 N   0  0  0  0  0  0
  -25.9315  -11.6557   20.5705 N   0  0  0  0  0  0
  -22.0399  -12.8265   22.0383 N   0  0  0  0  0  0
  -25.4166  -15.1931   20.4078 N   0  0  0  0  0  0
  -31.7500  -14.9690   20.1356 O   0  0  0  0  0  0
  -21.6647   -6.8869   21.4231 O   0  0  0  0  0  0
  -22.3494  -14.5519   20.6646 O   0  0  0  0  0  0
  -24.6407  -31.8454   23.1867 C   0  0  0  0  0  0
  -25.9167  -32.4701   23.8274 C   0  0  1  0  0  0
  -27.2207  -27.1678   20.1534 C   0  0  0  0  0  0
  -25.5906  -33.8503   24.2191 N   0  0  0  0  0  0
  -23.4447  -30.4623   21.5342 C   0  0  2  0  0  0
  -24.8939  -28.8909   20.1130 C   0  0  0  0  0  0
  -22.7576  -29.4545   22.4884 C   0  0  0  0  0  0
  -18.0318  -28.1394   22.8497 C   0  0  0  0  0  0
  -24.1498  -36.7270   23.2646 C   0  0  0  0  0  0
  -25.9986  -30.7321   21.3790 C   0  0  0  0  0  0
  -26.0722  -29.3448   20.7219 C   0  0  0  0  0  0
  -27.2428  -28.5013   20.7173 C   0  0  0  0  0  0
  -26.0174  -26.8012   19.5165 C   0  0  0  0  0  0
  -24.8767  -27.6324   19.4940 C   0  0  0  0  0  0
  -23.6667  -29.7877   20.1557 C   0  0  0  0  0  0
  -25.4124  -36.3041   24.0321 C   0  0  1  0  0  0
  -20.5925  -28.3705   23.1264 C   0  0  2  0  0  0
  -20.6797  -26.9411   22.5421 C   0  0  0  0  0  0
  -19.5764  -26.6383   21.5233 C   0  0  0  0  0  0
  -18.1946  -26.7940   22.1641 C   0  0  0  0  0  0
  -19.1576  -28.8878   23.2871 C   0  0  0  0  0  0
  -18.9474  -30.1471   23.8893 C   0  0  0  0  0  0
  -17.6458  -30.6586   24.0566 C   0  0  0  0  0  0
  -25.9062  -34.9408   23.5073 C   0  0  0  0  0  0
  -16.5353  -29.9068   23.6340 C   0  0  0  0  0  0
  -16.7298  -28.6495   23.0363 C   0  0  0  0  0  0
  -26.4472  -31.6550   25.0707 C   0  0  0  0  0  0
  -25.3642  -31.3739   26.1403 C   0  0  0  0  0  0
  -27.0325  -30.2947   24.6250 C   0  0  0  0  0  0
  -27.6031  -32.4294   25.7484 C   0  0  0  0  0  0
  -27.5585  -37.1798   24.8459 C   0  0  0  0  0  0
  -21.4273  -29.3028   22.3636 N   0  0  0  0  0  0
  -26.4296  -37.3738   23.9398 N   0  0  0  0  0  0
  -24.7137  -31.0343   22.0882 N   0  0  0  0  0  0
  -23.4241  -28.8106   23.3022 O   0  0  0  0  0  0
  -28.2700  -26.1878   20.1672 O   0  0  0  0  0  0
  -26.5671  -34.8894   22.4668 O   0  0  0  0  0  0
  -23.5517  -32.1319   23.7087 O   0  0  0  0  0  0
  -28.0878  -21.1503   19.5909 C   0  0  0  0  0  0
  -29.6157  -22.5904   21.2212 C   0  0  0  0  0  0
  -29.0351  -20.4075   20.3842 C   0  0  0  0  0  0
  -28.6143  -23.3348   20.4864 C   0  0  0  0  0  0
  -27.2551  -25.8121   23.1843 C   0  0  0  0  0  0
  -29.7174  -25.9446   22.5364 C   0  0  0  0  0  0
  -28.9414  -18.7737   20.5957 C   0  0  0  0  0  0
  -30.0700  -17.5727   20.3285 C   0  0  0  0  0  0
  -28.0575  -24.8458   20.9019 C   0  0  1  0  0  0
  -28.4004  -25.1519   22.3948 C   0  0  0  0  0  0
  -29.8076  -21.2054   21.1937 N   0  0  0  0  0  0
  -27.8773  -22.5302   19.6445 N   0  0  0  0  0  0
  -29.7583  -16.0451   20.5548 N   0  0  0  0  0  0
  -31.4836  -12.6926   19.1835 H   0  0  0  0  0  0
  -30.4278  -11.5790   19.9960 H   0  0  0  0  0  0
  -29.8396  -11.7547   17.5518 H   0  0  0  0  0  0
  -29.6232  -13.4800   17.7160 H   0  0  0  0  0  0
  -27.9363  -11.2773   18.9541 H   0  0  0  0  0  0
  -27.3983  -12.4736   17.8063 H   0  0  0  0  0  0
  -27.6191  -14.2558   19.4422 H   0  0  0  0  0  0
  -28.7451  -12.2352   21.4314 H   0  0  0  0  0  0
  -28.3920  -13.9079   21.7827 H   0  0  0  0  0  0
  -25.2748   -9.5707   22.4765 H   0  0  0  0  0  0
  -23.9967   -7.4664   22.7528 H   0  0  0  0  0  0
  -21.0821   -8.8778   19.8968 H   0  0  0  0  0  0
  -22.3693  -10.9658   19.6140 H   0  0  0  0  0  0
  -21.2042   -7.6133   23.9693 H   0  0  0  0  0  0
  -21.1512   -6.0518   25.9071 H   0  0  0  0  0  0
  -22.0583   -2.7588   23.2836 H   0  0  0  0  0  0
  -22.3973  -11.9963   22.4863 H   0  0  0  0  0  0
  -21.1019  -13.1349   22.2509 H   0  0  0  0  0  0
  -24.6522  -15.8480   20.5305 H   0  0  0  0  0  0
  -26.2449  -15.6246   20.0180 H   0  0  0  0  0  0
  -26.7249  -32.5321   23.1033 H   0  0  0  0  0  0
  -24.9987  -33.9613   25.0289 H   0  0  0  0  0  0
  -22.7445  -31.2852   21.3796 H   0  0  0  0  0  0
  -23.3744  -35.9617   23.3298 H   0  0  0  0  0  0
  -24.3598  -36.8910   22.2064 H   0  0  0  0  0  0
  -23.7268  -37.6472   23.6684 H   0  0  0  0  0  0
  -26.1484  -31.4857   20.6052 H   0  0  0  0  0  0
  -26.8694  -30.7843   22.0207 H   0  0  0  0  0  0
  -28.1440  -28.8431   21.2047 H   0  0  0  0  0  0
  -25.9420  -25.8271   19.0540 H   0  0  0  0  0  0
  -23.9752  -27.2775   19.0137 H   0  0  0  0  0  0
  -23.7914  -30.5569   19.3924 H   0  0  0  0  0  0
  -22.7841  -29.2199   19.8576 H   0  0  0  0  0  0
  -25.1314  -36.1884   25.0812 H   0  0  0  0  0  0
  -21.0040  -28.3272   24.1375 H   0  0  0  0  0  0
  -20.5713  -26.2303   23.3623 H   0  0  0  0  0  0
  -21.6654  -26.7435   22.1194 H   0  0  0  0  0  0
  -19.6910  -25.6296   21.1260 H   0  0  0  0  0  0
  -19.6689  -27.3200   20.6761 H   0  0  0  0  0  0
  -17.4222  -26.6721   21.4023 H   0  0  0  0  0  0
  -18.0311  -26.0079   22.9033 H   0  0  0  0  0  0
  -19.7928  -30.7311   24.2252 H   0  0  0  0  0  0
  -17.4990  -31.6260   24.5164 H   0  0  0  0  0  0
  -15.5347  -30.2951   23.7652 H   0  0  0  0  0  0
  -15.8712  -28.0788   22.7078 H   0  0  0  0  0  0
  -24.5813  -30.7108   25.7708 H   0  0  0  0  0  0
  -24.8823  -32.2914   26.4786 H   0  0  0  0  0  0
  -25.7892  -30.8923   27.0222 H   0  0  0  0  0  0
  -26.2936  -29.6696   24.1230 H   0  0  0  0  0  0
  -27.3929  -29.7214   25.4805 H   0  0  0  0  0  0
  -27.8841  -30.4203   23.9566 H   0  0  0  0  0  0
  -27.2654  -33.3609   26.2039 H   0  0  0  0  0  0
  -28.3839  -32.6833   25.0303 H   0  0  0  0  0  0
  -28.0703  -31.8431   26.5410 H   0  0  0  0  0  0
  -28.2596  -38.0099   24.7501 H   0  0  0  0  0  0
  -28.1089  -36.2633   24.6292 H   0  0  0  0  0  0
  -27.2309  -37.1458   25.8863 H   0  0  0  0  0  0
  -20.9480  -29.8715   21.6804 H   0  0  0  0  0  0
  -26.0170  -38.2819   24.1351 H   0  0  0  0  0  0
  -27.3954  -20.6074   18.9644 H   0  0  0  0  0  0
  -30.2302  -23.0929   21.9522 H   0  0  0  0  0  0
  -27.5349  -25.9503   24.2287 H   0  0  0  0  0  0
  -26.3629  -25.1848   23.1689 H   0  0  0  0  0  0
  -26.9740  -26.7911   22.8023 H   0  0  0  0  0  0
  -30.0566  -25.9682   23.5723 H   0  0  0  0  0  0
  -29.6034  -26.9785   22.2091 H   0  0  0  0  0  0
  -30.5151  -25.5018   21.9381 H   0  0  0  0  0  0
  -28.0687  -18.4865   20.0082 H   0  0  0  0  0  0
  -28.6181  -18.6549   21.6292 H   0  0  0  0  0  0
  -30.9543  -17.8040   20.9228 H   0  0  0  0  0  0
  -30.3871  -17.6603   19.2889 H   0  0  0  0  0  0
  -26.9811  -24.6759   20.8753 H   0  0  0  0  0  0
  -28.5323  -24.2039   22.9157 H   0  0  0  0  0  0
  -28.7901  -15.8396   20.7503 H   0  0  0  0  0  0
  1 25  1  0  0  0
  1 30  2  0  0  0
  1 83  1  0  0  0
  2  3  1  0  0  0
  2 25  1  0  0  0
  2 84  1  0  0  0
  2 85  1  0  0  0
  3  4  1  0  0  0
  3 86  1  0  0  0
  3 87  1  0  0  0
  4  5  1  0  0  0
  4 88  1  0  0  0
  4 89  1  0  0  0
  5  6  1  0  0  0
  5 26  1  0  0  0
  5 90  1  0  0  0
  6 25  1  0  0  0
  6 91  1  0  0  0
  6 92  1  0  0  0
  7  8  2  0  0  0
  7 26  1  0  0  0
  7 29  1  0  0  0
  8  9  1  0  0  0
  8 22  1  0  0  0
  9 10  1  0  0  0
  9 27  2  0  0  0
 10 11  2  0  0  0
 10 15  1  0  0  0
 11 12  1  0  0  0
 11 93  1  0  0  0
 12 13  2  0  0  0
 12 94  1  0  0  0
 13 14  1  0  0  0
 13 31  1  0  0  0
 14 15  2  0  0  0
 14 95  1  0  0  0
 15 96  1  0  0  0
 16 17  2  0  0  0
 16 21  1  0  0  0
 16 31  1  0  0  0
 17 18  1  0  0  0
 17 97  1  0  0  0
 18 19  2  0  0  0
 18 98  1  0  0  0
 19 20  1  0  0  0
 19 24  1  0  0  0
 20 21  2  0  0  0
 20 99  1  0  0  0
 21 23  1  0  0  0
 22 28  1  0  0  0
 22 32  2  0  0  0
 26 27  1  0  0  0
 28100  1  0  0  0
 28101  1  0  0  0
 29102  1  0  0  0
 29103  1  0  0  0
 33 34  1  0  0  0
 33 66  1  0  0  0
 33 70  2  0  0  0
 34 36  1  0  0  0
 34 59  1  0  0  0
 34104  1  0  0  0
 35 44  2  0  0  0
 35 45  1  0  0  0
 35 68  1  0  0  0
 36 56  1  0  0  0
 36105  1  0  0  0
 37 39  1  0  0  0
 37 47  1  0  0  0
 37 66  1  0  0  0
 37106  1  0  0  0
 38 43  2  0  0  0
 38 46  1  0  0  0
 38 47  1  0  0  0
 39 64  1  0  0  0
 39 67  2  0  0  0
 40 52  1  0  0  0
 40 53  2  0  0  0
 40 58  1  0  0  0
 41107  1  0  0  0
 41108  1  0  0  0
 41109  1  0  0  0
 41 48  1  0  0  0
 42 43  1  0  0  0
 42 66  1  0  0  0
 42110  1  0  0  0
 42111  1  0  0  0
 43 44  1  0  0  0
 44112  1  0  0  0
 45 46  2  0  0  0
 45113  1  0  0  0
 46114  1  0  0  0
 47115  1  0  0  0
 47116  1  0  0  0
 48 56  1  0  0  0
 48 65  1  0  0  0
 48117  1  0  0  0
 49 50  1  0  0  0
 49 53  1  0  0  0
 49 64  1  0  0  0
 49118  1  0  0  0
 50 51  1  0  0  0
 50119  1  0  0  0
 50120  1  0  0  0
 51 52  1  0  0  0
 51121  1  0  0  0
 51122  1  0  0  0
 52123  1  0  0  0
 52124  1  0  0  0
 53 54  1  0  0  0
 54 55  2  0  0  0
 54125  1  0  0  0
 55 57  1  0  0  0
 55126  1  0  0  0
 56 69  2  0  0  0
 57 58  2  0  0  0
 57127  1  0  0  0
 58128  1  0  0  0
 59 60  1  0  0  0
 59 61  1  0  0  0
 59 62  1  0  0  0
 60129  1  0  0  0
 60130  1  0  0  0
 60131  1  0  0  0
 61132  1  0  0  0
 61133  1  0  0  0
 61134  1  0  0  0
 62135  1  0  0  0
 62136  1  0  0  0
 62137  1  0  0  0
 63 65  1  0  0  0
 63138  1  0  0  0
 63139  1  0  0  0
 63140  1  0  0  0
 64141  1  0  0  0
 65142  1  0  0  0
 68 79  1  0  0  0
 71 73  2  0  0  0
 71 82  1  0  0  0
 71143  1  0  0  0
 72 74  1  0  0  0
 72 81  2  0  0  0
 72144  1  0  0  0
 73 77  1  0  0  0
 73 81  1  0  0  0
 74 79  1  0  0  0
 74 82  2  0  0  0
 75145  1  0  0  0
 75146  1  0  0  0
 75147  1  0  0  0
 75 80  1  0  0  0
 76 80  1  0  0  0
 76148  1  0  0  0
 76149  1  0  0  0
 76150  1  0  0  0
 77 78  1  0  0  0
 77151  1  0  0  0
 77152  1  0  0  0
 78 83  1  0  0  0
 78153  1  0  0  0
 78154  1  0  0  0
 79 80  1  0  0  0
 79155  1  0  0  0
 80156  1  0  0  0
 83157  1  0  0  0
M  ISO  4   1 100  68 101  79 101  83 100
M  END
> <chiral flag>
0

> <version>
0

> <s_m_source_file>
/data/baiqing/PycharmProjects/Reinvent-master-3.2/result/LINK_invent/BTK/process_docking_weight1_custom_sum_contain_oxygen_bond_distance_aromatic_linkinvent_7_9_3/rearranged_h_0113.sdf

> <i_m_source_file_index>
28

> <r_mmod_Potential_Energy-OPLS-2005>
532.338195800781

> <r_mmod_Stretch_Energy-OPLS-2005>
223.894714355469

> <r_mmod_Bend_Energy-OPLS-2005>
247.336166381836

> <r_mmod_Torsional_Energy-OPLS-2005>
242.995391845703

> <r_mmod_Improper_Torsional_Energy-OPLS-2005>
10.2653741836548

> <r_mmod_Van_der_Waal_Energy-OPLS-2005>
133.439865112305

> <r_mmod_Electrostatic_Energy-OPLS-2005>
-255.971389770508

> <r_mmod_Solvation_Energy-OPLS-2005>
-227.219451904297

> <b_mmod_Minimization_Converged-OPLS-2005>
0

> <r_mmod_RMS_Derivative-OPLS-2005>
3.49194121360779

$$$$
29
                    3D
 Structure written by MMmdl.
170178  0  0  1  0            999 V2000
  -30.6967  -14.4797   20.3824 C   0  0  0  0  0  0
  -30.4167  -12.2630   19.4114 C   0  0  0  0  0  0
  -29.4714  -12.4236   18.1995 C   0  0  0  0  0  0
  -28.0003  -12.3064   18.6327 C   0  0  0  0  0  0
  -27.6522  -13.1951   19.8566 C   0  0  2  0  0  0
  -28.7151  -13.0524   20.9775 C   0  0  0  0  0  0
  -25.2539  -13.8161   20.5575 C   0  0  0  0  0  0
  -24.1807  -13.0434   20.9155 C   0  0  0  0  0  0
  -24.6369  -11.6895   20.8752 C   0  0  0  0  0  0
  -23.9030  -10.4273   21.0405 C   0  0  0  0  0  0
  -24.3580   -9.4189   21.9190 C   0  0  0  0  0  0
  -23.6248   -8.2237   22.0751 C   0  0  0  0  0  0
  -22.4249   -8.0253   21.3540 C   0  0  0  0  0  0
  -21.9860   -9.0225   20.4653 C   0  0  0  0  0  0
  -22.7193  -10.2106   20.3073 C   0  0  0  0  0  0
  -21.6836   -6.0697   22.5262 C   0  0  0  0  0  0
  -21.4018   -6.5605   23.8201 C   0  0  0  0  0  0
  -21.3659   -5.6770   24.9172 C   0  0  0  0  0  0
  -21.6066   -4.3041   24.7230 C   0  0  0  0  0  0
  -21.8832   -3.8115   23.4363 C   0  0  0  0  0  0
  -21.9182   -4.6920   22.3399 C   0  0  0  0  0  0
  -22.7849  -13.5201   21.1800 C   0  0  0  0  0  0
  -22.1647   -4.2099   21.0978 F   0  0  0  0  0  0
  -21.5628   -3.4529   25.7755 F   0  0  0  0  0  0
  -30.0470  -13.2872   20.3949 N   0  0  0  0  0  0
  -26.2978  -12.9314   20.3355 N   0  0  0  0  0  0
  -25.9299  -11.6487   20.5848 N   0  0  0  0  0  0
  -22.0496  -12.8215   22.0377 N   0  0  0  0  0  0
  -25.4137  -15.1873   20.3817 N   0  0  0  0  0  0
  -31.9096  -14.6105   20.2411 O   0  0  0  0  0  0
  -21.6658   -6.8828   21.4220 O   0  0  0  0  0  0
  -22.3531  -14.5496   20.6618 O   0  0  0  0  0  0
  -24.6135  -31.8686   23.2095 C   0  0  0  0  0  0
  -25.9047  -32.4815   23.8376 C   0  0  1  0  0  0
  -27.2234  -27.4591   20.1090 C   0  0  0  0  0  0
  -25.5915  -33.8614   24.2313 N   0  0  0  0  0  0
  -23.3973  -30.4956   21.5478 C   0  0  2  0  0  0
  -24.8419  -28.9604   20.1078 C   0  0  0  0  0  0
  -22.7384  -29.4685   22.4976 C   0  0  0  0  0  0
  -18.0285  -28.1364   22.8477 C   0  0  0  0  0  0
  -24.1479  -36.7319   23.2629 C   0  0  0  0  0  0
  -25.9204  -30.8424   21.3573 C   0  0  0  0  0  0
  -25.9954  -29.4789   20.7101 C   0  0  0  0  0  0
  -27.1903  -28.7316   20.7096 C   0  0  0  0  0  0
  -26.0654  -26.9498   19.4836 C   0  0  0  0  0  0
  -24.8715  -27.6976   19.4875 C   0  0  0  0  0  0
  -23.6033  -29.8238   20.1619 C   0  0  0  0  0  0
  -25.4095  -36.3110   24.0326 C   0  0  1  0  0  0
  -20.5870  -28.3640   23.1324 C   0  0  2  0  0  0
  -20.6791  -26.9371   22.5419 C   0  0  0  0  0  0
  -19.5770  -26.6380   21.5209 C   0  0  0  0  0  0
  -18.1942  -26.7950   22.1593 C   0  0  0  0  0  0
  -19.1525  -28.8821   23.2922 C   0  0  0  0  0  0
  -18.9458  -30.1427   23.8916 C   0  0  0  0  0  0
  -17.6468  -30.6583   24.0565 C   0  0  0  0  0  0
  -25.9011  -34.9479   23.5111 C   0  0  0  0  0  0
  -16.5350  -29.9074   23.6316 C   0  0  0  0  0  0
  -16.7275  -28.6484   23.0333 C   0  0  0  0  0  0
  -26.4487  -31.6579   25.0697 C   0  0  0  0  0  0
  -25.3751  -31.3647   26.1422 C   0  0  0  0  0  0
  -27.0312  -30.3018   24.6073 C   0  0  0  0  0  0
  -27.6078  -32.4275   25.7457 C   0  0  0  0  0  0
  -27.5571  -37.1812   24.8473 C   0  0  0  0  0  0
  -21.4105  -29.3032   22.3731 N   0  0  0  0  0  0
  -26.4282  -37.3801   23.9412 N   0  0  0  0  0  0
  -24.6615  -31.0827   22.0986 N   0  0  0  0  0  0
  -23.4174  -28.8241   23.3013 O   0  0  0  0  0  0
  -28.3887  -26.7392   20.1364 O   0  0  0  0  0  0
  -26.5558  -34.8940   22.4657 O   0  0  0  0  0  0
  -23.5326  -32.1408   23.7520 O   0  0  0  0  0  0
  -28.7037  -17.1797   18.7909 C   0  0  0  0  0  0
  -28.2260  -16.5408   17.5797 C   0  0  0  0  0  0
  -28.0597  -18.2554   19.2908 C   0  0  0  0  0  0
  -30.0728  -16.6278   19.1556 C   0  0  1  0  0  0
  -30.5385  -16.2912   17.7060 C   0  0  1  0  0  0
  -31.6862  -15.3187   17.3898 C   0  0  0  0  0  0
  -30.2105  -23.0540   21.5225 C   0  0  0  0  0  0
  -27.3952  -25.4942   22.1160 C   0  0  0  0  0  0
  -28.5572  -19.1715   20.4002 C   0  0  0  0  0  0
  -27.9029  -20.5818   20.3751 C   0  0  0  0  0  0
  -28.8193  -21.7285   19.8708 C   0  0  0  0  0  0
  -28.4924  -24.3035   20.0646 C   0  0  0  0  0  0
  -28.8488  -22.9796   20.8006 C   0  0  2  0  0  0
  -28.4344  -25.5664   20.9636 C   0  0  1  0  0  0
  -29.2955  -15.9906   17.0093 N   0  0  0  0  0  0
  -29.8649  -15.4790   20.0675 N   0  0  0  0  0  0
  -27.0774  -16.4698   17.1404 O   0  0  0  0  0  0
  -31.4560  -12.3553   19.0910 H   0  0  0  0  0  0
  -30.3162  -11.2729   19.8573 H   0  0  0  0  0  0
  -29.6950  -11.6706   17.4399 H   0  0  0  0  0  0
  -29.6082  -13.3896   17.7182 H   0  0  0  0  0  0
  -27.8220  -11.2590   18.8796 H   0  0  0  0  0  0
  -27.3415  -12.5440   17.7960 H   0  0  0  0  0  0
  -27.6573  -14.2209   19.4943 H   0  0  0  0  0  0
  -28.6854  -12.0573   21.4200 H   0  0  0  0  0  0
  -28.5202  -13.7567   21.7895 H   0  0  0  0  0  0
  -25.2714   -9.5681   22.4802 H   0  0  0  0  0  0
  -23.9933   -7.4607   22.7452 H   0  0  0  0  0  0
  -21.0807   -8.8752   19.8937 H   0  0  0  0  0  0
  -22.3625  -10.9660   19.6208 H   0  0  0  0  0  0
  -21.2041   -7.6122   23.9683 H   0  0  0  0  0  0
  -21.1449   -6.0510   25.9066 H   0  0  0  0  0  0
  -22.0621   -2.7570   23.2879 H   0  0  0  0  0  0
  -22.4099  -11.9879   22.4794 H   0  0  0  0  0  0
  -21.1130  -13.1292   22.2610 H   0  0  0  0  0  0
  -24.6215  -15.8181   20.4493 H   0  0  0  0  0  0
  -26.2337  -15.6337   19.9897 H   0  0  0  0  0  0
  -26.7129  -32.5515   23.1140 H   0  0  0  0  0  0
  -25.0210  -33.9785   25.0560 H   0  0  0  0  0  0
  -22.6864  -31.3138   21.4102 H   0  0  0  0  0  0
  -23.3747  -35.9648   23.3316 H   0  0  0  0  0  0
  -24.3580  -36.8904   22.2041 H   0  0  0  0  0  0
  -23.7242  -37.6530   23.6629 H   0  0  0  0  0  0
  -26.0287  -31.6054   20.5843 H   0  0  0  0  0  0
  -26.8114  -30.8970   21.9711 H   0  0  0  0  0  0
  -28.0797  -29.1228   21.1863 H   0  0  0  0  0  0
  -26.0829  -25.9816   19.0014 H   0  0  0  0  0  0
  -23.9863  -27.2982   19.0089 H   0  0  0  0  0  0
  -23.7101  -30.5986   19.4024 H   0  0  0  0  0  0
  -22.7265  -29.2422   19.8689 H   0  0  0  0  0  0
  -25.1296  -36.1953   25.0825 H   0  0  0  0  0  0
  -20.9969  -28.3219   24.1439 H   0  0  0  0  0  0
  -20.5696  -26.2213   23.3591 H   0  0  0  0  0  0
  -21.6679  -26.7475   22.1183 H   0  0  0  0  0  0
  -19.6950  -25.6322   21.1168 H   0  0  0  0  0  0
  -19.6715  -27.3203   20.6768 H   0  0  0  0  0  0
  -17.4243  -26.6733   21.3944 H   0  0  0  0  0  0
  -18.0317  -26.0053   22.8946 H   0  0  0  0  0  0
  -19.7929  -30.7245   24.2287 H   0  0  0  0  0  0
  -17.5004  -31.6260   24.5173 H   0  0  0  0  0  0
  -15.5341  -30.2967   23.7627 H   0  0  0  0  0  0
  -15.8691  -28.0798   22.7048 H   0  0  0  0  0  0
  -24.5951  -30.6999   25.7705 H   0  0  0  0  0  0
  -24.8937  -32.2790   26.4893 H   0  0  0  0  0  0
  -25.8078  -30.8757   27.0158 H   0  0  0  0  0  0
  -26.2834  -29.6755   24.1177 H   0  0  0  0  0  0
  -27.4146  -29.7263   25.4519 H   0  0  0  0  0  0
  -27.8659  -30.4357   23.9178 H   0  0  0  0  0  0
  -27.2731  -33.3572   26.2062 H   0  0  0  0  0  0
  -28.3855  -32.6815   25.0248 H   0  0  0  0  0  0
  -28.0781  -31.8376   26.5326 H   0  0  0  0  0  0
  -28.2619  -38.0095   24.7517 H   0  0  0  0  0  0
  -28.1031  -36.2619   24.6286 H   0  0  0  0  0  0
  -27.2288  -37.1459   25.8883 H   0  0  0  0  0  0
  -20.9215  -29.8748   21.6984 H   0  0  0  0  0  0
  -26.0156  -38.2877   24.1414 H   0  0  0  0  0  0
  -27.1054  -18.5235   18.8541 H   0  0  0  0  0  0
  -30.7215  -17.3708   19.6200 H   0  0  0  0  0  0
  -30.8558  -17.2447   17.2740 H   0  0  0  0  0  0
  -31.5311  -14.3120   17.7521 H   0  0  0  0  0  0
  -32.6215  -15.6795   17.8158 H   0  0  0  0  0  0
  -31.8502  -15.2321   16.3146 H   0  0  0  0  0  0
  -30.4273  -22.1254   22.0550 H   0  0  0  0  0  0
  -30.2487  -23.8476   22.2669 H   0  0  0  0  0  0
  -31.0189  -23.2300   20.8117 H   0  0  0  0  0  0
  -27.5792  -24.6486   22.7810 H   0  0  0  0  0  0
  -26.3704  -25.4024   21.7551 H   0  0  0  0  0  0
  -27.4424  -26.3833   22.7458 H   0  0  0  0  0  0
  -29.6447  -19.2365   20.3747 H   0  0  0  0  0  0
  -28.3246  -18.6875   21.3471 H   0  0  0  0  0  0
  -27.5789  -20.7949   21.3941 H   0  0  0  0  0  0
  -26.9734  -20.5795   19.7983 H   0  0  0  0  0  0
  -28.5147  -21.9999   18.8572 H   0  0  0  0  0  0
  -29.8379  -21.3556   19.7503 H   0  0  0  0  0  0
  -27.5382  -24.1915   19.5514 H   0  0  0  0  0  0
  -29.2267  -24.4810   19.2760 H   0  0  0  0  0  0
  -28.0901  -22.8451   21.5702 H   0  0  0  0  0  0
  -29.3998  -25.6749   21.4524 H   0  0  0  0  0  0
  -29.2545  -15.4683   16.1445 H   0  0  0  0  0  0
  -28.9011  -15.2688   20.2670 H   0  0  0  0  0  0
  1 25  1  0  0  0
  1 30  2  0  0  0
  1 86  1  0  0  0
  2  3  1  0  0  0
  2 25  1  0  0  0
  2 88  1  0  0  0
  2 89  1  0  0  0
  3  4  1  0  0  0
  3 90  1  0  0  0
  3 91  1  0  0  0
  4  5  1  0  0  0
  4 92  1  0  0  0
  4 93  1  0  0  0
  5  6  1  0  0  0
  5 26  1  0  0  0
  5 94  1  0  0  0
  6 25  1  0  0  0
  6 95  1  0  0  0
  6 96  1  0  0  0
  7  8  2  0  0  0
  7 26  1  0  0  0
  7 29  1  0  0  0
  8  9  1  0  0  0
  8 22  1  0  0  0
  9 10  1  0  0  0
  9 27  2  0  0  0
 10 11  2  0  0  0
 10 15  1  0  0  0
 11 12  1  0  0  0
 11 97  1  0  0  0
 12 13  2  0  0  0
 12 98  1  0  0  0
 13 14  1  0  0  0
 13 31  1  0  0  0
 14 15  2  0  0  0
 14 99  1  0  0  0
 15100  1  0  0  0
 16 17  2  0  0  0
 16 21  1  0  0  0
 16 31  1  0  0  0
 17 18  1  0  0  0
 17101  1  0  0  0
 18 19  2  0  0  0
 18102  1  0  0  0
 19 20  1  0  0  0
 19 24  1  0  0  0
 20 21  2  0  0  0
 20103  1  0  0  0
 21 23  1  0  0  0
 22 28  1  0  0  0
 22 32  2  0  0  0
 26 27  1  0  0  0
 28104  1  0  0  0
 28105  1  0  0  0
 29106  1  0  0  0
 29107  1  0  0  0
 33 34  1  0  0  0
 33 66  1  0  0  0
 33 70  2  0  0  0
 34 36  1  0  0  0
 34 59  1  0  0  0
 34108  1  0  0  0
 35 44  2  0  0  0
 35 45  1  0  0  0
 35 68  1  0  0  0
 36 56  1  0  0  0
 36109  1  0  0  0
 37 39  1  0  0  0
 37 47  1  0  0  0
 37 66  1  0  0  0
 37110  1  0  0  0
 38 43  2  0  0  0
 38 46  1  0  0  0
 38 47  1  0  0  0
 39 64  1  0  0  0
 39 67  2  0  0  0
 40 52  1  0  0  0
 40 53  2  0  0  0
 40 58  1  0  0  0
 41111  1  0  0  0
 41112  1  0  0  0
 41113  1  0  0  0
 41 48  1  0  0  0
 42 43  1  0  0  0
 42 66  1  0  0  0
 42114  1  0  0  0
 42115  1  0  0  0
 43 44  1  0  0  0
 44116  1  0  0  0
 45 46  2  0  0  0
 45117  1  0  0  0
 46118  1  0  0  0
 47119  1  0  0  0
 47120  1  0  0  0
 48 56  1  0  0  0
 48 65  1  0  0  0
 48121  1  0  0  0
 49 50  1  0  0  0
 49 53  1  0  0  0
 49 64  1  0  0  0
 49122  1  0  0  0
 50 51  1  0  0  0
 50123  1  0  0  0
 50124  1  0  0  0
 51 52  1  0  0  0
 51125  1  0  0  0
 51126  1  0  0  0
 52127  1  0  0  0
 52128  1  0  0  0
 53 54  1  0  0  0
 54 55  2  0  0  0
 54129  1  0  0  0
 55 57  1  0  0  0
 55130  1  0  0  0
 56 69  2  0  0  0
 57 58  2  0  0  0
 57131  1  0  0  0
 58132  1  0  0  0
 59 60  1  0  0  0
 59 61  1  0  0  0
 59 62  1  0  0  0
 60133  1  0  0  0
 60134  1  0  0  0
 60135  1  0  0  0
 61136  1  0  0  0
 61137  1  0  0  0
 61138  1  0  0  0
 62139  1  0  0  0
 62140  1  0  0  0
 62141  1  0  0  0
 63 65  1  0  0  0
 63142  1  0  0  0
 63143  1  0  0  0
 63144  1  0  0  0
 64145  1  0  0  0
 65146  1  0  0  0
 68 84  1  0  0  0
 71 72  1  0  0  0
 71 73  2  0  0  0
 71 74  1  0  0  0
 72 85  1  0  0  0
 72 87  2  0  0  0
 73 79  1  0  0  0
 73147  1  0  0  0
 74 75  1  0  0  0
 74 86  1  0  0  0
 74148  1  0  0  0
 75 76  1  0  0  0
 75 85  1  0  0  0
 75149  1  0  0  0
 76150  1  0  0  0
 76151  1  0  0  0
 76152  1  0  0  0
 77153  1  0  0  0
 77154  1  0  0  0
 77155  1  0  0  0
 77 83  1  0  0  0
 78156  1  0  0  0
 78157  1  0  0  0
 78158  1  0  0  0
 78 84  1  0  0  0
 79 80  1  0  0  0
 79159  1  0  0  0
 79160  1  0  0  0
 80 81  1  0  0  0
 80161  1  0  0  0
 80162  1  0  0  0
 81 83  1  0  0  0
 81163  1  0  0  0
 81164  1  0  0  0
 82 83  1  0  0  0
 82 84  1  0  0  0
 82165  1  0  0  0
 82166  1  0  0  0
 83167  1  0  0  0
 84168  1  0  0  0
 85169  1  0  0  0
 86170  1  0  0  0
M  ISO  4   1 100  68 101  84 101  86 100
M  END
> <chiral flag>
0

> <version>
0

> <s_m_source_file>
/data/baiqing/PycharmProjects/Reinvent-master-3.2/result/LINK_invent/BTK/process_docking_weight1_custom_sum_contain_oxygen_bond_distance_aromatic_linkinvent_7_9_3/rearranged_h_0113.sdf

> <i_m_source_file_index>
29

> <r_mmod_Potential_Energy-OPLS-2005>
57.3279838562012

> <r_mmod_Stretch_Energy-OPLS-2005>
37.2488250732422

> <r_mmod_Bend_Energy-OPLS-2005>
169.313522338867

> <r_mmod_Torsional_Energy-OPLS-2005>
335.901336669922

> <r_mmod_Improper_Torsional_Energy-OPLS-2005>
15.5112190246582

> <r_mmod_Van_der_Waal_Energy-OPLS-2005>
127.412902832031

> <r_mmod_Electrostatic_Energy-OPLS-2005>
-445.976776123047

> <r_mmod_Solvation_Energy-OPLS-2005>
-209.633941650391

> <b_mmod_Minimization_Converged-OPLS-2005>
0

> <r_mmod_RMS_Derivative-OPLS-2005>
5.39196109771729

$$$$
30
                    3D
 Structure written by MMmdl.
157165  0  0  1  0            999 V2000
  -30.4663  -15.2899   20.3635 C   0  0  0  0  0  0
  -30.4305  -12.8322   19.5248 C   0  0  0  0  0  0
  -29.5337  -12.5838   18.2874 C   0  0  0  0  0  0
  -28.0836  -12.3051   18.7156 C   0  0  0  0  0  0
  -27.6084  -13.2836   19.8186 C   0  0  2  0  0  0
  -28.6420  -13.4860   20.9480 C   0  0  0  0  0  0
  -25.2383  -13.8270   20.5770 C   0  0  0  0  0  0
  -24.1746  -13.0444   20.9269 C   0  0  0  0  0  0
  -24.6414  -11.6945   20.8762 C   0  0  0  0  0  0
  -23.9112  -10.4302   21.0402 C   0  0  0  0  0  0
  -24.3649   -9.4218   21.9186 C   0  0  0  0  0  0
  -23.6313   -8.2254   22.0757 C   0  0  0  0  0  0
  -22.4295   -8.0292   21.3546 C   0  0  0  0  0  0
  -21.9938   -9.0270   20.4649 C   0  0  0  0  0  0
  -22.7277  -10.2147   20.3059 C   0  0  0  0  0  0
  -21.6861   -6.0746   22.5281 C   0  0  0  0  0  0
  -21.4017   -6.5646   23.8214 C   0  0  0  0  0  0
  -21.3658   -5.6796   24.9172 C   0  0  0  0  0  0
  -21.6042   -4.3058   24.7220 C   0  0  0  0  0  0
  -21.8816   -3.8154   23.4340 C   0  0  0  0  0  0
  -21.9197   -4.6975   22.3402 C   0  0  0  0  0  0
  -22.7762  -13.5190   21.1896 C   0  0  0  0  0  0
  -22.1663   -4.2162   21.0978 F   0  0  0  0  0  0
  -21.5625   -3.4542   25.7729 F   0  0  0  0  0  0
  -29.8657  -13.9966   20.3085 N   0  0  0  0  0  0
  -26.2815  -12.9562   20.3220 N   0  0  0  0  0  0
  -25.9357  -11.6651   20.5728 N   0  0  0  0  0  0
  -22.0423  -12.8178   22.0450 N   0  0  0  0  0  0
  -25.3999  -15.2008   20.4202 N   0  0  0  0  0  0
  -31.6981  -15.2031   20.2632 O   0  0  0  0  0  0
  -21.6648   -6.8898   21.4246 O   0  0  0  0  0  0
  -22.3443  -14.5496   20.6742 O   0  0  0  0  0  0
  -24.6700  -31.8206   23.1696 C   0  0  0  0  0  0
  -25.9349  -32.4579   23.8197 C   0  0  1  0  0  0
  -27.2074  -26.8834   20.2007 C   0  0  0  0  0  0
  -25.5984  -33.8395   24.2079 N   0  0  0  0  0  0
  -23.4855  -30.4332   21.5199 C   0  0  2  0  0  0
  -24.9364  -28.8150   20.1206 C   0  0  0  0  0  0
  -22.7702  -29.4411   22.4759 C   0  0  0  0  0  0
  -18.0329  -28.1417   22.8453 C   0  0  0  0  0  0
  -24.1490  -36.7191   23.2650 C   0  0  0  0  0  0
  -26.0576  -30.6127   21.4109 C   0  0  0  0  0  0
  -26.1221  -29.1979   20.7593 C   0  0  0  0  0  0
  -27.2527  -28.2532   20.7757 C   0  0  0  0  0  0
  -26.0046  -26.6885   19.4810 C   0  0  0  0  0  0
  -24.9028  -27.5788   19.4620 C   0  0  0  0  0  0
  -23.7294  -29.7505   20.1481 C   0  0  0  0  0  0
  -25.4130  -36.2956   24.0308 C   0  0  1  0  0  0
  -20.5960  -28.3751   23.1166 C   0  0  2  0  0  0
  -20.6798  -26.9425   22.5393 C   0  0  0  0  0  0
  -19.5772  -26.6370   21.5212 C   0  0  0  0  0  0
  -18.1954  -26.7946   22.1616 C   0  0  0  0  0  0
  -19.1600  -28.8909   23.2794 C   0  0  0  0  0  0
  -18.9507  -30.1499   23.8834 C   0  0  0  0  0  0
  -17.6498  -30.6595   24.0560 C   0  0  0  0  0  0
  -25.9099  -34.9338   23.5014 C   0  0  0  0  0  0
  -16.5383  -29.9085   23.6351 C   0  0  0  0  0  0
  -16.7315  -28.6511   23.0353 C   0  0  0  0  0  0
  -26.4574  -31.6545   25.0744 C   0  0  0  0  0  0
  -25.3685  -31.3789   26.1396 C   0  0  0  0  0  0
  -27.0483  -30.2904   24.6521 C   0  0  0  0  0  0
  -27.6063  -32.4366   25.7533 C   0  0  0  0  0  0
  -27.5568  -37.1736   24.8463 C   0  0  0  0  0  0
  -21.4364  -29.3040   22.3513 N   0  0  0  0  0  0
  -26.4263  -37.3704   23.9423 N   0  0  0  0  0  0
  -24.7587  -30.9839   22.0861 N   0  0  0  0  0  0
  -23.4220  -28.7977   23.3019 O   0  0  0  0  0  0
  -28.2081  -25.7574   20.2194 O   0  0  0  0  0  0
  -26.5719  -34.8875   22.4611 O   0  0  0  0  0  0
  -23.5750  -32.1187   23.6751 O   0  0  0  0  0  0
  -30.8329  -20.1412   19.2385 C   0  0  0  0  0  0
  -31.5676  -19.2472   18.5396 C   0  0  0  0  0  0
  -31.0292  -17.9568   18.7628 C   0  0  0  0  0  0
  -30.1392  -18.0020   19.8316 C   0  0  0  0  0  0
  -32.7097  -19.5935   17.6177 C   0  0  0  0  0  0
  -31.4617  -16.8088   17.8669 C   0  0  0  0  0  0
  -26.5625  -23.7097   20.2995 C   0  0  0  0  0  0
  -28.9471  -22.5964   20.1023 C   0  0  0  0  0  0
  -28.8553  -20.8138   20.5415 C   0  0  0  0  0  0
  -28.0266  -24.1116   20.5191 C   0  0  1  0  0  0
  -29.8039  -19.5582   19.9565 N   0  0  0  0  0  0
  -29.7755  -16.6287   20.3472 N   0  0  0  0  0  0
  -31.4489  -13.0290   19.1879 H   0  0  0  0  0  0
  -30.4961  -11.9376   20.1437 H   0  0  0  0  0  0
  -29.9184  -11.7519   17.6954 H   0  0  0  0  0  0
  -29.5600  -13.4610   17.6386 H   0  0  0  0  0  0
  -28.0411  -11.2834   19.0912 H   0  0  0  0  0  0
  -27.4163  -12.3451   17.8543 H   0  0  0  0  0  0
  -27.5149  -14.2449   19.3118 H   0  0  0  0  0  0
  -28.8235  -12.5653   21.5016 H   0  0  0  0  0  0
  -28.2796  -14.2208   21.6680 H   0  0  0  0  0  0
  -25.2795   -9.5688   22.4764 H   0  0  0  0  0  0
  -24.0016   -7.4647   22.7486 H   0  0  0  0  0  0
  -21.0866   -8.8802   19.8957 H   0  0  0  0  0  0
  -22.3740  -10.9688   19.6168 H   0  0  0  0  0  0
  -21.2016   -7.6155   23.9723 H   0  0  0  0  0  0
  -21.1477   -6.0523   25.9074 H   0  0  0  0  0  0
  -22.0599   -2.7619   23.2836 H   0  0  0  0  0  0
  -22.4056  -11.9840   22.4828 H   0  0  0  0  0  0
  -21.1037  -13.1191   22.2659 H   0  0  0  0  0  0
  -24.6266  -15.8472   20.5341 H   0  0  0  0  0  0
  -26.2392  -15.6463   20.0729 H   0  0  0  0  0  0
  -26.7423  -32.5094   23.0918 H   0  0  0  0  0  0
  -25.0096  -33.9468   25.0204 H   0  0  0  0  0  0
  -22.8023  -31.2675   21.3459 H   0  0  0  0  0  0
  -23.3774  -35.9499   23.3275 H   0  0  0  0  0  0
  -24.3575  -36.8877   22.2071 H   0  0  0  0  0  0
  -23.7222  -37.6355   23.6732 H   0  0  0  0  0  0
  -26.2471  -31.3470   20.6280 H   0  0  0  0  0  0
  -26.9158  -30.6689   22.0699 H   0  0  0  0  0  0
  -28.1507  -28.5422   21.3037 H   0  0  0  0  0  0
  -25.8812  -25.7764   18.9216 H   0  0  0  0  0  0
  -24.0091  -27.2830   18.9296 H   0  0  0  0  0  0
  -23.8993  -30.5196   19.3927 H   0  0  0  0  0  0
  -22.8373  -29.2123   19.8235 H   0  0  0  0  0  0
  -25.1316  -36.1750   25.0798 H   0  0  0  0  0  0
  -21.0055  -28.3370   24.1289 H   0  0  0  0  0  0
  -20.5667  -26.2367   23.3638 H   0  0  0  0  0  0
  -21.6657  -26.7385   22.1208 H   0  0  0  0  0  0
  -19.6930  -25.6269   21.1274 H   0  0  0  0  0  0
  -19.6730  -27.3147   20.6719 H   0  0  0  0  0  0
  -17.4221  -26.6693   21.4017 H   0  0  0  0  0  0
  -18.0345  -26.0110   22.9032 H   0  0  0  0  0  0
  -19.7983  -30.7322   24.2180 H   0  0  0  0  0  0
  -17.5051  -31.6272   24.5161 H   0  0  0  0  0  0
  -15.5380  -30.2964   23.7709 H   0  0  0  0  0  0
  -15.8716  -28.0814   22.7094 H   0  0  0  0  0  0
  -24.5904  -30.7108   25.7696 H   0  0  0  0  0  0
  -24.8832  -32.2971   26.4694 H   0  0  0  0  0  0
  -25.7909  -30.9046   27.0258 H   0  0  0  0  0  0
  -26.3168  -29.6555   24.1508 H   0  0  0  0  0  0
  -27.3966  -29.7313   25.5208 H   0  0  0  0  0  0
  -27.9126  -30.4071   23.9990 H   0  0  0  0  0  0
  -27.2656  -33.3724   26.1969 H   0  0  0  0  0  0
  -28.3938  -32.6834   25.0404 H   0  0  0  0  0  0
  -28.0671  -31.8600   26.5560 H   0  0  0  0  0  0
  -28.2532  -38.0079   24.7558 H   0  0  0  0  0  0
  -28.1120  -36.2606   24.6226 H   0  0  0  0  0  0
  -27.2302  -37.1302   25.8868 H   0  0  0  0  0  0
  -20.9635  -29.8756   21.6656 H   0  0  0  0  0  0
  -26.0112  -38.2753   24.1475 H   0  0  0  0  0  0
  -30.9448  -21.2154   19.2233 H   0  0  0  0  0  0
  -33.0909  -20.5937   17.8270 H   0  0  0  0  0  0
  -32.3891  -19.5605   16.5753 H   0  0  0  0  0  0
  -33.5302  -18.8872   17.7512 H   0  0  0  0  0  0
  -31.6133  -17.1657   16.8483 H   0  0  0  0  0  0
  -30.7051  -16.0289   17.7950 H   0  0  0  0  0  0
  -32.4116  -16.3879   18.1971 H   0  0  0  0  0  0
  -26.3728  -22.7122   20.6956 H   0  0  0  0  0  0
  -26.3202  -23.6726   19.2380 H   0  0  0  0  0  0
  -25.8687  -24.3754   20.8113 H   0  0  0  0  0  0
  -28.9098  -22.5837   19.0131 H   0  0  0  0  0  0
  -29.9765  -22.8711   20.3290 H   0  0  0  0  0  0
  -27.8269  -20.5051   20.3538 H   0  0  0  0  0  0
  -28.9576  -20.7692   21.6266 H   0  0  0  0  0  0
  -28.1380  -24.1291   21.6046 H   0  0  0  0  0  0
  -28.8126  -16.5541   20.6398 H   0  0  0  0  0  0
  1 25  1  0  0  0
  1 30  2  0  0  0
  1 82  1  0  0  0
  2  3  1  0  0  0
  2 25  1  0  0  0
  2 83  1  0  0  0
  2 84  1  0  0  0
  3  4  1  0  0  0
  3 85  1  0  0  0
  3 86  1  0  0  0
  4  5  1  0  0  0
  4 87  1  0  0  0
  4 88  1  0  0  0
  5  6  1  0  0  0
  5 26  1  0  0  0
  5 89  1  0  0  0
  6 25  1  0  0  0
  6 90  1  0  0  0
  6 91  1  0  0  0
  7  8  2  0  0  0
  7 26  1  0  0  0
  7 29  1  0  0  0
  8  9  1  0  0  0
  8 22  1  0  0  0
  9 10  1  0  0  0
  9 27  2  0  0  0
 10 11  2  0  0  0
 10 15  1  0  0  0
 11 12  1  0  0  0
 11 92  1  0  0  0
 12 13  2  0  0  0
 12 93  1  0  0  0
 13 14  1  0  0  0
 13 31  1  0  0  0
 14 15  2  0  0  0
 14 94  1  0  0  0
 15 95  1  0  0  0
 16 17  2  0  0  0
 16 21  1  0  0  0
 16 31  1  0  0  0
 17 18  1  0  0  0
 17 96  1  0  0  0
 18 19  2  0  0  0
 18 97  1  0  0  0
 19 20  1  0  0  0
 19 24  1  0  0  0
 20 21  2  0  0  0
 20 98  1  0  0  0
 21 23  1  0  0  0
 22 28  1  0  0  0
 22 32  2  0  0  0
 26 27  1  0  0  0
 28 99  1  0  0  0
 28100  1  0  0  0
 29101  1  0  0  0
 29102  1  0  0  0
 33 34  1  0  0  0
 33 66  1  0  0  0
 33 70  2  0  0  0
 34 36  1  0  0  0
 34 59  1  0  0  0
 34103  1  0  0  0
 35 44  2  0  0  0
 35 45  1  0  0  0
 35 68  1  0  0  0
 36 56  1  0  0  0
 36104  1  0  0  0
 37 39  1  0  0  0
 37 47  1  0  0  0
 37 66  1  0  0  0
 37105  1  0  0  0
 38 43  2  0  0  0
 38 46  1  0  0  0
 38 47  1  0  0  0
 39 64  1  0  0  0
 39 67  2  0  0  0
 40 52  1  0  0  0
 40 53  2  0  0  0
 40 58  1  0  0  0
 41106  1  0  0  0
 41107  1  0  0  0
 41108  1  0  0  0
 41 48  1  0  0  0
 42 43  1  0  0  0
 42 66  1  0  0  0
 42109  1  0  0  0
 42110  1  0  0  0
 43 44  1  0  0  0
 44111  1  0  0  0
 45 46  2  0  0  0
 45112  1  0  0  0
 46113  1  0  0  0
 47114  1  0  0  0
 47115  1  0  0  0
 48 56  1  0  0  0
 48 65  1  0  0  0
 48116  1  0  0  0
 49 50  1  0  0  0
 49 53  1  0  0  0
 49 64  1  0  0  0
 49117  1  0  0  0
 50 51  1  0  0  0
 50118  1  0  0  0
 50119  1  0  0  0
 51 52  1  0  0  0
 51120  1  0  0  0
 51121  1  0  0  0
 52122  1  0  0  0
 52123  1  0  0  0
 53 54  1  0  0  0
 54 55  2  0  0  0
 54124  1  0  0  0
 55 57  1  0  0  0
 55125  1  0  0  0
 56 69  2  0  0  0
 57 58  2  0  0  0
 57126  1  0  0  0
 58127  1  0  0  0
 59 60  1  0  0  0
 59 61  1  0  0  0
 59 62  1  0  0  0
 60128  1  0  0  0
 60129  1  0  0  0
 60130  1  0  0  0
 61131  1  0  0  0
 61132  1  0  0  0
 61133  1  0  0  0
 62134  1  0  0  0
 62135  1  0  0  0
 62136  1  0  0  0
 63 65  1  0  0  0
 63137  1  0  0  0
 63138  1  0  0  0
 63139  1  0  0  0
 64140  1  0  0  0
 65141  1  0  0  0
 68 80  1  0  0  0
 71 72  2  0  0  0
 71 81  1  0  0  0
 71142  1  0  0  0
 72 73  1  0  0  0
 72 75  1  0  0  0
 73 74  2  0  0  0
 73 76  1  0  0  0
 74 81  1  0  0  0
 74 82  1  0  0  0
 75143  1  0  0  0
 75144  1  0  0  0
 75145  1  0  0  0
 76146  1  0  0  0
 76147  1  0  0  0
 76148  1  0  0  0
 77149  1  0  0  0
 77150  1  0  0  0
 77151  1  0  0  0
 77 80  1  0  0  0
 78 79  1  0  0  0
 78 80  1  0  0  0
 78152  1  0  0  0
 78153  1  0  0  0
 79 81  1  0  0  0
 79154  1  0  0  0
 79155  1  0  0  0
 80156  1  0  0  0
 82157  1  0  0  0
M  ISO  4   1 100  68 101  80 101  82 100
M  END
> <chiral flag>
0

> <version>
0

> <s_m_source_file>
/data/baiqing/PycharmProjects/Reinvent-master-3.2/result/LINK_invent/BTK/process_docking_weight1_custom_sum_contain_oxygen_bond_distance_aromatic_linkinvent_7_9_3/rearranged_h_0113.sdf

> <i_m_source_file_index>
30

> <r_mmod_Potential_Energy-OPLS-2005>
1544.45581054688

> <r_mmod_Stretch_Energy-OPLS-2005>
702.237731933594

> <r_mmod_Bend_Energy-OPLS-2005>
548.974487304688

> <r_mmod_Torsional_Energy-OPLS-2005>
282.751068115234

> <r_mmod_Improper_Torsional_Energy-OPLS-2005>
4.68684482574463

> <r_mmod_Van_der_Waal_Energy-OPLS-2005>
128.500915527344

> <r_mmod_Electrostatic_Energy-OPLS-2005>
-403.993286132812

> <r_mmod_Solvation_Energy-OPLS-2005>
-214.067520141602

> <b_mmod_Minimization_Converged-OPLS-2005>
0

> <r_mmod_RMS_Derivative-OPLS-2005>
2.46069169044495

$$$$
31
                    3D
 Structure written by MMmdl.
179187  0  0  1  0            999 V2000
  -30.6936  -14.5584   20.4796 C   0  0  0  0  0  0
  -30.4140  -12.3382   19.4545 C   0  0  0  0  0  0
  -29.4973  -12.4888   18.2227 C   0  0  0  0  0  0
  -28.0207  -12.3445   18.6354 C   0  0  0  0  0  0
  -27.6512  -13.2208   19.8631 C   0  0  2  0  0  0
  -28.6955  -13.0911   20.9954 C   0  0  0  0  0  0
  -25.2546  -13.8190   20.5698 C   0  0  0  0  0  0
  -24.1820  -13.0443   20.9198 C   0  0  0  0  0  0
  -24.6405  -11.6916   20.8762 C   0  0  0  0  0  0
  -23.9087  -10.4294   21.0428 C   0  0  0  0  0  0
  -24.3635   -9.4199   21.9199 C   0  0  0  0  0  0
  -23.6301   -8.2239   22.0763 C   0  0  0  0  0  0
  -22.4280   -8.0288   21.3551 C   0  0  0  0  0  0
  -21.9928   -9.0270   20.4653 C   0  0  0  0  0  0
  -22.7264  -10.2145   20.3067 C   0  0  0  0  0  0
  -21.6853   -6.0746   22.5285 C   0  0  0  0  0  0
  -21.4014   -6.5649   23.8219 C   0  0  0  0  0  0
  -21.3657   -5.6802   24.9178 C   0  0  0  0  0  0
  -21.6041   -4.3063   24.7224 C   0  0  0  0  0  0
  -21.8821   -3.8155   23.4345 C   0  0  0  0  0  0
  -21.9193   -4.6976   22.3404 C   0  0  0  0  0  0
  -22.7841  -13.5229   21.1854 C   0  0  0  0  0  0
  -22.1663   -4.2164   21.0981 F   0  0  0  0  0  0
  -21.5625   -3.4545   25.7733 F   0  0  0  0  0  0
  -30.0160  -13.3772   20.4210 N   0  0  0  0  0  0
  -26.2983  -12.9387   20.3346 N   0  0  0  0  0  0
  -25.9336  -11.6535   20.5787 N   0  0  0  0  0  0
  -22.0497  -12.8210   22.0414 N   0  0  0  0  0  0
  -25.4236  -15.1911   20.4115 N   0  0  0  0  0  0
  -31.8767  -14.6395   20.1442 O   0  0  0  0  0  0
  -21.6636   -6.8892   21.4247 O   0  0  0  0  0  0
  -22.3526  -14.5533   20.6707 O   0  0  0  0  0  0
  -24.6190  -31.8647   23.2063 C   0  0  0  0  0  0
  -25.9058  -32.4814   23.8375 C   0  0  1  0  0  0
  -27.2342  -27.3857   20.1219 C   0  0  0  0  0  0
  -25.5894  -33.8611   24.2310 N   0  0  0  0  0  0
  -23.4115  -30.4848   21.5473 C   0  0  2  0  0  0
  -24.8621  -28.9468   20.1116 C   0  0  0  0  0  0
  -22.7443  -29.4630   22.4981 C   0  0  0  0  0  0
  -18.0272  -28.1361   22.8482 C   0  0  0  0  0  0
  -24.1491  -36.7310   23.2641 C   0  0  0  0  0  0
  -25.9435  -30.8181   21.3666 C   0  0  0  0  0  0
  -26.0250  -29.4492   20.7123 C   0  0  0  0  0  0
  -27.2173  -28.6796   20.7071 C   0  0  0  0  0  0
  -26.0593  -26.9199   19.4934 C   0  0  0  0  0  0
  -24.8778  -27.6853   19.4925 C   0  0  0  0  0  0
  -23.6241  -29.8160   20.1626 C   0  0  0  0  0  0
  -25.4113  -36.3111   24.0336 C   0  0  1  0  0  0
  -20.5867  -28.3665   23.1299 C   0  0  2  0  0  0
  -20.6759  -26.9396   22.5408 C   0  0  0  0  0  0
  -19.5737  -26.6368   21.5204 C   0  0  0  0  0  0
  -18.1913  -26.7908   22.1617 C   0  0  0  0  0  0
  -19.1521  -28.8831   23.2889 C   0  0  0  0  0  0
  -18.9459  -30.1434   23.8911 C   0  0  0  0  0  0
  -17.6464  -30.6586   24.0551 C   0  0  0  0  0  0
  -25.9036  -34.9475   23.5125 C   0  0  0  0  0  0
  -16.5352  -29.9079   23.6328 C   0  0  0  0  0  0
  -16.7262  -28.6482   23.0365 C   0  0  0  0  0  0
  -26.4459  -31.6605   25.0720 C   0  0  0  0  0  0
  -25.3700  -31.3721   26.1453 C   0  0  0  0  0  0
  -27.0279  -30.3039   24.6108 C   0  0  0  0  0  0
  -27.6039  -32.4315   25.7481 C   0  0  0  0  0  0
  -27.5584  -37.1809   24.8458 C   0  0  0  0  0  0
  -21.4162  -29.3028   22.3710 N   0  0  0  0  0  0
  -26.4300  -37.3792   23.9402 N   0  0  0  0  0  0
  -24.6761  -31.0710   22.0987 N   0  0  0  0  0  0
  -23.4190  -28.8177   23.3050 O   0  0  0  0  0  0
  -28.3550  -26.5657   20.1673 O   0  0  0  0  0  0
  -26.5616  -34.8933   22.4696 O   0  0  0  0  0  0
  -23.5372  -32.1408   23.7439 O   0  0  0  0  0  0
  -31.8252  -21.1290   17.8646 C   0  0  0  0  0  0
  -31.1515  -20.0032   17.1056 C   0  0  0  0  0  0
  -30.7621  -21.7377   18.7663 C   0  0  0  0  0  0
  -30.7529  -18.9502   18.1270 C   0  0  0  0  0  0
  -30.0372  -20.7654   19.7605 C   0  0  1  0  0  0
  -25.2541  -20.3232   21.4488 C   0  0  0  0  0  0
  -25.4115  -22.3995   20.0580 C   0  0  0  0  0  0
  -28.3007  -25.6539   22.3991 C   0  0  0  0  0  0
  -27.4367  -20.7982   20.2578 C   0  0  0  0  0  0
  -29.4479  -18.2238   20.0355 C   0  0  0  0  0  0
  -30.4828  -17.0309   20.2134 C   0  0  0  0  0  0
  -29.1793  -24.1522   20.5298 C   0  0  0  0  0  0
  -28.7841  -21.5590   20.3992 C   0  0  2  0  0  0
  -26.2043  -21.4295   20.9579 C   0  0  0  0  0  0
  -28.1798  -25.3136   20.9024 C   0  0  2  0  0  0
  -29.7869  -19.3982   19.1503 N   0  0  0  0  0  0
  -29.9668  -15.6976   20.6430 N   0  0  0  0  0  0
  -28.5402  -22.9563   19.8752 N   0  3  0  0  0  0
  -31.4614  -12.4156   19.1573 H   0  0  0  0  0  0
  -30.3053  -11.3486   19.9000 H   0  0  0  0  0  0
  -29.7499  -11.7421   17.4688 H   0  0  0  0  0  0
  -29.6556  -13.4627   17.7566 H   0  0  0  0  0  0
  -27.8485  -11.2927   18.8670 H   0  0  0  0  0  0
  -27.3674  -12.5804   17.7952 H   0  0  0  0  0  0
  -27.6673  -14.2542   19.5165 H   0  0  0  0  0  0
  -28.6827  -12.0861   21.4197 H   0  0  0  0  0  0
  -28.4644  -13.7705   21.8176 H   0  0  0  0  0  0
  -25.2793   -9.5662   22.4763 H   0  0  0  0  0  0
  -24.0013   -7.4624   22.7477 H   0  0  0  0  0  0
  -21.0862   -8.8801   19.8948 H   0  0  0  0  0  0
  -22.3745  -10.9692   19.6170 H   0  0  0  0  0  0
  -21.2012   -7.6158   23.9727 H   0  0  0  0  0  0
  -21.1475   -6.0529   25.9085 H   0  0  0  0  0  0
  -22.0601   -2.7618   23.2839 H   0  0  0  0  0  0
  -22.4135  -11.9867   22.4775 H   0  0  0  0  0  0
  -21.1123  -13.1229   22.2651 H   0  0  0  0  0  0
  -24.6518  -15.8405   20.5154 H   0  0  0  0  0  0
  -26.2690  -15.6328   20.0754 H   0  0  0  0  0  0
  -26.7133  -32.5528   23.1145 H   0  0  0  0  0  0
  -25.0019  -33.9752   25.0436 H   0  0  0  0  0  0
  -22.7034  -31.3040   21.4048 H   0  0  0  0  0  0
  -23.3761  -35.9635   23.3303 H   0  0  0  0  0  0
  -24.3586  -36.8923   22.2054 H   0  0  0  0  0  0
  -23.7230  -37.6505   23.6662 H   0  0  0  0  0  0
  -26.0579  -31.5859   20.6002 H   0  0  0  0  0  0
  -26.8294  -30.8735   21.9871 H   0  0  0  0  0  0
  -28.1121  -29.0562   21.1848 H   0  0  0  0  0  0
  -26.0482  -25.9545   19.0094 H   0  0  0  0  0  0
  -23.9873  -27.2959   19.0175 H   0  0  0  0  0  0
  -23.7336  -30.5899   19.4019 H   0  0  0  0  0  0
  -22.7489  -29.2339   19.8682 H   0  0  0  0  0  0
  -25.1291  -36.1983   25.0829 H   0  0  0  0  0  0
  -20.9937  -28.3229   24.1428 H   0  0  0  0  0  0
  -20.5645  -26.2274   23.3602 H   0  0  0  0  0  0
  -21.6633  -26.7425   22.1214 H   0  0  0  0  0  0
  -19.6901  -25.6274   21.1240 H   0  0  0  0  0  0
  -19.6681  -27.3178   20.6730 H   0  0  0  0  0  0
  -17.4181  -26.6659   21.4020 H   0  0  0  0  0  0
  -18.0315  -26.0050   22.9010 H   0  0  0  0  0  0
  -19.7944  -30.7216   24.2304 H   0  0  0  0  0  0
  -17.5034  -31.6274   24.5137 H   0  0  0  0  0  0
  -15.5354  -30.2991   23.7652 H   0  0  0  0  0  0
  -15.8650  -28.0801   22.7102 H   0  0  0  0  0  0
  -24.5888  -30.7050   25.7778 H   0  0  0  0  0  0
  -24.8862  -32.2874   26.4878 H   0  0  0  0  0  0
  -25.8027  -30.8903   27.0230 H   0  0  0  0  0  0
  -26.2811  -29.6822   24.1146 H   0  0  0  0  0  0
  -27.4004  -29.7268   25.4581 H   0  0  0  0  0  0
  -27.8680  -30.4337   23.9279 H   0  0  0  0  0  0
  -27.2664  -33.3615   26.2074 H   0  0  0  0  0  0
  -28.3842  -32.6871   25.0295 H   0  0  0  0  0  0
  -28.0713  -31.8418   26.5378 H   0  0  0  0  0  0
  -28.2601  -38.0113   24.7531 H   0  0  0  0  0  0
  -28.1089  -36.2644   24.6267 H   0  0  0  0  0  0
  -27.2306  -37.1431   25.8864 H   0  0  0  0  0  0
  -20.9338  -29.8755   21.6934 H   0  0  0  0  0  0
  -26.0201  -38.2871   24.1417 H   0  0  0  0  0  0
  -32.2134  -21.8779   17.1722 H   0  0  0  0  0  0
  -32.6730  -20.7610   18.4456 H   0  0  0  0  0  0
  -31.8449  -19.5733   16.3812 H   0  0  0  0  0  0
  -30.2859  -20.3548   16.5412 H   0  0  0  0  0  0
  -30.0430  -22.1863   18.0794 H   0  0  0  0  0  0
  -31.2173  -22.5573   19.3238 H   0  0  0  0  0  0
  -31.6799  -18.6385   18.6108 H   0  0  0  0  0  0
  -30.3489  -18.0881   17.5940 H   0  0  0  0  0  0
  -30.7486  -20.5812   20.5681 H   0  0  0  0  0  0
  -24.3978  -20.7410   21.9804 H   0  0  0  0  0  0
  -25.7551  -19.6372   22.1328 H   0  0  0  0  0  0
  -24.8709  -19.7338   20.6147 H   0  0  0  0  0  0
  -24.5535  -22.8073   20.5937 H   0  0  0  0  0  0
  -25.0219  -21.8882   19.1754 H   0  0  0  0  0  0
  -25.9872  -23.2512   19.7064 H   0  0  0  0  0  0
  -28.1255  -24.7733   23.0162 H   0  0  0  0  0  0
  -27.5736  -26.4075   22.7029 H   0  0  0  0  0  0
  -29.2927  -26.0348   22.6415 H   0  0  0  0  0  0
  -27.5613  -19.8205   20.7057 H   0  0  0  0  0  0
  -27.2189  -20.6056   19.2059 H   0  0  0  0  0  0
  -29.1798  -18.5716   21.0324 H   0  0  0  0  0  0
  -28.5355  -17.7982   19.6158 H   0  0  0  0  0  0
  -31.2772  -17.3356   20.8970 H   0  0  0  0  0  0
  -30.9699  -16.8032   19.2688 H   0  0  0  0  0  0
  -29.7162  -23.8230   21.4203 H   0  0  0  0  0  0
  -29.9486  -24.5467   19.8652 H   0  0  0  0  0  0
  -28.9755  -21.6443   21.4695 H   0  0  0  0  0  0
  -26.5421  -21.9699   21.8451 H   0  0  0  0  0  0
  -27.1686  -24.9340   20.7609 H   0  0  0  0  0  0
  -28.9906  -15.6100   20.8833 H   0  0  0  0  0  0
  -28.7573  -22.9644   18.8900 H   0  0  0  0  0  0
  -27.5416  -23.0794   19.9497 H   0  0  0  0  0  0
  1 25  1  0  0  0
  1 30  2  0  0  0
  1 87  1  0  0  0
  2  3  1  0  0  0
  2 25  1  0  0  0
  2 89  1  0  0  0
  2 90  1  0  0  0
  3  4  1  0  0  0
  3 91  1  0  0  0
  3 92  1  0  0  0
  4  5  1  0  0  0
  4 93  1  0  0  0
  4 94  1  0  0  0
  5  6  1  0  0  0
  5 26  1  0  0  0
  5 95  1  0  0  0
  6 25  1  0  0  0
  6 96  1  0  0  0
  6 97  1  0  0  0
  7  8  2  0  0  0
  7 26  1  0  0  0
  7 29  1  0  0  0
  8  9  1  0  0  0
  8 22  1  0  0  0
  9 10  1  0  0  0
  9 27  2  0  0  0
 10 11  2  0  0  0
 10 15  1  0  0  0
 11 12  1  0  0  0
 11 98  1  0  0  0
 12 13  2  0  0  0
 12 99  1  0  0  0
 13 14  1  0  0  0
 13 31  1  0  0  0
 14 15  2  0  0  0
 14100  1  0  0  0
 15101  1  0  0  0
 16 17  2  0  0  0
 16 21  1  0  0  0
 16 31  1  0  0  0
 17 18  1  0  0  0
 17102  1  0  0  0
 18 19  2  0  0  0
 18103  1  0  0  0
 19 20  1  0  0  0
 19 24  1  0  0  0
 20 21  2  0  0  0
 20104  1  0  0  0
 21 23  1  0  0  0
 22 28  1  0  0  0
 22 32  2  0  0  0
 26 27  1  0  0  0
 28105  1  0  0  0
 28106  1  0  0  0
 29107  1  0  0  0
 29108  1  0  0  0
 33 34  1  0  0  0
 33 66  1  0  0  0
 33 70  2  0  0  0
 34 36  1  0  0  0
 34 59  1  0  0  0
 34109  1  0  0  0
 35 44  2  0  0  0
 35 45  1  0  0  0
 35 68  1  0  0  0
 36 56  1  0  0  0
 36110  1  0  0  0
 37 39  1  0  0  0
 37 47  1  0  0  0
 37 66  1  0  0  0
 37111  1  0  0  0
 38 43  2  0  0  0
 38 46  1  0  0  0
 38 47  1  0  0  0
 39 64  1  0  0  0
 39 67  2  0  0  0
 40 52  1  0  0  0
 40 53  2  0  0  0
 40 58  1  0  0  0
 41112  1  0  0  0
 41113  1  0  0  0
 41114  1  0  0  0
 41 48  1  0  0  0
 42 43  1  0  0  0
 42 66  1  0  0  0
 42115  1  0  0  0
 42116  1  0  0  0
 43 44  1  0  0  0
 44117  1  0  0  0
 45 46  2  0  0  0
 45118  1  0  0  0
 46119  1  0  0  0
 47120  1  0  0  0
 47121  1  0  0  0
 48 56  1  0  0  0
 48 65  1  0  0  0
 48122  1  0  0  0
 49 50  1  0  0  0
 49 53  1  0  0  0
 49 64  1  0  0  0
 49123  1  0  0  0
 50 51  1  0  0  0
 50124  1  0  0  0
 50125  1  0  0  0
 51 52  1  0  0  0
 51126  1  0  0  0
 51127  1  0  0  0
 52128  1  0  0  0
 52129  1  0  0  0
 53 54  1  0  0  0
 54 55  2  0  0  0
 54130  1  0  0  0
 55 57  1  0  0  0
 55131  1  0  0  0
 56 69  2  0  0  0
 57 58  2  0  0  0
 57132  1  0  0  0
 58133  1  0  0  0
 59 60  1  0  0  0
 59 61  1  0  0  0
 59 62  1  0  0  0
 60134  1  0  0  0
 60135  1  0  0  0
 60136  1  0  0  0
 61137  1  0  0  0
 61138  1  0  0  0
 61139  1  0  0  0
 62140  1  0  0  0
 62141  1  0  0  0
 62142  1  0  0  0
 63 65  1  0  0  0
 63143  1  0  0  0
 63144  1  0  0  0
 63145  1  0  0  0
 64146  1  0  0  0
 65147  1  0  0  0
 68 85  1  0  0  0
 71 72  1  0  0  0
 71 73  1  0  0  0
 71148  1  0  0  0
 71149  1  0  0  0
 72 74  1  0  0  0
 72150  1  0  0  0
 72151  1  0  0  0
 73152  1  0  0  0
 73153  1  0  0  0
 73 75  1  0  0  0
 74 86  1  0  0  0
 74154  1  0  0  0
 74155  1  0  0  0
 75 83  1  0  0  0
 75 86  1  0  0  0
 75156  1  0  0  0
 76157  1  0  0  0
 76158  1  0  0  0
 76159  1  0  0  0
 76 84  1  0  0  0
 77 84  1  0  0  0
 77160  1  0  0  0
 77161  1  0  0  0
 77162  1  0  0  0
 78163  1  0  0  0
 78164  1  0  0  0
 78165  1  0  0  0
 78 85  1  0  0  0
 79 84  1  0  0  0
 79166  1  0  0  0
 79167  1  0  0  0
 79 83  1  0  0  0
 80 81  1  0  0  0
 80 86  1  0  0  0
 80168  1  0  0  0
 80169  1  0  0  0
 81 87  1  0  0  0
 81170  1  0  0  0
 81171  1  0  0  0
 82 85  1  0  0  0
 82 88  1  0  0  0
 82172  1  0  0  0
 82173  1  0  0  0
 83 88  1  0  0  0
 83174  1  0  0  0
 84175  1  0  0  0
 85176  1  0  0  0
 87177  1  0  0  0
 88178  1  0  0  0
 88179  1  0  0  0
M  CHG  1  88   1
M  ISO  4   1 100  68 101  85 101  87 100
M  END
> <chiral flag>
0

> <version>
0

> <s_m_source_file>
/data/baiqing/PycharmProjects/Reinvent-master-3.2/result/LINK_invent/BTK/process_docking_weight1_custom_sum_contain_oxygen_bond_distance_aromatic_linkinvent_7_9_3/rearranged_h_0113.sdf

> <i_m_source_file_index>
31

> <r_mmod_Potential_Energy-OPLS-2005>
59.2142524719238

> <r_mmod_Stretch_Energy-OPLS-2005>
77.9214477539062

> <r_mmod_Bend_Energy-OPLS-2005>
169.890686035156

> <r_mmod_Torsional_Energy-OPLS-2005>
346.922393798828

> <r_mmod_Improper_Torsional_Energy-OPLS-2005>
7.05151128768921

> <r_mmod_Van_der_Waal_Energy-OPLS-2005>
159.948120117188

> <r_mmod_Electrostatic_Energy-OPLS-2005>
-313.858337402344

> <r_mmod_Solvation_Energy-OPLS-2005>
-419.989288330078

> <b_mmod_Minimization_Converged-OPLS-2005>
0

> <r_mmod_RMS_Derivative-OPLS-2005>
1.76942050457001

$$$$
32
                    3D
 Structure written by MMmdl.
185193  0  0  1  0            999 V2000
  -30.7905  -14.4291   20.6693 C   0  0  0  0  0  0
  -30.4158  -12.3202   19.4287 C   0  0  0  0  0  0
  -29.4985  -12.5352   18.2110 C   0  0  0  0  0  0
  -28.0189  -12.3739   18.6110 C   0  0  0  0  0  0
  -27.6605  -13.1991   19.8726 C   0  0  2  0  0  0
  -28.7025  -13.0036   20.9953 C   0  0  0  0  0  0
  -25.2567  -13.8102   20.5661 C   0  0  0  0  0  0
  -24.1857  -13.0419   20.9215 C   0  0  0  0  0  0
  -24.6414  -11.6889   20.8776 C   0  0  0  0  0  0
  -23.9074  -10.4293   21.0425 C   0  0  0  0  0  0
  -24.3632   -9.4203   21.9181 C   0  0  0  0  0  0
  -23.6317   -8.2237   22.0745 C   0  0  0  0  0  0
  -22.4305   -8.0281   21.3531 C   0  0  0  0  0  0
  -21.9936   -9.0253   20.4624 C   0  0  0  0  0  0
  -22.7261  -10.2140   20.3035 C   0  0  0  0  0  0
  -21.6862   -6.0756   22.5282 C   0  0  0  0  0  0
  -21.4022   -6.5655   23.8220 C   0  0  0  0  0  0
  -21.3655   -5.6791   24.9174 C   0  0  0  0  0  0
  -21.6031   -4.3056   24.7215 C   0  0  0  0  0  0
  -21.8817   -3.8163   23.4340 C   0  0  0  0  0  0
  -21.9206   -4.6985   22.3410 C   0  0  0  0  0  0
  -22.7871  -13.5233   21.1849 C   0  0  0  0  0  0
  -22.1680   -4.2187   21.0982 F   0  0  0  0  0  0
  -21.5633   -3.4519   25.7728 F   0  0  0  0  0  0
  -30.0467  -13.2969   20.4672 N   0  0  0  0  0  0
  -26.3025  -12.9271   20.3350 N   0  0  0  0  0  0
  -25.9332  -11.6453   20.5798 N   0  0  0  0  0  0
  -22.0493  -12.8237   22.0390 N   0  0  0  0  0  0
  -25.4137  -15.1805   20.3902 N   0  0  0  0  0  0
  -31.8095  -14.6681   20.0177 O   0  0  0  0  0  0
  -21.6645   -6.8904   21.4253 O   0  0  0  0  0  0
  -22.3568  -14.5532   20.6675 O   0  0  0  0  0  0
  -24.6093  -31.8703   23.2085 C   0  0  0  0  0  0
  -25.9006  -32.4828   23.8368 C   0  0  1  0  0  0
  -27.2371  -27.4725   20.1030 C   0  0  0  0  0  0
  -25.5895  -33.8635   24.2332 N   0  0  0  0  0  0
  -23.3930  -30.4959   21.5501 C   0  0  2  0  0  0
  -24.8393  -28.9611   20.1152 C   0  0  0  0  0  0
  -22.7357  -29.4733   22.5010 C   0  0  0  0  0  0
  -18.0254  -28.1380   22.8529 C   0  0  0  0  0  0
  -24.1483  -36.7325   23.2640 C   0  0  0  0  0  0
  -25.9217  -30.8504   21.3521 C   0  0  0  0  0  0
  -25.9973  -29.4873   20.7013 C   0  0  0  0  0  0
  -27.2027  -28.7569   20.6864 C   0  0  0  0  0  0
  -26.0715  -26.9569   19.5020 C   0  0  0  0  0  0
  -24.8697  -27.6900   19.5101 C   0  0  0  0  0  0
  -23.5948  -29.8179   20.1677 C   0  0  0  0  0  0
  -25.4109  -36.3138   24.0335 C   0  0  1  0  0  0
  -20.5864  -28.3665   23.1329 C   0  0  2  0  0  0
  -20.6790  -26.9418   22.5414 C   0  0  0  0  0  0
  -19.5757  -26.6395   21.5241 C   0  0  0  0  0  0
  -18.1922  -26.7947   22.1636 C   0  0  0  0  0  0
  -19.1515  -28.8840   23.2941 C   0  0  0  0  0  0
  -18.9449  -30.1468   23.8918 C   0  0  0  0  0  0
  -17.6448  -30.6601   24.0582 C   0  0  0  0  0  0
  -25.9033  -34.9492   23.5127 C   0  0  0  0  0  0
  -16.5335  -29.9109   23.6331 C   0  0  0  0  0  0
  -16.7252  -28.6525   23.0342 C   0  0  0  0  0  0
  -26.4457  -31.6575   25.0673 C   0  0  0  0  0  0
  -25.3754  -31.3658   26.1431 C   0  0  0  0  0  0
  -27.0268  -30.3012   24.6005 C   0  0  0  0  0  0
  -27.6026  -32.4303   25.7442 C   0  0  0  0  0  0
  -27.5584  -37.1826   24.8465 C   0  0  0  0  0  0
  -21.4108  -29.3035   22.3727 N   0  0  0  0  0  0
  -26.4287  -37.3824   23.9420 N   0  0  0  0  0  0
  -24.6600  -31.0858   22.0946 N   0  0  0  0  0  0
  -23.4174  -28.8302   23.3044 O   0  0  0  0  0  0
  -28.3848  -26.7161   20.0583 O   0  0  0  0  0  0
  -26.5593  -34.8917   22.4682 O   0  0  0  0  0  0
  -23.5298  -32.1428   23.7523 O   0  0  0  0  0  0
  -29.7665  -18.8543   20.4702 C   0  0  0  0  0  0
  -31.6305  -17.4277   21.8849 C   0  0  0  0  0  0
  -29.5729  -17.4673   20.6329 C   0  0  0  0  0  0
  -30.5209  -16.7203   21.3739 C   0  0  0  0  0  0
  -30.9028  -19.4660   21.0272 C   0  0  0  0  0  0
  -28.3395  -16.8325   20.0384 C   0  0  0  0  0  0
  -32.7622  -22.7680   19.9012 C   0  0  0  0  0  0
  -32.3731  -20.6398   18.6337 C   0  0  0  0  0  0
  -28.1690  -26.5171   22.5844 C   0  0  0  0  0  0
  -29.3318  -15.5191   23.8750 C   0  0  0  0  0  0
  -29.1796  -24.7193   21.0932 C   0  0  0  0  0  0
  -30.4476  -14.8667   23.0306 C   0  0  0  0  0  0
  -29.2935  -14.9746   25.3148 C   0  0  0  0  0  0
  -30.2208  -24.0970   22.0520 C   0  0  0  0  0  0
  -31.0386  -21.6959   22.2553 C   0  0  0  0  0  0
  -31.1386  -20.9769   20.8727 C   0  0  1  0  0  0
  -32.4314  -21.2704   20.0444 C   0  0  0  0  0  0
  -28.9733  -26.2410   21.2851 C   0  0  1  0  0  0
  -31.8203  -18.7590   21.7248 N   0  0  0  0  0  0
  -30.3789  -15.3056   21.6235 N   0  0  0  0  0  0
  -28.2153  -15.5858   26.1082 N   0  3  0  0  0  0
  -29.9247  -22.6763   22.3552 N   0  3  0  0  0  0
  -31.4606  -12.4108   19.1274 H   0  0  0  0  0  0
  -30.3097  -11.3086   19.8268 H   0  0  0  0  0  0
  -29.7559  -11.8318   17.4191 H   0  0  0  0  0  0
  -29.6626  -13.5342   17.8022 H   0  0  0  0  0  0
  -27.8322  -11.3150   18.7920 H   0  0  0  0  0  0
  -27.3705  -12.6624   17.7827 H   0  0  0  0  0  0
  -27.6952  -14.2394   19.5720 H   0  0  0  0  0  0
  -28.6819  -11.9725   21.3574 H   0  0  0  0  0  0
  -28.4275  -13.6217   21.8462 H   0  0  0  0  0  0
  -25.2764   -9.5714   22.4764 H   0  0  0  0  0  0
  -24.0035   -7.4633   22.7450 H   0  0  0  0  0  0
  -21.0864   -8.8753   19.8935 H   0  0  0  0  0  0
  -22.3686  -10.9683   19.6158 H   0  0  0  0  0  0
  -21.2001   -7.6155   23.9750 H   0  0  0  0  0  0
  -21.1473   -6.0504   25.9085 H   0  0  0  0  0  0
  -22.0600   -2.7631   23.2810 H   0  0  0  0  0  0
  -22.4096  -11.9907   22.4818 H   0  0  0  0  0  0
  -21.1086  -13.1242   22.2539 H   0  0  0  0  0  0
  -24.6257  -15.8142   20.4573 H   0  0  0  0  0  0
  -26.2125  -15.5961   19.9333 H   0  0  0  0  0  0
  -26.7093  -32.5535   23.1154 H   0  0  0  0  0  0
  -25.0095  -33.9809   25.0505 H   0  0  0  0  0  0
  -22.6826  -31.3126   21.4111 H   0  0  0  0  0  0
  -23.3759  -35.9652   23.3301 H   0  0  0  0  0  0
  -24.3592  -36.8907   22.2059 H   0  0  0  0  0  0
  -23.7189  -37.6517   23.6631 H   0  0  0  0  0  0
  -26.0223  -31.6110   20.5783 H   0  0  0  0  0  0
  -26.8192  -30.9072   21.9570 H   0  0  0  0  0  0
  -28.0946  -29.1776   21.1272 H   0  0  0  0  0  0
  -26.0909  -25.9822   19.0305 H   0  0  0  0  0  0
  -23.9835  -27.2763   19.0506 H   0  0  0  0  0  0
  -23.6834  -30.5839   19.3982 H   0  0  0  0  0  0
  -22.7233  -29.2250   19.8857 H   0  0  0  0  0  0
  -25.1297  -36.2002   25.0830 H   0  0  0  0  0  0
  -20.9986  -28.3229   24.1437 H   0  0  0  0  0  0
  -20.5745  -26.2294   23.3596 H   0  0  0  0  0  0
  -21.6661  -26.7492   22.1183 H   0  0  0  0  0  0
  -19.6903  -25.6314   21.1241 H   0  0  0  0  0  0
  -19.6665  -27.3260   20.6815 H   0  0  0  0  0  0
  -17.4213  -26.6721   21.3992 H   0  0  0  0  0  0
  -18.0260  -26.0071   22.9001 H   0  0  0  0  0  0
  -19.7917  -30.7321   24.2259 H   0  0  0  0  0  0
  -17.4975  -31.6264   24.5208 H   0  0  0  0  0  0
  -15.5339  -30.3004   23.7653 H   0  0  0  0  0  0
  -15.8645  -28.0852   22.7029 H   0  0  0  0  0  0
  -24.5951  -30.6970   25.7787 H   0  0  0  0  0  0
  -24.8950  -32.2819   26.4884 H   0  0  0  0  0  0
  -25.8153  -30.8837   27.0167 H   0  0  0  0  0  0
  -26.2772  -29.6773   24.1133 H   0  0  0  0  0  0
  -27.4124  -29.7214   25.4401 H   0  0  0  0  0  0
  -27.8563  -30.4344   23.9056 H   0  0  0  0  0  0
  -27.2653  -33.3610   26.2006 H   0  0  0  0  0  0
  -28.3861  -32.6839   25.0299 H   0  0  0  0  0  0
  -28.0671  -31.8435   26.5369 H   0  0  0  0  0  0
  -28.2652  -38.0094   24.7562 H   0  0  0  0  0  0
  -28.1036  -36.2639   24.6266 H   0  0  0  0  0  0
  -27.2304  -37.1437   25.8864 H   0  0  0  0  0  0
  -20.9221  -29.8691   21.6919 H   0  0  0  0  0  0
  -26.0167  -38.2893   24.1433 H   0  0  0  0  0  0
  -29.0440  -19.4401   19.9195 H   0  0  0  0  0  0
  -32.3936  -16.9214   22.4567 H   0  0  0  0  0  0
  -27.6287  -17.5847   19.6981 H   0  0  0  0  0  0
  -27.8519  -16.2163   20.7915 H   0  0  0  0  0  0
  -28.6114  -16.2227   19.1792 H   0  0  0  0  0  0
  -33.5944  -22.9229   19.2136 H   0  0  0  0  0  0
  -33.0765  -23.2026   20.8497 H   0  0  0  0  0  0
  -31.9151  -23.3371   19.5142 H   0  0  0  0  0  0
  -33.3062  -20.8091   18.0946 H   0  0  0  0  0  0
  -31.5649  -21.0697   18.0378 H   0  0  0  0  0  0
  -32.2245  -19.5596   18.6697 H   0  0  0  0  0  0
  -28.5975  -26.0120   23.4481 H   0  0  0  0  0  0
  -27.1353  -26.1792   22.5009 H   0  0  0  0  0  0
  -28.1591  -27.5748   22.8427 H   0  0  0  0  0  0
  -28.3651  -15.3508   23.3986 H   0  0  0  0  0  0
  -29.4730  -16.6008   23.8979 H   0  0  0  0  0  0
  -28.2099  -24.2276   21.1890 H   0  0  0  0  0  0
  -29.5082  -24.5199   20.0713 H   0  0  0  0  0  0
  -31.4229  -15.1117   23.4534 H   0  0  0  0  0  0
  -30.3781  -13.7775   23.1105 H   0  0  0  0  0  0
  -30.2474  -15.1491   25.8135 H   0  0  0  0  0  0
  -29.1394  -13.8954   25.2936 H   0  0  0  0  0  0
  -30.2515  -24.6325   23.0025 H   0  0  0  0  0  0
  -31.2154  -24.2263   21.6337 H   0  0  0  0  0  0
  -31.9834  -22.1419   22.5611 H   0  0  0  0  0  0
  -30.8273  -20.9532   23.0262 H   0  0  0  0  0  0
  -30.3173  -21.3543   20.2649 H   0  0  0  0  0  0
  -33.2707  -20.8121   20.5681 H   0  0  0  0  0  0
  -29.9485  -26.7235   21.3719 H   0  0  0  0  0  0
  -28.3387  -16.5798   26.1797 H   0  0  0  0  0  0
  -28.2135  -15.2083   27.0400 H   0  0  0  0  0  0
  -27.3179  -15.3985   25.6979 H   0  0  0  0  0  0
  -29.1269  -22.3609   21.8280 H   0  0  0  0  0  0
  -29.6420  -22.6608   23.3228 H   0  0  0  0  0  0
  1 25  1  0  0  0
  1 30  2  0  0  0
  1 90  1  0  0  0
  2  3  1  0  0  0
  2 25  1  0  0  0
  2 93  1  0  0  0
  2 94  1  0  0  0
  3  4  1  0  0  0
  3 95  1  0  0  0
  3 96  1  0  0  0
  4  5  1  0  0  0
  4 97  1  0  0  0
  4 98  1  0  0  0
  5  6  1  0  0  0
  5 26  1  0  0  0
  5 99  1  0  0  0
  6 25  1  0  0  0
  6100  1  0  0  0
  6101  1  0  0  0
  7  8  2  0  0  0
  7 26  1  0  0  0
  7 29  1  0  0  0
  8  9  1  0  0  0
  8 22  1  0  0  0
  9 10  1  0  0  0
  9 27  2  0  0  0
 10 11  2  0  0  0
 10 15  1  0  0  0
 11 12  1  0  0  0
 11102  1  0  0  0
 12 13  2  0  0  0
 12103  1  0  0  0
 13 14  1  0  0  0
 13 31  1  0  0  0
 14 15  2  0  0  0
 14104  1  0  0  0
 15105  1  0  0  0
 16 17  2  0  0  0
 16 21  1  0  0  0
 16 31  1  0  0  0
 17 18  1  0  0  0
 17106  1  0  0  0
 18 19  2  0  0  0
 18107  1  0  0  0
 19 20  1  0  0  0
 19 24  1  0  0  0
 20 21  2  0  0  0
 20108  1  0  0  0
 21 23  1  0  0  0
 22 28  1  0  0  0
 22 32  2  0  0  0
 26 27  1  0  0  0
 28109  1  0  0  0
 28110  1  0  0  0
 29111  1  0  0  0
 29112  1  0  0  0
 33 34  1  0  0  0
 33 66  1  0  0  0
 33 70  2  0  0  0
 34 36  1  0  0  0
 34 59  1  0  0  0
 34113  1  0  0  0
 35 44  2  0  0  0
 35 45  1  0  0  0
 35 68  1  0  0  0
 36 56  1  0  0  0
 36114  1  0  0  0
 37 39  1  0  0  0
 37 47  1  0  0  0
 37 66  1  0  0  0
 37115  1  0  0  0
 38 43  2  0  0  0
 38 46  1  0  0  0
 38 47  1  0  0  0
 39 64  1  0  0  0
 39 67  2  0  0  0
 40 52  1  0  0  0
 40 53  2  0  0  0
 40 58  1  0  0  0
 41116  1  0  0  0
 41117  1  0  0  0
 41118  1  0  0  0
 41 48  1  0  0  0
 42 43  1  0  0  0
 42 66  1  0  0  0
 42119  1  0  0  0
 42120  1  0  0  0
 43 44  1  0  0  0
 44121  1  0  0  0
 45 46  2  0  0  0
 45122  1  0  0  0
 46123  1  0  0  0
 47124  1  0  0  0
 47125  1  0  0  0
 48 56  1  0  0  0
 48 65  1  0  0  0
 48126  1  0  0  0
 49 50  1  0  0  0
 49 53  1  0  0  0
 49 64  1  0  0  0
 49127  1  0  0  0
 50 51  1  0  0  0
 50128  1  0  0  0
 50129  1  0  0  0
 51 52  1  0  0  0
 51130  1  0  0  0
 51131  1  0  0  0
 52132  1  0  0  0
 52133  1  0  0  0
 53 54  1  0  0  0
 54 55  2  0  0  0
 54134  1  0  0  0
 55 57  1  0  0  0
 55135  1  0  0  0
 56 69  2  0  0  0
 57 58  2  0  0  0
 57136  1  0  0  0
 58137  1  0  0  0
 59 60  1  0  0  0
 59 61  1  0  0  0
 59 62  1  0  0  0
 60138  1  0  0  0
 60139  1  0  0  0
 60140  1  0  0  0
 61141  1  0  0  0
 61142  1  0  0  0
 61143  1  0  0  0
 62144  1  0  0  0
 62145  1  0  0  0
 62146  1  0  0  0
 63 65  1  0  0  0
 63147  1  0  0  0
 63148  1  0  0  0
 63149  1  0  0  0
 64150  1  0  0  0
 65151  1  0  0  0
 68 88  1  0  0  0
 71 73  2  0  0  0
 71 75  1  0  0  0
 71152  1  0  0  0
 72 74  2  0  0  0
 72 89  1  0  0  0
 72153  1  0  0  0
 73 74  1  0  0  0
 73 76  1  0  0  0
 74 90  1  0  0  0
 75 86  1  0  0  0
 75 89  2  0  0  0
 76154  1  0  0  0
 76155  1  0  0  0
 76156  1  0  0  0
 77157  1  0  0  0
 77158  1  0  0  0
 77159  1  0  0  0
 77 87  1  0  0  0
 78 87  1  0  0  0
 78160  1  0  0  0
 78161  1  0  0  0
 78162  1  0  0  0
 79163  1  0  0  0
 79164  1  0  0  0
 79165  1  0  0  0
 79 88  1  0  0  0
 80 82  1  0  0  0
 80 83  1  0  0  0
 80166  1  0  0  0
 80167  1  0  0  0
 81 84  1  0  0  0
 81 88  1  0  0  0
 81168  1  0  0  0
 81169  1  0  0  0
 82 90  1  0  0  0
 82170  1  0  0  0
 82171  1  0  0  0
 83 91  1  0  0  0
 83172  1  0  0  0
 83173  1  0  0  0
 84 92  1  0  0  0
 84174  1  0  0  0
 84175  1  0  0  0
 85 92  1  0  0  0
 85176  1  0  0  0
 85177  1  0  0  0
 85 86  1  0  0  0
 86 87  1  0  0  0
 86178  1  0  0  0
 87179  1  0  0  0
 88180  1  0  0  0
 91181  1  0  0  0
 91182  1  0  0  0
 91183  1  0  0  0
 92184  1  0  0  0
 92185  1  0  0  0
M  CHG  2  91   1  92   1
M  ISO  4   1 100  68 101  88 101  90 100
M  END
> <chiral flag>
0

> <version>
0

> <s_m_source_file>
/data/baiqing/PycharmProjects/Reinvent-master-3.2/result/LINK_invent/BTK/process_docking_weight1_custom_sum_contain_oxygen_bond_distance_aromatic_linkinvent_7_9_3/rearranged_h_0113.sdf

> <i_m_source_file_index>
32

> <r_mmod_Potential_Energy-OPLS-2005>
-315.964996337891

> <r_mmod_Stretch_Energy-OPLS-2005>
44.3881225585938

> <r_mmod_Bend_Energy-OPLS-2005>
120.238021850586

> <r_mmod_Torsional_Energy-OPLS-2005>
371.183074951172

> <r_mmod_Improper_Torsional_Energy-OPLS-2005>
4.62232971191406

> <r_mmod_Van_der_Waal_Energy-OPLS-2005>
151.511978149414

> <r_mmod_Electrostatic_Energy-OPLS-2005>
-94.6469039916992

> <r_mmod_Solvation_Energy-OPLS-2005>
-921.934631347656

> <b_mmod_Minimization_Converged-OPLS-2005>
0

> <r_mmod_RMS_Derivative-OPLS-2005>
4.51370191574097

$$$$
33
                    3D
 Structure written by MMmdl.
161169  0  0  1  0            999 V2000
  -30.6431  -14.6036   20.5193 C   0  0  0  0  0  0
  -30.4378  -12.3727   19.4457 C   0  0  0  0  0  0
  -29.5104  -12.5196   18.2193 C   0  0  0  0  0  0
  -28.0290  -12.3668   18.6243 C   0  0  0  0  0  0
  -27.6586  -13.2174   19.8676 C   0  0  2  0  0  0
  -28.7037  -13.0485   20.9947 C   0  0  0  0  0  0
  -25.2577  -13.8179   20.5692 C   0  0  0  0  0  0
  -24.1839  -13.0443   20.9183 C   0  0  0  0  0  0
  -24.6406  -11.6917   20.8726 C   0  0  0  0  0  0
  -23.9061  -10.4302   21.0392 C   0  0  0  0  0  0
  -24.3613   -9.4225   21.9173 C   0  0  0  0  0  0
  -23.6307   -8.2249   22.0745 C   0  0  0  0  0  0
  -22.4289   -8.0274   21.3538 C   0  0  0  0  0  0
  -21.9904   -9.0241   20.4634 C   0  0  0  0  0  0
  -22.7227  -10.2134   20.3045 C   0  0  0  0  0  0
  -21.6849   -6.0728   22.5274 C   0  0  0  0  0  0
  -21.3999   -6.5636   23.8205 C   0  0  0  0  0  0
  -21.3672   -5.6790   24.9172 C   0  0  0  0  0  0
  -21.6062   -4.3052   24.7218 C   0  0  0  0  0  0
  -21.8822   -3.8136   23.4336 C   0  0  0  0  0  0
  -21.9193   -4.6956   22.3398 C   0  0  0  0  0  0
  -22.7863  -13.5228   21.1857 C   0  0  0  0  0  0
  -22.1671   -4.2147   21.0976 F   0  0  0  0  0  0
  -21.5644   -3.4531   25.7733 F   0  0  0  0  0  0
  -30.0257  -13.3831   20.4387 N   0  0  0  0  0  0
  -26.3017  -12.9369   20.3323 N   0  0  0  0  0  0
  -25.9333  -11.6517   20.5728 N   0  0  0  0  0  0
  -22.0490  -12.8230   22.0406 N   0  0  0  0  0  0
  -25.4286  -15.1901   20.4141 N   0  0  0  0  0  0
  -31.7985  -14.7614   20.1067 O   0  0  0  0  0  0
  -21.6649   -6.8872   21.4239 O   0  0  0  0  0  0
  -22.3563  -14.5542   20.6713 O   0  0  0  0  0  0
  -24.6249  -31.8616   23.2050 C   0  0  0  0  0  0
  -25.9108  -32.4783   23.8372 C   0  0  1  0  0  0
  -27.2234  -27.3373   20.1126 C   0  0  0  0  0  0
  -25.5936  -33.8587   24.2294 N   0  0  0  0  0  0
  -23.4169  -30.4857   21.5485 C   0  0  2  0  0  0
  -24.8622  -28.9404   20.1160 C   0  0  0  0  0  0
  -22.7468  -29.4637   22.4967 C   0  0  0  0  0  0
  -18.0279  -28.1387   22.8493 C   0  0  0  0  0  0
  -24.1485  -36.7297   23.2632 C   0  0  0  0  0  0
  -25.9567  -30.7950   21.3745 C   0  0  0  0  0  0
  -26.0303  -29.4226   20.7203 C   0  0  0  0  0  0
  -27.2152  -28.6325   20.7118 C   0  0  0  0  0  0
  -26.0382  -26.9095   19.4737 C   0  0  0  0  0  0
  -24.8658  -27.6867   19.4870 C   0  0  0  0  0  0
  -23.6303  -29.8193   20.1644 C   0  0  0  0  0  0
  -25.4098  -36.3087   24.0337 C   0  0  1  0  0  0
  -20.5875  -28.3691   23.1301 C   0  0  2  0  0  0
  -20.6769  -26.9420   22.5419 C   0  0  0  0  0  0
  -19.5743  -26.6390   21.5226 C   0  0  0  0  0  0
  -18.1923  -26.7937   22.1630 C   0  0  0  0  0  0
  -19.1529  -28.8861   23.2887 C   0  0  0  0  0  0
  -18.9450  -30.1460   23.8898 C   0  0  0  0  0  0
  -17.6451  -30.6592   24.0565 C   0  0  0  0  0  0
  -25.9052  -34.9458   23.5120 C   0  0  0  0  0  0
  -16.5339  -29.9087   23.6336 C   0  0  0  0  0  0
  -16.7265  -28.6506   23.0353 C   0  0  0  0  0  0
  -26.4501  -31.6586   25.0736 C   0  0  0  0  0  0
  -25.3743  -31.3715   26.1472 C   0  0  0  0  0  0
  -27.0334  -30.3003   24.6184 C   0  0  0  0  0  0
  -27.6071  -32.4310   25.7499 C   0  0  0  0  0  0
  -27.5600  -37.1761   24.8431 C   0  0  0  0  0  0
  -21.4183  -29.3044   22.3705 N   0  0  0  0  0  0
  -26.4254  -37.3802   23.9466 N   0  0  0  0  0  0
  -24.6851  -31.0634   22.0998 N   0  0  0  0  0  0
  -23.4204  -28.8187   23.3043 O   0  0  0  0  0  0
  -28.3474  -26.5039   20.1232 O   0  0  0  0  0  0
  -26.5617  -34.8927   22.4677 O   0  0  0  0  0  0
  -23.5420  -32.1414   23.7383 O   0  0  0  0  0  0
  -28.9053  -17.8183   21.4618 C   0  0  0  0  0  0
  -30.8269  -19.1225   20.0573 C   0  0  0  0  0  0
  -28.8595  -19.2398   21.4099 C   0  0  0  0  0  0
  -29.8480  -19.9450   20.6763 C   0  0  0  0  0  0
  -29.9300  -17.0735   20.8242 C   0  0  0  0  0  0
  -27.7665  -19.9655   22.1704 C   0  0  0  0  0  0
  -30.2788  -23.4251   17.7610 C   0  0  0  0  0  0
  -30.0073  -21.5094   20.6349 C   0  0  0  0  0  0
  -28.7954  -22.4837   20.3164 C   0  0  0  0  0  0
  -28.1378  -25.0914   20.5066 C   0  0  0  0  0  0
  -29.1415  -24.0033   19.9390 C   0  0  2  0  0  0
  -30.8695  -17.7599   20.1242 N   0  0  0  0  0  0
  -29.8582  -15.6288   20.9631 N   0  0  0  0  0  0
  -29.2305  -24.1928   18.4655 N   0  3  0  0  0  0
  -31.4803  -12.4877   19.1462 H   0  0  0  0  0  0
  -30.3619  -11.3697   19.8689 H   0  0  0  0  0  0
  -29.7696  -11.7794   17.4601 H   0  0  0  0  0  0
  -29.6648  -13.4962   17.7564 H   0  0  0  0  0  0
  -27.8483  -11.3123   18.8308 H   0  0  0  0  0  0
  -27.3818  -12.6290   17.7867 H   0  0  0  0  0  0
  -27.6834  -14.2589   19.5448 H   0  0  0  0  0  0
  -28.7062  -12.0227   21.3655 H   0  0  0  0  0  0
  -28.4522  -13.6695   21.8554 H   0  0  0  0  0  0
  -25.2760   -9.5722   22.4744 H   0  0  0  0  0  0
  -24.0027   -7.4642   22.7467 H   0  0  0  0  0  0
  -21.0826   -8.8748   19.8948 H   0  0  0  0  0  0
  -22.3672  -10.9660   19.6152 H   0  0  0  0  0  0
  -21.1972   -7.6142   23.9710 H   0  0  0  0  0  0
  -21.1509   -6.0514   25.9081 H   0  0  0  0  0  0
  -22.0592   -2.7599   23.2824 H   0  0  0  0  0  0
  -22.4077  -11.9890   22.4813 H   0  0  0  0  0  0
  -21.1094  -13.1261   22.2576 H   0  0  0  0  0  0
  -24.6561  -15.8380   20.5211 H   0  0  0  0  0  0
  -26.2720  -15.6328   20.0712 H   0  0  0  0  0  0
  -26.7182  -32.5462   23.1132 H   0  0  0  0  0  0
  -25.0083  -33.9740   25.0443 H   0  0  0  0  0  0
  -22.7093  -31.3050   21.4073 H   0  0  0  0  0  0
  -23.3786  -35.9584   23.3184 H   0  0  0  0  0  0
  -24.3622  -36.9029   22.2074 H   0  0  0  0  0  0
  -23.7170  -37.6438   23.6715 H   0  0  0  0  0  0
  -26.0827  -31.5560   20.6028 H   0  0  0  0  0  0
  -26.8395  -30.8453   22.0009 H   0  0  0  0  0  0
  -28.1114  -28.9971   21.1934 H   0  0  0  0  0  0
  -25.9981  -25.9663   18.9477 H   0  0  0  0  0  0
  -23.9732  -27.3153   19.0027 H   0  0  0  0  0  0
  -23.7493  -30.5948   19.4063 H   0  0  0  0  0  0
  -22.7503  -29.2472   19.8644 H   0  0  0  0  0  0
  -25.1257  -36.1918   25.0822 H   0  0  0  0  0  0
  -20.9956  -28.3258   24.1425 H   0  0  0  0  0  0
  -20.5686  -26.2305   23.3616 H   0  0  0  0  0  0
  -21.6636  -26.7470   22.1199 H   0  0  0  0  0  0
  -19.6903  -25.6302   21.1256 H   0  0  0  0  0  0
  -19.6681  -27.3206   20.6759 H   0  0  0  0  0  0
  -17.4203  -26.6697   21.4017 H   0  0  0  0  0  0
  -18.0300  -26.0068   22.9013 H   0  0  0  0  0  0
  -19.7925  -30.7274   24.2261 H   0  0  0  0  0  0
  -17.5005  -31.6270   24.5166 H   0  0  0  0  0  0
  -15.5336  -30.2984   23.7666 H   0  0  0  0  0  0
  -15.8665  -28.0827   22.7058 H   0  0  0  0  0  0
  -24.5913  -30.7069   25.7801 H   0  0  0  0  0  0
  -24.8945  -32.2877   26.4922 H   0  0  0  0  0  0
  -25.8079  -30.8875   27.0234 H   0  0  0  0  0  0
  -26.2899  -29.6748   24.1228 H   0  0  0  0  0  0
  -27.4045  -29.7262   25.4687 H   0  0  0  0  0  0
  -27.8771  -30.4280   23.9395 H   0  0  0  0  0  0
  -27.2696  -33.3608   26.2084 H   0  0  0  0  0  0
  -28.3879  -32.6865   25.0324 H   0  0  0  0  0  0
  -28.0744  -31.8428   26.5408 H   0  0  0  0  0  0
  -28.2479  -38.0194   24.7694 H   0  0  0  0  0  0
  -28.1231  -36.2752   24.5957 H   0  0  0  0  0  0
  -27.2374  -37.1042   25.8829 H   0  0  0  0  0  0
  -20.9365  -29.8760   21.6912 H   0  0  0  0  0  0
  -26.0128  -38.2844   24.1588 H   0  0  0  0  0  0
  -28.1421  -17.2933   22.0211 H   0  0  0  0  0  0
  -31.6400  -19.5761   19.5094 H   0  0  0  0  0  0
  -27.2568  -19.2974   22.8645 H   0  0  0  0  0  0
  -27.0206  -20.3595   21.4804 H   0  0  0  0  0  0
  -28.1790  -20.7867   22.7551 H   0  0  0  0  0  0
  -30.3157  -23.7174   16.7114 H   0  0  0  0  0  0
  -30.0752  -22.3549   17.7873 H   0  0  0  0  0  0
  -31.2635  -23.6067   18.1929 H   0  0  0  0  0  0
  -30.8013  -21.7178   19.9198 H   0  0  0  0  0  0
  -30.4276  -21.8045   21.5977 H   0  0  0  0  0  0
  -28.1437  -22.5031   21.1887 H   0  0  0  0  0  0
  -28.1828  -22.0486   19.5252 H   0  0  0  0  0  0
  -28.1875  -25.0579   21.5951 H   0  0  0  0  0  0
  -27.1331  -24.7474   20.2736 H   0  0  0  0  0  0
  -30.1201  -24.2400   20.3599 H   0  0  0  0  0  0
  -28.9933  -15.3022   21.3619 H   0  0  0  0  0  0
  -28.3411  -23.9944   18.0318 H   0  0  0  0  0  0
  -29.4178  -25.1710   18.2984 H   0  0  0  0  0  0
  1 25  1  0  0  0
  1 30  2  0  0  0
  1 83  1  0  0  0
  2  3  1  0  0  0
  2 25  1  0  0  0
  2 85  1  0  0  0
  2 86  1  0  0  0
  3  4  1  0  0  0
  3 87  1  0  0  0
  3 88  1  0  0  0
  4  5  1  0  0  0
  4 89  1  0  0  0
  4 90  1  0  0  0
  5  6  1  0  0  0
  5 26  1  0  0  0
  5 91  1  0  0  0
  6 25  1  0  0  0
  6 92  1  0  0  0
  6 93  1  0  0  0
  7  8  2  0  0  0
  7 26  1  0  0  0
  7 29  1  0  0  0
  8  9  1  0  0  0
  8 22  1  0  0  0
  9 10  1  0  0  0
  9 27  2  0  0  0
 10 11  2  0  0  0
 10 15  1  0  0  0
 11 12  1  0  0  0
 11 94  1  0  0  0
 12 13  2  0  0  0
 12 95  1  0  0  0
 13 14  1  0  0  0
 13 31  1  0  0  0
 14 15  2  0  0  0
 14 96  1  0  0  0
 15 97  1  0  0  0
 16 17  2  0  0  0
 16 21  1  0  0  0
 16 31  1  0  0  0
 17 18  1  0  0  0
 17 98  1  0  0  0
 18 19  2  0  0  0
 18 99  1  0  0  0
 19 20  1  0  0  0
 19 24  1  0  0  0
 20 21  2  0  0  0
 20100  1  0  0  0
 21 23  1  0  0  0
 22 28  1  0  0  0
 22 32  2  0  0  0
 26 27  1  0  0  0
 28101  1  0  0  0
 28102  1  0  0  0
 29103  1  0  0  0
 29104  1  0  0  0
 33 34  1  0  0  0
 33 66  1  0  0  0
 33 70  2  0  0  0
 34 36  1  0  0  0
 34 59  1  0  0  0
 34105  1  0  0  0
 35 44  2  0  0  0
 35 45  1  0  0  0
 35 68  1  0  0  0
 36 56  1  0  0  0
 36106  1  0  0  0
 37 39  1  0  0  0
 37 47  1  0  0  0
 37 66  1  0  0  0
 37107  1  0  0  0
 38 43  2  0  0  0
 38 46  1  0  0  0
 38 47  1  0  0  0
 39 64  1  0  0  0
 39 67  2  0  0  0
 40 52  1  0  0  0
 40 53  2  0  0  0
 40 58  1  0  0  0
 41108  1  0  0  0
 41109  1  0  0  0
 41110  1  0  0  0
 41 48  1  0  0  0
 42 43  1  0  0  0
 42 66  1  0  0  0
 42111  1  0  0  0
 42112  1  0  0  0
 43 44  1  0  0  0
 44113  1  0  0  0
 45 46  2  0  0  0
 45114  1  0  0  0
 46115  1  0  0  0
 47116  1  0  0  0
 47117  1  0  0  0
 48 56  1  0  0  0
 48 65  1  0  0  0
 48118  1  0  0  0
 49 50  1  0  0  0
 49 53  1  0  0  0
 49 64  1  0  0  0
 49119  1  0  0  0
 50 51  1  0  0  0
 50120  1  0  0  0
 50121  1  0  0  0
 51 52  1  0  0  0
 51122  1  0  0  0
 51123  1  0  0  0
 52124  1  0  0  0
 52125  1  0  0  0
 53 54  1  0  0  0
 54 55  2  0  0  0
 54126  1  0  0  0
 55 57  1  0  0  0
 55127  1  0  0  0
 56 69  2  0  0  0
 57 58  2  0  0  0
 57128  1  0  0  0
 58129  1  0  0  0
 59 60  1  0  0  0
 59 61  1  0  0  0
 59 62  1  0  0  0
 60130  1  0  0  0
 60131  1  0  0  0
 60132  1  0  0  0
 61133  1  0  0  0
 61134  1  0  0  0
 61135  1  0  0  0
 62136  1  0  0  0
 62137  1  0  0  0
 62138  1  0  0  0
 63 65  1  0  0  0
 63139  1  0  0  0
 63140  1  0  0  0
 63141  1  0  0  0
 64142  1  0  0  0
 65143  1  0  0  0
 68 80  1  0  0  0
 71 73  2  0  0  0
 71 75  1  0  0  0
 71144  1  0  0  0
 72 74  2  0  0  0
 72 82  1  0  0  0
 72145  1  0  0  0
 73 74  1  0  0  0
 73 76  1  0  0  0
 74 78  1  0  0  0
 75 82  2  0  0  0
 75 83  1  0  0  0
 76146  1  0  0  0
 76147  1  0  0  0
 76148  1  0  0  0
 77 84  1  0  0  0
 77149  1  0  0  0
 77150  1  0  0  0
 77151  1  0  0  0
 78 79  1  0  0  0
 78152  1  0  0  0
 78153  1  0  0  0
 79154  1  0  0  0
 79155  1  0  0  0
 79 81  1  0  0  0
 80 81  1  0  0  0
 80156  1  0  0  0
 80157  1  0  0  0
 81 84  1  0  0  0
 81158  1  0  0  0
 83159  1  0  0  0
 84160  1  0  0  0
 84161  1  0  0  0
M  CHG  1  84   1
M  ISO  4   1 100  68 101  80 101  83 100
M  END
> <chiral flag>
0

> <version>
0

> <s_m_source_file>
/data/baiqing/PycharmProjects/Reinvent-master-3.2/result/LINK_invent/BTK/process_docking_weight1_custom_sum_contain_oxygen_bond_distance_aromatic_linkinvent_7_9_3/rearranged_h_0113.sdf

> <i_m_source_file_index>
33

> <r_mmod_Potential_Energy-OPLS-2005>
-212.489303588867

> <r_mmod_Stretch_Energy-OPLS-2005>
72.5317459106445

> <r_mmod_Bend_Energy-OPLS-2005>
137.405303955078

> <r_mmod_Torsional_Energy-OPLS-2005>
240.420028686523

> <r_mmod_Improper_Torsional_Energy-OPLS-2005>
3.78293704986572

> <r_mmod_Van_der_Waal_Energy-OPLS-2005>
144.660232543945

> <r_mmod_Electrostatic_Energy-OPLS-2005>
-368.631591796875

> <r_mmod_Solvation_Energy-OPLS-2005>
-480.171447753906

> <b_mmod_Minimization_Converged-OPLS-2005>
0

> <r_mmod_RMS_Derivative-OPLS-2005>
2.0012674331665

$$$$
34
                    3D
 Structure written by MMmdl.
163170  0  0  1  0            999 V2000
  -30.5331  -14.9161   20.4462 C   0  0  0  0  0  0
  -30.4469  -12.5731   19.4866 C   0  0  0  0  0  0
  -29.5191  -12.5218   18.2507 C   0  0  0  0  0  0
  -28.0546  -12.3006   18.6761 C   0  0  0  0  0  0
  -27.6301  -13.2367   19.8368 C   0  0  2  0  0  0
  -28.6735  -13.2484   20.9728 C   0  0  0  0  0  0
  -25.2477  -13.8200   20.5715 C   0  0  0  0  0  0
  -24.1781  -13.0437   20.9236 C   0  0  0  0  0  0
  -24.6382  -11.6917   20.8771 C   0  0  0  0  0  0
  -23.9062  -10.4289   21.0414 C   0  0  0  0  0  0
  -24.3616   -9.4214   21.9196 C   0  0  0  0  0  0
  -23.6303   -8.2245   22.0760 C   0  0  0  0  0  0
  -22.4281   -8.0279   21.3545 C   0  0  0  0  0  0
  -21.9916   -9.0250   20.4645 C   0  0  0  0  0  0
  -22.7239  -10.2130   20.3059 C   0  0  0  0  0  0
  -21.6855   -6.0740   22.5287 C   0  0  0  0  0  0
  -21.4006   -6.5645   23.8222 C   0  0  0  0  0  0
  -21.3655   -5.6798   24.9179 C   0  0  0  0  0  0
  -21.6048   -4.3059   24.7227 C   0  0  0  0  0  0
  -21.8817   -3.8149   23.4347 C   0  0  0  0  0  0
  -21.9191   -4.6970   22.3405 C   0  0  0  0  0  0
  -22.7808  -13.5218   21.1897 C   0  0  0  0  0  0
  -22.1664   -4.2163   21.0985 F   0  0  0  0  0  0
  -21.5625   -3.4541   25.7733 F   0  0  0  0  0  0
  -29.9494  -13.6580   20.3733 N   0  0  0  0  0  0
  -26.2878  -12.9406   20.3227 N   0  0  0  0  0  0
  -25.9303  -11.6542   20.5741 N   0  0  0  0  0  0
  -22.0440  -12.8192   22.0428 N   0  0  0  0  0  0
  -25.4178  -15.1932   20.4135 N   0  0  0  0  0  0
  -31.7430  -15.0110   20.2183 O   0  0  0  0  0  0
  -21.6638   -6.8880   21.4242 O   0  0  0  0  0  0
  -22.3503  -14.5533   20.6753 O   0  0  0  0  0  0
  -24.6400  -31.8448   23.1884 C   0  0  0  0  0  0
  -25.9185  -32.4711   23.8259 C   0  0  1  0  0  0
  -27.2179  -27.1545   20.1635 C   0  0  0  0  0  0
  -25.5964  -33.8520   24.2198 N   0  0  0  0  0  0
  -23.4426  -30.4626   21.5343 C   0  0  2  0  0  0
  -24.8910  -28.8852   20.1175 C   0  0  0  0  0  0
  -22.7552  -29.4538   22.4878 C   0  0  0  0  0  0
  -18.0308  -28.1385   22.8509 C   0  0  0  0  0  0
  -24.1480  -36.7221   23.2642 C   0  0  0  0  0  0
  -25.9957  -30.7281   21.3814 C   0  0  0  0  0  0
  -26.0683  -29.3373   20.7284 C   0  0  0  0  0  0
  -27.2343  -28.4899   20.7297 C   0  0  0  0  0  0
  -26.0146  -26.7869   19.5281 C   0  0  0  0  0  0
  -24.8744  -27.6213   19.5055 C   0  0  0  0  0  0
  -23.6674  -29.7860   20.1560 C   0  0  0  0  0  0
  -25.4125  -36.3040   24.0328 C   0  0  1  0  0  0
  -20.5915  -28.3689   23.1258 C   0  0  2  0  0  0
  -20.6791  -26.9392   22.5418 C   0  0  0  0  0  0
  -19.5767  -26.6370   21.5222 C   0  0  0  0  0  0
  -18.1941  -26.7938   22.1616 C   0  0  0  0  0  0
  -19.1563  -28.8857   23.2872 C   0  0  0  0  0  0
  -18.9483  -30.1471   23.8866 C   0  0  0  0  0  0
  -17.6478  -30.6582   24.0572 C   0  0  0  0  0  0
  -25.9073  -34.9422   23.5052 C   0  0  0  0  0  0
  -16.5366  -29.9083   23.6354 C   0  0  0  0  0  0
  -16.7289  -28.6508   23.0368 C   0  0  0  0  0  0
  -26.4526  -31.6591   25.0697 C   0  0  0  0  0  0
  -25.3737  -31.3772   26.1418 C   0  0  0  0  0  0
  -27.0389  -30.2997   24.6257 C   0  0  0  0  0  0
  -27.6030  -32.4390   25.7476 C   0  0  0  0  0  0
  -27.5576  -37.1771   24.8482 C   0  0  0  0  0  0
  -21.4246  -29.3022   22.3624 N   0  0  0  0  0  0
  -26.4283  -37.3757   23.9440 N   0  0  0  0  0  0
  -24.7126  -31.0335   22.0897 N   0  0  0  0  0  0
  -23.4217  -28.8088   23.3007 O   0  0  0  0  0  0
  -28.2992  -26.2120   20.1549 O   0  0  0  0  0  0
  -26.5637  -34.8914   22.4614 O   0  0  0  0  0  0
  -23.5526  -32.1294   23.7132 O   0  0  0  0  0  0
  -26.3035  -20.4512   21.8025 C   0  0  0  0  0  0
  -25.2813  -19.7062   22.6475 C   0  0  0  0  0  0
  -27.5605  -23.0357   18.8033 C   0  0  0  0  0  0
  -27.6936  -19.8151   21.6758 C   0  0  0  0  0  0
  -29.0700  -21.8932   20.7056 C   0  0  0  0  0  0
  -29.9441  -17.5806   20.9537 C   0  0  0  0  0  0
  -28.1675  -24.7564   20.6732 C   0  0  0  0  0  0
  -28.5875  -23.3148   19.9124 C   0  0  2  0  0  0
  -28.5865  -20.2804   20.4908 C   0  0  1  0  0  0
  -29.5054  -18.9260   20.0352 C   0  0  1  0  0  0
  -29.7141  -16.0652   20.5822 N   0  0  0  0  0  0
  -30.6876  -19.3913   19.2936 N   0  3  0  0  0  0
  -26.0051  -21.5168   21.2641 O   0  0  0  0  0  0
  -31.4772  -12.7476   19.1730 H   0  0  0  0  0  0
  -30.4521  -11.6181   20.0137 H   0  0  0  0  0  0
  -29.8373  -11.7325   17.5679 H   0  0  0  0  0  0
  -29.5995  -13.4585   17.6963 H   0  0  0  0  0  0
  -27.9584  -11.2613   18.9921 H   0  0  0  0  0  0
  -27.3865  -12.4208   17.8222 H   0  0  0  0  0  0
  -27.5975  -14.2380   19.4073 H   0  0  0  0  0  0
  -28.7563  -12.2681   21.4425 H   0  0  0  0  0  0
  -28.3780  -13.9442   21.7597 H   0  0  0  0  0  0
  -25.2751   -9.5700   22.4788 H   0  0  0  0  0  0
  -24.0017   -7.4625   22.7474 H   0  0  0  0  0  0
  -21.0859   -8.8754   19.8943 H   0  0  0  0  0  0
  -22.3696  -10.9667   19.6173 H   0  0  0  0  0  0
  -21.1994   -7.6158   23.9729 H   0  0  0  0  0  0
  -21.1480   -6.0526   25.9089 H   0  0  0  0  0  0
  -22.0595   -2.7615   23.2839 H   0  0  0  0  0  0
  -22.4043  -11.9831   22.4786 H   0  0  0  0  0  0
  -21.1059  -13.1218   22.2632 H   0  0  0  0  0  0
  -24.6422  -15.8386   20.5097 H   0  0  0  0  0  0
  -26.2494  -15.6268   20.0378 H   0  0  0  0  0  0
  -26.7240  -32.5325   23.0971 H   0  0  0  0  0  0
  -25.0236  -33.9634   25.0434 H   0  0  0  0  0  0
  -22.7456  -31.2882   21.3773 H   0  0  0  0  0  0
  -23.3776  -35.9520   23.3310 H   0  0  0  0  0  0
  -24.3574  -36.8840   22.2054 H   0  0  0  0  0  0
  -23.7187  -37.6393   23.6676 H   0  0  0  0  0  0
  -26.1552  -31.4856   20.6119 H   0  0  0  0  0  0
  -26.8636  -30.7724   22.0284 H   0  0  0  0  0  0
  -28.1388  -28.8393   21.2078 H   0  0  0  0  0  0
  -25.9479  -25.8170   19.0573 H   0  0  0  0  0  0
  -23.9739  -27.2665   19.0250 H   0  0  0  0  0  0
  -23.8037  -30.5567   19.3966 H   0  0  0  0  0  0
  -22.7840  -29.2271   19.8435 H   0  0  0  0  0  0
  -25.1302  -36.1850   25.0826 H   0  0  0  0  0  0
  -21.0013  -28.3260   24.1372 H   0  0  0  0  0  0
  -20.5694  -26.2279   23.3623 H   0  0  0  0  0  0
  -21.6653  -26.7417   22.1190 H   0  0  0  0  0  0
  -19.6923  -25.6283   21.1250 H   0  0  0  0  0  0
  -19.6712  -27.3191   20.6768 H   0  0  0  0  0  0
  -17.4216  -26.6722   21.4002 H   0  0  0  0  0  0
  -18.0302  -26.0071   22.8993 H   0  0  0  0  0  0
  -19.7957  -30.7320   24.2175 H   0  0  0  0  0  0
  -17.5031  -31.6257   24.5173 H   0  0  0  0  0  0
  -15.5368  -30.2968   23.7698 H   0  0  0  0  0  0
  -15.8698  -28.0822   22.7086 H   0  0  0  0  0  0
  -24.5903  -30.7138   25.7748 H   0  0  0  0  0  0
  -24.8949  -32.2956   26.4823 H   0  0  0  0  0  0
  -25.8033  -30.8954   27.0208 H   0  0  0  0  0  0
  -26.2992  -29.6742   24.1247 H   0  0  0  0  0  0
  -27.4007  -29.7283   25.4813 H   0  0  0  0  0  0
  -27.8909  -30.4264   23.9573 H   0  0  0  0  0  0
  -27.2598  -33.3738   26.1930 H   0  0  0  0  0  0
  -28.3874  -32.6894   25.0321 H   0  0  0  0  0  0
  -28.0669  -31.8623   26.5484 H   0  0  0  0  0  0
  -28.2572  -38.0082   24.7545 H   0  0  0  0  0  0
  -28.1064  -36.2608   24.6263 H   0  0  0  0  0  0
  -27.2299  -37.1360   25.8881 H   0  0  0  0  0  0
  -20.9435  -29.8714   21.6803 H   0  0  0  0  0  0
  -26.0134  -38.2811   24.1483 H   0  0  0  0  0  0
  -25.6872  -19.4894   23.6350 H   0  0  0  0  0  0
  -25.0160  -18.7638   22.1693 H   0  0  0  0  0  0
  -24.3754  -20.3015   22.7662 H   0  0  0  0  0  0
  -27.7984  -22.1370   18.2346 H   0  0  0  0  0  0
  -27.5283  -23.8641   18.0947 H   0  0  0  0  0  0
  -26.5535  -22.9278   19.2063 H   0  0  0  0  0  0
  -27.5061  -18.7469   21.5819 H   0  0  0  0  0  0
  -28.2271  -19.9437   22.6188 H   0  0  0  0  0  0
  -28.8941  -22.1081   21.7596 H   0  0  0  0  0  0
  -30.1582  -21.8849   20.6661 H   0  0  0  0  0  0
  -29.4377  -17.6836   21.9136 H   0  0  0  0  0  0
  -30.9960  -17.6762   21.2269 H   0  0  0  0  0  0
  -28.7775  -24.7743   21.5768 H   0  0  0  0  0  0
  -27.1517  -24.6382   21.0534 H   0  0  0  0  0  0
  -29.4951  -23.5859   19.3724 H   0  0  0  0  0  0
  -27.9008  -20.3641   19.6481 H   0  0  0  0  0  0
  -28.8801  -18.4681   19.2673 H   0  0  0  0  0  0
  -28.7390  -15.8090   20.6204 H   0  0  0  0  0  0
  -31.3328  -19.8648   19.9006 H   0  0  0  0  0  0
  -30.4190  -20.0188   18.5562 H   0  0  0  0  0  0
  -31.1639  -18.6109   18.8773 H   0  0  0  0  0  0
  1 25  1  0  0  0
  1 30  2  0  0  0
  1 81  1  0  0  0
  2  3  1  0  0  0
  2 25  1  0  0  0
  2 84  1  0  0  0
  2 85  1  0  0  0
  3  4  1  0  0  0
  3 86  1  0  0  0
  3 87  1  0  0  0
  4  5  1  0  0  0
  4 88  1  0  0  0
  4 89  1  0  0  0
  5  6  1  0  0  0
  5 26  1  0  0  0
  5 90  1  0  0  0
  6 25  1  0  0  0
  6 91  1  0  0  0
  6 92  1  0  0  0
  7  8  2  0  0  0
  7 26  1  0  0  0
  7 29  1  0  0  0
  8  9  1  0  0  0
  8 22  1  0  0  0
  9 10  1  0  0  0
  9 27  2  0  0  0
 10 11  2  0  0  0
 10 15  1  0  0  0
 11 12  1  0  0  0
 11 93  1  0  0  0
 12 13  2  0  0  0
 12 94  1  0  0  0
 13 14  1  0  0  0
 13 31  1  0  0  0
 14 15  2  0  0  0
 14 95  1  0  0  0
 15 96  1  0  0  0
 16 17  2  0  0  0
 16 21  1  0  0  0
 16 31  1  0  0  0
 17 18  1  0  0  0
 17 97  1  0  0  0
 18 19  2  0  0  0
 18 98  1  0  0  0
 19 20  1  0  0  0
 19 24  1  0  0  0
 20 21  2  0  0  0
 20 99  1  0  0  0
 21 23  1  0  0  0
 22 28  1  0  0  0
 22 32  2  0  0  0
 26 27  1  0  0  0
 28100  1  0  0  0
 28101  1  0  0  0
 29102  1  0  0  0
 29103  1  0  0  0
 33 34  1  0  0  0
 33 66  1  0  0  0
 33 70  2  0  0  0
 34 36  1  0  0  0
 34 59  1  0  0  0
 34104  1  0  0  0
 35 44  2  0  0  0
 35 45  1  0  0  0
 35 68  1  0  0  0
 36 56  1  0  0  0
 36105  1  0  0  0
 37 39  1  0  0  0
 37 47  1  0  0  0
 37 66  1  0  0  0
 37106  1  0  0  0
 38 43  2  0  0  0
 38 46  1  0  0  0
 38 47  1  0  0  0
 39 64  1  0  0  0
 39 67  2  0  0  0
 40 52  1  0  0  0
 40 53  2  0  0  0
 40 58  1  0  0  0
 41107  1  0  0  0
 41108  1  0  0  0
 41109  1  0  0  0
 41 48  1  0  0  0
 42 43  1  0  0  0
 42 66  1  0  0  0
 42110  1  0  0  0
 42111  1  0  0  0
 43 44  1  0  0  0
 44112  1  0  0  0
 45 46  2  0  0  0
 45113  1  0  0  0
 46114  1  0  0  0
 47115  1  0  0  0
 47116  1  0  0  0
 48 56  1  0  0  0
 48 65  1  0  0  0
 48117  1  0  0  0
 49 50  1  0  0  0
 49 53  1  0  0  0
 49 64  1  0  0  0
 49118  1  0  0  0
 50 51  1  0  0  0
 50119  1  0  0  0
 50120  1  0  0  0
 51 52  1  0  0  0
 51121  1  0  0  0
 51122  1  0  0  0
 52123  1  0  0  0
 52124  1  0  0  0
 53 54  1  0  0  0
 54 55  2  0  0  0
 54125  1  0  0  0
 55 57  1  0  0  0
 55126  1  0  0  0
 56 69  2  0  0  0
 57 58  2  0  0  0
 57127  1  0  0  0
 58128  1  0  0  0
 59 60  1  0  0  0
 59 61  1  0  0  0
 59 62  1  0  0  0
 60129  1  0  0  0
 60130  1  0  0  0
 60131  1  0  0  0
 61132  1  0  0  0
 61133  1  0  0  0
 61134  1  0  0  0
 62135  1  0  0  0
 62136  1  0  0  0
 62137  1  0  0  0
 63 65  1  0  0  0
 63138  1  0  0  0
 63139  1  0  0  0
 63140  1  0  0  0
 64141  1  0  0  0
 65142  1  0  0  0
 68 77  1  0  0  0
 71 72  1  0  0  0
 71 74  1  0  0  0
 71 83  2  0  0  0
 72143  1  0  0  0
 72144  1  0  0  0
 72145  1  0  0  0
 73146  1  0  0  0
 73147  1  0  0  0
 73148  1  0  0  0
 73 78  1  0  0  0
 74149  1  0  0  0
 74150  1  0  0  0
 74 79  1  0  0  0
 75 78  1  0  0  0
 75 79  1  0  0  0
 75151  1  0  0  0
 75152  1  0  0  0
 76 80  1  0  0  0
 76 81  1  0  0  0
 76153  1  0  0  0
 76154  1  0  0  0
 77 78  1  0  0  0
 77155  1  0  0  0
 77156  1  0  0  0
 78157  1  0  0  0
 79 80  1  0  0  0
 79158  1  0  0  0
 80 82  1  0  0  0
 80159  1  0  0  0
 81160  1  0  0  0
 82161  1  0  0  0
 82162  1  0  0  0
 82163  1  0  0  0
M  CHG  1  82   1
M  ISO  4   1 100  68 101  77 101  81 100
M  END
> <chiral flag>
0

> <version>
0

> <s_m_source_file>
/data/baiqing/PycharmProjects/Reinvent-master-3.2/result/LINK_invent/BTK/process_docking_weight1_custom_sum_contain_oxygen_bond_distance_aromatic_linkinvent_7_9_3/rearranged_h_0113.sdf

> <i_m_source_file_index>
34

> <r_mmod_Potential_Energy-OPLS-2005>
270.238891601562

> <r_mmod_Stretch_Energy-OPLS-2005>
271.356597900391

> <r_mmod_Bend_Energy-OPLS-2005>
311.882995605469

> <r_mmod_Torsional_Energy-OPLS-2005>
324.800231933594

> <r_mmod_Improper_Torsional_Energy-OPLS-2005>
4.58838558197021

> <r_mmod_Van_der_Waal_Energy-OPLS-2005>
104.644493103027

> <r_mmod_Electrostatic_Energy-OPLS-2005>
-395.830657958984

> <r_mmod_Solvation_Energy-OPLS-2005>
-522.515747070312

> <b_mmod_Minimization_Converged-OPLS-2005>
0

> <r_mmod_RMS_Derivative-OPLS-2005>
2.79983687400818

$$$$
35
                    3D
 Structure written by MMmdl.
179186  0  0  1  0            999 V2000
  -30.7097  -14.5036   20.6094 C   0  0  0  0  0  0
  -30.4277  -12.3476   19.4263 C   0  0  0  0  0  0
  -29.4923  -12.5136   18.2120 C   0  0  0  0  0  0
  -28.0174  -12.3584   18.6249 C   0  0  0  0  0  0
  -27.6594  -13.2078   19.8735 C   0  0  2  0  0  0
  -28.7022  -13.0159   20.9966 C   0  0  0  0  0  0
  -25.2589  -13.8136   20.5672 C   0  0  0  0  0  0
  -24.1851  -13.0420   20.9202 C   0  0  0  0  0  0
  -24.6402  -11.6896   20.8755 C   0  0  0  0  0  0
  -23.9055  -10.4290   21.0415 C   0  0  0  0  0  0
  -24.3614   -9.4208   21.9194 C   0  0  0  0  0  0
  -23.6280   -8.2244   22.0747 C   0  0  0  0  0  0
  -22.4254   -8.0289   21.3537 C   0  0  0  0  0  0
  -21.9897   -9.0249   20.4618 C   0  0  0  0  0  0
  -22.7236  -10.2123   20.3044 C   0  0  0  0  0  0
  -21.6866   -6.0739   22.5291 C   0  0  0  0  0  0
  -21.4037   -6.5634   23.8236 C   0  0  0  0  0  0
  -21.3636   -5.6761   24.9175 C   0  0  0  0  0  0
  -21.6037   -4.3026   24.7226 C   0  0  0  0  0  0
  -21.8825   -3.8141   23.4335 C   0  0  0  0  0  0
  -21.9203   -4.6977   22.3411 C   0  0  0  0  0  0
  -22.7863  -13.5216   21.1828 C   0  0  0  0  0  0
  -22.1655   -4.2157   21.0979 F   0  0  0  0  0  0
  -21.5625   -3.4517   25.7738 F   0  0  0  0  0  0
  -30.0258  -13.3365   20.4431 N   0  0  0  0  0  0
  -26.3036  -12.9310   20.3380 N   0  0  0  0  0  0
  -25.9342  -11.6479   20.5803 N   0  0  0  0  0  0
  -22.0451  -12.8198   22.0342 N   0  0  0  0  0  0
  -25.4284  -15.1837   20.3976 N   0  0  0  0  0  0
  -31.8048  -14.7081   20.0841 O   0  0  0  0  0  0
  -21.6621   -6.8893   21.4249 O   0  0  0  0  0  0
  -22.3595  -14.5565   20.6737 O   0  0  0  0  0  0
  -24.6157  -31.8686   23.2049 C   0  0  0  0  0  0
  -25.9035  -32.4830   23.8380 C   0  0  1  0  0  0
  -27.2274  -27.4035   20.1217 C   0  0  0  0  0  0
  -25.5906  -33.8625   24.2320 N   0  0  0  0  0  0
  -23.4057  -30.4879   21.5457 C   0  0  2  0  0  0
  -24.8534  -28.9420   20.1214 C   0  0  0  0  0  0
  -22.7415  -29.4653   22.4962 C   0  0  0  0  0  0
  -18.0282  -28.1371   22.8487 C   0  0  0  0  0  0
  -24.1485  -36.7320   23.2634 C   0  0  0  0  0  0
  -25.9359  -30.8243   21.3606 C   0  0  0  0  0  0
  -26.0128  -29.4506   20.7215 C   0  0  0  0  0  0
  -27.2062  -28.6884   20.7160 C   0  0  0  0  0  0
  -26.0554  -26.9123   19.5180 C   0  0  0  0  0  0
  -24.8693  -27.6723   19.5179 C   0  0  0  0  0  0
  -23.6180  -29.8146   20.1630 C   0  0  0  0  0  0
  -25.4105  -36.3103   24.0334 C   0  0  1  0  0  0
  -20.5869  -28.3667   23.1303 C   0  0  2  0  0  0
  -20.6769  -26.9397   22.5412 C   0  0  0  0  0  0
  -19.5747  -26.6389   21.5217 C   0  0  0  0  0  0
  -18.1925  -26.7928   22.1618 C   0  0  0  0  0  0
  -19.1525  -28.8835   23.2902 C   0  0  0  0  0  0
  -18.9459  -30.1448   23.8913 C   0  0  0  0  0  0
  -17.6459  -30.6580   24.0565 C   0  0  0  0  0  0
  -25.9040  -34.9478   23.5121 C   0  0  0  0  0  0
  -16.5346  -29.9083   23.6318 C   0  0  0  0  0  0
  -16.7275  -28.6493   23.0345 C   0  0  0  0  0  0
  -26.4450  -31.6588   25.0695 C   0  0  0  0  0  0
  -25.3713  -31.3700   26.1435 C   0  0  0  0  0  0
  -27.0280  -30.3032   24.6063 C   0  0  0  0  0  0
  -27.6037  -32.4298   25.7458 C   0  0  0  0  0  0
  -27.5575  -37.1811   24.8466 C   0  0  0  0  0  0
  -21.4134  -29.3054   22.3723 N   0  0  0  0  0  0
  -26.4289  -37.3796   23.9410 N   0  0  0  0  0  0
  -24.6718  -31.0755   22.0969 N   0  0  0  0  0  0
  -23.4180  -28.8193   23.3012 O   0  0  0  0  0  0
  -28.3828  -26.6530   20.0515 O   0  0  0  0  0  0
  -26.5597  -34.8937   22.4681 O   0  0  0  0  0  0
  -23.5344  -32.1441   23.7411 O   0  0  0  0  0  0
  -25.5406  -19.9939   15.2176 C   0  0  0  0  0  0
  -27.0746  -19.1470   17.0327 C   0  0  0  0  0  0
  -27.4581  -23.2616   18.4065 C   0  0  0  0  0  0
  -28.6486  -23.7380   19.2691 C   0  0  0  0  0  0
  -28.1828  -21.5770   21.5663 C   0  0  0  0  0  0
  -29.1947  -16.4707   21.1085 C   0  0  0  0  0  0
  -27.8253  -22.2062   17.3488 C   0  0  0  0  0  0
  -29.2405  -20.4299   21.3199 C   0  0  0  0  0  0
  -29.7251  -17.9345   21.3260 C   0  0  0  0  0  0
  -28.5920  -25.6443   21.0634 C   0  0  0  0  0  0
  -28.2176  -24.1561   20.6981 C   0  0  2  0  0  0
  -26.7848  -20.3121   16.0613 C   0  0  0  0  0  0
  -28.6690  -23.0832   21.7729 C   0  0  1  0  0  0
  -30.1960  -15.4292   21.4463 N   0  0  0  0  0  0
  -30.1149  -23.1872   22.0967 N   0  3  0  0  0  0
  -28.6964  -19.0273   21.2481 N   0  3  0  0  0  0
  -26.6032  -21.6023   16.7702 N   0  3  0  0  0  0
  -31.4677  -12.4676   19.1150 H   0  0  0  0  0  0
  -30.3596  -11.3397   19.8372 H   0  0  0  0  0  0
  -29.7397  -11.7855   17.4388 H   0  0  0  0  0  0
  -29.6443  -13.4965   17.7657 H   0  0  0  0  0  0
  -27.8379  -11.3021   18.8290 H   0  0  0  0  0  0
  -27.3638  -12.6214   17.7926 H   0  0  0  0  0  0
  -27.6935  -14.2510   19.5656 H   0  0  0  0  0  0
  -28.6951  -11.9816   21.3448 H   0  0  0  0  0  0
  -28.4532  -13.6252   21.8659 H   0  0  0  0  0  0
  -25.2778   -9.5702   22.4755 H   0  0  0  0  0  0
  -23.9982   -7.4616   22.7454 H   0  0  0  0  0  0
  -21.0842   -8.8752   19.8896 H   0  0  0  0  0  0
  -22.3686  -10.9658   19.6154 H   0  0  0  0  0  0
  -21.2031   -7.6135   23.9780 H   0  0  0  0  0  0
  -21.1424   -6.0450   25.9082 H   0  0  0  0  0  0
  -22.0614   -2.7610   23.2812 H   0  0  0  0  0  0
  -22.4003  -11.9832   22.4736 H   0  0  0  0  0  0
  -21.1102  -13.1347   22.2545 H   0  0  0  0  0  0
  -24.6446  -15.8241   20.4575 H   0  0  0  0  0  0
  -26.2506  -15.5973   19.9800 H   0  0  0  0  0  0
  -26.7083  -32.5522   23.1135 H   0  0  0  0  0  0
  -25.0088  -33.9826   25.0474 H   0  0  0  0  0  0
  -22.6936  -31.3035   21.3999 H   0  0  0  0  0  0
  -23.3753  -35.9654   23.3298 H   0  0  0  0  0  0
  -24.3569  -36.8927   22.2049 H   0  0  0  0  0  0
  -23.7245  -37.6530   23.6642 H   0  0  0  0  0  0
  -26.0474  -31.5813   20.5818 H   0  0  0  0  0  0
  -26.8252  -30.8863   21.9761 H   0  0  0  0  0  0
  -28.1063  -29.0848   21.1642 H   0  0  0  0  0  0
  -26.0608  -25.9442   19.0420 H   0  0  0  0  0  0
  -23.9785  -27.2718   19.0541 H   0  0  0  0  0  0
  -23.7336  -30.5863   19.4021 H   0  0  0  0  0  0
  -22.7420  -29.2344   19.8664 H   0  0  0  0  0  0
  -25.1275  -36.1967   25.0831 H   0  0  0  0  0  0
  -20.9976  -28.3245   24.1419 H   0  0  0  0  0  0
  -20.5661  -26.2298   23.3614 H   0  0  0  0  0  0
  -21.6642  -26.7453   22.1202 H   0  0  0  0  0  0
  -19.6914  -25.6314   21.1233 H   0  0  0  0  0  0
  -19.6672  -27.3201   20.6750 H   0  0  0  0  0  0
  -17.4197  -26.6693   21.4007 H   0  0  0  0  0  0
  -18.0304  -26.0068   22.9006 H   0  0  0  0  0  0
  -19.7933  -30.7266   24.2274 H   0  0  0  0  0  0
  -17.5008  -31.6257   24.5175 H   0  0  0  0  0  0
  -15.5337  -30.2988   23.7641 H   0  0  0  0  0  0
  -15.8675  -28.0825   22.7049 H   0  0  0  0  0  0
  -24.5911  -30.7021   25.7747 H   0  0  0  0  0  0
  -24.8894  -32.2871   26.4842 H   0  0  0  0  0  0
  -25.8066  -30.8893   27.0206 H   0  0  0  0  0  0
  -26.2819  -29.6807   24.1119 H   0  0  0  0  0  0
  -27.4048  -29.7238   25.4495 H   0  0  0  0  0  0
  -27.8644  -30.4341   23.9204 H   0  0  0  0  0  0
  -27.2664  -33.3597   26.2053 H   0  0  0  0  0  0
  -28.3845  -32.6864   25.0280 H   0  0  0  0  0  0
  -28.0715  -31.8421   26.5364 H   0  0  0  0  0  0
  -28.2591  -38.0108   24.7515 H   0  0  0  0  0  0
  -28.1069  -36.2645   24.6273 H   0  0  0  0  0  0
  -27.2307  -37.1434   25.8874 H   0  0  0  0  0  0
  -20.9279  -29.8789   21.6955 H   0  0  0  0  0  0
  -26.0174  -38.2876   24.1412 H   0  0  0  0  0  0
  -25.6821  -19.0761   14.6469 H   0  0  0  0  0  0
  -25.3266  -20.7889   14.5045 H   0  0  0  0  0  0
  -24.6578  -19.8577   15.8426 H   0  0  0  0  0  0
  -27.1681  -18.2063   16.4870 H   0  0  0  0  0  0
  -26.2734  -19.0191   17.7615 H   0  0  0  0  0  0
  -28.0079  -19.2795   17.5790 H   0  0  0  0  0  0
  -26.9865  -24.1201   17.9274 H   0  0  0  0  0  0
  -26.6905  -22.8318   19.0487 H   0  0  0  0  0  0
  -29.1557  -24.5560   18.7565 H   0  0  0  0  0  0
  -29.3987  -22.9512   19.3322 H   0  0  0  0  0  0
  -27.6399  -21.3045   22.4732 H   0  0  0  0  0  0
  -27.4195  -21.5425   20.7898 H   0  0  0  0  0  0
  -28.8582  -16.3439   20.0766 H   0  0  0  0  0  0
  -28.3250  -16.2972   21.7432 H   0  0  0  0  0  0
  -28.4317  -21.4344   17.8198 H   0  0  0  0  0  0
  -28.4373  -22.6417   16.5573 H   0  0  0  0  0  0
  -29.9766  -20.4524   22.1254 H   0  0  0  0  0  0
  -29.7913  -20.6302   20.3982 H   0  0  0  0  0  0
  -30.5027  -18.1451   20.5905 H   0  0  0  0  0  0
  -30.2036  -17.9916   22.3051 H   0  0  0  0  0  0
  -29.6583  -25.6986   21.2848 H   0  0  0  0  0  0
  -28.0890  -25.9390   21.9872 H   0  0  0  0  0  0
  -27.1287  -24.1592   20.7226 H   0  0  0  0  0  0
  -27.6323  -20.4172   15.3810 H   0  0  0  0  0  0
  -28.1682  -23.4161   22.6852 H   0  0  0  0  0  0
  -30.9485  -15.8459   21.9754 H   0  0  0  0  0  0
  -30.3439  -24.1335   22.3451 H   0  0  0  0  0  0
  -30.7104  -22.9359   21.3251 H   0  0  0  0  0  0
  -30.3550  -22.6271   22.8968 H   0  0  0  0  0  0
  -28.1597  -18.9258   20.4023 H   0  0  0  0  0  0
  -28.0611  -18.8852   22.0193 H   0  0  0  0  0  0
  -26.2189  -22.2713   16.1214 H   0  0  0  0  0  0
  -25.9208  -21.4744   17.4997 H   0  0  0  0  0  0
  1 25  1  0  0  0
  1 30  2  0  0  0
  1 84  1  0  0  0
  2  3  1  0  0  0
  2 25  1  0  0  0
  2 88  1  0  0  0
  2 89  1  0  0  0
  3  4  1  0  0  0
  3 90  1  0  0  0
  3 91  1  0  0  0
  4  5  1  0  0  0
  4 92  1  0  0  0
  4 93  1  0  0  0
  5  6  1  0  0  0
  5 26  1  0  0  0
  5 94  1  0  0  0
  6 25  1  0  0  0
  6 95  1  0  0  0
  6 96  1  0  0  0
  7  8  2  0  0  0
  7 26  1  0  0  0
  7 29  1  0  0  0
  8  9  1  0  0  0
  8 22  1  0  0  0
  9 10  1  0  0  0
  9 27  2  0  0  0
 10 11  2  0  0  0
 10 15  1  0  0  0
 11 12  1  0  0  0
 11 97  1  0  0  0
 12 13  2  0  0  0
 12 98  1  0  0  0
 13 14  1  0  0  0
 13 31  1  0  0  0
 14 15  2  0  0  0
 14 99  1  0  0  0
 15100  1  0  0  0
 16 17  2  0  0  0
 16 21  1  0  0  0
 16 31  1  0  0  0
 17 18  1  0  0  0
 17101  1  0  0  0
 18 19  2  0  0  0
 18102  1  0  0  0
 19 20  1  0  0  0
 19 24  1  0  0  0
 20 21  2  0  0  0
 20103  1  0  0  0
 21 23  1  0  0  0
 22 28  1  0  0  0
 22 32  2  0  0  0
 26 27  1  0  0  0
 28104  1  0  0  0
 28105  1  0  0  0
 29106  1  0  0  0
 29107  1  0  0  0
 33 34  1  0  0  0
 33 66  1  0  0  0
 33 70  2  0  0  0
 34 36  1  0  0  0
 34 59  1  0  0  0
 34108  1  0  0  0
 35 44  2  0  0  0
 35 45  1  0  0  0
 35 68  1  0  0  0
 36 56  1  0  0  0
 36109  1  0  0  0
 37 39  1  0  0  0
 37 47  1  0  0  0
 37 66  1  0  0  0
 37110  1  0  0  0
 38 43  2  0  0  0
 38 46  1  0  0  0
 38 47  1  0  0  0
 39 64  1  0  0  0
 39 67  2  0  0  0
 40 52  1  0  0  0
 40 53  2  0  0  0
 40 58  1  0  0  0
 41111  1  0  0  0
 41112  1  0  0  0
 41113  1  0  0  0
 41 48  1  0  0  0
 42 43  1  0  0  0
 42 66  1  0  0  0
 42114  1  0  0  0
 42115  1  0  0  0
 43 44  1  0  0  0
 44116  1  0  0  0
 45 46  2  0  0  0
 45117  1  0  0  0
 46118  1  0  0  0
 47119  1  0  0  0
 47120  1  0  0  0
 48 56  1  0  0  0
 48 65  1  0  0  0
 48121  1  0  0  0
 49 50  1  0  0  0
 49 53  1  0  0  0
 49 64  1  0  0  0
 49122  1  0  0  0
 50 51  1  0  0  0
 50123  1  0  0  0
 50124  1  0  0  0
 51 52  1  0  0  0
 51125  1  0  0  0
 51126  1  0  0  0
 52127  1  0  0  0
 52128  1  0  0  0
 53 54  1  0  0  0
 54 55  2  0  0  0
 54129  1  0  0  0
 55 57  1  0  0  0
 55130  1  0  0  0
 56 69  2  0  0  0
 57 58  2  0  0  0
 57131  1  0  0  0
 58132  1  0  0  0
 59 60  1  0  0  0
 59 61  1  0  0  0
 59 62  1  0  0  0
 60133  1  0  0  0
 60134  1  0  0  0
 60135  1  0  0  0
 61136  1  0  0  0
 61137  1  0  0  0
 61138  1  0  0  0
 62139  1  0  0  0
 62140  1  0  0  0
 62141  1  0  0  0
 63 65  1  0  0  0
 63142  1  0  0  0
 63143  1  0  0  0
 63144  1  0  0  0
 64145  1  0  0  0
 65146  1  0  0  0
 68 80  1  0  0  0
 71147  1  0  0  0
 71148  1  0  0  0
 71149  1  0  0  0
 71 82  1  0  0  0
 72 82  1  0  0  0
 72150  1  0  0  0
 72151  1  0  0  0
 72152  1  0  0  0
 73 74  1  0  0  0
 73 77  1  0  0  0
 73153  1  0  0  0
 73154  1  0  0  0
 74155  1  0  0  0
 74156  1  0  0  0
 74 81  1  0  0  0
 75 78  1  0  0  0
 75 83  1  0  0  0
 75157  1  0  0  0
 75158  1  0  0  0
 76 79  1  0  0  0
 76 84  1  0  0  0
 76159  1  0  0  0
 76160  1  0  0  0
 77 87  1  0  0  0
 77161  1  0  0  0
 77162  1  0  0  0
 78 86  1  0  0  0
 78163  1  0  0  0
 78164  1  0  0  0
 79 86  1  0  0  0
 79165  1  0  0  0
 79166  1  0  0  0
 80 81  1  0  0  0
 80167  1  0  0  0
 80168  1  0  0  0
 81 83  1  0  0  0
 81169  1  0  0  0
 82 87  1  0  0  0
 82170  1  0  0  0
 83 85  1  0  0  0
 83171  1  0  0  0
 84172  1  0  0  0
 85173  1  0  0  0
 85174  1  0  0  0
 85175  1  0  0  0
 86176  1  0  0  0
 86177  1  0  0  0
 87178  1  0  0  0
 87179  1  0  0  0
M  CHG  3  85   1  86   1  87   1
M  ISO  4   1 100  68 101  80 101  84 100
M  END
> <chiral flag>
0

> <version>
0

> <s_m_source_file>
/data/baiqing/PycharmProjects/Reinvent-master-3.2/result/LINK_invent/BTK/process_docking_weight1_custom_sum_contain_oxygen_bond_distance_aromatic_linkinvent_7_9_3/rearranged_h_0113.sdf

> <i_m_source_file_index>
35

> <r_mmod_Potential_Energy-OPLS-2005>
-449.045989990234

> <r_mmod_Stretch_Energy-OPLS-2005>
55.5396041870117

> <r_mmod_Bend_Energy-OPLS-2005>
134.970275878906

> <r_mmod_Torsional_Energy-OPLS-2005>
352.577667236328

> <r_mmod_Improper_Torsional_Energy-OPLS-2005>
7.1996898651123

> <r_mmod_Van_der_Waal_Energy-OPLS-2005>
113.356491088867

> <r_mmod_Electrostatic_Energy-OPLS-2005>
648.698364257812

> <r_mmod_Solvation_Energy-OPLS-2005>
-1776.93395996094

> <b_mmod_Minimization_Converged-OPLS-2005>
0

> <r_mmod_RMS_Derivative-OPLS-2005>
3.43140554428101

$$$$
36
                    3D
 Structure written by MMmdl.
174182  0  0  1  0            999 V2000
  -30.6979  -14.4585   20.6317 C   0  0  0  0  0  0
  -30.4330  -12.3252   19.4091 C   0  0  0  0  0  0
  -29.4972  -12.5188   18.1984 C   0  0  0  0  0  0
  -28.0188  -12.3736   18.6114 C   0  0  0  0  0  0
  -27.6630  -13.2022   19.8746 C   0  0  2  0  0  0
  -28.7020  -12.9595   20.9905 C   0  0  0  0  0  0
  -25.2589  -13.8116   20.5628 C   0  0  0  0  0  0
  -24.1840  -13.0405   20.9140 C   0  0  0  0  0  0
  -24.6388  -11.6875   20.8711 C   0  0  0  0  0  0
  -23.9064  -10.4276   21.0394 C   0  0  0  0  0  0
  -24.3606   -9.4195   21.9184 C   0  0  0  0  0  0
  -23.6277   -8.2240   22.0766 C   0  0  0  0  0  0
  -22.4262   -8.0276   21.3542 C   0  0  0  0  0  0
  -21.9908   -9.0247   20.4642 C   0  0  0  0  0  0
  -22.7240  -10.2119   20.3048 C   0  0  0  0  0  0
  -21.6859   -6.0724   22.5269 C   0  0  0  0  0  0
  -21.4006   -6.5627   23.8201 C   0  0  0  0  0  0
  -21.3653   -5.6783   24.9162 C   0  0  0  0  0  0
  -21.6054   -4.3046   24.7220 C   0  0  0  0  0  0
  -21.8819   -3.8136   23.4341 C   0  0  0  0  0  0
  -21.9189   -4.6956   22.3395 C   0  0  0  0  0  0
  -22.7867  -13.5226   21.1809 C   0  0  0  0  0  0
  -22.1660   -4.2137   21.0973 F   0  0  0  0  0  0
  -21.5640   -3.4535   25.7737 F   0  0  0  0  0  0
  -30.0329  -13.2857   20.4477 N   0  0  0  0  0  0
  -26.3034  -12.9293   20.3337 N   0  0  0  0  0  0
  -25.9318  -11.6451   20.5737 N   0  0  0  0  0  0
  -22.0501  -12.8223   22.0349 N   0  0  0  0  0  0
  -25.4299  -15.1818   20.4004 N   0  0  0  0  0  0
  -31.7943  -14.7004   20.1169 O   0  0  0  0  0  0
  -21.6630   -6.8868   21.4236 O   0  0  0  0  0  0
  -22.3567  -14.5540   20.6667 O   0  0  0  0  0  0
  -24.6141  -31.8665   23.2093 C   0  0  0  0  0  0
  -25.9049  -32.4781   23.8381 C   0  0  1  0  0  0
  -27.2314  -27.4180   20.0730 C   0  0  0  0  0  0
  -25.5921  -33.8575   24.2314 N   0  0  0  0  0  0
  -23.3982  -30.4925   21.5496 C   0  0  2  0  0  0
  -24.8422  -28.9573   20.1139 C   0  0  0  0  0  0
  -22.7405  -29.4642   22.4971 C   0  0  0  0  0  0
  -18.0272  -28.1326   22.8481 C   0  0  0  0  0  0
  -24.1471  -36.7272   23.2636 C   0  0  0  0  0  0
  -25.9285  -30.8279   21.3560 C   0  0  0  0  0  0
  -26.0079  -29.4600   20.7050 C   0  0  0  0  0  0
  -27.2016  -28.7005   20.6824 C   0  0  0  0  0  0
  -26.0314  -26.9279   19.5003 C   0  0  0  0  0  0
  -24.8487  -27.6872   19.5174 C   0  0  0  0  0  0
  -23.6058  -29.8286   20.1613 C   0  0  0  0  0  0
  -25.4095  -36.3072   24.0339 C   0  0  1  0  0  0
  -20.5879  -28.3617   23.1300 C   0  0  2  0  0  0
  -20.6765  -26.9345   22.5376 C   0  0  0  0  0  0
  -19.5738  -26.6369   21.5175 C   0  0  0  0  0  0
  -18.1926  -26.7886   22.1601 C   0  0  0  0  0  0
  -19.1524  -28.8780   23.2885 C   0  0  0  0  0  0
  -18.9479  -30.1403   23.8883 C   0  0  0  0  0  0
  -17.6490  -30.6546   24.0560 C   0  0  0  0  0  0
  -25.9021  -34.9445   23.5109 C   0  0  0  0  0  0
  -16.5372  -29.9066   23.6309 C   0  0  0  0  0  0
  -16.7268  -28.6477   23.0325 C   0  0  0  0  0  0
  -26.4469  -31.6533   25.0689 C   0  0  0  0  0  0
  -25.3753  -31.3599   26.1439 C   0  0  0  0  0  0
  -27.0279  -30.2999   24.5989 C   0  0  0  0  0  0
  -27.6024  -32.4233   25.7500 C   0  0  0  0  0  0
  -27.5548  -37.1776   24.8482 C   0  0  0  0  0  0
  -21.4132  -29.3023   22.3741 N   0  0  0  0  0  0
  -26.4264  -37.3767   23.9430 N   0  0  0  0  0  0
  -24.6667  -31.0776   22.0970 N   0  0  0  0  0  0
  -23.4200  -28.8169   23.2974 O   0  0  0  0  0  0
  -28.3987  -26.6674   20.1057 O   0  0  0  0  0  0
  -26.5531  -34.8896   22.4660 O   0  0  0  0  0  0
  -23.5341  -32.1422   23.7506 O   0  0  0  0  0  0
  -27.7522  -17.7437   21.4782 C   0  0  0  0  0  0
  -26.4424  -18.2443   21.5267 C   0  0  0  0  0  0
  -27.1943  -20.2934   20.4789 C   0  0  0  0  0  0
  -28.8182  -18.5046   20.9451 C   0  0  0  0  0  0
  -28.5294  -19.8166   20.4432 C   0  0  0  0  0  0
  -26.1447  -19.5219   21.0292 C   0  0  0  0  0  0
  -28.6851  -25.6584   19.2161 C   0  0  0  0  0  0
  -31.8403  -25.8283   19.3033 C   0  0  0  0  0  0
  -31.0641  -24.0525   17.6544 C   0  0  0  0  0  0
  -24.5349  -21.3100   20.9346 C   0  0  0  0  0  0
  -30.2311  -17.8859   20.8955 C   0  0  0  0  0  0
  -29.5867  -20.7235   19.7878 C   0  0  0  0  0  0
  -30.5388  -16.6812   21.8333 C   0  0  0  0  0  0
  -28.9187  -23.1723   19.7735 C   0  0  0  0  0  0
  -29.6245  -24.5638   19.7918 C   0  0  1  0  0  0
  -31.0427  -24.5222   19.1279 C   0  0  0  0  0  0
  -30.0457  -15.3726   21.3728 N   0  0  0  0  0  0
  -29.7247  -22.0790   20.3899 N   0  3  0  0  0  0
  -28.2309  -25.5651   18.0717 O   0  0  0  0  0  0
  -24.8289  -19.9272   21.0985 O   0  0  0  0  0  0
  -31.4741  -12.4541   19.1049 H   0  0  0  0  0  0
  -30.3593  -11.3067   19.7947 H   0  0  0  0  0  0
  -29.7401  -11.7966   17.4186 H   0  0  0  0  0  0
  -29.6618  -13.5055   17.7610 H   0  0  0  0  0  0
  -27.8322  -11.3159   18.8007 H   0  0  0  0  0  0
  -27.3693  -12.6545   17.7810 H   0  0  0  0  0  0
  -27.7140  -14.2540   19.5937 H   0  0  0  0  0  0
  -28.6833  -11.9133   21.2981 H   0  0  0  0  0  0
  -28.4462  -13.5249   21.8875 H   0  0  0  0  0  0
  -25.2752   -9.5668   22.4750 H   0  0  0  0  0  0
  -23.9976   -7.4643   22.7493 H   0  0  0  0  0  0
  -21.0849   -8.8763   19.8947 H   0  0  0  0  0  0
  -22.3712  -10.9647   19.6146 H   0  0  0  0  0  0
  -21.1991   -7.6135   23.9698 H   0  0  0  0  0  0
  -21.1480   -6.0512   25.9061 H   0  0  0  0  0  0
  -22.0604   -2.7603   23.2843 H   0  0  0  0  0  0
  -22.4116  -11.9885   22.4735 H   0  0  0  0  0  0
  -21.1118  -13.1248   22.2534 H   0  0  0  0  0  0
  -24.6581  -15.8319   20.4940 H   0  0  0  0  0  0
  -26.2836  -15.6240   20.0864 H   0  0  0  0  0  0
  -26.7106  -32.5475   23.1121 H   0  0  0  0  0  0
  -25.0238  -33.9740   25.0570 H   0  0  0  0  0  0
  -22.6831  -31.3076   21.4152 H   0  0  0  0  0  0
  -23.3733  -35.9601   23.3306 H   0  0  0  0  0  0
  -24.3551  -36.8872   22.2038 H   0  0  0  0  0  0
  -23.7255  -37.6508   23.6628 H   0  0  0  0  0  0
  -26.0256  -31.5877   20.5784 H   0  0  0  0  0  0
  -26.8236  -30.8936   21.9615 H   0  0  0  0  0  0
  -28.1061  -29.0920   21.1325 H   0  0  0  0  0  0
  -25.9757  -25.9480   19.0467 H   0  0  0  0  0  0
  -23.9456  -27.2851   19.0818 H   0  0  0  0  0  0
  -23.7089  -30.6066   19.4025 H   0  0  0  0  0  0
  -22.7279  -29.2500   19.8663 H   0  0  0  0  0  0
  -25.1267  -36.1910   25.0831 H   0  0  0  0  0  0
  -20.9947  -28.3168   24.1429 H   0  0  0  0  0  0
  -20.5627  -26.2222   23.3566 H   0  0  0  0  0  0
  -21.6641  -26.7343   22.1186 H   0  0  0  0  0  0
  -19.6888  -25.6296   21.1173 H   0  0  0  0  0  0
  -19.6692  -27.3207   20.6738 H   0  0  0  0  0  0
  -17.4187  -26.6618   21.4007 H   0  0  0  0  0  0
  -18.0325  -25.9994   22.8962 H   0  0  0  0  0  0
  -19.7962  -30.7224   24.2218 H   0  0  0  0  0  0
  -17.5061  -31.6230   24.5183 H   0  0  0  0  0  0
  -15.5378  -30.2983   23.7664 H   0  0  0  0  0  0
  -15.8660  -28.0852   22.6991 H   0  0  0  0  0  0
  -24.5980  -30.6846   25.7823 H   0  0  0  0  0  0
  -24.8860  -32.2721   26.4859 H   0  0  0  0  0  0
  -25.8141  -30.8848   27.0217 H   0  0  0  0  0  0
  -26.2788  -29.6821   24.1013 H   0  0  0  0  0  0
  -27.4105  -29.7147   25.4369 H   0  0  0  0  0  0
  -27.8590  -30.4373   23.9052 H   0  0  0  0  0  0
  -27.2626  -33.3572   26.1989 H   0  0  0  0  0  0
  -28.3896  -32.6726   25.0359 H   0  0  0  0  0  0
  -28.0572  -31.8390   26.5498 H   0  0  0  0  0  0
  -28.2552  -38.0073   24.7520 H   0  0  0  0  0  0
  -28.1046  -36.2611   24.6324 H   0  0  0  0  0  0
  -27.2237  -37.1448   25.8872 H   0  0  0  0  0  0
  -20.9282  -29.8876   21.7095 H   0  0  0  0  0  0
  -26.0134  -38.2816   24.1530 H   0  0  0  0  0  0
  -27.9120  -16.7495   21.8615 H   0  0  0  0  0  0
  -25.6578  -17.6328   21.9495 H   0  0  0  0  0  0
  -26.9799  -21.2590   20.0536 H   0  0  0  0  0  0
  -32.8748  -25.6921   18.9900 H   0  0  0  0  0  0
  -31.8585  -26.1423   20.3481 H   0  0  0  0  0  0
  -31.4311  -26.6496   18.7128 H   0  0  0  0  0  0
  -32.0837  -24.0018   17.2705 H   0  0  0  0  0  0
  -30.4942  -24.7071   16.9929 H   0  0  0  0  0  0
  -30.6547  -23.0488   17.5464 H   0  0  0  0  0  0
  -23.4617  -21.4574   21.0606 H   0  0  0  0  0  0
  -24.7930  -21.6838   19.9428 H   0  0  0  0  0  0
  -25.0422  -21.9088   21.6932 H   0  0  0  0  0  0
  -30.9391  -18.6630   21.1823 H   0  0  0  0  0  0
  -30.4688  -17.6205   19.8642 H   0  0  0  0  0  0
  -29.3738  -20.8019   18.7232 H   0  0  0  0  0  0
  -30.5716  -20.2677   19.8354 H   0  0  0  0  0  0
  -30.1486  -16.8843   22.8328 H   0  0  0  0  0  0
  -31.6199  -16.6069   21.9646 H   0  0  0  0  0  0
  -28.6684  -22.9224   18.7420 H   0  0  0  0  0  0
  -27.9677  -23.2332   20.3030 H   0  0  0  0  0  0
  -29.7667  -24.8277   20.8395 H   0  0  0  0  0  0
  -31.6188  -23.7831   19.6837 H   0  0  0  0  0  0
  -29.1427  -15.0837   21.7176 H   0  0  0  0  0  0
  -30.6925  -22.3282   20.2616 H   0  0  0  0  0  0
  -29.5683  -22.0312   21.3831 H   0  0  0  0  0  0
  1 25  1  0  0  0
  1 30  2  0  0  0
  1 87  1  0  0  0
  2  3  1  0  0  0
  2 25  1  0  0  0
  2 91  1  0  0  0
  2 92  1  0  0  0
  3  4  1  0  0  0
  3 93  1  0  0  0
  3 94  1  0  0  0
  4  5  1  0  0  0
  4 95  1  0  0  0
  4 96  1  0  0  0
  5  6  1  0  0  0
  5 26  1  0  0  0
  5 97  1  0  0  0
  6 25  1  0  0  0
  6 98  1  0  0  0
  6 99  1  0  0  0
  7  8  2  0  0  0
  7 26  1  0  0  0
  7 29  1  0  0  0
  8  9  1  0  0  0
  8 22  1  0  0  0
  9 10  1  0  0  0
  9 27  2  0  0  0
 10 11  2  0  0  0
 10 15  1  0  0  0
 11 12  1  0  0  0
 11100  1  0  0  0
 12 13  2  0  0  0
 12101  1  0  0  0
 13 14  1  0  0  0
 13 31  1  0  0  0
 14 15  2  0  0  0
 14102  1  0  0  0
 15103  1  0  0  0
 16 17  2  0  0  0
 16 21  1  0  0  0
 16 31  1  0  0  0
 17 18  1  0  0  0
 17104  1  0  0  0
 18 19  2  0  0  0
 18105  1  0  0  0
 19 20  1  0  0  0
 19 24  1  0  0  0
 20 21  2  0  0  0
 20106  1  0  0  0
 21 23  1  0  0  0
 22 28  1  0  0  0
 22 32  2  0  0  0
 26 27  1  0  0  0
 28107  1  0  0  0
 28108  1  0  0  0
 29109  1  0  0  0
 29110  1  0  0  0
 33 34  1  0  0  0
 33 66  1  0  0  0
 33 70  2  0  0  0
 34 36  1  0  0  0
 34 59  1  0  0  0
 34111  1  0  0  0
 35 44  2  0  0  0
 35 45  1  0  0  0
 35 68  1  0  0  0
 36 56  1  0  0  0
 36112  1  0  0  0
 37 39  1  0  0  0
 37 47  1  0  0  0
 37 66  1  0  0  0
 37113  1  0  0  0
 38 43  2  0  0  0
 38 46  1  0  0  0
 38 47  1  0  0  0
 39 64  1  0  0  0
 39 67  2  0  0  0
 40 52  1  0  0  0
 40 53  2  0  0  0
 40 58  1  0  0  0
 41114  1  0  0  0
 41115  1  0  0  0
 41116  1  0  0  0
 41 48  1  0  0  0
 42 43  1  0  0  0
 42 66  1  0  0  0
 42117  1  0  0  0
 42118  1  0  0  0
 43 44  1  0  0  0
 44119  1  0  0  0
 45 46  2  0  0  0
 45120  1  0  0  0
 46121  1  0  0  0
 47122  1  0  0  0
 47123  1  0  0  0
 48 56  1  0  0  0
 48 65  1  0  0  0
 48124  1  0  0  0
 49 50  1  0  0  0
 49 53  1  0  0  0
 49 64  1  0  0  0
 49125  1  0  0  0
 50 51  1  0  0  0
 50126  1  0  0  0
 50127  1  0  0  0
 51 52  1  0  0  0
 51128  1  0  0  0
 51129  1  0  0  0
 52130  1  0  0  0
 52131  1  0  0  0
 53 54  1  0  0  0
 54 55  2  0  0  0
 54132  1  0  0  0
 55 57  1  0  0  0
 55133  1  0  0  0
 56 69  2  0  0  0
 57 58  2  0  0  0
 57134  1  0  0  0
 58135  1  0  0  0
 59 60  1  0  0  0
 59 61  1  0  0  0
 59 62  1  0  0  0
 60136  1  0  0  0
 60137  1  0  0  0
 60138  1  0  0  0
 61139  1  0  0  0
 61140  1  0  0  0
 61141  1  0  0  0
 62142  1  0  0  0
 62143  1  0  0  0
 62144  1  0  0  0
 63 65  1  0  0  0
 63145  1  0  0  0
 63146  1  0  0  0
 63147  1  0  0  0
 64148  1  0  0  0
 65149  1  0  0  0
 68 77  1  0  0  0
 71 72  2  0  0  0
 71 74  1  0  0  0
 71150  1  0  0  0
 72 76  1  0  0  0
 72151  1  0  0  0
 73 75  1  0  0  0
 73 76  2  0  0  0
 73152  1  0  0  0
 74 75  2  0  0  0
 74 81  1  0  0  0
 75 82  1  0  0  0
 76 90  1  0  0  0
 77 85  1  0  0  0
 77 89  2  0  0  0
 78153  1  0  0  0
 78154  1  0  0  0
 78155  1  0  0  0
 78 86  1  0  0  0
 79 86  1  0  0  0
 79156  1  0  0  0
 79157  1  0  0  0
 79158  1  0  0  0
 80 90  1  0  0  0
 80159  1  0  0  0
 80160  1  0  0  0
 80161  1  0  0  0
 81 83  1  0  0  0
 81162  1  0  0  0
 81163  1  0  0  0
 82 88  1  0  0  0
 82164  1  0  0  0
 82165  1  0  0  0
 83 87  1  0  0  0
 83166  1  0  0  0
 83167  1  0  0  0
 84 88  1  0  0  0
 84168  1  0  0  0
 84169  1  0  0  0
 84 85  1  0  0  0
 85 86  1  0  0  0
 85170  1  0  0  0
 86171  1  0  0  0
 87172  1  0  0  0
 88173  1  0  0  0
 88174  1  0  0  0
M  CHG  1  88   1
M  ISO  4   1 100  68 101  77 101  87 100
M  END
> <chiral flag>
0

> <version>
0

> <s_m_source_file>
/data/baiqing/PycharmProjects/Reinvent-master-3.2/result/LINK_invent/BTK/process_docking_weight1_custom_sum_contain_oxygen_bond_distance_aromatic_linkinvent_7_9_3/rearranged_h_0113.sdf

> <i_m_source_file_index>
36

> <r_mmod_Potential_Energy-OPLS-2005>
-197.700988769531

> <r_mmod_Stretch_Energy-OPLS-2005>
48.0048065185547

> <r_mmod_Bend_Energy-OPLS-2005>
124.091484069824

> <r_mmod_Torsional_Energy-OPLS-2005>
215.587280273438

> <r_mmod_Improper_Torsional_Energy-OPLS-2005>
2.39643287658691

> <r_mmod_Van_der_Waal_Energy-OPLS-2005>
158.455368041992

> <r_mmod_Electrostatic_Energy-OPLS-2005>
-285.338592529297

> <r_mmod_Solvation_Energy-OPLS-2005>
-473.864624023438

> <b_mmod_Minimization_Converged-OPLS-2005>
0

> <r_mmod_RMS_Derivative-OPLS-2005>
4.39822578430176

$$$$
37
                    3D
 Structure written by MMmdl.
175183  0  0  1  0            999 V2000
  -30.6076  -14.7337   20.4697 C   0  0  0  0  0  0
  -30.4369  -12.4472   19.4744 C   0  0  0  0  0  0
  -29.5169  -12.5013   18.2367 C   0  0  0  0  0  0
  -28.0381  -12.3383   18.6419 C   0  0  0  0  0  0
  -27.6438  -13.2308   19.8494 C   0  0  2  0  0  0
  -28.6863  -13.1530   20.9851 C   0  0  0  0  0  0
  -25.2525  -13.8201   20.5670 C   0  0  0  0  0  0
  -24.1820  -13.0440   20.9209 C   0  0  0  0  0  0
  -24.6404  -11.6914   20.8737 C   0  0  0  0  0  0
  -23.9071  -10.4288   21.0397 C   0  0  0  0  0  0
  -24.3620   -9.4202   21.9175 C   0  0  0  0  0  0
  -23.6289   -8.2240   22.0753 C   0  0  0  0  0  0
  -22.4272   -8.0283   21.3542 C   0  0  0  0  0  0
  -21.9909   -9.0256   20.4641 C   0  0  0  0  0  0
  -22.7238  -10.2138   20.3045 C   0  0  0  0  0  0
  -21.6861   -6.0724   22.5269 C   0  0  0  0  0  0
  -21.4021   -6.5629   23.8202 C   0  0  0  0  0  0
  -21.3662   -5.6785   24.9170 C   0  0  0  0  0  0
  -21.6037   -4.3044   24.7225 C   0  0  0  0  0  0
  -21.8824   -3.8134   23.4347 C   0  0  0  0  0  0
  -21.9199   -4.6949   22.3399 C   0  0  0  0  0  0
  -22.7843  -13.5224   21.1868 C   0  0  0  0  0  0
  -22.1671   -4.2130   21.0980 F   0  0  0  0  0  0
  -21.5628   -3.4532   25.7743 F   0  0  0  0  0  0
  -29.9873  -13.5068   20.4053 N   0  0  0  0  0  0
  -26.2946  -12.9398   20.3242 N   0  0  0  0  0  0
  -25.9330  -11.6538   20.5702 N   0  0  0  0  0  0
  -22.0499  -12.8208   22.0431 N   0  0  0  0  0  0
  -25.4182  -15.1930   20.4076 N   0  0  0  0  0  0
  -31.7962  -14.8382   20.1584 O   0  0  0  0  0  0
  -21.6641   -6.8875   21.4232 O   0  0  0  0  0  0
  -22.3515  -14.5518   20.6708 O   0  0  0  0  0  0
  -24.6294  -31.8531   23.1954 C   0  0  0  0  0  0
  -25.9121  -32.4741   23.8306 C   0  0  1  0  0  0
  -27.2315  -27.2674   20.1296 C   0  0  0  0  0  0
  -25.5922  -33.8543   24.2248 N   0  0  0  0  0  0
  -23.4270  -30.4708   21.5373 C   0  0  2  0  0  0
  -24.8774  -28.9122   20.1053 C   0  0  0  0  0  0
  -22.7495  -29.4575   22.4905 C   0  0  0  0  0  0
  -18.0294  -28.1381   22.8489 C   0  0  0  0  0  0
  -24.1492  -36.7284   23.2640 C   0  0  0  0  0  0
  -25.9686  -30.7665   21.3729 C   0  0  0  0  0  0
  -26.0420  -29.3876   20.7183 C   0  0  0  0  0  0
  -27.2167  -28.5744   20.7216 C   0  0  0  0  0  0
  -26.0455  -26.8484   19.4904 C   0  0  0  0  0  0
  -24.8844  -27.6529   19.4794 C   0  0  0  0  0  0
  -23.6451  -29.7967   20.1546 C   0  0  0  0  0  0
  -25.4118  -36.3066   24.0328 C   0  0  1  0  0  0
  -20.5894  -28.3689   23.1282 C   0  0  2  0  0  0
  -20.6779  -26.9408   22.5416 C   0  0  0  0  0  0
  -19.5755  -26.6382   21.5216 C   0  0  0  0  0  0
  -18.1935  -26.7923   22.1626 C   0  0  0  0  0  0
  -19.1545  -28.8855   23.2878 C   0  0  0  0  0  0
  -18.9461  -30.1456   23.8895 C   0  0  0  0  0  0
  -17.6457  -30.6587   24.0561 C   0  0  0  0  0  0
  -25.9057  -34.9433   23.5099 C   0  0  0  0  0  0
  -16.5353  -29.9082   23.6323 C   0  0  0  0  0  0
  -16.7278  -28.6496   23.0356 C   0  0  0  0  0  0
  -26.4501  -31.6556   25.0688 C   0  0  0  0  0  0
  -25.3725  -31.3698   26.1408 C   0  0  0  0  0  0
  -27.0344  -30.2977   24.6153 C   0  0  0  0  0  0
  -27.6053  -32.4294   25.7473 C   0  0  0  0  0  0
  -27.5583  -37.1797   24.8466 C   0  0  0  0  0  0
  -21.4204  -29.3029   22.3666 N   0  0  0  0  0  0
  -26.4296  -37.3761   23.9407 N   0  0  0  0  0  0
  -24.6934  -31.0495   22.0922 N   0  0  0  0  0  0
  -23.4204  -28.8128   23.3011 O   0  0  0  0  0  0
  -28.3579  -26.4250   20.2329 O   0  0  0  0  0  0
  -26.5639  -34.8913   22.4673 O   0  0  0  0  0  0
  -23.5448  -32.1346   23.7267 O   0  0  0  0  0  0
  -27.9287  -20.6932   19.0258 C   0  0  0  0  0  0
  -27.7507  -19.4068   18.4736 C   0  0  0  0  0  0
  -28.5200  -18.3108   18.9708 C   0  0  0  0  0  0
  -28.8473  -20.9158   20.0585 C   0  0  0  0  0  0
  -29.3739  -18.5253   20.0890 C   0  0  0  0  0  0
  -27.1048  -20.1027   16.1102 C   0  0  0  0  0  0
  -25.3097  -19.6028   17.8305 C   0  0  0  0  0  0
  -29.8154  -22.4512   21.8775 C   0  0  0  0  0  0
  -28.5231  -16.0338   16.1006 C   0  0  0  0  0  0
  -30.6815  -16.7779   17.1982 C   0  0  0  0  0  0
  -30.2428  -17.3350   20.7222 C   0  0  0  0  0  0
  -28.1293  -23.6507   20.3560 C   0  0  0  0  0  0
  -28.4962  -25.0574   19.6326 C   0  0  0  0  0  0
  -26.7264  -19.2590   17.3429 C   0  0  0  0  0  0
  -29.2120  -22.4255   20.4610 C   0  0  2  0  0  0
  -29.1792  -17.0483   17.0416 C   0  0  0  0  0  0
  -29.5424  -19.8218   20.5726 N   0  0  0  0  0  0
  -28.5042  -17.0550   18.3378 N   0  0  0  0  0  0
  -29.8297  -15.8578   20.6887 N   0  0  0  0  0  0
  -31.4788  -12.5748   19.1732 H   0  0  0  0  0  0
  -30.3808  -11.4694   19.9548 H   0  0  0  0  0  0
  -29.7951  -11.7262   17.5215 H   0  0  0  0  0  0
  -29.6608  -13.4522   17.7241 H   0  0  0  0  0  0
  -27.8821  -11.2886   18.8934 H   0  0  0  0  0  0
  -27.3892  -12.5471   17.7903 H   0  0  0  0  0  0
  -27.6403  -14.2541   19.4739 H   0  0  0  0  0  0
  -28.7188  -12.1479   21.4096 H   0  0  0  0  0  0
  -28.4185  -13.8223   21.8041 H   0  0  0  0  0  0
  -25.2772   -9.5676   22.4738 H   0  0  0  0  0  0
  -23.9994   -7.4630   22.7486 H   0  0  0  0  0  0
  -21.0837   -8.8770   19.8942 H   0  0  0  0  0  0
  -22.3698  -10.9672   19.6146 H   0  0  0  0  0  0
  -21.2015   -7.6138   23.9697 H   0  0  0  0  0  0
  -21.1483   -6.0523   25.9074 H   0  0  0  0  0  0
  -22.0603   -2.7591   23.2850 H   0  0  0  0  0  0
  -22.4141  -11.9874   22.4809 H   0  0  0  0  0  0
  -21.1098  -13.1190   22.2619 H   0  0  0  0  0  0
  -24.6341  -15.8298   20.4938 H   0  0  0  0  0  0
  -26.2326  -15.6274   19.9899 H   0  0  0  0  0  0
  -26.7177  -32.5402   23.1037 H   0  0  0  0  0  0
  -25.0055  -33.9673   25.0384 H   0  0  0  0  0  0
  -22.7223  -31.2920   21.3877 H   0  0  0  0  0  0
  -23.3758  -35.9611   23.3291 H   0  0  0  0  0  0
  -24.3576  -36.8921   22.2056 H   0  0  0  0  0  0
  -23.7240  -37.6479   23.6668 H   0  0  0  0  0  0
  -26.1028  -31.5243   20.6004 H   0  0  0  0  0  0
  -26.8494  -30.8220   22.0012 H   0  0  0  0  0  0
  -28.1101  -28.9306   21.2158 H   0  0  0  0  0  0
  -25.9905  -25.8755   19.0250 H   0  0  0  0  0  0
  -23.9907  -27.2828   18.9965 H   0  0  0  0  0  0
  -23.7676  -30.5695   19.3953 H   0  0  0  0  0  0
  -22.7653  -29.2245   19.8525 H   0  0  0  0  0  0
  -25.1296  -36.1915   25.0819 H   0  0  0  0  0  0
  -20.9987  -28.3267   24.1403 H   0  0  0  0  0  0
  -20.5681  -26.2294   23.3617 H   0  0  0  0  0  0
  -21.6648  -26.7427   22.1211 H   0  0  0  0  0  0
  -19.6921  -25.6292   21.1246 H   0  0  0  0  0  0
  -19.6704  -27.3191   20.6748 H   0  0  0  0  0  0
  -17.4211  -26.6682   21.4023 H   0  0  0  0  0  0
  -18.0334  -26.0058   22.9016 H   0  0  0  0  0  0
  -19.7937  -30.7270   24.2269 H   0  0  0  0  0  0
  -17.5012  -31.6262   24.5171 H   0  0  0  0  0  0
  -15.5351  -30.2986   23.7634 H   0  0  0  0  0  0
  -15.8685  -28.0806   22.7079 H   0  0  0  0  0  0
  -24.5921  -30.7025   25.7730 H   0  0  0  0  0  0
  -24.8895  -32.2864   26.4802 H   0  0  0  0  0  0
  -25.8051  -30.8896   27.0196 H   0  0  0  0  0  0
  -26.2914  -29.6719   24.1194 H   0  0  0  0  0  0
  -27.4055  -29.7233   25.4651 H   0  0  0  0  0  0
  -27.8777  -30.4251   23.9363 H   0  0  0  0  0  0
  -27.2657  -33.3597   26.2035 H   0  0  0  0  0  0
  -28.3881  -32.6844   25.0317 H   0  0  0  0  0  0
  -28.0695  -31.8420   26.5404 H   0  0  0  0  0  0
  -28.2594  -38.0101   24.7517 H   0  0  0  0  0  0
  -28.1092  -36.2633   24.6290 H   0  0  0  0  0  0
  -27.2302  -37.1445   25.8870 H   0  0  0  0  0  0
  -20.9399  -29.8734   21.6850 H   0  0  0  0  0  0
  -26.0181  -38.2837   24.1403 H   0  0  0  0  0  0
  -27.3911  -21.5233   18.5962 H   0  0  0  0  0  0
  -28.1027  -19.8565   15.7480 H   0  0  0  0  0  0
  -27.0948  -21.1699   16.3301 H   0  0  0  0  0  0
  -26.4081  -19.9299   15.2893 H   0  0  0  0  0  0
  -25.0416  -18.9912   18.6926 H   0  0  0  0  0  0
  -24.5712  -19.4193   17.0498 H   0  0  0  0  0  0
  -25.2243  -20.6490   18.1248 H   0  0  0  0  0  0
  -30.7109  -21.8315   21.9365 H   0  0  0  0  0  0
  -29.1028  -22.0722   22.6108 H   0  0  0  0  0  0
  -30.0990  -23.4607   22.1758 H   0  0  0  0  0  0
  -29.0015  -16.0502   15.1208 H   0  0  0  0  0  0
  -27.4675  -16.2571   15.9476 H   0  0  0  0  0  0
  -28.5926  -15.0164   16.4825 H   0  0  0  0  0  0
  -31.1850  -16.8105   16.2314 H   0  0  0  0  0  0
  -30.8787  -15.7973   17.6321 H   0  0  0  0  0  0
  -31.1620  -17.5268   17.8281 H   0  0  0  0  0  0
  -30.3872  -17.5818   21.7739 H   0  0  0  0  0  0
  -31.2368  -17.4162   20.2815 H   0  0  0  0  0  0
  -27.2316  -23.2802   19.8655 H   0  0  0  0  0  0
  -27.7695  -23.8788   21.3594 H   0  0  0  0  0  0
  -28.0444  -25.0650   18.6402 H   0  0  0  0  0  0
  -29.5628  -24.9970   19.4163 H   0  0  0  0  0  0
  -26.6873  -18.2204   17.0231 H   0  0  0  0  0  0
  -30.0138  -22.6821   19.7686 H   0  0  0  0  0  0
  -29.0859  -18.0276   16.5728 H   0  0  0  0  0  0
  -28.8966  -16.3399   18.9402 H   0  0  0  0  0  0
  -28.8655  -15.6817   20.9276 H   0  0  0  0  0  0
  1 25  1  0  0  0
  1 30  2  0  0  0
  1 89  1  0  0  0
  2  3  1  0  0  0
  2 25  1  0  0  0
  2 90  1  0  0  0
  2 91  1  0  0  0
  3  4  1  0  0  0
  3 92  1  0  0  0
  3 93  1  0  0  0
  4  5  1  0  0  0
  4 94  1  0  0  0
  4 95  1  0  0  0
  5  6  1  0  0  0
  5 26  1  0  0  0
  5 96  1  0  0  0
  6 25  1  0  0  0
  6 97  1  0  0  0
  6 98  1  0  0  0
  7  8  2  0  0  0
  7 26  1  0  0  0
  7 29  1  0  0  0
  8  9  1  0  0  0
  8 22  1  0  0  0
  9 10  1  0  0  0
  9 27  2  0  0  0
 10 11  2  0  0  0
 10 15  1  0  0  0
 11 12  1  0  0  0
 11 99  1  0  0  0
 12 13  2  0  0  0
 12100  1  0  0  0
 13 14  1  0  0  0
 13 31  1  0  0  0
 14 15  2  0  0  0
 14101  1  0  0  0
 15102  1  0  0  0
 16 17  2  0  0  0
 16 21  1  0  0  0
 16 31  1  0  0  0
 17 18  1  0  0  0
 17103  1  0  0  0
 18 19  2  0  0  0
 18104  1  0  0  0
 19 20  1  0  0  0
 19 24  1  0  0  0
 20 21  2  0  0  0
 20105  1  0  0  0
 21 23  1  0  0  0
 22 28  1  0  0  0
 22 32  2  0  0  0
 26 27  1  0  0  0
 28106  1  0  0  0
 28107  1  0  0  0
 29108  1  0  0  0
 29109  1  0  0  0
 33 34  1  0  0  0
 33 66  1  0  0  0
 33 70  2  0  0  0
 34 36  1  0  0  0
 34 59  1  0  0  0
 34110  1  0  0  0
 35 44  2  0  0  0
 35 45  1  0  0  0
 35 68  1  0  0  0
 36 56  1  0  0  0
 36111  1  0  0  0
 37 39  1  0  0  0
 37 47  1  0  0  0
 37 66  1  0  0  0
 37112  1  0  0  0
 38 43  2  0  0  0
 38 46  1  0  0  0
 38 47  1  0  0  0
 39 64  1  0  0  0
 39 67  2  0  0  0
 40 52  1  0  0  0
 40 53  2  0  0  0
 40 58  1  0  0  0
 41113  1  0  0  0
 41114  1  0  0  0
 41115  1  0  0  0
 41 48  1  0  0  0
 42 43  1  0  0  0
 42 66  1  0  0  0
 42116  1  0  0  0
 42117  1  0  0  0
 43 44  1  0  0  0
 44118  1  0  0  0
 45 46  2  0  0  0
 45119  1  0  0  0
 46120  1  0  0  0
 47121  1  0  0  0
 47122  1  0  0  0
 48 56  1  0  0  0
 48 65  1  0  0  0
 48123  1  0  0  0
 49 50  1  0  0  0
 49 53  1  0  0  0
 49 64  1  0  0  0
 49124  1  0  0  0
 50 51  1  0  0  0
 50125  1  0  0  0
 50126  1  0  0  0
 51 52  1  0  0  0
 51127  1  0  0  0
 51128  1  0  0  0
 52129  1  0  0  0
 52130  1  0  0  0
 53 54  1  0  0  0
 54 55  2  0  0  0
 54131  1  0  0  0
 55 57  1  0  0  0
 55132  1  0  0  0
 56 69  2  0  0  0
 57 58  2  0  0  0
 57133  1  0  0  0
 58134  1  0  0  0
 59 60  1  0  0  0
 59 61  1  0  0  0
 59 62  1  0  0  0
 60135  1  0  0  0
 60136  1  0  0  0
 60137  1  0  0  0
 61138  1  0  0  0
 61139  1  0  0  0
 61140  1  0  0  0
 62141  1  0  0  0
 62142  1  0  0  0
 62143  1  0  0  0
 63 65  1  0  0  0
 63144  1  0  0  0
 63145  1  0  0  0
 63146  1  0  0  0
 64147  1  0  0  0
 65148  1  0  0  0
 68 83  1  0  0  0
 71 72  2  0  0  0
 71 74  1  0  0  0
 71149  1  0  0  0
 72 73  1  0  0  0
 72 84  1  0  0  0
 73 75  2  0  0  0
 73 88  1  0  0  0
 74 85  1  0  0  0
 74 87  2  0  0  0
 75 81  1  0  0  0
 75 87  1  0  0  0
 76150  1  0  0  0
 76151  1  0  0  0
 76152  1  0  0  0
 76 84  1  0  0  0
 77 84  1  0  0  0
 77153  1  0  0  0
 77154  1  0  0  0
 77155  1  0  0  0
 78156  1  0  0  0
 78157  1  0  0  0
 78158  1  0  0  0
 78 85  1  0  0  0
 79159  1  0  0  0
 79160  1  0  0  0
 79161  1  0  0  0
 79 86  1  0  0  0
 80 86  1  0  0  0
 80162  1  0  0  0
 80163  1  0  0  0
 80164  1  0  0  0
 81 89  1  0  0  0
 81165  1  0  0  0
 81166  1  0  0  0
 82 83  1  0  0  0
 82 85  1  0  0  0
 82167  1  0  0  0
 82168  1  0  0  0
 83169  1  0  0  0
 83170  1  0  0  0
 84171  1  0  0  0
 85172  1  0  0  0
 86 88  1  0  0  0
 86173  1  0  0  0
 88174  1  0  0  0
 89175  1  0  0  0
M  ISO  4   1 100  68 101  83 101  89 100
M  END
> <chiral flag>
0

> <version>
0

> <s_m_source_file>
/data/baiqing/PycharmProjects/Reinvent-master-3.2/result/LINK_invent/BTK/process_docking_weight1_custom_sum_contain_oxygen_bond_distance_aromatic_linkinvent_7_9_3/rearranged_h_0113.sdf

> <i_m_source_file_index>
37

> <r_mmod_Potential_Energy-OPLS-2005>
-57.9439315795898

> <r_mmod_Stretch_Energy-OPLS-2005>
131.562637329102

> <r_mmod_Bend_Energy-OPLS-2005>
195.01838684082

> <r_mmod_Torsional_Energy-OPLS-2005>
235.821380615234

> <r_mmod_Improper_Torsional_Energy-OPLS-2005>
11.756742477417

> <r_mmod_Van_der_Waal_Energy-OPLS-2005>
128.519317626953

> <r_mmod_Electrostatic_Energy-OPLS-2005>
-638.971252441406

> <r_mmod_Solvation_Energy-OPLS-2005>
-201.744445800781

> <b_mmod_Minimization_Converged-OPLS-2005>
0

> <r_mmod_RMS_Derivative-OPLS-2005>
1.61337494850159

$$$$
38
                    3D
 Structure written by MMmdl.
159167  0  0  1  0            999 V2000
  -30.5566  -15.0178   20.3835 C   0  0  0  0  0  0
  -30.4378  -12.6367   19.4779 C   0  0  0  0  0  0
  -29.5214  -12.5455   18.2342 C   0  0  0  0  0  0
  -28.0512  -12.3433   18.6477 C   0  0  0  0  0  0
  -27.6276  -13.2684   19.8221 C   0  0  2  0  0  0
  -28.6815  -13.3193   20.9529 C   0  0  0  0  0  0
  -25.2476  -13.8281   20.5698 C   0  0  0  0  0  0
  -24.1801  -13.0456   20.9216 C   0  0  0  0  0  0
  -24.6474  -11.6968   20.8776 C   0  0  0  0  0  0
  -23.9155  -10.4303   21.0368 C   0  0  0  0  0  0
  -24.3663   -9.4208   21.9124 C   0  0  0  0  0  0
  -23.6302   -8.2281   22.0741 C   0  0  0  0  0  0
  -22.4292   -8.0327   21.3543 C   0  0  0  0  0  0
  -21.9950   -9.0293   20.4670 C   0  0  0  0  0  0
  -22.7334  -10.2121   20.3046 C   0  0  0  0  0  0
  -21.6872   -6.0760   22.5285 C   0  0  0  0  0  0
  -21.3990   -6.5650   23.8211 C   0  0  0  0  0  0
  -21.3654   -5.6787   24.9164 C   0  0  0  0  0  0
  -21.6050   -4.3060   24.7219 C   0  0  0  0  0  0
  -21.8841   -3.8170   23.4344 C   0  0  0  0  0  0
  -21.9192   -4.6980   22.3410 C   0  0  0  0  0  0
  -22.7830  -13.5196   21.1845 C   0  0  0  0  0  0
  -22.1675   -4.2199   21.0984 F   0  0  0  0  0  0
  -21.5637   -3.4544   25.7717 F   0  0  0  0  0  0
  -29.9377  -13.7577   20.3321 N   0  0  0  0  0  0
  -26.2903  -12.9538   20.3160 N   0  0  0  0  0  0
  -25.9394  -11.6648   20.5696 N   0  0  0  0  0  0
  -22.0472  -12.8168   22.0412 N   0  0  0  0  0  0
  -25.4130  -15.1976   20.4161 N   0  0  0  0  0  0
  -31.7660  -15.0206   20.1471 O   0  0  0  0  0  0
  -21.6663   -6.8907   21.4256 O   0  0  0  0  0  0
  -22.3511  -14.5460   20.6675 O   0  0  0  0  0  0
  -24.6564  -31.8294   23.1744 C   0  0  0  0  0  0
  -25.9273  -32.4622   23.8167 C   0  0  1  0  0  0
  -27.2348  -27.0170   20.1658 C   0  0  0  0  0  0
  -25.5945  -33.8420   24.2035 N   0  0  0  0  0  0
  -23.4638  -30.4414   21.5217 C   0  0  2  0  0  0
  -24.9222  -28.8460   20.0947 C   0  0  0  0  0  0
  -22.7600  -29.4489   22.4832 C   0  0  0  0  0  0
  -18.0317  -28.1365   22.8463 C   0  0  0  0  0  0
  -24.1492  -36.7186   23.2659 C   0  0  0  0  0  0
  -26.0277  -30.6664   21.3936 C   0  0  0  0  0  0
  -26.0987  -29.2682   20.7285 C   0  0  0  0  0  0
  -27.2435  -28.3694   20.7438 C   0  0  0  0  0  0
  -26.0384  -26.7273   19.4743 C   0  0  0  0  0  0
  -24.9122  -27.5955   19.4476 C   0  0  0  0  0  0
  -23.6963  -29.7549   20.1450 C   0  0  0  0  0  0
  -25.4136  -36.2974   24.0307 C   0  0  1  0  0  0
  -20.5917  -28.3728   23.1261 C   0  0  2  0  0  0
  -20.6792  -26.9453   22.5384 C   0  0  0  0  0  0
  -19.5777  -26.6495   21.5181 C   0  0  0  0  0  0
  -18.1938  -26.7924   22.1621 C   0  0  0  0  0  0
  -19.1568  -28.8878   23.2853 C   0  0  0  0  0  0
  -18.9497  -30.1505   23.8813 C   0  0  0  0  0  0
  -17.6470  -30.6610   24.0508 C   0  0  0  0  0  0
  -25.9106  -34.9368   23.4989 C   0  0  0  0  0  0
  -16.5357  -29.9045   23.6298 C   0  0  0  0  0  0
  -16.7283  -28.6456   23.0329 C   0  0  0  0  0  0
  -26.4538  -31.6579   25.0700 C   0  0  0  0  0  0
  -25.3651  -31.3798   26.1346 C   0  0  0  0  0  0
  -27.0468  -30.2949   24.6452 C   0  0  0  0  0  0
  -27.5991  -32.4430   25.7503 C   0  0  0  0  0  0
  -27.5569  -37.1752   24.8470 C   0  0  0  0  0  0
  -21.4287  -29.3032   22.3596 N   0  0  0  0  0  0
  -26.4281  -37.3715   23.9424 N   0  0  0  0  0  0
  -24.7341  -31.0031   22.0839 N   0  0  0  0  0  0
  -23.4175  -28.8115   23.3105 O   0  0  0  0  0  0
  -28.2770  -25.9904   20.3367 O   0  0  0  0  0  0
  -26.5724  -34.8886   22.4603 O   0  0  0  0  0  0
  -23.5654  -32.1285   23.6852 O   0  0  0  0  0  0
  -29.1611  -22.0868   21.4282 C   0  0  0  0  0  0
  -28.9314  -21.6835   19.0827 C   0  0  0  0  0  0
  -29.8139  -20.5588   21.4250 C   0  0  0  0  0  0
  -28.7786  -20.0398   19.2838 C   0  0  0  0  0  0
  -28.4472  -22.7931   20.1650 C   0  0  1  0  0  0
  -29.2880  -19.2602   20.6078 C   0  0  1  0  0  0
  -31.0874  -17.8223   21.9461 C   0  0  0  0  0  0
  -31.3347  -18.0745   19.4801 C   0  0  0  0  0  0
  -28.4972  -24.5124   19.7269 C   0  0  0  0  0  0
  -30.2952  -17.8194   20.5971 C   0  0  0  0  0  0
  -29.8371  -16.2683   20.5006 N   0  0  0  0  0  0
  -31.4601  -12.8073   19.1454 H   0  0  0  0  0  0
  -30.4533  -11.6951   20.0257 H   0  0  0  0  0  0
  -29.8397  -11.7360   17.5775 H   0  0  0  0  0  0
  -29.6229  -13.4575   17.6437 H   0  0  0  0  0  0
  -27.9249  -11.2965   18.9269 H   0  0  0  0  0  0
  -27.3964  -12.5115   17.7863 H   0  0  0  0  0  0
  -27.5725  -14.2687   19.3874 H   0  0  0  0  0  0
  -28.7966  -12.3468   21.4432 H   0  0  0  0  0  0
  -28.3846  -14.0400   21.7163 H   0  0  0  0  0  0
  -25.2805   -9.5688   22.4669 H   0  0  0  0  0  0
  -24.0060   -7.4685   22.7438 H   0  0  0  0  0  0
  -21.0915   -8.8845   19.8937 H   0  0  0  0  0  0
  -22.3840  -10.9652   19.6167 H   0  0  0  0  0  0
  -21.1958   -7.6155   23.9741 H   0  0  0  0  0  0
  -21.1438   -6.0495   25.9054 H   0  0  0  0  0  0
  -22.0612   -2.7657   23.2830 H   0  0  0  0  0  0
  -22.4117  -11.9886   22.4860 H   0  0  0  0  0  0
  -21.1056  -13.1149   22.2455 H   0  0  0  0  0  0
  -24.6454  -15.8526   20.5316 H   0  0  0  0  0  0
  -26.2640  -15.6502   20.1066 H   0  0  0  0  0  0
  -26.7355  -32.5215   23.0924 H   0  0  0  0  0  0
  -25.0061  -33.9482   25.0160 H   0  0  0  0  0  0
  -22.7674  -31.2684   21.3623 H   0  0  0  0  0  0
  -23.3769  -35.9519   23.3318 H   0  0  0  0  0  0
  -24.3516  -36.8827   22.2069 H   0  0  0  0  0  0
  -23.7246  -37.6364   23.6709 H   0  0  0  0  0  0
  -26.2238  -31.4277   20.6326 H   0  0  0  0  0  0
  -26.8729  -30.6899   22.0729 H   0  0  0  0  0  0
  -28.1376  -28.6858   21.2672 H   0  0  0  0  0  0
  -25.9419  -25.7642   18.9950 H   0  0  0  0  0  0
  -24.0195  -27.2726   18.9330 H   0  0  0  0  0  0
  -23.8156  -30.5230   19.3799 H   0  0  0  0  0  0
  -22.8050  -29.1942   19.8505 H   0  0  0  0  0  0
  -25.1351  -36.1754   25.0803 H   0  0  0  0  0  0
  -20.9980  -28.3325   24.1407 H   0  0  0  0  0  0
  -20.5616  -26.2381   23.3646 H   0  0  0  0  0  0
  -21.6686  -26.7469   22.1205 H   0  0  0  0  0  0
  -19.6918  -25.6392   21.1191 H   0  0  0  0  0  0
  -19.6726  -27.3270   20.6670 H   0  0  0  0  0  0
  -17.4248  -26.6717   21.3963 H   0  0  0  0  0  0
  -18.0381  -26.0106   22.8993 H   0  0  0  0  0  0
  -19.7981  -30.7359   24.2146 H   0  0  0  0  0  0
  -17.4991  -31.6263   24.5170 H   0  0  0  0  0  0
  -15.5349  -30.2876   23.7748 H   0  0  0  0  0  0
  -15.8666  -28.0728   22.7122 H   0  0  0  0  0  0
  -24.5759  -30.7266   25.7598 H   0  0  0  0  0  0
  -24.8969  -32.3017   26.4761 H   0  0  0  0  0  0
  -25.7842  -30.8903   27.0139 H   0  0  0  0  0  0
  -26.3176  -29.6549   24.1486 H   0  0  0  0  0  0
  -27.4013  -29.7369   25.5108 H   0  0  0  0  0  0
  -27.9073  -30.4093   23.9882 H   0  0  0  0  0  0
  -27.2445  -33.3697   26.2034 H   0  0  0  0  0  0
  -28.3790  -32.7063   25.0341 H   0  0  0  0  0  0
  -28.0692  -31.8642   26.5469 H   0  0  0  0  0  0
  -28.2604  -38.0035   24.7514 H   0  0  0  0  0  0
  -28.1029  -36.2548   24.6308 H   0  0  0  0  0  0
  -27.2256  -37.1440   25.8866 H   0  0  0  0  0  0
  -20.9615  -29.8758   21.6690 H   0  0  0  0  0  0
  -26.0107  -38.2792   24.1374 H   0  0  0  0  0  0
  -29.9797  -22.7491   21.7097 H   0  0  0  0  0  0
  -28.4692  -22.1537   22.2720 H   0  0  0  0  0  0
  -28.4821  -21.9420   18.1218 H   0  0  0  0  0  0
  -29.9950  -21.8641   18.9258 H   0  0  0  0  0  0
  -29.8575  -20.2484   22.4695 H   0  0  0  0  0  0
  -30.8597  -20.6746   21.1477 H   0  0  0  0  0  0
  -29.2336  -19.5626   18.4054 H   0  0  0  0  0  0
  -27.7178  -19.7990   19.1577 H   0  0  0  0  0  0
  -27.3803  -22.6056   20.2925 H   0  0  0  0  0  0
  -28.3855  -18.9525   21.1331 H   0  0  0  0  0  0
  -30.4258  -17.7765   22.8110 H   0  0  0  0  0  0
  -31.7174  -18.7069   22.0739 H   0  0  0  0  0  0
  -31.7744  -16.9793   22.0423 H   0  0  0  0  0  0
  -31.5733  -19.1399   19.3986 H   0  0  0  0  0  0
  -30.9774  -17.7410   18.5021 H   0  0  0  0  0  0
  -32.2893  -17.5699   19.6679 H   0  0  0  0  0  0
  -27.9844  -24.5563   18.7694 H   0  0  0  0  0  0
  -29.5516  -24.6010   19.4568 H   0  0  0  0  0  0
  -28.8444  -16.1309   20.6089 H   0  0  0  0  0  0
  1 25  1  0  0  0
  1 30  2  0  0  0
  1 81  1  0  0  0
  2  3  1  0  0  0
  2 25  1  0  0  0
  2 82  1  0  0  0
  2 83  1  0  0  0
  3  4  1  0  0  0
  3 84  1  0  0  0
  3 85  1  0  0  0
  4  5  1  0  0  0
  4 86  1  0  0  0
  4 87  1  0  0  0
  5  6  1  0  0  0
  5 26  1  0  0  0
  5 88  1  0  0  0
  6 25  1  0  0  0
  6 89  1  0  0  0
  6 90  1  0  0  0
  7  8  2  0  0  0
  7 26  1  0  0  0
  7 29  1  0  0  0
  8  9  1  0  0  0
  8 22  1  0  0  0
  9 10  1  0  0  0
  9 27  2  0  0  0
 10 11  2  0  0  0
 10 15  1  0  0  0
 11 12  1  0  0  0
 11 91  1  0  0  0
 12 13  2  0  0  0
 12 92  1  0  0  0
 13 14  1  0  0  0
 13 31  1  0  0  0
 14 15  2  0  0  0
 14 93  1  0  0  0
 15 94  1  0  0  0
 16 17  2  0  0  0
 16 21  1  0  0  0
 16 31  1  0  0  0
 17 18  1  0  0  0
 17 95  1  0  0  0
 18 19  2  0  0  0
 18 96  1  0  0  0
 19 20  1  0  0  0
 19 24  1  0  0  0
 20 21  2  0  0  0
 20 97  1  0  0  0
 21 23  1  0  0  0
 22 28  1  0  0  0
 22 32  2  0  0  0
 26 27  1  0  0  0
 28 98  1  0  0  0
 28 99  1  0  0  0
 29100  1  0  0  0
 29101  1  0  0  0
 33 34  1  0  0  0
 33 66  1  0  0  0
 33 70  2  0  0  0
 34 36  1  0  0  0
 34 59  1  0  0  0
 34102  1  0  0  0
 35 44  2  0  0  0
 35 45  1  0  0  0
 35 68  1  0  0  0
 36 56  1  0  0  0
 36103  1  0  0  0
 37 39  1  0  0  0
 37 47  1  0  0  0
 37 66  1  0  0  0
 37104  1  0  0  0
 38 43  2  0  0  0
 38 46  1  0  0  0
 38 47  1  0  0  0
 39 64  1  0  0  0
 39 67  2  0  0  0
 40 52  1  0  0  0
 40 53  2  0  0  0
 40 58  1  0  0  0
 41105  1  0  0  0
 41106  1  0  0  0
 41107  1  0  0  0
 41 48  1  0  0  0
 42 43  1  0  0  0
 42 66  1  0  0  0
 42108  1  0  0  0
 42109  1  0  0  0
 43 44  1  0  0  0
 44110  1  0  0  0
 45 46  2  0  0  0
 45111  1  0  0  0
 46112  1  0  0  0
 47113  1  0  0  0
 47114  1  0  0  0
 48 56  1  0  0  0
 48 65  1  0  0  0
 48115  1  0  0  0
 49 50  1  0  0  0
 49 53  1  0  0  0
 49 64  1  0  0  0
 49116  1  0  0  0
 50 51  1  0  0  0
 50117  1  0  0  0
 50118  1  0  0  0
 51 52  1  0  0  0
 51119  1  0  0  0
 51120  1  0  0  0
 52121  1  0  0  0
 52122  1  0  0  0
 53 54  1  0  0  0
 54 55  2  0  0  0
 54123  1  0  0  0
 55 57  1  0  0  0
 55124  1  0  0  0
 56 69  2  0  0  0
 57 58  2  0  0  0
 57125  1  0  0  0
 58126  1  0  0  0
 59 60  1  0  0  0
 59 61  1  0  0  0
 59 62  1  0  0  0
 60127  1  0  0  0
 60128  1  0  0  0
 60129  1  0  0  0
 61130  1  0  0  0
 61131  1  0  0  0
 61132  1  0  0  0
 62133  1  0  0  0
 62134  1  0  0  0
 62135  1  0  0  0
 63 65  1  0  0  0
 63136  1  0  0  0
 63137  1  0  0  0
 63138  1  0  0  0
 64139  1  0  0  0
 65140  1  0  0  0
 68 79  1  0  0  0
 71 73  1  0  0  0
 71 75  1  0  0  0
 71141  1  0  0  0
 71142  1  0  0  0
 72 74  1  0  0  0
 72 75  1  0  0  0
 72143  1  0  0  0
 72144  1  0  0  0
 73145  1  0  0  0
 73146  1  0  0  0
 73 76  1  0  0  0
 74 76  1  0  0  0
 74147  1  0  0  0
 74148  1  0  0  0
 75 79  1  0  0  0
 75149  1  0  0  0
 76 80  1  0  0  0
 76150  1  0  0  0
 77151  1  0  0  0
 77152  1  0  0  0
 77153  1  0  0  0
 77 80  1  0  0  0
 78 80  1  0  0  0
 78154  1  0  0  0
 78155  1  0  0  0
 78156  1  0  0  0
 79157  1  0  0  0
 79158  1  0  0  0
 80 81  1  0  0  0
 81159  1  0  0  0
M  ISO  4   1 100  68 101  79 101  81 100
M  END
> <chiral flag>
0

> <version>
0

> <s_m_source_file>
/data/baiqing/PycharmProjects/Reinvent-master-3.2/result/LINK_invent/BTK/process_docking_weight1_custom_sum_contain_oxygen_bond_distance_aromatic_linkinvent_7_9_3/rearranged_h_0113.sdf

> <i_m_source_file_index>
38

> <r_mmod_Potential_Energy-OPLS-2005>
998.752868652344

> <r_mmod_Stretch_Energy-OPLS-2005>
414.070709228516

> <r_mmod_Bend_Energy-OPLS-2005>
462.22119140625

> <r_mmod_Torsional_Energy-OPLS-2005>
276.641204833984

> <r_mmod_Improper_Torsional_Energy-OPLS-2005>
4.12605285644531

> <r_mmod_Van_der_Waal_Energy-OPLS-2005>
120.077415466309

> <r_mmod_Electrostatic_Energy-OPLS-2005>
-357.08203125

> <r_mmod_Solvation_Energy-OPLS-2005>
-196.619049072266

> <b_mmod_Minimization_Converged-OPLS-2005>
0

> <r_mmod_RMS_Derivative-OPLS-2005>
11.0140886306763

$$$$
39
                    3D
 Structure written by MMmdl.
177185  0  0  1  0            999 V2000
  -30.6959  -14.5205   20.5501 C   0  0  0  0  0  0
  -30.4189  -12.3336   19.4328 C   0  0  0  0  0  0
  -29.4920  -12.5003   18.2111 C   0  0  0  0  0  0
  -28.0153  -12.3570   18.6274 C   0  0  0  0  0  0
  -27.6557  -13.2140   19.8706 C   0  0  2  0  0  0
  -28.6999  -13.0352   20.9949 C   0  0  0  0  0  0
  -25.2565  -13.8187   20.5694 C   0  0  0  0  0  0
  -24.1824  -13.0453   20.9188 C   0  0  0  0  0  0
  -24.6392  -11.6921   20.8744 C   0  0  0  0  0  0
  -23.9069  -10.4298   21.0408 C   0  0  0  0  0  0
  -24.3624   -9.4215   21.9187 C   0  0  0  0  0  0
  -23.6298   -8.2253   22.0759 C   0  0  0  0  0  0
  -22.4285   -8.0291   21.3549 C   0  0  0  0  0  0
  -21.9918   -9.0258   20.4649 C   0  0  0  0  0  0
  -22.7240  -10.2136   20.3054 C   0  0  0  0  0  0
  -21.6850   -6.0738   22.5276 C   0  0  0  0  0  0
  -21.4008   -6.5642   23.8211 C   0  0  0  0  0  0
  -21.3662   -5.6793   24.9174 C   0  0  0  0  0  0
  -21.6039   -4.3055   24.7220 C   0  0  0  0  0  0
  -21.8821   -3.8148   23.4344 C   0  0  0  0  0  0
  -21.9196   -4.6966   22.3399 C   0  0  0  0  0  0
  -22.7851  -13.5246   21.1857 C   0  0  0  0  0  0
  -22.1669   -4.2156   21.0973 F   0  0  0  0  0  0
  -21.5632   -3.4537   25.7734 F   0  0  0  0  0  0
  -30.0216  -13.3424   20.4305 N   0  0  0  0  0  0
  -26.2996  -12.9360   20.3367 N   0  0  0  0  0  0
  -25.9321  -11.6517   20.5782 N   0  0  0  0  0  0
  -22.0494  -12.8224   22.0411 N   0  0  0  0  0  0
  -25.4298  -15.1897   20.4089 N   0  0  0  0  0  0
  -31.8436  -14.6641   20.1230 O   0  0  0  0  0  0
  -21.6644   -6.8888   21.4247 O   0  0  0  0  0  0
  -22.3537  -14.5559   20.6722 O   0  0  0  0  0  0
  -24.6219  -31.8620   23.2080 C   0  0  0  0  0  0
  -25.9079  -32.4787   23.8423 C   0  0  1  0  0  0
  -27.2320  -27.3738   20.0981 C   0  0  0  0  0  0
  -25.5902  -33.8587   24.2325 N   0  0  0  0  0  0
  -23.4146  -30.4849   21.5497 C   0  0  2  0  0  0
  -24.8585  -28.9472   20.1124 C   0  0  0  0  0  0
  -22.7454  -29.4627   22.4977 C   0  0  0  0  0  0
  -18.0273  -28.1388   22.8501 C   0  0  0  0  0  0
  -24.1466  -36.7305   23.2647 C   0  0  0  0  0  0
  -25.9532  -30.8021   21.3804 C   0  0  0  0  0  0
  -26.0222  -29.4373   20.7169 C   0  0  0  0  0  0
  -27.2081  -28.6568   20.7084 C   0  0  0  0  0  0
  -26.0370  -26.9082   19.5007 C   0  0  0  0  0  0
  -24.8635  -27.6834   19.5013 C   0  0  0  0  0  0
  -23.6245  -29.8200   20.1645 C   0  0  0  0  0  0
  -25.4083  -36.3092   24.0343 C   0  0  1  0  0  0
  -20.5875  -28.3679   23.1295 C   0  0  2  0  0  0
  -20.6758  -26.9418   22.5396 C   0  0  0  0  0  0
  -19.5734  -26.6390   21.5207 C   0  0  0  0  0  0
  -18.1910  -26.7939   22.1615 C   0  0  0  0  0  0
  -19.1527  -28.8860   23.2884 C   0  0  0  0  0  0
  -18.9444  -30.1461   23.8905 C   0  0  0  0  0  0
  -17.6444  -30.6599   24.0569 C   0  0  0  0  0  0
  -25.9022  -34.9455   23.5137 C   0  0  0  0  0  0
  -16.5330  -29.9093   23.6347 C   0  0  0  0  0  0
  -16.7256  -28.6501   23.0388 C   0  0  0  0  0  0
  -26.4493  -31.6627   25.0803 C   0  0  0  0  0  0
  -25.3752  -31.3741   26.1548 C   0  0  0  0  0  0
  -27.0407  -30.3062   24.6320 C   0  0  0  0  0  0
  -27.6041  -32.4435   25.7544 C   0  0  0  0  0  0
  -27.5576  -37.1779   24.8468 C   0  0  0  0  0  0
  -21.4177  -29.3027   22.3696 N   0  0  0  0  0  0
  -26.4276  -37.3772   23.9420 N   0  0  0  0  0  0
  -24.6812  -31.0676   22.1012 N   0  0  0  0  0  0
  -23.4191  -28.8163   23.3044 O   0  0  0  0  0  0
  -28.4003  -26.6156   20.1389 O   0  0  0  0  0  0
  -26.5605  -34.8922   22.4710 O   0  0  0  0  0  0
  -23.5387  -32.1420   23.7402 O   0  0  0  0  0  0
  -26.1970  -23.1659   20.2144 C   0  0  0  0  0  0
  -26.2392  -21.6480   20.0143 C   0  0  0  0  0  0
  -27.4476  -23.6939   20.9215 C   0  0  0  0  0  0
  -27.1180  -21.1702   18.8466 C   0  0  0  0  0  0
  -28.9845  -22.9189   18.9216 C   0  0  0  0  0  0
  -28.6470  -24.0040   20.0123 C   0  0  1  0  0  0
  -28.6686  -21.3505   18.9234 C   0  0  2  0  0  0
  -28.5722  -19.5130   16.9484 C   0  0  0  0  0  0
  -29.3980  -21.7424   16.3665 C   0  0  0  0  0  0
  -30.7413  -21.0055   20.4776 C   0  0  0  0  0  0
  -28.5630  -25.4254   19.3202 C   0  0  0  0  0  0
  -29.5692  -18.1344   21.3583 C   0  0  0  0  0  0
  -29.2553  -18.9758   20.0781 C   0  0  0  0  0  0
  -30.5744  -16.9431   21.1873 C   0  0  0  0  0  0
  -29.2741  -20.7584   17.5576 C   0  0  0  0  0  0
  -29.2946  -20.5543   20.1686 C   0  0  2  0  0  0
  -30.0026  -15.5844   21.0237 N   0  0  0  0  0  0
  -31.4629  -12.4297   19.1293 H   0  0  0  0  0  0
  -30.3234  -11.3322   19.8543 H   0  0  0  0  0  0
  -29.7365  -11.7596   17.4484 H   0  0  0  0  0  0
  -29.6522  -13.4771   17.7521 H   0  0  0  0  0  0
  -27.8353  -11.3033   18.8406 H   0  0  0  0  0  0
  -27.3619  -12.6118   17.7926 H   0  0  0  0  0  0
  -27.6889  -14.2561   19.5521 H   0  0  0  0  0  0
  -28.6885  -12.0099   21.3661 H   0  0  0  0  0  0
  -28.4638  -13.6634   21.8542 H   0  0  0  0  0  0
  -25.2773   -9.5691   22.4749 H   0  0  0  0  0  0
  -24.0009   -7.4649   22.7486 H   0  0  0  0  0  0
  -21.0853   -8.8776   19.8959 H   0  0  0  0  0  0
  -22.3710  -10.9675   19.6158 H   0  0  0  0  0  0
  -21.1989   -7.6148   23.9714 H   0  0  0  0  0  0
  -21.1485   -6.0523   25.9077 H   0  0  0  0  0  0
  -22.0597   -2.7613   23.2835 H   0  0  0  0  0  0
  -22.4119  -11.9886   22.4784 H   0  0  0  0  0  0
  -21.1109  -13.1238   22.2615 H   0  0  0  0  0  0
  -24.6680  -15.8504   20.5154 H   0  0  0  0  0  0
  -26.2861  -15.6246   20.0884 H   0  0  0  0  0  0
  -26.7144  -32.5455   23.1180 H   0  0  0  0  0  0
  -25.0080  -33.9743   25.0494 H   0  0  0  0  0  0
  -22.7079  -31.3046   21.4073 H   0  0  0  0  0  0
  -23.3728  -35.9637   23.3304 H   0  0  0  0  0  0
  -24.3551  -36.8945   22.2065 H   0  0  0  0  0  0
  -23.7225  -37.6497   23.6688 H   0  0  0  0  0  0
  -26.0979  -31.5697   20.6193 H   0  0  0  0  0  0
  -26.8290  -30.8337   22.0189 H   0  0  0  0  0  0
  -28.1057  -29.0257   21.1838 H   0  0  0  0  0  0
  -25.9646  -25.9330   19.0479 H   0  0  0  0  0  0
  -23.9676  -27.2899   19.0412 H   0  0  0  0  0  0
  -23.7342  -30.5960   19.4066 H   0  0  0  0  0  0
  -22.7471  -29.2411   19.8706 H   0  0  0  0  0  0
  -25.1249  -36.1954   25.0833 H   0  0  0  0  0  0
  -20.9942  -28.3241   24.1427 H   0  0  0  0  0  0
  -20.5681  -26.2289   23.3575 H   0  0  0  0  0  0
  -21.6625  -26.7472   22.1169 H   0  0  0  0  0  0
  -19.6904  -25.6299   21.1253 H   0  0  0  0  0  0
  -19.6685  -27.3181   20.6722 H   0  0  0  0  0  0
  -17.4176  -26.6706   21.4012 H   0  0  0  0  0  0
  -18.0287  -26.0075   22.9000 H   0  0  0  0  0  0
  -19.7914  -30.7270   24.2292 H   0  0  0  0  0  0
  -17.4994  -31.6282   24.5167 H   0  0  0  0  0  0
  -15.5331  -30.2996   23.7687 H   0  0  0  0  0  0
  -15.8635  -28.0807   22.7154 H   0  0  0  0  0  0
  -24.5899  -30.7126   25.7880 H   0  0  0  0  0  0
  -24.8968  -32.2883   26.5059 H   0  0  0  0  0  0
  -25.8078  -30.8864   27.0293 H   0  0  0  0  0  0
  -26.3031  -29.6737   24.1360 H   0  0  0  0  0  0
  -27.4105  -29.7399   25.4880 H   0  0  0  0  0  0
  -27.8883  -30.4357   23.9590 H   0  0  0  0  0  0
  -27.2634  -33.3741   26.2103 H   0  0  0  0  0  0
  -28.3819  -32.7017   25.0349 H   0  0  0  0  0  0
  -28.0774  -31.8625   26.5475 H   0  0  0  0  0  0
  -28.2568  -38.0103   24.7538 H   0  0  0  0  0  0
  -28.1111  -36.2628   24.6260 H   0  0  0  0  0  0
  -27.2313  -37.1395   25.8881 H   0  0  0  0  0  0
  -20.9367  -29.8742   21.6889 H   0  0  0  0  0  0
  -26.0177  -38.2856   24.1407 H   0  0  0  0  0  0
  -25.3378  -23.3975   20.8462 H   0  0  0  0  0  0
  -26.0201  -23.6801   19.2701 H   0  0  0  0  0  0
  -25.2205  -21.3171   19.8036 H   0  0  0  0  0  0
  -26.5073  -21.1427   20.9415 H   0  0  0  0  0  0
  -27.7522  -22.9827   21.6910 H   0  0  0  0  0  0
  -27.1891  -24.5993   21.4695 H   0  0  0  0  0  0
  -26.7535  -21.6479   17.9349 H   0  0  0  0  0  0
  -26.8745  -20.1154   18.7300 H   0  0  0  0  0  0
  -30.0471  -23.0476   18.7119 H   0  0  0  0  0  0
  -28.4744  -23.3068   18.0436 H   0  0  0  0  0  0
  -29.5053  -24.0565   20.6852 H   0  0  0  0  0  0
  -28.4055  -18.6926   17.6375 H   0  0  0  0  0  0
  -29.1658  -19.0951   16.1345 H   0  0  0  0  0  0
  -27.6025  -19.7738   16.5226 H   0  0  0  0  0  0
  -30.0892  -22.5614   16.5601 H   0  0  0  0  0  0
  -28.4314  -22.1662   16.0918 H   0  0  0  0  0  0
  -29.7850  -21.2414   15.4789 H   0  0  0  0  0  0
  -30.7908  -22.0626   20.7311 H   0  0  0  0  0  0
  -31.4154  -20.8363   19.6395 H   0  0  0  0  0  0
  -31.1640  -20.4780   21.3308 H   0  0  0  0  0  0
  -27.8732  -25.4052   18.4780 H   0  0  0  0  0  0
  -29.5275  -25.5798   18.8335 H   0  0  0  0  0  0
  -28.6393  -17.7889   21.8107 H   0  0  0  0  0  0
  -29.9890  -18.8018   22.1096 H   0  0  0  0  0  0
  -28.2617  -18.6624   19.7644 H   0  0  0  0  0  0
  -29.9383  -18.6588   19.2904 H   0  0  0  0  0  0
  -31.1892  -16.8950   22.0874 H   0  0  0  0  0  0
  -31.2756  -17.1666   20.3819 H   0  0  0  0  0  0
  -30.2972  -20.4526   17.7671 H   0  0  0  0  0  0
  -28.7159  -20.8270   21.0509 H   0  0  0  0  0  0
  -29.0535  -15.4251   21.3254 H   0  0  0  0  0  0
  1 25  1  0  0  0
  1 30  2  0  0  0
  1 87  1  0  0  0
  2  3  1  0  0  0
  2 25  1  0  0  0
  2 88  1  0  0  0
  2 89  1  0  0  0
  3  4  1  0  0  0
  3 90  1  0  0  0
  3 91  1  0  0  0
  4  5  1  0  0  0
  4 92  1  0  0  0
  4 93  1  0  0  0
  5  6  1  0  0  0
  5 26  1  0  0  0
  5 94  1  0  0  0
  6 25  1  0  0  0
  6 95  1  0  0  0
  6 96  1  0  0  0
  7  8  2  0  0  0
  7 26  1  0  0  0
  7 29  1  0  0  0
  8  9  1  0  0  0
  8 22  1  0  0  0
  9 10  1  0  0  0
  9 27  2  0  0  0
 10 11  2  0  0  0
 10 15  1  0  0  0
 11 12  1  0  0  0
 11 97  1  0  0  0
 12 13  2  0  0  0
 12 98  1  0  0  0
 13 14  1  0  0  0
 13 31  1  0  0  0
 14 15  2  0  0  0
 14 99  1  0  0  0
 15100  1  0  0  0
 16 17  2  0  0  0
 16 21  1  0  0  0
 16 31  1  0  0  0
 17 18  1  0  0  0
 17101  1  0  0  0
 18 19  2  0  0  0
 18102  1  0  0  0
 19 20  1  0  0  0
 19 24  1  0  0  0
 20 21  2  0  0  0
 20103  1  0  0  0
 21 23  1  0  0  0
 22 28  1  0  0  0
 22 32  2  0  0  0
 26 27  1  0  0  0
 28104  1  0  0  0
 28105  1  0  0  0
 29106  1  0  0  0
 29107  1  0  0  0
 33 34  1  0  0  0
 33 66  1  0  0  0
 33 70  2  0  0  0
 34 36  1  0  0  0
 34 59  1  0  0  0
 34108  1  0  0  0
 35 44  2  0  0  0
 35 45  1  0  0  0
 35 68  1  0  0  0
 36 56  1  0  0  0
 36109  1  0  0  0
 37 39  1  0  0  0
 37 47  1  0  0  0
 37 66  1  0  0  0
 37110  1  0  0  0
 38 43  2  0  0  0
 38 46  1  0  0  0
 38 47  1  0  0  0
 39 64  1  0  0  0
 39 67  2  0  0  0
 40 52  1  0  0  0
 40 53  2  0  0  0
 40 58  1  0  0  0
 41111  1  0  0  0
 41112  1  0  0  0
 41113  1  0  0  0
 41 48  1  0  0  0
 42 43  1  0  0  0
 42 66  1  0  0  0
 42114  1  0  0  0
 42115  1  0  0  0
 43 44  1  0  0  0
 44116  1  0  0  0
 45 46  2  0  0  0
 45117  1  0  0  0
 46118  1  0  0  0
 47119  1  0  0  0
 47120  1  0  0  0
 48 56  1  0  0  0
 48 65  1  0  0  0
 48121  1  0  0  0
 49 50  1  0  0  0
 49 53  1  0  0  0
 49 64  1  0  0  0
 49122  1  0  0  0
 50 51  1  0  0  0
 50123  1  0  0  0
 50124  1  0  0  0
 51 52  1  0  0  0
 51125  1  0  0  0
 51126  1  0  0  0
 52127  1  0  0  0
 52128  1  0  0  0
 53 54  1  0  0  0
 54 55  2  0  0  0
 54129  1  0  0  0
 55 57  1  0  0  0
 55130  1  0  0  0
 56 69  2  0  0  0
 57 58  2  0  0  0
 57131  1  0  0  0
 58132  1  0  0  0
 59 60  1  0  0  0
 59 61  1  0  0  0
 59 62  1  0  0  0
 60133  1  0  0  0
 60134  1  0  0  0
 60135  1  0  0  0
 61136  1  0  0  0
 61137  1  0  0  0
 61138  1  0  0  0
 62139  1  0  0  0
 62140  1  0  0  0
 62141  1  0  0  0
 63 65  1  0  0  0
 63142  1  0  0  0
 63143  1  0  0  0
 63144  1  0  0  0
 64145  1  0  0  0
 65146  1  0  0  0
 68 81  1  0  0  0
 71 72  1  0  0  0
 71 73  1  0  0  0
 71147  1  0  0  0
 71148  1  0  0  0
 72 74  1  0  0  0
 72149  1  0  0  0
 72150  1  0  0  0
 73 76  1  0  0  0
 73151  1  0  0  0
 73152  1  0  0  0
 74153  1  0  0  0
 74154  1  0  0  0
 74 77  1  0  0  0
 75 76  1  0  0  0
 75 77  1  0  0  0
 75155  1  0  0  0
 75156  1  0  0  0
 76 81  1  0  0  0
 76157  1  0  0  0
 77 85  1  0  0  0
 77 86  1  0  0  0
 78158  1  0  0  0
 78159  1  0  0  0
 78160  1  0  0  0
 78 85  1  0  0  0
 79 85  1  0  0  0
 79161  1  0  0  0
 79162  1  0  0  0
 79163  1  0  0  0
 80164  1  0  0  0
 80165  1  0  0  0
 80166  1  0  0  0
 80 86  1  0  0  0
 81167  1  0  0  0
 81168  1  0  0  0
 82 83  1  0  0  0
 82 84  1  0  0  0
 82169  1  0  0  0
 82170  1  0  0  0
 83 86  1  0  0  0
 83171  1  0  0  0
 83172  1  0  0  0
 84 87  1  0  0  0
 84173  1  0  0  0
 84174  1  0  0  0
 85175  1  0  0  0
 86176  1  0  0  0
 87177  1  0  0  0
M  ISO  4   1 100  68 101  81 101  87 100
M  END
> <chiral flag>
0

> <version>
0

> <s_m_source_file>
/data/baiqing/PycharmProjects/Reinvent-master-3.2/result/LINK_invent/BTK/process_docking_weight1_custom_sum_contain_oxygen_bond_distance_aromatic_linkinvent_7_9_3/rearranged_h_0113.sdf

> <i_m_source_file_index>
39

> <r_mmod_Potential_Energy-OPLS-2005>
150.00764465332

> <r_mmod_Stretch_Energy-OPLS-2005>
71.3673934936523

> <r_mmod_Bend_Energy-OPLS-2005>
187.00910949707

> <r_mmod_Torsional_Energy-OPLS-2005>
295.583679199219

> <r_mmod_Improper_Torsional_Energy-OPLS-2005>
3.16954970359802

> <r_mmod_Van_der_Waal_Energy-OPLS-2005>
155.324066162109

> <r_mmod_Electrostatic_Energy-OPLS-2005>
-401.4931640625

> <r_mmod_Solvation_Energy-OPLS-2005>
-184.319869995117

> <b_mmod_Minimization_Converged-OPLS-2005>
0

> <r_mmod_RMS_Derivative-OPLS-2005>
2.49305820465088

$$$$
40
                    3D
 Structure written by MMmdl.
168177  0  0  1  0            999 V2000
  -30.6127  -14.7002   20.4655 C   0  0  0  0  0  0
  -30.4284  -12.4173   19.4841 C   0  0  0  0  0  0
  -29.5128  -12.5043   18.2423 C   0  0  0  0  0  0
  -28.0364  -12.3334   18.6470 C   0  0  0  0  0  0
  -27.6442  -13.2205   19.8591 C   0  0  2  0  0  0
  -28.6830  -13.1255   20.9984 C   0  0  0  0  0  0
  -25.2514  -13.8156   20.5695 C   0  0  0  0  0  0
  -24.1808  -13.0443   20.9258 C   0  0  0  0  0  0
  -24.6379  -11.6905   20.8779 C   0  0  0  0  0  0
  -23.9064  -10.4299   21.0429 C   0  0  0  0  0  0
  -24.3620   -9.4216   21.9199 C   0  0  0  0  0  0
  -23.6287   -8.2258   22.0774 C   0  0  0  0  0  0
  -22.4261   -8.0311   21.3559 C   0  0  0  0  0  0
  -21.9904   -9.0286   20.4650 C   0  0  0  0  0  0
  -22.7255  -10.2142   20.3064 C   0  0  0  0  0  0
  -21.6857   -6.0757   22.5299 C   0  0  0  0  0  0
  -21.4013   -6.5645   23.8243 C   0  0  0  0  0  0
  -21.3656   -5.6788   24.9205 C   0  0  0  0  0  0
  -21.6042   -4.3055   24.7241 C   0  0  0  0  0  0
  -21.8801   -3.8154   23.4361 C   0  0  0  0  0  0
  -21.9177   -4.6976   22.3420 C   0  0  0  0  0  0
  -22.7833  -13.5248   21.1900 C   0  0  0  0  0  0
  -22.1648   -4.2161   21.1001 F   0  0  0  0  0  0
  -21.5628   -3.4543   25.7767 F   0  0  0  0  0  0
  -29.9902  -13.4740   20.4257 N   0  0  0  0  0  0
  -26.2924  -12.9337   20.3275 N   0  0  0  0  0  0
  -25.9294  -11.6493   20.5727 N   0  0  0  0  0  0
  -22.0430  -12.8239   22.0416 N   0  0  0  0  0  0
  -25.4189  -15.1877   20.3995 N   0  0  0  0  0  0
  -31.7857  -14.8073   20.0954 O   0  0  0  0  0  0
  -21.6620   -6.8908   21.4266 O   0  0  0  0  0  0
  -22.3543  -14.5572   20.6754 O   0  0  0  0  0  0
  -24.6287  -31.8578   23.1993 C   0  0  0  0  0  0
  -25.9112  -32.4775   23.8344 C   0  0  1  0  0  0
  -27.2281  -27.2744   20.1386 C   0  0  0  0  0  0
  -25.5919  -33.8576   24.2292 N   0  0  0  0  0  0
  -23.4274  -30.4787   21.5441 C   0  0  2  0  0  0
  -24.8802  -28.9300   20.1105 C   0  0  0  0  0  0
  -22.7524  -29.4593   22.4939 C   0  0  0  0  0  0
  -18.0298  -28.1344   22.8494 C   0  0  0  0  0  0
  -24.1502  -36.7282   23.2644 C   0  0  0  0  0  0
  -25.9745  -30.7770   21.3794 C   0  0  0  0  0  0
  -26.0508  -29.4012   20.7186 C   0  0  0  0  0  0
  -27.2294  -28.5880   20.7167 C   0  0  0  0  0  0
  -26.0361  -26.8738   19.4916 C   0  0  0  0  0  0
  -24.8782  -27.6746   19.4851 C   0  0  0  0  0  0
  -23.6464  -29.8115   20.1597 C   0  0  0  0  0  0
  -25.4127  -36.3093   24.0342 C   0  0  1  0  0  0
  -20.5903  -28.3658   23.1276 C   0  0  2  0  0  0
  -20.6780  -26.9378   22.5412 C   0  0  0  0  0  0
  -19.5753  -26.6360   21.5214 C   0  0  0  0  0  0
  -18.1932  -26.7886   22.1628 C   0  0  0  0  0  0
  -19.1549  -28.8827   23.2864 C   0  0  0  0  0  0
  -18.9466  -30.1423   23.8885 C   0  0  0  0  0  0
  -17.6465  -30.6549   24.0551 C   0  0  0  0  0  0
  -25.9059  -34.9454   23.5132 C   0  0  0  0  0  0
  -16.5357  -29.9045   23.6321 C   0  0  0  0  0  0
  -16.7282  -28.6455   23.0360 C   0  0  0  0  0  0
  -26.4479  -31.6575   25.0716 C   0  0  0  0  0  0
  -25.3712  -31.3700   26.1444 C   0  0  0  0  0  0
  -27.0327  -30.3006   24.6177 C   0  0  0  0  0  0
  -27.6059  -32.4308   25.7463 C   0  0  0  0  0  0
  -27.5597  -37.1788   24.8466 C   0  0  0  0  0  0
  -21.4234  -29.3009   22.3677 N   0  0  0  0  0  0
  -26.4310  -37.3782   23.9406 N   0  0  0  0  0  0
  -24.6957  -31.0555   22.0962 N   0  0  0  0  0  0
  -23.4237  -28.8139   23.3030 O   0  0  0  0  0  0
  -28.3212  -26.3797   20.2174 O   0  0  0  0  0  0
  -26.5637  -34.8920   22.4704 O   0  0  0  0  0  0
  -23.5436  -32.1406   23.7278 O   0  0  0  0  0  0
  -30.3629  -19.5458   18.4003 C   0  0  0  0  0  0
  -29.6965  -19.8435   19.5649 C   0  0  0  0  0  0
  -29.4766  -21.3336   19.5509 C   0  0  0  0  0  0
  -29.9431  -21.7694   18.3095 C   0  0  0  0  0  0
  -29.9279  -23.0096   17.5952 C   0  0  0  0  0  0
  -30.4934  -23.1123   16.3467 C   0  0  0  0  0  0
  -31.0919  -20.7811   16.3918 C   0  0  0  0  0  0
  -31.0859  -21.9874   15.7338 C   0  0  0  0  0  0
  -31.6707  -22.0944   14.3411 C   0  0  0  0  0  0
  -28.1097  -21.7866   21.6039 C   0  0  0  0  0  0
  -29.1755  -23.8038   20.5456 C   0  0  0  0  0  0
  -30.3131  -17.2827   20.4605 C   0  0  0  0  0  0
  -28.0514  -24.9009   20.1564 C   0  0  0  0  0  0
  -29.2991  -18.5739   20.4336 C   0  0  2  0  0  0
  -30.5245  -20.6751   17.6265 N   0  0  0  0  0  0
  -29.8595  -15.8361   20.7070 N   0  0  0  0  0  0
  -28.8557  -22.3083   20.4650 N   0  0  0  0  0  0
  -27.9905  -18.1505   19.9222 N   0  3  0  0  0  0
  -31.4761  -12.5187   19.1974 H   0  0  0  0  0  0
  -30.3553  -11.4330   19.9513 H   0  0  0  0  0  0
  -29.7929  -11.7439   17.5114 H   0  0  0  0  0  0
  -29.6466  -13.4684   17.7483 H   0  0  0  0  0  0
  -27.8795  -11.2804   18.8913 H   0  0  0  0  0  0
  -27.3901  -12.5416   17.7954 H   0  0  0  0  0  0
  -27.6530  -14.2476   19.4975 H   0  0  0  0  0  0
  -28.7012  -12.1118   21.4062 H   0  0  0  0  0  0
  -28.4193  -13.7815   21.8305 H   0  0  0  0  0  0
  -25.2773   -9.5682   22.4759 H   0  0  0  0  0  0
  -23.9998   -7.4631   22.7465 H   0  0  0  0  0  0
  -21.0864   -8.8803   19.8926 H   0  0  0  0  0  0
  -22.3758  -10.9678   19.6152 H   0  0  0  0  0  0
  -21.2012   -7.6147   23.9772 H   0  0  0  0  0  0
  -21.1484   -6.0514   25.9105 H   0  0  0  0  0  0
  -22.0566   -2.7620   23.2861 H   0  0  0  0  0  0
  -22.3984  -11.9877   22.4798 H   0  0  0  0  0  0
  -21.1051  -13.1255   22.2610 H   0  0  0  0  0  0
  -24.5937  -15.7785   20.4265 H   0  0  0  0  0  0
  -26.1210  -15.5238   19.7585 H   0  0  0  0  0  0
  -26.7194  -32.5446   23.1095 H   0  0  0  0  0  0
  -25.0062  -33.9727   25.0435 H   0  0  0  0  0  0
  -22.7218  -31.2974   21.3967 H   0  0  0  0  0  0
  -23.3786  -35.9589   23.3299 H   0  0  0  0  0  0
  -24.3607  -36.8907   22.2060 H   0  0  0  0  0  0
  -23.7227  -37.6471   23.6670 H   0  0  0  0  0  0
  -26.1221  -31.5438   20.6155 H   0  0  0  0  0  0
  -26.8464  -30.8205   22.0194 H   0  0  0  0  0  0
  -28.1244  -28.9483   21.2049 H   0  0  0  0  0  0
  -25.9683  -25.9168   18.9969 H   0  0  0  0  0  0
  -23.9835  -27.3098   18.9996 H   0  0  0  0  0  0
  -23.7652  -30.5882   19.4033 H   0  0  0  0  0  0
  -22.7672  -29.2396   19.8590 H   0  0  0  0  0  0
  -25.1301  -36.1965   25.0837 H   0  0  0  0  0  0
  -20.9986  -28.3219   24.1398 H   0  0  0  0  0  0
  -20.5684  -26.2267   23.3607 H   0  0  0  0  0  0
  -21.6639  -26.7395   22.1196 H   0  0  0  0  0  0
  -19.6913  -25.6280   21.1216 H   0  0  0  0  0  0
  -19.6669  -27.3189   20.6753 H   0  0  0  0  0  0
  -17.4203  -26.6654   21.4012 H   0  0  0  0  0  0
  -18.0303  -26.0002   22.9004 H   0  0  0  0  0  0
  -19.7951  -30.7232   24.2254 H   0  0  0  0  0  0
  -17.5021  -31.6233   24.5136 H   0  0  0  0  0  0
  -15.5353  -30.2936   23.7632 H   0  0  0  0  0  0
  -15.8693  -28.0756   22.7091 H   0  0  0  0  0  0
  -24.5886  -30.7058   25.7753 H   0  0  0  0  0  0
  -24.8886  -32.2849   26.4896 H   0  0  0  0  0  0
  -25.8017  -30.8851   27.0217 H   0  0  0  0  0  0
  -26.2900  -29.6740   24.1234 H   0  0  0  0  0  0
  -27.4068  -29.7270   25.4663 H   0  0  0  0  0  0
  -27.8752  -30.4293   23.9382 H   0  0  0  0  0  0
  -27.2711  -33.3641   26.2009 H   0  0  0  0  0  0
  -28.3854  -32.6824   25.0256 H   0  0  0  0  0  0
  -28.0749  -31.8454   26.5384 H   0  0  0  0  0  0
  -28.2598  -38.0102   24.7556 H   0  0  0  0  0  0
  -28.1115  -36.2637   24.6255 H   0  0  0  0  0  0
  -27.2317  -37.1386   25.8868 H   0  0  0  0  0  0
  -20.9432  -29.8760   21.6901 H   0  0  0  0  0  0
  -26.0209  -38.2869   24.1387 H   0  0  0  0  0  0
  -30.7151  -18.6210   17.9646 H   0  0  0  0  0  0
  -29.4494  -23.8838   18.0104 H   0  0  0  0  0  0
  -30.4679  -24.0688   15.8276 H   0  0  0  0  0  0
  -31.5099  -19.8733   15.9696 H   0  0  0  0  0  0
  -32.6349  -21.5887   14.2747 H   0  0  0  0  0  0
  -31.8237  -23.1358   14.0604 H   0  0  0  0  0  0
  -30.9912  -21.6435   13.6169 H   0  0  0  0  0  0
  -27.3260  -21.0988   21.2868 H   0  0  0  0  0  0
  -27.6282  -22.5870   22.1690 H   0  0  0  0  0  0
  -28.7764  -21.2627   22.2914 H   0  0  0  0  0  0
  -29.4670  -24.0063   21.5785 H   0  0  0  0  0  0
  -30.0936  -24.0142   19.9968 H   0  0  0  0  0  0
  -31.1297  -17.4984   21.1508 H   0  0  0  0  0  0
  -30.8007  -17.2126   19.4917 H   0  0  0  0  0  0
  -27.1889  -24.7070   20.7967 H   0  0  0  0  0  0
  -27.7280  -24.6741   19.1412 H   0  0  0  0  0  0
  -29.1417  -18.8948   21.4640 H   0  0  0  0  0  0
  -28.9278  -15.6772   21.0623 H   0  0  0  0  0  0
  -28.1060  -17.6991   19.0329 H   0  0  0  0  0  0
  -27.4194  -18.9643   19.7859 H   0  0  0  0  0  0
  -27.5293  -17.5393   20.5680 H   0  0  0  0  0  0
  1 25  1  0  0  0
  1 30  2  0  0  0
  1 86  1  0  0  0
  2  3  1  0  0  0
  2 25  1  0  0  0
  2 89  1  0  0  0
  2 90  1  0  0  0
  3  4  1  0  0  0
  3 91  1  0  0  0
  3 92  1  0  0  0
  4  5  1  0  0  0
  4 93  1  0  0  0
  4 94  1  0  0  0
  5  6  1  0  0  0
  5 26  1  0  0  0
  5 95  1  0  0  0
  6 25  1  0  0  0
  6 96  1  0  0  0
  6 97  1  0  0  0
  7  8  2  0  0  0
  7 26  1  0  0  0
  7 29  1  0  0  0
  8  9  1  0  0  0
  8 22  1  0  0  0
  9 10  1  0  0  0
  9 27  2  0  0  0
 10 11  2  0  0  0
 10 15  1  0  0  0
 11 12  1  0  0  0
 11 98  1  0  0  0
 12 13  2  0  0  0
 12 99  1  0  0  0
 13 14  1  0  0  0
 13 31  1  0  0  0
 14 15  2  0  0  0
 14100  1  0  0  0
 15101  1  0  0  0
 16 17  2  0  0  0
 16 21  1  0  0  0
 16 31  1  0  0  0
 17 18  1  0  0  0
 17102  1  0  0  0
 18 19  2  0  0  0
 18103  1  0  0  0
 19 20  1  0  0  0
 19 24  1  0  0  0
 20 21  2  0  0  0
 20104  1  0  0  0
 21 23  1  0  0  0
 22 28  1  0  0  0
 22 32  2  0  0  0
 26 27  1  0  0  0
 28105  1  0  0  0
 28106  1  0  0  0
 29107  1  0  0  0
 29108  1  0  0  0
 33 34  1  0  0  0
 33 66  1  0  0  0
 33 70  2  0  0  0
 34 36  1  0  0  0
 34 59  1  0  0  0
 34109  1  0  0  0
 35 44  2  0  0  0
 35 45  1  0  0  0
 35 68  1  0  0  0
 36 56  1  0  0  0
 36110  1  0  0  0
 37 39  1  0  0  0
 37 47  1  0  0  0
 37 66  1  0  0  0
 37111  1  0  0  0
 38 43  2  0  0  0
 38 46  1  0  0  0
 38 47  1  0  0  0
 39 64  1  0  0  0
 39 67  2  0  0  0
 40 52  1  0  0  0
 40 53  2  0  0  0
 40 58  1  0  0  0
 41112  1  0  0  0
 41113  1  0  0  0
 41114  1  0  0  0
 41 48  1  0  0  0
 42 43  1  0  0  0
 42 66  1  0  0  0
 42115  1  0  0  0
 42116  1  0  0  0
 43 44  1  0  0  0
 44117  1  0  0  0
 45 46  2  0  0  0
 45118  1  0  0  0
 46119  1  0  0  0
 47120  1  0  0  0
 47121  1  0  0  0
 48 56  1  0  0  0
 48 65  1  0  0  0
 48122  1  0  0  0
 49 50  1  0  0  0
 49 53  1  0  0  0
 49 64  1  0  0  0
 49123  1  0  0  0
 50 51  1  0  0  0
 50124  1  0  0  0
 50125  1  0  0  0
 51 52  1  0  0  0
 51126  1  0  0  0
 51127  1  0  0  0
 52128  1  0  0  0
 52129  1  0  0  0
 53 54  1  0  0  0
 54 55  2  0  0  0
 54130  1  0  0  0
 55 57  1  0  0  0
 55131  1  0  0  0
 56 69  2  0  0  0
 57 58  2  0  0  0
 57132  1  0  0  0
 58133  1  0  0  0
 59 60  1  0  0  0
 59 61  1  0  0  0
 59 62  1  0  0  0
 60134  1  0  0  0
 60135  1  0  0  0
 60136  1  0  0  0
 61137  1  0  0  0
 61138  1  0  0  0
 61139  1  0  0  0
 62140  1  0  0  0
 62141  1  0  0  0
 62142  1  0  0  0
 63 65  1  0  0  0
 63143  1  0  0  0
 63144  1  0  0  0
 63145  1  0  0  0
 64146  1  0  0  0
 65147  1  0  0  0
 68 83  1  0  0  0
 71 72  2  0  0  0
 71 85  1  0  0  0
 71148  1  0  0  0
 72 73  1  0  0  0
 72 84  1  0  0  0
 73 74  2  0  0  0
 73 87  1  0  0  0
 74 75  1  0  0  0
 74 85  1  0  0  0
 75 76  2  0  0  0
 75149  1  0  0  0
 76 78  1  0  0  0
 76150  1  0  0  0
 77 78  2  0  0  0
 77 85  1  0  0  0
 77151  1  0  0  0
 78 79  1  0  0  0
 79152  1  0  0  0
 79153  1  0  0  0
 79154  1  0  0  0
 80 87  1  0  0  0
 80155  1  0  0  0
 80156  1  0  0  0
 80157  1  0  0  0
 81 83  1  0  0  0
 81 87  1  0  0  0
 81158  1  0  0  0
 81159  1  0  0  0
 82 84  1  0  0  0
 82 86  1  0  0  0
 82160  1  0  0  0
 82161  1  0  0  0
 83162  1  0  0  0
 83163  1  0  0  0
 84 88  1  0  0  0
 84164  1  0  0  0
 86165  1  0  0  0
 88166  1  0  0  0
 88167  1  0  0  0
 88168  1  0  0  0
M  CHG  1  88   1
M  ISO  4   1 100  68 101  83 101  86 100
M  END
> <chiral flag>
0

> <version>
0

> <s_m_source_file>
/data/baiqing/PycharmProjects/Reinvent-master-3.2/result/LINK_invent/BTK/process_docking_weight1_custom_sum_contain_oxygen_bond_distance_aromatic_linkinvent_7_9_3/rearranged_h_0113.sdf

> <i_m_source_file_index>
40

> <r_mmod_Potential_Energy-OPLS-2005>
-96.0341262817383

> <r_mmod_Stretch_Energy-OPLS-2005>
139.081771850586

> <r_mmod_Bend_Energy-OPLS-2005>
204.69465637207

> <r_mmod_Torsional_Energy-OPLS-2005>
249.517471313477

> <r_mmod_Improper_Torsional_Energy-OPLS-2005>
9.24968528747559

> <r_mmod_Van_der_Waal_Energy-OPLS-2005>
147.701202392578

> <r_mmod_Electrostatic_Energy-OPLS-2005>
-372.682342529297

> <r_mmod_Solvation_Energy-OPLS-2005>
-546.321899414062

> <b_mmod_Minimization_Converged-OPLS-2005>
0

> <r_mmod_RMS_Derivative-OPLS-2005>
3.48068499565125

$$$$
41
                    3D
 Structure written by MMmdl.
162169  0  0  1  0            999 V2000
  -30.6978  -14.5230   20.6105 C   0  0  0  0  0  0
  -30.4269  -12.3553   19.4315 C   0  0  0  0  0  0
  -29.5004  -12.5307   18.2127 C   0  0  0  0  0  0
  -28.0221  -12.3778   18.6228 C   0  0  0  0  0  0
  -27.6570  -13.2191   19.8774 C   0  0  2  0  0  0
  -28.6994  -13.0178   21.0000 C   0  0  0  0  0  0
  -25.2458  -13.8114   20.5507 C   0  0  0  0  0  0
  -24.1788  -13.0388   20.9135 C   0  0  0  0  0  0
  -24.6402  -11.6872   20.8745 C   0  0  0  0  0  0
  -23.9088  -10.4256   21.0404 C   0  0  0  0  0  0
  -24.3629   -9.4180   21.9196 C   0  0  0  0  0  0
  -23.6296   -8.2226   22.0759 C   0  0  0  0  0  0
  -22.4280   -8.0260   21.3539 C   0  0  0  0  0  0
  -21.9914   -9.0238   20.4647 C   0  0  0  0  0  0
  -22.7250  -10.2115   20.3057 C   0  0  0  0  0  0
  -21.6857   -6.0721   22.5283 C   0  0  0  0  0  0
  -21.4011   -6.5627   23.8211 C   0  0  0  0  0  0
  -21.3664   -5.6782   24.9177 C   0  0  0  0  0  0
  -21.6045   -4.3043   24.7231 C   0  0  0  0  0  0
  -21.8827   -3.8132   23.4355 C   0  0  0  0  0  0
  -21.9188   -4.6947   22.3407 C   0  0  0  0  0  0
  -22.7813  -13.5178   21.1817 C   0  0  0  0  0  0
  -22.1666   -4.2134   21.0986 F   0  0  0  0  0  0
  -21.5624   -3.4527   25.7747 F   0  0  0  0  0  0
  -30.0249  -13.3445   20.4497 N   0  0  0  0  0  0
  -26.2992  -12.9362   20.3360 N   0  0  0  0  0  0
  -25.9351  -11.6505   20.5824 N   0  0  0  0  0  0
  -22.0464  -12.8203   22.0401 N   0  0  0  0  0  0
  -25.3930  -15.1812   20.3615 N   0  0  0  0  0  0
  -31.8007  -14.7244   20.0984 O   0  0  0  0  0  0
  -21.6632   -6.8869   21.4243 O   0  0  0  0  0  0
  -22.3489  -14.5483   20.6659 O   0  0  0  0  0  0
  -24.6193  -31.8650   23.2082 C   0  0  0  0  0  0
  -25.9079  -32.4794   23.8387 C   0  0  1  0  0  0
  -27.2168  -27.3980   20.0963 C   0  0  0  0  0  0
  -25.5917  -33.8595   24.2312 N   0  0  0  0  0  0
  -23.4072  -30.4924   21.5485 C   0  0  2  0  0  0
  -24.8482  -28.9564   20.1106 C   0  0  0  0  0  0
  -22.7417  -29.4666   22.4952 C   0  0  0  0  0  0
  -18.0270  -28.1364   22.8480 C   0  0  0  0  0  0
  -24.1482  -36.7312   23.2640 C   0  0  0  0  0  0
  -25.9429  -30.8183   21.3691 C   0  0  0  0  0  0
  -26.0141  -29.4559   20.7051 C   0  0  0  0  0  0
  -27.2052  -28.6882   20.6846 C   0  0  0  0  0  0
  -26.0306  -26.9218   19.4955 C   0  0  0  0  0  0
  -24.8546  -27.6932   19.4982 C   0  0  0  0  0  0
  -23.6155  -29.8297   20.1618 C   0  0  0  0  0  0
  -25.4103  -36.3107   24.0340 C   0  0  1  0  0  0
  -20.5866  -28.3672   23.1278 C   0  0  2  0  0  0
  -20.6754  -26.9396   22.5399 C   0  0  0  0  0  0
  -19.5736  -26.6373   21.5191 C   0  0  0  0  0  0
  -18.1918  -26.7905   22.1607 C   0  0  0  0  0  0
  -19.1522  -28.8830   23.2882 C   0  0  0  0  0  0
  -18.9456  -30.1430   23.8901 C   0  0  0  0  0  0
  -17.6460  -30.6576   24.0558 C   0  0  0  0  0  0
  -25.9042  -34.9464   23.5130 C   0  0  0  0  0  0
  -16.5351  -29.9083   23.6324 C   0  0  0  0  0  0
  -16.7259  -28.6492   23.0351 C   0  0  0  0  0  0
  -26.4480  -31.6582   25.0737 C   0  0  0  0  0  0
  -25.3744  -31.3717   26.1493 C   0  0  0  0  0  0
  -27.0308  -30.3002   24.6172 C   0  0  0  0  0  0
  -27.6043  -32.4312   25.7505 C   0  0  0  0  0  0
  -27.5583  -37.1816   24.8464 C   0  0  0  0  0  0
  -21.4139  -29.3050   22.3687 N   0  0  0  0  0  0
  -26.4290  -37.3798   23.9415 N   0  0  0  0  0  0
  -24.6746  -31.0739   22.0988 N   0  0  0  0  0  0
  -23.4168  -28.8198   23.2998 O   0  0  0  0  0  0
  -28.3653  -26.6260   20.1111 O   0  0  0  0  0  0
  -26.5606  -34.8926   22.4694 O   0  0  0  0  0  0
  -23.5379  -32.1411   23.7467 O   0  0  0  0  0  0
  -30.0315  -17.9767   21.1120 C   0  0  0  0  0  0
  -27.9929  -16.6579   21.6373 C   0  0  0  0  0  0
  -30.2597  -25.3866   21.7128 C   0  0  0  0  0  0
  -30.4370  -24.4294   19.4149 C   0  0  0  0  0  0
  -29.1977  -21.7271   20.5375 C   0  0  0  0  0  0
  -29.4081  -23.0599   21.3469 C   0  0  0  0  0  0
  -29.7854  -20.4752   21.2861 C   0  0  0  0  0  0
  -28.2011  -25.1953   20.3106 C   0  0  0  0  0  0
  -29.3178  -16.6176   20.8488 C   0  0  2  0  0  0
  -29.5496  -24.4877   20.6719 C   0  0  0  0  0  0
  -29.3972  -19.1327   20.7889 N   0  0  0  0  0  0
  -30.1137  -15.4767   21.3686 N   0  0  0  0  0  0
  -31.1248  -17.9734   21.6800 O   0  0  0  0  0  0
  -31.4708  -12.4664   19.1318 H   0  0  0  0  0  0
  -30.3426  -11.3441   19.8321 H   0  0  0  0  0  0
  -29.7522  -11.8048   17.4377 H   0  0  0  0  0  0
  -29.6609  -13.5189   17.7758 H   0  0  0  0  0  0
  -27.8450  -11.3194   18.8186 H   0  0  0  0  0  0
  -27.3686  -12.6411   17.7903 H   0  0  0  0  0  0
  -27.6910  -14.2677   19.5799 H   0  0  0  0  0  0
  -28.6916  -11.9812   21.3372 H   0  0  0  0  0  0
  -28.4568  -13.6085   21.8832 H   0  0  0  0  0  0
  -25.2768   -9.5655   22.4788 H   0  0  0  0  0  0
  -23.9993   -7.4614   22.7478 H   0  0  0  0  0  0
  -21.0838   -8.8740   19.8975 H   0  0  0  0  0  0
  -22.3677  -10.9650   19.6166 H   0  0  0  0  0  0
  -21.2008   -7.6133   23.9706 H   0  0  0  0  0  0
  -21.1488   -6.0516   25.9081 H   0  0  0  0  0  0
  -22.0608   -2.7594   23.2852 H   0  0  0  0  0  0
  -22.4067  -11.9888   22.4844 H   0  0  0  0  0  0
  -21.1079  -13.1250   22.2587 H   0  0  0  0  0  0
  -24.6174  -15.8253   20.4707 H   0  0  0  0  0  0
  -26.2401  -15.6279   20.0392 H   0  0  0  0  0  0
  -26.7145  -32.5468   23.1139 H   0  0  0  0  0  0
  -25.0089  -33.9737   25.0472 H   0  0  0  0  0  0
  -22.6993  -31.3126   21.4103 H   0  0  0  0  0  0
  -23.3749  -35.9643   23.3305 H   0  0  0  0  0  0
  -24.3584  -36.8927   22.2058 H   0  0  0  0  0  0
  -23.7225  -37.6514   23.6650 H   0  0  0  0  0  0
  -26.0763  -31.5902   20.6100 H   0  0  0  0  0  0
  -26.8230  -30.8528   22.0003 H   0  0  0  0  0  0
  -28.1074  -29.0703   21.1412 H   0  0  0  0  0  0
  -25.9950  -25.9551   19.0151 H   0  0  0  0  0  0
  -23.9609  -27.3037   19.0298 H   0  0  0  0  0  0
  -23.7281  -30.6073   19.4051 H   0  0  0  0  0  0
  -22.7366  -29.2561   19.8628 H   0  0  0  0  0  0
  -25.1278  -36.1983   25.0835 H   0  0  0  0  0  0
  -20.9954  -28.3249   24.1399 H   0  0  0  0  0  0
  -20.5618  -26.2286   23.3599 H   0  0  0  0  0  0
  -21.6629  -26.7406   22.1218 H   0  0  0  0  0  0
  -19.6896  -25.6282   21.1225 H   0  0  0  0  0  0
  -19.6678  -27.3176   20.6717 H   0  0  0  0  0  0
  -17.4177  -26.6637   21.4026 H   0  0  0  0  0  0
  -18.0342  -26.0041   22.8999 H   0  0  0  0  0  0
  -19.7941  -30.7231   24.2274 H   0  0  0  0  0  0
  -17.5031  -31.6259   24.5153 H   0  0  0  0  0  0
  -15.5356  -30.2996   23.7643 H   0  0  0  0  0  0
  -15.8651  -28.0821   22.7072 H   0  0  0  0  0  0
  -24.5904  -30.7064   25.7864 H   0  0  0  0  0  0
  -24.8958  -32.2883   26.4950 H   0  0  0  0  0  0
  -25.8108  -30.8894   27.0250 H   0  0  0  0  0  0
  -26.2874  -29.6773   24.1180 H   0  0  0  0  0  0
  -27.3981  -29.7245   25.4681 H   0  0  0  0  0  0
  -27.8758  -30.4283   23.9401 H   0  0  0  0  0  0
  -27.2634  -33.3598   26.2098 H   0  0  0  0  0  0
  -28.3847  -32.6895   25.0335 H   0  0  0  0  0  0
  -28.0711  -31.8428   26.5415 H   0  0  0  0  0  0
  -28.2602  -38.0111   24.7513 H   0  0  0  0  0  0
  -28.1072  -36.2646   24.6275 H   0  0  0  0  0  0
  -27.2307  -37.1455   25.8867 H   0  0  0  0  0  0
  -20.9280  -29.8813   21.6953 H   0  0  0  0  0  0
  -26.0182  -38.2882   24.1406 H   0  0  0  0  0  0
  -27.2613  -17.3076   21.1549 H   0  0  0  0  0  0
  -28.1298  -17.0293   22.6536 H   0  0  0  0  0  0
  -27.5406  -15.6746   21.7289 H   0  0  0  0  0  0
  -31.2081  -24.9619   22.0415 H   0  0  0  0  0  0
  -29.6374  -25.5351   22.5959 H   0  0  0  0  0  0
  -30.4927  -26.3737   21.3132 H   0  0  0  0  0  0
  -31.4261  -24.0318   19.6405 H   0  0  0  0  0  0
  -30.5750  -25.4235   18.9862 H   0  0  0  0  0  0
  -29.9941  -23.8141   18.6326 H   0  0  0  0  0  0
  -29.6770  -21.7841   19.5621 H   0  0  0  0  0  0
  -28.1326  -21.5956   20.3461 H   0  0  0  0  0  0
  -30.3231  -22.8980   21.9174 H   0  0  0  0  0  0
  -28.6307  -23.1186   22.1112 H   0  0  0  0  0  0
  -29.4950  -20.5158   22.3373 H   0  0  0  0  0  0
  -30.8741  -20.5499   21.2769 H   0  0  0  0  0  0
  -27.4778  -25.0332   21.1129 H   0  0  0  0  0  0
  -27.7843  -24.7369   19.4131 H   0  0  0  0  0  0
  -29.1346  -16.5014   19.7791 H   0  0  0  0  0  0
  -28.5016  -19.0548   20.3247 H   0  0  0  0  0  0
  -30.8304  -15.9139   21.9359 H   0  0  0  0  0  0
  1 25  1  0  0  0
  1 30  2  0  0  0
  1 82  1  0  0  0
  2  3  1  0  0  0
  2 25  1  0  0  0
  2 84  1  0  0  0
  2 85  1  0  0  0
  3  4  1  0  0  0
  3 86  1  0  0  0
  3 87  1  0  0  0
  4  5  1  0  0  0
  4 88  1  0  0  0
  4 89  1  0  0  0
  5  6  1  0  0  0
  5 26  1  0  0  0
  5 90  1  0  0  0
  6 25  1  0  0  0
  6 91  1  0  0  0
  6 92  1  0  0  0
  7  8  2  0  0  0
  7 26  1  0  0  0
  7 29  1  0  0  0
  8  9  1  0  0  0
  8 22  1  0  0  0
  9 10  1  0  0  0
  9 27  2  0  0  0
 10 11  2  0  0  0
 10 15  1  0  0  0
 11 12  1  0  0  0
 11 93  1  0  0  0
 12 13  2  0  0  0
 12 94  1  0  0  0
 13 14  1  0  0  0
 13 31  1  0  0  0
 14 15  2  0  0  0
 14 95  1  0  0  0
 15 96  1  0  0  0
 16 17  2  0  0  0
 16 21  1  0  0  0
 16 31  1  0  0  0
 17 18  1  0  0  0
 17 97  1  0  0  0
 18 19  2  0  0  0
 18 98  1  0  0  0
 19 20  1  0  0  0
 19 24  1  0  0  0
 20 21  2  0  0  0
 20 99  1  0  0  0
 21 23  1  0  0  0
 22 28  1  0  0  0
 22 32  2  0  0  0
 26 27  1  0  0  0
 28100  1  0  0  0
 28101  1  0  0  0
 29102  1  0  0  0
 29103  1  0  0  0
 33 34  1  0  0  0
 33 66  1  0  0  0
 33 70  2  0  0  0
 34 36  1  0  0  0
 34 59  1  0  0  0
 34104  1  0  0  0
 35 44  2  0  0  0
 35 45  1  0  0  0
 35 68  1  0  0  0
 36 56  1  0  0  0
 36105  1  0  0  0
 37 39  1  0  0  0
 37 47  1  0  0  0
 37 66  1  0  0  0
 37106  1  0  0  0
 38 43  2  0  0  0
 38 46  1  0  0  0
 38 47  1  0  0  0
 39 64  1  0  0  0
 39 67  2  0  0  0
 40 52  1  0  0  0
 40 53  2  0  0  0
 40 58  1  0  0  0
 41107  1  0  0  0
 41108  1  0  0  0
 41109  1  0  0  0
 41 48  1  0  0  0
 42 43  1  0  0  0
 42 66  1  0  0  0
 42110  1  0  0  0
 42111  1  0  0  0
 43 44  1  0  0  0
 44112  1  0  0  0
 45 46  2  0  0  0
 45113  1  0  0  0
 46114  1  0  0  0
 47115  1  0  0  0
 47116  1  0  0  0
 48 56  1  0  0  0
 48 65  1  0  0  0
 48117  1  0  0  0
 49 50  1  0  0  0
 49 53  1  0  0  0
 49 64  1  0  0  0
 49118  1  0  0  0
 50 51  1  0  0  0
 50119  1  0  0  0
 50120  1  0  0  0
 51 52  1  0  0  0
 51121  1  0  0  0
 51122  1  0  0  0
 52123  1  0  0  0
 52124  1  0  0  0
 53 54  1  0  0  0
 54 55  2  0  0  0
 54125  1  0  0  0
 55 57  1  0  0  0
 55126  1  0  0  0
 56 69  2  0  0  0
 57 58  2  0  0  0
 57127  1  0  0  0
 58128  1  0  0  0
 59 60  1  0  0  0
 59 61  1  0  0  0
 59 62  1  0  0  0
 60129  1  0  0  0
 60130  1  0  0  0
 60131  1  0  0  0
 61132  1  0  0  0
 61133  1  0  0  0
 61134  1  0  0  0
 62135  1  0  0  0
 62136  1  0  0  0
 62137  1  0  0  0
 63 65  1  0  0  0
 63138  1  0  0  0
 63139  1  0  0  0
 63140  1  0  0  0
 64141  1  0  0  0
 65142  1  0  0  0
 68 78  1  0  0  0
 71 79  1  0  0  0
 71 81  1  0  0  0
 71 83  2  0  0  0
 72143  1  0  0  0
 72144  1  0  0  0
 72145  1  0  0  0
 72 79  1  0  0  0
 73146  1  0  0  0
 73147  1  0  0  0
 73148  1  0  0  0
 73 80  1  0  0  0
 74 80  1  0  0  0
 74149  1  0  0  0
 74150  1  0  0  0
 74151  1  0  0  0
 75 76  1  0  0  0
 75 77  1  0  0  0
 75152  1  0  0  0
 75153  1  0  0  0
 76 80  1  0  0  0
 76154  1  0  0  0
 76155  1  0  0  0
 77 81  1  0  0  0
 77156  1  0  0  0
 77157  1  0  0  0
 78 80  1  0  0  0
 78158  1  0  0  0
 78159  1  0  0  0
 79 82  1  0  0  0
 79160  1  0  0  0
 81161  1  0  0  0
 82162  1  0  0  0
M  ISO  4   1 100  68 101  78 101  82 100
M  END
> <chiral flag>
0

> <version>
0

> <s_m_source_file>
/data/baiqing/PycharmProjects/Reinvent-master-3.2/result/LINK_invent/BTK/process_docking_weight1_custom_sum_contain_oxygen_bond_distance_aromatic_linkinvent_7_9_3/rearranged_h_0113.sdf

> <i_m_source_file_index>
41

> <r_mmod_Potential_Energy-OPLS-2005>
-104.379837036133

> <r_mmod_Stretch_Energy-OPLS-2005>
51.232982635498

> <r_mmod_Bend_Energy-OPLS-2005>
133.764022827148

> <r_mmod_Torsional_Energy-OPLS-2005>
291.884002685547

> <r_mmod_Improper_Torsional_Energy-OPLS-2005>
8.45634746551514

> <r_mmod_Van_der_Waal_Energy-OPLS-2005>
135.539276123047

> <r_mmod_Electrostatic_Energy-OPLS-2005>
-526.202270507812

> <r_mmod_Solvation_Energy-OPLS-2005>
-218.820602416992

> <b_mmod_Minimization_Converged-OPLS-2005>
0

> <r_mmod_RMS_Derivative-OPLS-2005>
2.51586318016052

$$$$
42
                    3D
 Structure written by MMmdl.
168175  0  0  1  0            999 V2000
  -30.6550  -14.6563   20.4949 C   0  0  0  0  0  0
  -30.4315  -12.4019   19.4701 C   0  0  0  0  0  0
  -29.5034  -12.5046   18.2389 C   0  0  0  0  0  0
  -28.0261  -12.3533   18.6475 C   0  0  0  0  0  0
  -27.6513  -13.2338   19.8703 C   0  0  2  0  0  0
  -28.6981  -13.1165   21.0033 C   0  0  0  0  0  0
  -25.2518  -13.8246   20.5725 C   0  0  0  0  0  0
  -24.1806  -13.0469   20.9196 C   0  0  0  0  0  0
  -24.6412  -11.6958   20.8754 C   0  0  0  0  0  0
  -23.9093  -10.4317   21.0396 C   0  0  0  0  0  0
  -24.3654   -9.4229   21.9163 C   0  0  0  0  0  0
  -23.6322   -8.2260   22.0733 C   0  0  0  0  0  0
  -22.4295   -8.0298   21.3522 C   0  0  0  0  0  0
  -21.9941   -9.0281   20.4626 C   0  0  0  0  0  0
  -22.7275  -10.2159   20.3036 C   0  0  0  0  0  0
  -21.6857   -6.0757   22.5287 C   0  0  0  0  0  0
  -21.4024   -6.5661   23.8223 C   0  0  0  0  0  0
  -21.3651   -5.6793   24.9178 C   0  0  0  0  0  0
  -21.6044   -4.3055   24.7218 C   0  0  0  0  0  0
  -21.8825   -3.8163   23.4327 C   0  0  0  0  0  0
  -21.9203   -4.6986   22.3399 C   0  0  0  0  0  0
  -22.7823  -13.5224   21.1864 C   0  0  0  0  0  0
  -22.1658   -4.2192   21.0965 F   0  0  0  0  0  0
  -21.5619   -3.4531   25.7716 F   0  0  0  0  0  0
  -30.0172  -13.4415   20.4396 N   0  0  0  0  0  0
  -26.2975  -12.9481   20.3383 N   0  0  0  0  0  0
  -25.9361  -11.6615   20.5822 N   0  0  0  0  0  0
  -22.0477  -12.8190   22.0421 N   0  0  0  0  0  0
  -25.4179  -15.1999   20.4194 N   0  0  0  0  0  0
  -31.8036  -14.7867   20.0671 O   0  0  0  0  0  0
  -21.6642   -6.8909   21.4241 O   0  0  0  0  0  0
  -22.3494  -14.5523   20.6715 O   0  0  0  0  0  0
  -24.6314  -31.8607   23.2074 C   0  0  0  0  0  0
  -25.9151  -32.4780   23.8393 C   0  0  1  0  0  0
  -27.1958  -27.2740   20.1099 C   0  0  0  0  0  0
  -25.5956  -33.8588   24.2305 N   0  0  0  0  0  0
  -23.4239  -30.4921   21.5532 C   0  0  2  0  0  0
  -24.8650  -28.9638   20.1059 C   0  0  0  0  0  0
  -22.7487  -29.4643   22.4938 C   0  0  0  0  0  0
  -18.0306  -28.1387   22.8500 C   0  0  0  0  0  0
  -24.1502  -36.7289   23.2634 C   0  0  0  0  0  0
  -25.9749  -30.7723   21.3947 C   0  0  0  0  0  0
  -26.0406  -29.4038   20.7274 C   0  0  0  0  0  0
  -27.2056  -28.5681   20.7319 C   0  0  0  0  0  0
  -26.0038  -26.9480   19.4141 C   0  0  0  0  0  0
  -24.8509  -27.7403   19.4402 C   0  0  0  0  0  0
  -23.6367  -29.8455   20.1644 C   0  0  0  0  0  0
  -25.4125  -36.3087   24.0327 C   0  0  1  0  0  0
  -20.5913  -28.3690   23.1278 C   0  0  2  0  0  0
  -20.6795  -26.9410   22.5408 C   0  0  0  0  0  0
  -19.5774  -26.6395   21.5207 C   0  0  0  0  0  0
  -18.1958  -26.7938   22.1622 C   0  0  0  0  0  0
  -19.1562  -28.8855   23.2888 C   0  0  0  0  0  0
  -18.9472  -30.1466   23.8892 C   0  0  0  0  0  0
  -17.6470  -30.6579   24.0563 C   0  0  0  0  0  0
  -25.9057  -34.9452   23.5107 C   0  0  0  0  0  0
  -16.5363  -29.9068   23.6352 C   0  0  0  0  0  0
  -16.7287  -28.6494   23.0359 C   0  0  0  0  0  0
  -26.4517  -31.6603   25.0776 C   0  0  0  0  0  0
  -25.3729  -31.3741   26.1474 C   0  0  0  0  0  0
  -27.0365  -30.3020   24.6280 C   0  0  0  0  0  0
  -27.6081  -32.4336   25.7532 C   0  0  0  0  0  0
  -27.5587  -37.1802   24.8465 C   0  0  0  0  0  0
  -21.4202  -29.3040   22.3654 N   0  0  0  0  0  0
  -26.4307  -37.3776   23.9397 N   0  0  0  0  0  0
  -24.6956  -31.0573   22.1069 N   0  0  0  0  0  0
  -23.4198  -28.8153   23.3002 O   0  0  0  0  0  0
  -28.2694  -26.3423   20.2090 O   0  0  0  0  0  0
  -26.5614  -34.8907   22.4666 O   0  0  0  0  0  0
  -23.5469  -32.1427   23.7378 O   0  0  0  0  0  0
  -29.0750  -22.2613   19.8631 C   0  0  0  0  0  0
  -29.4847  -18.2925   22.3707 C   0  0  0  0  0  0
  -31.4513  -18.9537   21.0042 C   0  0  0  0  0  0
  -26.8384  -24.3246   20.6994 C   0  0  0  0  0  0
  -27.9454  -24.8098   18.3604 C   0  0  0  0  0  0
  -29.2235  -23.7908   20.3391 C   0  0  0  0  0  0
  -29.9454  -17.1098   20.1123 C   0  0  0  0  0  0
  -27.6094  -19.4284   20.3255 C   0  0  0  0  0  0
  -29.1397  -19.6981   20.2123 C   0  0  2  0  0  0
  -29.9759  -18.5087   20.9253 C   0  0  0  0  0  0
  -28.0760  -24.8660   19.9097 C   0  0  0  0  0  0
  -29.4126  -21.1504   20.6064 N   0  0  0  0  0  0
  -29.8989  -15.7608   20.8021 N   0  0  0  0  0  0
  -26.8366  -20.0334   19.2288 N   0  3  0  0  0  0
  -28.5840  -22.0511   18.7533 O   0  0  0  0  0  0
  -31.4714  -12.5139   19.1598 H   0  0  0  0  0  0
  -30.3673  -11.4118   19.9238 H   0  0  0  0  0  0
  -29.7624  -11.7426   17.5022 H   0  0  0  0  0  0
  -29.6492  -13.4684   17.7489 H   0  0  0  0  0  0
  -27.8494  -11.3015   18.8757 H   0  0  0  0  0  0
  -27.3829  -12.5902   17.7992 H   0  0  0  0  0  0
  -27.6597  -14.2658   19.5192 H   0  0  0  0  0  0
  -28.7077  -12.1086   21.4201 H   0  0  0  0  0  0
  -28.4526  -13.7810   21.8318 H   0  0  0  0  0  0
  -25.2791   -9.5707   22.4743 H   0  0  0  0  0  0
  -24.0034   -7.4660   22.7453 H   0  0  0  0  0  0
  -21.0863   -8.8794   19.8945 H   0  0  0  0  0  0
  -22.3712  -10.9693   19.6141 H   0  0  0  0  0  0
  -21.2018   -7.6178   23.9746 H   0  0  0  0  0  0
  -21.1444   -6.0509   25.9082 H   0  0  0  0  0  0
  -22.0614   -2.7638   23.2805 H   0  0  0  0  0  0
  -22.4109  -11.9857   22.4794 H   0  0  0  0  0  0
  -21.1090  -13.1186   22.2641 H   0  0  0  0  0  0
  -24.6508  -15.8469   20.5616 H   0  0  0  0  0  0
  -26.2634  -15.6456   20.0903 H   0  0  0  0  0  0
  -26.7204  -32.5426   23.1120 H   0  0  0  0  0  0
  -25.0115  -33.9756   25.0456 H   0  0  0  0  0  0
  -22.7216  -31.3176   21.4189 H   0  0  0  0  0  0
  -23.3778  -35.9611   23.3296 H   0  0  0  0  0  0
  -24.3593  -36.8904   22.2048 H   0  0  0  0  0  0
  -23.7240  -37.6484   23.6648 H   0  0  0  0  0  0
  -26.1241  -31.5366   20.6313 H   0  0  0  0  0  0
  -26.8503  -30.8075   22.0315 H   0  0  0  0  0  0
  -28.0942  -28.8887   21.2569 H   0  0  0  0  0  0
  -25.8827  -26.0374   18.8552 H   0  0  0  0  0  0
  -23.9608  -27.4044   18.9252 H   0  0  0  0  0  0
  -23.7544  -30.6295   19.4157 H   0  0  0  0  0  0
  -22.7542  -29.2798   19.8607 H   0  0  0  0  0  0
  -25.1315  -36.1942   25.0822 H   0  0  0  0  0  0
  -21.0040  -28.3259   24.1381 H   0  0  0  0  0  0
  -20.5701  -26.2290   23.3601 H   0  0  0  0  0  0
  -21.6660  -26.7435   22.1199 H   0  0  0  0  0  0
  -19.6922  -25.6316   21.1208 H   0  0  0  0  0  0
  -19.6716  -27.3227   20.6755 H   0  0  0  0  0  0
  -17.4226  -26.6722   21.4015 H   0  0  0  0  0  0
  -18.0348  -26.0065   22.9004 H   0  0  0  0  0  0
  -19.7949  -30.7306   24.2212 H   0  0  0  0  0  0
  -17.5010  -31.6254   24.5170 H   0  0  0  0  0  0
  -15.5363  -30.2946   23.7676 H   0  0  0  0  0  0
  -15.8696  -28.0798   22.7059 H   0  0  0  0  0  0
  -24.5920  -30.7083   25.7774 H   0  0  0  0  0  0
  -24.8911  -32.2906   26.4886 H   0  0  0  0  0  0
  -25.8034  -30.8911   27.0253 H   0  0  0  0  0  0
  -26.2966  -29.6754   24.1288 H   0  0  0  0  0  0
  -27.4006  -29.7294   25.4816 H   0  0  0  0  0  0
  -27.8860  -30.4284   23.9568 H   0  0  0  0  0  0
  -27.2709  -33.3638   26.2109 H   0  0  0  0  0  0
  -28.3881  -32.6886   25.0347 H   0  0  0  0  0  0
  -28.0755  -31.8460   26.5437 H   0  0  0  0  0  0
  -28.2610  -38.0097   24.7527 H   0  0  0  0  0  0
  -28.1088  -36.2632   24.6296 H   0  0  0  0  0  0
  -27.2300  -37.1442   25.8866 H   0  0  0  0  0  0
  -20.9363  -29.8754   21.6875 H   0  0  0  0  0  0
  -26.0199  -38.2854   24.1391 H   0  0  0  0  0  0
  -30.1386  -17.6037   22.9076 H   0  0  0  0  0  0
  -28.4803  -17.8708   22.4126 H   0  0  0  0  0  0
  -29.4684  -19.2286   22.9290 H   0  0  0  0  0  0
  -32.0805  -18.1662   21.4188 H   0  0  0  0  0  0
  -31.5798  -19.8360   21.6330 H   0  0  0  0  0  0
  -31.8491  -19.1968   20.0179 H   0  0  0  0  0  0
  -27.0068  -24.4256   21.7715 H   0  0  0  0  0  0
  -26.6664  -23.2667   20.5058 H   0  0  0  0  0  0
  -25.8737  -24.7790   20.5081 H   0  0  0  0  0  0
  -27.1156  -24.1756   18.0442 H   0  0  0  0  0  0
  -28.8512  -24.4249   17.8922 H   0  0  0  0  0  0
  -27.8121  -25.7870   17.8980 H   0  0  0  0  0  0
  -30.1813  -24.1482   19.9593 H   0  0  0  0  0  0
  -29.3295  -23.7933   21.4234 H   0  0  0  0  0  0
  -30.7749  -17.1018   19.4038 H   0  0  0  0  0  0
  -29.0725  -17.1062   19.4606 H   0  0  0  0  0  0
  -27.2476  -19.8330   21.2708 H   0  0  0  0  0  0
  -27.3781  -18.3632   20.3517 H   0  0  0  0  0  0
  -29.4143  -19.6223   19.1588 H   0  0  0  0  0  0
  -29.8261  -21.3033   21.5169 H   0  0  0  0  0  0
  -29.0215  -15.5402   21.2489 H   0  0  0  0  0  0
  -27.2781  -20.9166   18.9896 H   0  0  0  0  0  0
  -25.8847  -20.1912   19.5076 H   0  0  0  0  0  0
  -26.8496  -19.4487   18.4124 H   0  0  0  0  0  0
  1 25  1  0  0  0
  1 30  2  0  0  0
  1 83  1  0  0  0
  2  3  1  0  0  0
  2 25  1  0  0  0
  2 86  1  0  0  0
  2 87  1  0  0  0
  3  4  1  0  0  0
  3 88  1  0  0  0
  3 89  1  0  0  0
  4  5  1  0  0  0
  4 90  1  0  0  0
  4 91  1  0  0  0
  5  6  1  0  0  0
  5 26  1  0  0  0
  5 92  1  0  0  0
  6 25  1  0  0  0
  6 93  1  0  0  0
  6 94  1  0  0  0
  7  8  2  0  0  0
  7 26  1  0  0  0
  7 29  1  0  0  0
  8  9  1  0  0  0
  8 22  1  0  0  0
  9 10  1  0  0  0
  9 27  2  0  0  0
 10 11  2  0  0  0
 10 15  1  0  0  0
 11 12  1  0  0  0
 11 95  1  0  0  0
 12 13  2  0  0  0
 12 96  1  0  0  0
 13 14  1  0  0  0
 13 31  1  0  0  0
 14 15  2  0  0  0
 14 97  1  0  0  0
 15 98  1  0  0  0
 16 17  2  0  0  0
 16 21  1  0  0  0
 16 31  1  0  0  0
 17 18  1  0  0  0
 17 99  1  0  0  0
 18 19  2  0  0  0
 18100  1  0  0  0
 19 20  1  0  0  0
 19 24  1  0  0  0
 20 21  2  0  0  0
 20101  1  0  0  0
 21 23  1  0  0  0
 22 28  1  0  0  0
 22 32  2  0  0  0
 26 27  1  0  0  0
 28102  1  0  0  0
 28103  1  0  0  0
 29104  1  0  0  0
 29105  1  0  0  0
 33 34  1  0  0  0
 33 66  1  0  0  0
 33 70  2  0  0  0
 34 36  1  0  0  0
 34 59  1  0  0  0
 34106  1  0  0  0
 35 44  2  0  0  0
 35 45  1  0  0  0
 35 68  1  0  0  0
 36 56  1  0  0  0
 36107  1  0  0  0
 37 39  1  0  0  0
 37 47  1  0  0  0
 37 66  1  0  0  0
 37108  1  0  0  0
 38 43  2  0  0  0
 38 46  1  0  0  0
 38 47  1  0  0  0
 39 64  1  0  0  0
 39 67  2  0  0  0
 40 52  1  0  0  0
 40 53  2  0  0  0
 40 58  1  0  0  0
 41109  1  0  0  0
 41110  1  0  0  0
 41111  1  0  0  0
 41 48  1  0  0  0
 42 43  1  0  0  0
 42 66  1  0  0  0
 42112  1  0  0  0
 42113  1  0  0  0
 43 44  1  0  0  0
 44114  1  0  0  0
 45 46  2  0  0  0
 45115  1  0  0  0
 46116  1  0  0  0
 47117  1  0  0  0
 47118  1  0  0  0
 48 56  1  0  0  0
 48 65  1  0  0  0
 48119  1  0  0  0
 49 50  1  0  0  0
 49 53  1  0  0  0
 49 64  1  0  0  0
 49120  1  0  0  0
 50 51  1  0  0  0
 50121  1  0  0  0
 50122  1  0  0  0
 51 52  1  0  0  0
 51123  1  0  0  0
 51124  1  0  0  0
 52125  1  0  0  0
 52126  1  0  0  0
 53 54  1  0  0  0
 54 55  2  0  0  0
 54127  1  0  0  0
 55 57  1  0  0  0
 55128  1  0  0  0
 56 69  2  0  0  0
 57 58  2  0  0  0
 57129  1  0  0  0
 58130  1  0  0  0
 59 60  1  0  0  0
 59 61  1  0  0  0
 59 62  1  0  0  0
 60131  1  0  0  0
 60132  1  0  0  0
 60133  1  0  0  0
 61134  1  0  0  0
 61135  1  0  0  0
 61136  1  0  0  0
 62137  1  0  0  0
 62138  1  0  0  0
 62139  1  0  0  0
 63 65  1  0  0  0
 63140  1  0  0  0
 63141  1  0  0  0
 63142  1  0  0  0
 64143  1  0  0  0
 65144  1  0  0  0
 68 81  1  0  0  0
 71 76  1  0  0  0
 71 82  1  0  0  0
 71 85  2  0  0  0
 72145  1  0  0  0
 72146  1  0  0  0
 72147  1  0  0  0
 72 80  1  0  0  0
 73 80  1  0  0  0
 73148  1  0  0  0
 73149  1  0  0  0
 73150  1  0  0  0
 74151  1  0  0  0
 74152  1  0  0  0
 74153  1  0  0  0
 74 81  1  0  0  0
 75 81  1  0  0  0
 75154  1  0  0  0
 75155  1  0  0  0
 75156  1  0  0  0
 76 81  1  0  0  0
 76157  1  0  0  0
 76158  1  0  0  0
 77 80  1  0  0  0
 77 83  1  0  0  0
 77159  1  0  0  0
 77160  1  0  0  0
 78 84  1  0  0  0
 78161  1  0  0  0
 78162  1  0  0  0
 78 79  1  0  0  0
 79 80  1  0  0  0
 79 82  1  0  0  0
 79163  1  0  0  0
 82164  1  0  0  0
 83165  1  0  0  0
 84166  1  0  0  0
 84167  1  0  0  0
 84168  1  0  0  0
M  CHG  1  84   1
M  ISO  4   1 100  68 101  81 101  83 100
M  END
> <chiral flag>
0

> <version>
0

> <s_m_source_file>
/data/baiqing/PycharmProjects/Reinvent-master-3.2/result/LINK_invent/BTK/process_docking_weight1_custom_sum_contain_oxygen_bond_distance_aromatic_linkinvent_7_9_3/rearranged_h_0113.sdf

> <i_m_source_file_index>
42

> <r_mmod_Potential_Energy-OPLS-2005>
-145.388305664062

> <r_mmod_Stretch_Energy-OPLS-2005>
125.420791625977

> <r_mmod_Bend_Energy-OPLS-2005>
182.838226318359

> <r_mmod_Torsional_Energy-OPLS-2005>
282.134613037109

> <r_mmod_Improper_Torsional_Energy-OPLS-2005>
7.41550254821777

> <r_mmod_Van_der_Waal_Energy-OPLS-2005>
169.891036987305

> <r_mmod_Electrostatic_Energy-OPLS-2005>
-485.377624511719

> <r_mmod_Solvation_Energy-OPLS-2005>
-497.176116943359

> <b_mmod_Minimization_Converged-OPLS-2005>
0

> <r_mmod_RMS_Derivative-OPLS-2005>
3.07776379585266

$$$$
43
                    3D
 Structure written by MMmdl.
162169  0  0  1  0            999 V2000
  -30.5402  -14.9675   20.4034 C   0  0  0  0  0  0
  -30.4296  -12.5891   19.5042 C   0  0  0  0  0  0
  -29.5171  -12.5398   18.2561 C   0  0  0  0  0  0
  -28.0480  -12.3297   18.6676 C   0  0  0  0  0  0
  -27.6278  -13.2527   19.8416 C   0  0  2  0  0  0
  -28.6740  -13.2861   20.9758 C   0  0  0  0  0  0
  -25.2439  -13.8224   20.5709 C   0  0  0  0  0  0
  -24.1778  -13.0440   20.9228 C   0  0  0  0  0  0
  -24.6403  -11.6924   20.8772 C   0  0  0  0  0  0
  -23.9095  -10.4295   21.0427 C   0  0  0  0  0  0
  -24.3638   -9.4199   21.9200 C   0  0  0  0  0  0
  -23.6300   -8.2237   22.0761 C   0  0  0  0  0  0
  -22.4279   -8.0278   21.3549 C   0  0  0  0  0  0
  -21.9929   -9.0260   20.4655 C   0  0  0  0  0  0
  -22.7270  -10.2131   20.3066 C   0  0  0  0  0  0
  -21.6850   -6.0744   22.5290 C   0  0  0  0  0  0
  -21.4035   -6.5654   23.8226 C   0  0  0  0  0  0
  -21.3662   -5.6802   24.9180 C   0  0  0  0  0  0
  -21.6035   -4.3067   24.7234 C   0  0  0  0  0  0
  -21.8816   -3.8161   23.4353 C   0  0  0  0  0  0
  -21.9196   -4.6971   22.3413 C   0  0  0  0  0  0
  -22.7795  -13.5203   21.1883 C   0  0  0  0  0  0
  -22.1654   -4.2164   21.0984 F   0  0  0  0  0  0
  -21.5613   -3.4541   25.7740 F   0  0  0  0  0  0
  -29.9458  -13.7023   20.3736 N   0  0  0  0  0  0
  -26.2886  -12.9469   20.3279 N   0  0  0  0  0  0
  -25.9342  -11.6591   20.5778 N   0  0  0  0  0  0
  -22.0455  -12.8191   22.0437 N   0  0  0  0  0  0
  -25.4065  -15.1964   20.4115 N   0  0  0  0  0  0
  -31.7433  -15.0212   20.1277 O   0  0  0  0  0  0
  -21.6628   -6.8881   21.4247 O   0  0  0  0  0  0
  -22.3471  -14.5504   20.6698 O   0  0  0  0  0  0
  -24.6458  -31.8429   23.1844 C   0  0  0  0  0  0
  -25.9222  -32.4674   23.8286 C   0  0  1  0  0  0
  -27.2177  -27.0940   20.1830 C   0  0  0  0  0  0
  -25.5993  -33.8496   24.2225 N   0  0  0  0  0  0
  -23.4503  -30.4574   21.5293 C   0  0  2  0  0  0
  -24.8999  -28.8690   20.1258 C   0  0  0  0  0  0
  -22.7574  -29.4523   22.4842 C   0  0  0  0  0  0
  -18.0306  -28.1393   22.8474 C   0  0  0  0  0  0
  -24.1486  -36.7209   23.2644 C   0  0  0  0  0  0
  -26.0069  -30.7030   21.3896 C   0  0  0  0  0  0
  -26.0769  -29.3038   20.7468 C   0  0  0  0  0  0
  -27.2346  -28.4333   20.7559 C   0  0  0  0  0  0
  -26.0228  -26.7826   19.5007 C   0  0  0  0  0  0
  -24.8855  -27.6191   19.4890 C   0  0  0  0  0  0
  -23.6816  -29.7791   20.1525 C   0  0  0  0  0  0
  -25.4129  -36.3026   24.0319 C   0  0  1  0  0  0
  -20.5929  -28.3733   23.1222 C   0  0  2  0  0  0
  -20.6790  -26.9433   22.5402 C   0  0  0  0  0  0
  -19.5767  -26.6382   21.5211 C   0  0  0  0  0  0
  -18.1950  -26.7935   22.1621 C   0  0  0  0  0  0
  -19.1569  -28.8881   23.2833 C   0  0  0  0  0  0
  -18.9491  -30.1473   23.8861 C   0  0  0  0  0  0
  -17.6485  -30.6589   24.0564 C   0  0  0  0  0  0
  -25.9084  -34.9396   23.5075 C   0  0  0  0  0  0
  -16.5380  -29.9090   23.6337 C   0  0  0  0  0  0
  -16.7294  -28.6496   23.0358 C   0  0  0  0  0  0
  -26.4550  -31.6526   25.0720 C   0  0  0  0  0  0
  -25.3697  -31.3721   26.1376 C   0  0  0  0  0  0
  -27.0418  -30.2916   24.6307 C   0  0  0  0  0  0
  -27.6095  -32.4264   25.7514 C   0  0  0  0  0  0
  -27.5568  -37.1766   24.8477 C   0  0  0  0  0  0
  -21.4264  -29.3051   22.3583 N   0  0  0  0  0  0
  -26.4280  -37.3752   23.9421 N   0  0  0  0  0  0
  -24.7206  -31.0240   22.0900 N   0  0  0  0  0  0
  -23.4194  -28.8080   23.3012 O   0  0  0  0  0  0
  -28.3139  -26.1474   20.1396 O   0  0  0  0  0  0
  -26.5653  -34.8897   22.4644 O   0  0  0  0  0  0
  -23.5562  -32.1347   23.7021 O   0  0  0  0  0  0
  -29.0884  -18.9897   20.6594 C   0  0  0  0  0  0
  -25.4972  -19.2482   17.8582 C   0  0  0  0  0  0
  -24.9300  -20.1598   20.1224 C   0  0  0  0  0  0
  -26.3951  -23.5022   19.8521 C   0  0  0  0  0  0
  -30.0959  -17.7112   20.3015 C   0  0  0  0  0  0
  -27.1342  -20.8577   18.9268 C   0  0  0  0  0  0
  -28.4042  -24.6349   20.6114 C   0  0  0  0  0  0
  -26.0812  -19.7421   19.1903 C   0  0  0  0  0  0
  -27.9210  -23.1959   19.8455 C   0  0  1  0  0  0
  -27.9869  -21.4521   20.1275 C   0  0  1  0  0  0
  -29.1443  -20.3502   20.1932 N   0  0  0  0  0  0
  -29.7711  -16.1646   20.5278 N   0  0  0  0  0  0
  -28.1866  -18.6978   21.4455 O   0  0  0  0  0  0
  -31.4702  -12.7218   19.2086 H   0  0  0  0  0  0
  -30.3951  -11.6358   20.0378 H   0  0  0  0  0  0
  -29.8322  -11.7439   17.5798 H   0  0  0  0  0  0
  -29.6098  -13.4748   17.7001 H   0  0  0  0  0  0
  -27.9342  -11.2858   18.9599 H   0  0  0  0  0  0
  -27.3874  -12.4801   17.8120 H   0  0  0  0  0  0
  -27.5874  -14.2558   19.4176 H   0  0  0  0  0  0
  -28.7622  -12.3113   21.4567 H   0  0  0  0  0  0
  -28.3797  -13.9874   21.7580 H   0  0  0  0  0  0
  -25.2775   -9.5663   22.4783 H   0  0  0  0  0  0
  -24.0004   -7.4629   22.7478 H   0  0  0  0  0  0
  -21.0859   -8.8794   19.8959 H   0  0  0  0  0  0
  -22.3745  -10.9671   19.6182 H   0  0  0  0  0  0
  -21.2038   -7.6166   23.9742 H   0  0  0  0  0  0
  -21.1484   -6.0526   25.9086 H   0  0  0  0  0  0
  -22.0591   -2.7625   23.2848 H   0  0  0  0  0  0
  -22.4057  -11.9834   22.4810 H   0  0  0  0  0  0
  -21.1079  -13.1218   22.2652 H   0  0  0  0  0  0
  -24.6329  -15.8425   20.5158 H   0  0  0  0  0  0
  -26.2438  -15.6411   20.0615 H   0  0  0  0  0  0
  -26.7270  -32.5294   23.1006 H   0  0  0  0  0  0
  -25.0232  -33.9640   25.0435 H   0  0  0  0  0  0
  -22.7532  -31.2819   21.3665 H   0  0  0  0  0  0
  -23.3787  -35.9496   23.3298 H   0  0  0  0  0  0
  -24.3561  -36.8848   22.2054 H   0  0  0  0  0  0
  -23.7181  -37.6380   23.6682 H   0  0  0  0  0  0
  -26.1629  -31.4495   20.6093 H   0  0  0  0  0  0
  -26.8754  -30.7634   22.0332 H   0  0  0  0  0  0
  -28.1378  -28.7721   21.2457 H   0  0  0  0  0  0
  -25.9579  -25.8649   18.9444 H   0  0  0  0  0  0
  -23.9943  -27.2890   18.9738 H   0  0  0  0  0  0
  -23.8318  -30.5497   19.3954 H   0  0  0  0  0  0
  -22.7964  -29.2252   19.8350 H   0  0  0  0  0  0
  -25.1304  -36.1870   25.0805 H   0  0  0  0  0  0
  -21.0023  -28.3339   24.1346 H   0  0  0  0  0  0
  -20.5702  -26.2355   23.3633 H   0  0  0  0  0  0
  -21.6652  -26.7436   22.1200 H   0  0  0  0  0  0
  -19.6946  -25.6289   21.1256 H   0  0  0  0  0  0
  -19.6702  -27.3178   20.6730 H   0  0  0  0  0  0
  -17.4227  -26.6688   21.4017 H   0  0  0  0  0  0
  -18.0330  -26.0076   22.9010 H   0  0  0  0  0  0
  -19.7966  -30.7296   24.2209 H   0  0  0  0  0  0
  -17.5044  -31.6267   24.5185 H   0  0  0  0  0  0
  -15.5378  -30.2992   23.7652 H   0  0  0  0  0  0
  -15.8693  -28.0801   22.7102 H   0  0  0  0  0  0
  -24.5910  -30.7046   25.7665 H   0  0  0  0  0  0
  -24.8843  -32.2893   26.4715 H   0  0  0  0  0  0
  -25.7927  -30.8942   27.0217 H   0  0  0  0  0  0
  -26.3014  -29.6596   24.1386 H   0  0  0  0  0  0
  -27.4104  -29.7271   25.4892 H   0  0  0  0  0  0
  -27.8906  -30.4152   23.9573 H   0  0  0  0  0  0
  -27.2732  -33.3607   26.2027 H   0  0  0  0  0  0
  -28.3954  -32.6735   25.0357 H   0  0  0  0  0  0
  -28.0707  -31.8411   26.5489 H   0  0  0  0  0  0
  -28.2589  -38.0067   24.7548 H   0  0  0  0  0  0
  -28.1060  -36.2599   24.6279 H   0  0  0  0  0  0
  -27.2279  -37.1363   25.8879 H   0  0  0  0  0  0
  -20.9489  -29.8755   21.6749 H   0  0  0  0  0  0
  -26.0149  -38.2812   24.1464 H   0  0  0  0  0  0
  -24.7780  -18.4431   18.0162 H   0  0  0  0  0  0
  -26.2773  -18.8599   17.2025 H   0  0  0  0  0  0
  -24.9846  -20.0519   17.3285 H   0  0  0  0  0  0
  -24.1695  -19.3791   20.1777 H   0  0  0  0  0  0
  -24.4257  -21.0591   19.7699 H   0  0  0  0  0  0
  -25.2783  -20.3330   21.1400 H   0  0  0  0  0  0
  -26.0973  -24.2997   20.5321 H   0  0  0  0  0  0
  -25.8042  -22.6699   20.2133 H   0  0  0  0  0  0
  -26.0258  -23.7517   18.8574 H   0  0  0  0  0  0
  -30.3691  -17.8176   19.2520 H   0  0  0  0  0  0
  -31.0223  -17.9034   20.8445 H   0  0  0  0  0  0
  -26.6121  -21.6239   18.3613 H   0  0  0  0  0  0
  -27.8260  -20.4934   18.1652 H   0  0  0  0  0  0
  -29.4772  -24.5058   20.7523 H   0  0  0  0  0  0
  -28.0232  -24.6174   21.6336 H   0  0  0  0  0  0
  -26.5623  -18.8754   19.6325 H   0  0  0  0  0  0
  -28.2977  -23.3175   18.8292 H   0  0  0  0  0  0
  -27.4455  -21.3050   21.0632 H   0  0  0  0  0  0
  -29.9566  -20.5581   19.6266 H   0  0  0  0  0  0
  -28.7967  -15.9946   20.7269 H   0  0  0  0  0  0
  1 25  1  0  0  0
  1 30  2  0  0  0
  1 82  1  0  0  0
  2  3  1  0  0  0
  2 25  1  0  0  0
  2 84  1  0  0  0
  2 85  1  0  0  0
  3  4  1  0  0  0
  3 86  1  0  0  0
  3 87  1  0  0  0
  4  5  1  0  0  0
  4 88  1  0  0  0
  4 89  1  0  0  0
  5  6  1  0  0  0
  5 26  1  0  0  0
  5 90  1  0  0  0
  6 25  1  0  0  0
  6 91  1  0  0  0
  6 92  1  0  0  0
  7  8  2  0  0  0
  7 26  1  0  0  0
  7 29  1  0  0  0
  8  9  1  0  0  0
  8 22  1  0  0  0
  9 10  1  0  0  0
  9 27  2  0  0  0
 10 11  2  0  0  0
 10 15  1  0  0  0
 11 12  1  0  0  0
 11 93  1  0  0  0
 12 13  2  0  0  0
 12 94  1  0  0  0
 13 14  1  0  0  0
 13 31  1  0  0  0
 14 15  2  0  0  0
 14 95  1  0  0  0
 15 96  1  0  0  0
 16 17  2  0  0  0
 16 21  1  0  0  0
 16 31  1  0  0  0
 17 18  1  0  0  0
 17 97  1  0  0  0
 18 19  2  0  0  0
 18 98  1  0  0  0
 19 20  1  0  0  0
 19 24  1  0  0  0
 20 21  2  0  0  0
 20 99  1  0  0  0
 21 23  1  0  0  0
 22 28  1  0  0  0
 22 32  2  0  0  0
 26 27  1  0  0  0
 28100  1  0  0  0
 28101  1  0  0  0
 29102  1  0  0  0
 29103  1  0  0  0
 33 34  1  0  0  0
 33 66  1  0  0  0
 33 70  2  0  0  0
 34 36  1  0  0  0
 34 59  1  0  0  0
 34104  1  0  0  0
 35 44  2  0  0  0
 35 45  1  0  0  0
 35 68  1  0  0  0
 36 56  1  0  0  0
 36105  1  0  0  0
 37 39  1  0  0  0
 37 47  1  0  0  0
 37 66  1  0  0  0
 37106  1  0  0  0
 38 43  2  0  0  0
 38 46  1  0  0  0
 38 47  1  0  0  0
 39 64  1  0  0  0
 39 67  2  0  0  0
 40 52  1  0  0  0
 40 53  2  0  0  0
 40 58  1  0  0  0
 41107  1  0  0  0
 41108  1  0  0  0
 41109  1  0  0  0
 41 48  1  0  0  0
 42 43  1  0  0  0
 42 66  1  0  0  0
 42110  1  0  0  0
 42111  1  0  0  0
 43 44  1  0  0  0
 44112  1  0  0  0
 45 46  2  0  0  0
 45113  1  0  0  0
 46114  1  0  0  0
 47115  1  0  0  0
 47116  1  0  0  0
 48 56  1  0  0  0
 48 65  1  0  0  0
 48117  1  0  0  0
 49 50  1  0  0  0
 49 53  1  0  0  0
 49 64  1  0  0  0
 49118  1  0  0  0
 50 51  1  0  0  0
 50119  1  0  0  0
 50120  1  0  0  0
 51 52  1  0  0  0
 51121  1  0  0  0
 51122  1  0  0  0
 52123  1  0  0  0
 52124  1  0  0  0
 53 54  1  0  0  0
 54 55  2  0  0  0
 54125  1  0  0  0
 55 57  1  0  0  0
 55126  1  0  0  0
 56 69  2  0  0  0
 57 58  2  0  0  0
 57127  1  0  0  0
 58128  1  0  0  0
 59 60  1  0  0  0
 59 61  1  0  0  0
 59 62  1  0  0  0
 60129  1  0  0  0
 60130  1  0  0  0
 60131  1  0  0  0
 61132  1  0  0  0
 61133  1  0  0  0
 61134  1  0  0  0
 62135  1  0  0  0
 62136  1  0  0  0
 62137  1  0  0  0
 63 65  1  0  0  0
 63138  1  0  0  0
 63139  1  0  0  0
 63140  1  0  0  0
 64141  1  0  0  0
 65142  1  0  0  0
 68 77  1  0  0  0
 71 75  1  0  0  0
 71 81  1  0  0  0
 71 83  2  0  0  0
 72143  1  0  0  0
 72144  1  0  0  0
 72145  1  0  0  0
 72 78  1  0  0  0
 73 78  1  0  0  0
 73146  1  0  0  0
 73147  1  0  0  0
 73148  1  0  0  0
 74149  1  0  0  0
 74150  1  0  0  0
 74151  1  0  0  0
 74 79  1  0  0  0
 75 82  1  0  0  0
 75152  1  0  0  0
 75153  1  0  0  0
 76 78  1  0  0  0
 76154  1  0  0  0
 76155  1  0  0  0
 76 80  1  0  0  0
 77 79  1  0  0  0
 77156  1  0  0  0
 77157  1  0  0  0
 78158  1  0  0  0
 79 80  1  0  0  0
 79159  1  0  0  0
 80 81  1  0  0  0
 80160  1  0  0  0
 81161  1  0  0  0
 82162  1  0  0  0
M  ISO  4   1 100  68 101  77 101  82 100
M  END
> <chiral flag>
0

> <version>
0

> <s_m_source_file>
/data/baiqing/PycharmProjects/Reinvent-master-3.2/result/LINK_invent/BTK/process_docking_weight1_custom_sum_contain_oxygen_bond_distance_aromatic_linkinvent_7_9_3/rearranged_h_0113.sdf

> <i_m_source_file_index>
43

> <r_mmod_Potential_Energy-OPLS-2005>
651.32275390625

> <r_mmod_Stretch_Energy-OPLS-2005>
341.878143310547

> <r_mmod_Bend_Energy-OPLS-2005>
421.424774169922

> <r_mmod_Torsional_Energy-OPLS-2005>
259.196228027344

> <r_mmod_Improper_Torsional_Energy-OPLS-2005>
5.59285736083984

> <r_mmod_Van_der_Waal_Energy-OPLS-2005>
134.668563842773

> <r_mmod_Electrostatic_Energy-OPLS-2005>
-488.080841064453

> <r_mmod_Solvation_Energy-OPLS-2005>
-227.257583618164

> <b_mmod_Minimization_Converged-OPLS-2005>
0

> <r_mmod_RMS_Derivative-OPLS-2005>
3.48406839370728

$$$$
44
                    3D
 Structure written by MMmdl.
149156  0  0  1  0            999 V2000
  -30.5468  -14.9501   20.4165 C   0  0  0  0  0  0
  -30.4400  -12.5900   19.4989 C   0  0  0  0  0  0
  -29.5225  -12.5314   18.2562 C   0  0  0  0  0  0
  -28.0547  -12.3191   18.6739 C   0  0  0  0  0  0
  -27.6299  -13.2512   19.8386 C   0  0  2  0  0  0
  -28.6728  -13.2821   20.9753 C   0  0  0  0  0  0
  -25.2472  -13.8233   20.5746 C   0  0  0  0  0  0
  -24.1785  -13.0443   20.9245 C   0  0  0  0  0  0
  -24.6409  -11.6935   20.8766 C   0  0  0  0  0  0
  -23.9099  -10.4297   21.0408 C   0  0  0  0  0  0
  -24.3647   -9.4203   21.9179 C   0  0  0  0  0  0
  -23.6313   -8.2239   22.0739 C   0  0  0  0  0  0
  -22.4292   -8.0290   21.3535 C   0  0  0  0  0  0
  -21.9940   -9.0265   20.4637 C   0  0  0  0  0  0
  -22.7276  -10.2143   20.3048 C   0  0  0  0  0  0
  -21.6857   -6.0752   22.5281 C   0  0  0  0  0  0
  -21.4016   -6.5644   23.8221 C   0  0  0  0  0  0
  -21.3663   -5.6790   24.9179 C   0  0  0  0  0  0
  -21.6043   -4.3051   24.7217 C   0  0  0  0  0  0
  -21.8818   -3.8154   23.4336 C   0  0  0  0  0  0
  -21.9196   -4.6978   22.3399 C   0  0  0  0  0  0
  -22.7803  -13.5209   21.1896 C   0  0  0  0  0  0
  -22.1660   -4.2168   21.0974 F   0  0  0  0  0  0
  -21.5631   -3.4532   25.7726 F   0  0  0  0  0  0
  -29.9483  -13.6918   20.3758 N   0  0  0  0  0  0
  -26.2895  -12.9468   20.3269 N   0  0  0  0  0  0
  -25.9338  -11.6594   20.5745 N   0  0  0  0  0  0
  -22.0452  -12.8186   22.0447 N   0  0  0  0  0  0
  -25.4132  -15.1963   20.4168 N   0  0  0  0  0  0
  -31.7511  -15.0083   20.1462 O   0  0  0  0  0  0
  -21.6636   -6.8897   21.4244 O   0  0  0  0  0  0
  -22.3485  -14.5512   20.6746 O   0  0  0  0  0  0
  -24.6420  -31.8446   23.1884 C   0  0  0  0  0  0
  -25.9193  -32.4709   23.8276 C   0  0  1  0  0  0
  -27.2141  -27.1260   20.1627 C   0  0  0  0  0  0
  -25.5942  -33.8514   24.2194 N   0  0  0  0  0  0
  -23.4485  -30.4636   21.5325 C   0  0  2  0  0  0
  -24.9006  -28.8924   20.1117 C   0  0  0  0  0  0
  -22.7580  -29.4544   22.4844 C   0  0  0  0  0  0
  -18.0313  -28.1411   22.8483 C   0  0  0  0  0  0
  -24.1486  -36.7246   23.2639 C   0  0  0  0  0  0
  -26.0056  -30.7172   21.3902 C   0  0  0  0  0  0
  -26.0783  -29.3274   20.7328 C   0  0  0  0  0  0
  -27.2376  -28.4609   20.7407 C   0  0  0  0  0  0
  -26.0148  -26.8035   19.4906 C   0  0  0  0  0  0
  -24.8824  -27.6446   19.4734 C   0  0  0  0  0  0
  -23.6776  -29.7948   20.1516 C   0  0  0  0  0  0
  -25.4121  -36.3036   24.0315 C   0  0  1  0  0  0
  -20.5922  -28.3729   23.1237 C   0  0  2  0  0  0
  -20.6795  -26.9435   22.5406 C   0  0  0  0  0  0
  -19.5763  -26.6388   21.5221 C   0  0  0  0  0  0
  -18.1947  -26.7948   22.1630 C   0  0  0  0  0  0
  -19.1571  -28.8885   23.2850 C   0  0  0  0  0  0
  -18.9482  -30.1475   23.8884 C   0  0  0  0  0  0
  -17.6478  -30.6598   24.0559 C   0  0  0  0  0  0
  -25.9069  -34.9417   23.5061 C   0  0  0  0  0  0
  -16.5368  -29.9092   23.6340 C   0  0  0  0  0  0
  -16.7295  -28.6513   23.0365 C   0  0  0  0  0  0
  -26.4516  -31.6578   25.0717 C   0  0  0  0  0  0
  -25.3696  -31.3783   26.1408 C   0  0  0  0  0  0
  -27.0378  -30.2967   24.6311 C   0  0  0  0  0  0
  -27.6041  -32.4348   25.7509 C   0  0  0  0  0  0
  -27.5572  -37.1787   24.8466 C   0  0  0  0  0  0
  -21.4268  -29.3048   22.3606 N   0  0  0  0  0  0
  -26.4282  -37.3748   23.9410 N   0  0  0  0  0  0
  -24.7184  -31.0297   22.0923 N   0  0  0  0  0  0
  -23.4226  -28.8092   23.2995 O   0  0  0  0  0  0
  -28.2470  -26.1151   20.2392 O   0  0  0  0  0  0
  -26.5648  -34.8913   22.4639 O   0  0  0  0  0  0
  -23.5530  -32.1324   23.7089 O   0  0  0  0  0  0
  -29.0140  -23.3779   20.2526 C   0  0  0  0  0  0
  -27.1288  -24.4120   21.6887 C   0  0  0  0  0  0
  -29.1197  -19.0124   20.4780 C   0  0  0  0  0  0
  -30.1668  -17.6786   20.3897 C   0  0  0  0  0  0
  -29.5511  -20.6487   20.3154 C   0  0  0  0  0  0
  -27.8843  -24.5922   20.3581 C   0  0  1  0  0  0
  -29.7801  -16.1456   20.5443 N   0  0  0  0  0  0
  -30.1886  -23.7001   20.0594 O   0  0  0  0  0  0
  -28.6235  -21.8911   20.3949 O   0  0  0  0  0  0
  -31.4748  -12.7446   19.1895 H   0  0  0  0  0  0
  -30.4327  -11.6407   20.0358 H   0  0  0  0  0  0
  -29.8411  -11.7319   17.5865 H   0  0  0  0  0  0
  -29.6135  -13.4603   17.6903 H   0  0  0  0  0  0
  -27.9497  -11.2788   18.9825 H   0  0  0  0  0  0
  -27.3915  -12.4520   17.8175 H   0  0  0  0  0  0
  -27.5924  -14.2526   19.4085 H   0  0  0  0  0  0
  -28.7612  -12.3075   21.4565 H   0  0  0  0  0  0
  -28.3760  -13.9865   21.7539 H   0  0  0  0  0  0
  -25.2793   -9.5676   22.4753 H   0  0  0  0  0  0
  -24.0030   -7.4624   22.7446 H   0  0  0  0  0  0
  -21.0876   -8.8790   19.8936 H   0  0  0  0  0  0
  -22.3742  -10.9682   19.6153 H   0  0  0  0  0  0
  -21.2001   -7.6149   23.9739 H   0  0  0  0  0  0
  -21.1488   -6.0507   25.9089 H   0  0  0  0  0  0
  -22.0597   -2.7616   23.2821 H   0  0  0  0  0  0
  -22.4089  -11.9866   22.4849 H   0  0  0  0  0  0
  -21.1057  -13.1184   22.2631 H   0  0  0  0  0  0
  -24.6449  -15.8485   20.5310 H   0  0  0  0  0  0
  -26.2539  -15.6370   20.0663 H   0  0  0  0  0  0
  -26.7265  -32.5326   23.1009 H   0  0  0  0  0  0
  -25.0094  -33.9642   25.0342 H   0  0  0  0  0  0
  -22.7505  -31.2881   21.3769 H   0  0  0  0  0  0
  -23.3755  -35.9567   23.3299 H   0  0  0  0  0  0
  -24.3560  -36.8877   22.2049 H   0  0  0  0  0  0
  -23.7238  -37.6441   23.6676 H   0  0  0  0  0  0
  -26.1628  -31.4731   20.6192 H   0  0  0  0  0  0
  -26.8745  -30.7682   22.0352 H   0  0  0  0  0  0
  -28.1312  -28.7873   21.2534 H   0  0  0  0  0  0
  -25.9178  -25.8549   18.9873 H   0  0  0  0  0  0
  -23.9864  -27.3073   18.9700 H   0  0  0  0  0  0
  -23.8193  -30.5697   19.3967 H   0  0  0  0  0  0
  -22.7943  -29.2361   19.8361 H   0  0  0  0  0  0
  -25.1317  -36.1856   25.0805 H   0  0  0  0  0  0
  -21.0024  -28.3316   24.1350 H   0  0  0  0  0  0
  -20.5700  -26.2345   23.3627 H   0  0  0  0  0  0
  -21.6663  -26.7446   22.1202 H   0  0  0  0  0  0
  -19.6921  -25.6292   21.1267 H   0  0  0  0  0  0
  -19.6693  -27.3191   20.6751 H   0  0  0  0  0  0
  -17.4222  -26.6694   21.4032 H   0  0  0  0  0  0
  -18.0328  -26.0102   22.9036 H   0  0  0  0  0  0
  -19.7954  -30.7295   24.2251 H   0  0  0  0  0  0
  -17.5032  -31.6283   24.5158 H   0  0  0  0  0  0
  -15.5369  -30.2986   23.7677 H   0  0  0  0  0  0
  -15.8697  -28.0820   22.7094 H   0  0  0  0  0  0
  -24.5880  -30.7120   25.7738 H   0  0  0  0  0  0
  -24.8872  -32.2970   26.4751 H   0  0  0  0  0  0
  -25.7969  -30.9018   27.0238 H   0  0  0  0  0  0
  -26.3003  -29.6696   24.1288 H   0  0  0  0  0  0
  -27.3945  -29.7262   25.4895 H   0  0  0  0  0  0
  -27.8931  -30.4186   23.9665 H   0  0  0  0  0  0
  -27.2626  -33.3662   26.2039 H   0  0  0  0  0  0
  -28.3890  -32.6891   25.0376 H   0  0  0  0  0  0
  -28.0672  -31.8509   26.5473 H   0  0  0  0  0  0
  -28.2597  -38.0078   24.7508 H   0  0  0  0  0  0
  -28.1068  -36.2608   24.6310 H   0  0  0  0  0  0
  -27.2289  -37.1459   25.8870 H   0  0  0  0  0  0
  -20.9475  -29.8755   21.6782 H   0  0  0  0  0  0
  -26.0145  -38.2813   24.1411 H   0  0  0  0  0  0
  -26.2654  -25.0728   21.7611 H   0  0  0  0  0  0
  -27.7778  -24.6249   22.5385 H   0  0  0  0  0  0
  -26.7599  -23.3918   21.8020 H   0  0  0  0  0  0
  -28.6079  -18.9339   21.4366 H   0  0  0  0  0  0
  -28.3382  -18.8358   19.7390 H   0  0  0  0  0  0
  -30.9538  -17.8495   21.1258 H   0  0  0  0  0  0
  -30.6747  -17.7480   19.4266 H   0  0  0  0  0  0
  -30.0544  -20.7384   19.3525 H   0  0  0  0  0  0
  -30.3327  -20.8324   21.0516 H   0  0  0  0  0  0
  -27.1955  -24.3633   19.5467 H   0  0  0  0  0  0
  -28.8017  -15.9775   20.7299 H   0  0  0  0  0  0
  1 25  1  0  0  0
  1 30  2  0  0  0
  1 77  1  0  0  0
  2  3  1  0  0  0
  2 25  1  0  0  0
  2 80  1  0  0  0
  2 81  1  0  0  0
  3  4  1  0  0  0
  3 82  1  0  0  0
  3 83  1  0  0  0
  4  5  1  0  0  0
  4 84  1  0  0  0
  4 85  1  0  0  0
  5  6  1  0  0  0
  5 26  1  0  0  0
  5 86  1  0  0  0
  6 25  1  0  0  0
  6 87  1  0  0  0
  6 88  1  0  0  0
  7  8  2  0  0  0
  7 26  1  0  0  0
  7 29  1  0  0  0
  8  9  1  0  0  0
  8 22  1  0  0  0
  9 10  1  0  0  0
  9 27  2  0  0  0
 10 11  2  0  0  0
 10 15  1  0  0  0
 11 12  1  0  0  0
 11 89  1  0  0  0
 12 13  2  0  0  0
 12 90  1  0  0  0
 13 14  1  0  0  0
 13 31  1  0  0  0
 14 15  2  0  0  0
 14 91  1  0  0  0
 15 92  1  0  0  0
 16 17  2  0  0  0
 16 21  1  0  0  0
 16 31  1  0  0  0
 17 18  1  0  0  0
 17 93  1  0  0  0
 18 19  2  0  0  0
 18 94  1  0  0  0
 19 20  1  0  0  0
 19 24  1  0  0  0
 20 21  2  0  0  0
 20 95  1  0  0  0
 21 23  1  0  0  0
 22 28  1  0  0  0
 22 32  2  0  0  0
 26 27  1  0  0  0
 28 96  1  0  0  0
 28 97  1  0  0  0
 29 98  1  0  0  0
 29 99  1  0  0  0
 33 34  1  0  0  0
 33 66  1  0  0  0
 33 70  2  0  0  0
 34 36  1  0  0  0
 34 59  1  0  0  0
 34100  1  0  0  0
 35 44  2  0  0  0
 35 45  1  0  0  0
 35 68  1  0  0  0
 36 56  1  0  0  0
 36101  1  0  0  0
 37 39  1  0  0  0
 37 47  1  0  0  0
 37 66  1  0  0  0
 37102  1  0  0  0
 38 43  2  0  0  0
 38 46  1  0  0  0
 38 47  1  0  0  0
 39 64  1  0  0  0
 39 67  2  0  0  0
 40 52  1  0  0  0
 40 53  2  0  0  0
 40 58  1  0  0  0
 41103  1  0  0  0
 41104  1  0  0  0
 41105  1  0  0  0
 41 48  1  0  0  0
 42 43  1  0  0  0
 42 66  1  0  0  0
 42106  1  0  0  0
 42107  1  0  0  0
 43 44  1  0  0  0
 44108  1  0  0  0
 45 46  2  0  0  0
 45109  1  0  0  0
 46110  1  0  0  0
 47111  1  0  0  0
 47112  1  0  0  0
 48 56  1  0  0  0
 48 65  1  0  0  0
 48113  1  0  0  0
 49 50  1  0  0  0
 49 53  1  0  0  0
 49 64  1  0  0  0
 49114  1  0  0  0
 50 51  1  0  0  0
 50115  1  0  0  0
 50116  1  0  0  0
 51 52  1  0  0  0
 51117  1  0  0  0
 51118  1  0  0  0
 52119  1  0  0  0
 52120  1  0  0  0
 53 54  1  0  0  0
 54 55  2  0  0  0
 54121  1  0  0  0
 55 57  1  0  0  0
 55122  1  0  0  0
 56 69  2  0  0  0
 57 58  2  0  0  0
 57123  1  0  0  0
 58124  1  0  0  0
 59 60  1  0  0  0
 59 61  1  0  0  0
 59 62  1  0  0  0
 60125  1  0  0  0
 60126  1  0  0  0
 60127  1  0  0  0
 61128  1  0  0  0
 61129  1  0  0  0
 61130  1  0  0  0
 62131  1  0  0  0
 62132  1  0  0  0
 62133  1  0  0  0
 63 65  1  0  0  0
 63134  1  0  0  0
 63135  1  0  0  0
 63136  1  0  0  0
 64137  1  0  0  0
 65138  1  0  0  0
 68 76  1  0  0  0
 71 76  1  0  0  0
 71 78  2  0  0  0
 71 79  1  0  0  0
 72139  1  0  0  0
 72140  1  0  0  0
 72141  1  0  0  0
 72 76  1  0  0  0
 73 74  1  0  0  0
 73 75  1  0  0  0
 73142  1  0  0  0
 73143  1  0  0  0
 74 77  1  0  0  0
 74144  1  0  0  0
 74145  1  0  0  0
 75 79  1  0  0  0
 75146  1  0  0  0
 75147  1  0  0  0
 76148  1  0  0  0
 77149  1  0  0  0
M  ISO  4   1 100  68 101  76 101  77 100
M  END
> <chiral flag>
0

> <version>
0

> <s_m_source_file>
/data/baiqing/PycharmProjects/Reinvent-master-3.2/result/LINK_invent/BTK/process_docking_weight1_custom_sum_contain_oxygen_bond_distance_aromatic_linkinvent_7_9_3/rearranged_h_0113.sdf

> <i_m_source_file_index>
44

> <r_mmod_Potential_Energy-OPLS-2005>
500.238433837891

> <r_mmod_Stretch_Energy-OPLS-2005>
302.312225341797

> <r_mmod_Bend_Energy-OPLS-2005>
250.75358581543

> <r_mmod_Torsional_Energy-OPLS-2005>
203.199371337891

> <r_mmod_Improper_Torsional_Energy-OPLS-2005>
4.53090953826904

> <r_mmod_Van_der_Waal_Energy-OPLS-2005>
113.918823242188

> <r_mmod_Electrostatic_Energy-OPLS-2005>
-347.137451171875

> <r_mmod_Solvation_Energy-OPLS-2005>
-227.921020507812

> <b_mmod_Minimization_Converged-OPLS-2005>
0

> <r_mmod_RMS_Derivative-OPLS-2005>
1.71451234817505

$$$$
45
                    3D
 Structure written by MMmdl.
174182  0  0  1  0            999 V2000
  -30.6528  -14.6216   20.5376 C   0  0  0  0  0  0
  -30.4302  -12.3957   19.4478 C   0  0  0  0  0  0
  -29.5040  -12.5065   18.2186 C   0  0  0  0  0  0
  -28.0278  -12.3436   18.6311 C   0  0  0  0  0  0
  -27.6481  -13.2185   19.8573 C   0  0  2  0  0  0
  -28.6911  -13.0873   20.9890 C   0  0  0  0  0  0
  -25.2528  -13.8161   20.5693 C   0  0  0  0  0  0
  -24.1807  -13.0431   20.9217 C   0  0  0  0  0  0
  -24.6386  -11.6904   20.8744 C   0  0  0  0  0  0
  -23.9062  -10.4286   21.0400 C   0  0  0  0  0  0
  -24.3618   -9.4199   21.9176 C   0  0  0  0  0  0
  -23.6290   -8.2236   22.0754 C   0  0  0  0  0  0
  -22.4271   -8.0279   21.3548 C   0  0  0  0  0  0
  -21.9910   -9.0249   20.4645 C   0  0  0  0  0  0
  -22.7236  -10.2123   20.3050 C   0  0  0  0  0  0
  -21.6850   -6.0725   22.5280 C   0  0  0  0  0  0
  -21.4008   -6.5630   23.8210 C   0  0  0  0  0  0
  -21.3663   -5.6783   24.9177 C   0  0  0  0  0  0
  -21.6050   -4.3048   24.7224 C   0  0  0  0  0  0
  -21.8817   -3.8140   23.4345 C   0  0  0  0  0  0
  -21.9193   -4.6957   22.3401 C   0  0  0  0  0  0
  -22.7836  -13.5231   21.1874 C   0  0  0  0  0  0
  -22.1660   -4.2145   21.0977 F   0  0  0  0  0  0
  -21.5634   -3.4531   25.7732 F   0  0  0  0  0  0
  -30.0034  -13.4237   20.4191 N   0  0  0  0  0  0
  -26.2952  -12.9358   20.3283 N   0  0  0  0  0  0
  -25.9307  -11.6514   20.5729 N   0  0  0  0  0  0
  -22.0474  -12.8214   22.0419 N   0  0  0  0  0  0
  -25.4224  -15.1883   20.4081 N   0  0  0  0  0  0
  -31.8213  -14.7568   20.1647 O   0  0  0  0  0  0
  -21.6648   -6.8868   21.4241 O   0  0  0  0  0  0
  -22.3525  -14.5542   20.6723 O   0  0  0  0  0  0
  -24.6256  -31.8576   23.1996 C   0  0  0  0  0  0
  -25.9101  -32.4763   23.8350 C   0  0  1  0  0  0
  -27.2354  -27.3299   20.1347 C   0  0  0  0  0  0
  -25.5921  -33.8568   24.2280 N   0  0  0  0  0  0
  -23.4206  -30.4763   21.5419 C   0  0  2  0  0  0
  -24.8687  -28.9223   20.1202 C   0  0  0  0  0  0
  -22.7463  -29.4617   22.4942 C   0  0  0  0  0  0
  -18.0279  -28.1409   22.8482 C   0  0  0  0  0  0
  -24.1495  -36.7287   23.2644 C   0  0  0  0  0  0
  -25.9569  -30.7959   21.3632 C   0  0  0  0  0  0
  -26.0326  -29.4172   20.7220 C   0  0  0  0  0  0
  -27.2211  -28.6325   20.7154 C   0  0  0  0  0  0
  -26.0530  -26.8722   19.5216 C   0  0  0  0  0  0
  -24.8788  -27.6540   19.5142 C   0  0  0  0  0  0
  -23.6349  -29.8007   20.1608 C   0  0  0  0  0  0
  -25.4119  -36.3067   24.0322 C   0  0  1  0  0  0
  -20.5877  -28.3700   23.1290 C   0  0  2  0  0  0
  -20.6774  -26.9425   22.5417 C   0  0  0  0  0  0
  -19.5757  -26.6400   21.5224 C   0  0  0  0  0  0
  -18.1928  -26.7958   22.1619 C   0  0  0  0  0  0
  -19.1532  -28.8869   23.2888 C   0  0  0  0  0  0
  -18.9454  -30.1472   23.8904 C   0  0  0  0  0  0
  -17.6451  -30.6605   24.0576 C   0  0  0  0  0  0
  -25.9061  -34.9441   23.5104 C   0  0  0  0  0  0
  -16.5345  -29.9098   23.6337 C   0  0  0  0  0  0
  -16.7269  -28.6525   23.0345 C   0  0  0  0  0  0
  -26.4508  -31.6556   25.0692 C   0  0  0  0  0  0
  -25.3742  -31.3646   26.1417 C   0  0  0  0  0  0
  -27.0352  -30.2991   24.6103 C   0  0  0  0  0  0
  -27.6101  -32.4258   25.7448 C   0  0  0  0  0  0
  -27.5576  -37.1790   24.8466 C   0  0  0  0  0  0
  -21.4174  -29.3045   22.3677 N   0  0  0  0  0  0
  -26.4292  -37.3756   23.9403 N   0  0  0  0  0  0
  -24.6875  -31.0609   22.0930 N   0  0  0  0  0  0
  -23.4174  -28.8171   23.3045 O   0  0  0  0  0  0
  -28.3899  -26.5477   20.0771 O   0  0  0  0  0  0
  -26.5635  -34.8901   22.4672 O   0  0  0  0  0  0
  -23.5409  -32.1351   23.7319 O   0  0  0  0  0  0
  -30.9173  -19.5824   21.3474 C   0  0  0  0  0  0
  -28.4981  -20.2254   20.0728 C   0  0  0  0  0  0
  -29.3837  -21.4003   20.6545 C   0  0  2  0  0  0
  -30.1270  -18.4186   20.6855 C   0  0  1  0  0  0
  -26.7891  -23.2974   20.6671 C   0  0  0  0  0  0
  -33.9124  -23.0184   21.7783 C   0  0  0  0  0  0
  -33.4926  -21.8108   19.6005 C   0  0  0  0  0  0
  -29.1922  -22.7680   19.8084 C   0  0  0  0  0  0
  -30.4492  -17.0316   21.4242 C   0  0  0  0  0  0
  -31.6845  -21.8757   21.4366 C   0  0  0  0  0  0
  -28.4665  -25.2572   20.7858 C   0  0  0  0  0  0
  -28.0734  -23.8892   20.0656 C   0  0  2  0  0  0
  -33.2069  -21.8278   21.1125 C   0  0  0  0  0  0
  -30.8051  -20.9292   20.7088 N   0  0  0  0  0  0
  -29.9206  -15.7040   20.9498 N   0  0  0  0  0  0
  -28.7117  -18.8735   20.7037 N   0  3  0  0  0  0
  -33.8020  -20.6811   21.6839 O   0  0  0  0  0  0
  -31.4733  -12.5140   19.1474 H   0  0  0  0  0  0
  -30.3602  -11.4012   19.8904 H   0  0  0  0  0  0
  -29.7725  -11.7514   17.4783 H   0  0  0  0  0  0
  -29.6498  -13.4736   17.7343 H   0  0  0  0  0  0
  -27.8684  -11.2906   18.8657 H   0  0  0  0  0  0
  -27.3727  -12.5672   17.7877 H   0  0  0  0  0  0
  -27.6631  -14.2532   19.5140 H   0  0  0  0  0  0
  -28.7012  -12.0721   21.3867 H   0  0  0  0  0  0
  -28.4348  -13.7328   21.8308 H   0  0  0  0  0  0
  -25.2760   -9.5687   22.4755 H   0  0  0  0  0  0
  -24.0007   -7.4627   22.7463 H   0  0  0  0  0  0
  -21.0853   -8.8752   19.8932 H   0  0  0  0  0  0
  -22.3693  -10.9665   19.6154 H   0  0  0  0  0  0
  -21.1987   -7.6133   23.9717 H   0  0  0  0  0  0
  -21.1498   -6.0511   25.9081 H   0  0  0  0  0  0
  -22.0597   -2.7606   23.2848 H   0  0  0  0  0  0
  -22.4073  -11.9861   22.4809 H   0  0  0  0  0  0
  -21.1079  -13.1218   22.2591 H   0  0  0  0  0  0
  -24.6465  -15.8343   20.5042 H   0  0  0  0  0  0
  -26.2481  -15.6190   20.0162 H   0  0  0  0  0  0
  -26.7182  -32.5444   23.1113 H   0  0  0  0  0  0
  -25.0075  -33.9743   25.0421 H   0  0  0  0  0  0
  -22.7166  -31.2966   21.3923 H   0  0  0  0  0  0
  -23.3754  -35.9630   23.3310 H   0  0  0  0  0  0
  -24.3596  -36.8903   22.2062 H   0  0  0  0  0  0
  -23.7261  -37.6491   23.6670 H   0  0  0  0  0  0
  -26.0747  -31.5500   20.5830 H   0  0  0  0  0  0
  -26.8457  -30.8593   21.9799 H   0  0  0  0  0  0
  -28.1238  -29.0160   21.1686 H   0  0  0  0  0  0
  -26.0387  -25.9052   19.0373 H   0  0  0  0  0  0
  -23.9868  -27.2722   19.0373 H   0  0  0  0  0  0
  -23.7481  -30.5708   19.3966 H   0  0  0  0  0  0
  -22.7572  -29.2205   19.8666 H   0  0  0  0  0  0
  -25.1302  -36.1930   25.0814 H   0  0  0  0  0  0
  -20.9974  -28.3295   24.1414 H   0  0  0  0  0  0
  -20.5705  -26.2310   23.3614 H   0  0  0  0  0  0
  -21.6635  -26.7478   22.1191 H   0  0  0  0  0  0
  -19.6919  -25.6319   21.1245 H   0  0  0  0  0  0
  -19.6710  -27.3219   20.6768 H   0  0  0  0  0  0
  -17.4200  -26.6714   21.4011 H   0  0  0  0  0  0
  -18.0316  -26.0111   22.9017 H   0  0  0  0  0  0
  -19.7934  -30.7290   24.2263 H   0  0  0  0  0  0
  -17.5009  -31.6286   24.5185 H   0  0  0  0  0  0
  -15.5349  -30.2997   23.7679 H   0  0  0  0  0  0
  -15.8669  -28.0856   22.7046 H   0  0  0  0  0  0
  -24.5978  -30.6938   25.7727 H   0  0  0  0  0  0
  -24.8857  -32.2774   26.4831 H   0  0  0  0  0  0
  -25.8072  -30.8836   27.0192 H   0  0  0  0  0  0
  -26.2898  -29.6717   24.1199 H   0  0  0  0  0  0
  -27.4170  -29.7272   25.4572 H   0  0  0  0  0  0
  -27.8712  -30.4325   23.9228 H   0  0  0  0  0  0
  -27.2797  -33.3603   26.1992 H   0  0  0  0  0  0
  -28.3923  -32.6723   25.0250 H   0  0  0  0  0  0
  -28.0754  -31.8370   26.5358 H   0  0  0  0  0  0
  -28.2586  -38.0096   24.7497 H   0  0  0  0  0  0
  -28.1068  -36.2606   24.6302 H   0  0  0  0  0  0
  -27.2276  -37.1455   25.8868 H   0  0  0  0  0  0
  -20.9356  -29.8718   21.6842 H   0  0  0  0  0  0
  -26.0165  -38.2828   24.1407 H   0  0  0  0  0  0
  -31.9556  -19.2644   21.3617 H   0  0  0  0  0  0
  -30.6260  -19.6531   22.3976 H   0  0  0  0  0  0
  -28.6812  -20.1243   19.0013 H   0  0  0  0  0  0
  -27.4429  -20.4757   20.1737 H   0  0  0  0  0  0
  -29.0616  -21.5956   21.6787 H   0  0  0  0  0  0
  -30.4458  -18.3336   19.6457 H   0  0  0  0  0  0
  -26.3691  -22.5243   20.0268 H   0  0  0  0  0  0
  -26.0195  -24.0607   20.7806 H   0  0  0  0  0  0
  -26.9704  -22.8660   21.6520 H   0  0  0  0  0  0
  -33.5714  -23.9639   21.3564 H   0  0  0  0  0  0
  -34.9955  -22.9793   21.6517 H   0  0  0  0  0  0
  -33.7085  -23.0568   22.8494 H   0  0  0  0  0  0
  -33.0840  -22.6967   19.1141 H   0  0  0  0  0  0
  -33.0561  -20.9370   19.1145 H   0  0  0  0  0  0
  -34.5629  -21.7954   19.3911 H   0  0  0  0  0  0
  -29.0326  -22.4385   18.7807 H   0  0  0  0  0  0
  -30.1328  -23.3042   19.7090 H   0  0  0  0  0  0
  -30.1407  -17.1265   22.4662 H   0  0  0  0  0  0
  -31.5360  -16.9444   21.4786 H   0  0  0  0  0  0
  -31.3725  -22.8999   21.2503 H   0  0  0  0  0  0
  -31.5425  -21.7597   22.5130 H   0  0  0  0  0  0
  -29.5055  -25.1677   21.1026 H   0  0  0  0  0  0
  -27.9138  -25.3490   21.7223 H   0  0  0  0  0  0
  -27.7955  -24.2174   19.0628 H   0  0  0  0  0  0
  -28.9564  -15.5033   21.1664 H   0  0  0  0  0  0
  -28.1474  -18.2006   20.2124 H   0  0  0  0  0  0
  -28.3877  -18.9118   21.6559 H   0  0  0  0  0  0
  -34.7179  -20.6688   21.4295 H   0  0  0  0  0  0
  1 25  1  0  0  0
  1 30  2  0  0  0
  1 85  1  0  0  0
  2  3  1  0  0  0
  2 25  1  0  0  0
  2 88  1  0  0  0
  2 89  1  0  0  0
  3  4  1  0  0  0
  3 90  1  0  0  0
  3 91  1  0  0  0
  4  5  1  0  0  0
  4 92  1  0  0  0
  4 93  1  0  0  0
  5  6  1  0  0  0
  5 26  1  0  0  0
  5 94  1  0  0  0
  6 25  1  0  0  0
  6 95  1  0  0  0
  6 96  1  0  0  0
  7  8  2  0  0  0
  7 26  1  0  0  0
  7 29  1  0  0  0
  8  9  1  0  0  0
  8 22  1  0  0  0
  9 10  1  0  0  0
  9 27  2  0  0  0
 10 11  2  0  0  0
 10 15  1  0  0  0
 11 12  1  0  0  0
 11 97  1  0  0  0
 12 13  2  0  0  0
 12 98  1  0  0  0
 13 14  1  0  0  0
 13 31  1  0  0  0
 14 15  2  0  0  0
 14 99  1  0  0  0
 15100  1  0  0  0
 16 17  2  0  0  0
 16 21  1  0  0  0
 16 31  1  0  0  0
 17 18  1  0  0  0
 17101  1  0  0  0
 18 19  2  0  0  0
 18102  1  0  0  0
 19 20  1  0  0  0
 19 24  1  0  0  0
 20 21  2  0  0  0
 20103  1  0  0  0
 21 23  1  0  0  0
 22 28  1  0  0  0
 22 32  2  0  0  0
 26 27  1  0  0  0
 28104  1  0  0  0
 28105  1  0  0  0
 29106  1  0  0  0
 29107  1  0  0  0
 33 34  1  0  0  0
 33 66  1  0  0  0
 33 70  2  0  0  0
 34 36  1  0  0  0
 34 59  1  0  0  0
 34108  1  0  0  0
 35 44  2  0  0  0
 35 45  1  0  0  0
 35 68  1  0  0  0
 36 56  1  0  0  0
 36109  1  0  0  0
 37 39  1  0  0  0
 37 47  1  0  0  0
 37 66  1  0  0  0
 37110  1  0  0  0
 38 43  2  0  0  0
 38 46  1  0  0  0
 38 47  1  0  0  0
 39 64  1  0  0  0
 39 67  2  0  0  0
 40 52  1  0  0  0
 40 53  2  0  0  0
 40 58  1  0  0  0
 41111  1  0  0  0
 41112  1  0  0  0
 41113  1  0  0  0
 41 48  1  0  0  0
 42 43  1  0  0  0
 42 66  1  0  0  0
 42114  1  0  0  0
 42115  1  0  0  0
 43 44  1  0  0  0
 44116  1  0  0  0
 45 46  2  0  0  0
 45117  1  0  0  0
 46118  1  0  0  0
 47119  1  0  0  0
 47120  1  0  0  0
 48 56  1  0  0  0
 48 65  1  0  0  0
 48121  1  0  0  0
 49 50  1  0  0  0
 49 53  1  0  0  0
 49 64  1  0  0  0
 49122  1  0  0  0
 50 51  1  0  0  0
 50123  1  0  0  0
 50124  1  0  0  0
 51 52  1  0  0  0
 51125  1  0  0  0
 51126  1  0  0  0
 52127  1  0  0  0
 52128  1  0  0  0
 53 54  1  0  0  0
 54 55  2  0  0  0
 54129  1  0  0  0
 55 57  1  0  0  0
 55130  1  0  0  0
 56 69  2  0  0  0
 57 58  2  0  0  0
 57131  1  0  0  0
 58132  1  0  0  0
 59 60  1  0  0  0
 59 61  1  0  0  0
 59 62  1  0  0  0
 60133  1  0  0  0
 60134  1  0  0  0
 60135  1  0  0  0
 61136  1  0  0  0
 61137  1  0  0  0
 61138  1  0  0  0
 62139  1  0  0  0
 62140  1  0  0  0
 62141  1  0  0  0
 63 65  1  0  0  0
 63142  1  0  0  0
 63143  1  0  0  0
 63144  1  0  0  0
 64145  1  0  0  0
 65146  1  0  0  0
 68 81  1  0  0  0
 71 74  1  0  0  0
 71 84  1  0  0  0
 71147  1  0  0  0
 71148  1  0  0  0
 72 73  1  0  0  0
 72 86  1  0  0  0
 72149  1  0  0  0
 72150  1  0  0  0
 73 78  1  0  0  0
 73 84  1  0  0  0
 73151  1  0  0  0
 74 79  1  0  0  0
 74 86  1  0  0  0
 74152  1  0  0  0
 75153  1  0  0  0
 75154  1  0  0  0
 75155  1  0  0  0
 75 82  1  0  0  0
 76156  1  0  0  0
 76157  1  0  0  0
 76158  1  0  0  0
 76 83  1  0  0  0
 77 83  1  0  0  0
 77159  1  0  0  0
 77160  1  0  0  0
 77161  1  0  0  0
 78 82  1  0  0  0
 78162  1  0  0  0
 78163  1  0  0  0
 79 85  1  0  0  0
 79164  1  0  0  0
 79165  1  0  0  0
 80 83  1  0  0  0
 80 84  1  0  0  0
 80166  1  0  0  0
 80167  1  0  0  0
 81 82  1  0  0  0
 81168  1  0  0  0
 81169  1  0  0  0
 82170  1  0  0  0
 83 87  1  0  0  0
 85171  1  0  0  0
 86172  1  0  0  0
 86173  1  0  0  0
 87174  1  0  0  0
M  CHG  1  86   1
M  ISO  4   1 100  68 101  81 101  85 100
M  END
> <chiral flag>
0

> <version>
0

> <s_m_source_file>
/data/baiqing/PycharmProjects/Reinvent-master-3.2/result/LINK_invent/BTK/process_docking_weight1_custom_sum_contain_oxygen_bond_distance_aromatic_linkinvent_7_9_3/rearranged_h_0113.sdf

> <i_m_source_file_index>
45

> <r_mmod_Potential_Energy-OPLS-2005>
-24.51344871521

> <r_mmod_Stretch_Energy-OPLS-2005>
90.162109375

> <r_mmod_Bend_Energy-OPLS-2005>
176.696990966797

> <r_mmod_Torsional_Energy-OPLS-2005>
373.307281494141

> <r_mmod_Improper_Torsional_Energy-OPLS-2005>
4.02969408035278

> <r_mmod_Van_der_Waal_Energy-OPLS-2005>
131.970321655273

> <r_mmod_Electrostatic_Energy-OPLS-2005>
-361.197082519531

> <r_mmod_Solvation_Energy-OPLS-2005>
-479.411071777344

> <b_mmod_Minimization_Converged-OPLS-2005>
0

> <r_mmod_RMS_Derivative-OPLS-2005>
2.49723100662231

$$$$
46
                    3D
 Structure written by MMmdl.
169177  0  0  1  0            999 V2000
  -30.6405  -14.5198   20.4582 C   0  0  0  0  0  0
  -30.4174  -12.2940   19.4305 C   0  0  0  0  0  0
  -29.5030  -12.4949   18.2026 C   0  0  0  0  0  0
  -28.0223  -12.3402   18.6094 C   0  0  0  0  0  0
  -27.6540  -13.1960   19.8528 C   0  0  2  0  0  0
  -28.6928  -13.0151   20.9846 C   0  0  0  0  0  0
  -25.2559  -13.8091   20.5532 C   0  0  0  0  0  0
  -24.1855  -13.0416   20.9142 C   0  0  0  0  0  0
  -24.6390  -11.6888   20.8712 C   0  0  0  0  0  0
  -23.9038  -10.4284   21.0379 C   0  0  0  0  0  0
  -24.3599   -9.4209   21.9179 C   0  0  0  0  0  0
  -23.6281   -8.2240   22.0774 C   0  0  0  0  0  0
  -22.4254   -8.0264   21.3558 C   0  0  0  0  0  0
  -21.9866   -9.0234   20.4667 C   0  0  0  0  0  0
  -22.7186  -10.2122   20.3047 C   0  0  0  0  0  0
  -21.6875   -6.0708   22.5288 C   0  0  0  0  0  0
  -21.4039   -6.5624   23.8208 C   0  0  0  0  0  0
  -21.3660   -5.6791   24.9182 C   0  0  0  0  0  0
  -21.6022   -4.3052   24.7246 C   0  0  0  0  0  0
  -21.8819   -3.8130   23.4383 C   0  0  0  0  0  0
  -21.9203   -4.6938   22.3424 C   0  0  0  0  0  0
  -22.7892  -13.5238   21.1863 C   0  0  0  0  0  0
  -22.1665   -4.2116   21.1005 F   0  0  0  0  0  0
  -21.5617   -3.4539   25.7770 F   0  0  0  0  0  0
  -30.0228  -13.3063   20.4237 N   0  0  0  0  0  0
  -26.2980  -12.9259   20.3188 N   0  0  0  0  0  0
  -25.9321  -11.6439   20.5718 N   0  0  0  0  0  0
  -22.0536  -12.8238   22.0424 N   0  0  0  0  0  0
  -25.4199  -15.1805   20.3823 N   0  0  0  0  0  0
  -31.8130  -14.6860   20.1187 O   0  0  0  0  0  0
  -21.6641   -6.8856   21.4247 O   0  0  0  0  0  0
  -22.3601  -14.5545   20.6693 O   0  0  0  0  0  0
  -24.6164  -31.8608   23.2027 C   0  0  0  0  0  0
  -25.9009  -32.4789   23.8364 C   0  0  1  0  0  0
  -27.2623  -27.3807   20.1160 C   0  0  0  0  0  0
  -25.5847  -33.8597   24.2288 N   0  0  0  0  0  0
  -23.4120  -30.4814   21.5360 C   0  0  2  0  0  0
  -24.8717  -28.9371   20.1052 C   0  0  0  0  0  0
  -22.7398  -29.4668   22.4913 C   0  0  0  0  0  0
  -18.0240  -28.1380   22.8485 C   0  0  0  0  0  0
  -24.1488  -36.7297   23.2641 C   0  0  0  0  0  0
  -25.9443  -30.8141   21.3605 C   0  0  0  0  0  0
  -26.0275  -29.4403   20.7145 C   0  0  0  0  0  0
  -27.2168  -28.6705   20.7188 C   0  0  0  0  0  0
  -26.0900  -26.9082   19.4892 C   0  0  0  0  0  0
  -24.9014  -27.6745   19.4874 C   0  0  0  0  0  0
  -23.6280  -29.8032   20.1547 C   0  0  0  0  0  0
  -25.4109  -36.3094   24.0336 C   0  0  1  0  0  0
  -20.5846  -28.3641   23.1234 C   0  0  2  0  0  0
  -20.6681  -26.9362   22.5360 C   0  0  0  0  0  0
  -19.5650  -26.6368   21.5182 C   0  0  0  0  0  0
  -18.1836  -26.7952   22.1583 C   0  0  0  0  0  0
  -19.1524  -28.8833   23.2871 C   0  0  0  0  0  0
  -18.9500  -30.1448   23.8851 C   0  0  0  0  0  0
  -17.6523  -30.6604   24.0509 C   0  0  0  0  0  0
  -25.9055  -34.9465   23.5128 C   0  0  0  0  0  0
  -16.5380  -29.9068   23.6411 C   0  0  0  0  0  0
  -16.7246  -28.6478   23.0439 C   0  0  0  0  0  0
  -26.4450  -31.6582   25.0697 C   0  0  0  0  0  0
  -25.3704  -31.3684   26.1434 C   0  0  0  0  0  0
  -27.0271  -30.3010   24.6087 C   0  0  0  0  0  0
  -27.6062  -32.4295   25.7442 C   0  0  0  0  0  0
  -27.5591  -37.1800   24.8478 C   0  0  0  0  0  0
  -21.4127  -29.2984   22.3607 N   0  0  0  0  0  0
  -26.4297  -37.3781   23.9425 N   0  0  0  0  0  0
  -24.6748  -31.0682   22.0902 N   0  0  0  0  0  0
  -23.4133  -28.8298   23.3045 O   0  0  0  0  0  0
  -28.4306  -26.6235   20.2111 O   0  0  0  0  0  0
  -26.5649  -34.8932   22.4709 O   0  0  0  0  0  0
  -23.5327  -32.1374   23.7364 O   0  0  0  0  0  0
  -28.6948  -19.4644   22.8614 C   0  0  0  0  0  0
  -28.9760  -20.6604   22.1714 C   0  0  0  0  0  0
  -28.9207  -18.1984   22.2584 C   0  0  0  0  0  0
  -29.5276  -18.2041   20.9633 C   0  0  0  0  0  0
  -29.5197  -20.5892   20.8822 C   0  0  0  0  0  0
  -26.4702  -15.7275   24.1064 C   0  0  0  0  0  0
  -27.8508  -23.1921   18.6716 C   0  0  0  0  0  0
  -29.9521  -16.9538   20.1275 C   0  0  0  0  0  0
  -27.1057  -17.0802   23.7451 C   0  0  0  0  0  0
  -29.6870  -23.1753   20.4520 C   0  0  0  0  0  0
  -28.7111  -25.4699   19.3662 C   0  0  0  0  0  0
  -28.4535  -16.9273   23.0017 C   0  0  2  0  0  0
  -28.4507  -23.9735   19.8536 C   0  0  1  0  0  0
  -29.8035  -19.3849   20.3233 N   0  0  0  0  0  0
  -29.8168  -21.7290   20.0966 N   0  0  0  0  0  0
  -29.7936  -15.5621   20.6308 N   0  0  0  0  0  0
  -29.4950  -16.3712   23.8932 N   0  3  0  0  0  0
  -31.4712  -12.3660   19.1519 H   0  0  0  0  0  0
  -30.2867  -11.2920   19.8413 H   0  0  0  0  0  0
  -29.7638  -11.7808   17.4208 H   0  0  0  0  0  0
  -29.6570  -13.4898   17.7775 H   0  0  0  0  0  0
  -27.8510  -11.2860   18.8241 H   0  0  0  0  0  0
  -27.3676  -12.5813   17.7698 H   0  0  0  0  0  0
  -27.6838  -14.2354   19.5245 H   0  0  0  0  0  0
  -28.6645  -11.9933   21.3707 H   0  0  0  0  0  0
  -28.4602  -13.6544   21.8380 H   0  0  0  0  0  0
  -25.2782   -9.5702   22.4711 H   0  0  0  0  0  0
  -24.0010   -7.4671   22.7522 H   0  0  0  0  0  0
  -21.0773   -8.8732   19.9019 H   0  0  0  0  0  0
  -22.3630  -10.9634   19.6130 H   0  0  0  0  0  0
  -21.2031   -7.6150   23.9705 H   0  0  0  0  0  0
  -21.1481   -6.0537   25.9079 H   0  0  0  0  0  0
  -22.0591   -2.7599   23.2896 H   0  0  0  0  0  0
  -22.4164  -11.9897   22.4764 H   0  0  0  0  0  0
  -21.1183  -13.1302   22.2658 H   0  0  0  0  0  0
  -24.5998  -15.7791   20.4105 H   0  0  0  0  0  0
  -26.2095  -15.6198   19.9324 H   0  0  0  0  0  0
  -26.7070  -32.5495   23.1128 H   0  0  0  0  0  0
  -24.9931  -33.9765   25.0382 H   0  0  0  0  0  0
  -22.7016  -31.2971   21.3860 H   0  0  0  0  0  0
  -23.3752  -35.9634   23.3317 H   0  0  0  0  0  0
  -24.3593  -36.8906   22.2064 H   0  0  0  0  0  0
  -23.7252  -37.6507   23.6651 H   0  0  0  0  0  0
  -26.0568  -31.5714   20.5816 H   0  0  0  0  0  0
  -26.8307  -30.8795   21.9796 H   0  0  0  0  0  0
  -28.1059  -29.0581   21.1980 H   0  0  0  0  0  0
  -26.0758  -25.9358   19.0176 H   0  0  0  0  0  0
  -24.0149  -27.2810   19.0084 H   0  0  0  0  0  0
  -23.7240  -30.5720   19.3893 H   0  0  0  0  0  0
  -22.7569  -29.2111   19.8702 H   0  0  0  0  0  0
  -25.1278  -36.1971   25.0827 H   0  0  0  0  0  0
  -20.9981  -28.3136   24.1328 H   0  0  0  0  0  0
  -20.5614  -26.2217   23.3535 H   0  0  0  0  0  0
  -21.6507  -26.7343   22.1111 H   0  0  0  0  0  0
  -19.6755  -25.6275   21.1167 H   0  0  0  0  0  0
  -19.6552  -27.3215   20.6732 H   0  0  0  0  0  0
  -17.4124  -26.6822   21.3916 H   0  0  0  0  0  0
  -18.0180  -26.0054   22.8946 H   0  0  0  0  0  0
  -19.8001  -30.7255   24.2155 H   0  0  0  0  0  0
  -17.5093  -31.6319   24.5046 H   0  0  0  0  0  0
  -15.5379  -30.2923   23.7814 H   0  0  0  0  0  0
  -15.8596  -28.0801   22.7265 H   0  0  0  0  0  0
  -24.5908  -30.6981   25.7762 H   0  0  0  0  0  0
  -24.8839  -32.2828   26.4854 H   0  0  0  0  0  0
  -25.8038  -30.8893   27.0218 H   0  0  0  0  0  0
  -26.2820  -29.6792   24.1095 H   0  0  0  0  0  0
  -27.3978  -29.7225   25.4564 H   0  0  0  0  0  0
  -27.8684  -30.4311   23.9271 H   0  0  0  0  0  0
  -27.2708  -33.3599   26.2036 H   0  0  0  0  0  0
  -28.3840  -32.6833   25.0222 H   0  0  0  0  0  0
  -28.0728  -31.8382   26.5337 H   0  0  0  0  0  0
  -28.2603  -38.0093   24.7490 H   0  0  0  0  0  0
  -28.1076  -36.2623   24.6313 H   0  0  0  0  0  0
  -27.2313  -37.1471   25.8879 H   0  0  0  0  0  0
  -20.9304  -29.8362   21.6550 H   0  0  0  0  0  0
  -26.0182  -38.2861   24.1398 H   0  0  0  0  0  0
  -28.2890  -19.5323   23.8623 H   0  0  0  0  0  0
  -28.7666  -21.6119   22.6385 H   0  0  0  0  0  0
  -25.5017  -15.8717   24.5793 H   0  0  0  0  0  0
  -27.0809  -15.1795   24.8185 H   0  0  0  0  0  0
  -26.3167  -15.0921   23.2295 H   0  0  0  0  0  0
  -27.5765  -22.1732   18.9511 H   0  0  0  0  0  0
  -28.5617  -23.1347   17.8433 H   0  0  0  0  0  0
  -26.9476  -23.6733   18.2980 H   0  0  0  0  0  0
  -30.9868  -17.1149   19.8218 H   0  0  0  0  0  0
  -29.3688  -17.0088   19.2055 H   0  0  0  0  0  0
  -27.2229  -17.6858   24.6457 H   0  0  0  0  0  0
  -26.3885  -17.5994   23.1046 H   0  0  0  0  0  0
  -29.7417  -23.3209   21.5313 H   0  0  0  0  0  0
  -30.5944  -23.6383   20.0631 H   0  0  0  0  0  0
  -28.2250  -25.6408   18.4036 H   0  0  0  0  0  0
  -29.7671  -25.5616   19.1179 H   0  0  0  0  0  0
  -28.2114  -16.1935   22.2461 H   0  0  0  0  0  0
  -27.6837  -24.0097   20.6305 H   0  0  0  0  0  0
  -30.2520  -21.5357   19.1993 H   0  0  0  0  0  0
  -28.8437  -15.2636   20.7865 H   0  0  0  0  0  0
  -29.2097  -15.4830   24.2711 H   0  0  0  0  0  0
  -29.6716  -16.9723   24.6790 H   0  0  0  0  0  0
  -30.3612  -16.2256   23.4043 H   0  0  0  0  0  0
  1 25  1  0  0  0
  1 30  2  0  0  0
  1 86  1  0  0  0
  2  3  1  0  0  0
  2 25  1  0  0  0
  2 88  1  0  0  0
  2 89  1  0  0  0
  3  4  1  0  0  0
  3 90  1  0  0  0
  3 91  1  0  0  0
  4  5  1  0  0  0
  4 92  1  0  0  0
  4 93  1  0  0  0
  5  6  1  0  0  0
  5 26  1  0  0  0
  5 94  1  0  0  0
  6 25  1  0  0  0
  6 95  1  0  0  0
  6 96  1  0  0  0
  7  8  2  0  0  0
  7 26  1  0  0  0
  7 29  1  0  0  0
  8  9  1  0  0  0
  8 22  1  0  0  0
  9 10  1  0  0  0
  9 27  2  0  0  0
 10 11  2  0  0  0
 10 15  1  0  0  0
 11 12  1  0  0  0
 11 97  1  0  0  0
 12 13  2  0  0  0
 12 98  1  0  0  0
 13 14  1  0  0  0
 13 31  1  0  0  0
 14 15  2  0  0  0
 14 99  1  0  0  0
 15100  1  0  0  0
 16 17  2  0  0  0
 16 21  1  0  0  0
 16 31  1  0  0  0
 17 18  1  0  0  0
 17101  1  0  0  0
 18 19  2  0  0  0
 18102  1  0  0  0
 19 20  1  0  0  0
 19 24  1  0  0  0
 20 21  2  0  0  0
 20103  1  0  0  0
 21 23  1  0  0  0
 22 28  1  0  0  0
 22 32  2  0  0  0
 26 27  1  0  0  0
 28104  1  0  0  0
 28105  1  0  0  0
 29106  1  0  0  0
 29107  1  0  0  0
 33 34  1  0  0  0
 33 66  1  0  0  0
 33 70  2  0  0  0
 34 36  1  0  0  0
 34 59  1  0  0  0
 34108  1  0  0  0
 35 44  2  0  0  0
 35 45  1  0  0  0
 35 68  1  0  0  0
 36 56  1  0  0  0
 36109  1  0  0  0
 37 39  1  0  0  0
 37 47  1  0  0  0
 37 66  1  0  0  0
 37110  1  0  0  0
 38 43  2  0  0  0
 38 46  1  0  0  0
 38 47  1  0  0  0
 39 64  1  0  0  0
 39 67  2  0  0  0
 40 52  1  0  0  0
 40 53  2  0  0  0
 40 58  1  0  0  0
 41111  1  0  0  0
 41112  1  0  0  0
 41113  1  0  0  0
 41 48  1  0  0  0
 42 43  1  0  0  0
 42 66  1  0  0  0
 42114  1  0  0  0
 42115  1  0  0  0
 43 44  1  0  0  0
 44116  1  0  0  0
 45 46  2  0  0  0
 45117  1  0  0  0
 46118  1  0  0  0
 47119  1  0  0  0
 47120  1  0  0  0
 48 56  1  0  0  0
 48 65  1  0  0  0
 48121  1  0  0  0
 49 50  1  0  0  0
 49 53  1  0  0  0
 49 64  1  0  0  0
 49122  1  0  0  0
 50 51  1  0  0  0
 50123  1  0  0  0
 50124  1  0  0  0
 51 52  1  0  0  0
 51125  1  0  0  0
 51126  1  0  0  0
 52127  1  0  0  0
 52128  1  0  0  0
 53 54  1  0  0  0
 54 55  2  0  0  0
 54129  1  0  0  0
 55 57  1  0  0  0
 55130  1  0  0  0
 56 69  2  0  0  0
 57 58  2  0  0  0
 57131  1  0  0  0
 58132  1  0  0  0
 59 60  1  0  0  0
 59 61  1  0  0  0
 59 62  1  0  0  0
 60133  1  0  0  0
 60134  1  0  0  0
 60135  1  0  0  0
 61136  1  0  0  0
 61137  1  0  0  0
 61138  1  0  0  0
 62139  1  0  0  0
 62140  1  0  0  0
 62141  1  0  0  0
 63 65  1  0  0  0
 63142  1  0  0  0
 63143  1  0  0  0
 63144  1  0  0  0
 64145  1  0  0  0
 65146  1  0  0  0
 68 81  1  0  0  0
 71 72  2  0  0  0
 71 73  1  0  0  0
 71147  1  0  0  0
 72 75  1  0  0  0
 72148  1  0  0  0
 73 74  2  0  0  0
 73 82  1  0  0  0
 74 78  1  0  0  0
 74 84  1  0  0  0
 75 84  2  0  0  0
 75 85  1  0  0  0
 76 79  1  0  0  0
 76149  1  0  0  0
 76150  1  0  0  0
 76151  1  0  0  0
 77152  1  0  0  0
 77153  1  0  0  0
 77154  1  0  0  0
 77 83  1  0  0  0
 78 86  1  0  0  0
 78155  1  0  0  0
 78156  1  0  0  0
 79 82  1  0  0  0
 79157  1  0  0  0
 79158  1  0  0  0
 80 83  1  0  0  0
 80 85  1  0  0  0
 80159  1  0  0  0
 80160  1  0  0  0
 81 83  1  0  0  0
 81161  1  0  0  0
 81162  1  0  0  0
 82 87  1  0  0  0
 82163  1  0  0  0
 83164  1  0  0  0
 85165  1  0  0  0
 86166  1  0  0  0
 87167  1  0  0  0
 87168  1  0  0  0
 87169  1  0  0  0
M  CHG  1  87   1
M  ISO  4   1 100  68 101  81 101  86 100
M  END
> <chiral flag>
0

> <version>
0

> <s_m_source_file>
/data/baiqing/PycharmProjects/Reinvent-master-3.2/result/LINK_invent/BTK/process_docking_weight1_custom_sum_contain_oxygen_bond_distance_aromatic_linkinvent_7_9_3/rearranged_h_0113.sdf

> <i_m_source_file_index>
46

> <r_mmod_Potential_Energy-OPLS-2005>
-487.455932617188

> <r_mmod_Stretch_Energy-OPLS-2005>
65.1341781616211

> <r_mmod_Bend_Energy-OPLS-2005>
177.226455688477

> <r_mmod_Torsional_Energy-OPLS-2005>
224.931106567383

> <r_mmod_Improper_Torsional_Energy-OPLS-2005>
9.36368656158447

> <r_mmod_Van_der_Waal_Energy-OPLS-2005>
149.411224365234

> <r_mmod_Electrostatic_Energy-OPLS-2005>
-632.125793457031

> <r_mmod_Solvation_Energy-OPLS-2005>
-508.315765380859

> <b_mmod_Minimization_Converged-OPLS-2005>
0

> <r_mmod_RMS_Derivative-OPLS-2005>
6.67252731323242

$$$$
47
                    3D
 Structure written by MMmdl.
161168  0  0  1  0            999 V2000
  -30.6374  -14.6610   20.5051 C   0  0  0  0  0  0
  -30.4400  -12.4085   19.4570 C   0  0  0  0  0  0
  -29.5119  -12.5041   18.2265 C   0  0  0  0  0  0
  -28.0324  -12.3494   18.6332 C   0  0  0  0  0  0
  -27.6512  -13.2246   19.8578 C   0  0  2  0  0  0
  -28.6979  -13.0989   20.9880 C   0  0  0  0  0  0
  -25.2549  -13.8202   20.5691 C   0  0  0  0  0  0
  -24.1831  -13.0450   20.9207 C   0  0  0  0  0  0
  -24.6413  -11.6924   20.8750 C   0  0  0  0  0  0
  -23.9085  -10.4299   21.0415 C   0  0  0  0  0  0
  -24.3629   -9.4199   21.9188 C   0  0  0  0  0  0
  -23.6299   -8.2239   22.0742 C   0  0  0  0  0  0
  -22.4281   -8.0292   21.3536 C   0  0  0  0  0  0
  -21.9929   -9.0267   20.4638 C   0  0  0  0  0  0
  -22.7261  -10.2145   20.3051 C   0  0  0  0  0  0
  -21.6854   -6.0746   22.5288 C   0  0  0  0  0  0
  -21.4018   -6.5639   23.8224 C   0  0  0  0  0  0
  -21.3654   -5.6777   24.9173 C   0  0  0  0  0  0
  -21.6038   -4.3041   24.7215 C   0  0  0  0  0  0
  -21.8816   -3.8149   23.4330 C   0  0  0  0  0  0
  -21.9184   -4.6974   22.3396 C   0  0  0  0  0  0
  -22.7841  -13.5246   21.1824 C   0  0  0  0  0  0
  -22.1655   -4.2163   21.0970 F   0  0  0  0  0  0
  -21.5613   -3.4520   25.7722 F   0  0  0  0  0  0
  -30.0066  -13.4447   20.4169 N   0  0  0  0  0  0
  -26.2982  -12.9397   20.3289 N   0  0  0  0  0  0
  -25.9350  -11.6543   20.5769 N   0  0  0  0  0  0
  -22.0438  -12.8276   22.0379 N   0  0  0  0  0  0
  -25.4246  -15.1928   20.4096 N   0  0  0  0  0  0
  -31.8100  -14.7924   20.1479 O   0  0  0  0  0  0
  -21.6617   -6.8903   21.4257 O   0  0  0  0  0  0
  -22.3535  -14.5532   20.6618 O   0  0  0  0  0  0
  -24.6253  -31.8573   23.2007 C   0  0  0  0  0  0
  -25.9100  -32.4762   23.8346 C   0  0  1  0  0  0
  -27.2258  -27.3167   20.1232 C   0  0  0  0  0  0
  -25.5894  -33.8552   24.2258 N   0  0  0  0  0  0
  -23.4192  -30.4826   21.5420 C   0  0  2  0  0  0
  -24.8702  -28.9355   20.1105 C   0  0  0  0  0  0
  -22.7474  -29.4617   22.4905 C   0  0  0  0  0  0
  -18.0277  -28.1409   22.8485 C   0  0  0  0  0  0
  -24.1484  -36.7307   23.2636 C   0  0  0  0  0  0
  -25.9622  -30.7900   21.3722 C   0  0  0  0  0  0
  -26.0383  -29.4172   20.7153 C   0  0  0  0  0  0
  -27.2233  -28.6200   20.7086 C   0  0  0  0  0  0
  -26.0382  -26.8885   19.4908 C   0  0  0  0  0  0
  -24.8719  -27.6776   19.4885 C   0  0  0  0  0  0
  -23.6352  -29.8141   20.1587 C   0  0  0  0  0  0
  -25.4105  -36.3068   24.0320 C   0  0  1  0  0  0
  -20.5881  -28.3695   23.1282 C   0  0  2  0  0  0
  -20.6763  -26.9413   22.5403 C   0  0  0  0  0  0
  -19.5737  -26.6398   21.5210 C   0  0  0  0  0  0
  -18.1920  -26.7948   22.1625 C   0  0  0  0  0  0
  -19.1537  -28.8866   23.2880 C   0  0  0  0  0  0
  -18.9455  -30.1474   23.8891 C   0  0  0  0  0  0
  -17.6458  -30.6599   24.0580 C   0  0  0  0  0  0
  -25.9041  -34.9432   23.5093 C   0  0  0  0  0  0
  -16.5346  -29.9107   23.6353 C   0  0  0  0  0  0
  -16.7267  -28.6531   23.0356 C   0  0  0  0  0  0
  -26.4485  -31.6575   25.0717 C   0  0  0  0  0  0
  -25.3721  -31.3728   26.1449 C   0  0  0  0  0  0
  -27.0322  -30.2988   24.6190 C   0  0  0  0  0  0
  -27.6039  -32.4308   25.7506 C   0  0  0  0  0  0
  -27.5579  -37.1813   24.8458 C   0  0  0  0  0  0
  -21.4175  -29.3051   22.3670 N   0  0  0  0  0  0
  -26.4280  -37.3773   23.9411 N   0  0  0  0  0  0
  -24.6877  -31.0599   22.0962 N   0  0  0  0  0  0
  -23.4202  -28.8144   23.2966 O   0  0  0  0  0  0
  -28.3316  -26.4514   20.1452 O   0  0  0  0  0  0
  -26.5636  -34.8902   22.4679 O   0  0  0  0  0  0
  -23.5418  -32.1356   23.7351 O   0  0  0  0  0  0
  -30.0689  -22.5743   22.2241 C   0  0  0  0  0  0
  -30.6111  -21.3021   19.2246 C   0  0  0  0  0  0
  -28.1487  -25.3102   22.2423 C   0  0  0  0  0  0
  -29.0754  -23.8859   20.2221 C   0  0  0  0  0  0
  -29.6969  -19.7579   21.0574 C   0  0  0  0  0  0
  -30.2719  -17.1985   21.0481 C   0  0  0  0  0  0
  -29.1196  -22.4706   21.0090 C   0  0  1  0  0  0
  -29.4348  -21.1020   20.1991 C   0  0  1  0  0  0
  -28.1284  -25.0937   20.7202 C   0  0  2  0  0  0
  -29.8664  -15.7501   20.8282 N   0  0  0  0  0  0
  -29.6260  -18.4012   20.3578 N   0  3  0  0  0  0
  -31.4816  -12.5300   19.1537 H   0  0  0  0  0  0
  -30.3799  -11.4185   19.9136 H   0  0  0  0  0  0
  -29.7823  -11.7449   17.4913 H   0  0  0  0  0  0
  -29.6532  -13.4682   17.7363 H   0  0  0  0  0  0
  -27.8620  -11.2987   18.8688 H   0  0  0  0  0  0
  -27.3845  -12.5764   17.7861 H   0  0  0  0  0  0
  -27.6620  -14.2565   19.5073 H   0  0  0  0  0  0
  -28.7178  -12.0806   21.3787 H   0  0  0  0  0  0
  -28.4444  -13.7384   21.8342 H   0  0  0  0  0  0
  -25.2778   -9.5650   22.4758 H   0  0  0  0  0  0
  -23.9983   -7.4626   22.7477 H   0  0  0  0  0  0
  -21.0846   -8.8820   19.8955 H   0  0  0  0  0  0
  -22.3753  -10.9684   19.6145 H   0  0  0  0  0  0
  -21.2033   -7.6153   23.9743 H   0  0  0  0  0  0
  -21.1471   -6.0494   25.9077 H   0  0  0  0  0  0
  -22.0605   -2.7617   23.2810 H   0  0  0  0  0  0
  -22.3999  -11.9973   22.4886 H   0  0  0  0  0  0
  -21.1054  -13.1339   22.2496 H   0  0  0  0  0  0
  -24.6543  -15.8461   20.5059 H   0  0  0  0  0  0
  -26.2596  -15.6208   20.0323 H   0  0  0  0  0  0
  -26.7170  -32.5437   23.1093 H   0  0  0  0  0  0
  -24.9978  -33.9688   25.0355 H   0  0  0  0  0  0
  -22.7110  -31.3017   21.3983 H   0  0  0  0  0  0
  -23.3722  -35.9670   23.3287 H   0  0  0  0  0  0
  -24.3568  -36.8938   22.2052 H   0  0  0  0  0  0
  -23.7258  -37.6508   23.6680 H   0  0  0  0  0  0
  -26.0907  -31.5526   20.6023 H   0  0  0  0  0  0
  -26.8420  -30.8408   22.0015 H   0  0  0  0  0  0
  -28.1218  -28.9839   21.1856 H   0  0  0  0  0  0
  -26.0039  -25.9265   19.0013 H   0  0  0  0  0  0
  -23.9785  -27.3035   19.0072 H   0  0  0  0  0  0
  -23.7504  -30.5866   19.3977 H   0  0  0  0  0  0
  -22.7571  -29.2384   19.8604 H   0  0  0  0  0  0
  -25.1285  -36.1917   25.0813 H   0  0  0  0  0  0
  -20.9982  -28.3274   24.1400 H   0  0  0  0  0  0
  -20.5653  -26.2300   23.3597 H   0  0  0  0  0  0
  -21.6639  -26.7438   22.1210 H   0  0  0  0  0  0
  -19.6878  -25.6305   21.1252 H   0  0  0  0  0  0
  -19.6691  -27.3198   20.6734 H   0  0  0  0  0  0
  -17.4186  -26.6691   21.4030 H   0  0  0  0  0  0
  -18.0324  -26.0096   22.9028 H   0  0  0  0  0  0
  -19.7927  -30.7308   24.2243 H   0  0  0  0  0  0
  -17.5011  -31.6278   24.5188 H   0  0  0  0  0  0
  -15.5348  -30.3015   23.7679 H   0  0  0  0  0  0
  -15.8662  -28.0866   22.7067 H   0  0  0  0  0  0
  -24.5891  -30.7065   25.7808 H   0  0  0  0  0  0
  -24.8907  -32.2896   26.4875 H   0  0  0  0  0  0
  -25.8041  -30.8924   27.0237 H   0  0  0  0  0  0
  -26.2904  -29.6738   24.1205 H   0  0  0  0  0  0
  -27.3974  -29.7247   25.4718 H   0  0  0  0  0  0
  -27.8797  -30.4237   23.9442 H   0  0  0  0  0  0
  -27.2648  -33.3600   26.2104 H   0  0  0  0  0  0
  -28.3869  -32.6874   25.0357 H   0  0  0  0  0  0
  -28.0698  -31.8410   26.5412 H   0  0  0  0  0  0
  -28.2592  -38.0121   24.7506 H   0  0  0  0  0  0
  -28.1071  -36.2641   24.6272 H   0  0  0  0  0  0
  -27.2294  -37.1453   25.8862 H   0  0  0  0  0  0
  -20.9329  -29.8804   21.6923 H   0  0  0  0  0  0
  -26.0137  -38.2832   24.1441 H   0  0  0  0  0  0
  -29.9287  -23.4894   22.7946 H   0  0  0  0  0  0
  -31.1148  -22.5568   21.9206 H   0  0  0  0  0  0
  -29.9142  -21.7558   22.9274 H   0  0  0  0  0  0
  -30.8421  -20.3814   18.6878 H   0  0  0  0  0  0
  -31.5198  -21.6123   19.7432 H   0  0  0  0  0  0
  -30.3861  -22.0545   18.4689 H   0  0  0  0  0  0
  -27.8850  -24.4032   22.7833 H   0  0  0  0  0  0
  -27.4214  -26.0642   22.5425 H   0  0  0  0  0  0
  -29.1255  -25.6523   22.5848 H   0  0  0  0  0  0
  -28.7732  -23.6796   19.1959 H   0  0  0  0  0  0
  -30.0970  -24.2587   20.1322 H   0  0  0  0  0  0
  -28.9853  -19.7172   21.8827 H   0  0  0  0  0  0
  -30.6817  -19.8372   21.5225 H   0  0  0  0  0  0
  -31.3477  -17.2838   20.8887 H   0  0  0  0  0  0
  -30.1465  -17.3566   22.1199 H   0  0  0  0  0  0
  -28.1146  -22.3348   21.4106 H   0  0  0  0  0  0
  -28.5492  -20.9132   19.5890 H   0  0  0  0  0  0
  -27.1211  -24.7565   20.4832 H   0  0  0  0  0  0
  -28.9183  -15.5220   21.0854 H   0  0  0  0  0  0
  -30.0532  -18.4897   19.4504 H   0  0  0  0  0  0
  -28.6502  -18.2076   20.2050 H   0  0  0  0  0  0
  1 25  1  0  0  0
  1 30  2  0  0  0
  1 80  1  0  0  0
  2  3  1  0  0  0
  2 25  1  0  0  0
  2 82  1  0  0  0
  2 83  1  0  0  0
  3  4  1  0  0  0
  3 84  1  0  0  0
  3 85  1  0  0  0
  4  5  1  0  0  0
  4 86  1  0  0  0
  4 87  1  0  0  0
  5  6  1  0  0  0
  5 26  1  0  0  0
  5 88  1  0  0  0
  6 25  1  0  0  0
  6 89  1  0  0  0
  6 90  1  0  0  0
  7  8  2  0  0  0
  7 26  1  0  0  0
  7 29  1  0  0  0
  8  9  1  0  0  0
  8 22  1  0  0  0
  9 10  1  0  0  0
  9 27  2  0  0  0
 10 11  2  0  0  0
 10 15  1  0  0  0
 11 12  1  0  0  0
 11 91  1  0  0  0
 12 13  2  0  0  0
 12 92  1  0  0  0
 13 14  1  0  0  0
 13 31  1  0  0  0
 14 15  2  0  0  0
 14 93  1  0  0  0
 15 94  1  0  0  0
 16 17  2  0  0  0
 16 21  1  0  0  0
 16 31  1  0  0  0
 17 18  1  0  0  0
 17 95  1  0  0  0
 18 19  2  0  0  0
 18 96  1  0  0  0
 19 20  1  0  0  0
 19 24  1  0  0  0
 20 21  2  0  0  0
 20 97  1  0  0  0
 21 23  1  0  0  0
 22 28  1  0  0  0
 22 32  2  0  0  0
 26 27  1  0  0  0
 28 98  1  0  0  0
 28 99  1  0  0  0
 29100  1  0  0  0
 29101  1  0  0  0
 33 34  1  0  0  0
 33 66  1  0  0  0
 33 70  2  0  0  0
 34 36  1  0  0  0
 34 59  1  0  0  0
 34102  1  0  0  0
 35 44  2  0  0  0
 35 45  1  0  0  0
 35 68  1  0  0  0
 36 56  1  0  0  0
 36103  1  0  0  0
 37 39  1  0  0  0
 37 47  1  0  0  0
 37 66  1  0  0  0
 37104  1  0  0  0
 38 43  2  0  0  0
 38 46  1  0  0  0
 38 47  1  0  0  0
 39 64  1  0  0  0
 39 67  2  0  0  0
 40 52  1  0  0  0
 40 53  2  0  0  0
 40 58  1  0  0  0
 41105  1  0  0  0
 41106  1  0  0  0
 41107  1  0  0  0
 41 48  1  0  0  0
 42 43  1  0  0  0
 42 66  1  0  0  0
 42108  1  0  0  0
 42109  1  0  0  0
 43 44  1  0  0  0
 44110  1  0  0  0
 45 46  2  0  0  0
 45111  1  0  0  0
 46112  1  0  0  0
 47113  1  0  0  0
 47114  1  0  0  0
 48 56  1  0  0  0
 48 65  1  0  0  0
 48115  1  0  0  0
 49 50  1  0  0  0
 49 53  1  0  0  0
 49 64  1  0  0  0
 49116  1  0  0  0
 50 51  1  0  0  0
 50117  1  0  0  0
 50118  1  0  0  0
 51 52  1  0  0  0
 51119  1  0  0  0
 51120  1  0  0  0
 52121  1  0  0  0
 52122  1  0  0  0
 53 54  1  0  0  0
 54 55  2  0  0  0
 54123  1  0  0  0
 55 57  1  0  0  0
 55124  1  0  0  0
 56 69  2  0  0  0
 57 58  2  0  0  0
 57125  1  0  0  0
 58126  1  0  0  0
 59 60  1  0  0  0
 59 61  1  0  0  0
 59 62  1  0  0  0
 60127  1  0  0  0
 60128  1  0  0  0
 60129  1  0  0  0
 61130  1  0  0  0
 61131  1  0  0  0
 61132  1  0  0  0
 62133  1  0  0  0
 62134  1  0  0  0
 62135  1  0  0  0
 63 65  1  0  0  0
 63136  1  0  0  0
 63137  1  0  0  0
 63138  1  0  0  0
 64139  1  0  0  0
 65140  1  0  0  0
 68 79  1  0  0  0
 71141  1  0  0  0
 71142  1  0  0  0
 71143  1  0  0  0
 71 77  1  0  0  0
 72144  1  0  0  0
 72145  1  0  0  0
 72146  1  0  0  0
 72 78  1  0  0  0
 73147  1  0  0  0
 73148  1  0  0  0
 73149  1  0  0  0
 73 79  1  0  0  0
 74 77  1  0  0  0
 74 79  1  0  0  0
 74150  1  0  0  0
 74151  1  0  0  0
 75 78  1  0  0  0
 75 81  1  0  0  0
 75152  1  0  0  0
 75153  1  0  0  0
 76 80  1  0  0  0
 76 81  1  0  0  0
 76154  1  0  0  0
 76155  1  0  0  0
 77 78  1  0  0  0
 77156  1  0  0  0
 78157  1  0  0  0
 79158  1  0  0  0
 80159  1  0  0  0
 81160  1  0  0  0
 81161  1  0  0  0
M  CHG  1  81   1
M  ISO  4   1 100  68 101  79 101  80 100
M  END
> <chiral flag>
0

> <version>
0

> <s_m_source_file>
/data/baiqing/PycharmProjects/Reinvent-master-3.2/result/LINK_invent/BTK/process_docking_weight1_custom_sum_contain_oxygen_bond_distance_aromatic_linkinvent_7_9_3/rearranged_h_0113.sdf

> <i_m_source_file_index>
47

> <r_mmod_Potential_Energy-OPLS-2005>
-85.1695404052734

> <r_mmod_Stretch_Energy-OPLS-2005>
102.671455383301

> <r_mmod_Bend_Energy-OPLS-2005>
147.759902954102

> <r_mmod_Torsional_Energy-OPLS-2005>
248.534652709961

> <r_mmod_Improper_Torsional_Energy-OPLS-2005>
4.23817205429077

> <r_mmod_Van_der_Waal_Energy-OPLS-2005>
124.066200256348

> <r_mmod_Electrostatic_Energy-OPLS-2005>
-288.367614746094

> <r_mmod_Solvation_Energy-OPLS-2005>
-477.255706787109

> <b_mmod_Minimization_Converged-OPLS-2005>
0

> <r_mmod_RMS_Derivative-OPLS-2005>
2.82308673858643

$$$$
48
                    3D
 Structure written by MMmdl.
165173  0  0  1  0            999 V2000
  -30.5311  -14.9254   20.4745 C   0  0  0  0  0  0
  -30.4392  -12.5806   19.5069 C   0  0  0  0  0  0
  -29.5455  -12.5682   18.2470 C   0  0  0  0  0  0
  -28.0611  -12.3750   18.6290 C   0  0  0  0  0  0
  -27.6282  -13.2604   19.8291 C   0  0  2  0  0  0
  -28.6593  -13.2500   20.9749 C   0  0  0  0  0  0
  -25.2402  -13.8193   20.5624 C   0  0  0  0  0  0
  -24.1732  -13.0418   20.9160 C   0  0  0  0  0  0
  -24.6333  -11.6899   20.8629 C   0  0  0  0  0  0
  -23.8972  -10.4289   21.0325 C   0  0  0  0  0  0
  -24.3546   -9.4234   21.9125 C   0  0  0  0  0  0
  -23.6238   -8.2253   22.0736 C   0  0  0  0  0  0
  -22.4211   -8.0243   21.3538 C   0  0  0  0  0  0
  -21.9833   -9.0224   20.4650 C   0  0  0  0  0  0
  -22.7119  -10.2105   20.3018 C   0  0  0  0  0  0
  -21.6868   -6.0677   22.5263 C   0  0  0  0  0  0
  -21.4018   -6.5577   23.8184 C   0  0  0  0  0  0
  -21.3672   -5.6730   24.9161 C   0  0  0  0  0  0
  -21.6062   -4.3003   24.7202 C   0  0  0  0  0  0
  -21.8798   -3.8075   23.4333 C   0  0  0  0  0  0
  -21.9223   -4.6918   22.3385 C   0  0  0  0  0  0
  -22.7754  -13.5215   21.1853 C   0  0  0  0  0  0
  -22.1670   -4.2084   21.0977 F   0  0  0  0  0  0
  -21.5662   -3.4488   25.7728 F   0  0  0  0  0  0
  -29.9387  -13.6697   20.3898 N   0  0  0  0  0  0
  -26.2830  -12.9452   20.3071 N   0  0  0  0  0  0
  -25.9264  -11.6575   20.5513 N   0  0  0  0  0  0
  -22.0346  -12.8263   22.0414 N   0  0  0  0  0  0
  -25.3980  -15.1929   20.4081 N   0  0  0  0  0  0
  -31.7384  -14.9916   20.2212 O   0  0  0  0  0  0
  -21.6625   -6.8813   21.4206 O   0  0  0  0  0  0
  -22.3473  -14.5526   20.6697 O   0  0  0  0  0  0
  -24.6480  -31.8430   23.1901 C   0  0  0  0  0  0
  -25.9252  -32.4705   23.8251 C   0  0  1  0  0  0
  -27.2025  -27.1551   20.1309 C   0  0  0  0  0  0
  -25.6004  -33.8516   24.2171 N   0  0  0  0  0  0
  -23.4442  -30.4679   21.5358 C   0  0  2  0  0  0
  -24.8803  -28.8948   20.1071 C   0  0  0  0  0  0
  -22.7596  -29.4523   22.4861 C   0  0  0  0  0  0
  -18.0323  -28.1416   22.8457 C   0  0  0  0  0  0
  -24.1470  -36.7243   23.2608 C   0  0  0  0  0  0
  -25.9953  -30.7266   21.3715 C   0  0  0  0  0  0
  -26.0596  -29.3378   20.7187 C   0  0  0  0  0  0
  -27.2180  -28.4830   20.7117 C   0  0  0  0  0  0
  -25.9896  -26.8041   19.4943 C   0  0  0  0  0  0
  -24.8540  -27.6415   19.4825 C   0  0  0  0  0  0
  -23.6639  -29.8046   20.1505 C   0  0  0  0  0  0
  -25.4077  -36.3030   24.0315 C   0  0  1  0  0  0
  -20.5934  -28.3709   23.1259 C   0  0  2  0  0  0
  -20.6803  -26.9425   22.5411 C   0  0  0  0  0  0
  -19.5777  -26.6406   21.5198 C   0  0  0  0  0  0
  -18.1947  -26.7961   22.1601 C   0  0  0  0  0  0
  -19.1563  -28.8880   23.2856 C   0  0  0  0  0  0
  -18.9473  -30.1469   23.8894 C   0  0  0  0  0  0
  -17.6473  -30.6615   24.0553 C   0  0  0  0  0  0
  -25.9054  -34.9418   23.5029 C   0  0  0  0  0  0
  -16.5353  -29.9102   23.6337 C   0  0  0  0  0  0
  -16.7311  -28.6520   23.0364 C   0  0  0  0  0  0
  -26.4528  -31.6597   25.0720 C   0  0  0  0  0  0
  -25.3750  -31.3820   26.1450 C   0  0  0  0  0  0
  -27.0297  -30.2991   24.6230 C   0  0  0  0  0  0
  -27.6079  -32.4343   25.7533 C   0  0  0  0  0  0
  -27.5596  -37.1729   24.8385 C   0  0  0  0  0  0
  -21.4278  -29.3032   22.3642 N   0  0  0  0  0  0
  -26.4192  -37.3803   23.9504 N   0  0  0  0  0  0
  -24.7163  -31.0349   22.0867 N   0  0  0  0  0  0
  -23.4270  -28.8063   23.2978 O   0  0  0  0  0  0
  -28.2841  -26.2182   20.2249 O   0  0  0  0  0  0
  -26.5601  -34.8941   22.4594 O   0  0  0  0  0  0
  -23.5611  -32.1231   23.7196 O   0  0  0  0  0  0
  -30.6966  -17.6714   23.5120 C   0  0  0  0  0  0
  -31.8712  -17.3773   22.5915 C   0  0  0  0  0  0
  -29.4575  -17.6393   22.6053 C   0  0  0  0  0  0
  -31.4102  -17.9543   21.2504 C   0  0  0  0  0  0
  -29.9086  -17.6072   21.1147 C   0  0  0  0  0  0
  -26.1634  -20.3760   20.4610 C   0  0  0  0  0  0
  -29.1738  -18.8864   20.2816 C   0  0  0  0  0  0
  -27.3241  -20.3406   21.4812 C   0  0  0  0  0  0
  -28.6353  -23.3887   20.6372 C   0  0  0  0  0  0
  -28.8075  -21.8477   19.9996 C   0  0  0  0  0  0
  -28.2760  -24.7488   19.7374 C   0  0  0  0  0  0
  -28.7617  -20.4177   20.8790 C   0  0  2  0  0  0
  -29.7266  -16.0884   20.6649 N   0  0  0  0  0  0
  -31.4874  -12.7227   19.2363 H   0  0  0  0  0  0
  -30.3956  -11.6188   20.0200 H   0  0  0  0  0  0
  -29.8704  -11.7826   17.5650 H   0  0  0  0  0  0
  -29.6713  -13.5113   17.7079 H   0  0  0  0  0  0
  -27.9101  -11.3220   18.8738 H   0  0  0  0  0  0
  -27.4327  -12.5896   17.7616 H   0  0  0  0  0  0
  -27.5975  -14.2761   19.4357 H   0  0  0  0  0  0
  -28.7362  -12.2620   21.4306 H   0  0  0  0  0  0
  -28.3521  -13.9359   21.7677 H   0  0  0  0  0  0
  -25.2691   -9.5746   22.4695 H   0  0  0  0  0  0
  -23.9981   -7.4649   22.7449 H   0  0  0  0  0  0
  -21.0764   -8.8667   19.8985 H   0  0  0  0  0  0
  -22.3509  -10.9612   19.6106 H   0  0  0  0  0  0
  -21.1975   -7.6079   23.9648 H   0  0  0  0  0  0
  -21.1523   -6.0478   25.9056 H   0  0  0  0  0  0
  -22.0585   -2.7543   23.2825 H   0  0  0  0  0  0
  -22.3940  -11.9962   22.4878 H   0  0  0  0  0  0
  -21.0948  -13.1320   22.2485 H   0  0  0  0  0  0
  -24.6003  -15.8157   20.4743 H   0  0  0  0  0  0
  -26.2099  -15.6339   19.9946 H   0  0  0  0  0  0
  -26.7320  -32.5269   23.0967 H   0  0  0  0  0  0
  -25.0311  -33.9579   25.0432 H   0  0  0  0  0  0
  -22.7456  -31.2954   21.3949 H   0  0  0  0  0  0
  -23.3806  -35.9490   23.3043 H   0  0  0  0  0  0
  -24.3635  -36.9118   22.2083 H   0  0  0  0  0  0
  -23.7116  -37.6334   23.6753 H   0  0  0  0  0  0
  -26.1392  -31.4763   20.5913 H   0  0  0  0  0  0
  -26.8738  -30.7813   22.0023 H   0  0  0  0  0  0
  -28.1182  -28.8198   21.2062 H   0  0  0  0  0  0
  -25.8587  -25.8487   19.0186 H   0  0  0  0  0  0
  -23.9538  -27.2900   18.9991 H   0  0  0  0  0  0
  -23.8235  -30.5821   19.4026 H   0  0  0  0  0  0
  -22.7712  -29.2681   19.8248 H   0  0  0  0  0  0
  -25.1264  -36.1769   25.0800 H   0  0  0  0  0  0
  -21.0010  -28.3257   24.1382 H   0  0  0  0  0  0
  -20.5684  -26.2318   23.3614 H   0  0  0  0  0  0
  -21.6681  -26.7442   22.1221 H   0  0  0  0  0  0
  -19.6916  -25.6304   21.1268 H   0  0  0  0  0  0
  -19.6739  -27.3177   20.6684 H   0  0  0  0  0  0
  -17.4250  -26.6740   21.3966 H   0  0  0  0  0  0
  -18.0297  -26.0124   22.9011 H   0  0  0  0  0  0
  -19.7930  -30.7279   24.2294 H   0  0  0  0  0  0
  -17.5022  -31.6275   24.5162 H   0  0  0  0  0  0
  -15.5364  -30.2993   23.7661 H   0  0  0  0  0  0
  -15.8716  -28.0829   22.7098 H   0  0  0  0  0  0
  -24.5986  -30.7036   25.7861 H   0  0  0  0  0  0
  -24.8830  -32.2998   26.4684 H   0  0  0  0  0  0
  -25.8109  -30.9222   27.0327 H   0  0  0  0  0  0
  -26.2807  -29.6846   24.1190 H   0  0  0  0  0  0
  -27.3838  -29.7189   25.4753 H   0  0  0  0  0  0
  -27.8790  -30.4217   23.9515 H   0  0  0  0  0  0
  -27.2664  -33.3684   26.1991 H   0  0  0  0  0  0
  -28.3965  -32.6824   25.0430 H   0  0  0  0  0  0
  -28.0601  -31.8531   26.5566 H   0  0  0  0  0  0
  -28.2354  -38.0269   24.7842 H   0  0  0  0  0  0
  -28.1360  -36.2877   24.5662 H   0  0  0  0  0  0
  -27.2437  -37.0728   25.8781 H   0  0  0  0  0  0
  -20.9483  -29.8805   21.6873 H   0  0  0  0  0  0
  -26.0019  -38.2798   24.1786 H   0  0  0  0  0  0
  -30.8101  -18.6705   23.9380 H   0  0  0  0  0  0
  -30.6316  -16.9773   24.3508 H   0  0  0  0  0  0
  -32.0325  -16.3018   22.5294 H   0  0  0  0  0  0
  -32.8039  -17.8146   22.9501 H   0  0  0  0  0  0
  -28.8875  -18.5296   22.8443 H   0  0  0  0  0  0
  -28.8093  -16.8008   22.8551 H   0  0  0  0  0  0
  -32.0153  -17.6190   20.4060 H   0  0  0  0  0  0
  -31.5230  -19.0434   21.3049 H   0  0  0  0  0  0
  -25.2103  -20.1633   20.9469 H   0  0  0  0  0  0
  -26.2877  -19.6492   19.6554 H   0  0  0  0  0  0
  -26.0651  -21.3581   19.9982 H   0  0  0  0  0  0
  -28.2664  -18.4759   19.8417 H   0  0  0  0  0  0
  -29.8088  -19.0707   19.4165 H   0  0  0  0  0  0
  -27.1881  -19.4386   22.0744 H   0  0  0  0  0  0
  -27.1845  -21.1637   22.1832 H   0  0  0  0  0  0
  -29.5718  -23.6079   21.1490 H   0  0  0  0  0  0
  -27.8954  -23.3356   21.4361 H   0  0  0  0  0  0
  -29.7404  -21.8490   19.4358 H   0  0  0  0  0  0
  -28.0575  -21.7687   19.2157 H   0  0  0  0  0  0
  -27.3648  -24.5108   19.1995 H   0  0  0  0  0  0
  -29.0256  -24.7697   18.9440 H   0  0  0  0  0  0
  -29.4475  -20.5843   21.7116 H   0  0  0  0  0  0
  -28.7515  -15.8286   20.6434 H   0  0  0  0  0  0
  1 25  1  0  0  0
  1 30  2  0  0  0
  1 83  1  0  0  0
  2  3  1  0  0  0
  2 25  1  0  0  0
  2 84  1  0  0  0
  2 85  1  0  0  0
  3  4  1  0  0  0
  3 86  1  0  0  0
  3 87  1  0  0  0
  4  5  1  0  0  0
  4 88  1  0  0  0
  4 89  1  0  0  0
  5  6  1  0  0  0
  5 26  1  0  0  0
  5 90  1  0  0  0
  6 25  1  0  0  0
  6 91  1  0  0  0
  6 92  1  0  0  0
  7  8  2  0  0  0
  7 26  1  0  0  0
  7 29  1  0  0  0
  8  9  1  0  0  0
  8 22  1  0  0  0
  9 10  1  0  0  0
  9 27  2  0  0  0
 10 11  2  0  0  0
 10 15  1  0  0  0
 11 12  1  0  0  0
 11 93  1  0  0  0
 12 13  2  0  0  0
 12 94  1  0  0  0
 13 14  1  0  0  0
 13 31  1  0  0  0
 14 15  2  0  0  0
 14 95  1  0  0  0
 15 96  1  0  0  0
 16 17  2  0  0  0
 16 21  1  0  0  0
 16 31  1  0  0  0
 17 18  1  0  0  0
 17 97  1  0  0  0
 18 19  2  0  0  0
 18 98  1  0  0  0
 19 20  1  0  0  0
 19 24  1  0  0  0
 20 21  2  0  0  0
 20 99  1  0  0  0
 21 23  1  0  0  0
 22 28  1  0  0  0
 22 32  2  0  0  0
 26 27  1  0  0  0
 28100  1  0  0  0
 28101  1  0  0  0
 29102  1  0  0  0
 29103  1  0  0  0
 33 34  1  0  0  0
 33 66  1  0  0  0
 33 70  2  0  0  0
 34 36  1  0  0  0
 34 59  1  0  0  0
 34104  1  0  0  0
 35 44  2  0  0  0
 35 45  1  0  0  0
 35 68  1  0  0  0
 36 56  1  0  0  0
 36105  1  0  0  0
 37 39  1  0  0  0
 37 47  1  0  0  0
 37 66  1  0  0  0
 37106  1  0  0  0
 38 43  2  0  0  0
 38 46  1  0  0  0
 38 47  1  0  0  0
 39 64  1  0  0  0
 39 67  2  0  0  0
 40 52  1  0  0  0
 40 53  2  0  0  0
 40 58  1  0  0  0
 41107  1  0  0  0
 41108  1  0  0  0
 41109  1  0  0  0
 41 48  1  0  0  0
 42 43  1  0  0  0
 42 66  1  0  0  0
 42110  1  0  0  0
 42111  1  0  0  0
 43 44  1  0  0  0
 44112  1  0  0  0
 45 46  2  0  0  0
 45113  1  0  0  0
 46114  1  0  0  0
 47115  1  0  0  0
 47116  1  0  0  0
 48 56  1  0  0  0
 48 65  1  0  0  0
 48117  1  0  0  0
 49 50  1  0  0  0
 49 53  1  0  0  0
 49 64  1  0  0  0
 49118  1  0  0  0
 50 51  1  0  0  0
 50119  1  0  0  0
 50120  1  0  0  0
 51 52  1  0  0  0
 51121  1  0  0  0
 51122  1  0  0  0
 52123  1  0  0  0
 52124  1  0  0  0
 53 54  1  0  0  0
 54 55  2  0  0  0
 54125  1  0  0  0
 55 57  1  0  0  0
 55126  1  0  0  0
 56 69  2  0  0  0
 57 58  2  0  0  0
 57127  1  0  0  0
 58128  1  0  0  0
 59 60  1  0  0  0
 59 61  1  0  0  0
 59 62  1  0  0  0
 60129  1  0  0  0
 60130  1  0  0  0
 60131  1  0  0  0
 61132  1  0  0  0
 61133  1  0  0  0
 61134  1  0  0  0
 62135  1  0  0  0
 62136  1  0  0  0
 62137  1  0  0  0
 63 65  1  0  0  0
 63138  1  0  0  0
 63139  1  0  0  0
 63140  1  0  0  0
 64141  1  0  0  0
 65142  1  0  0  0
 68 81  1  0  0  0
 71 72  1  0  0  0
 71 73  1  0  0  0
 71143  1  0  0  0
 71144  1  0  0  0
 72 74  1  0  0  0
 72145  1  0  0  0
 72146  1  0  0  0
 73 75  1  0  0  0
 73147  1  0  0  0
 73148  1  0  0  0
 74 75  1  0  0  0
 74149  1  0  0  0
 74150  1  0  0  0
 75 77  1  0  0  0
 75 83  1  0  0  0
 76 78  1  0  0  0
 76151  1  0  0  0
 76152  1  0  0  0
 76153  1  0  0  0
 77154  1  0  0  0
 77155  1  0  0  0
 77 82  1  0  0  0
 78 82  1  0  0  0
 78156  1  0  0  0
 78157  1  0  0  0
 79 80  1  0  0  0
 79 81  1  0  0  0
 79158  1  0  0  0
 79159  1  0  0  0
 80 82  1  0  0  0
 80160  1  0  0  0
 80161  1  0  0  0
 81162  1  0  0  0
 81163  1  0  0  0
 82164  1  0  0  0
 83165  1  0  0  0
M  ISO  4   1 100  68 101  81 101  83 100
M  END
> <chiral flag>
0

> <version>
0

> <s_m_source_file>
/data/baiqing/PycharmProjects/Reinvent-master-3.2/result/LINK_invent/BTK/process_docking_weight1_custom_sum_contain_oxygen_bond_distance_aromatic_linkinvent_7_9_3/rearranged_h_0113.sdf

> <i_m_source_file_index>
48

> <r_mmod_Potential_Energy-OPLS-2005>
578.690795898438

> <r_mmod_Stretch_Energy-OPLS-2005>
265.544372558594

> <r_mmod_Bend_Energy-OPLS-2005>
297.767150878906

> <r_mmod_Torsional_Energy-OPLS-2005>
276.445129394531

> <r_mmod_Improper_Torsional_Energy-OPLS-2005>
4.53980875015259

> <r_mmod_Van_der_Waal_Energy-OPLS-2005>
116.127639770508

> <r_mmod_Electrostatic_Energy-OPLS-2005>
-363.858215332031

> <r_mmod_Solvation_Energy-OPLS-2005>
-192.56201171875

> <b_mmod_Minimization_Converged-OPLS-2005>
0

> <r_mmod_RMS_Derivative-OPLS-2005>
7.1886773109436

$$$$
49
                    3D
 Structure written by MMmdl.
150157  0  0  1  0            999 V2000
  -30.5507  -14.9479   20.4183 C   0  0  0  0  0  0
  -30.4399  -12.5864   19.5059 C   0  0  0  0  0  0
  -29.5226  -12.5227   18.2626 C   0  0  0  0  0  0
  -28.0575  -12.3074   18.6828 C   0  0  0  0  0  0
  -27.6304  -13.2470   19.8410 C   0  0  2  0  0  0
  -28.6723  -13.2857   20.9795 C   0  0  0  0  0  0
  -25.2470  -13.8212   20.5727 C   0  0  0  0  0  0
  -24.1781  -13.0444   20.9230 C   0  0  0  0  0  0
  -24.6388  -11.6925   20.8755 C   0  0  0  0  0  0
  -23.9070  -10.4301   21.0410 C   0  0  0  0  0  0
  -24.3622   -9.4213   21.9188 C   0  0  0  0  0  0
  -23.6301   -8.2247   22.0758 C   0  0  0  0  0  0
  -22.4284   -8.0285   21.3546 C   0  0  0  0  0  0
  -21.9917   -9.0253   20.4645 C   0  0  0  0  0  0
  -22.7242  -10.2136   20.3057 C   0  0  0  0  0  0
  -21.6861   -6.0739   22.5280 C   0  0  0  0  0  0
  -21.4011   -6.5640   23.8213 C   0  0  0  0  0  0
  -21.3658   -5.6790   24.9175 C   0  0  0  0  0  0
  -21.6045   -4.3055   24.7223 C   0  0  0  0  0  0
  -21.8823   -3.8149   23.4345 C   0  0  0  0  0  0
  -21.9193   -4.6965   22.3402 C   0  0  0  0  0  0
  -22.7798  -13.5215   21.1869 C   0  0  0  0  0  0
  -22.1667   -4.2157   21.0980 F   0  0  0  0  0  0
  -21.5626   -3.4537   25.7732 F   0  0  0  0  0  0
  -29.9490  -13.6911   20.3792 N   0  0  0  0  0  0
  -26.2893  -12.9437   20.3274 N   0  0  0  0  0  0
  -25.9322  -11.6565   20.5757 N   0  0  0  0  0  0
  -22.0442  -12.8206   22.0419 N   0  0  0  0  0  0
  -25.4138  -15.1941   20.4151 N   0  0  0  0  0  0
  -31.7525  -15.0056   20.1396 O   0  0  0  0  0  0
  -21.6644   -6.8886   21.4243 O   0  0  0  0  0  0
  -22.3484  -14.5519   20.6708 O   0  0  0  0  0  0
  -24.6454  -31.8431   23.1876 C   0  0  0  0  0  0
  -25.9219  -32.4689   23.8268 C   0  0  1  0  0  0
  -27.2113  -27.1210   20.1520 C   0  0  0  0  0  0
  -25.5966  -33.8497   24.2184 N   0  0  0  0  0  0
  -23.4492  -30.4647   21.5328 C   0  0  2  0  0  0
  -24.8983  -28.8918   20.1087 C   0  0  0  0  0  0
  -22.7582  -29.4541   22.4833 C   0  0  0  0  0  0
  -18.0318  -28.1399   22.8473 C   0  0  0  0  0  0
  -24.1493  -36.7249   23.2643 C   0  0  0  0  0  0
  -26.0076  -30.7124   21.3896 C   0  0  0  0  0  0
  -26.0775  -29.3232   20.7302 C   0  0  0  0  0  0
  -27.2355  -28.4545   20.7345 C   0  0  0  0  0  0
  -26.0085  -26.8030   19.4807 C   0  0  0  0  0  0
  -24.8778  -27.6452   19.4686 C   0  0  0  0  0  0
  -23.6777  -29.7980   20.1514 C   0  0  0  0  0  0
  -25.4122  -36.3020   24.0317 C   0  0  1  0  0  0
  -20.5930  -28.3725   23.1225 C   0  0  2  0  0  0
  -20.6799  -26.9425   22.5397 C   0  0  0  0  0  0
  -19.5768  -26.6383   21.5212 C   0  0  0  0  0  0
  -18.1950  -26.7936   22.1625 C   0  0  0  0  0  0
  -19.1574  -28.8881   23.2845 C   0  0  0  0  0  0
  -18.9492  -30.1478   23.8875 C   0  0  0  0  0  0
  -17.6488  -30.6592   24.0565 C   0  0  0  0  0  0
  -25.9078  -34.9404   23.5056 C   0  0  0  0  0  0
  -16.5379  -29.9086   23.6337 C   0  0  0  0  0  0
  -16.7305  -28.6507   23.0352 C   0  0  0  0  0  0
  -26.4543  -31.6567   25.0718 C   0  0  0  0  0  0
  -25.3722  -31.3764   26.1414 C   0  0  0  0  0  0
  -27.0415  -30.2962   24.6300 C   0  0  0  0  0  0
  -27.6072  -32.4339   25.7499 C   0  0  0  0  0  0
  -27.5568  -37.1778   24.8467 C   0  0  0  0  0  0
  -21.4270  -29.3056   22.3597 N   0  0  0  0  0  0
  -26.4275  -37.3739   23.9419 N   0  0  0  0  0  0
  -24.7207  -31.0275   22.0918 N   0  0  0  0  0  0
  -23.4228  -28.8082   23.2974 O   0  0  0  0  0  0
  -28.2497  -26.1112   20.2257 O   0  0  0  0  0  0
  -26.5653  -34.8898   22.4627 O   0  0  0  0  0  0
  -23.5570  -32.1313   23.7089 O   0  0  0  0  0  0
  -29.1212  -18.9449   20.4790 C   0  0  0  0  0  0
  -27.1467  -24.4420   21.6634 C   0  0  0  0  0  0
  -30.1685  -17.6670   20.3865 C   0  0  0  0  0  0
  -28.9839  -23.2492   20.2710 C   0  0  0  0  0  0
  -28.5112  -21.6197   20.3832 C   0  0  0  0  0  0
  -27.9255  -24.5766   20.3412 C   0  0  2  0  0  0
  -29.4340  -20.3287   20.3310 N   0  0  0  0  0  0
  -29.7889  -16.1387   20.5579 N   0  0  0  0  0  0
  -27.9480  -18.6416   20.6979 O   0  0  0  0  0  0
  -31.4758  -12.7379   19.1968 H   0  0  0  0  0  0
  -30.4279  -11.6384   20.0468 H   0  0  0  0  0  0
  -29.8430  -11.7210   17.5962 H   0  0  0  0  0  0
  -29.6080  -13.4498   17.6935 H   0  0  0  0  0  0
  -27.9607  -11.2683   18.9990 H   0  0  0  0  0  0
  -27.3918  -12.4297   17.8275 H   0  0  0  0  0  0
  -27.5915  -14.2462   19.4052 H   0  0  0  0  0  0
  -28.7587  -12.3142   21.4679 H   0  0  0  0  0  0
  -28.3726  -13.9965   21.7518 H   0  0  0  0  0  0
  -25.2764   -9.5691   22.4765 H   0  0  0  0  0  0
  -24.0011   -7.4636   22.7473 H   0  0  0  0  0  0
  -21.0851   -8.8758   19.8947 H   0  0  0  0  0  0
  -22.3691  -10.9670   19.6164 H   0  0  0  0  0  0
  -21.2004   -7.6150   23.9716 H   0  0  0  0  0  0
  -21.1476   -6.0523   25.9075 H   0  0  0  0  0  0
  -22.0604   -2.7615   23.2836 H   0  0  0  0  0  0
  -22.4068  -11.9880   22.4829 H   0  0  0  0  0  0
  -21.1049  -13.1222   22.2610 H   0  0  0  0  0  0
  -24.6454  -15.8453   20.5316 H   0  0  0  0  0  0
  -26.2592  -15.6393   20.0821 H   0  0  0  0  0  0
  -26.7282  -32.5289   23.0992 H   0  0  0  0  0  0
  -25.0117  -33.9623   25.0334 H   0  0  0  0  0  0
  -22.7524  -31.2912   21.3776 H   0  0  0  0  0  0
  -23.3757  -35.9579   23.3288 H   0  0  0  0  0  0
  -24.3573  -36.8895   22.2058 H   0  0  0  0  0  0
  -23.7249  -37.6442   23.6689 H   0  0  0  0  0  0
  -26.1643  -31.4659   20.6171 H   0  0  0  0  0  0
  -26.8783  -30.7625   22.0313 H   0  0  0  0  0  0
  -28.1306  -28.7762   21.2478 H   0  0  0  0  0  0
  -25.9008  -25.8581   18.9719 H   0  0  0  0  0  0
  -23.9794  -27.3124   18.9672 H   0  0  0  0  0  0
  -23.8224  -30.5757   19.4007 H   0  0  0  0  0  0
  -22.7915  -29.2466   19.8330 H   0  0  0  0  0  0
  -25.1306  -36.1836   25.0804 H   0  0  0  0  0  0
  -21.0036  -28.3313   24.1341 H   0  0  0  0  0  0
  -20.5700  -26.2339   23.3618 H   0  0  0  0  0  0
  -21.6660  -26.7428   22.1185 H   0  0  0  0  0  0
  -19.6931  -25.6288   21.1254 H   0  0  0  0  0  0
  -19.6705  -27.3185   20.6730 H   0  0  0  0  0  0
  -17.4219  -26.6698   21.4023 H   0  0  0  0  0  0
  -18.0341  -26.0081   22.9022 H   0  0  0  0  0  0
  -19.7973  -30.7301   24.2225 H   0  0  0  0  0  0
  -17.5046  -31.6268   24.5172 H   0  0  0  0  0  0
  -15.5379  -30.2987   23.7673 H   0  0  0  0  0  0
  -15.8704  -28.0829   22.7068 H   0  0  0  0  0  0
  -24.5909  -30.7102   25.7735 H   0  0  0  0  0  0
  -24.8912  -32.2954   26.4770 H   0  0  0  0  0  0
  -25.8006  -30.8985   27.0232 H   0  0  0  0  0  0
  -26.3036  -29.6676   24.1301 H   0  0  0  0  0  0
  -27.4030  -29.7265   25.4870 H   0  0  0  0  0  0
  -27.8936  -30.4207   23.9616 H   0  0  0  0  0  0
  -27.2667  -33.3669   26.1998 H   0  0  0  0  0  0
  -28.3916  -32.6851   25.0348 H   0  0  0  0  0  0
  -28.0697  -31.8516   26.5477 H   0  0  0  0  0  0
  -28.2571  -38.0088   24.7502 H   0  0  0  0  0  0
  -28.1077  -36.2611   24.6296 H   0  0  0  0  0  0
  -27.2289  -37.1418   25.8872 H   0  0  0  0  0  0
  -20.9477  -29.8796   21.6800 H   0  0  0  0  0  0
  -26.0138  -38.2799   24.1438 H   0  0  0  0  0  0
  -26.7215  -23.4460   21.7771 H   0  0  0  0  0  0
  -26.3137  -25.1403   21.7320 H   0  0  0  0  0  0
  -27.7995  -24.6215   22.5177 H   0  0  0  0  0  0
  -30.6514  -17.7503   19.4124 H   0  0  0  0  0  0
  -30.9583  -17.8700   21.1088 H   0  0  0  0  0  0
  -29.5348  -23.3467   19.3357 H   0  0  0  0  0  0
  -29.7323  -23.4104   21.0474 H   0  0  0  0  0  0
  -27.7604  -21.4649   19.6068 H   0  0  0  0  0  0
  -27.9558  -21.5217   21.3155 H   0  0  0  0  0  0
  -27.2346  -24.3601   19.5295 H   0  0  0  0  0  0
  -30.4128  -20.5151   20.1474 H   0  0  0  0  0  0
  -28.8108  -15.9905   20.7573 H   0  0  0  0  0  0
  1 25  1  0  0  0
  1 30  2  0  0  0
  1 78  1  0  0  0
  2  3  1  0  0  0
  2 25  1  0  0  0
  2 80  1  0  0  0
  2 81  1  0  0  0
  3  4  1  0  0  0
  3 82  1  0  0  0
  3 83  1  0  0  0
  4  5  1  0  0  0
  4 84  1  0  0  0
  4 85  1  0  0  0
  5  6  1  0  0  0
  5 26  1  0  0  0
  5 86  1  0  0  0
  6 25  1  0  0  0
  6 87  1  0  0  0
  6 88  1  0  0  0
  7  8  2  0  0  0
  7 26  1  0  0  0
  7 29  1  0  0  0
  8  9  1  0  0  0
  8 22  1  0  0  0
  9 10  1  0  0  0
  9 27  2  0  0  0
 10 11  2  0  0  0
 10 15  1  0  0  0
 11 12  1  0  0  0
 11 89  1  0  0  0
 12 13  2  0  0  0
 12 90  1  0  0  0
 13 14  1  0  0  0
 13 31  1  0  0  0
 14 15  2  0  0  0
 14 91  1  0  0  0
 15 92  1  0  0  0
 16 17  2  0  0  0
 16 21  1  0  0  0
 16 31  1  0  0  0
 17 18  1  0  0  0
 17 93  1  0  0  0
 18 19  2  0  0  0
 18 94  1  0  0  0
 19 20  1  0  0  0
 19 24  1  0  0  0
 20 21  2  0  0  0
 20 95  1  0  0  0
 21 23  1  0  0  0
 22 28  1  0  0  0
 22 32  2  0  0  0
 26 27  1  0  0  0
 28 96  1  0  0  0
 28 97  1  0  0  0
 29 98  1  0  0  0
 29 99  1  0  0  0
 33 34  1  0  0  0
 33 66  1  0  0  0
 33 70  2  0  0  0
 34 36  1  0  0  0
 34 59  1  0  0  0
 34100  1  0  0  0
 35 44  2  0  0  0
 35 45  1  0  0  0
 35 68  1  0  0  0
 36 56  1  0  0  0
 36101  1  0  0  0
 37 39  1  0  0  0
 37 47  1  0  0  0
 37 66  1  0  0  0
 37102  1  0  0  0
 38 43  2  0  0  0
 38 46  1  0  0  0
 38 47  1  0  0  0
 39 64  1  0  0  0
 39 67  2  0  0  0
 40 52  1  0  0  0
 40 53  2  0  0  0
 40 58  1  0  0  0
 41103  1  0  0  0
 41104  1  0  0  0
 41105  1  0  0  0
 41 48  1  0  0  0
 42 43  1  0  0  0
 42 66  1  0  0  0
 42106  1  0  0  0
 42107  1  0  0  0
 43 44  1  0  0  0
 44108  1  0  0  0
 45 46  2  0  0  0
 45109  1  0  0  0
 46110  1  0  0  0
 47111  1  0  0  0
 47112  1  0  0  0
 48 56  1  0  0  0
 48 65  1  0  0  0
 48113  1  0  0  0
 49 50  1  0  0  0
 49 53  1  0  0  0
 49 64  1  0  0  0
 49114  1  0  0  0
 50 51  1  0  0  0
 50115  1  0  0  0
 50116  1  0  0  0
 51 52  1  0  0  0
 51117  1  0  0  0
 51118  1  0  0  0
 52119  1  0  0  0
 52120  1  0  0  0
 53 54  1  0  0  0
 54 55  2  0  0  0
 54121  1  0  0  0
 55 57  1  0  0  0
 55122  1  0  0  0
 56 69  2  0  0  0
 57 58  2  0  0  0
 57123  1  0  0  0
 58124  1  0  0  0
 59 60  1  0  0  0
 59 61  1  0  0  0
 59 62  1  0  0  0
 60125  1  0  0  0
 60126  1  0  0  0
 60127  1  0  0  0
 61128  1  0  0  0
 61129  1  0  0  0
 61130  1  0  0  0
 62131  1  0  0  0
 62132  1  0  0  0
 62133  1  0  0  0
 63 65  1  0  0  0
 63134  1  0  0  0
 63135  1  0  0  0
 63136  1  0  0  0
 64137  1  0  0  0
 65138  1  0  0  0
 68 76  1  0  0  0
 71 73  1  0  0  0
 71 77  1  0  0  0
 71 79  2  0  0  0
 72139  1  0  0  0
 72140  1  0  0  0
 72141  1  0  0  0
 72 76  1  0  0  0
 73 78  1  0  0  0
 73142  1  0  0  0
 73143  1  0  0  0
 74 75  1  0  0  0
 74 76  1  0  0  0
 74144  1  0  0  0
 74145  1  0  0  0
 75 77  1  0  0  0
 75146  1  0  0  0
 75147  1  0  0  0
 76148  1  0  0  0
 77149  1  0  0  0
 78150  1  0  0  0
M  ISO  4   1 100  68 101  76 101  78 100
M  END
> <chiral flag>
0

> <version>
0

> <s_m_source_file>
/data/baiqing/PycharmProjects/Reinvent-master-3.2/result/LINK_invent/BTK/process_docking_weight1_custom_sum_contain_oxygen_bond_distance_aromatic_linkinvent_7_9_3/rearranged_h_0113.sdf

> <i_m_source_file_index>
49

> <r_mmod_Potential_Energy-OPLS-2005>
317.780883789062

> <r_mmod_Stretch_Energy-OPLS-2005>
274.059448242188

> <r_mmod_Bend_Energy-OPLS-2005>
253.498580932617

> <r_mmod_Torsional_Energy-OPLS-2005>
204.581405639648

> <r_mmod_Improper_Torsional_Energy-OPLS-2005>
4.37614297866821

> <r_mmod_Van_der_Waal_Energy-OPLS-2005>
114.213684082031

> <r_mmod_Electrostatic_Energy-OPLS-2005>
-499.317016601562

> <r_mmod_Solvation_Energy-OPLS-2005>
-234.983810424805

> <b_mmod_Minimization_Converged-OPLS-2005>
0

> <r_mmod_RMS_Derivative-OPLS-2005>
1.41495501995087

$$$$
50
                    3D
 Structure written by MMmdl.
160168  0  0  1  0            999 V2000
  -30.5740  -14.8915   20.4710 C   0  0  0  0  0  0
  -30.4321  -12.5684   19.4860 C   0  0  0  0  0  0
  -29.5180  -12.4949   18.2465 C   0  0  0  0  0  0
  -28.0560  -12.2712   18.6700 C   0  0  0  0  0  0
  -27.6168  -13.2190   19.8163 C   0  0  2  0  0  0
  -28.6527  -13.2822   20.9574 C   0  0  0  0  0  0
  -25.2423  -13.8094   20.5636 C   0  0  0  0  0  0
  -24.1726  -13.0405   20.9165 C   0  0  0  0  0  0
  -24.6289  -11.6859   20.8791 C   0  0  0  0  0  0
  -23.9001  -10.4259   21.0472 C   0  0  0  0  0  0
  -24.3569   -9.4160   21.9235 C   0  0  0  0  0  0
  -23.6232   -8.2216   22.0806 C   0  0  0  0  0  0
  -22.4211   -8.0298   21.3605 C   0  0  0  0  0  0
  -21.9848   -9.0258   20.4692 C   0  0  0  0  0  0
  -22.7194  -10.2098   20.3101 C   0  0  0  0  0  0
  -21.6815   -6.0758   22.5303 C   0  0  0  0  0  0
  -21.3986   -6.5628   23.8249 C   0  0  0  0  0  0
  -21.3678   -5.6762   24.9194 C   0  0  0  0  0  0
  -21.6039   -4.3033   24.7236 C   0  0  0  0  0  0
  -21.8828   -3.8167   23.4359 C   0  0  0  0  0  0
  -21.9144   -4.6985   22.3401 C   0  0  0  0  0  0
  -22.7769  -13.5191   21.1833 C   0  0  0  0  0  0
  -22.1617   -4.2171   21.0971 F   0  0  0  0  0  0
  -21.5631   -3.4500   25.7743 F   0  0  0  0  0  0
  -29.9342  -13.6650   20.3603 N   0  0  0  0  0  0
  -26.2796  -12.9272   20.3133 N   0  0  0  0  0  0
  -25.9234  -11.6440   20.5774 N   0  0  0  0  0  0
  -22.0413  -12.8257   22.0439 N   0  0  0  0  0  0
  -25.4171  -15.1828   20.4145 N   0  0  0  0  0  0
  -31.7891  -14.9182   20.2443 O   0  0  0  0  0  0
  -21.6559   -6.8916   21.4305 O   0  0  0  0  0  0
  -22.3540  -14.5516   20.6662 O   0  0  0  0  0  0
  -24.6356  -31.8520   23.1950 C   0  0  0  0  0  0
  -25.9158  -32.4738   23.8339 C   0  0  1  0  0  0
  -27.2226  -27.2092   20.1817 C   0  0  0  0  0  0
  -25.5948  -33.8544   24.2275 N   0  0  0  0  0  0
  -23.4369  -30.4703   21.5344 C   0  0  2  0  0  0
  -24.8895  -28.9000   20.1243 C   0  0  0  0  0  0
  -22.7525  -29.4606   22.4884 C   0  0  0  0  0  0
  -18.0318  -28.1365   22.8510 C   0  0  0  0  0  0
  -24.1498  -36.7253   23.2637 C   0  0  0  0  0  0
  -25.9837  -30.7563   21.3770 C   0  0  0  0  0  0
  -26.0615  -29.3692   20.7297 C   0  0  0  0  0  0
  -27.2380  -28.5404   20.7389 C   0  0  0  0  0  0
  -26.0288  -26.8118   19.5511 C   0  0  0  0  0  0
  -24.8785  -27.6315   19.5217 C   0  0  0  0  0  0
  -23.6600  -29.7943   20.1576 C   0  0  0  0  0  0
  -25.4126  -36.3054   24.0331 C   0  0  1  0  0  0
  -20.5929  -28.3692   23.1241 C   0  0  2  0  0  0
  -20.6800  -26.9400   22.5398 C   0  0  0  0  0  0
  -19.5764  -26.6364   21.5206 C   0  0  0  0  0  0
  -18.1952  -26.7912   22.1620 C   0  0  0  0  0  0
  -19.1576  -28.8845   23.2873 C   0  0  0  0  0  0
  -18.9490  -30.1453   23.8900 C   0  0  0  0  0  0
  -17.6494  -30.6580   24.0555 C   0  0  0  0  0  0
  -25.9072  -34.9420   23.5100 C   0  0  0  0  0  0
  -16.5387  -29.9076   23.6344 C   0  0  0  0  0  0
  -16.7303  -28.6468   23.0402 C   0  0  0  0  0  0
  -26.4553  -31.6574   25.0740 C   0  0  0  0  0  0
  -25.3790  -31.3693   26.1466 C   0  0  0  0  0  0
  -27.0426  -30.3000   24.6232 C   0  0  0  0  0  0
  -27.6108  -32.4307   25.7506 C   0  0  0  0  0  0
  -27.5597  -37.1780   24.8472 C   0  0  0  0  0  0
  -21.4240  -29.3038   22.3606 N   0  0  0  0  0  0
  -26.4288  -37.3765   23.9444 N   0  0  0  0  0  0
  -24.7034  -31.0451   22.0934 N   0  0  0  0  0  0
  -23.4198  -28.8154   23.3008 O   0  0  0  0  0  0
  -28.3142  -26.2978   20.1684 O   0  0  0  0  0  0
  -26.5629  -34.8913   22.4675 O   0  0  0  0  0  0
  -23.5487  -32.1347   23.7205 O   0  0  0  0  0  0
  -29.1199  -18.2316   19.3223 C   0  0  0  0  0  0
  -29.6703  -18.6053   21.7178 C   0  0  0  0  0  0
  -28.8401  -16.7367   19.8572 C   0  0  0  0  0  0
  -30.4425  -17.1904   21.6396 C   0  0  0  0  0  0
  -29.5295  -19.3801   20.3505 C   0  0  0  0  0  0
  -29.2240  -25.1375   22.0390 C   0  0  0  0  0  0
  -29.0653  -22.0932   20.8522 C   0  0  0  0  0  0
  -28.2395  -24.9439   20.8715 C   0  0  2  0  0  0
  -28.4694  -23.4629   20.1277 C   0  0  2  0  0  0
  -29.8727  -16.0973   20.7564 N   0  0  0  0  0  0
  -28.6932  -20.7054   20.2529 N   0  3  0  0  0  0
  -27.1859  -23.0575   19.6703 O   0  0  0  0  0  0
  -31.4632  -12.7409   19.1689 H   0  0  0  0  0  0
  -30.4457  -11.6212   20.0220 H   0  0  0  0  0  0
  -29.8574  -11.6950   17.5890 H   0  0  0  0  0  0
  -29.5994  -13.4187   17.6753 H   0  0  0  0  0  0
  -27.9827  -11.2298   18.9923 H   0  0  0  0  0  0
  -27.3934  -12.3724   17.8098 H   0  0  0  0  0  0
  -27.5625  -14.2041   19.3594 H   0  0  0  0  0  0
  -28.7339  -12.3244   21.4666 H   0  0  0  0  0  0
  -28.3432  -14.0175   21.7060 H   0  0  0  0  0  0
  -25.2748   -9.5563   22.4738 H   0  0  0  0  0  0
  -23.9959   -7.4516   22.7425 H   0  0  0  0  0  0
  -21.0838   -8.8753   19.8927 H   0  0  0  0  0  0
  -22.3746  -10.9605   19.6159 H   0  0  0  0  0  0
  -21.2010   -7.6133   23.9788 H   0  0  0  0  0  0
  -21.1492   -6.0505   25.9098 H   0  0  0  0  0  0
  -22.0598   -2.7629   23.2833 H   0  0  0  0  0  0
  -22.3946  -11.9919   22.4887 H   0  0  0  0  0  0
  -21.1044  -13.1379   22.2638 H   0  0  0  0  0  0
  -24.6603  -15.8466   20.5367 H   0  0  0  0  0  0
  -26.2801  -15.6018   20.1089 H   0  0  0  0  0  0
  -26.7237  -32.5399   23.1080 H   0  0  0  0  0  0
  -25.0185  -33.9695   25.0472 H   0  0  0  0  0  0
  -22.7340  -31.2941   21.3795 H   0  0  0  0  0  0
  -23.3792  -35.9554   23.3245 H   0  0  0  0  0  0
  -24.3609  -36.8943   22.2075 H   0  0  0  0  0  0
  -23.7212  -37.6410   23.6708 H   0  0  0  0  0  0
  -26.1222  -31.5081   20.5992 H   0  0  0  0  0  0
  -26.8586  -30.8156   22.0124 H   0  0  0  0  0  0
  -28.1393  -28.8988   21.2161 H   0  0  0  0  0  0
  -25.9765  -25.8361   19.0939 H   0  0  0  0  0  0
  -23.9798  -27.2582   19.0514 H   0  0  0  0  0  0
  -23.7914  -30.5626   19.3956 H   0  0  0  0  0  0
  -22.7796  -29.2290   19.8516 H   0  0  0  0  0  0
  -25.1302  -36.1893   25.0813 H   0  0  0  0  0  0
  -21.0059  -28.3280   24.1331 H   0  0  0  0  0  0
  -20.5709  -26.2299   23.3620 H   0  0  0  0  0  0
  -21.6666  -26.7402   22.1195 H   0  0  0  0  0  0
  -19.6925  -25.6269   21.1255 H   0  0  0  0  0  0
  -19.6693  -27.3160   20.6736 H   0  0  0  0  0  0
  -17.4229  -26.6702   21.4013 H   0  0  0  0  0  0
  -18.0317  -26.0037   22.8986 H   0  0  0  0  0  0
  -19.7969  -30.7273   24.2260 H   0  0  0  0  0  0
  -17.5044  -31.6272   24.5115 H   0  0  0  0  0  0
  -15.5387  -30.2979   23.7636 H   0  0  0  0  0  0
  -15.8701  -28.0760   22.7159 H   0  0  0  0  0  0
  -24.5975  -30.7024   25.7801 H   0  0  0  0  0  0
  -24.8961  -32.2834   26.4923 H   0  0  0  0  0  0
  -25.8131  -30.8871   27.0231 H   0  0  0  0  0  0
  -26.3028  -29.6693   24.1285 H   0  0  0  0  0  0
  -27.4157  -29.7318   25.4758 H   0  0  0  0  0  0
  -27.8876  -30.4293   23.9468 H   0  0  0  0  0  0
  -27.2769  -33.3637   26.2060 H   0  0  0  0  0  0
  -28.3951  -32.6813   25.0347 H   0  0  0  0  0  0
  -28.0759  -31.8444   26.5446 H   0  0  0  0  0  0
  -28.2556  -38.0137   24.7611 H   0  0  0  0  0  0
  -28.1164  -36.2665   24.6184 H   0  0  0  0  0  0
  -27.2333  -37.1294   25.8879 H   0  0  0  0  0  0
  -20.9411  -29.8722   21.6778 H   0  0  0  0  0  0
  -26.0151  -38.2820   24.1500 H   0  0  0  0  0  0
  -28.2638  -18.5429   18.7125 H   0  0  0  0  0  0
  -29.9262  -18.1606   18.5851 H   0  0  0  0  0  0
  -30.1775  -19.2400   22.4453 H   0  0  0  0  0  0
  -28.6797  -18.4394   22.1520 H   0  0  0  0  0  0
  -28.6578  -16.1014   18.9875 H   0  0  0  0  0  0
  -27.8872  -16.7410   20.3989 H   0  0  0  0  0  0
  -30.5315  -16.8028   22.6616 H   0  0  0  0  0  0
  -31.4746  -17.3875   21.3444 H   0  0  0  0  0  0
  -30.5462  -19.6860   20.0778 H   0  0  0  0  0  0
  -29.2198  -24.2973   22.7323 H   0  0  0  0  0  0
  -28.9596  -26.0192   22.6271 H   0  0  0  0  0  0
  -30.2425  -25.2833   21.6816 H   0  0  0  0  0  0
  -28.7465  -22.0784   21.8983 H   0  0  0  0  0  0
  -30.1528  -22.1691   20.8767 H   0  0  0  0  0  0
  -27.2603  -24.8973   21.3469 H   0  0  0  0  0  0
  -29.0948  -23.6333   19.2478 H   0  0  0  0  0  0
  -27.7422  -20.5152   20.5320 H   0  0  0  0  0  0
  -28.6292  -20.9029   19.2650 H   0  0  0  0  0  0
  -26.7786  -23.8006   19.2334 H   0  0  0  0  0  0
  1 25  1  0  0  0
  1 30  2  0  0  0
  1 80  1  0  0  0
  2  3  1  0  0  0
  2 25  1  0  0  0
  2 83  1  0  0  0
  2 84  1  0  0  0
  3  4  1  0  0  0
  3 85  1  0  0  0
  3 86  1  0  0  0
  4  5  1  0  0  0
  4 87  1  0  0  0
  4 88  1  0  0  0
  5  6  1  0  0  0
  5 26  1  0  0  0
  5 89  1  0  0  0
  6 25  1  0  0  0
  6 90  1  0  0  0
  6 91  1  0  0  0
  7  8  2  0  0  0
  7 26  1  0  0  0
  7 29  1  0  0  0
  8  9  1  0  0  0
  8 22  1  0  0  0
  9 10  1  0  0  0
  9 27  2  0  0  0
 10 11  2  0  0  0
 10 15  1  0  0  0
 11 12  1  0  0  0
 11 92  1  0  0  0
 12 13  2  0  0  0
 12 93  1  0  0  0
 13 14  1  0  0  0
 13 31  1  0  0  0
 14 15  2  0  0  0
 14 94  1  0  0  0
 15 95  1  0  0  0
 16 17  2  0  0  0
 16 21  1  0  0  0
 16 31  1  0  0  0
 17 18  1  0  0  0
 17 96  1  0  0  0
 18 19  2  0  0  0
 18 97  1  0  0  0
 19 20  1  0  0  0
 19 24  1  0  0  0
 20 21  2  0  0  0
 20 98  1  0  0  0
 21 23  1  0  0  0
 22 28  1  0  0  0
 22 32  2  0  0  0
 26 27  1  0  0  0
 28 99  1  0  0  0
 28100  1  0  0  0
 29101  1  0  0  0
 29102  1  0  0  0
 33 34  1  0  0  0
 33 66  1  0  0  0
 33 70  2  0  0  0
 34 36  1  0  0  0
 34 59  1  0  0  0
 34103  1  0  0  0
 35 44  2  0  0  0
 35 45  1  0  0  0
 35 68  1  0  0  0
 36 56  1  0  0  0
 36104  1  0  0  0
 37 39  1  0  0  0
 37 47  1  0  0  0
 37 66  1  0  0  0
 37105  1  0  0  0
 38 43  2  0  0  0
 38 46  1  0  0  0
 38 47  1  0  0  0
 39 64  1  0  0  0
 39 67  2  0  0  0
 40 52  1  0  0  0
 40 53  2  0  0  0
 40 58  1  0  0  0
 41106  1  0  0  0
 41107  1  0  0  0
 41108  1  0  0  0
 41 48  1  0  0  0
 42 43  1  0  0  0
 42 66  1  0  0  0
 42109  1  0  0  0
 42110  1  0  0  0
 43 44  1  0  0  0
 44111  1  0  0  0
 45 46  2  0  0  0
 45112  1  0  0  0
 46113  1  0  0  0
 47114  1  0  0  0
 47115  1  0  0  0
 48 56  1  0  0  0
 48 65  1  0  0  0
 48116  1  0  0  0
 49 50  1  0  0  0
 49 53  1  0  0  0
 49 64  1  0  0  0
 49117  1  0  0  0
 50 51  1  0  0  0
 50118  1  0  0  0
 50119  1  0  0  0
 51 52  1  0  0  0
 51120  1  0  0  0
 51121  1  0  0  0
 52122  1  0  0  0
 52123  1  0  0  0
 53 54  1  0  0  0
 54 55  2  0  0  0
 54124  1  0  0  0
 55 57  1  0  0  0
 55125  1  0  0  0
 56 69  2  0  0  0
 57 58  2  0  0  0
 57126  1  0  0  0
 58127  1  0  0  0
 59 60  1  0  0  0
 59 61  1  0  0  0
 59 62  1  0  0  0
 60128  1  0  0  0
 60129  1  0  0  0
 60130  1  0  0  0
 61131  1  0  0  0
 61132  1  0  0  0
 61133  1  0  0  0
 62134  1  0  0  0
 62135  1  0  0  0
 62136  1  0  0  0
 63 65  1  0  0  0
 63137  1  0  0  0
 63138  1  0  0  0
 63139  1  0  0  0
 64140  1  0  0  0
 65141  1  0  0  0
 68 78  1  0  0  0
 71 73  1  0  0  0
 71 75  1  0  0  0
 71142  1  0  0  0
 71143  1  0  0  0
 72 74  1  0  0  0
 72 75  1  0  0  0
 72144  1  0  0  0
 72145  1  0  0  0
 73 80  1  0  0  0
 73146  1  0  0  0
 73147  1  0  0  0
 74 80  1  0  0  0
 74148  1  0  0  0
 74149  1  0  0  0
 75 81  1  0  0  0
 75150  1  0  0  0
 76151  1  0  0  0
 76152  1  0  0  0
 76153  1  0  0  0
 76 78  1  0  0  0
 77 79  1  0  0  0
 77 81  1  0  0  0
 77154  1  0  0  0
 77155  1  0  0  0
 78 79  1  0  0  0
 78156  1  0  0  0
 79 82  1  0  0  0
 79157  1  0  0  0
 81158  1  0  0  0
 81159  1  0  0  0
 82160  1  0  0  0
M  CHG  1  81   1
M  ISO  4   1 100  68 101  78 101  80 100
M  END
> <chiral flag>
0

> <version>
0

> <s_m_source_file>
/data/baiqing/PycharmProjects/Reinvent-master-3.2/result/LINK_invent/BTK/process_docking_weight1_custom_sum_contain_oxygen_bond_distance_aromatic_linkinvent_7_9_3/rearranged_h_0113.sdf

> <i_m_source_file_index>
50

> <r_mmod_Potential_Energy-OPLS-2005>
378.693023681641

> <r_mmod_Stretch_Energy-OPLS-2005>
189.053146362305

> <r_mmod_Bend_Energy-OPLS-2005>
234.3359375

> <r_mmod_Torsional_Energy-OPLS-2005>
387.827423095703

> <r_mmod_Improper_Torsional_Energy-OPLS-2005>
3.54566359519958

> <r_mmod_Van_der_Waal_Energy-OPLS-2005>
113.475799560547

> <r_mmod_Electrostatic_Energy-OPLS-2005>
-247.872116088867

> <r_mmod_Solvation_Energy-OPLS-2005>
-448.841949462891

> <b_mmod_Minimization_Converged-OPLS-2005>
0

> <r_mmod_RMS_Derivative-OPLS-2005>
8.38847064971924

$$$$
51
                    3D
 Structure written by MMmdl.
161169  0  0  1  0            999 V2000
  -30.7269  -14.5311   20.6220 C   0  0  0  0  0  0
  -30.4182  -12.3588   19.4550 C   0  0  0  0  0  0
  -29.5022  -12.5232   18.2247 C   0  0  0  0  0  0
  -28.0240  -12.3641   18.6252 C   0  0  0  0  0  0
  -27.6538  -13.2179   19.8648 C   0  0  2  0  0  0
  -28.6849  -13.0354   20.9952 C   0  0  0  0  0  0
  -25.2544  -13.8178   20.5677 C   0  0  0  0  0  0
  -24.1812  -13.0439   20.9176 C   0  0  0  0  0  0
  -24.6384  -11.6911   20.8717 C   0  0  0  0  0  0
  -23.9057  -10.4291   21.0393 C   0  0  0  0  0  0
  -24.3610   -9.4213   21.9178 C   0  0  0  0  0  0
  -23.6292   -8.2243   22.0751 C   0  0  0  0  0  0
  -22.4276   -8.0275   21.3540 C   0  0  0  0  0  0
  -21.9911   -9.0241   20.4637 C   0  0  0  0  0  0
  -22.7232  -10.2124   20.3042 C   0  0  0  0  0  0
  -21.6856   -6.0736   22.5282 C   0  0  0  0  0  0
  -21.4013   -6.5638   23.8211 C   0  0  0  0  0  0
  -21.3660   -5.6789   24.9176 C   0  0  0  0  0  0
  -21.6042   -4.3055   24.7226 C   0  0  0  0  0  0
  -21.8820   -3.8146   23.4344 C   0  0  0  0  0  0
  -21.9190   -4.6961   22.3403 C   0  0  0  0  0  0
  -22.7833  -13.5224   21.1850 C   0  0  0  0  0  0
  -22.1662   -4.2148   21.0981 F   0  0  0  0  0  0
  -21.5629   -3.4540   25.7738 F   0  0  0  0  0  0
  -30.0206  -13.3643   20.4653 N   0  0  0  0  0  0
  -26.2973  -12.9364   20.3285 N   0  0  0  0  0  0
  -25.9306  -11.6513   20.5709 N   0  0  0  0  0  0
  -22.0473  -12.8200   22.0393 N   0  0  0  0  0  0
  -25.4255  -15.1904   20.4133 N   0  0  0  0  0  0
  -31.8054  -14.6900   20.0400 O   0  0  0  0  0  0
  -21.6641   -6.8875   21.4240 O   0  0  0  0  0  0
  -22.3512  -14.5534   20.6713 O   0  0  0  0  0  0
  -24.6215  -31.8637   23.2060 C   0  0  0  0  0  0
  -25.9076  -32.4804   23.8381 C   0  0  1  0  0  0
  -27.2251  -27.3737   20.1100 C   0  0  0  0  0  0
  -25.5905  -33.8603   24.2311 N   0  0  0  0  0  0
  -23.4124  -30.4878   21.5478 C   0  0  2  0  0  0
  -24.8591  -28.9495   20.1118 C   0  0  0  0  0  0
  -22.7448  -29.4645   22.4956 C   0  0  0  0  0  0
  -18.0277  -28.1381   22.8487 C   0  0  0  0  0  0
  -24.1483  -36.7302   23.2641 C   0  0  0  0  0  0
  -25.9477  -30.8131   21.3656 C   0  0  0  0  0  0
  -26.0247  -29.4430   20.7120 C   0  0  0  0  0  0
  -27.2145  -28.6664   20.7018 C   0  0  0  0  0  0
  -26.0453  -26.9228   19.4784 C   0  0  0  0  0  0
  -24.8682  -27.6924   19.4866 C   0  0  0  0  0  0
  -23.6237  -29.8219   20.1623 C   0  0  0  0  0  0
  -25.4104  -36.3103   24.0338 C   0  0  1  0  0  0
  -20.5875  -28.3677   23.1295 C   0  0  2  0  0  0
  -20.6769  -26.9409   22.5400 C   0  0  0  0  0  0
  -19.5744  -26.6390   21.5202 C   0  0  0  0  0  0
  -18.1923  -26.7925   22.1617 C   0  0  0  0  0  0
  -19.1531  -28.8843   23.2893 C   0  0  0  0  0  0
  -18.9458  -30.1443   23.8910 C   0  0  0  0  0  0
  -17.6458  -30.6584   24.0565 C   0  0  0  0  0  0
  -25.9036  -34.9469   23.5125 C   0  0  0  0  0  0
  -16.5350  -29.9085   23.6329 C   0  0  0  0  0  0
  -16.7267  -28.6503   23.0348 C   0  0  0  0  0  0
  -26.4481  -31.6592   25.0725 C   0  0  0  0  0  0
  -25.3726  -31.3662   26.1448 C   0  0  0  0  0  0
  -27.0342  -30.3053   24.6100 C   0  0  0  0  0  0
  -27.6046  -32.4310   25.7498 C   0  0  0  0  0  0
  -27.5571  -37.1818   24.8469 C   0  0  0  0  0  0
  -21.4169  -29.3049   22.3711 N   0  0  0  0  0  0
  -26.4287  -37.3793   23.9404 N   0  0  0  0  0  0
  -24.6797  -31.0692   22.0982 N   0  0  0  0  0  0
  -23.4196  -28.8173   23.3009 O   0  0  0  0  0  0
  -28.3499  -26.5560   20.1300 O   0  0  0  0  0  0
  -26.5608  -34.8927   22.4690 O   0  0  0  0  0  0
  -23.5389  -32.1404   23.7416 O   0  0  0  0  0  0
  -30.1820  -18.1571   21.9008 C   0  0  0  0  0  0
  -29.5302  -17.7840   20.0086 C   0  0  0  0  0  0
  -30.5178  -17.0014   20.9158 C   0  0  0  0  0  0
  -31.1348  -21.7533   20.6809 C   0  0  0  0  0  0
  -29.9121  -15.4508   22.7342 C   0  0  0  0  0  0
  -29.1208  -20.1505   20.8501 C   0  0  0  0  0  0
  -29.0590  -24.0633   20.1017 C   0  0  0  0  0  0
  -28.1525  -25.2113   20.6777 C   0  0  0  0  0  0
  -29.6566  -21.5335   20.2891 C   0  0  1  0  0  0
  -30.0387  -18.9884   20.6963 N   0  0  0  0  0  0
  -30.1508  -15.5852   21.2864 N   0  0  0  0  0  0
  -28.8109  -22.7059   20.7247 N   0  3  0  0  0  0
  -31.4645  -12.4480   19.1583 H   0  0  0  0  0  0
  -30.3217  -11.3547   19.8710 H   0  0  0  0  0  0
  -29.7633  -11.7923   17.4589 H   0  0  0  0  0  0
  -29.6591  -13.5059   17.7770 H   0  0  0  0  0  0
  -27.8502  -11.3084   18.8381 H   0  0  0  0  0  0
  -27.3754  -12.6169   17.7858 H   0  0  0  0  0  0
  -27.6881  -14.2622   19.5531 H   0  0  0  0  0  0
  -28.6760  -12.0067   21.3575 H   0  0  0  0  0  0
  -28.3834  -13.6426   21.8436 H   0  0  0  0  0  0
  -25.2753   -9.5697   22.4754 H   0  0  0  0  0  0
  -24.0003   -7.4639   22.7475 H   0  0  0  0  0  0
  -21.0844   -8.8747   19.8940 H   0  0  0  0  0  0
  -22.3685  -10.9655   19.6144 H   0  0  0  0  0  0
  -21.2004   -7.6146   23.9713 H   0  0  0  0  0  0
  -21.1483   -6.0524   25.9077 H   0  0  0  0  0  0
  -22.0597   -2.7608   23.2848 H   0  0  0  0  0  0
  -22.4084  -11.9858   22.4780 H   0  0  0  0  0  0
  -21.1071  -13.1190   22.2564 H   0  0  0  0  0  0
  -24.6645  -15.8491   20.5402 H   0  0  0  0  0  0
  -26.2852  -15.6311   20.1119 H   0  0  0  0  0  0
  -26.7154  -32.5496   23.1146 H   0  0  0  0  0  0
  -25.0068  -33.9764   25.0465 H   0  0  0  0  0  0
  -22.7043  -31.3068   21.4060 H   0  0  0  0  0  0
  -23.3750  -35.9631   23.3309 H   0  0  0  0  0  0
  -24.3577  -36.8908   22.2054 H   0  0  0  0  0  0
  -23.7228  -37.6506   23.6648 H   0  0  0  0  0  0
  -26.0620  -31.5751   20.5933 H   0  0  0  0  0  0
  -26.8361  -30.8709   21.9834 H   0  0  0  0  0  0
  -28.1131  -29.0417   21.1710 H   0  0  0  0  0  0
  -26.0239  -25.9660   18.9758 H   0  0  0  0  0  0
  -23.9770  -27.3127   19.0069 H   0  0  0  0  0  0
  -23.7367  -30.5983   19.4050 H   0  0  0  0  0  0
  -22.7455  -29.2470   19.8626 H   0  0  0  0  0  0
  -25.1282  -36.1978   25.0833 H   0  0  0  0  0  0
  -20.9969  -28.3236   24.1412 H   0  0  0  0  0  0
  -20.5670  -26.2281   23.3588 H   0  0  0  0  0  0
  -21.6634  -26.7443   22.1186 H   0  0  0  0  0  0
  -19.6908  -25.6307   21.1214 H   0  0  0  0  0  0
  -19.6679  -27.3215   20.6743 H   0  0  0  0  0  0
  -17.4190  -26.6678   21.4021 H   0  0  0  0  0  0
  -18.0331  -26.0057   22.9004 H   0  0  0  0  0  0
  -19.7936  -30.7260   24.2283 H   0  0  0  0  0  0
  -17.5013  -31.6265   24.5166 H   0  0  0  0  0  0
  -15.5353  -30.2997   23.7641 H   0  0  0  0  0  0
  -15.8662  -28.0830   22.7056 H   0  0  0  0  0  0
  -24.5934  -30.6985   25.7752 H   0  0  0  0  0  0
  -24.8873  -32.2795   26.4904 H   0  0  0  0  0  0
  -25.8065  -30.8820   27.0205 H   0  0  0  0  0  0
  -26.2912  -29.6798   24.1143 H   0  0  0  0  0  0
  -27.4135  -29.7295   25.4551 H   0  0  0  0  0  0
  -27.8719  -30.4405   23.9253 H   0  0  0  0  0  0
  -27.2690  -33.3634   26.2047 H   0  0  0  0  0  0
  -28.3882  -32.6822   25.0338 H   0  0  0  0  0  0
  -28.0682  -31.8440   26.5438 H   0  0  0  0  0  0
  -28.2592  -38.0115   24.7517 H   0  0  0  0  0  0
  -28.1068  -36.2643   24.6303 H   0  0  0  0  0  0
  -27.2284  -37.1472   25.8874 H   0  0  0  0  0  0
  -20.9335  -29.8798   21.6954 H   0  0  0  0  0  0
  -26.0176  -38.2875   24.1392 H   0  0  0  0  0  0
  -30.9986  -18.5086   22.5339 H   0  0  0  0  0  0
  -29.2290  -18.0636   22.4285 H   0  0  0  0  0  0
  -28.4727  -17.6123   20.2245 H   0  0  0  0  0  0
  -29.7635  -17.8039   18.9428 H   0  0  0  0  0  0
  -31.5501  -17.1000   20.5650 H   0  0  0  0  0  0
  -31.7658  -20.9438   20.3136 H   0  0  0  0  0  0
  -31.2574  -21.7977   21.7632 H   0  0  0  0  0  0
  -31.5439  -22.6684   20.2566 H   0  0  0  0  0  0
  -30.6329  -16.0259   23.3169 H   0  0  0  0  0  0
  -30.0105  -14.4245   23.0923 H   0  0  0  0  0  0
  -28.9089  -15.7927   22.9914 H   0  0  0  0  0  0
  -28.1570  -19.9199   20.3930 H   0  0  0  0  0  0
  -28.9172  -20.2809   21.9144 H   0  0  0  0  0  0
  -30.0990  -24.3527   20.2445 H   0  0  0  0  0  0
  -28.9010  -23.9890   19.0254 H   0  0  0  0  0  0
  -28.3345  -25.2872   21.7501 H   0  0  0  0  0  0
  -27.1162  -24.8855   20.5954 H   0  0  0  0  0  0
  -29.6069  -21.4839   19.1999 H   0  0  0  0  0  0
  -27.8511  -22.4573   20.5373 H   0  0  0  0  0  0
  -28.8946  -22.7897   21.7266 H   0  0  0  0  0  0
  1 25  1  0  0  0
  1 30  2  0  0  0
  1 81  1  0  0  0
  2  3  1  0  0  0
  2 25  1  0  0  0
  2 83  1  0  0  0
  2 84  1  0  0  0
  3  4  1  0  0  0
  3 85  1  0  0  0
  3 86  1  0  0  0
  4  5  1  0  0  0
  4 87  1  0  0  0
  4 88  1  0  0  0
  5  6  1  0  0  0
  5 26  1  0  0  0
  5 89  1  0  0  0
  6 25  1  0  0  0
  6 90  1  0  0  0
  6 91  1  0  0  0
  7  8  2  0  0  0
  7 26  1  0  0  0
  7 29  1  0  0  0
  8  9  1  0  0  0
  8 22  1  0  0  0
  9 10  1  0  0  0
  9 27  2  0  0  0
 10 11  2  0  0  0
 10 15  1  0  0  0
 11 12  1  0  0  0
 11 92  1  0  0  0
 12 13  2  0  0  0
 12 93  1  0  0  0
 13 14  1  0  0  0
 13 31  1  0  0  0
 14 15  2  0  0  0
 14 94  1  0  0  0
 15 95  1  0  0  0
 16 17  2  0  0  0
 16 21  1  0  0  0
 16 31  1  0  0  0
 17 18  1  0  0  0
 17 96  1  0  0  0
 18 19  2  0  0  0
 18 97  1  0  0  0
 19 20  1  0  0  0
 19 24  1  0  0  0
 20 21  2  0  0  0
 20 98  1  0  0  0
 21 23  1  0  0  0
 22 28  1  0  0  0
 22 32  2  0  0  0
 26 27  1  0  0  0
 28 99  1  0  0  0
 28100  1  0  0  0
 29101  1  0  0  0
 29102  1  0  0  0
 33 34  1  0  0  0
 33 66  1  0  0  0
 33 70  2  0  0  0
 34 36  1  0  0  0
 34 59  1  0  0  0
 34103  1  0  0  0
 35 44  2  0  0  0
 35 45  1  0  0  0
 35 68  1  0  0  0
 36 56  1  0  0  0
 36104  1  0  0  0
 37 39  1  0  0  0
 37 47  1  0  0  0
 37 66  1  0  0  0
 37105  1  0  0  0
 38 43  2  0  0  0
 38 46  1  0  0  0
 38 47  1  0  0  0
 39 64  1  0  0  0
 39 67  2  0  0  0
 40 52  1  0  0  0
 40 53  2  0  0  0
 40 58  1  0  0  0
 41106  1  0  0  0
 41107  1  0  0  0
 41108  1  0  0  0
 41 48  1  0  0  0
 42 43  1  0  0  0
 42 66  1  0  0  0
 42109  1  0  0  0
 42110  1  0  0  0
 43 44  1  0  0  0
 44111  1  0  0  0
 45 46  2  0  0  0
 45112  1  0  0  0
 46113  1  0  0  0
 47114  1  0  0  0
 47115  1  0  0  0
 48 56  1  0  0  0
 48 65  1  0  0  0
 48116  1  0  0  0
 49 50  1  0  0  0
 49 53  1  0  0  0
 49 64  1  0  0  0
 49117  1  0  0  0
 50 51  1  0  0  0
 50118  1  0  0  0
 50119  1  0  0  0
 51 52  1  0  0  0
 51120  1  0  0  0
 51121  1  0  0  0
 52122  1  0  0  0
 52123  1  0  0  0
 53 54  1  0  0  0
 54 55  2  0  0  0
 54124  1  0  0  0
 55 57  1  0  0  0
 55125  1  0  0  0
 56 69  2  0  0  0
 57 58  2  0  0  0
 57126  1  0  0  0
 58127  1  0  0  0
 59 60  1  0  0  0
 59 61  1  0  0  0
 59 62  1  0  0  0
 60128  1  0  0  0
 60129  1  0  0  0
 60130  1  0  0  0
 61131  1  0  0  0
 61132  1  0  0  0
 61133  1  0  0  0
 62134  1  0  0  0
 62135  1  0  0  0
 62136  1  0  0  0
 63 65  1  0  0  0
 63137  1  0  0  0
 63138  1  0  0  0
 63139  1  0  0  0
 64140  1  0  0  0
 65141  1  0  0  0
 68 78  1  0  0  0
 71 73  1  0  0  0
 71 80  1  0  0  0
 71142  1  0  0  0
 71143  1  0  0  0
 72 73  1  0  0  0
 72 80  1  0  0  0
 72144  1  0  0  0
 72145  1  0  0  0
 73 81  1  0  0  0
 73146  1  0  0  0
 74147  1  0  0  0
 74148  1  0  0  0
 74149  1  0  0  0
 74 79  1  0  0  0
 75 81  1  0  0  0
 75150  1  0  0  0
 75151  1  0  0  0
 75152  1  0  0  0
 76 79  1  0  0  0
 76 80  1  0  0  0
 76153  1  0  0  0
 76154  1  0  0  0
 77 78  1  0  0  0
 77 82  1  0  0  0
 77155  1  0  0  0
 77156  1  0  0  0
 78157  1  0  0  0
 78158  1  0  0  0
 79 82  1  0  0  0
 79159  1  0  0  0
 82160  1  0  0  0
 82161  1  0  0  0
M  CHG  1  82   1
M  ISO  4   1 100  68 101  78 101  81 100
M  END
> <chiral flag>
0

> <version>
0

> <s_m_source_file>
/data/baiqing/PycharmProjects/Reinvent-master-3.2/result/LINK_invent/BTK/process_docking_weight1_custom_sum_contain_oxygen_bond_distance_aromatic_linkinvent_7_9_3/rearranged_h_0113.sdf

> <i_m_source_file_index>
51

> <r_mmod_Potential_Energy-OPLS-2005>
100.599624633789

> <r_mmod_Stretch_Energy-OPLS-2005>
64.2308120727539

> <r_mmod_Bend_Energy-OPLS-2005>
162.022033691406

> <r_mmod_Torsional_Energy-OPLS-2005>
325.732269287109

> <r_mmod_Improper_Torsional_Energy-OPLS-2005>
6.58186864852905

> <r_mmod_Van_der_Waal_Energy-OPLS-2005>
148.616012573242

> <r_mmod_Electrostatic_Energy-OPLS-2005>
-183.730041503906

> <r_mmod_Solvation_Energy-OPLS-2005>
-446.656768798828

> <b_mmod_Minimization_Converged-OPLS-2005>
0

> <r_mmod_RMS_Derivative-OPLS-2005>
1.01548528671265

$$$$
52
                    3D
 Structure written by MMmdl.
149157  0  0  1  0            999 V2000
  -30.3846  -15.3886   20.3790 C   0  0  0  0  0  0
  -30.4421  -12.9083   19.5184 C   0  0  0  0  0  0
  -29.5419  -12.5932   18.2954 C   0  0  0  0  0  0
  -28.0941  -12.3015   18.7280 C   0  0  0  0  0  0
  -27.6065  -13.2830   19.8207 C   0  0  2  0  0  0
  -28.6393  -13.5035   20.9445 C   0  0  0  0  0  0
  -25.2395  -13.8249   20.5811 C   0  0  0  0  0  0
  -24.1734  -13.0437   20.9269 C   0  0  0  0  0  0
  -24.6393  -11.6932   20.8753 C   0  0  0  0  0  0
  -23.9079  -10.4293   21.0397 C   0  0  0  0  0  0
  -24.3624   -9.4213   21.9182 C   0  0  0  0  0  0
  -23.6304   -8.2246   22.0754 C   0  0  0  0  0  0
  -22.4291   -8.0273   21.3535 C   0  0  0  0  0  0
  -21.9916   -9.0245   20.4650 C   0  0  0  0  0  0
  -22.7234  -10.2128   20.3060 C   0  0  0  0  0  0
  -21.6862   -6.0728   22.5268 C   0  0  0  0  0  0
  -21.4023   -6.5638   23.8197 C   0  0  0  0  0  0
  -21.3669   -5.6796   24.9165 C   0  0  0  0  0  0
  -21.6048   -4.3053   24.7220 C   0  0  0  0  0  0
  -21.8821   -3.8141   23.4339 C   0  0  0  0  0  0
  -21.9204   -4.6957   22.3395 C   0  0  0  0  0  0
  -22.7762  -13.5188   21.1907 C   0  0  0  0  0  0
  -22.1669   -4.2150   21.0969 F   0  0  0  0  0  0
  -21.5638   -3.4527   25.7730 F   0  0  0  0  0  0
  -29.8409  -14.0622   20.2953 N   0  0  0  0  0  0
  -26.2811  -12.9531   20.3245 N   0  0  0  0  0  0
  -25.9332  -11.6622   20.5718 N   0  0  0  0  0  0
  -22.0402  -12.8176   22.0452 N   0  0  0  0  0  0
  -25.4052  -15.1996   20.4300 N   0  0  0  0  0  0
  -31.6197  -15.3742   20.2511 O   0  0  0  0  0  0
  -21.6647   -6.8868   21.4231 O   0  0  0  0  0  0
  -22.3440  -14.5488   20.6747 O   0  0  0  0  0  0
  -24.6686  -31.8197   23.1655 C   0  0  0  0  0  0
  -25.9337  -32.4579   23.8151 C   0  0  1  0  0  0
  -27.2108  -26.8575   20.2178 C   0  0  0  0  0  0
  -25.5986  -33.8392   24.2060 N   0  0  0  0  0  0
  -23.4866  -30.4269   21.5187 C   0  0  2  0  0  0
  -24.9380  -28.7953   20.1265 C   0  0  0  0  0  0
  -22.7697  -29.4420   22.4800 C   0  0  0  0  0  0
  -18.0323  -28.1400   22.8472 C   0  0  0  0  0  0
  -24.1483  -36.7184   23.2634 C   0  0  0  0  0  0
  -26.0588  -30.6046   21.4038 C   0  0  0  0  0  0
  -26.1268  -29.1832   20.7591 C   0  0  0  0  0  0
  -27.2595  -28.2395   20.7705 C   0  0  0  0  0  0
  -25.9909  -26.6357   19.5389 C   0  0  0  0  0  0
  -24.8992  -27.5425   19.4946 C   0  0  0  0  0  0
  -23.7295  -29.7341   20.1499 C   0  0  0  0  0  0
  -25.4127  -36.2962   24.0299 C   0  0  1  0  0  0
  -20.5950  -28.3746   23.1189 C   0  0  2  0  0  0
  -20.6804  -26.9426   22.5405 C   0  0  0  0  0  0
  -19.5773  -26.6368   21.5219 C   0  0  0  0  0  0
  -18.1955  -26.7935   22.1631 C   0  0  0  0  0  0
  -19.1586  -28.8903   23.2811 C   0  0  0  0  0  0
  -18.9492  -30.1494   23.8838 C   0  0  0  0  0  0
  -17.6485  -30.6593   24.0548 C   0  0  0  0  0  0
  -25.9112  -34.9349   23.5005 C   0  0  0  0  0  0
  -16.5377  -29.9070   23.6340 C   0  0  0  0  0  0
  -16.7310  -28.6490   23.0368 C   0  0  0  0  0  0
  -26.4565  -31.6533   25.0698 C   0  0  0  0  0  0
  -25.3676  -31.3818   26.1351 C   0  0  0  0  0  0
  -27.0446  -30.2884   24.6457 C   0  0  0  0  0  0
  -27.6062  -32.4338   25.7501 C   0  0  0  0  0  0
  -27.5589  -37.1719   24.8439 C   0  0  0  0  0  0
  -21.4359  -29.3033   22.3536 N   0  0  0  0  0  0
  -26.4252  -37.3723   23.9455 N   0  0  0  0  0  0
  -24.7602  -30.9798   22.0824 N   0  0  0  0  0  0
  -23.4218  -28.7997   23.3068 O   0  0  0  0  0  0
  -28.2075  -25.7250   20.2108 O   0  0  0  0  0  0
  -26.5726  -34.8889   22.4608 O   0  0  0  0  0  0
  -23.5743  -32.1197   23.6704 O   0  0  0  0  0  0
  -29.0946  -21.2459   18.0093 C   0  0  0  0  0  0
  -29.2938  -20.0140   18.6869 C   0  0  0  0  0  0
  -28.7962  -22.4691   18.6638 C   0  0  0  0  0  0
  -29.2274  -19.9053   20.0861 C   0  0  0  0  0  0
  -28.6471  -22.5602   20.0568 C   0  0  0  0  0  0
  -28.2294  -24.1831   22.1558 C   0  0  0  0  0  0
  -29.7573  -18.3427   20.7608 C   0  0  0  0  0  0
  -27.9934  -24.1144   20.6437 C   0  0  1  0  0  0
  -28.8736  -21.2242   20.7108 N   0  0  0  0  0  0
  -29.6043  -16.6787   20.4113 N   0  0  0  0  0  0
  -31.4443  -13.1584   19.1650 H   0  0  0  0  0  0
  -30.5655  -12.0303   20.1546 H   0  0  0  0  0  0
  -29.9409  -11.7442   17.7390 H   0  0  0  0  0  0
  -29.5531  -13.4455   17.6145 H   0  0  0  0  0  0
  -28.0643  -11.2817   19.1143 H   0  0  0  0  0  0
  -27.4281  -12.3252   17.8650 H   0  0  0  0  0  0
  -27.5016  -14.2371   19.3030 H   0  0  0  0  0  0
  -28.8488  -12.5814   21.4882 H   0  0  0  0  0  0
  -28.2554  -14.2132   21.6807 H   0  0  0  0  0  0
  -25.2753   -9.5710   22.4771 H   0  0  0  0  0  0
  -24.0023   -7.4631   22.7463 H   0  0  0  0  0  0
  -21.0856   -8.8765   19.8926 H   0  0  0  0  0  0
  -22.3687  -10.9685   19.6186 H   0  0  0  0  0  0
  -21.2003   -7.6141   23.9707 H   0  0  0  0  0  0
  -21.1501   -6.0514   25.9067 H   0  0  0  0  0  0
  -22.0594   -2.7605   23.2833 H   0  0  0  0  0  0
  -22.4046  -11.9866   22.4871 H   0  0  0  0  0  0
  -21.1013  -13.1203   22.2632 H   0  0  0  0  0  0
  -24.6412  -15.8538   20.5602 H   0  0  0  0  0  0
  -26.2512  -15.6389   20.0918 H   0  0  0  0  0  0
  -26.7420  -32.5104   23.0870 H   0  0  0  0  0  0
  -25.0092  -33.9461   25.0184 H   0  0  0  0  0  0
  -22.8017  -31.2593   21.3422 H   0  0  0  0  0  0
  -23.3809  -35.9440   23.3162 H   0  0  0  0  0  0
  -24.3582  -36.8969   22.2077 H   0  0  0  0  0  0
  -23.7134  -37.6287   23.6773 H   0  0  0  0  0  0
  -26.2402  -31.3366   20.6156 H   0  0  0  0  0  0
  -26.9183  -30.6720   22.0594 H   0  0  0  0  0  0
  -28.1634  -28.5426   21.2780 H   0  0  0  0  0  0
  -25.8526  -25.6818   19.0504 H   0  0  0  0  0  0
  -23.9956  -27.2365   18.9857 H   0  0  0  0  0  0
  -23.8922  -30.4973   19.3880 H   0  0  0  0  0  0
  -22.8368  -29.1931   19.8321 H   0  0  0  0  0  0
  -25.1302  -36.1740   25.0781 H   0  0  0  0  0  0
  -21.0038  -28.3344   24.1316 H   0  0  0  0  0  0
  -20.5689  -26.2363   23.3641 H   0  0  0  0  0  0
  -21.6662  -26.7399   22.1207 H   0  0  0  0  0  0
  -19.6931  -25.6263   21.1278 H   0  0  0  0  0  0
  -19.6706  -27.3151   20.6727 H   0  0  0  0  0  0
  -17.4225  -26.6672   21.4032 H   0  0  0  0  0  0
  -18.0356  -26.0087   22.9041 H   0  0  0  0  0  0
  -19.7965  -30.7331   24.2179 H   0  0  0  0  0  0
  -17.5028  -31.6268   24.5152 H   0  0  0  0  0  0
  -15.5374  -30.2952   23.7696 H   0  0  0  0  0  0
  -15.8710  -28.0783   22.7126 H   0  0  0  0  0  0
  -24.5768  -30.7301   25.7617 H   0  0  0  0  0  0
  -24.8990  -32.3056   26.4751 H   0  0  0  0  0  0
  -25.7858  -30.8927   27.0154 H   0  0  0  0  0  0
  -26.3109  -29.6568   24.1435 H   0  0  0  0  0  0
  -27.3922  -29.7246   25.5122 H   0  0  0  0  0  0
  -27.9083  -30.4043   23.9908 H   0  0  0  0  0  0
  -27.2617  -33.3650   26.2005 H   0  0  0  0  0  0
  -28.3904  -32.6885   25.0361 H   0  0  0  0  0  0
  -28.0699  -31.8523   26.5474 H   0  0  0  0  0  0
  -28.2482  -38.0141   24.7682 H   0  0  0  0  0  0
  -28.1217  -36.2687   24.6016 H   0  0  0  0  0  0
  -27.2348  -37.1053   25.8840 H   0  0  0  0  0  0
  -20.9631  -29.8712   21.6633 H   0  0  0  0  0  0
  -26.0090  -38.2751   24.1589 H   0  0  0  0  0  0
  -29.1803  -21.2548   16.9316 H   0  0  0  0  0  0
  -29.5533  -19.1374   18.1083 H   0  0  0  0  0  0
  -28.6311  -23.3555   18.0661 H   0  0  0  0  0  0
  -27.8935  -23.2723   22.6496 H   0  0  0  0  0  0
  -27.6850  -25.0153   22.6022 H   0  0  0  0  0  0
  -29.2874  -24.3122   22.3800 H   0  0  0  0  0  0
  -29.4427  -18.4093   21.8033 H   0  0  0  0  0  0
  -30.8385  -18.4740   20.8137 H   0  0  0  0  0  0
  -26.9215  -23.9690   20.5065 H   0  0  0  0  0  0
  -28.6237  -16.4595   20.3334 H   0  0  0  0  0  0
  1 25  1  0  0  0
  1 30  2  0  0  0
  1 80  1  0  0  0
  2  3  1  0  0  0
  2 25  1  0  0  0
  2 81  1  0  0  0
  2 82  1  0  0  0
  3  4  1  0  0  0
  3 83  1  0  0  0
  3 84  1  0  0  0
  4  5  1  0  0  0
  4 85  1  0  0  0
  4 86  1  0  0  0
  5  6  1  0  0  0
  5 26  1  0  0  0
  5 87  1  0  0  0
  6 25  1  0  0  0
  6 88  1  0  0  0
  6 89  1  0  0  0
  7  8  2  0  0  0
  7 26  1  0  0  0
  7 29  1  0  0  0
  8  9  1  0  0  0
  8 22  1  0  0  0
  9 10  1  0  0  0
  9 27  2  0  0  0
 10 11  2  0  0  0
 10 15  1  0  0  0
 11 12  1  0  0  0
 11 90  1  0  0  0
 12 13  2  0  0  0
 12 91  1  0  0  0
 13 14  1  0  0  0
 13 31  1  0  0  0
 14 15  2  0  0  0
 14 92  1  0  0  0
 15 93  1  0  0  0
 16 17  2  0  0  0
 16 21  1  0  0  0
 16 31  1  0  0  0
 17 18  1  0  0  0
 17 94  1  0  0  0
 18 19  2  0  0  0
 18 95  1  0  0  0
 19 20  1  0  0  0
 19 24  1  0  0  0
 20 21  2  0  0  0
 20 96  1  0  0  0
 21 23  1  0  0  0
 22 28  1  0  0  0
 22 32  2  0  0  0
 26 27  1  0  0  0
 28 97  1  0  0  0
 28 98  1  0  0  0
 29 99  1  0  0  0
 29100  1  0  0  0
 33 34  1  0  0  0
 33 66  1  0  0  0
 33 70  2  0  0  0
 34 36  1  0  0  0
 34 59  1  0  0  0
 34101  1  0  0  0
 35 44  2  0  0  0
 35 45  1  0  0  0
 35 68  1  0  0  0
 36 56  1  0  0  0
 36102  1  0  0  0
 37 39  1  0  0  0
 37 47  1  0  0  0
 37 66  1  0  0  0
 37103  1  0  0  0
 38 43  2  0  0  0
 38 46  1  0  0  0
 38 47  1  0  0  0
 39 64  1  0  0  0
 39 67  2  0  0  0
 40 52  1  0  0  0
 40 53  2  0  0  0
 40 58  1  0  0  0
 41104  1  0  0  0
 41105  1  0  0  0
 41106  1  0  0  0
 41 48  1  0  0  0
 42 43  1  0  0  0
 42 66  1  0  0  0
 42107  1  0  0  0
 42108  1  0  0  0
 43 44  1  0  0  0
 44109  1  0  0  0
 45 46  2  0  0  0
 45110  1  0  0  0
 46111  1  0  0  0
 47112  1  0  0  0
 47113  1  0  0  0
 48 56  1  0  0  0
 48 65  1  0  0  0
 48114  1  0  0  0
 49 50  1  0  0  0
 49 53  1  0  0  0
 49 64  1  0  0  0
 49115  1  0  0  0
 50 51  1  0  0  0
 50116  1  0  0  0
 50117  1  0  0  0
 51 52  1  0  0  0
 51118  1  0  0  0
 51119  1  0  0  0
 52120  1  0  0  0
 52121  1  0  0  0
 53 54  1  0  0  0
 54 55  2  0  0  0
 54122  1  0  0  0
 55 57  1  0  0  0
 55123  1  0  0  0
 56 69  2  0  0  0
 57 58  2  0  0  0
 57124  1  0  0  0
 58125  1  0  0  0
 59 60  1  0  0  0
 59 61  1  0  0  0
 59 62  1  0  0  0
 60126  1  0  0  0
 60127  1  0  0  0
 60128  1  0  0  0
 61129  1  0  0  0
 61130  1  0  0  0
 61131  1  0  0  0
 62132  1  0  0  0
 62133  1  0  0  0
 62134  1  0  0  0
 63 65  1  0  0  0
 63135  1  0  0  0
 63136  1  0  0  0
 63137  1  0  0  0
 64138  1  0  0  0
 65139  1  0  0  0
 68 78  1  0  0  0
 71 72  2  0  0  0
 71 73  1  0  0  0
 71140  1  0  0  0
 72 74  1  0  0  0
 72141  1  0  0  0
 73 75  2  0  0  0
 73142  1  0  0  0
 74 77  1  0  0  0
 74 79  2  0  0  0
 75 78  1  0  0  0
 75 79  1  0  0  0
 76143  1  0  0  0
 76144  1  0  0  0
 76145  1  0  0  0
 76 78  1  0  0  0
 77 80  1  0  0  0
 77146  1  0  0  0
 77147  1  0  0  0
 78148  1  0  0  0
 80149  1  0  0  0
M  ISO  4   1 100  68 101  78 101  80 100
M  END
> <chiral flag>
0

> <version>
0

> <s_m_source_file>
/data/baiqing/PycharmProjects/Reinvent-master-3.2/result/LINK_invent/BTK/process_docking_weight1_custom_sum_contain_oxygen_bond_distance_aromatic_linkinvent_7_9_3/rearranged_h_0113.sdf

> <i_m_source_file_index>
52

> <r_mmod_Potential_Energy-OPLS-2005>
1303.22326660156

> <r_mmod_Stretch_Energy-OPLS-2005>
695.300231933594

> <r_mmod_Bend_Energy-OPLS-2005>
486.420471191406

> <r_mmod_Torsional_Energy-OPLS-2005>
237.305114746094

> <r_mmod_Improper_Torsional_Energy-OPLS-2005>
6.28504085540771

> <r_mmod_Van_der_Waal_Energy-OPLS-2005>
119.713478088379

> <r_mmod_Electrostatic_Energy-OPLS-2005>
-593.054016113281

> <r_mmod_Solvation_Energy-OPLS-2005>
-232.907608032227

> <b_mmod_Minimization_Converged-OPLS-2005>
0

> <r_mmod_RMS_Derivative-OPLS-2005>
2.52926635742188

$$$$
53
                    3D
 Structure written by MMmdl.
157165  0  0  1  0            999 V2000
  -30.6100  -14.7337   20.4465 C   0  0  0  0  0  0
  -30.4290  -12.4556   19.4543 C   0  0  0  0  0  0
  -29.5042  -12.5230   18.2190 C   0  0  0  0  0  0
  -28.0249  -12.3553   18.6240 C   0  0  0  0  0  0
  -27.6369  -13.2327   19.8462 C   0  0  2  0  0  0
  -28.6870  -13.1534   20.9744 C   0  0  0  0  0  0
  -25.2489  -13.8177   20.5658 C   0  0  0  0  0  0
  -24.1796  -13.0436   20.9256 C   0  0  0  0  0  0
  -24.6378  -11.6921   20.8749 C   0  0  0  0  0  0
  -23.9071  -10.4298   21.0408 C   0  0  0  0  0  0
  -24.3601   -9.4202   21.9180 C   0  0  0  0  0  0
  -23.6289   -8.2220   22.0757 C   0  0  0  0  0  0
  -22.4264   -8.0271   21.3556 C   0  0  0  0  0  0
  -21.9911   -9.0229   20.4643 C   0  0  0  0  0  0
  -22.7239  -10.2125   20.3071 C   0  0  0  0  0  0
  -21.6856   -6.0732   22.5279 C   0  0  0  0  0  0
  -21.4013   -6.5629   23.8211 C   0  0  0  0  0  0
  -21.3672   -5.6781   24.9156 C   0  0  0  0  0  0
  -21.6056   -4.3045   24.7205 C   0  0  0  0  0  0
  -21.8831   -3.8151   23.4317 C   0  0  0  0  0  0
  -21.9203   -4.6970   22.3392 C   0  0  0  0  0  0
  -22.7817  -13.5216   21.1871 C   0  0  0  0  0  0
  -22.1669   -4.2149   21.0977 F   0  0  0  0  0  0
  -21.5635   -3.4543   25.7718 F   0  0  0  0  0  0
  -29.9834  -13.5110   20.3890 N   0  0  0  0  0  0
  -26.2895  -12.9369   20.3240 N   0  0  0  0  0  0
  -25.9288  -11.6517   20.5708 N   0  0  0  0  0  0
  -22.0467  -12.8176   22.0402 N   0  0  0  0  0  0
  -25.4173  -15.1871   20.3908 N   0  0  0  0  0  0
  -31.8050  -14.8280   20.1577 O   0  0  0  0  0  0
  -21.6649   -6.8848   21.4228 O   0  0  0  0  0  0
  -22.3512  -14.5530   20.6742 O   0  0  0  0  0  0
  -24.6287  -31.8560   23.2017 C   0  0  0  0  0  0
  -25.9123  -32.4740   23.8366 C   0  0  1  0  0  0
  -27.2287  -27.2786   20.1367 C   0  0  0  0  0  0
  -25.5947  -33.8564   24.2276 N   0  0  0  0  0  0
  -23.4291  -30.4745   21.5417 C   0  0  2  0  0  0
  -24.8803  -28.9204   20.1154 C   0  0  0  0  0  0
  -22.7515  -29.4583   22.4916 C   0  0  0  0  0  0
  -18.0265  -28.1357   22.8495 C   0  0  0  0  0  0
  -24.1471  -36.7265   23.2651 C   0  0  0  0  0  0
  -25.9768  -30.7683   21.3928 C   0  0  0  0  0  0
  -26.0505  -29.3982   20.7195 C   0  0  0  0  0  0
  -27.2325  -28.5940   20.7066 C   0  0  0  0  0  0
  -26.0323  -26.8472   19.5276 C   0  0  0  0  0  0
  -24.8741  -27.6543   19.5035 C   0  0  0  0  0  0
  -23.6502  -29.8056   20.1585 C   0  0  0  0  0  0
  -25.4124  -36.3073   24.0312 C   0  0  1  0  0  0
  -20.5879  -28.3674   23.1272 C   0  0  2  0  0  0
  -20.6759  -26.9392   22.5415 C   0  0  0  0  0  0
  -19.5733  -26.6355   21.5215 C   0  0  0  0  0  0
  -18.1906  -26.7906   22.1615 C   0  0  0  0  0  0
  -19.1528  -28.8830   23.2870 C   0  0  0  0  0  0
  -18.9461  -30.1442   23.8859 C   0  0  0  0  0  0
  -17.6457  -30.6579   24.0536 C   0  0  0  0  0  0
  -25.9052  -34.9438   23.5081 C   0  0  0  0  0  0
  -16.5342  -29.9072   23.6327 C   0  0  0  0  0  0
  -16.7263  -28.6484   23.0386 C   0  0  0  0  0  0
  -26.4509  -31.6626   25.0803 C   0  0  0  0  0  0
  -25.3728  -31.3804   26.1526 C   0  0  0  0  0  0
  -27.0457  -30.3033   24.6440 C   0  0  0  0  0  0
  -27.5986  -32.4502   25.7575 C   0  0  0  0  0  0
  -27.5574  -37.1784   24.8452 C   0  0  0  0  0  0
  -21.4226  -29.3009   22.3651 N   0  0  0  0  0  0
  -26.4290  -37.3782   23.9408 N   0  0  0  0  0  0
  -24.6947  -31.0530   22.0978 N   0  0  0  0  0  0
  -23.4210  -28.8105   23.3014 O   0  0  0  0  0  0
  -28.3508  -26.4321   20.1087 O   0  0  0  0  0  0
  -26.5638  -34.8894   22.4659 O   0  0  0  0  0  0
  -23.5462  -32.1402   23.7313 O   0  0  0  0  0  0
  -30.6404  -22.7794   20.9269 C   0  0  0  0  0  0
  -29.3717  -22.4894   20.3916 C   0  0  0  0  0  0
  -31.1128  -20.5215   21.2596 C   0  0  0  0  0  0
  -29.8473  -20.1266   20.7162 C   0  0  0  0  0  0
  -32.1599  -19.5767   21.8261 C   0  0  0  0  0  0
  -28.5286  -23.7104   19.8116 C   0  0  0  0  0  0
  -30.3276  -17.3225   20.5653 C   0  0  0  0  0  0
  -28.2845  -25.0522   20.6868 C   0  0  0  0  0  0
  -29.3215  -18.6053   20.6836 C   0  0  2  0  0  0
  -31.4947  -21.8204   21.3422 N   0  0  0  0  0  0
  -28.9874  -21.1501   20.2834 N   0  0  0  0  0  0
  -29.8398  -15.8729   20.6074 N   0  0  0  0  0  0
  -28.2394  -18.5498   19.6864 N   0  3  0  0  0  0
  -31.4666  -12.5877   19.1477 H   0  0  0  0  0  0
  -30.3801  -11.4740   19.9286 H   0  0  0  0  0  0
  -29.7776  -11.7544   17.4954 H   0  0  0  0  0  0
  -29.6414  -13.4810   17.7138 H   0  0  0  0  0  0
  -27.8509  -11.3002   18.8461 H   0  0  0  0  0  0
  -27.3830  -12.6002   17.7779 H   0  0  0  0  0  0
  -27.6283  -14.2603   19.4846 H   0  0  0  0  0  0
  -28.7180  -12.1501   21.4003 H   0  0  0  0  0  0
  -28.4228  -13.8239   21.7934 H   0  0  0  0  0  0
  -25.2729   -9.5668   22.4755 H   0  0  0  0  0  0
  -24.0030   -7.4593   22.7433 H   0  0  0  0  0  0
  -21.0891   -8.8715   19.8876 H   0  0  0  0  0  0
  -22.3704  -10.9640   19.6175 H   0  0  0  0  0  0
  -21.2003   -7.6141   23.9695 H   0  0  0  0  0  0
  -21.1490   -6.0517   25.9062 H   0  0  0  0  0  0
  -22.0613   -2.7613   23.2818 H   0  0  0  0  0  0
  -22.4123  -11.9856   22.4783 H   0  0  0  0  0  0
  -21.1063  -13.1121   22.2559 H   0  0  0  0  0  0
  -24.5980  -15.7878   20.4087 H   0  0  0  0  0  0
  -26.1523  -15.5394   19.7927 H   0  0  0  0  0  0
  -26.7208  -32.5359   23.1127 H   0  0  0  0  0  0
  -25.0086  -33.9731   25.0419 H   0  0  0  0  0  0
  -22.7225  -31.2923   21.3921 H   0  0  0  0  0  0
  -23.3750  -35.9570   23.3321 H   0  0  0  0  0  0
  -24.3542  -36.8923   22.2062 H   0  0  0  0  0  0
  -23.7197  -37.6436   23.6718 H   0  0  0  0  0  0
  -26.1533  -31.5469   20.6500 H   0  0  0  0  0  0
  -26.8347  -30.7856   22.0509 H   0  0  0  0  0  0
  -28.1428  -28.9627   21.1604 H   0  0  0  0  0  0
  -25.9926  -25.8703   19.0669 H   0  0  0  0  0  0
  -23.9744  -27.2885   19.0257 H   0  0  0  0  0  0
  -23.7760  -30.5818   19.4022 H   0  0  0  0  0  0
  -22.7702  -29.2370   19.8527 H   0  0  0  0  0  0
  -25.1310  -36.1900   25.0805 H   0  0  0  0  0  0
  -20.9958  -28.3255   24.1397 H   0  0  0  0  0  0
  -20.5661  -26.2291   23.3626 H   0  0  0  0  0  0
  -21.6629  -26.7405   22.1199 H   0  0  0  0  0  0
  -19.6892  -25.6257   21.1275 H   0  0  0  0  0  0
  -19.6667  -27.3133   20.6721 H   0  0  0  0  0  0
  -17.4189  -26.6673   21.4001 H   0  0  0  0  0  0
  -18.0273  -26.0040   22.8994 H   0  0  0  0  0  0
  -19.7942  -30.7276   24.2222 H   0  0  0  0  0  0
  -17.5011  -31.6253   24.5153 H   0  0  0  0  0  0
  -15.5348  -30.2956   23.7688 H   0  0  0  0  0  0
  -15.8665  -28.0779   22.7153 H   0  0  0  0  0  0
  -24.5756  -30.7369   25.7808 H   0  0  0  0  0  0
  -24.9115  -32.3021   26.5096 H   0  0  0  0  0  0
  -25.8009  -30.8794   27.0223 H   0  0  0  0  0  0
  -26.3158  -29.6679   24.1425 H   0  0  0  0  0  0
  -27.4038  -29.7408   25.5069 H   0  0  0  0  0  0
  -27.9059  -30.4279   23.9854 H   0  0  0  0  0  0
  -27.2471  -33.3760   26.2176 H   0  0  0  0  0  0
  -28.3760  -32.7222   25.0410 H   0  0  0  0  0  0
  -28.0753  -31.8703   26.5496 H   0  0  0  0  0  0
  -28.2547  -38.0103   24.7556 H   0  0  0  0  0  0
  -28.1112  -36.2650   24.6249 H   0  0  0  0  0  0
  -27.2301  -37.1409   25.8844 H   0  0  0  0  0  0
  -20.9415  -29.8776   21.6876 H   0  0  0  0  0  0
  -26.0147  -38.2839   24.1435 H   0  0  0  0  0  0
  -30.9880  -23.7991   21.0000 H   0  0  0  0  0  0
  -31.7530  -18.9709   22.6354 H   0  0  0  0  0  0
  -32.9978  -20.1310   22.2582 H   0  0  0  0  0  0
  -32.5820  -18.9399   21.0487 H   0  0  0  0  0  0
  -27.5654  -23.3349   19.4650 H   0  0  0  0  0  0
  -29.0517  -24.0060   18.9042 H   0  0  0  0  0  0
  -31.0276  -17.3476   21.3913 H   0  0  0  0  0  0
  -30.9256  -17.4516   19.6603 H   0  0  0  0  0  0
  -29.0570  -25.0713   21.4539 H   0  0  0  0  0  0
  -27.3622  -24.9364   21.2596 H   0  0  0  0  0  0
  -28.8220  -18.5028   21.6504 H   0  0  0  0  0  0
  -28.8621  -15.7184   20.7986 H   0  0  0  0  0  0
  -28.5957  -18.4021   18.7585 H   0  0  0  0  0  0
  -27.8140  -19.4640   19.7110 H   0  0  0  0  0  0
  -27.5455  -17.8668   19.9173 H   0  0  0  0  0  0
  1 25  1  0  0  0
  1 30  2  0  0  0
  1 82  1  0  0  0
  2  3  1  0  0  0
  2 25  1  0  0  0
  2 84  1  0  0  0
  2 85  1  0  0  0
  3  4  1  0  0  0
  3 86  1  0  0  0
  3 87  1  0  0  0
  4  5  1  0  0  0
  4 88  1  0  0  0
  4 89  1  0  0  0
  5  6  1  0  0  0
  5 26  1  0  0  0
  5 90  1  0  0  0
  6 25  1  0  0  0
  6 91  1  0  0  0
  6 92  1  0  0  0
  7  8  2  0  0  0
  7 26  1  0  0  0
  7 29  1  0  0  0
  8  9  1  0  0  0
  8 22  1  0  0  0
  9 10  1  0  0  0
  9 27  2  0  0  0
 10 11  2  0  0  0
 10 15  1  0  0  0
 11 12  1  0  0  0
 11 93  1  0  0  0
 12 13  2  0  0  0
 12 94  1  0  0  0
 13 14  1  0  0  0
 13 31  1  0  0  0
 14 15  2  0  0  0
 14 95  1  0  0  0
 15 96  1  0  0  0
 16 17  2  0  0  0
 16 21  1  0  0  0
 16 31  1  0  0  0
 17 18  1  0  0  0
 17 97  1  0  0  0
 18 19  2  0  0  0
 18 98  1  0  0  0
 19 20  1  0  0  0
 19 24  1  0  0  0
 20 21  2  0  0  0
 20 99  1  0  0  0
 21 23  1  0  0  0
 22 28  1  0  0  0
 22 32  2  0  0  0
 26 27  1  0  0  0
 28100  1  0  0  0
 28101  1  0  0  0
 29102  1  0  0  0
 29103  1  0  0  0
 33 34  1  0  0  0
 33 66  1  0  0  0
 33 70  2  0  0  0
 34 36  1  0  0  0
 34 59  1  0  0  0
 34104  1  0  0  0
 35 44  2  0  0  0
 35 45  1  0  0  0
 35 68  1  0  0  0
 36 56  1  0  0  0
 36105  1  0  0  0
 37 39  1  0  0  0
 37 47  1  0  0  0
 37 66  1  0  0  0
 37106  1  0  0  0
 38 43  2  0  0  0
 38 46  1  0  0  0
 38 47  1  0  0  0
 39 64  1  0  0  0
 39 67  2  0  0  0
 40 52  1  0  0  0
 40 53  2  0  0  0
 40 58  1  0  0  0
 41107  1  0  0  0
 41108  1  0  0  0
 41109  1  0  0  0
 41 48  1  0  0  0
 42 43  1  0  0  0
 42 66  1  0  0  0
 42110  1  0  0  0
 42111  1  0  0  0
 43 44  1  0  0  0
 44112  1  0  0  0
 45 46  2  0  0  0
 45113  1  0  0  0
 46114  1  0  0  0
 47115  1  0  0  0
 47116  1  0  0  0
 48 56  1  0  0  0
 48 65  1  0  0  0
 48117  1  0  0  0
 49 50  1  0  0  0
 49 53  1  0  0  0
 49 64  1  0  0  0
 49118  1  0  0  0
 50 51  1  0  0  0
 50119  1  0  0  0
 50120  1  0  0  0
 51 52  1  0  0  0
 51121  1  0  0  0
 51122  1  0  0  0
 52123  1  0  0  0
 52124  1  0  0  0
 53 54  1  0  0  0
 54 55  2  0  0  0
 54125  1  0  0  0
 55 57  1  0  0  0
 55126  1  0  0  0
 56 69  2  0  0  0
 57 58  2  0  0  0
 57127  1  0  0  0
 58128  1  0  0  0
 59 60  1  0  0  0
 59 61  1  0  0  0
 59 62  1  0  0  0
 60129  1  0  0  0
 60130  1  0  0  0
 60131  1  0  0  0
 61132  1  0  0  0
 61133  1  0  0  0
 61134  1  0  0  0
 62135  1  0  0  0
 62136  1  0  0  0
 62137  1  0  0  0
 63 65  1  0  0  0
 63138  1  0  0  0
 63139  1  0  0  0
 63140  1  0  0  0
 64141  1  0  0  0
 65142  1  0  0  0
 68 78  1  0  0  0
 71 72  2  0  0  0
 71 80  1  0  0  0
 71143  1  0  0  0
 72 76  1  0  0  0
 72 81  1  0  0  0
 73 74  1  0  0  0
 73 75  1  0  0  0
 73 80  2  0  0  0
 74 79  1  0  0  0
 74 81  2  0  0  0
 75144  1  0  0  0
 75145  1  0  0  0
 75146  1  0  0  0
 76 78  1  0  0  0
 76147  1  0  0  0
 76148  1  0  0  0
 77 79  1  0  0  0
 77 82  1  0  0  0
 77149  1  0  0  0
 77150  1  0  0  0
 78151  1  0  0  0
 78152  1  0  0  0
 79 83  1  0  0  0
 79153  1  0  0  0
 82154  1  0  0  0
 83155  1  0  0  0
 83156  1  0  0  0
 83157  1  0  0  0
M  CHG  1  83   1
M  ISO  4   1 100  68 101  78 101  82 100
M  END
> <chiral flag>
0

> <version>
0

> <s_m_source_file>
/data/baiqing/PycharmProjects/Reinvent-master-3.2/result/LINK_invent/BTK/process_docking_weight1_custom_sum_contain_oxygen_bond_distance_aromatic_linkinvent_7_9_3/rearranged_h_0113.sdf

> <i_m_source_file_index>
53

> <r_mmod_Potential_Energy-OPLS-2005>
-131.263336181641

> <r_mmod_Stretch_Energy-OPLS-2005>
128.026458740234

> <r_mmod_Bend_Energy-OPLS-2005>
177.162780761719

> <r_mmod_Torsional_Energy-OPLS-2005>
269.704406738281

> <r_mmod_Improper_Torsional_Energy-OPLS-2005>
8.11617565155029

> <r_mmod_Van_der_Waal_Energy-OPLS-2005>
144.29020690918

> <r_mmod_Electrostatic_Energy-OPLS-2005>
-400.133666992188

> <r_mmod_Solvation_Energy-OPLS-2005>
-534.131774902344

> <b_mmod_Minimization_Converged-OPLS-2005>
0

> <r_mmod_RMS_Derivative-OPLS-2005>
5.40663862228394

$$$$
54
                    3D
 Structure written by MMmdl.
164171  0  0  1  0            999 V2000
  -30.5367  -14.9309   20.4233 C   0  0  0  0  0  0
  -30.4425  -12.5797   19.4792 C   0  0  0  0  0  0
  -29.5188  -12.5236   18.2421 C   0  0  0  0  0  0
  -28.0501  -12.3141   18.6625 C   0  0  0  0  0  0
  -27.6282  -13.2438   19.8312 C   0  0  2  0  0  0
  -28.6743  -13.2627   20.9634 C   0  0  0  0  0  0
  -25.2470  -13.8215   20.5709 C   0  0  0  0  0  0
  -24.1782  -13.0447   20.9233 C   0  0  0  0  0  0
  -24.6393  -11.6928   20.8765 C   0  0  0  0  0  0
  -23.9080  -10.4298   21.0417 C   0  0  0  0  0  0
  -24.3638   -9.4207   21.9184 C   0  0  0  0  0  0
  -23.6308   -8.2241   22.0748 C   0  0  0  0  0  0
  -22.4285   -8.0287   21.3544 C   0  0  0  0  0  0
  -21.9929   -9.0257   20.4641 C   0  0  0  0  0  0
  -22.7262  -10.2137   20.3053 C   0  0  0  0  0  0
  -21.6862   -6.0739   22.5276 C   0  0  0  0  0  0
  -21.4016   -6.5640   23.8215 C   0  0  0  0  0  0
  -21.3660   -5.6788   24.9176 C   0  0  0  0  0  0
  -21.6048   -4.3053   24.7219 C   0  0  0  0  0  0
  -21.8822   -3.8145   23.4339 C   0  0  0  0  0  0
  -21.9201   -4.6966   22.3400 C   0  0  0  0  0  0
  -22.7803  -13.5214   21.1886 C   0  0  0  0  0  0
  -22.1666   -4.2158   21.0973 F   0  0  0  0  0  0
  -21.5629   -3.4530   25.7725 F   0  0  0  0  0  0
  -29.9453  -13.6745   20.3557 N   0  0  0  0  0  0
  -26.2881  -12.9431   20.3221 N   0  0  0  0  0  0
  -25.9317  -11.6570   20.5726 N   0  0  0  0  0  0
  -22.0463  -12.8188   22.0443 N   0  0  0  0  0  0
  -25.4135  -15.1948   20.4127 N   0  0  0  0  0  0
  -31.7534  -15.0020   20.2219 O   0  0  0  0  0  0
  -21.6650   -6.8880   21.4239 O   0  0  0  0  0  0
  -22.3481  -14.5515   20.6727 O   0  0  0  0  0  0
  -24.6435  -31.8443   23.1868 C   0  0  0  0  0  0
  -25.9213  -32.4691   23.8256 C   0  0  1  0  0  0
  -27.2156  -27.1421   20.1537 C   0  0  0  0  0  0
  -25.5969  -33.8496   24.2181 N   0  0  0  0  0  0
  -23.4458  -30.4635   21.5325 C   0  0  2  0  0  0
  -24.8938  -28.8855   20.1143 C   0  0  0  0  0  0
  -22.7559  -29.4555   22.4855 C   0  0  0  0  0  0
  -18.0305  -28.1394   22.8475 C   0  0  0  0  0  0
  -24.1495  -36.7253   23.2640 C   0  0  0  0  0  0
  -26.0007  -30.7204   21.3836 C   0  0  0  0  0  0
  -26.0718  -29.3302   20.7283 C   0  0  0  0  0  0
  -27.2369  -28.4768   20.7254 C   0  0  0  0  0  0
  -26.0128  -26.7930   19.5046 C   0  0  0  0  0  0
  -24.8759  -27.6295   19.4881 C   0  0  0  0  0  0
  -23.6716  -29.7892   20.1536 C   0  0  0  0  0  0
  -25.4128  -36.3028   24.0311 C   0  0  1  0  0  0
  -20.5915  -28.3728   23.1232 C   0  0  2  0  0  0
  -20.6791  -26.9433   22.5405 C   0  0  0  0  0  0
  -19.5767  -26.6383   21.5212 C   0  0  0  0  0  0
  -18.1948  -26.7932   22.1619 C   0  0  0  0  0  0
  -19.1559  -28.8875   23.2846 C   0  0  0  0  0  0
  -18.9476  -30.1471   23.8878 C   0  0  0  0  0  0
  -17.6472  -30.6592   24.0559 C   0  0  0  0  0  0
  -25.9080  -34.9405   23.5052 C   0  0  0  0  0  0
  -16.5364  -29.9088   23.6336 C   0  0  0  0  0  0
  -16.7288  -28.6502   23.0359 C   0  0  0  0  0  0
  -26.4533  -31.6548   25.0692 C   0  0  0  0  0  0
  -25.3716  -31.3746   26.1389 C   0  0  0  0  0  0
  -27.0395  -30.2938   24.6274 C   0  0  0  0  0  0
  -27.6067  -32.4305   25.7486 C   0  0  0  0  0  0
  -27.5575  -37.1787   24.8462 C   0  0  0  0  0  0
  -21.4251  -29.3056   22.3603 N   0  0  0  0  0  0
  -26.4288  -37.3744   23.9401 N   0  0  0  0  0  0
  -24.7164  -31.0306   22.0900 N   0  0  0  0  0  0
  -23.4203  -28.8115   23.3011 O   0  0  0  0  0  0
  -28.2828  -26.1777   20.1624 O   0  0  0  0  0  0
  -26.5664  -34.8903   22.4631 O   0  0  0  0  0  0
  -23.5556  -32.1323   23.7097 O   0  0  0  0  0  0
  -30.2472  -23.6129   19.3615 C   0  0  0  0  0  0
  -30.5779  -19.9484   23.0329 C   0  0  0  0  0  0
  -31.7779  -21.0678   21.1822 C   0  0  0  0  0  0
  -30.1006  -22.3073   22.6522 C   0  0  0  0  0  0
  -29.3645  -19.0262   20.2008 C   0  0  0  0  0  0
  -30.0227  -17.6137   20.8811 C   0  0  0  0  0  0
  -28.0714  -24.6781   20.5368 C   0  0  0  0  0  0
  -28.8095  -23.3311   19.8358 C   0  0  2  0  0  0
  -29.2569  -20.5850   20.9035 C   0  0  1  0  0  0
  -30.4158  -20.9909   21.8975 C   0  0  0  0  0  0
  -29.7352  -16.1017   20.5145 N   0  0  0  0  0  0
  -28.4835  -21.7944   20.1869 N   0  3  0  0  0  0
  -31.4751  -12.7459   19.1663 H   0  0  0  0  0  0
  -30.4364  -11.6273   20.0117 H   0  0  0  0  0  0
  -29.8332  -11.7232   17.5717 H   0  0  0  0  0  0
  -29.6087  -13.4524   17.6767 H   0  0  0  0  0  0
  -27.9426  -11.2726   18.9641 H   0  0  0  0  0  0
  -27.3877  -12.4535   17.8075 H   0  0  0  0  0  0
  -27.5910  -14.2461   19.4054 H   0  0  0  0  0  0
  -28.7619  -12.2828   21.4353 H   0  0  0  0  0  0
  -28.3784  -13.9613   21.7479 H   0  0  0  0  0  0
  -25.2796   -9.5675   22.4751 H   0  0  0  0  0  0
  -24.0033   -7.4630   22.7458 H   0  0  0  0  0  0
  -21.0865   -8.8772   19.8940 H   0  0  0  0  0  0
  -22.3731  -10.9674   19.6152 H   0  0  0  0  0  0
  -21.1993   -7.6145   23.9720 H   0  0  0  0  0  0
  -21.1487   -6.0514   25.9083 H   0  0  0  0  0  0
  -22.0600   -2.7605   23.2837 H   0  0  0  0  0  0
  -22.4108  -11.9861   22.4825 H   0  0  0  0  0  0
  -21.1063  -13.1169   22.2640 H   0  0  0  0  0  0
  -24.6396  -15.8428   20.5163 H   0  0  0  0  0  0
  -26.2469  -15.6351   20.0471 H   0  0  0  0  0  0
  -26.7275  -32.5299   23.0980 H   0  0  0  0  0  0
  -25.0090  -33.9607   25.0310 H   0  0  0  0  0  0
  -22.7483  -31.2893   21.3763 H   0  0  0  0  0  0
  -23.3764  -35.9579   23.3292 H   0  0  0  0  0  0
  -24.3574  -36.8901   22.2055 H   0  0  0  0  0  0
  -23.7250  -37.6444   23.6691 H   0  0  0  0  0  0
  -26.1553  -31.4743   20.6107 H   0  0  0  0  0  0
  -26.8716  -30.7698   22.0261 H   0  0  0  0  0  0
  -28.1399  -28.8202   21.2112 H   0  0  0  0  0  0
  -25.9354  -25.8366   19.0080 H   0  0  0  0  0  0
  -23.9770  -27.2855   18.9953 H   0  0  0  0  0  0
  -23.8089  -30.5614   19.3956 H   0  0  0  0  0  0
  -22.7865  -29.2307   19.8446 H   0  0  0  0  0  0
  -25.1322  -36.1848   25.0804 H   0  0  0  0  0  0
  -21.0002  -28.3320   24.1353 H   0  0  0  0  0  0
  -20.5684  -26.2344   23.3624 H   0  0  0  0  0  0
  -21.6657  -26.7442   22.1201 H   0  0  0  0  0  0
  -19.6933  -25.6288   21.1261 H   0  0  0  0  0  0
  -19.6703  -27.3174   20.6726 H   0  0  0  0  0  0
  -17.4219  -26.6678   21.4023 H   0  0  0  0  0  0
  -18.0346  -26.0077   22.9016 H   0  0  0  0  0  0
  -19.7951  -30.7294   24.2240 H   0  0  0  0  0  0
  -17.5027  -31.6272   24.5165 H   0  0  0  0  0  0
  -15.5363  -30.2987   23.7667 H   0  0  0  0  0  0
  -15.8686  -28.0816   22.7089 H   0  0  0  0  0  0
  -24.5893  -30.7102   25.7704 H   0  0  0  0  0  0
  -24.8911  -32.2933   26.4761 H   0  0  0  0  0  0
  -25.7989  -30.8944   27.0200 H   0  0  0  0  0  0
  -26.3007  -29.6660   24.1281 H   0  0  0  0  0  0
  -27.4002  -29.7243   25.4850 H   0  0  0  0  0  0
  -27.8920  -30.4166   23.9592 H   0  0  0  0  0  0
  -27.2661  -33.3626   26.2008 H   0  0  0  0  0  0
  -28.3914  -32.6831   25.0343 H   0  0  0  0  0  0
  -28.0695  -31.8465   26.5452 H   0  0  0  0  0  0
  -28.2587  -38.0089   24.7510 H   0  0  0  0  0  0
  -28.1081  -36.2620   24.6296 H   0  0  0  0  0  0
  -27.2290  -37.1435   25.8863 H   0  0  0  0  0  0
  -20.9463  -29.8751   21.6768 H   0  0  0  0  0  0
  -26.0155  -38.2812   24.1404 H   0  0  0  0  0  0
  -30.2662  -24.5098   18.7401 H   0  0  0  0  0  0
  -30.6298  -22.8018   18.7419 H   0  0  0  0  0  0
  -30.9468  -23.8002   20.1719 H   0  0  0  0  0  0
  -31.1535  -20.3417   23.8716 H   0  0  0  0  0  0
  -31.1360  -19.0702   22.7219 H   0  0  0  0  0  0
  -29.6193  -19.6231   23.4397 H   0  0  0  0  0  0
  -32.5655  -21.3754   21.8711 H   0  0  0  0  0  0
  -31.7886  -21.7621   20.3510 H   0  0  0  0  0  0
  -32.0657  -20.0983   20.7746 H   0  0  0  0  0  0
  -30.8044  -22.4871   23.4651 H   0  0  0  0  0  0
  -29.1037  -22.2876   23.0956 H   0  0  0  0  0  0
  -30.1660  -23.1951   22.0398 H   0  0  0  0  0  0
  -28.3461  -18.7655   19.9131 H   0  0  0  0  0  0
  -29.8817  -19.1627   19.2514 H   0  0  0  0  0  0
  -29.7255  -17.6314   21.9278 H   0  0  0  0  0  0
  -31.1074  -17.7240   20.8831 H   0  0  0  0  0  0
  -28.3221  -24.6446   21.5968 H   0  0  0  0  0  0
  -26.9997  -24.4845   20.5249 H   0  0  0  0  0  0
  -28.2820  -23.3521   18.8809 H   0  0  0  0  0  0
  -28.4571  -20.3711   21.6138 H   0  0  0  0  0  0
  -28.7514  -15.8779   20.5098 H   0  0  0  0  0  0
  -28.2526  -21.4011   19.2881 H   0  0  0  0  0  0
  -27.5935  -21.8208   20.6612 H   0  0  0  0  0  0
  1 25  1  0  0  0
  1 30  2  0  0  0
  1 81  1  0  0  0
  2  3  1  0  0  0
  2 25  1  0  0  0
  2 83  1  0  0  0
  2 84  1  0  0  0
  3  4  1  0  0  0
  3 85  1  0  0  0
  3 86  1  0  0  0
  4  5  1  0  0  0
  4 87  1  0  0  0
  4 88  1  0  0  0
  5  6  1  0  0  0
  5 26  1  0  0  0
  5 89  1  0  0  0
  6 25  1  0  0  0
  6 90  1  0  0  0
  6 91  1  0  0  0
  7  8  2  0  0  0
  7 26  1  0  0  0
  7 29  1  0  0  0
  8  9  1  0  0  0
  8 22  1  0  0  0
  9 10  1  0  0  0
  9 27  2  0  0  0
 10 11  2  0  0  0
 10 15  1  0  0  0
 11 12  1  0  0  0
 11 92  1  0  0  0
 12 13  2  0  0  0
 12 93  1  0  0  0
 13 14  1  0  0  0
 13 31  1  0  0  0
 14 15  2  0  0  0
 14 94  1  0  0  0
 15 95  1  0  0  0
 16 17  2  0  0  0
 16 21  1  0  0  0
 16 31  1  0  0  0
 17 18  1  0  0  0
 17 96  1  0  0  0
 18 19  2  0  0  0
 18 97  1  0  0  0
 19 20  1  0  0  0
 19 24  1  0  0  0
 20 21  2  0  0  0
 20 98  1  0  0  0
 21 23  1  0  0  0
 22 28  1  0  0  0
 22 32  2  0  0  0
 26 27  1  0  0  0
 28 99  1  0  0  0
 28100  1  0  0  0
 29101  1  0  0  0
 29102  1  0  0  0
 33 34  1  0  0  0
 33 66  1  0  0  0
 33 70  2  0  0  0
 34 36  1  0  0  0
 34 59  1  0  0  0
 34103  1  0  0  0
 35 44  2  0  0  0
 35 45  1  0  0  0
 35 68  1  0  0  0
 36 56  1  0  0  0
 36104  1  0  0  0
 37 39  1  0  0  0
 37 47  1  0  0  0
 37 66  1  0  0  0
 37105  1  0  0  0
 38 43  2  0  0  0
 38 46  1  0  0  0
 38 47  1  0  0  0
 39 64  1  0  0  0
 39 67  2  0  0  0
 40 52  1  0  0  0
 40 53  2  0  0  0
 40 58  1  0  0  0
 41106  1  0  0  0
 41107  1  0  0  0
 41108  1  0  0  0
 41 48  1  0  0  0
 42 43  1  0  0  0
 42 66  1  0  0  0
 42109  1  0  0  0
 42110  1  0  0  0
 43 44  1  0  0  0
 44111  1  0  0  0
 45 46  2  0  0  0
 45112  1  0  0  0
 46113  1  0  0  0
 47114  1  0  0  0
 47115  1  0  0  0
 48 56  1  0  0  0
 48 65  1  0  0  0
 48116  1  0  0  0
 49 50  1  0  0  0
 49 53  1  0  0  0
 49 64  1  0  0  0
 49117  1  0  0  0
 50 51  1  0  0  0
 50118  1  0  0  0
 50119  1  0  0  0
 51 52  1  0  0  0
 51120  1  0  0  0
 51121  1  0  0  0
 52122  1  0  0  0
 52123  1  0  0  0
 53 54  1  0  0  0
 54 55  2  0  0  0
 54124  1  0  0  0
 55 57  1  0  0  0
 55125  1  0  0  0
 56 69  2  0  0  0
 57 58  2  0  0  0
 57126  1  0  0  0
 58127  1  0  0  0
 59 60  1  0  0  0
 59 61  1  0  0  0
 59 62  1  0  0  0
 60128  1  0  0  0
 60129  1  0  0  0
 60130  1  0  0  0
 61131  1  0  0  0
 61132  1  0  0  0
 61133  1  0  0  0
 62134  1  0  0  0
 62135  1  0  0  0
 62136  1  0  0  0
 63 65  1  0  0  0
 63137  1  0  0  0
 63138  1  0  0  0
 63139  1  0  0  0
 64140  1  0  0  0
 65141  1  0  0  0
 68 77  1  0  0  0
 71142  1  0  0  0
 71143  1  0  0  0
 71144  1  0  0  0
 71 78  1  0  0  0
 72145  1  0  0  0
 72146  1  0  0  0
 72147  1  0  0  0
 72 80  1  0  0  0
 73 80  1  0  0  0
 73148  1  0  0  0
 73149  1  0  0  0
 73150  1  0  0  0
 74 80  1  0  0  0
 74151  1  0  0  0
 74152  1  0  0  0
 74153  1  0  0  0
 75 76  1  0  0  0
 75154  1  0  0  0
 75155  1  0  0  0
 75 79  1  0  0  0
 76 81  1  0  0  0
 76156  1  0  0  0
 76157  1  0  0  0
 77 78  1  0  0  0
 77158  1  0  0  0
 77159  1  0  0  0
 78 82  1  0  0  0
 78160  1  0  0  0
 79 80  1  0  0  0
 79 82  1  0  0  0
 79161  1  0  0  0
 81162  1  0  0  0
 82163  1  0  0  0
 82164  1  0  0  0
M  CHG  1  82   1
M  ISO  4   1 100  68 101  77 101  81 100
M  END
> <chiral flag>
0

> <version>
0

> <s_m_source_file>
/data/baiqing/PycharmProjects/Reinvent-master-3.2/result/LINK_invent/BTK/process_docking_weight1_custom_sum_contain_oxygen_bond_distance_aromatic_linkinvent_7_9_3/rearranged_h_0113.sdf

> <i_m_source_file_index>
54

> <r_mmod_Potential_Energy-OPLS-2005>
569.139099121094

> <r_mmod_Stretch_Energy-OPLS-2005>
289.551422119141

> <r_mmod_Bend_Energy-OPLS-2005>
366.902008056641

> <r_mmod_Torsional_Energy-OPLS-2005>
288.220794677734

> <r_mmod_Improper_Torsional_Energy-OPLS-2005>
4.63122224807739

> <r_mmod_Van_der_Waal_Energy-OPLS-2005>
122.878974914551

> <r_mmod_Electrostatic_Energy-OPLS-2005>
-231.267868041992

> <r_mmod_Solvation_Energy-OPLS-2005>
-454.347045898438

> <b_mmod_Minimization_Converged-OPLS-2005>
0

> <r_mmod_RMS_Derivative-OPLS-2005>
1.47599446773529

$$$$
55
                    3D
 Structure written by MMmdl.
156164  0  0  1  0            999 V2000
  -30.4793  -15.1325   20.3519 C   0  0  0  0  0  0
  -30.4293  -12.7136   19.5013 C   0  0  0  0  0  0
  -29.5295  -12.5342   18.2599 C   0  0  0  0  0  0
  -28.0651  -12.3101   18.6752 C   0  0  0  0  0  0
  -27.6123  -13.2604   19.8156 C   0  0  2  0  0  0
  -28.6509  -13.3808   20.9461 C   0  0  0  0  0  0
  -25.2392  -13.8201   20.5627 C   0  0  0  0  0  0
  -24.1758  -13.0471   20.9238 C   0  0  0  0  0  0
  -24.6362  -11.6948   20.8745 C   0  0  0  0  0  0
  -23.9053  -10.4335   21.0413 C   0  0  0  0  0  0
  -24.3621   -9.4261   21.9177 C   0  0  0  0  0  0
  -23.6305   -8.2295   22.0741 C   0  0  0  0  0  0
  -22.4284   -8.0293   21.3534 C   0  0  0  0  0  0
  -21.9907   -9.0260   20.4635 C   0  0  0  0  0  0
  -22.7226  -10.2143   20.3062 C   0  0  0  0  0  0
  -21.6891   -6.0729   22.5250 C   0  0  0  0  0  0
  -21.4027   -6.5613   23.8181 C   0  0  0  0  0  0
  -21.3683   -5.6764   24.9148 C   0  0  0  0  0  0
  -21.6061   -4.3017   24.7204 C   0  0  0  0  0  0
  -21.8833   -3.8115   23.4317 C   0  0  0  0  0  0
  -21.9207   -4.6948   22.3380 C   0  0  0  0  0  0
  -22.7772  -13.5228   21.1870 C   0  0  0  0  0  0
  -22.1680   -4.2128   21.0971 F   0  0  0  0  0  0
  -21.5651   -3.4503   25.7721 F   0  0  0  0  0  0
  -29.8823  -13.8564   20.3104 N   0  0  0  0  0  0
  -26.2811  -12.9440   20.3154 N   0  0  0  0  0  0
  -25.9297  -11.6577   20.5709 N   0  0  0  0  0  0
  -22.0398  -12.8308   22.0435 N   0  0  0  0  0  0
  -25.4027  -15.1936   20.3886 N   0  0  0  0  0  0
  -31.7055  -15.0908   20.1715 O   0  0  0  0  0  0
  -21.6653   -6.8880   21.4219 O   0  0  0  0  0  0
  -22.3488  -14.5522   20.6618 O   0  0  0  0  0  0
  -24.6568  -31.8341   23.1805 C   0  0  0  0  0  0
  -25.9264  -32.4651   23.8268 C   0  0  1  0  0  0
  -27.1669  -26.9930   20.1779 C   0  0  0  0  0  0
  -25.5952  -33.8464   24.2173 N   0  0  0  0  0  0
  -23.4627  -30.4575   21.5295 C   0  0  2  0  0  0
  -24.9010  -28.8630   20.1096 C   0  0  0  0  0  0
  -22.7596  -29.4556   22.4799 C   0  0  0  0  0  0
  -18.0305  -28.1389   22.8467 C   0  0  0  0  0  0
  -24.1494  -36.7267   23.2647 C   0  0  0  0  0  0
  -26.0288  -30.6673   21.3919 C   0  0  0  0  0  0
  -26.0889  -29.2642   20.7376 C   0  0  0  0  0  0
  -27.2242  -28.3487   20.7455 C   0  0  0  0  0  0
  -25.9574  -26.7335   19.4980 C   0  0  0  0  0  0
  -24.8549  -27.6179   19.4728 C   0  0  0  0  0  0
  -23.6873  -29.7812   20.1518 C   0  0  0  0  0  0
  -25.4130  -36.3040   24.0319 C   0  0  1  0  0  0
  -20.5922  -28.3775   23.1164 C   0  0  2  0  0  0
  -20.6806  -26.9451   22.5389 C   0  0  0  0  0  0
  -19.5777  -26.6366   21.5210 C   0  0  0  0  0  0
  -18.1954  -26.7923   22.1610 C   0  0  0  0  0  0
  -19.1553  -28.8880   23.2820 C   0  0  0  0  0  0
  -18.9475  -30.1473   23.8866 C   0  0  0  0  0  0
  -17.6470  -30.6594   24.0546 C   0  0  0  0  0  0
  -25.9080  -34.9407   23.5062 C   0  0  0  0  0  0
  -16.5363  -29.9089   23.6337 C   0  0  0  0  0  0
  -16.7284  -28.6491   23.0378 C   0  0  0  0  0  0
  -26.4506  -31.6569   25.0759 C   0  0  0  0  0  0
  -25.3642  -31.3812   26.1419 C   0  0  0  0  0  0
  -27.0369  -30.2953   24.6441 C   0  0  0  0  0  0
  -27.6024  -32.4348   25.7549 C   0  0  0  0  0  0
  -27.5591  -37.1788   24.8424 C   0  0  0  0  0  0
  -21.4269  -29.3120   22.3545 N   0  0  0  0  0  0
  -26.4287  -37.3767   23.9385 N   0  0  0  0  0  0
  -24.7388  -31.0101   22.0902 N   0  0  0  0  0  0
  -23.4172  -28.8092   23.2987 O   0  0  0  0  0  0
  -28.1467  -25.8975   20.2587 O   0  0  0  0  0  0
  -26.5683  -34.8901   22.4665 O   0  0  0  0  0  0
  -23.5653  -32.1256   23.6957 O   0  0  0  0  0  0
  -28.3651  -16.9042   20.3669 C   0  0  0  0  0  0
  -30.4959  -17.7496   19.9078 C   0  0  0  0  0  0
  -27.8857  -18.4636   20.6973 C   0  0  0  0  0  0
  -30.0951  -19.2376   20.4925 C   0  0  0  0  0  0
  -27.8316  -21.1979   22.2725 C   0  0  0  0  0  0
  -28.6461  -22.8140   20.2851 C   0  0  0  0  0  0
  -27.7521  -24.3286   20.2772 C   0  0  0  0  0  0
  -28.1171  -21.2054   20.7391 C   0  0  1  0  0  0
  -29.8129  -16.4478   20.3406 N   0  0  0  0  0  0
  -28.6780  -19.7232   20.2700 N   0  3  0  0  0  0
  -31.4558  -12.8929   19.1705 H   0  0  0  0  0  0
  -30.4762  -11.7940   20.0855 H   0  0  0  0  0  0
  -29.8834  -11.6997   17.6540 H   0  0  0  0  0  0
  -29.6047  -13.4220   17.6308 H   0  0  0  0  0  0
  -27.9701  -11.2721   18.9971 H   0  0  0  0  0  0
  -27.4138  -12.4241   17.8071 H   0  0  0  0  0  0
  -27.5463  -14.2414   19.3480 H   0  0  0  0  0  0
  -28.8008  -12.4294   21.4506 H   0  0  0  0  0  0
  -28.3268  -14.0909   21.7102 H   0  0  0  0  0  0
  -25.2766   -9.5744   22.4746 H   0  0  0  0  0  0
  -24.0019   -7.4676   22.7457 H   0  0  0  0  0  0
  -21.0838   -8.8757   19.8931 H   0  0  0  0  0  0
  -22.3658  -10.9674   19.6168 H   0  0  0  0  0  0
  -21.1994   -7.6100   23.9691 H   0  0  0  0  0  0
  -21.1517   -6.0479   25.9064 H   0  0  0  0  0  0
  -22.0595   -2.7569   23.2817 H   0  0  0  0  0  0
  -22.3922  -11.9998   22.4949 H   0  0  0  0  0  0
  -21.0976  -13.1323   22.2466 H   0  0  0  0  0  0
  -24.6235  -15.8420   20.4689 H   0  0  0  0  0  0
  -26.2102  -15.5977   19.9358 H   0  0  0  0  0  0
  -26.7347  -32.5208   23.1008 H   0  0  0  0  0  0
  -24.9990  -33.9569   25.0244 H   0  0  0  0  0  0
  -22.7790  -31.2933   21.3669 H   0  0  0  0  0  0
  -23.3776  -35.9563   23.3214 H   0  0  0  0  0  0
  -24.3609  -36.8999   22.2074 H   0  0  0  0  0  0
  -23.7173  -37.6423   23.6738 H   0  0  0  0  0  0
  -26.1951  -31.4115   20.6106 H   0  0  0  0  0  0
  -26.8991  -30.7269   22.0338 H   0  0  0  0  0  0
  -28.1303  -28.6506   21.2530 H   0  0  0  0  0  0
  -25.8083  -25.7858   19.0053 H   0  0  0  0  0  0
  -23.9476  -27.3055   18.9724 H   0  0  0  0  0  0
  -23.8252  -30.5468   19.3871 H   0  0  0  0  0  0
  -22.7955  -29.2259   19.8529 H   0  0  0  0  0  0
  -25.1316  -36.1899   25.0811 H   0  0  0  0  0  0
  -21.0045  -28.3394   24.1262 H   0  0  0  0  0  0
  -20.5696  -26.2395   23.3632 H   0  0  0  0  0  0
  -21.6680  -26.7463   22.1174 H   0  0  0  0  0  0
  -19.6964  -25.6256   21.1274 H   0  0  0  0  0  0
  -19.6709  -27.3137   20.6694 H   0  0  0  0  0  0
  -17.4225  -26.6627   21.4014 H   0  0  0  0  0  0
  -18.0396  -26.0084   22.9017 H   0  0  0  0  0  0
  -19.7954  -30.7288   24.2244 H   0  0  0  0  0  0
  -17.5028  -31.6273   24.5153 H   0  0  0  0  0  0
  -15.5366  -30.2982   23.7699 H   0  0  0  0  0  0
  -15.8673  -28.0795   22.7167 H   0  0  0  0  0  0
  -24.5732  -30.7292   25.7672 H   0  0  0  0  0  0
  -24.8921  -32.3022   26.4876 H   0  0  0  0  0  0
  -25.7839  -30.8882   27.0194 H   0  0  0  0  0  0
  -26.3016  -29.6638   24.1439 H   0  0  0  0  0  0
  -27.3889  -29.7317   25.5090 H   0  0  0  0  0  0
  -27.8965  -30.4122   23.9836 H   0  0  0  0  0  0
  -27.2601  -33.3594   26.2213 H   0  0  0  0  0  0
  -28.3811  -32.7020   25.0386 H   0  0  0  0  0  0
  -28.0750  -31.8436   26.5404 H   0  0  0  0  0  0
  -28.2560  -38.0148   24.7603 H   0  0  0  0  0  0
  -28.1171  -36.2695   24.6117 H   0  0  0  0  0  0
  -27.2336  -37.1264   25.8836 H   0  0  0  0  0  0
  -20.9484  -29.8828   21.6707 H   0  0  0  0  0  0
  -26.0161  -38.2833   24.1438 H   0  0  0  0  0  0
  -27.9658  -16.6632   19.3808 H   0  0  0  0  0  0
  -27.8367  -16.2452   21.0547 H   0  0  0  0  0  0
  -31.5723  -17.6345   20.0194 H   0  0  0  0  0  0
  -30.3500  -17.8041   18.8263 H   0  0  0  0  0  0
  -27.7741  -18.5066   21.7767 H   0  0  0  0  0  0
  -26.8727  -18.5813   20.3118 H   0  0  0  0  0  0
  -30.7474  -19.9795   20.0305 H   0  0  0  0  0  0
  -30.3046  -19.2754   21.5602 H   0  0  0  0  0  0
  -27.3980  -22.1382   22.6075 H   0  0  0  0  0  0
  -28.7298  -21.0265   22.8753 H   0  0  0  0  0  0
  -27.0996  -20.4379   22.5536 H   0  0  0  0  0  0
  -29.5360  -22.9982   20.8865 H   0  0  0  0  0  0
  -29.0282  -22.7063   19.2696 H   0  0  0  0  0  0
  -27.0383  -24.2370   21.0942 H   0  0  0  0  0  0
  -27.1470  -24.2088   19.3809 H   0  0  0  0  0  0
  -27.1230  -21.1867   20.2832 H   0  0  0  0  0  0
  -28.5699  -19.7508   19.2656 H   0  0  0  0  0  0
  1 25  1  0  0  0
  1 30  2  0  0  0
  1 79  1  0  0  0
  2  3  1  0  0  0
  2 25  1  0  0  0
  2 81  1  0  0  0
  2 82  1  0  0  0
  3  4  1  0  0  0
  3 83  1  0  0  0
  3 84  1  0  0  0
  4  5  1  0  0  0
  4 85  1  0  0  0
  4 86  1  0  0  0
  5  6  1  0  0  0
  5 26  1  0  0  0
  5 87  1  0  0  0
  6 25  1  0  0  0
  6 88  1  0  0  0
  6 89  1  0  0  0
  7  8  2  0  0  0
  7 26  1  0  0  0
  7 29  1  0  0  0
  8  9  1  0  0  0
  8 22  1  0  0  0
  9 10  1  0  0  0
  9 27  2  0  0  0
 10 11  2  0  0  0
 10 15  1  0  0  0
 11 12  1  0  0  0
 11 90  1  0  0  0
 12 13  2  0  0  0
 12 91  1  0  0  0
 13 14  1  0  0  0
 13 31  1  0  0  0
 14 15  2  0  0  0
 14 92  1  0  0  0
 15 93  1  0  0  0
 16 17  2  0  0  0
 16 21  1  0  0  0
 16 31  1  0  0  0
 17 18  1  0  0  0
 17 94  1  0  0  0
 18 19  2  0  0  0
 18 95  1  0  0  0
 19 20  1  0  0  0
 19 24  1  0  0  0
 20 21  2  0  0  0
 20 96  1  0  0  0
 21 23  1  0  0  0
 22 28  1  0  0  0
 22 32  2  0  0  0
 26 27  1  0  0  0
 28 97  1  0  0  0
 28 98  1  0  0  0
 29 99  1  0  0  0
 29100  1  0  0  0
 33 34  1  0  0  0
 33 66  1  0  0  0
 33 70  2  0  0  0
 34 36  1  0  0  0
 34 59  1  0  0  0
 34101  1  0  0  0
 35 44  2  0  0  0
 35 45  1  0  0  0
 35 68  1  0  0  0
 36 56  1  0  0  0
 36102  1  0  0  0
 37 39  1  0  0  0
 37 47  1  0  0  0
 37 66  1  0  0  0
 37103  1  0  0  0
 38 43  2  0  0  0
 38 46  1  0  0  0
 38 47  1  0  0  0
 39 64  1  0  0  0
 39 67  2  0  0  0
 40 52  1  0  0  0
 40 53  2  0  0  0
 40 58  1  0  0  0
 41104  1  0  0  0
 41105  1  0  0  0
 41106  1  0  0  0
 41 48  1  0  0  0
 42 43  1  0  0  0
 42 66  1  0  0  0
 42107  1  0  0  0
 42108  1  0  0  0
 43 44  1  0  0  0
 44109  1  0  0  0
 45 46  2  0  0  0
 45110  1  0  0  0
 46111  1  0  0  0
 47112  1  0  0  0
 47113  1  0  0  0
 48 56  1  0  0  0
 48 65  1  0  0  0
 48114  1  0  0  0
 49 50  1  0  0  0
 49 53  1  0  0  0
 49 64  1  0  0  0
 49115  1  0  0  0
 50 51  1  0  0  0
 50116  1  0  0  0
 50117  1  0  0  0
 51 52  1  0  0  0
 51118  1  0  0  0
 51119  1  0  0  0
 52120  1  0  0  0
 52121  1  0  0  0
 53 54  1  0  0  0
 54 55  2  0  0  0
 54122  1  0  0  0
 55 57  1  0  0  0
 55123  1  0  0  0
 56 69  2  0  0  0
 57 58  2  0  0  0
 57124  1  0  0  0
 58125  1  0  0  0
 59 60  1  0  0  0
 59 61  1  0  0  0
 59 62  1  0  0  0
 60126  1  0  0  0
 60127  1  0  0  0
 60128  1  0  0  0
 61129  1  0  0  0
 61130  1  0  0  0
 61131  1  0  0  0
 62132  1  0  0  0
 62133  1  0  0  0
 62134  1  0  0  0
 63 65  1  0  0  0
 63135  1  0  0  0
 63136  1  0  0  0
 63137  1  0  0  0
 64138  1  0  0  0
 65139  1  0  0  0
 68 77  1  0  0  0
 71 73  1  0  0  0
 71 79  1  0  0  0
 71140  1  0  0  0
 71141  1  0  0  0
 72 74  1  0  0  0
 72 79  1  0  0  0
 72142  1  0  0  0
 72143  1  0  0  0
 73144  1  0  0  0
 73145  1  0  0  0
 73 80  1  0  0  0
 74 80  1  0  0  0
 74146  1  0  0  0
 74147  1  0  0  0
 75148  1  0  0  0
 75149  1  0  0  0
 75150  1  0  0  0
 75 78  1  0  0  0
 76 77  1  0  0  0
 76 78  1  0  0  0
 76151  1  0  0  0
 76152  1  0  0  0
 77153  1  0  0  0
 77154  1  0  0  0
 78 80  1  0  0  0
 78155  1  0  0  0
 80156  1  0  0  0
M  CHG  1  80   1
M  ISO  4   1 100  68 101  77 101  79 100
M  END
> <chiral flag>
0

> <version>
0

> <s_m_source_file>
/data/baiqing/PycharmProjects/Reinvent-master-3.2/result/LINK_invent/BTK/process_docking_weight1_custom_sum_contain_oxygen_bond_distance_aromatic_linkinvent_7_9_3/rearranged_h_0113.sdf

> <i_m_source_file_index>
55

> <r_mmod_Potential_Energy-OPLS-2005>
1053.96252441406

> <r_mmod_Stretch_Energy-OPLS-2005>
417.5546875

> <r_mmod_Bend_Energy-OPLS-2005>
423.193084716797

> <r_mmod_Torsional_Energy-OPLS-2005>
382.314025878906

> <r_mmod_Improper_Torsional_Energy-OPLS-2005>
6.88831615447998

> <r_mmod_Van_der_Waal_Energy-OPLS-2005>
116.789077758789

> <r_mmod_Electrostatic_Energy-OPLS-2005>
-186.439147949219

> <r_mmod_Solvation_Energy-OPLS-2005>
-456.476806640625

> <b_mmod_Minimization_Converged-OPLS-2005>
0

> <r_mmod_RMS_Derivative-OPLS-2005>
7.54110527038574

$$$$
56
                    3D
 Structure written by MMmdl.
157165  0  0  1  0            999 V2000
  -30.3715  -15.2859   20.3088 C   0  0  0  0  0  0
  -30.4203  -12.7998   19.5428 C   0  0  0  0  0  0
  -29.5362  -12.5636   18.2949 C   0  0  0  0  0  0
  -28.0725  -12.3093   18.6958 C   0  0  0  0  0  0
  -27.5991  -13.2776   19.8119 C   0  0  2  0  0  0
  -28.6189  -13.4535   20.9560 C   0  0  0  0  0  0
  -25.2306  -13.8233   20.5689 C   0  0  0  0  0  0
  -24.1698  -13.0471   20.9277 C   0  0  0  0  0  0
  -24.6353  -11.6965   20.8766 C   0  0  0  0  0  0
  -23.9067  -10.4315   21.0412 C   0  0  0  0  0  0
  -24.3644   -9.4204   21.9157 C   0  0  0  0  0  0
  -23.6308   -8.2260   22.0735 C   0  0  0  0  0  0
  -22.4283   -8.0288   21.3531 C   0  0  0  0  0  0
  -21.9920   -9.0268   20.4635 C   0  0  0  0  0  0
  -22.7270  -10.2139   20.3034 C   0  0  0  0  0  0
  -21.6867   -6.0705   22.5265 C   0  0  0  0  0  0
  -21.4052   -6.5619   23.8200 C   0  0  0  0  0  0
  -21.3663   -5.6777   24.9165 C   0  0  0  0  0  0
  -21.6063   -4.3049   24.7234 C   0  0  0  0  0  0
  -21.8798   -3.8113   23.4361 C   0  0  0  0  0  0
  -21.9210   -4.6915   22.3406 C   0  0  0  0  0  0
  -22.7694  -13.5159   21.1938 C   0  0  0  0  0  0
  -22.1635   -4.2116   21.0952 F   0  0  0  0  0  0
  -21.5647   -3.4522   25.7714 F   0  0  0  0  0  0
  -29.8547  -13.9594   20.3373 N   0  0  0  0  0  0
  -26.2694  -12.9549   20.3036 N   0  0  0  0  0  0
  -25.9248  -11.6669   20.5597 N   0  0  0  0  0  0
  -22.0378  -12.8152   22.0503 N   0  0  0  0  0  0
  -25.3924  -15.2004   20.4204 N   0  0  0  0  0  0
  -31.5788  -15.2779   20.0443 O   0  0  0  0  0  0
  -21.6653   -6.8879   21.4229 O   0  0  0  0  0  0
  -22.3367  -14.5495   20.6779 O   0  0  0  0  0  0
  -24.6677  -31.8205   23.1665 C   0  0  0  0  0  0
  -25.9302  -32.4577   23.8169 C   0  0  1  0  0  0
  -27.2174  -26.9028   20.1600 C   0  0  0  0  0  0
  -25.5945  -33.8402   24.2038 N   0  0  0  0  0  0
  -23.4764  -30.4323   21.5204 C   0  0  2  0  0  0
  -24.9290  -28.8065   20.1128 C   0  0  0  0  0  0
  -22.7623  -29.4478   22.4844 C   0  0  0  0  0  0
  -18.0329  -28.1378   22.8489 C   0  0  0  0  0  0
  -24.1506  -36.7272   23.2644 C   0  0  0  0  0  0
  -26.0478  -30.6179   21.3952 C   0  0  0  0  0  0
  -26.1127  -29.2017   20.7420 C   0  0  0  0  0  0
  -27.2437  -28.2656   20.7503 C   0  0  0  0  0  0
  -25.9994  -26.6625   19.4799 C   0  0  0  0  0  0
  -24.8950  -27.5563   19.4667 C   0  0  0  0  0  0
  -23.7112  -29.7350   20.1475 C   0  0  0  0  0  0
  -25.4124  -36.2997   24.0307 C   0  0  1  0  0  0
  -20.5947  -28.3731   23.1213 C   0  0  2  0  0  0
  -20.6814  -26.9438   22.5402 C   0  0  0  0  0  0
  -19.5811  -26.6356   21.5197 C   0  0  0  0  0  0
  -18.1967  -26.7907   22.1607 C   0  0  0  0  0  0
  -19.1589  -28.8889   23.2819 C   0  0  0  0  0  0
  -18.9486  -30.1474   23.8862 C   0  0  0  0  0  0
  -17.6473  -30.6571   24.0559 C   0  0  0  0  0  0
  -25.9077  -34.9378   23.4990 C   0  0  0  0  0  0
  -16.5364  -29.9063   23.6361 C   0  0  0  0  0  0
  -16.7298  -28.6495   23.0345 C   0  0  0  0  0  0
  -26.4524  -31.6555   25.0703 C   0  0  0  0  0  0
  -25.3586  -31.3837   26.1313 C   0  0  0  0  0  0
  -27.0364  -30.2913   24.6407 C   0  0  0  0  0  0
  -27.6038  -32.4327   25.7486 C   0  0  0  0  0  0
  -27.5588  -37.1797   24.8440 C   0  0  0  0  0  0
  -21.4307  -29.3038   22.3573 N   0  0  0  0  0  0
  -26.4291  -37.3731   23.9381 N   0  0  0  0  0  0
  -24.7536  -30.9815   22.0837 N   0  0  0  0  0  0
  -23.4150  -28.8040   23.3086 O   0  0  0  0  0  0
  -28.2318  -25.7993   20.2694 O   0  0  0  0  0  0
  -26.5712  -34.8917   22.4607 O   0  0  0  0  0  0
  -23.5759  -32.1207   23.6743 O   0  0  0  0  0  0
  -31.8029  -20.9485   19.6224 C   0  0  0  0  0  0
  -30.7915  -21.8496   19.5734 C   0  0  0  0  0  0
  -31.2982  -19.6992   20.0549 C   0  0  0  0  0  0
  -29.9184  -19.7256   20.0444 C   0  0  0  0  0  0
  -33.3114  -18.9523   21.3755 C   0  0  0  0  0  0
  -32.7476  -17.7884   19.2148 C   0  0  0  0  0  0
  -29.1833  -18.1539   20.0474 C   0  0  0  0  0  0
  -28.4512  -22.4952   20.2491 C   0  0  0  0  0  0
  -28.3408  -24.2406   19.6817 C   0  0  0  0  0  0
  -32.1807  -18.5313   20.4329 C   0  0  0  0  0  0
  -29.5835  -21.2861   19.9681 N   0  0  0  0  0  0
  -29.5383  -16.5215   20.4171 N   0  0  0  0  0  0
  -31.4502  -12.9962   19.2329 H   0  0  0  0  0  0
  -30.4768  -11.9015   20.1631 H   0  0  0  0  0  0
  -29.9183  -11.7204   17.7239 H   0  0  0  0  0  0
  -29.5841  -13.4325   17.6434 H   0  0  0  0  0  0
  -27.9922  -11.2782   19.0475 H   0  0  0  0  0  0
  -27.4258  -12.3864   17.8180 H   0  0  0  0  0  0
  -27.5148  -14.2452   19.3107 H   0  0  0  0  0  0
  -28.7857  -12.5227   21.5051 H   0  0  0  0  0  0
  -28.2284  -14.1765   21.6795 H   0  0  0  0  0  0
  -25.2779   -9.5692   22.4739 H   0  0  0  0  0  0
  -24.0023   -7.4646   22.7451 H   0  0  0  0  0  0
  -21.0836   -8.8803   19.8936 H   0  0  0  0  0  0
  -22.3720  -10.9694   19.6151 H   0  0  0  0  0  0
  -21.2041   -7.6123   23.9704 H   0  0  0  0  0  0
  -21.1511   -6.0484   25.9063 H   0  0  0  0  0  0
  -22.0586   -2.7578   23.2833 H   0  0  0  0  0  0
  -22.4016  -11.9826   22.4914 H   0  0  0  0  0  0
  -21.0986  -13.1115   22.2688 H   0  0  0  0  0  0
  -24.6330  -15.8502   20.5949 H   0  0  0  0  0  0
  -26.1915  -15.6480   19.9907 H   0  0  0  0  0  0
  -26.7363  -32.5085   23.0889 H   0  0  0  0  0  0
  -24.9995  -33.9481   25.0126 H   0  0  0  0  0  0
  -22.7936  -31.2680   21.3430 H   0  0  0  0  0  0
  -23.3753  -35.9607   23.3249 H   0  0  0  0  0  0
  -24.3614  -36.8948   22.2069 H   0  0  0  0  0  0
  -23.7239  -37.6440   23.6718 H   0  0  0  0  0  0
  -26.2121  -31.3479   20.6017 H   0  0  0  0  0  0
  -26.9166  -30.6862   22.0372 H   0  0  0  0  0  0
  -28.1325  -28.5672   21.2867 H   0  0  0  0  0  0
  -25.8678  -25.7050   19.0002 H   0  0  0  0  0  0
  -23.9880  -27.2405   18.9687 H   0  0  0  0  0  0
  -23.8688  -30.5021   19.3868 H   0  0  0  0  0  0
  -22.8122  -29.1950   19.8387 H   0  0  0  0  0  0
  -25.1339  -36.1848   25.0804 H   0  0  0  0  0  0
  -21.0047  -28.3295   24.1337 H   0  0  0  0  0  0
  -20.5651  -26.2351   23.3613 H   0  0  0  0  0  0
  -21.6663  -26.7395   22.1230 H   0  0  0  0  0  0
  -19.6944  -25.6235   21.1301 H   0  0  0  0  0  0
  -19.6726  -27.3115   20.6679 H   0  0  0  0  0  0
  -17.4232  -26.6674   21.4005 H   0  0  0  0  0  0
  -18.0386  -26.0031   22.9011 H   0  0  0  0  0  0
  -19.7946  -30.7326   24.2176 H   0  0  0  0  0  0
  -17.5002  -31.6241   24.5155 H   0  0  0  0  0  0
  -15.5358  -30.2923   23.7663 H   0  0  0  0  0  0
  -15.8713  -28.0760   22.7071 H   0  0  0  0  0  0
  -24.5798  -30.7152   25.7618 H   0  0  0  0  0  0
  -24.8720  -32.3044   26.4564 H   0  0  0  0  0  0
  -25.7789  -30.9120   27.0192 H   0  0  0  0  0  0
  -26.2997  -29.6575   24.1440 H   0  0  0  0  0  0
  -27.3900  -29.7319   25.5068 H   0  0  0  0  0  0
  -27.8958  -30.4059   23.9780 H   0  0  0  0  0  0
  -27.2645  -33.3679   26.1953 H   0  0  0  0  0  0
  -28.3927  -32.6767   25.0354 H   0  0  0  0  0  0
  -28.0584  -31.8456   26.5463 H   0  0  0  0  0  0
  -28.2603  -38.0118   24.7511 H   0  0  0  0  0  0
  -28.1112  -36.2644   24.6260 H   0  0  0  0  0  0
  -27.2322  -37.1434   25.8853 H   0  0  0  0  0  0
  -20.9538  -29.8761   21.6757 H   0  0  0  0  0  0
  -26.0172  -38.2806   24.1312 H   0  0  0  0  0  0
  -32.8452  -21.1678   19.4393 H   0  0  0  0  0  0
  -30.8828  -22.9021   19.3599 H   0  0  0  0  0  0
  -32.8992  -19.5080   22.2188 H   0  0  0  0  0  0
  -34.0521  -19.5756   20.8719 H   0  0  0  0  0  0
  -33.8198  -18.0706   21.7692 H   0  0  0  0  0  0
  -31.9480  -17.4262   18.5646 H   0  0  0  0  0  0
  -33.3161  -16.9224   19.5550 H   0  0  0  0  0  0
  -33.4243  -18.3933   18.6182 H   0  0  0  0  0  0
  -28.8570  -18.0475   19.0095 H   0  0  0  0  0  0
  -28.2407  -18.3247   20.5683 H   0  0  0  0  0  0
  -27.4858  -22.0365   19.9877 H   0  0  0  0  0  0
  -28.4476  -22.5886   21.3372 H   0  0  0  0  0  0
  -27.5823  -24.2130   18.9022 H   0  0  0  0  0  0
  -29.2649  -24.3605   19.1216 H   0  0  0  0  0  0
  -31.5719  -17.8512   21.0254 H   0  0  0  0  0  0
  -28.6547  -16.1555   20.7375 H   0  0  0  0  0  0
  1 25  1  0  0  0
  1 30  2  0  0  0
  1 82  1  0  0  0
  2  3  1  0  0  0
  2 25  1  0  0  0
  2 83  1  0  0  0
  2 84  1  0  0  0
  3  4  1  0  0  0
  3 85  1  0  0  0
  3 86  1  0  0  0
  4  5  1  0  0  0
  4 87  1  0  0  0
  4 88  1  0  0  0
  5  6  1  0  0  0
  5 26  1  0  0  0
  5 89  1  0  0  0
  6 25  1  0  0  0
  6 90  1  0  0  0
  6 91  1  0  0  0
  7  8  2  0  0  0
  7 26  1  0  0  0
  7 29  1  0  0  0
  8  9  1  0  0  0
  8 22  1  0  0  0
  9 10  1  0  0  0
  9 27  2  0  0  0
 10 11  2  0  0  0
 10 15  1  0  0  0
 11 12  1  0  0  0
 11 92  1  0  0  0
 12 13  2  0  0  0
 12 93  1  0  0  0
 13 14  1  0  0  0
 13 31  1  0  0  0
 14 15  2  0  0  0
 14 94  1  0  0  0
 15 95  1  0  0  0
 16 17  2  0  0  0
 16 21  1  0  0  0
 16 31  1  0  0  0
 17 18  1  0  0  0
 17 96  1  0  0  0
 18 19  2  0  0  0
 18 97  1  0  0  0
 19 20  1  0  0  0
 19 24  1  0  0  0
 20 21  2  0  0  0
 20 98  1  0  0  0
 21 23  1  0  0  0
 22 28  1  0  0  0
 22 32  2  0  0  0
 26 27  1  0  0  0
 28 99  1  0  0  0
 28100  1  0  0  0
 29101  1  0  0  0
 29102  1  0  0  0
 33 34  1  0  0  0
 33 66  1  0  0  0
 33 70  2  0  0  0
 34 36  1  0  0  0
 34 59  1  0  0  0
 34103  1  0  0  0
 35 44  2  0  0  0
 35 45  1  0  0  0
 35 68  1  0  0  0
 36 56  1  0  0  0
 36104  1  0  0  0
 37 39  1  0  0  0
 37 47  1  0  0  0
 37 66  1  0  0  0
 37105  1  0  0  0
 38 43  2  0  0  0
 38 46  1  0  0  0
 38 47  1  0  0  0
 39 64  1  0  0  0
 39 67  2  0  0  0
 40 52  1  0  0  0
 40 53  2  0  0  0
 40 58  1  0  0  0
 41106  1  0  0  0
 41107  1  0  0  0
 41108  1  0  0  0
 41 48  1  0  0  0
 42 43  1  0  0  0
 42 66  1  0  0  0
 42109  1  0  0  0
 42110  1  0  0  0
 43 44  1  0  0  0
 44111  1  0  0  0
 45 46  2  0  0  0
 45112  1  0  0  0
 46113  1  0  0  0
 47114  1  0  0  0
 47115  1  0  0  0
 48 56  1  0  0  0
 48 65  1  0  0  0
 48116  1  0  0  0
 49 50  1  0  0  0
 49 53  1  0  0  0
 49 64  1  0  0  0
 49117  1  0  0  0
 50 51  1  0  0  0
 50118  1  0  0  0
 50119  1  0  0  0
 51 52  1  0  0  0
 51120  1  0  0  0
 51121  1  0  0  0
 52122  1  0  0  0
 52123  1  0  0  0
 53 54  1  0  0  0
 54 55  2  0  0  0
 54124  1  0  0  0
 55 57  1  0  0  0
 55125  1  0  0  0
 56 69  2  0  0  0
 57 58  2  0  0  0
 57126  1  0  0  0
 58127  1  0  0  0
 59 60  1  0  0  0
 59 61  1  0  0  0
 59 62  1  0  0  0
 60128  1  0  0  0
 60129  1  0  0  0
 60130  1  0  0  0
 61131  1  0  0  0
 61132  1  0  0  0
 61133  1  0  0  0
 62134  1  0  0  0
 62135  1  0  0  0
 62136  1  0  0  0
 63 65  1  0  0  0
 63137  1  0  0  0
 63138  1  0  0  0
 63139  1  0  0  0
 64140  1  0  0  0
 65141  1  0  0  0
 68 79  1  0  0  0
 71 72  2  0  0  0
 71 73  1  0  0  0
 71142  1  0  0  0
 72 81  1  0  0  0
 72143  1  0  0  0
 73 74  2  0  0  0
 73 80  1  0  0  0
 74 77  1  0  0  0
 74 81  1  0  0  0
 75144  1  0  0  0
 75145  1  0  0  0
 75146  1  0  0  0
 75 80  1  0  0  0
 76 80  1  0  0  0
 76147  1  0  0  0
 76148  1  0  0  0
 76149  1  0  0  0
 77 82  1  0  0  0
 77150  1  0  0  0
 77151  1  0  0  0
 78 79  1  0  0  0
 78 81  1  0  0  0
 78152  1  0  0  0
 78153  1  0  0  0
 79154  1  0  0  0
 79155  1  0  0  0
 80156  1  0  0  0
 82157  1  0  0  0
M  ISO  4   1 100  68 101  79 101  82 100
M  END
> <chiral flag>
0

> <version>
0

> <s_m_source_file>
/data/baiqing/PycharmProjects/Reinvent-master-3.2/result/LINK_invent/BTK/process_docking_weight1_custom_sum_contain_oxygen_bond_distance_aromatic_linkinvent_7_9_3/rearranged_h_0113.sdf

> <i_m_source_file_index>
56

> <r_mmod_Potential_Energy-OPLS-2005>
1582.13623046875

> <r_mmod_Stretch_Energy-OPLS-2005>
702.045471191406

> <r_mmod_Bend_Energy-OPLS-2005>
645.220642089844

> <r_mmod_Torsional_Energy-OPLS-2005>
256.125549316406

> <r_mmod_Improper_Torsional_Energy-OPLS-2005>
5.44249534606934

> <r_mmod_Van_der_Waal_Energy-OPLS-2005>
114.681594848633

> <r_mmod_Electrostatic_Energy-OPLS-2005>
-406.222442626953

> <r_mmod_Solvation_Energy-OPLS-2005>
-224.32292175293

> <b_mmod_Minimization_Converged-OPLS-2005>
0

> <r_mmod_RMS_Derivative-OPLS-2005>
11.1219701766968

$$$$
57
                    3D
 Structure written by MMmdl.
147154  0  0  1  0            999 V2000
  -30.5439  -14.9512   20.4162 C   0  0  0  0  0  0
  -30.4384  -12.5898   19.4979 C   0  0  0  0  0  0
  -29.5206  -12.5271   18.2553 C   0  0  0  0  0  0
  -28.0536  -12.3141   18.6739 C   0  0  0  0  0  0
  -27.6285  -13.2486   19.8369 C   0  0  2  0  0  0
  -28.6710  -13.2821   20.9742 C   0  0  0  0  0  0
  -25.2457  -13.8217   20.5710 C   0  0  0  0  0  0
  -24.1776  -13.0439   20.9230 C   0  0  0  0  0  0
  -24.6393  -11.6925   20.8755 C   0  0  0  0  0  0
  -23.9079  -10.4294   21.0408 C   0  0  0  0  0  0
  -24.3627   -9.4207   21.9185 C   0  0  0  0  0  0
  -23.6299   -8.2244   22.0754 C   0  0  0  0  0  0
  -22.4281   -8.0283   21.3545 C   0  0  0  0  0  0
  -21.9919   -9.0257   20.4647 C   0  0  0  0  0  0
  -22.7250  -10.2135   20.3057 C   0  0  0  0  0  0
  -21.6855   -6.0737   22.5279 C   0  0  0  0  0  0
  -21.4016   -6.5640   23.8212 C   0  0  0  0  0  0
  -21.3660   -5.6792   24.9174 C   0  0  0  0  0  0
  -21.6044   -4.3055   24.7224 C   0  0  0  0  0  0
  -21.8819   -3.8147   23.4345 C   0  0  0  0  0  0
  -21.9194   -4.6964   22.3402 C   0  0  0  0  0  0
  -22.7795  -13.5208   21.1883 C   0  0  0  0  0  0
  -22.1662   -4.2149   21.0979 F   0  0  0  0  0  0
  -21.5628   -3.4539   25.7737 F   0  0  0  0  0  0
  -29.9453  -13.6928   20.3723 N   0  0  0  0  0  0
  -26.2880  -12.9450   20.3241 N   0  0  0  0  0  0
  -25.9325  -11.6579   20.5739 N   0  0  0  0  0  0
  -22.0448  -12.8195   22.0439 N   0  0  0  0  0  0
  -25.4115  -15.1948   20.4128 N   0  0  0  0  0  0
  -31.7500  -15.0086   20.1554 O   0  0  0  0  0  0
  -21.6643   -6.8881   21.4241 O   0  0  0  0  0  0
  -22.3477  -14.5511   20.6725 O   0  0  0  0  0  0
  -24.6446  -31.8428   23.1869 C   0  0  0  0  0  0
  -25.9212  -32.4688   23.8263 C   0  0  1  0  0  0
  -27.2167  -27.1245   20.1526 C   0  0  0  0  0  0
  -25.5954  -33.8494   24.2180 N   0  0  0  0  0  0
  -23.4487  -30.4617   21.5328 C   0  0  2  0  0  0
  -24.8981  -28.8857   20.1103 C   0  0  0  0  0  0
  -22.7573  -29.4541   22.4855 C   0  0  0  0  0  0
  -18.0306  -28.1397   22.8477 C   0  0  0  0  0  0
  -24.1492  -36.7253   23.2643 C   0  0  0  0  0  0
  -26.0055  -30.7131   21.3869 C   0  0  0  0  0  0
  -26.0763  -29.3232   20.7283 C   0  0  0  0  0  0
  -27.2368  -28.4594   20.7302 C   0  0  0  0  0  0
  -26.0112  -26.7902   19.4973 C   0  0  0  0  0  0
  -24.8792  -27.6334   19.4787 C   0  0  0  0  0  0
  -23.6756  -29.7897   20.1526 C   0  0  0  0  0  0
  -25.4125  -36.3028   24.0314 C   0  0  1  0  0  0
  -20.5919  -28.3724   23.1233 C   0  0  2  0  0  0
  -20.6789  -26.9426   22.5404 C   0  0  0  0  0  0
  -19.5763  -26.6381   21.5213 C   0  0  0  0  0  0
  -18.1944  -26.7934   22.1625 C   0  0  0  0  0  0
  -19.1562  -28.8879   23.2846 C   0  0  0  0  0  0
  -18.9478  -30.1474   23.8873 C   0  0  0  0  0  0
  -17.6474  -30.6592   24.0559 C   0  0  0  0  0  0
  -25.9076  -34.9404   23.5057 C   0  0  0  0  0  0
  -16.5365  -29.9085   23.6336 C   0  0  0  0  0  0
  -16.7290  -28.6504   23.0357 C   0  0  0  0  0  0
  -26.4528  -31.6562   25.0712 C   0  0  0  0  0  0
  -25.3708  -31.3755   26.1403 C   0  0  0  0  0  0
  -27.0399  -30.2957   24.6305 C   0  0  0  0  0  0
  -27.6052  -32.4334   25.7501 C   0  0  0  0  0  0
  -27.5575  -37.1784   24.8466 C   0  0  0  0  0  0
  -21.4264  -29.3047   22.3604 N   0  0  0  0  0  0
  -26.4287  -37.3743   23.9407 N   0  0  0  0  0  0
  -24.7195  -31.0273   22.0907 N   0  0  0  0  0  0
  -23.4210  -28.8091   23.3012 O   0  0  0  0  0  0
  -28.2682  -26.1348   20.2228 O   0  0  0  0  0  0
  -26.5665  -34.8904   22.4638 O   0  0  0  0  0  0
  -23.5562  -32.1308   23.7082 O   0  0  0  0  0  0
  -29.5553  -20.6123   20.4217 C   0  0  0  0  0  0
  -29.0973  -19.0110   20.3866 C   0  0  0  0  0  0
  -30.1604  -17.6862   20.4580 C   0  0  0  0  0  0
  -29.0606  -23.3163   20.3793 C   0  0  0  0  0  0
  -27.9926  -24.5991   20.0943 C   0  0  0  0  0  0
  -28.7246  -21.7638   20.2924 N   0  0  0  0  0  0
  -29.7739  -16.1453   20.5420 N   0  0  0  0  0  0
  -30.7583  -20.8114   20.5903 O   0  0  0  0  0  0
  -31.4722  -12.7462   19.1860 H   0  0  0  0  0  0
  -30.4308  -11.6401   20.0352 H   0  0  0  0  0  0
  -29.8401  -11.7264   17.5870 H   0  0  0  0  0  0
  -29.6089  -13.4547   17.6876 H   0  0  0  0  0  0
  -27.9498  -11.2733   18.9828 H   0  0  0  0  0  0
  -27.3907  -12.4449   17.8179 H   0  0  0  0  0  0
  -27.5904  -14.2496   19.4062 H   0  0  0  0  0  0
  -28.7589  -12.3088   21.4590 H   0  0  0  0  0  0
  -28.3709  -13.9892   21.7492 H   0  0  0  0  0  0
  -25.2771   -9.5683   22.4762 H   0  0  0  0  0  0
  -24.0007   -7.4635   22.7474 H   0  0  0  0  0  0
  -21.0850   -8.8778   19.8952 H   0  0  0  0  0  0
  -22.3709  -10.9675   19.6167 H   0  0  0  0  0  0
  -21.2009   -7.6148   23.9715 H   0  0  0  0  0  0
  -21.1482   -6.0522   25.9077 H   0  0  0  0  0  0
  -22.0597   -2.7609   23.2845 H   0  0  0  0  0  0
  -22.4075  -11.9863   22.4831 H   0  0  0  0  0  0
  -21.1061  -13.1209   22.2644 H   0  0  0  0  0  0
  -24.6395  -15.8437   20.5218 H   0  0  0  0  0  0
  -26.2494  -15.6359   20.0570 H   0  0  0  0  0  0
  -26.7278  -32.5290   23.0990 H   0  0  0  0  0  0
  -25.0074  -33.9606   25.0309 H   0  0  0  0  0  0
  -22.7519  -31.2880   21.3772 H   0  0  0  0  0  0
  -23.3759  -35.9579   23.3291 H   0  0  0  0  0  0
  -24.3575  -36.8900   22.2060 H   0  0  0  0  0  0
  -23.7243  -37.6442   23.6691 H   0  0  0  0  0  0
  -26.1626  -31.4671   20.6144 H   0  0  0  0  0  0
  -26.8752  -30.7633   22.0305 H   0  0  0  0  0  0
  -28.1343  -28.7897   21.2341 H   0  0  0  0  0  0
  -25.9091  -25.8326   19.0098 H   0  0  0  0  0  0
  -23.9796  -27.2934   18.9839 H   0  0  0  0  0  0
  -23.8135  -30.5635   19.3965 H   0  0  0  0  0  0
  -22.7899  -29.2326   19.8418 H   0  0  0  0  0  0
  -25.1314  -36.1852   25.0806 H   0  0  0  0  0  0
  -21.0010  -28.3315   24.1354 H   0  0  0  0  0  0
  -20.5683  -26.2338   23.3624 H   0  0  0  0  0  0
  -21.6655  -26.7430   22.1201 H   0  0  0  0  0  0
  -19.6923  -25.6286   21.1258 H   0  0  0  0  0  0
  -19.6698  -27.3178   20.6732 H   0  0  0  0  0  0
  -17.4212  -26.6677   21.4030 H   0  0  0  0  0  0
  -18.0345  -26.0082   22.9028 H   0  0  0  0  0  0
  -19.7953  -30.7298   24.2231 H   0  0  0  0  0  0
  -17.5027  -31.6270   24.5166 H   0  0  0  0  0  0
  -15.5364  -30.2978   23.7674 H   0  0  0  0  0  0
  -15.8691  -28.0814   22.7086 H   0  0  0  0  0  0
  -24.5894  -30.7097   25.7721 H   0  0  0  0  0  0
  -24.8890  -32.2938   26.4769 H   0  0  0  0  0  0
  -25.7986  -30.8965   27.0220 H   0  0  0  0  0  0
  -26.3022  -29.6673   24.1302 H   0  0  0  0  0  0
  -27.3996  -29.7264   25.4887 H   0  0  0  0  0  0
  -27.8935  -30.4190   23.9637 H   0  0  0  0  0  0
  -27.2639  -33.3654   26.2019 H   0  0  0  0  0  0
  -28.3896  -32.6864   25.0355 H   0  0  0  0  0  0
  -28.0685  -31.8501   26.5469 H   0  0  0  0  0  0
  -28.2584  -38.0088   24.7511 H   0  0  0  0  0  0
  -28.1079  -36.2616   24.6296 H   0  0  0  0  0  0
  -27.2291  -37.1433   25.8868 H   0  0  0  0  0  0
  -20.9478  -29.8757   21.6777 H   0  0  0  0  0  0
  -26.0152  -38.2810   24.1409 H   0  0  0  0  0  0
  -28.4943  -18.8956   19.4861 H   0  0  0  0  0  0
  -28.3931  -18.8995   21.2110 H   0  0  0  0  0  0
  -30.8139  -17.8636   21.3129 H   0  0  0  0  0  0
  -30.8220  -17.7756   19.5955 H   0  0  0  0  0  0
  -29.4607  -23.4669   21.3822 H   0  0  0  0  0  0
  -29.9148  -23.4709   19.7194 H   0  0  0  0  0  0
  -27.1231  -24.4088   20.7244 H   0  0  0  0  0  0
  -27.6403  -24.4516   19.0736 H   0  0  0  0  0  0
  -27.7437  -21.5590   20.1471 H   0  0  0  0  0  0
  -28.7935  -15.9691   20.7051 H   0  0  0  0  0  0
  1 25  1  0  0  0
  1 30  2  0  0  0
  1 77  1  0  0  0
  2  3  1  0  0  0
  2 25  1  0  0  0
  2 79  1  0  0  0
  2 80  1  0  0  0
  3  4  1  0  0  0
  3 81  1  0  0  0
  3 82  1  0  0  0
  4  5  1  0  0  0
  4 83  1  0  0  0
  4 84  1  0  0  0
  5  6  1  0  0  0
  5 26  1  0  0  0
  5 85  1  0  0  0
  6 25  1  0  0  0
  6 86  1  0  0  0
  6 87  1  0  0  0
  7  8  2  0  0  0
  7 26  1  0  0  0
  7 29  1  0  0  0
  8  9  1  0  0  0
  8 22  1  0  0  0
  9 10  1  0  0  0
  9 27  2  0  0  0
 10 11  2  0  0  0
 10 15  1  0  0  0
 11 12  1  0  0  0
 11 88  1  0  0  0
 12 13  2  0  0  0
 12 89  1  0  0  0
 13 14  1  0  0  0
 13 31  1  0  0  0
 14 15  2  0  0  0
 14 90  1  0  0  0
 15 91  1  0  0  0
 16 17  2  0  0  0
 16 21  1  0  0  0
 16 31  1  0  0  0
 17 18  1  0  0  0
 17 92  1  0  0  0
 18 19  2  0  0  0
 18 93  1  0  0  0
 19 20  1  0  0  0
 19 24  1  0  0  0
 20 21  2  0  0  0
 20 94  1  0  0  0
 21 23  1  0  0  0
 22 28  1  0  0  0
 22 32  2  0  0  0
 26 27  1  0  0  0
 28 95  1  0  0  0
 28 96  1  0  0  0
 29 97  1  0  0  0
 29 98  1  0  0  0
 33 34  1  0  0  0
 33 66  1  0  0  0
 33 70  2  0  0  0
 34 36  1  0  0  0
 34 59  1  0  0  0
 34 99  1  0  0  0
 35 44  2  0  0  0
 35 45  1  0  0  0
 35 68  1  0  0  0
 36 56  1  0  0  0
 36100  1  0  0  0
 37 39  1  0  0  0
 37 47  1  0  0  0
 37 66  1  0  0  0
 37101  1  0  0  0
 38 43  2  0  0  0
 38 46  1  0  0  0
 38 47  1  0  0  0
 39 64  1  0  0  0
 39 67  2  0  0  0
 40 52  1  0  0  0
 40 53  2  0  0  0
 40 58  1  0  0  0
 41102  1  0  0  0
 41103  1  0  0  0
 41104  1  0  0  0
 41 48  1  0  0  0
 42 43  1  0  0  0
 42 66  1  0  0  0
 42105  1  0  0  0
 42106  1  0  0  0
 43 44  1  0  0  0
 44107  1  0  0  0
 45 46  2  0  0  0
 45108  1  0  0  0
 46109  1  0  0  0
 47110  1  0  0  0
 47111  1  0  0  0
 48 56  1  0  0  0
 48 65  1  0  0  0
 48112  1  0  0  0
 49 50  1  0  0  0
 49 53  1  0  0  0
 49 64  1  0  0  0
 49113  1  0  0  0
 50 51  1  0  0  0
 50114  1  0  0  0
 50115  1  0  0  0
 51 52  1  0  0  0
 51116  1  0  0  0
 51117  1  0  0  0
 52118  1  0  0  0
 52119  1  0  0  0
 53 54  1  0  0  0
 54 55  2  0  0  0
 54120  1  0  0  0
 55 57  1  0  0  0
 55121  1  0  0  0
 56 69  2  0  0  0
 57 58  2  0  0  0
 57122  1  0  0  0
 58123  1  0  0  0
 59 60  1  0  0  0
 59 61  1  0  0  0
 59 62  1  0  0  0
 60124  1  0  0  0
 60125  1  0  0  0
 60126  1  0  0  0
 61127  1  0  0  0
 61128  1  0  0  0
 61129  1  0  0  0
 62130  1  0  0  0
 62131  1  0  0  0
 62132  1  0  0  0
 63 65  1  0  0  0
 63133  1  0  0  0
 63134  1  0  0  0
 63135  1  0  0  0
 64136  1  0  0  0
 65137  1  0  0  0
 68 75  1  0  0  0
 71 72  1  0  0  0
 71 76  1  0  0  0
 71 78  2  0  0  0
 72 73  1  0  0  0
 72138  1  0  0  0
 72139  1  0  0  0
 73 77  1  0  0  0
 73140  1  0  0  0
 73141  1  0  0  0
 74 75  1  0  0  0
 74 76  1  0  0  0
 74142  1  0  0  0
 74143  1  0  0  0
 75144  1  0  0  0
 75145  1  0  0  0
 76146  1  0  0  0
 77147  1  0  0  0
M  ISO  4   1 100  68 101  75 101  77 100
M  END
> <chiral flag>
0

> <version>
0

> <s_m_source_file>
/data/baiqing/PycharmProjects/Reinvent-master-3.2/result/LINK_invent/BTK/process_docking_weight1_custom_sum_contain_oxygen_bond_distance_aromatic_linkinvent_7_9_3/rearranged_h_0113.sdf

> <i_m_source_file_index>
57

> <r_mmod_Potential_Energy-OPLS-2005>
393.139251708984

> <r_mmod_Stretch_Energy-OPLS-2005>
276.723571777344

> <r_mmod_Bend_Energy-OPLS-2005>
253.793411254883

> <r_mmod_Torsional_Energy-OPLS-2005>
199.82405090332

> <r_mmod_Improper_Torsional_Energy-OPLS-2005>
4.40990877151489

> <r_mmod_Van_der_Waal_Energy-OPLS-2005>
113.469039916992

> <r_mmod_Electrostatic_Energy-OPLS-2005>
-397.109924316406

> <r_mmod_Solvation_Energy-OPLS-2005>
-256.582000732422

> <b_mmod_Minimization_Converged-OPLS-2005>
0

> <r_mmod_RMS_Derivative-OPLS-2005>
0.0929496586322784

$$$$
58
                    3D
 Structure written by MMmdl.
178186  0  0  1  0            999 V2000
  -30.7248  -14.4698   20.4755 C   0  0  0  0  0  0
  -30.4148  -12.2752   19.4377 C   0  0  0  0  0  0
  -29.4964  -12.4529   18.2139 C   0  0  0  0  0  0
  -28.0123  -12.3461   18.6222 C   0  0  0  0  0  0
  -27.6571  -13.2094   19.8634 C   0  0  2  0  0  0
  -28.7051  -13.0447   20.9895 C   0  0  0  0  0  0
  -25.2574  -13.8195   20.5664 C   0  0  0  0  0  0
  -24.1840  -13.0445   20.9211 C   0  0  0  0  0  0
  -24.6391  -11.6910   20.8750 C   0  0  0  0  0  0
  -23.9081  -10.4282   21.0430 C   0  0  0  0  0  0
  -24.3638   -9.4196   21.9203 C   0  0  0  0  0  0
  -23.6317   -8.2226   22.0744 C   0  0  0  0  0  0
  -22.4297   -8.0281   21.3536 C   0  0  0  0  0  0
  -21.9952   -9.0254   20.4637 C   0  0  0  0  0  0
  -22.7269  -10.2142   20.3072 C   0  0  0  0  0  0
  -21.6846   -6.0753   22.5269 C   0  0  0  0  0  0
  -21.4004   -6.5652   23.8212 C   0  0  0  0  0  0
  -21.3667   -5.6796   24.9174 C   0  0  0  0  0  0
  -21.6062   -4.3063   24.7215 C   0  0  0  0  0  0
  -21.8812   -3.8151   23.4332 C   0  0  0  0  0  0
  -21.9180   -4.6979   22.3399 C   0  0  0  0  0  0
  -22.7871  -13.5231   21.1841 C   0  0  0  0  0  0
  -22.1630   -4.2165   21.0976 F   0  0  0  0  0  0
  -21.5675   -3.4562   25.7742 F   0  0  0  0  0  0
  -30.0305  -13.3054   20.4106 N   0  0  0  0  0  0
  -26.3002  -12.9355   20.3347 N   0  0  0  0  0  0
  -25.9328  -11.6517   20.5816 N   0  0  0  0  0  0
  -22.0478  -12.8221   22.0394 N   0  0  0  0  0  0
  -25.4272  -15.1919   20.4018 N   0  0  0  0  0  0
  -31.9242  -14.5333   20.2127 O   0  0  0  0  0  0
  -21.6628   -6.8909   21.4237 O   0  0  0  0  0  0
  -22.3566  -14.5515   20.6678 O   0  0  0  0  0  0
  -24.6118  -31.8699   23.2121 C   0  0  0  0  0  0
  -25.9026  -32.4836   23.8408 C   0  0  1  0  0  0
  -27.2283  -27.4483   20.0850 C   0  0  0  0  0  0
  -25.5892  -33.8630   24.2344 N   0  0  0  0  0  0
  -23.3973  -30.4931   21.5543 C   0  0  2  0  0  0
  -24.8372  -28.9589   20.1144 C   0  0  0  0  0  0
  -22.7393  -29.4667   22.5017 C   0  0  0  0  0  0
  -18.0269  -28.1389   22.8495 C   0  0  0  0  0  0
  -24.1489  -36.7320   23.2636 C   0  0  0  0  0  0
  -25.9216  -30.8378   21.3611 C   0  0  0  0  0  0
  -25.9948  -29.4705   20.7124 C   0  0  0  0  0  0
  -27.1883  -28.7186   20.6997 C   0  0  0  0  0  0
  -26.0500  -26.9458   19.4832 C   0  0  0  0  0  0
  -24.8581  -27.6939   19.4995 C   0  0  0  0  0  0
  -23.6018  -29.8265   20.1675 C   0  0  0  0  0  0
  -25.4105  -36.3115   24.0343 C   0  0  1  0  0  0
  -20.5864  -28.3659   23.1336 C   0  0  2  0  0  0
  -20.6762  -26.9404   22.5419 C   0  0  0  0  0  0
  -19.5743  -26.6394   21.5211 C   0  0  0  0  0  0
  -18.1922  -26.7933   22.1627 C   0  0  0  0  0  0
  -19.1520  -28.8839   23.2913 C   0  0  0  0  0  0
  -18.9442  -30.1453   23.8910 C   0  0  0  0  0  0
  -17.6444  -30.6586   24.0574 C   0  0  0  0  0  0
  -25.9028  -34.9486   23.5139 C   0  0  0  0  0  0
  -16.5340  -29.9090   23.6341 C   0  0  0  0  0  0
  -16.7258  -28.6522   23.0339 C   0  0  0  0  0  0
  -26.4462  -31.6603   25.0729 C   0  0  0  0  0  0
  -25.3752  -31.3660   26.1495 C   0  0  0  0  0  0
  -27.0275  -30.3066   24.6037 C   0  0  0  0  0  0
  -27.6065  -32.4293   25.7487 C   0  0  0  0  0  0
  -27.5577  -37.1815   24.8465 C   0  0  0  0  0  0
  -21.4131  -29.3026   22.3750 N   0  0  0  0  0  0
  -26.4288  -37.3793   23.9412 N   0  0  0  0  0  0
  -24.6627  -31.0810   22.1021 N   0  0  0  0  0  0
  -23.4172  -28.8196   23.3045 O   0  0  0  0  0  0
  -28.4235  -26.7634   20.1043 O   0  0  0  0  0  0
  -26.5578  -34.8919   22.4702 O   0  0  0  0  0  0
  -23.5327  -32.1430   23.7551 O   0  0  0  0  0  0
  -30.5725  -23.9568   17.6920 C   0  0  0  0  0  0
  -31.1721  -22.7471   16.9662 C   0  0  0  0  0  0
  -30.3987  -23.6489   19.1935 C   0  0  1  0  0  0
  -30.2143  -21.2313   18.6511 C   0  0  1  0  0  0
  -27.0794  -18.7230   21.6670 C   0  0  0  0  0  0
  -29.8709  -24.5529   21.5375 C   0  0  0  0  0  0
  -27.8834  -20.1257   18.5023 C   0  0  0  0  0  0
  -31.2490  -17.1694   19.0645 C   0  0  0  0  0  0
  -28.3386  -17.8347   21.6541 C   0  0  0  0  0  0
  -28.4886  -25.4304   19.5938 C   0  0  0  0  0  0
  -29.8570  -24.8493   20.0244 C   0  0  2  0  0  0
  -29.3773  -19.9322   18.8335 C   0  0  2  0  0  0
  -30.4058  -16.9922   20.3561 C   0  0  1  0  0  0
  -29.1705  -17.9505   20.3565 C   0  0  2  0  0  0
  -30.3477  -21.5611   17.2227 N   0  0  0  0  0  0
  -29.9780  -15.5875   20.5678 N   0  0  0  0  0  0
  -29.5637  -19.3660   20.1862 N   0  0  0  0  0  0
  -29.6350  -22.3880   19.3783 N   0  3  0  0  0  0
  -31.4640  -12.3427   19.1390 H   0  0  0  0  0  0
  -30.3012  -11.2842   19.8781 H   0  0  0  0  0  0
  -29.7329  -11.6939   17.4674 H   0  0  0  0  0  0
  -29.6867  -13.4201   17.7451 H   0  0  0  0  0  0
  -27.8007  -11.2958   18.8282 H   0  0  0  0  0  0
  -27.3751  -12.6200   17.7804 H   0  0  0  0  0  0
  -27.6860  -14.2478   19.5309 H   0  0  0  0  0  0
  -28.6789  -12.0335   21.3998 H   0  0  0  0  0  0
  -28.4939  -13.7203   21.8199 H   0  0  0  0  0  0
  -25.2791   -9.5680   22.4776 H   0  0  0  0  0  0
  -24.0036   -7.4630   22.7475 H   0  0  0  0  0  0
  -21.0880   -8.8791   19.8940 H   0  0  0  0  0  0
  -22.3736  -10.9703   19.6198 H   0  0  0  0  0  0
  -21.1944   -7.6147   23.9740 H   0  0  0  0  0  0
  -21.1531   -6.0515   25.9105 H   0  0  0  0  0  0
  -22.0578   -2.7603   23.2826 H   0  0  0  0  0  0
  -22.4083  -11.9930   22.4871 H   0  0  0  0  0  0
  -21.1095  -13.1280   22.2549 H   0  0  0  0  0  0
  -24.6691  -15.8522   20.5357 H   0  0  0  0  0  0
  -26.2670  -15.6272   20.0452 H   0  0  0  0  0  0
  -26.7092  -32.5533   23.1168 H   0  0  0  0  0  0
  -25.0075  -33.9787   25.0504 H   0  0  0  0  0  0
  -22.6844  -31.3091   21.4193 H   0  0  0  0  0  0
  -23.3738  -35.9662   23.3308 H   0  0  0  0  0  0
  -24.3578  -36.8923   22.2043 H   0  0  0  0  0  0
  -23.7251  -37.6539   23.6638 H   0  0  0  0  0  0
  -26.0202  -31.6001   20.5865 H   0  0  0  0  0  0
  -26.8153  -30.8982   21.9691 H   0  0  0  0  0  0
  -28.0844  -29.1085   21.1625 H   0  0  0  0  0  0
  -26.0278  -25.9832   18.9956 H   0  0  0  0  0  0
  -23.9667  -27.2962   19.0335 H   0  0  0  0  0  0
  -23.7083  -30.6028   19.4083 H   0  0  0  0  0  0
  -22.7241  -29.2476   19.8764 H   0  0  0  0  0  0
  -25.1281  -36.1972   25.0831 H   0  0  0  0  0  0
  -20.9944  -28.3212   24.1458 H   0  0  0  0  0  0
  -20.5669  -26.2259   23.3599 H   0  0  0  0  0  0
  -21.6632  -26.7454   22.1205 H   0  0  0  0  0  0
  -19.6903  -25.6302   21.1240 H   0  0  0  0  0  0
  -19.6691  -27.3207   20.6745 H   0  0  0  0  0  0
  -17.4195  -26.6685   21.4028 H   0  0  0  0  0  0
  -18.0323  -26.0068   22.9017 H   0  0  0  0  0  0
  -19.7910  -30.7282   24.2276 H   0  0  0  0  0  0
  -17.4992  -31.6261   24.5174 H   0  0  0  0  0  0
  -15.5341  -30.2991   23.7644 H   0  0  0  0  0  0
  -15.8666  -28.0846   22.7027 H   0  0  0  0  0  0
  -24.5946  -30.6980   25.7829 H   0  0  0  0  0  0
  -24.8917  -32.2787   26.4997 H   0  0  0  0  0  0
  -25.8148  -30.8805   27.0222 H   0  0  0  0  0  0
  -26.2784  -29.6847   24.1126 H   0  0  0  0  0  0
  -27.4115  -29.7278   25.4451 H   0  0  0  0  0  0
  -27.8593  -30.4432   23.9122 H   0  0  0  0  0  0
  -27.2728  -33.3585   26.2124 H   0  0  0  0  0  0
  -28.3860  -32.6858   25.0297 H   0  0  0  0  0  0
  -28.0752  -31.8366   26.5354 H   0  0  0  0  0  0
  -28.2604  -38.0105   24.7507 H   0  0  0  0  0  0
  -28.1067  -36.2636   24.6302 H   0  0  0  0  0  0
  -27.2299  -37.1487   25.8871 H   0  0  0  0  0  0
  -20.9286  -29.8739   21.6974 H   0  0  0  0  0  0
  -26.0181  -38.2871   24.1410 H   0  0  0  0  0  0
  -29.6186  -24.2013   17.2264 H   0  0  0  0  0  0
  -31.2142  -24.8301   17.5551 H   0  0  0  0  0  0
  -32.1963  -22.5808   17.3052 H   0  0  0  0  0  0
  -31.2322  -22.9485   15.8955 H   0  0  0  0  0  0
  -31.3980  -23.4459   19.5800 H   0  0  0  0  0  0
  -31.2130  -21.0462   19.0553 H   0  0  0  0  0  0
  -26.5032  -18.5567   22.5766 H   0  0  0  0  0  0
  -26.4274  -18.5063   20.8207 H   0  0  0  0  0  0
  -27.3192  -19.7845   21.6378 H   0  0  0  0  0  0
  -30.8296  -24.1440   21.8557 H   0  0  0  0  0  0
  -29.0940  -23.8408   21.8226 H   0  0  0  0  0  0
  -29.7001  -25.4619   22.1157 H   0  0  0  0  0  0
  -27.7522  -20.5630   17.5096 H   0  0  0  0  0  0
  -27.3771  -20.7702   19.2209 H   0  0  0  0  0  0
  -27.3529  -19.1746   18.4919 H   0  0  0  0  0  0
  -31.5305  -18.2067   18.8980 H   0  0  0  0  0  0
  -30.7114  -16.8214   18.1826 H   0  0  0  0  0  0
  -32.2050  -16.6503   19.1052 H   0  0  0  0  0  0
  -28.0066  -16.8056   21.7989 H   0  0  0  0  0  0
  -28.9584  -18.0729   22.5191 H   0  0  0  0  0  0
  -27.6827  -24.8075   19.9842 H   0  0  0  0  0  0
  -28.3783  -25.4777   18.5108 H   0  0  0  0  0  0
  -30.5873  -25.6441   19.8624 H   0  0  0  0  0  0
  -29.7624  -19.2177   18.1043 H   0  0  0  0  0  0
  -31.0394  -17.2577   21.2051 H   0  0  0  0  0  0
  -28.5322  -17.6402   19.5272 H   0  0  0  0  0  0
  -30.7586  -20.7577   16.7436 H   0  0  0  0  0  0
  -28.9936  -15.4444   20.7316 H   0  0  0  0  0  0
  -28.9989  -19.8940   20.8464 H   0  0  0  0  0  0
  -28.6800  -22.5055   19.0835 H   0  0  0  0  0  0
  -29.6379  -22.1486   20.3566 H   0  0  0  0  0  0
  1 25  1  0  0  0
  1 30  2  0  0  0
  1 86  1  0  0  0
  2  3  1  0  0  0
  2 25  1  0  0  0
  2 89  1  0  0  0
  2 90  1  0  0  0
  3  4  1  0  0  0
  3 91  1  0  0  0
  3 92  1  0  0  0
  4  5  1  0  0  0
  4 93  1  0  0  0
  4 94  1  0  0  0
  5  6  1  0  0  0
  5 26  1  0  0  0
  5 95  1  0  0  0
  6 25  1  0  0  0
  6 96  1  0  0  0
  6 97  1  0  0  0
  7  8  2  0  0  0
  7 26  1  0  0  0
  7 29  1  0  0  0
  8  9  1  0  0  0
  8 22  1  0  0  0
  9 10  1  0  0  0
  9 27  2  0  0  0
 10 11  2  0  0  0
 10 15  1  0  0  0
 11 12  1  0  0  0
 11 98  1  0  0  0
 12 13  2  0  0  0
 12 99  1  0  0  0
 13 14  1  0  0  0
 13 31  1  0  0  0
 14 15  2  0  0  0
 14100  1  0  0  0
 15101  1  0  0  0
 16 17  2  0  0  0
 16 21  1  0  0  0
 16 31  1  0  0  0
 17 18  1  0  0  0
 17102  1  0  0  0
 18 19  2  0  0  0
 18103  1  0  0  0
 19 20  1  0  0  0
 19 24  1  0  0  0
 20 21  2  0  0  0
 20104  1  0  0  0
 21 23  1  0  0  0
 22 28  1  0  0  0
 22 32  2  0  0  0
 26 27  1  0  0  0
 28105  1  0  0  0
 28106  1  0  0  0
 29107  1  0  0  0
 29108  1  0  0  0
 33 34  1  0  0  0
 33 66  1  0  0  0
 33 70  2  0  0  0
 34 36  1  0  0  0
 34 59  1  0  0  0
 34109  1  0  0  0
 35 44  2  0  0  0
 35 45  1  0  0  0
 35 68  1  0  0  0
 36 56  1  0  0  0
 36110  1  0  0  0
 37 39  1  0  0  0
 37 47  1  0  0  0
 37 66  1  0  0  0
 37111  1  0  0  0
 38 43  2  0  0  0
 38 46  1  0  0  0
 38 47  1  0  0  0
 39 64  1  0  0  0
 39 67  2  0  0  0
 40 52  1  0  0  0
 40 53  2  0  0  0
 40 58  1  0  0  0
 41112  1  0  0  0
 41113  1  0  0  0
 41114  1  0  0  0
 41 48  1  0  0  0
 42 43  1  0  0  0
 42 66  1  0  0  0
 42115  1  0  0  0
 42116  1  0  0  0
 43 44  1  0  0  0
 44117  1  0  0  0
 45 46  2  0  0  0
 45118  1  0  0  0
 46119  1  0  0  0
 47120  1  0  0  0
 47121  1  0  0  0
 48 56  1  0  0  0
 48 65  1  0  0  0
 48122  1  0  0  0
 49 50  1  0  0  0
 49 53  1  0  0  0
 49 64  1  0  0  0
 49123  1  0  0  0
 50 51  1  0  0  0
 50124  1  0  0  0
 50125  1  0  0  0
 51 52  1  0  0  0
 51126  1  0  0  0
 51127  1  0  0  0
 52128  1  0  0  0
 52129  1  0  0  0
 53 54  1  0  0  0
 54 55  2  0  0  0
 54130  1  0  0  0
 55 57  1  0  0  0
 55131  1  0  0  0
 56 69  2  0  0  0
 57 58  2  0  0  0
 57132  1  0  0  0
 58133  1  0  0  0
 59 60  1  0  0  0
 59 61  1  0  0  0
 59 62  1  0  0  0
 60134  1  0  0  0
 60135  1  0  0  0
 60136  1  0  0  0
 61137  1  0  0  0
 61138  1  0  0  0
 61139  1  0  0  0
 62140  1  0  0  0
 62141  1  0  0  0
 62142  1  0  0  0
 63 65  1  0  0  0
 63143  1  0  0  0
 63144  1  0  0  0
 63145  1  0  0  0
 64146  1  0  0  0
 65147  1  0  0  0
 68 80  1  0  0  0
 71 72  1  0  0  0
 71148  1  0  0  0
 71149  1  0  0  0
 71 73  1  0  0  0
 72 85  1  0  0  0
 72150  1  0  0  0
 72151  1  0  0  0
 73 81  1  0  0  0
 73 88  1  0  0  0
 73152  1  0  0  0
 74 82  1  0  0  0
 74 85  1  0  0  0
 74 88  1  0  0  0
 74153  1  0  0  0
 75 79  1  0  0  0
 75154  1  0  0  0
 75155  1  0  0  0
 75156  1  0  0  0
 76157  1  0  0  0
 76158  1  0  0  0
 76159  1  0  0  0
 76 81  1  0  0  0
 77160  1  0  0  0
 77161  1  0  0  0
 77162  1  0  0  0
 77 82  1  0  0  0
 78163  1  0  0  0
 78164  1  0  0  0
 78165  1  0  0  0
 78 83  1  0  0  0
 79166  1  0  0  0
 79167  1  0  0  0
 79 84  1  0  0  0
 80 81  1  0  0  0
 80168  1  0  0  0
 80169  1  0  0  0
 81170  1  0  0  0
 82 87  1  0  0  0
 82171  1  0  0  0
 83 84  1  0  0  0
 83 86  1  0  0  0
 83172  1  0  0  0
 84 87  1  0  0  0
 84173  1  0  0  0
 85174  1  0  0  0
 86175  1  0  0  0
 87176  1  0  0  0
 88177  1  0  0  0
 88178  1  0  0  0
M  CHG  1  88   1
M  ISO  4   1 100  68 101  80 101  86 100
M  END
> <chiral flag>
0

> <version>
0

> <s_m_source_file>
/data/baiqing/PycharmProjects/Reinvent-master-3.2/result/LINK_invent/BTK/process_docking_weight1_custom_sum_contain_oxygen_bond_distance_aromatic_linkinvent_7_9_3/rearranged_h_0113.sdf

> <i_m_source_file_index>
58

> <r_mmod_Potential_Energy-OPLS-2005>
-229.835098266602

> <r_mmod_Stretch_Energy-OPLS-2005>
38.855842590332

> <r_mmod_Bend_Energy-OPLS-2005>
114.401496887207

> <r_mmod_Torsional_Energy-OPLS-2005>
306.097961425781

> <r_mmod_Improper_Torsional_Energy-OPLS-2005>
6.50864696502686

> <r_mmod_Van_der_Waal_Energy-OPLS-2005>
144.893112182617

> <r_mmod_Electrostatic_Energy-OPLS-2005>
-429.971008300781

> <r_mmod_Solvation_Energy-OPLS-2005>
-433.012268066406

> <b_mmod_Minimization_Converged-OPLS-2005>
0

> <r_mmod_RMS_Derivative-OPLS-2005>
3.4894917011261

$$$$
59
                    3D
 Structure written by MMmdl.
158165  0  0  1  0            999 V2000
  -30.6356  -14.7028   20.4952 C   0  0  0  0  0  0
  -30.4399  -12.4347   19.4651 C   0  0  0  0  0  0
  -29.5147  -12.5114   18.2283 C   0  0  0  0  0  0
  -28.0402  -12.3381   18.6410 C   0  0  0  0  0  0
  -27.6483  -13.2304   19.8506 C   0  0  2  0  0  0
  -28.6952  -13.1435   20.9822 C   0  0  0  0  0  0
  -25.2525  -13.8200   20.5668 C   0  0  0  0  0  0
  -24.1820  -13.0451   20.9163 C   0  0  0  0  0  0
  -24.6410  -11.6922   20.8732 C   0  0  0  0  0  0
  -23.9092  -10.4314   21.0411 C   0  0  0  0  0  0
  -24.3640   -9.4225   21.9168 C   0  0  0  0  0  0
  -23.6305   -8.2271   22.0760 C   0  0  0  0  0  0
  -22.4272   -8.0315   21.3571 C   0  0  0  0  0  0
  -21.9917   -9.0290   20.4659 C   0  0  0  0  0  0
  -22.7270  -10.2145   20.3060 C   0  0  0  0  0  0
  -21.6859   -6.0758   22.5287 C   0  0  0  0  0  0
  -21.4029   -6.5649   23.8230 C   0  0  0  0  0  0
  -21.3658   -5.6784   24.9184 C   0  0  0  0  0  0
  -21.6041   -4.3044   24.7203 C   0  0  0  0  0  0
  -21.8827   -3.8150   23.4320 C   0  0  0  0  0  0
  -21.9191   -4.6984   22.3394 C   0  0  0  0  0  0
  -22.7832  -13.5236   21.1815 C   0  0  0  0  0  0
  -22.1651   -4.2178   21.0966 F   0  0  0  0  0  0
  -21.5623   -3.4529   25.7713 F   0  0  0  0  0  0
  -29.9994  -13.4880   20.4043 N   0  0  0  0  0  0
  -26.2977  -12.9411   20.3272 N   0  0  0  0  0  0
  -25.9349  -11.6557   20.5744 N   0  0  0  0  0  0
  -22.0475  -12.8274   22.0380 N   0  0  0  0  0  0
  -25.4152  -15.1922   20.4070 N   0  0  0  0  0  0
  -31.8194  -14.8143   20.1686 O   0  0  0  0  0  0
  -21.6645   -6.8905   21.4256 O   0  0  0  0  0  0
  -22.3534  -14.5554   20.6651 O   0  0  0  0  0  0
  -24.6297  -31.8574   23.1994 C   0  0  0  0  0  0
  -25.9112  -32.4789   23.8338 C   0  0  1  0  0  0
  -27.2284  -27.2817   20.1560 C   0  0  0  0  0  0
  -25.5909  -33.8583   24.2264 N   0  0  0  0  0  0
  -23.4276  -30.4785   21.5410 C   0  0  2  0  0  0
  -24.8771  -28.9226   20.1193 C   0  0  0  0  0  0
  -22.7490  -29.4610   22.4905 C   0  0  0  0  0  0
  -18.0294  -28.1433   22.8486 C   0  0  0  0  0  0
  -24.1474  -36.7290   23.2637 C   0  0  0  0  0  0
  -25.9687  -30.7841   21.3685 C   0  0  0  0  0  0
  -26.0478  -29.4043   20.7197 C   0  0  0  0  0  0
  -27.2311  -28.6004   20.7154 C   0  0  0  0  0  0
  -26.0351  -26.8556   19.5342 C   0  0  0  0  0  0
  -24.8734  -27.6552   19.5135 C   0  0  0  0  0  0
  -23.6488  -29.8099   20.1585 C   0  0  0  0  0  0
  -25.4103  -36.3081   24.0321 C   0  0  1  0  0  0
  -20.5891  -28.3730   23.1275 C   0  0  2  0  0  0
  -20.6771  -26.9441   22.5414 C   0  0  0  0  0  0
  -19.5746  -26.6413   21.5221 C   0  0  0  0  0  0
  -18.1937  -26.7967   22.1636 C   0  0  0  0  0  0
  -19.1550  -28.8893   23.2881 C   0  0  0  0  0  0
  -18.9466  -30.1493   23.8904 C   0  0  0  0  0  0
  -17.6467  -30.6625   24.0569 C   0  0  0  0  0  0
  -25.9045  -34.9454   23.5101 C   0  0  0  0  0  0
  -16.5359  -29.9129   23.6334 C   0  0  0  0  0  0
  -16.7274  -28.6552   23.0337 C   0  0  0  0  0  0
  -26.4482  -31.6623   25.0730 C   0  0  0  0  0  0
  -25.3709  -31.3767   26.1452 C   0  0  0  0  0  0
  -27.0301  -30.3042   24.6199 C   0  0  0  0  0  0
  -27.6047  -32.4347   25.7511 C   0  0  0  0  0  0
  -27.5559  -37.1810   24.8461 C   0  0  0  0  0  0
  -21.4194  -29.3060   22.3646 N   0  0  0  0  0  0
  -26.4280  -37.3782   23.9408 N   0  0  0  0  0  0
  -24.6953  -31.0565   22.0950 N   0  0  0  0  0  0
  -23.4188  -28.8151   23.3002 O   0  0  0  0  0  0
  -28.3415  -26.4154   20.1781 O   0  0  0  0  0  0
  -26.5619  -34.8915   22.4668 O   0  0  0  0  0  0
  -23.5448  -32.1364   23.7309 O   0  0  0  0  0  0
  -29.2795  -21.2508   20.0468 C   0  0  0  0  0  0
  -30.1425  -17.3765   22.6754 C   0  0  0  0  0  0
  -28.5077  -25.0910   22.2009 C   0  0  0  0  0  0
  -29.5922  -18.5065   20.4122 C   0  0  0  0  0  0
  -28.9984  -23.8143   20.0102 C   0  0  0  0  0  0
  -29.8370  -20.0307   20.9371 C   0  0  1  0  0  0
  -30.2975  -17.2415   21.1494 C   0  0  1  0  0  0
  -28.1758  -25.0170   20.6982 C   0  0  2  0  0  0
  -29.8739  -15.8170   20.7927 N   0  0  0  0  0  0
  -31.2727  -20.3396   21.0649 N   0  3  0  0  0  0
  -29.0611  -21.1322   18.8399 O   0  0  0  0  0  0
  -29.1789  -22.5151   20.7199 O   0  0  0  0  0  0
  -30.3778  -11.4569   19.9470 H   0  0  0  0  0  0
  -31.4825  -12.5553   19.1649 H   0  0  0  0  0  0
  -29.7936  -11.7521   17.4963 H   0  0  0  0  0  0
  -29.6433  -13.4740   17.7354 H   0  0  0  0  0  0
  -27.8932  -11.2877   18.8918 H   0  0  0  0  0  0
  -27.3863  -12.5424   17.7906 H   0  0  0  0  0  0
  -27.6507  -14.2591   19.4835 H   0  0  0  0  0  0
  -28.4400  -13.8183   21.8007 H   0  0  0  0  0  0
  -28.7224  -12.1425   21.4166 H   0  0  0  0  0  0
  -25.2800   -9.5686   22.4726 H   0  0  0  0  0  0
  -24.0016   -7.4662   22.7476 H   0  0  0  0  0  0
  -21.0846   -8.8825   19.8974 H   0  0  0  0  0  0
  -22.3747  -10.9683   19.6158 H   0  0  0  0  0  0
  -21.2053   -7.6158   23.9750 H   0  0  0  0  0  0
  -21.1451   -6.0500   25.9085 H   0  0  0  0  0  0
  -22.0597   -2.7617   23.2802 H   0  0  0  0  0  0
  -22.4086  -11.9939   22.4802 H   0  0  0  0  0  0
  -21.1109  -13.1342   22.2606 H   0  0  0  0  0  0
  -24.6378  -15.8339   20.5251 H   0  0  0  0  0  0
  -26.2510  -15.6431   20.0578 H   0  0  0  0  0  0
  -26.7174  -32.5450   23.1078 H   0  0  0  0  0  0
  -25.0006  -33.9729   25.0370 H   0  0  0  0  0  0
  -22.7205  -31.2974   21.3903 H   0  0  0  0  0  0
  -23.3745  -35.9621   23.3331 H   0  0  0  0  0  0
  -24.3538  -36.8889   22.2043 H   0  0  0  0  0  0
  -23.7240  -37.6501   23.6647 H   0  0  0  0  0  0
  -26.0832  -31.5419   20.5929 H   0  0  0  0  0  0
  -26.8526  -30.8480   21.9926 H   0  0  0  0  0  0
  -28.1354  -28.9694   21.1754 H   0  0  0  0  0  0
  -25.9872  -25.8822   19.0697 H   0  0  0  0  0  0
  -23.9743  -27.2792   19.0447 H   0  0  0  0  0  0
  -23.7832  -30.5843   19.4013 H   0  0  0  0  0  0
  -22.7676  -29.2478   19.8494 H   0  0  0  0  0  0
  -25.1300  -36.1917   25.0821 H   0  0  0  0  0  0
  -20.9995  -28.3328   24.1389 H   0  0  0  0  0  0
  -20.5687  -26.2340   23.3622 H   0  0  0  0  0  0
  -21.6639  -26.7469   22.1202 H   0  0  0  0  0  0
  -19.6892  -25.6318   21.1271 H   0  0  0  0  0  0
  -19.6697  -27.3204   20.6739 H   0  0  0  0  0  0
  -17.4188  -26.6712   21.4053 H   0  0  0  0  0  0
  -18.0336  -26.0131   22.9055 H   0  0  0  0  0  0
  -19.7942  -30.7312   24.2284 H   0  0  0  0  0  0
  -17.5024  -31.6293   24.5179 H   0  0  0  0  0  0
  -15.5363  -30.3030   23.7671 H   0  0  0  0  0  0
  -15.8673  -28.0887   22.7033 H   0  0  0  0  0  0
  -24.5894  -30.7099   25.7787 H   0  0  0  0  0  0
  -24.8877  -32.2934   26.4861 H   0  0  0  0  0  0
  -25.8038  -30.8968   27.0238 H   0  0  0  0  0  0
  -26.2866  -29.6835   24.1190 H   0  0  0  0  0  0
  -27.3925  -29.7279   25.4719 H   0  0  0  0  0  0
  -27.8767  -30.4315   23.9450 H   0  0  0  0  0  0
  -27.2683  -33.3660   26.2086 H   0  0  0  0  0  0
  -28.3885  -32.6904   25.0366 H   0  0  0  0  0  0
  -28.0686  -31.8469   26.5443 H   0  0  0  0  0  0
  -28.2611  -38.0073   24.7484 H   0  0  0  0  0  0
  -28.1026  -36.2610   24.6337 H   0  0  0  0  0  0
  -27.2260  -37.1511   25.8858 H   0  0  0  0  0  0
  -20.9374  -29.8773   21.6839 H   0  0  0  0  0  0
  -26.0155  -38.2848   24.1455 H   0  0  0  0  0  0
  -30.6302  -18.2709   23.0642 H   0  0  0  0  0  0
  -30.5851  -16.5334   23.2074 H   0  0  0  0  0  0
  -29.0903  -17.4305   22.9594 H   0  0  0  0  0  0
  -28.3057  -24.1446   22.7010 H   0  0  0  0  0  0
  -29.5620  -25.3208   22.3691 H   0  0  0  0  0  0
  -27.9106  -25.8535   22.7046 H   0  0  0  0  0  0
  -29.8560  -18.4725   19.3551 H   0  0  0  0  0  0
  -28.5156  -18.3433   20.4419 H   0  0  0  0  0  0
  -30.0043  -24.1850   19.8122 H   0  0  0  0  0  0
  -28.5697  -23.6249   19.0241 H   0  0  0  0  0  0
  -29.3932  -20.1100   21.9313 H   0  0  0  0  0  0
  -31.3653  -17.3113   20.9319 H   0  0  0  0  0  0
  -27.1267  -24.7264   20.6271 H   0  0  0  0  0  0
  -28.8976  -15.6076   20.9441 H   0  0  0  0  0  0
  -31.7118  -20.3621   20.1627 H   0  0  0  0  0  0
  -31.7587  -19.6914   21.6546 H   0  0  0  0  0  0
  -31.3645  -21.2558   21.4659 H   0  0  0  0  0  0
  1 25  1  0  0  0
  1 30  2  0  0  0
  1 79  1  0  0  0
  2  3  1  0  0  0
  2 25  1  0  0  0
  2 83  1  0  0  0
  2 84  1  0  0  0
  3  4  1  0  0  0
  3 85  1  0  0  0
  3 86  1  0  0  0
  4  5  1  0  0  0
  4 87  1  0  0  0
  4 88  1  0  0  0
  5  6  1  0  0  0
  5 26  1  0  0  0
  5 89  1  0  0  0
  6 25  1  0  0  0
  6 90  1  0  0  0
  6 91  1  0  0  0
  7  8  2  0  0  0
  7 26  1  0  0  0
  7 29  1  0  0  0
  8  9  1  0  0  0
  8 22  1  0  0  0
  9 10  1  0  0  0
  9 27  2  0  0  0
 10 11  2  0  0  0
 10 15  1  0  0  0
 11 12  1  0  0  0
 11 92  1  0  0  0
 12 13  2  0  0  0
 12 93  1  0  0  0
 13 14  1  0  0  0
 13 31  1  0  0  0
 14 15  2  0  0  0
 14 94  1  0  0  0
 15 95  1  0  0  0
 16 17  2  0  0  0
 16 21  1  0  0  0
 16 31  1  0  0  0
 17 18  1  0  0  0
 17 96  1  0  0  0
 18 19  2  0  0  0
 18 97  1  0  0  0
 19 20  1  0  0  0
 19 24  1  0  0  0
 20 21  2  0  0  0
 20 98  1  0  0  0
 21 23  1  0  0  0
 22 28  1  0  0  0
 22 32  2  0  0  0
 26 27  1  0  0  0
 28 99  1  0  0  0
 28100  1  0  0  0
 29101  1  0  0  0
 29102  1  0  0  0
 33 34  1  0  0  0
 33 66  1  0  0  0
 33 70  2  0  0  0
 34 36  1  0  0  0
 34 59  1  0  0  0
 34103  1  0  0  0
 35 44  2  0  0  0
 35 45  1  0  0  0
 35 68  1  0  0  0
 36 56  1  0  0  0
 36104  1  0  0  0
 37 39  1  0  0  0
 37 47  1  0  0  0
 37 66  1  0  0  0
 37105  1  0  0  0
 38 43  2  0  0  0
 38 46  1  0  0  0
 38 47  1  0  0  0
 39 64  1  0  0  0
 39 67  2  0  0  0
 40 52  1  0  0  0
 40 53  2  0  0  0
 40 58  1  0  0  0
 41106  1  0  0  0
 41107  1  0  0  0
 41108  1  0  0  0
 41 48  1  0  0  0
 42 43  1  0  0  0
 42 66  1  0  0  0
 42109  1  0  0  0
 42110  1  0  0  0
 43 44  1  0  0  0
 44111  1  0  0  0
 45 46  2  0  0  0
 45112  1  0  0  0
 46113  1  0  0  0
 47114  1  0  0  0
 47115  1  0  0  0
 48 56  1  0  0  0
 48 65  1  0  0  0
 48116  1  0  0  0
 49 50  1  0  0  0
 49 53  1  0  0  0
 49 64  1  0  0  0
 49117  1  0  0  0
 50 51  1  0  0  0
 50118  1  0  0  0
 50119  1  0  0  0
 51 52  1  0  0  0
 51120  1  0  0  0
 51121  1  0  0  0
 52122  1  0  0  0
 52123  1  0  0  0
 53 54  1  0  0  0
 54 55  2  0  0  0
 54124  1  0  0  0
 55 57  1  0  0  0
 55125  1  0  0  0
 56 69  2  0  0  0
 57 58  2  0  0  0
 57126  1  0  0  0
 58127  1  0  0  0
 59 60  1  0  0  0
 59 61  1  0  0  0
 59 62  1  0  0  0
 60128  1  0  0  0
 60129  1  0  0  0
 60130  1  0  0  0
 61131  1  0  0  0
 61132  1  0  0  0
 61133  1  0  0  0
 62134  1  0  0  0
 62135  1  0  0  0
 62136  1  0  0  0
 63 65  1  0  0  0
 63137  1  0  0  0
 63138  1  0  0  0
 63139  1  0  0  0
 64140  1  0  0  0
 65141  1  0  0  0
 68 78  1  0  0  0
 71 76  1  0  0  0
 71 81  2  0  0  0
 71 82  1  0  0  0
 72142  1  0  0  0
 72143  1  0  0  0
 72144  1  0  0  0
 72 77  1  0  0  0
 73145  1  0  0  0
 73146  1  0  0  0
 73147  1  0  0  0
 73 78  1  0  0  0
 74 76  1  0  0  0
 74 77  1  0  0  0
 74148  1  0  0  0
 74149  1  0  0  0
 75 78  1  0  0  0
 75 82  1  0  0  0
 75150  1  0  0  0
 75151  1  0  0  0
 76 80  1  0  0  0
 76152  1  0  0  0
 77 79  1  0  0  0
 77153  1  0  0  0
 78154  1  0  0  0
 79155  1  0  0  0
 80156  1  0  0  0
 80157  1  0  0  0
 80158  1  0  0  0
M  CHG  1  80   1
M  ISO  4   1 100  68 101  78 101  79 100
M  END
> <chiral flag>
0

> <version>
0

> <s_m_source_file>
/data/baiqing/PycharmProjects/Reinvent-master-3.2/result/LINK_invent/BTK/process_docking_weight1_custom_sum_contain_oxygen_bond_distance_aromatic_linkinvent_7_9_3/rearranged_h_0113.sdf

> <i_m_source_file_index>
59

> <r_mmod_Potential_Energy-OPLS-2005>
-225.236541748047

> <r_mmod_Stretch_Energy-OPLS-2005>
122.790000915527

> <r_mmod_Bend_Energy-OPLS-2005>
156.173141479492

> <r_mmod_Torsional_Energy-OPLS-2005>
222.566116333008

> <r_mmod_Improper_Torsional_Energy-OPLS-2005>
4.79124450683594

> <r_mmod_Van_der_Waal_Energy-OPLS-2005>
114.867866516113

> <r_mmod_Electrostatic_Energy-OPLS-2005>
-407.371063232422

> <r_mmod_Solvation_Energy-OPLS-2005>
-508.705810546875

> <b_mmod_Minimization_Converged-OPLS-2005>
0

> <r_mmod_RMS_Derivative-OPLS-2005>
3.90230107307434

$$$$
60
                    3D
 Structure written by MMmdl.
170178  0  0  1  0            999 V2000
  -30.7315  -14.4540   20.6141 C   0  0  0  0  0  0
  -30.4189  -12.3172   19.4088 C   0  0  0  0  0  0
  -29.4888  -12.5197   18.1975 C   0  0  0  0  0  0
  -28.0118  -12.3741   18.6133 C   0  0  0  0  0  0
  -27.6602  -13.2104   19.8727 C   0  0  2  0  0  0
  -28.7035  -12.9905   20.9904 C   0  0  0  0  0  0
  -25.2578  -13.8166   20.5678 C   0  0  0  0  0  0
  -24.1831  -13.0440   20.9184 C   0  0  0  0  0  0
  -24.6387  -11.6908   20.8732 C   0  0  0  0  0  0
  -23.9056  -10.4293   21.0396 C   0  0  0  0  0  0
  -24.3609   -9.4210   21.9175 C   0  0  0  0  0  0
  -23.6288   -8.2243   22.0747 C   0  0  0  0  0  0
  -22.4270   -8.0279   21.3542 C   0  0  0  0  0  0
  -21.9902   -9.0248   20.4643 C   0  0  0  0  0  0
  -22.7229  -10.2129   20.3046 C   0  0  0  0  0  0
  -21.6853   -6.0733   22.5280 C   0  0  0  0  0  0
  -21.4012   -6.5635   23.8214 C   0  0  0  0  0  0
  -21.3660   -5.6788   24.9178 C   0  0  0  0  0  0
  -21.6043   -4.3051   24.7225 C   0  0  0  0  0  0
  -21.8820   -3.8144   23.4344 C   0  0  0  0  0  0
  -21.9192   -4.6962   22.3402 C   0  0  0  0  0  0
  -22.7855  -13.5237   21.1855 C   0  0  0  0  0  0
  -22.1662   -4.2148   21.0978 F   0  0  0  0  0  0
  -21.5629   -3.4532   25.7734 F   0  0  0  0  0  0
  -30.0344  -13.2981   20.4374 N   0  0  0  0  0  0
  -26.3015  -12.9345   20.3354 N   0  0  0  0  0  0
  -25.9316  -11.6503   20.5748 N   0  0  0  0  0  0
  -22.0485  -12.8230   22.0403 N   0  0  0  0  0  0
  -25.4291  -15.1887   20.4085 N   0  0  0  0  0  0
  -31.8270  -14.6630   20.0881 O   0  0  0  0  0  0
  -21.6640   -6.8874   21.4239 O   0  0  0  0  0  0
  -22.3547  -14.5544   20.6703 O   0  0  0  0  0  0
  -24.6160  -31.8665   23.2081 C   0  0  0  0  0  0
  -25.9050  -32.4815   23.8381 C   0  0  1  0  0  0
  -27.2338  -27.4127   20.0967 C   0  0  0  0  0  0
  -25.5925  -33.8616   24.2323 N   0  0  0  0  0  0
  -23.4043  -30.4885   21.5474 C   0  0  2  0  0  0
  -24.8520  -28.9513   20.1127 C   0  0  0  0  0  0
  -22.7409  -29.4653   22.4963 C   0  0  0  0  0  0
  -18.0264  -28.1380   22.8476 C   0  0  0  0  0  0
  -24.1500  -36.7296   23.2641 C   0  0  0  0  0  0
  -25.9350  -30.8224   21.3683 C   0  0  0  0  0  0
  -26.0107  -29.4528   20.7194 C   0  0  0  0  0  0
  -27.2020  -28.6881   20.7148 C   0  0  0  0  0  0
  -26.0615  -26.9443   19.4608 C   0  0  0  0  0  0
  -24.8715  -27.6951   19.4827 C   0  0  0  0  0  0
  -23.6153  -29.8190   20.1625 C   0  0  0  0  0  0
  -25.4119  -36.3102   24.0345 C   0  0  1  0  0  0
  -20.5859  -28.3666   23.1309 C   0  0  2  0  0  0
  -20.6758  -26.9405   22.5408 C   0  0  0  0  0  0
  -19.5742  -26.6394   21.5196 C   0  0  0  0  0  0
  -18.1919  -26.7928   22.1608 C   0  0  0  0  0  0
  -19.1516  -28.8836   23.2889 C   0  0  0  0  0  0
  -18.9442  -30.1441   23.8896 C   0  0  0  0  0  0
  -17.6447  -30.6583   24.0547 C   0  0  0  0  0  0
  -25.9030  -34.9469   23.5125 C   0  0  0  0  0  0
  -16.5338  -29.9082   23.6321 C   0  0  0  0  0  0
  -16.7257  -28.6503   23.0344 C   0  0  0  0  0  0
  -26.4480  -31.6597   25.0701 C   0  0  0  0  0  0
  -25.3765  -31.3688   26.1458 C   0  0  0  0  0  0
  -27.0309  -30.3046   24.6072 C   0  0  0  0  0  0
  -27.6059  -32.4311   25.7468 C   0  0  0  0  0  0
  -27.5576  -37.1816   24.8466 C   0  0  0  0  0  0
  -21.4133  -29.3044   22.3720 N   0  0  0  0  0  0
  -26.4299  -37.3790   23.9404 N   0  0  0  0  0  0
  -24.6694  -31.0742   22.0999 N   0  0  0  0  0  0
  -23.4180  -28.8200   23.3010 O   0  0  0  0  0  0
  -28.4064  -26.6735   20.0673 O   0  0  0  0  0  0
  -26.5568  -34.8931   22.4663 O   0  0  0  0  0  0
  -23.5357  -32.1427   23.7467 O   0  0  0  0  0  0
  -29.3675  -24.5041   19.5459 C   0  0  0  0  0  0
  -29.3570  -23.0942   19.6741 C   0  0  0  0  0  0
  -28.3779  -22.4449   20.5099 C   0  0  0  0  0  0
  -27.4194  -23.3637   21.0797 C   0  0  0  0  0  0
  -28.4181  -25.2879   20.2058 C   0  0  0  0  0  0
  -30.3915  -22.3785   18.8229 C   0  0  0  0  0  0
  -26.1361  -22.9895   21.8057 C   0  0  0  0  0  0
  -30.2841  -16.8688   23.3529 C   0  0  0  0  0  0
  -27.6997  -20.4896   22.1115 C   0  0  0  0  0  0
  -27.3688  -20.3046   19.6141 C   0  0  0  0  0  0
  -30.8484  -17.8583   21.0360 C   0  0  0  0  0  0
  -29.6585  -20.0569   20.6545 C   0  0  0  0  0  0
  -30.8185  -16.5838   21.9372 C   0  0  2  0  0  0
  -28.2930  -20.8605   20.7182 C   0  0  0  0  0  0
  -27.4795  -24.7102   20.9673 N   0  0  0  0  0  0
  -30.1404  -15.4008   21.3709 N   0  0  0  0  0  0
  -29.5583  -18.5927   20.9589 N   0  3  0  0  0  0
  -31.4619  -12.4166   19.1027 H   0  0  0  0  0  0
  -30.3222  -11.3037   19.8001 H   0  0  0  0  0  0
  -29.7295  -11.8030   17.4112 H   0  0  0  0  0  0
  -29.6540  -13.5092   17.7681 H   0  0  0  0  0  0
  -27.8235  -11.3169   18.8044 H   0  0  0  0  0  0
  -27.3599  -12.6514   17.7837 H   0  0  0  0  0  0
  -27.7046  -14.2590   19.5785 H   0  0  0  0  0  0
  -28.6810  -11.9540   21.3300 H   0  0  0  0  0  0
  -28.4589  -13.5880   21.8693 H   0  0  0  0  0  0
  -25.2757   -9.5692   22.4747 H   0  0  0  0  0  0
  -24.0004   -7.4636   22.7466 H   0  0  0  0  0  0
  -21.0838   -8.8765   19.8949 H   0  0  0  0  0  0
  -22.3690  -10.9660   19.6147 H   0  0  0  0  0  0
  -21.2002   -7.6143   23.9718 H   0  0  0  0  0  0
  -21.1481   -6.0515   25.9081 H   0  0  0  0  0  0
  -22.0595   -2.7602   23.2842 H   0  0  0  0  0  0
  -22.4070  -11.9870   22.4772 H   0  0  0  0  0  0
  -21.1105  -13.1271   22.2601 H   0  0  0  0  0  0
  -24.6591  -15.8415   20.5077 H   0  0  0  0  0  0
  -26.2775  -15.6235   20.0695 H   0  0  0  0  0  0
  -26.7110  -32.5510   23.1136 H   0  0  0  0  0  0
  -25.0204  -33.9776   25.0562 H   0  0  0  0  0  0
  -22.6945  -31.3059   21.4056 H   0  0  0  0  0  0
  -23.3761  -35.9625   23.3315 H   0  0  0  0  0  0
  -24.3613  -36.8872   22.2051 H   0  0  0  0  0  0
  -23.7268  -37.6517   23.6632 H   0  0  0  0  0  0
  -26.0517  -31.5859   20.5982 H   0  0  0  0  0  0
  -26.8241  -30.8756   21.9848 H   0  0  0  0  0  0
  -28.0962  -29.0709   21.1874 H   0  0  0  0  0  0
  -26.0629  -25.9897   18.9535 H   0  0  0  0  0  0
  -23.9846  -27.3063   19.0024 H   0  0  0  0  0  0
  -23.7245  -30.5921   19.4010 H   0  0  0  0  0  0
  -22.7411  -29.2356   19.8663 H   0  0  0  0  0  0
  -25.1310  -36.1958   25.0841 H   0  0  0  0  0  0
  -20.9937  -28.3228   24.1440 H   0  0  0  0  0  0
  -20.5652  -26.2276   23.3592 H   0  0  0  0  0  0
  -21.6633  -26.7458   22.1202 H   0  0  0  0  0  0
  -19.6901  -25.6306   21.1226 H   0  0  0  0  0  0
  -19.6699  -27.3192   20.6718 H   0  0  0  0  0  0
  -17.4199  -26.6669   21.3997 H   0  0  0  0  0  0
  -18.0322  -26.0069   22.9007 H   0  0  0  0  0  0
  -19.7926  -30.7247   24.2276 H   0  0  0  0  0  0
  -17.5015  -31.6262   24.5158 H   0  0  0  0  0  0
  -15.5338  -30.2982   23.7674 H   0  0  0  0  0  0
  -15.8659  -28.0834   22.7058 H   0  0  0  0  0  0
  -24.5956  -30.7004   25.7808 H   0  0  0  0  0  0
  -24.8932  -32.2820   26.4920 H   0  0  0  0  0  0
  -25.8146  -30.8870   27.0203 H   0  0  0  0  0  0
  -26.2831  -29.6813   24.1146 H   0  0  0  0  0  0
  -27.4105  -29.7283   25.4517 H   0  0  0  0  0  0
  -27.8662  -30.4371   23.9197 H   0  0  0  0  0  0
  -27.2685  -33.3616   26.2046 H   0  0  0  0  0  0
  -28.3871  -32.6854   25.0292 H   0  0  0  0  0  0
  -28.0715  -31.8428   26.5381 H   0  0  0  0  0  0
  -28.2615  -38.0096   24.7492 H   0  0  0  0  0  0
  -28.1057  -36.2628   24.6321 H   0  0  0  0  0  0
  -27.2284  -37.1477   25.8868 H   0  0  0  0  0  0
  -20.9291  -29.8800   21.6970 H   0  0  0  0  0  0
  -26.0179  -38.2869   24.1380 H   0  0  0  0  0  0
  -30.0902  -25.0020   18.9148 H   0  0  0  0  0  0
  -30.8707  -23.0623   18.1220 H   0  0  0  0  0  0
  -29.9322  -21.6062   18.2073 H   0  0  0  0  0  0
  -31.1926  -21.9646   19.4353 H   0  0  0  0  0  0
  -25.5846  -22.2244   21.2621 H   0  0  0  0  0  0
  -25.4554  -23.8399   21.8775 H   0  0  0  0  0  0
  -26.3340  -22.6743   22.8292 H   0  0  0  0  0  0
  -30.8363  -17.6823   23.8257 H   0  0  0  0  0  0
  -30.3992  -15.9950   23.9956 H   0  0  0  0  0  0
  -29.2275  -17.1374   23.3543 H   0  0  0  0  0  0
  -26.6210  -20.5923   22.1592 H   0  0  0  0  0  0
  -28.1524  -21.0825   22.9071 H   0  0  0  0  0  0
  -27.8199  -19.4499   22.4037 H   0  0  0  0  0  0
  -26.3850  -20.7723   19.6342 H   0  0  0  0  0  0
  -27.2045  -19.2314   19.7167 H   0  0  0  0  0  0
  -27.7833  -20.4757   18.6196 H   0  0  0  0  0  0
  -31.1972  -17.6202   20.0297 H   0  0  0  0  0  0
  -31.5994  -18.5301   21.4560 H   0  0  0  0  0  0
  -30.3762  -20.5136   21.3393 H   0  0  0  0  0  0
  -30.0999  -20.0664   19.6641 H   0  0  0  0  0  0
  -31.8655  -16.3018   22.0743 H   0  0  0  0  0  0
  -29.2299  -15.1615   21.7341 H   0  0  0  0  0  0
  -29.1070  -18.5073   21.8553 H   0  0  0  0  0  0
  -28.9752  -18.1422   20.2720 H   0  0  0  0  0  0
  1 25  1  0  0  0
  1 30  2  0  0  0
  1 86  1  0  0  0
  2  3  1  0  0  0
  2 25  1  0  0  0
  2 88  1  0  0  0
  2 89  1  0  0  0
  3  4  1  0  0  0
  3 90  1  0  0  0
  3 91  1  0  0  0
  4  5  1  0  0  0
  4 92  1  0  0  0
  4 93  1  0  0  0
  5  6  1  0  0  0
  5 26  1  0  0  0
  5 94  1  0  0  0
  6 25  1  0  0  0
  6 95  1  0  0  0
  6 96  1  0  0  0
  7  8  2  0  0  0
  7 26  1  0  0  0
  7 29  1  0  0  0
  8  9  1  0  0  0
  8 22  1  0  0  0
  9 10  1  0  0  0
  9 27  2  0  0  0
 10 11  2  0  0  0
 10 15  1  0  0  0
 11 12  1  0  0  0
 11 97  1  0  0  0
 12 13  2  0  0  0
 12 98  1  0  0  0
 13 14  1  0  0  0
 13 31  1  0  0  0
 14 15  2  0  0  0
 14 99  1  0  0  0
 15100  1  0  0  0
 16 17  2  0  0  0
 16 21  1  0  0  0
 16 31  1  0  0  0
 17 18  1  0  0  0
 17101  1  0  0  0
 18 19  2  0  0  0
 18102  1  0  0  0
 19 20  1  0  0  0
 19 24  1  0  0  0
 20 21  2  0  0  0
 20103  1  0  0  0
 21 23  1  0  0  0
 22 28  1  0  0  0
 22 32  2  0  0  0
 26 27  1  0  0  0
 28104  1  0  0  0
 28105  1  0  0  0
 29106  1  0  0  0
 29107  1  0  0  0
 33 34  1  0  0  0
 33 66  1  0  0  0
 33 70  2  0  0  0
 34 36  1  0  0  0
 34 59  1  0  0  0
 34108  1  0  0  0
 35 44  2  0  0  0
 35 45  1  0  0  0
 35 68  1  0  0  0
 36 56  1  0  0  0
 36109  1  0  0  0
 37 39  1  0  0  0
 37 47  1  0  0  0
 37 66  1  0  0  0
 37110  1  0  0  0
 38 43  2  0  0  0
 38 46  1  0  0  0
 38 47  1  0  0  0
 39 64  1  0  0  0
 39 67  2  0  0  0
 40 52  1  0  0  0
 40 53  2  0  0  0
 40 58  1  0  0  0
 41111  1  0  0  0
 41112  1  0  0  0
 41113  1  0  0  0
 41 48  1  0  0  0
 42 43  1  0  0  0
 42 66  1  0  0  0
 42114  1  0  0  0
 42115  1  0  0  0
 43 44  1  0  0  0
 44116  1  0  0  0
 45 46  2  0  0  0
 45117  1  0  0  0
 46118  1  0  0  0
 47119  1  0  0  0
 47120  1  0  0  0
 48 56  1  0  0  0
 48 65  1  0  0  0
 48121  1  0  0  0
 49 50  1  0  0  0
 49 53  1  0  0  0
 49 64  1  0  0  0
 49122  1  0  0  0
 50 51  1  0  0  0
 50123  1  0  0  0
 50124  1  0  0  0
 51 52  1  0  0  0
 51125  1  0  0  0
 51126  1  0  0  0
 52127  1  0  0  0
 52128  1  0  0  0
 53 54  1  0  0  0
 54 55  2  0  0  0
 54129  1  0  0  0
 55 57  1  0  0  0
 55130  1  0  0  0
 56 69  2  0  0  0
 57 58  2  0  0  0
 57131  1  0  0  0
 58132  1  0  0  0
 59 60  1  0  0  0
 59 61  1  0  0  0
 59 62  1  0  0  0
 60133  1  0  0  0
 60134  1  0  0  0
 60135  1  0  0  0
 61136  1  0  0  0
 61137  1  0  0  0
 61138  1  0  0  0
 62139  1  0  0  0
 62140  1  0  0  0
 62141  1  0  0  0
 63 65  1  0  0  0
 63142  1  0  0  0
 63143  1  0  0  0
 63144  1  0  0  0
 64145  1  0  0  0
 65146  1  0  0  0
 68 75  1  0  0  0
 71 72  2  0  0  0
 71 75  1  0  0  0
 71147  1  0  0  0
 72 73  1  0  0  0
 72 76  1  0  0  0
 73 74  2  0  0  0
 73 84  1  0  0  0
 74 77  1  0  0  0
 74 85  1  0  0  0
 75 85  2  0  0  0
 76148  1  0  0  0
 76149  1  0  0  0
 76150  1  0  0  0
 77151  1  0  0  0
 77152  1  0  0  0
 77153  1  0  0  0
 78154  1  0  0  0
 78155  1  0  0  0
 78156  1  0  0  0
 78 83  1  0  0  0
 79157  1  0  0  0
 79158  1  0  0  0
 79159  1  0  0  0
 79 84  1  0  0  0
 80 84  1  0  0  0
 80160  1  0  0  0
 80161  1  0  0  0
 80162  1  0  0  0
 81 83  1  0  0  0
 81 87  1  0  0  0
 81163  1  0  0  0
 81164  1  0  0  0
 82 84  1  0  0  0
 82 87  1  0  0  0
 82165  1  0  0  0
 82166  1  0  0  0
 83 86  1  0  0  0
 83167  1  0  0  0
 86168  1  0  0  0
 87169  1  0  0  0
 87170  1  0  0  0
M  CHG  1  87   1
M  ISO  4   1 100  68 101  75 101  86 100
M  END
> <chiral flag>
0

> <version>
0

> <s_m_source_file>
/data/baiqing/PycharmProjects/Reinvent-master-3.2/result/LINK_invent/BTK/process_docking_weight1_custom_sum_contain_oxygen_bond_distance_aromatic_linkinvent_7_9_3/rearranged_h_0113.sdf

> <i_m_source_file_index>
60

> <r_mmod_Potential_Energy-OPLS-2005>
-280.046936035156

> <r_mmod_Stretch_Energy-OPLS-2005>
60.7002067565918

> <r_mmod_Bend_Energy-OPLS-2005>
141.559707641602

> <r_mmod_Torsional_Energy-OPLS-2005>
263.877014160156

> <r_mmod_Improper_Torsional_Energy-OPLS-2005>
2.8643102645874

> <r_mmod_Van_der_Waal_Energy-OPLS-2005>
182.896881103516

> <r_mmod_Electrostatic_Energy-OPLS-2005>
-468.296600341797

> <r_mmod_Solvation_Energy-OPLS-2005>
-475.670776367188

> <b_mmod_Minimization_Converged-OPLS-2005>
0

> <r_mmod_RMS_Derivative-OPLS-2005>
1.95130407810211

$$$$
62
                    3D
 Structure written by MMmdl.
167175  0  0  1  0            999 V2000
  -30.6359  -14.4456   20.5525 C   0  0  0  0  0  0
  -30.4135  -12.2666   19.4241 C   0  0  0  0  0  0
  -29.4972  -12.5011   18.2026 C   0  0  0  0  0  0
  -28.0074  -12.3768   18.5951 C   0  0  0  0  0  0
  -27.6559  -13.1881   19.8727 C   0  0  2  0  0  0
  -28.6878  -12.9191   20.9898 C   0  0  0  0  0  0
  -25.2593  -13.8117   20.5625 C   0  0  0  0  0  0
  -24.1804  -13.0393   20.9160 C   0  0  0  0  0  0
  -24.6344  -11.6880   20.8710 C   0  0  0  0  0  0
  -23.9034  -10.4268   21.0390 C   0  0  0  0  0  0
  -24.3600   -9.4203   21.9181 C   0  0  0  0  0  0
  -23.6286   -8.2234   22.0748 C   0  0  0  0  0  0
  -22.4273   -8.0269   21.3539 C   0  0  0  0  0  0
  -21.9888   -9.0237   20.4648 C   0  0  0  0  0  0
  -22.7207  -10.2122   20.3052 C   0  0  0  0  0  0
  -21.6845   -6.0739   22.5282 C   0  0  0  0  0  0
  -21.4017   -6.5646   23.8215 C   0  0  0  0  0  0
  -21.3662   -5.6797   24.9177 C   0  0  0  0  0  0
  -21.6038   -4.3056   24.7220 C   0  0  0  0  0  0
  -21.8831   -3.8157   23.4335 C   0  0  0  0  0  0
  -21.9187   -4.6973   22.3400 C   0  0  0  0  0  0
  -22.7861  -13.5244   21.1845 C   0  0  0  0  0  0
  -22.1662   -4.2159   21.0973 F   0  0  0  0  0  0
  -21.5625   -3.4540   25.7732 F   0  0  0  0  0  0
  -30.0197  -13.2401   20.4528 N   0  0  0  0  0  0
  -26.2959  -12.9227   20.3284 N   0  0  0  0  0  0
  -25.9237  -11.6417   20.5653 N   0  0  0  0  0  0
  -22.0533  -12.8206   22.0425 N   0  0  0  0  0  0
  -25.4372  -15.1823   20.4077 N   0  0  0  0  0  0
  -31.7838  -14.6577   20.1384 O   0  0  0  0  0  0
  -21.6629   -6.8879   21.4243 O   0  0  0  0  0  0
  -22.3544  -14.5573   20.6755 O   0  0  0  0  0  0
  -24.6107  -31.8663   23.2069 C   0  0  0  0  0  0
  -25.9049  -32.4792   23.8356 C   0  0  1  0  0  0
  -27.2441  -27.3934   20.1122 C   0  0  0  0  0  0
  -25.5952  -33.8601   24.2320 N   0  0  0  0  0  0
  -23.4033  -30.4906   21.5327 C   0  0  2  0  0  0
  -24.8543  -28.9420   20.1177 C   0  0  0  0  0  0
  -22.7435  -29.4691   22.4878 C   0  0  0  0  0  0
  -18.0289  -28.1357   22.8524 C   0  0  0  0  0  0
  -24.1503  -36.7279   23.2640 C   0  0  0  0  0  0
  -25.9369  -30.8140   21.3755 C   0  0  0  0  0  0
  -26.0151  -29.4456   20.7223 C   0  0  0  0  0  0
  -27.2105  -28.6769   20.7193 C   0  0  0  0  0  0
  -26.0700  -26.9369   19.4708 C   0  0  0  0  0  0
  -24.8789  -27.6852   19.4913 C   0  0  0  0  0  0
  -23.6136  -29.8087   20.1553 C   0  0  0  0  0  0
  -25.4136  -36.3084   24.0334 C   0  0  1  0  0  0
  -20.5919  -28.3753   23.1310 C   0  0  2  0  0  0
  -20.6834  -26.9445   22.5501 C   0  0  0  0  0  0
  -19.5798  -26.6378   21.5255 C   0  0  0  0  0  0
  -18.2023  -26.7838   22.1772 C   0  0  0  0  0  0
  -19.1562  -28.8881   23.2890 C   0  0  0  0  0  0
  -18.9426  -30.1588   23.8781 C   0  0  0  0  0  0
  -17.6394  -30.6641   24.0464 C   0  0  0  0  0  0
  -25.9055  -34.9466   23.5124 C   0  0  0  0  0  0
  -16.5313  -29.9028   23.6340 C   0  0  0  0  0  0
  -16.7279  -28.6435   23.0395 C   0  0  0  0  0  0
  -26.4481  -31.6589   25.0713 C   0  0  0  0  0  0
  -25.3697  -31.3733   26.1428 C   0  0  0  0  0  0
  -27.0370  -30.3001   24.6226 C   0  0  0  0  0  0
  -27.6081  -32.4307   25.7498 C   0  0  0  0  0  0
  -27.5585  -37.1800   24.8468 C   0  0  0  0  0  0
  -21.4165  -29.3127   22.3717 N   0  0  0  0  0  0
  -26.4306  -37.3767   23.9378 N   0  0  0  0  0  0
  -24.6641  -31.0772   22.0915 N   0  0  0  0  0  0
  -23.4176  -28.8283   23.2968 O   0  0  0  0  0  0
  -28.4266  -26.6659   20.0252 O   0  0  0  0  0  0
  -26.5613  -34.8910   22.4680 O   0  0  0  0  0  0
  -23.5326  -32.1514   23.7454 O   0  0  0  0  0  0
  -27.8184  -19.4145   23.3090 C   0  0  0  0  0  0
  -28.4570  -18.7796   21.0691 C   0  0  0  0  0  0
  -27.7088  -19.6397   21.9195 C   0  0  0  0  0  0
  -28.6518  -18.3930   23.7954 C   0  0  0  0  0  0
  -29.2789  -17.7793   21.6531 C   0  0  0  0  0  0
  -28.7836  -18.1296   25.2805 C   0  0  0  0  0  0
  -27.4917  -21.2002   19.0519 C   0  0  0  0  0  0
  -25.4599  -22.2706   20.0132 C   0  0  0  0  0  0
  -26.6528  -20.6580   21.4476 C   0  0  0  0  0  0
  -30.1941  -16.8722   20.8397 C   0  0  0  0  0  0
  -27.5729  -24.2572   20.2315 C   0  0  0  0  0  0
  -28.5664  -25.3715   20.6872 C   0  0  0  0  0  0
  -26.8948  -21.7750   20.3579 C   0  0  0  0  0  0
  -29.3616  -17.5869   22.9840 N   0  0  0  0  0  0
  -29.8347  -15.4581   20.9243 N   0  0  0  0  0  0
  -27.7414  -22.9081   20.8787 N   0  3  0  0  0  0
  -31.4635  -12.3644   19.1476 H   0  0  0  0  0  0
  -30.2946  -11.2484   19.8014 H   0  0  0  0  0  0
  -29.7418  -11.8039   17.4031 H   0  0  0  0  0  0
  -29.6834  -13.4968   17.7988 H   0  0  0  0  0  0
  -27.7887  -11.3204   18.7485 H   0  0  0  0  0  0
  -27.3798  -12.7003   17.7620 H   0  0  0  0  0  0
  -27.7121  -14.2392   19.6020 H   0  0  0  0  0  0
  -28.6527  -11.8671   21.2786 H   0  0  0  0  0  0
  -28.4563  -13.4745   21.8977 H   0  0  0  0  0  0
  -25.2756   -9.5679   22.4723 H   0  0  0  0  0  0
  -24.0009   -7.4629   22.7449 H   0  0  0  0  0  0
  -21.0825   -8.8755   19.8952 H   0  0  0  0  0  0
  -22.3678  -10.9655   19.6143 H   0  0  0  0  0  0
  -21.2023   -7.6154   23.9722 H   0  0  0  0  0  0
  -21.1473   -6.0524   25.9075 H   0  0  0  0  0  0
  -22.0606   -2.7616   23.2831 H   0  0  0  0  0  0
  -22.4172  -11.9819   22.4696 H   0  0  0  0  0  0
  -21.1183  -13.1241   22.2719 H   0  0  0  0  0  0
  -24.6840  -15.8474   20.5465 H   0  0  0  0  0  0
  -26.2897  -15.6172   20.0751 H   0  0  0  0  0  0
  -26.7143  -32.5469   23.1137 H   0  0  0  0  0  0
  -25.0085  -33.9719   25.0452 H   0  0  0  0  0  0
  -22.6860  -31.3022   21.3792 H   0  0  0  0  0  0
  -23.3759  -35.9598   23.3322 H   0  0  0  0  0  0
  -24.3600  -36.8869   22.2034 H   0  0  0  0  0  0
  -23.7232  -37.6489   23.6645 H   0  0  0  0  0  0
  -26.0921  -31.5747   20.6137 H   0  0  0  0  0  0
  -26.8090  -30.8415   22.0198 H   0  0  0  0  0  0
  -28.1143  -29.0580   21.1688 H   0  0  0  0  0  0
  -26.0696  -26.0054   18.9257 H   0  0  0  0  0  0
  -23.9934  -27.2974   18.9999 H   0  0  0  0  0  0
  -23.7155  -30.5618   19.3737 H   0  0  0  0  0  0
  -22.7389  -29.2170   19.8746 H   0  0  0  0  0  0
  -25.1306  -36.1947   25.0820 H   0  0  0  0  0  0
  -21.0024  -28.3416   24.1460 H   0  0  0  0  0  0
  -20.5712  -26.2352   23.3764 H   0  0  0  0  0  0
  -21.6759  -26.7450   22.1353 H   0  0  0  0  0  0
  -19.7003  -25.6311   21.1359 H   0  0  0  0  0  0
  -19.6752  -27.3269   20.6817 H   0  0  0  0  0  0
  -17.4240  -26.6550   21.4246 H   0  0  0  0  0  0
  -18.0427  -26.0073   22.9287 H   0  0  0  0  0  0
  -19.7904  -30.7521   24.2053 H   0  0  0  0  0  0
  -17.4913  -31.6345   24.5055 H   0  0  0  0  0  0
  -15.5307  -30.2848   23.7732 H   0  0  0  0  0  0
  -15.8708  -28.0685   22.7145 H   0  0  0  0  0  0
  -24.5930  -30.7032   25.7744 H   0  0  0  0  0  0
  -24.8827  -32.2878   26.4794 H   0  0  0  0  0  0
  -25.7982  -30.8953   27.0243 H   0  0  0  0  0  0
  -26.2983  -29.6725   24.1232 H   0  0  0  0  0  0
  -27.4019  -29.7310   25.4800 H   0  0  0  0  0  0
  -27.8873  -30.4308   23.9537 H   0  0  0  0  0  0
  -27.2762  -33.3663   26.2046 H   0  0  0  0  0  0
  -28.3924  -32.6769   25.0313 H   0  0  0  0  0  0
  -28.0725  -31.8417   26.5428 H   0  0  0  0  0  0
  -28.2621  -38.0101   24.7512 H   0  0  0  0  0  0
  -28.1090  -36.2605   24.6322 H   0  0  0  0  0  0
  -27.2301  -37.1480   25.8889 H   0  0  0  0  0  0
  -20.9325  -29.8747   21.6899 H   0  0  0  0  0  0
  -26.0207  -38.2853   24.1338 H   0  0  0  0  0  0
  -27.2367  -20.0018   24.0094 H   0  0  0  0  0  0
  -28.3948  -18.8447   19.9906 H   0  0  0  0  0  0
  -28.9439  -17.0689   25.4699 H   0  0  0  0  0  0
  -27.8829  -18.4334   25.8094 H   0  0  0  0  0  0
  -29.6272  -18.6858   25.6838 H   0  0  0  0  0  0
  -26.9654  -20.2844   18.7681 H   0  0  0  0  0  0
  -28.5521  -20.9747   19.1411 H   0  0  0  0  0  0
  -27.3800  -21.8916   18.2135 H   0  0  0  0  0  0
  -24.8257  -21.4413   19.6887 H   0  0  0  0  0  0
  -25.4497  -22.9969   19.1963 H   0  0  0  0  0  0
  -24.9715  -22.7362   20.8726 H   0  0  0  0  0  0
  -26.2682  -21.1602   22.3352 H   0  0  0  0  0  0
  -25.8192  -20.0345   21.1207 H   0  0  0  0  0  0
  -31.1990  -16.9820   21.2509 H   0  0  0  0  0  0
  -30.2375  -17.2003   19.8022 H   0  0  0  0  0  0
  -27.6613  -24.1585   19.1531 H   0  0  0  0  0  0
  -26.5655  -24.6068   20.4415 H   0  0  0  0  0  0
  -28.5503  -25.5163   21.7730 H   0  0  0  0  0  0
  -29.5840  -25.0119   20.4661 H   0  0  0  0  0  0
  -28.8814  -15.2539   21.1844 H   0  0  0  0  0  0
  -27.5353  -23.0267   21.8600 H   0  0  0  0  0  0
  -28.7087  -22.6200   20.8440 H   0  0  0  0  0  0
  1 25  1  0  0  0
  1 30  2  0  0  0
  1 85  1  0  0  0
  2  3  1  0  0  0
  2 25  1  0  0  0
  2 87  1  0  0  0
  2 88  1  0  0  0
  3  4  1  0  0  0
  3 89  1  0  0  0
  3 90  1  0  0  0
  4  5  1  0  0  0
  4 91  1  0  0  0
  4 92  1  0  0  0
  5  6  1  0  0  0
  5 26  1  0  0  0
  5 93  1  0  0  0
  6 25  1  0  0  0
  6 94  1  0  0  0
  6 95  1  0  0  0
  7  8  2  0  0  0
  7 26  1  0  0  0
  7 29  1  0  0  0
  8  9  1  0  0  0
  8 22  1  0  0  0
  9 10  1  0  0  0
  9 27  2  0  0  0
 10 11  2  0  0  0
 10 15  1  0  0  0
 11 12  1  0  0  0
 11 96  1  0  0  0
 12 13  2  0  0  0
 12 97  1  0  0  0
 13 14  1  0  0  0
 13 31  1  0  0  0
 14 15  2  0  0  0
 14 98  1  0  0  0
 15 99  1  0  0  0
 16 17  2  0  0  0
 16 21  1  0  0  0
 16 31  1  0  0  0
 17 18  1  0  0  0
 17100  1  0  0  0
 18 19  2  0  0  0
 18101  1  0  0  0
 19 20  1  0  0  0
 19 24  1  0  0  0
 20 21  2  0  0  0
 20102  1  0  0  0
 21 23  1  0  0  0
 22 28  1  0  0  0
 22 32  2  0  0  0
 26 27  1  0  0  0
 28103  1  0  0  0
 28104  1  0  0  0
 29105  1  0  0  0
 29106  1  0  0  0
 33 34  1  0  0  0
 33 66  1  0  0  0
 33 70  2  0  0  0
 34 36  1  0  0  0
 34 59  1  0  0  0
 34107  1  0  0  0
 35 44  2  0  0  0
 35 45  1  0  0  0
 35 68  1  0  0  0
 36 56  1  0  0  0
 36108  1  0  0  0
 37 39  1  0  0  0
 37 47  1  0  0  0
 37 66  1  0  0  0
 37109  1  0  0  0
 38 43  2  0  0  0
 38 46  1  0  0  0
 38 47  1  0  0  0
 39 64  1  0  0  0
 39 67  2  0  0  0
 40 52  1  0  0  0
 40 53  2  0  0  0
 40 58  1  0  0  0
 41110  1  0  0  0
 41111  1  0  0  0
 41112  1  0  0  0
 41 48  1  0  0  0
 42 43  1  0  0  0
 42 66  1  0  0  0
 42113  1  0  0  0
 42114  1  0  0  0
 43 44  1  0  0  0
 44115  1  0  0  0
 45 46  2  0  0  0
 45116  1  0  0  0
 46117  1  0  0  0
 47118  1  0  0  0
 47119  1  0  0  0
 48 56  1  0  0  0
 48 65  1  0  0  0
 48120  1  0  0  0
 49 50  1  0  0  0
 49 53  1  0  0  0
 49 64  1  0  0  0
 49121  1  0  0  0
 50 51  1  0  0  0
 50122  1  0  0  0
 50123  1  0  0  0
 51 52  1  0  0  0
 51124  1  0  0  0
 51125  1  0  0  0
 52126  1  0  0  0
 52127  1  0  0  0
 53 54  1  0  0  0
 54 55  2  0  0  0
 54128  1  0  0  0
 55 57  1  0  0  0
 55129  1  0  0  0
 56 69  2  0  0  0
 57 58  2  0  0  0
 57130  1  0  0  0
 58131  1  0  0  0
 59 60  1  0  0  0
 59 61  1  0  0  0
 59 62  1  0  0  0
 60132  1  0  0  0
 60133  1  0  0  0
 60134  1  0  0  0
 61135  1  0  0  0
 61136  1  0  0  0
 61137  1  0  0  0
 62138  1  0  0  0
 62139  1  0  0  0
 62140  1  0  0  0
 63 65  1  0  0  0
 63141  1  0  0  0
 63142  1  0  0  0
 63143  1  0  0  0
 64144  1  0  0  0
 65145  1  0  0  0
 68 82  1  0  0  0
 71 73  2  0  0  0
 71 74  1  0  0  0
 71146  1  0  0  0
 72 73  1  0  0  0
 72 75  2  0  0  0
 72147  1  0  0  0
 73 79  1  0  0  0
 74 76  1  0  0  0
 74 84  2  0  0  0
 75 80  1  0  0  0
 75 84  1  0  0  0
 76148  1  0  0  0
 76149  1  0  0  0
 76150  1  0  0  0
 77151  1  0  0  0
 77152  1  0  0  0
 77153  1  0  0  0
 77 83  1  0  0  0
 78 83  1  0  0  0
 78154  1  0  0  0
 78155  1  0  0  0
 78156  1  0  0  0
 79 83  1  0  0  0
 79157  1  0  0  0
 79158  1  0  0  0
 80 85  1  0  0  0
 80159  1  0  0  0
 80160  1  0  0  0
 81 82  1  0  0  0
 81 86  1  0  0  0
 81161  1  0  0  0
 81162  1  0  0  0
 82163  1  0  0  0
 82164  1  0  0  0
 83 86  1  0  0  0
 85165  1  0  0  0
 86166  1  0  0  0
 86167  1  0  0  0
M  CHG  1  86   1
M  ISO  4   1 100  68 101  82 101  85 100
M  END
> <chiral flag>
0

> <version>
0

> <s_m_source_file>
/data/baiqing/PycharmProjects/Reinvent-master-3.2/result/LINK_invent/BTK/process_docking_weight1_custom_sum_contain_oxygen_bond_distance_aromatic_linkinvent_7_9_3/rearranged_h_0113.sdf

> <i_m_source_file_index>
61

> <r_mmod_Potential_Energy-OPLS-2005>
-363.922790527344

> <r_mmod_Stretch_Energy-OPLS-2005>
50.1497192382812

> <r_mmod_Bend_Energy-OPLS-2005>
133.829086303711

> <r_mmod_Torsional_Energy-OPLS-2005>
241.736236572266

> <r_mmod_Improper_Torsional_Energy-OPLS-2005>
6.75942182540894

> <r_mmod_Van_der_Waal_Energy-OPLS-2005>
157.519149780273

> <r_mmod_Electrostatic_Energy-OPLS-2005>
-505.809234619141

> <r_mmod_Solvation_Energy-OPLS-2005>
-462.973846435547

> <b_mmod_Minimization_Converged-OPLS-2005>
0

> <r_mmod_RMS_Derivative-OPLS-2005>
11.3406400680542

$$$$
63
                    3D
 Structure written by MMmdl.
163171  0  0  1  0            999 V2000
  -30.6792  -14.4287   20.6545 C   0  0  0  0  0  0
  -30.4501  -12.3354   19.3436 C   0  0  0  0  0  0
  -29.4889  -12.5466   18.1531 C   0  0  0  0  0  0
  -28.0166  -12.3535   18.5799 C   0  0  0  0  0  0
  -27.6671  -13.1765   19.8489 C   0  0  2  0  0  0
  -28.7080  -12.8891   20.9524 C   0  0  0  0  0  0
  -25.2704  -13.8196   20.5669 C   0  0  0  0  0  0
  -24.1925  -13.0532   20.9202 C   0  0  0  0  0  0
  -24.6377  -11.6950   20.8679 C   0  0  0  0  0  0
  -23.9016  -10.4344   21.0393 C   0  0  0  0  0  0
  -24.3595   -9.4224   21.9166 C   0  0  0  0  0  0
  -23.6271   -8.2252   22.0748 C   0  0  0  0  0  0
  -22.4245   -8.0295   21.3550 C   0  0  0  0  0  0
  -21.9882   -9.0278   20.4670 C   0  0  0  0  0  0
  -22.7182  -10.2160   20.3047 C   0  0  0  0  0  0
  -21.6853   -6.0744   22.5271 C   0  0  0  0  0  0
  -21.4015   -6.5629   23.8229 C   0  0  0  0  0  0
  -21.3656   -5.6752   24.9162 C   0  0  0  0  0  0
  -21.6009   -4.3008   24.7215 C   0  0  0  0  0  0
  -21.8827   -3.8134   23.4323 C   0  0  0  0  0  0
  -21.9192   -4.6966   22.3404 C   0  0  0  0  0  0
  -22.7922  -13.5393   21.1787 C   0  0  0  0  0  0
  -22.1673   -4.2179   21.0982 F   0  0  0  0  0  0
  -21.5627   -3.4481   25.7720 F   0  0  0  0  0  0
  -30.0398  -13.2482   20.4236 N   0  0  0  0  0  0
  -26.3040  -12.9243   20.3103 N   0  0  0  0  0  0
  -25.9227  -11.6439   20.5458 N   0  0  0  0  0  0
  -22.0372  -12.8495   22.0278 N   0  0  0  0  0  0
  -25.4557  -15.1939   20.4153 N   0  0  0  0  0  0
  -31.7600  -14.7340   20.1485 O   0  0  0  0  0  0
  -21.6617   -6.8873   21.4239 O   0  0  0  0  0  0
  -22.3674  -14.5667   20.6512 O   0  0  0  0  0  0
  -24.6183  -31.8669   23.2094 C   0  0  0  0  0  0
  -25.9102  -32.4803   23.8370 C   0  0  1  0  0  0
  -27.2389  -27.4335   20.0469 C   0  0  0  0  0  0
  -25.5959  -33.8583   24.2304 N   0  0  0  0  0  0
  -23.4003  -30.4995   21.5526 C   0  0  2  0  0  0
  -24.8419  -28.9642   20.1114 C   0  0  0  0  0  0
  -22.7400  -29.4682   22.4973 C   0  0  0  0  0  0
  -18.0267  -28.1391   22.8475 C   0  0  0  0  0  0
  -24.1469  -36.7319   23.2641 C   0  0  0  0  0  0
  -25.9326  -30.8266   21.3622 C   0  0  0  0  0  0
  -26.0035  -29.4596   20.7093 C   0  0  0  0  0  0
  -27.2004  -28.7028   20.6799 C   0  0  0  0  0  0
  -26.0525  -26.9657   19.4325 C   0  0  0  0  0  0
  -24.8583  -27.7119   19.4728 C   0  0  0  0  0  0
  -23.6056  -29.8365   20.1635 C   0  0  0  0  0  0
  -25.4085  -36.3095   24.0335 C   0  0  1  0  0  0
  -20.5843  -28.3692   23.1301 C   0  0  2  0  0  0
  -20.6759  -26.9422   22.5428 C   0  0  0  0  0  0
  -19.5756  -26.6381   21.5216 C   0  0  0  0  0  0
  -18.1916  -26.7926   22.1597 C   0  0  0  0  0  0
  -19.1512  -28.8851   23.2873 C   0  0  0  0  0  0
  -18.9457  -30.1456   23.8896 C   0  0  0  0  0  0
  -17.6468  -30.6593   24.0569 C   0  0  0  0  0  0
  -25.9040  -34.9475   23.5106 C   0  0  0  0  0  0
  -16.5351  -29.9098   23.6345 C   0  0  0  0  0  0
  -16.7256  -28.6512   23.0348 C   0  0  0  0  0  0
  -26.4547  -31.6591   25.0701 C   0  0  0  0  0  0
  -25.3869  -31.3765   26.1532 C   0  0  0  0  0  0
  -27.0352  -30.3005   24.6108 C   0  0  0  0  0  0
  -27.6139  -32.4301   25.7429 C   0  0  0  0  0  0
  -27.5566  -37.1790   24.8448 C   0  0  0  0  0  0
  -21.4130  -29.3040   22.3693 N   0  0  0  0  0  0
  -26.4250  -37.3803   23.9439 N   0  0  0  0  0  0
  -24.6696  -31.0785   22.1010 N   0  0  0  0  0  0
  -23.4182  -28.8222   23.3009 O   0  0  0  0  0  0
  -28.4283  -26.7134   20.0301 O   0  0  0  0  0  0
  -26.5595  -34.8947   22.4663 O   0  0  0  0  0  0
  -23.5370  -32.1441   23.7536 O   0  0  0  0  0  0
  -30.0433  -18.9721   18.2113 C   0  0  0  0  0  0
  -29.6552  -17.9239   19.0818 C   0  0  0  0  0  0
  -30.1263  -20.1156   18.9506 C   0  0  0  0  0  0
  -29.5698  -18.4312   20.3507 C   0  0  0  0  0  0
  -29.7600  -20.7701   21.3953 C   0  0  0  0  0  0
  -30.2988  -16.5900   21.9870 C   0  0  0  0  0  0
  -30.1978  -22.2321   21.1067 C   0  0  0  0  0  0
  -29.5415  -24.4945   20.2561 C   0  0  0  0  0  0
  -28.4030  -25.3275   19.6152 C   0  0  0  0  0  0
  -29.2533  -17.6945   21.6317 C   0  0  2  0  0  0
  -29.8145  -19.8154   20.2738 N   0  0  0  0  0  0
  -29.9724  -15.2578   21.4446 N   0  0  0  0  0  0
  -27.8841  -17.1681   21.5526 N   0  3  0  0  0  0
  -29.1559  -23.0606   20.4471 N   0  3  0  0  0  0
  -31.4743  -12.5281   19.0155 H   0  0  0  0  0  0
  -30.4411  -11.2961   19.6752 H   0  0  0  0  0  0
  -29.7432  -11.8678   17.3352 H   0  0  0  0  0  0
  -29.6146  -13.5516   17.7493 H   0  0  0  0  0  0
  -27.8552  -11.2916   18.7635 H   0  0  0  0  0  0
  -27.3539  -12.6122   17.7520 H   0  0  0  0  0  0
  -27.7424  -14.2290   19.5721 H   0  0  0  0  0  0
  -28.6900  -11.8242   21.1948 H   0  0  0  0  0  0
  -28.4462  -13.3888   21.8826 H   0  0  0  0  0  0
  -25.2760   -9.5705   22.4710 H   0  0  0  0  0  0
  -23.9988   -7.4647   22.7459 H   0  0  0  0  0  0
  -21.0817   -8.8784   19.8990 H   0  0  0  0  0  0
  -22.3637  -10.9700   19.6135 H   0  0  0  0  0  0
  -21.2010   -7.6130   23.9755 H   0  0  0  0  0  0
  -21.1455   -6.0453   25.9081 H   0  0  0  0  0  0
  -22.0608   -2.7598   23.2793 H   0  0  0  0  0  0
  -22.3862  -12.0311   22.5021 H   0  0  0  0  0  0
  -21.0967  -13.1641   22.2199 H   0  0  0  0  0  0
  -24.6092  -15.7479   20.5015 H   0  0  0  0  0  0
  -26.0126  -15.4975   19.6270 H   0  0  0  0  0  0
  -26.7148  -32.5509   23.1099 H   0  0  0  0  0  0
  -25.0129  -33.9704   25.0462 H   0  0  0  0  0  0
  -22.6863  -31.3171   21.4217 H   0  0  0  0  0  0
  -23.3736  -35.9636   23.3237 H   0  0  0  0  0  0
  -24.3587  -36.9019   22.2071 H   0  0  0  0  0  0
  -23.7191  -37.6491   23.6702 H   0  0  0  0  0  0
  -26.0450  -31.5889   20.5903 H   0  0  0  0  0  0
  -26.8207  -30.8786   21.9797 H   0  0  0  0  0  0
  -28.0938  -29.0991   21.1372 H   0  0  0  0  0  0
  -26.0231  -26.0360   18.8821 H   0  0  0  0  0  0
  -23.9689  -27.3297   18.9922 H   0  0  0  0  0  0
  -23.7243  -30.6187   19.4127 H   0  0  0  0  0  0
  -22.7224  -29.2714   19.8601 H   0  0  0  0  0  0
  -25.1247  -36.1933   25.0818 H   0  0  0  0  0  0
  -20.9940  -28.3317   24.1426 H   0  0  0  0  0  0
  -20.5669  -26.2331   23.3645 H   0  0  0  0  0  0
  -21.6647  -26.7479   22.1256 H   0  0  0  0  0  0
  -19.6948  -25.6304   21.1231 H   0  0  0  0  0  0
  -19.6695  -27.3204   20.6755 H   0  0  0  0  0  0
  -17.4210  -26.6695   21.3965 H   0  0  0  0  0  0
  -18.0291  -26.0052   22.8978 H   0  0  0  0  0  0
  -19.7942  -30.7247   24.2259 H   0  0  0  0  0  0
  -17.5046  -31.6271   24.5195 H   0  0  0  0  0  0
  -15.5358  -30.3018   23.7693 H   0  0  0  0  0  0
  -15.8635  -28.0855   22.7066 H   0  0  0  0  0  0
  -24.5773  -30.7447   25.7883 H   0  0  0  0  0  0
  -24.9441  -32.2998   26.5271 H   0  0  0  0  0  0
  -25.8243  -30.8616   27.0101 H   0  0  0  0  0  0
  -26.2856  -29.6694   24.1328 H   0  0  0  0  0  0
  -27.4280  -29.7327   25.4560 H   0  0  0  0  0  0
  -27.8636  -30.4272   23.9131 H   0  0  0  0  0  0
  -27.2787  -33.3606   26.2000 H   0  0  0  0  0  0
  -28.3949  -32.6846   25.0262 H   0  0  0  0  0  0
  -28.0810  -31.8436   26.5348 H   0  0  0  0  0  0
  -28.2567  -38.0113   24.7553 H   0  0  0  0  0  0
  -28.1076  -36.2651   24.6160 H   0  0  0  0  0  0
  -27.2322  -37.1336   25.8864 H   0  0  0  0  0  0
  -20.9311  -29.8774   21.6909 H   0  0  0  0  0  0
  -26.0129  -38.2863   24.1505 H   0  0  0  0  0  0
  -30.2415  -18.8862   17.1514 H   0  0  0  0  0  0
  -29.4873  -16.8906   18.8054 H   0  0  0  0  0  0
  -30.3938  -21.1108   18.6219 H   0  0  0  0  0  0
  -28.7489  -20.7732   21.8059 H   0  0  0  0  0  0
  -30.4067  -20.3857   22.1855 H   0  0  0  0  0  0
  -30.2769  -16.4650   23.0733 H   0  0  0  0  0  0
  -31.3182  -16.9237   21.7795 H   0  0  0  0  0  0
  -31.1258  -22.2427   20.5363 H   0  0  0  0  0  0
  -30.4288  -22.7066   22.0614 H   0  0  0  0  0  0
  -29.7977  -24.9167   21.2258 H   0  0  0  0  0  0
  -30.4462  -24.5764   19.6487 H   0  0  0  0  0  0
  -27.4676  -24.8587   19.9194 H   0  0  0  0  0  0
  -28.4711  -25.2467   18.5271 H   0  0  0  0  0  0
  -29.2543  -18.4032   22.4585 H   0  0  0  0  0  0
  -29.1166  -14.8412   21.7778 H   0  0  0  0  0  0
  -27.8139  -16.5571   20.7626 H   0  0  0  0  0  0
  -27.2390  -17.9180   21.4025 H   0  0  0  0  0  0
  -27.6115  -16.6867   22.3920 H   0  0  0  0  0  0
  -28.3316  -23.0292   21.0322 H   0  0  0  0  0  0
  -28.9065  -22.6317   19.5681 H   0  0  0  0  0  0
  1 25  1  0  0  0
  1 30  2  0  0  0
  1 82  1  0  0  0
  2  3  1  0  0  0
  2 25  1  0  0  0
  2 85  1  0  0  0
  2 86  1  0  0  0
  3  4  1  0  0  0
  3 87  1  0  0  0
  3 88  1  0  0  0
  4  5  1  0  0  0
  4 89  1  0  0  0
  4 90  1  0  0  0
  5  6  1  0  0  0
  5 26  1  0  0  0
  5 91  1  0  0  0
  6 25  1  0  0  0
  6 92  1  0  0  0
  6 93  1  0  0  0
  7  8  2  0  0  0
  7 26  1  0  0  0
  7 29  1  0  0  0
  8  9  1  0  0  0
  8 22  1  0  0  0
  9 10  1  0  0  0
  9 27  2  0  0  0
 10 11  2  0  0  0
 10 15  1  0  0  0
 11 12  1  0  0  0
 11 94  1  0  0  0
 12 13  2  0  0  0
 12 95  1  0  0  0
 13 14  1  0  0  0
 13 31  1  0  0  0
 14 15  2  0  0  0
 14 96  1  0  0  0
 15 97  1  0  0  0
 16 17  2  0  0  0
 16 21  1  0  0  0
 16 31  1  0  0  0
 17 18  1  0  0  0
 17 98  1  0  0  0
 18 19  2  0  0  0
 18 99  1  0  0  0
 19 20  1  0  0  0
 19 24  1  0  0  0
 20 21  2  0  0  0
 20100  1  0  0  0
 21 23  1  0  0  0
 22 28  1  0  0  0
 22 32  2  0  0  0
 26 27  1  0  0  0
 28101  1  0  0  0
 28102  1  0  0  0
 29103  1  0  0  0
 29104  1  0  0  0
 33 34  1  0  0  0
 33 66  1  0  0  0
 33 70  2  0  0  0
 34 36  1  0  0  0
 34 59  1  0  0  0
 34105  1  0  0  0
 35 44  2  0  0  0
 35 45  1  0  0  0
 35 68  1  0  0  0
 36 56  1  0  0  0
 36106  1  0  0  0
 37 39  1  0  0  0
 37 47  1  0  0  0
 37 66  1  0  0  0
 37107  1  0  0  0
 38 43  2  0  0  0
 38 46  1  0  0  0
 38 47  1  0  0  0
 39 64  1  0  0  0
 39 67  2  0  0  0
 40 52  1  0  0  0
 40 53  2  0  0  0
 40 58  1  0  0  0
 41108  1  0  0  0
 41109  1  0  0  0
 41110  1  0  0  0
 41 48  1  0  0  0
 42 43  1  0  0  0
 42 66  1  0  0  0
 42111  1  0  0  0
 42112  1  0  0  0
 43 44  1  0  0  0
 44113  1  0  0  0
 45 46  2  0  0  0
 45114  1  0  0  0
 46115  1  0  0  0
 47116  1  0  0  0
 47117  1  0  0  0
 48 56  1  0  0  0
 48 65  1  0  0  0
 48118  1  0  0  0
 49 50  1  0  0  0
 49 53  1  0  0  0
 49 64  1  0  0  0
 49119  1  0  0  0
 50 51  1  0  0  0
 50120  1  0  0  0
 50121  1  0  0  0
 51 52  1  0  0  0
 51122  1  0  0  0
 51123  1  0  0  0
 52124  1  0  0  0
 52125  1  0  0  0
 53 54  1  0  0  0
 54 55  2  0  0  0
 54126  1  0  0  0
 55 57  1  0  0  0
 55127  1  0  0  0
 56 69  2  0  0  0
 57 58  2  0  0  0
 57128  1  0  0  0
 58129  1  0  0  0
 59 60  1  0  0  0
 59 61  1  0  0  0
 59 62  1  0  0  0
 60130  1  0  0  0
 60131  1  0  0  0
 60132  1  0  0  0
 61133  1  0  0  0
 61134  1  0  0  0
 61135  1  0  0  0
 62136  1  0  0  0
 62137  1  0  0  0
 62138  1  0  0  0
 63 65  1  0  0  0
 63139  1  0  0  0
 63140  1  0  0  0
 63141  1  0  0  0
 64142  1  0  0  0
 65143  1  0  0  0
 68 79  1  0  0  0
 71 72  1  0  0  0
 71 73  2  0  0  0
 71144  1  0  0  0
 72 74  2  0  0  0
 72145  1  0  0  0
 73 81  1  0  0  0
 73146  1  0  0  0
 74 80  1  0  0  0
 74 81  1  0  0  0
 75 77  1  0  0  0
 75 81  1  0  0  0
 75147  1  0  0  0
 75148  1  0  0  0
 76 80  1  0  0  0
 76 82  1  0  0  0
 76149  1  0  0  0
 76150  1  0  0  0
 77 84  1  0  0  0
 77151  1  0  0  0
 77152  1  0  0  0
 78 79  1  0  0  0
 78 84  1  0  0  0
 78153  1  0  0  0
 78154  1  0  0  0
 79155  1  0  0  0
 79156  1  0  0  0
 80 83  1  0  0  0
 80157  1  0  0  0
 82158  1  0  0  0
 83159  1  0  0  0
 83160  1  0  0  0
 83161  1  0  0  0
 84162  1  0  0  0
 84163  1  0  0  0
M  CHG  2  83   1  84   1
M  ISO  4   1 100  68 101  79 101  82 100
M  END
> <chiral flag>
0

> <version>
0

> <s_m_source_file>
/data/baiqing/PycharmProjects/Reinvent-master-3.2/result/LINK_invent/BTK/process_docking_weight1_custom_sum_contain_oxygen_bond_distance_aromatic_linkinvent_7_9_3/rearranged_h_0113.sdf

> <i_m_source_file_index>
62

> <r_mmod_Potential_Energy-OPLS-2005>
-513.101440429688

> <r_mmod_Stretch_Energy-OPLS-2005>
43.4785232543945

> <r_mmod_Bend_Energy-OPLS-2005>
106.991943359375

> <r_mmod_Torsional_Energy-OPLS-2005>
263.123413085938

> <r_mmod_Improper_Torsional_Energy-OPLS-2005>
6.75289058685303

> <r_mmod_Van_der_Waal_Energy-OPLS-2005>
129.138534545898

> <r_mmod_Electrostatic_Energy-OPLS-2005>
-91.5180587768555

> <r_mmod_Solvation_Energy-OPLS-2005>
-986.164672851562

> <b_mmod_Minimization_Converged-OPLS-2005>
0

> <r_mmod_RMS_Derivative-OPLS-2005>
8.43593788146973

$$$$
64
                    3D
 Structure written by MMmdl.
169177  0  0  1  0            999 V2000
  -30.5357  -15.0551   20.4689 C   0  0  0  0  0  0
  -30.4804  -12.6894   19.5030 C   0  0  0  0  0  0
  -29.5507  -12.5678   18.2700 C   0  0  0  0  0  0
  -28.0892  -12.3235   18.6879 C   0  0  0  0  0  0
  -27.6471  -13.2568   19.8483 C   0  0  2  0  0  0
  -28.6952  -13.3027   20.9850 C   0  0  0  0  0  0
  -25.2603  -13.8171   20.5858 C   0  0  0  0  0  0
  -24.1853  -13.0459   20.9324 C   0  0  0  0  0  0
  -24.6446  -11.6935   20.8765 C   0  0  0  0  0  0
  -23.9068  -10.4316   21.0361 C   0  0  0  0  0  0
  -24.3611   -9.4247   21.9200 C   0  0  0  0  0  0
  -23.6274   -8.2297   22.0784 C   0  0  0  0  0  0
  -22.4248   -8.0298   21.3576 C   0  0  0  0  0  0
  -21.9909   -9.0260   20.4685 C   0  0  0  0  0  0
  -22.7225  -10.2137   20.3053 C   0  0  0  0  0  0
  -21.6848   -6.0722   22.5276 C   0  0  0  0  0  0
  -21.4027   -6.5621   23.8202 C   0  0  0  0  0  0
  -21.3678   -5.6771   24.9184 C   0  0  0  0  0  0
  -21.6042   -4.3019   24.7210 C   0  0  0  0  0  0
  -21.8843   -3.8117   23.4324 C   0  0  0  0  0  0
  -21.9203   -4.6963   22.3381 C   0  0  0  0  0  0
  -22.7885  -13.5324   21.1769 C   0  0  0  0  0  0
  -22.1648   -4.2165   21.0954 F   0  0  0  0  0  0
  -21.5659   -3.4482   25.7711 F   0  0  0  0  0  0
  -29.9645  -13.7693   20.4045 N   0  0  0  0  0  0
  -26.3024  -12.9446   20.3298 N   0  0  0  0  0  0
  -25.9400  -11.6565   20.5772 N   0  0  0  0  0  0
  -22.0256  -12.8514   22.0231 N   0  0  0  0  0  0
  -25.4247  -15.1871   20.4305 N   0  0  0  0  0  0
  -31.7052  -15.1502   20.0859 O   0  0  0  0  0  0
  -21.6665   -6.8868   21.4218 O   0  0  0  0  0  0
  -22.3687  -14.5600   20.6420 O   0  0  0  0  0  0
  -24.6457  -31.8425   23.1826 C   0  0  0  0  0  0
  -25.9204  -32.4657   23.8275 C   0  0  1  0  0  0
  -27.2566  -27.1034   20.2422 C   0  0  0  0  0  0
  -25.5956  -33.8480   24.2190 N   0  0  0  0  0  0
  -23.4543  -30.4500   21.5283 C   0  0  2  0  0  0
  -24.9209  -28.8653   20.1313 C   0  0  0  0  0  0
  -22.7572  -29.4516   22.4882 C   0  0  0  0  0  0
  -18.0293  -28.1394   22.8453 C   0  0  0  0  0  0
  -24.1532  -36.7240   23.2628 C   0  0  0  0  0  0
  -26.0075  -30.7062   21.3954 C   0  0  0  0  0  0
  -26.0899  -29.3055   20.7659 C   0  0  0  0  0  0
  -27.2562  -28.4454   20.8004 C   0  0  0  0  0  0
  -26.0709  -26.7747   19.5474 C   0  0  0  0  0  0
  -24.9297  -27.6093   19.4985 C   0  0  0  0  0  0
  -23.6890  -29.7581   20.1566 C   0  0  0  0  0  0
  -25.4156  -36.3013   24.0295 C   0  0  1  0  0  0
  -20.5907  -28.3759   23.1208 C   0  0  2  0  0  0
  -20.6802  -26.9466   22.5377 C   0  0  0  0  0  0
  -19.5754  -26.6377   21.5201 C   0  0  0  0  0  0
  -18.1925  -26.7940   22.1595 C   0  0  0  0  0  0
  -19.1535  -28.8901   23.2809 C   0  0  0  0  0  0
  -18.9434  -30.1501   23.8800 C   0  0  0  0  0  0
  -17.6424  -30.6582   24.0522 C   0  0  0  0  0  0
  -25.9082  -34.9377   23.5054 C   0  0  0  0  0  0
  -16.5353  -29.9038   23.6356 C   0  0  0  0  0  0
  -16.7262  -28.6470   23.0359 C   0  0  0  0  0  0
  -26.4529  -31.6481   25.0695 C   0  0  0  0  0  0
  -25.3696  -31.3656   26.1365 C   0  0  0  0  0  0
  -27.0375  -30.2845   24.6307 C   0  0  0  0  0  0
  -27.6101  -32.4206   25.7440 C   0  0  0  0  0  0
  -27.5592  -37.1772   24.8437 C   0  0  0  0  0  0
  -21.4264  -29.3073   22.3600 N   0  0  0  0  0  0
  -26.4320  -37.3706   23.9351 N   0  0  0  0  0  0
  -24.7201  -31.0262   22.0887 N   0  0  0  0  0  0
  -23.4167  -28.8125   23.3123 O   0  0  0  0  0  0
  -28.3356  -26.1354   20.1359 O   0  0  0  0  0  0
  -26.5679  -34.8889   22.4637 O   0  0  0  0  0  0
  -23.5550  -32.1324   23.6996 O   0  0  0  0  0  0
  -28.5267  -23.3206   20.9191 C   0  0  0  0  0  0
  -28.1283  -17.9732   20.1619 C   0  0  0  0  0  0
  -27.2495  -17.6472   21.3972 C   0  0  0  0  0  0
  -29.1077  -18.5352   22.8444 C   0  0  0  0  0  0
  -29.8490  -19.1184   21.6009 C   0  0  1  0  0  0
  -29.6226  -17.8189   20.5015 C   0  0  1  0  0  0
  -30.2582  -25.3003   21.4009 C   0  0  0  0  0  0
  -32.0733  -21.7960   22.0701 C   0  0  0  0  0  0
  -30.3938  -22.3026   23.8917 C   0  0  0  0  0  0
  -28.7789  -24.9916   21.1108 C   0  0  1  0  0  0
  -29.6212  -20.8869   21.7879 C   0  0  1  0  0  0
  -30.7883  -21.3013   22.7834 C   0  0  0  0  0  0
  -29.4787  -22.2345   20.9127 N   0  0  0  0  0  0
  -29.7566  -16.2163   20.8090 N   0  0  0  0  0  0
  -27.6373  -18.3935   22.6159 N   0  3  0  0  0  0
  -27.3404  -22.9897   20.9205 O   0  0  0  0  0  0
  -31.4892  -12.9094   19.1497 H   0  0  0  0  0  0
  -30.5612  -11.7440   20.0407 H   0  0  0  0  0  0
  -29.8971  -11.7549   17.6291 H   0  0  0  0  0  0
  -29.6226  -13.4844   17.6835 H   0  0  0  0  0  0
  -28.0079  -11.2810   19.0009 H   0  0  0  0  0  0
  -27.4297  -12.4437   17.8259 H   0  0  0  0  0  0
  -27.6042  -14.2613   19.4240 H   0  0  0  0  0  0
  -28.8215  -12.3188   21.4381 H   0  0  0  0  0  0
  -28.3684  -13.9767   21.7789 H   0  0  0  0  0  0
  -25.2714   -9.5779   22.4846 H   0  0  0  0  0  0
  -23.9960   -7.4725   22.7544 H   0  0  0  0  0  0
  -21.0852   -8.8760   19.8997 H   0  0  0  0  0  0
  -22.3620  -10.9701   19.6184 H   0  0  0  0  0  0
  -21.1963   -7.6113   23.9721 H   0  0  0  0  0  0
  -21.1511   -6.0478   25.9093 H   0  0  0  0  0  0
  -22.0590   -2.7591   23.2812 H   0  0  0  0  0  0
  -22.3629  -12.0292   22.5025 H   0  0  0  0  0  0
  -21.0846  -13.1730   22.1982 H   0  0  0  0  0  0
  -24.6605  -15.8302   20.6000 H   0  0  0  0  0  0
  -26.1806  -15.5932   19.8947 H   0  0  0  0  0  0
  -26.7286  -32.5309   23.1021 H   0  0  0  0  0  0
  -25.0095  -33.9582   25.0341 H   0  0  0  0  0  0
  -22.7563  -31.2726   21.3573 H   0  0  0  0  0  0
  -23.3797  -35.9550   23.3231 H   0  0  0  0  0  0
  -24.3649  -36.8929   22.2052 H   0  0  0  0  0  0
  -23.7267  -37.6413   23.6711 H   0  0  0  0  0  0
  -26.1666  -31.4479   20.6118 H   0  0  0  0  0  0
  -26.8730  -30.7691   22.0429 H   0  0  0  0  0  0
  -28.1553  -28.7972   21.2898 H   0  0  0  0  0  0
  -26.0302  -25.8251   19.0311 H   0  0  0  0  0  0
  -24.0572  -27.2696   18.9574 H   0  0  0  0  0  0
  -23.7977  -30.5126   19.3764 H   0  0  0  0  0  0
  -22.8138  -29.1697   19.8758 H   0  0  0  0  0  0
  -25.1361  -36.1842   25.0785 H   0  0  0  0  0  0
  -20.9970  -28.3361   24.1331 H   0  0  0  0  0  0
  -20.5764  -26.2373   23.3618 H   0  0  0  0  0  0
  -21.6674  -26.7518   22.1136 H   0  0  0  0  0  0
  -19.6941  -25.6257   21.1290 H   0  0  0  0  0  0
  -19.6702  -27.3160   20.6710 H   0  0  0  0  0  0
  -17.4257  -26.6733   21.3947 H   0  0  0  0  0  0
  -18.0266  -26.0049   22.8941 H   0  0  0  0  0  0
  -19.7909  -30.7368   24.2096 H   0  0  0  0  0  0
  -17.4960  -31.6289   24.5071 H   0  0  0  0  0  0
  -15.5324  -30.2897   23.7689 H   0  0  0  0  0  0
  -15.8683  -28.0732   22.7140 H   0  0  0  0  0  0
  -24.5957  -30.6904   25.7666 H   0  0  0  0  0  0
  -24.8782  -32.2812   26.4676 H   0  0  0  0  0  0
  -25.7967  -30.8917   27.0212 H   0  0  0  0  0  0
  -26.2995  -29.6537   24.1326 H   0  0  0  0  0  0
  -27.3942  -29.7165   25.4915 H   0  0  0  0  0  0
  -27.8940  -30.4003   23.9654 H   0  0  0  0  0  0
  -27.2768  -33.3559   26.1955 H   0  0  0  0  0  0
  -28.3932  -32.6652   25.0238 H   0  0  0  0  0  0
  -28.0749  -31.8344   26.5380 H   0  0  0  0  0  0
  -28.2591  -38.0112   24.7539 H   0  0  0  0  0  0
  -28.1152  -36.2630   24.6235 H   0  0  0  0  0  0
  -27.2311  -37.1354   25.8853 H   0  0  0  0  0  0
  -20.9502  -29.8735   21.6722 H   0  0  0  0  0  0
  -26.0202  -38.2783   24.1299 H   0  0  0  0  0  0
  -27.9188  -18.9894   19.8189 H   0  0  0  0  0  0
  -27.8747  -17.3085   19.3339 H   0  0  0  0  0  0
  -27.3374  -16.5844   21.6277 H   0  0  0  0  0  0
  -26.1915  -17.8184   21.1877 H   0  0  0  0  0  0
  -29.2573  -19.1422   23.7332 H   0  0  0  0  0  0
  -29.5259  -17.5626   23.1103 H   0  0  0  0  0  0
  -30.9166  -18.9929   21.7791 H   0  0  0  0  0  0
  -30.2143  -18.0327   19.6116 H   0  0  0  0  0  0
  -30.6417  -24.7352   22.2489 H   0  0  0  0  0  0
  -30.3916  -26.3529   21.6528 H   0  0  0  0  0  0
  -30.8892  -25.0928   20.5386 H   0  0  0  0  0  0
  -32.9553  -21.6529   22.7011 H   0  0  0  0  0  0
  -32.0499  -22.8636   21.8508 H   0  0  0  0  0  0
  -32.2579  -21.2667   21.1382 H   0  0  0  0  0  0
  -31.2713  -22.7959   24.3231 H   0  0  0  0  0  0
  -29.8960  -21.7905   24.7150 H   0  0  0  0  0  0
  -29.7267  -23.0825   23.5349 H   0  0  0  0  0  0
  -28.2486  -25.2325   22.0348 H   0  0  0  0  0  0
  -28.6972  -20.9528   22.3548 H   0  0  0  0  0  0
  -31.1199  -20.4298   23.3466 H   0  0  0  0  0  0
  -30.4025  -22.6087   20.7313 H   0  0  0  0  0  0
  -28.8781  -15.8526   21.1406 H   0  0  0  0  0  0
  -27.2505  -17.8950   23.4030 H   0  0  0  0  0  0
  -27.1727  -19.2882   22.6031 H   0  0  0  0  0  0
  1 25  1  0  0  0
  1 30  2  0  0  0
  1 84  1  0  0  0
  2  3  1  0  0  0
  2 25  1  0  0  0
  2 87  1  0  0  0
  2 88  1  0  0  0
  3  4  1  0  0  0
  3 89  1  0  0  0
  3 90  1  0  0  0
  4  5  1  0  0  0
  4 91  1  0  0  0
  4 92  1  0  0  0
  5  6  1  0  0  0
  5 26  1  0  0  0
  5 93  1  0  0  0
  6 25  1  0  0  0
  6 94  1  0  0  0
  6 95  1  0  0  0
  7  8  2  0  0  0
  7 26  1  0  0  0
  7 29  1  0  0  0
  8  9  1  0  0  0
  8 22  1  0  0  0
  9 10  1  0  0  0
  9 27  2  0  0  0
 10 11  2  0  0  0
 10 15  1  0  0  0
 11 12  1  0  0  0
 11 96  1  0  0  0
 12 13  2  0  0  0
 12 97  1  0  0  0
 13 14  1  0  0  0
 13 31  1  0  0  0
 14 15  2  0  0  0
 14 98  1  0  0  0
 15 99  1  0  0  0
 16 17  2  0  0  0
 16 21  1  0  0  0
 16 31  1  0  0  0
 17 18  1  0  0  0
 17100  1  0  0  0
 18 19  2  0  0  0
 18101  1  0  0  0
 19 20  1  0  0  0
 19 24  1  0  0  0
 20 21  2  0  0  0
 20102  1  0  0  0
 21 23  1  0  0  0
 22 28  1  0  0  0
 22 32  2  0  0  0
 26 27  1  0  0  0
 28103  1  0  0  0
 28104  1  0  0  0
 29105  1  0  0  0
 29106  1  0  0  0
 33 34  1  0  0  0
 33 66  1  0  0  0
 33 70  2  0  0  0
 34 36  1  0  0  0
 34 59  1  0  0  0
 34107  1  0  0  0
 35 44  2  0  0  0
 35 45  1  0  0  0
 35 68  1  0  0  0
 36 56  1  0  0  0
 36108  1  0  0  0
 37 39  1  0  0  0
 37 47  1  0  0  0
 37 66  1  0  0  0
 37109  1  0  0  0
 38 43  2  0  0  0
 38 46  1  0  0  0
 38 47  1  0  0  0
 39 64  1  0  0  0
 39 67  2  0  0  0
 40 52  1  0  0  0
 40 53  2  0  0  0
 40 58  1  0  0  0
 41110  1  0  0  0
 41111  1  0  0  0
 41112  1  0  0  0
 41 48  1  0  0  0
 42 43  1  0  0  0
 42 66  1  0  0  0
 42113  1  0  0  0
 42114  1  0  0  0
 43 44  1  0  0  0
 44115  1  0  0  0
 45 46  2  0  0  0
 45116  1  0  0  0
 46117  1  0  0  0
 47118  1  0  0  0
 47119  1  0  0  0
 48 56  1  0  0  0
 48 65  1  0  0  0
 48120  1  0  0  0
 49 50  1  0  0  0
 49 53  1  0  0  0
 49 64  1  0  0  0
 49121  1  0  0  0
 50 51  1  0  0  0
 50122  1  0  0  0
 50123  1  0  0  0
 51 52  1  0  0  0
 51124  1  0  0  0
 51125  1  0  0  0
 52126  1  0  0  0
 52127  1  0  0  0
 53 54  1  0  0  0
 54 55  2  0  0  0
 54128  1  0  0  0
 55 57  1  0  0  0
 55129  1  0  0  0
 56 69  2  0  0  0
 57 58  2  0  0  0
 57130  1  0  0  0
 58131  1  0  0  0
 59 60  1  0  0  0
 59 61  1  0  0  0
 59 62  1  0  0  0
 60132  1  0  0  0
 60133  1  0  0  0
 60134  1  0  0  0
 61135  1  0  0  0
 61136  1  0  0  0
 61137  1  0  0  0
 62138  1  0  0  0
 62139  1  0  0  0
 62140  1  0  0  0
 63 65  1  0  0  0
 63141  1  0  0  0
 63142  1  0  0  0
 63143  1  0  0  0
 64144  1  0  0  0
 65145  1  0  0  0
 68 80  1  0  0  0
 71 80  1  0  0  0
 71 83  1  0  0  0
 71 86  2  0  0  0
 72 73  1  0  0  0
 72 76  1  0  0  0
 72146  1  0  0  0
 72147  1  0  0  0
 73 85  1  0  0  0
 73148  1  0  0  0
 73149  1  0  0  0
 74 85  1  0  0  0
 74150  1  0  0  0
 74151  1  0  0  0
 74 75  1  0  0  0
 75 76  1  0  0  0
 75 81  1  0  0  0
 75152  1  0  0  0
 76 84  1  0  0  0
 76153  1  0  0  0
 77154  1  0  0  0
 77155  1  0  0  0
 77156  1  0  0  0
 77 80  1  0  0  0
 78157  1  0  0  0
 78158  1  0  0  0
 78159  1  0  0  0
 78 82  1  0  0  0
 79 82  1  0  0  0
 79160  1  0  0  0
 79161  1  0  0  0
 79162  1  0  0  0
 80163  1  0  0  0
 81 82  1  0  0  0
 81 83  1  0  0  0
 81164  1  0  0  0
 82165  1  0  0  0
 83166  1  0  0  0
 84167  1  0  0  0
 85168  1  0  0  0
 85169  1  0  0  0
M  CHG  1  85   1
M  ISO  4   1 100  68 101  80 101  84 100
M  END
> <chiral flag>
0

> <version>
0

> <s_m_source_file>
/data/baiqing/PycharmProjects/Reinvent-master-3.2/result/LINK_invent/BTK/process_docking_weight1_custom_sum_contain_oxygen_bond_distance_aromatic_linkinvent_7_9_3/rearranged_h_0113.sdf

> <i_m_source_file_index>
63

> <r_mmod_Potential_Energy-OPLS-2005>
865.099914550781

> <r_mmod_Stretch_Energy-OPLS-2005>
407.440216064453

> <r_mmod_Bend_Energy-OPLS-2005>
539.067016601562

> <r_mmod_Torsional_Energy-OPLS-2005>
351.796508789062

> <r_mmod_Improper_Torsional_Energy-OPLS-2005>
10.8568553924561

> <r_mmod_Van_der_Waal_Energy-OPLS-2005>
112.559631347656

> <r_mmod_Electrostatic_Energy-OPLS-2005>
-284.5908203125

> <r_mmod_Solvation_Energy-OPLS-2005>
-514.255920410156

> <b_mmod_Minimization_Converged-OPLS-2005>
0

> <r_mmod_RMS_Derivative-OPLS-2005>
7.95787763595581

$$$$
65
                    3D
 Structure written by MMmdl.
148156  0  0  1  0            999 V2000
  -30.3973  -15.5494   20.3455 C   0  0  0  0  0  0
  -30.4102  -13.0315   19.5195 C   0  0  0  0  0  0
  -29.5333  -12.6291   18.3053 C   0  0  0  0  0  0
  -28.1062  -12.2921   18.7573 C   0  0  0  0  0  0
  -27.5907  -13.3049   19.8059 C   0  0  2  0  0  0
  -28.6129  -13.6396   20.9172 C   0  0  0  0  0  0
  -25.2318  -13.8293   20.5810 C   0  0  0  0  0  0
  -24.1703  -13.0444   20.9295 C   0  0  0  0  0  0
  -24.6399  -11.6952   20.8773 C   0  0  0  0  0  0
  -23.9106  -10.4298   21.0402 C   0  0  0  0  0  0
  -24.3648   -9.4208   21.9178 C   0  0  0  0  0  0
  -23.6313   -8.2247   22.0751 C   0  0  0  0  0  0
  -22.4291   -8.0287   21.3545 C   0  0  0  0  0  0
  -21.9936   -9.0263   20.4646 C   0  0  0  0  0  0
  -22.7275  -10.2137   20.3053 C   0  0  0  0  0  0
  -21.6860   -6.0741   22.5279 C   0  0  0  0  0  0
  -21.4020   -6.5643   23.8213 C   0  0  0  0  0  0
  -21.3660   -5.6793   24.9173 C   0  0  0  0  0  0
  -21.6042   -4.3057   24.7223 C   0  0  0  0  0  0
  -21.8819   -3.8150   23.4343 C   0  0  0  0  0  0
  -21.9195   -4.6968   22.3400 C   0  0  0  0  0  0
  -22.7717  -13.5174   21.1924 C   0  0  0  0  0  0
  -22.1663   -4.2153   21.0978 F   0  0  0  0  0  0
  -21.5626   -3.4539   25.7735 F   0  0  0  0  0  0
  -29.7896  -14.2310   20.2422 N   0  0  0  0  0  0
  -26.2752  -12.9617   20.3238 N   0  0  0  0  0  0
  -25.9342  -11.6691   20.5714 N   0  0  0  0  0  0
  -22.0382  -12.8152   22.0479 N   0  0  0  0  0  0
  -25.3942  -15.2032   20.4265 N   0  0  0  0  0  0
  -31.6308  -15.3922   20.2555 O   0  0  0  0  0  0
  -21.6649   -6.8887   21.4242 O   0  0  0  0  0  0
  -22.3391  -14.5467   20.6754 O   0  0  0  0  0  0
  -24.6804  -31.8047   23.1556 C   0  0  0  0  0  0
  -25.9402  -32.4492   23.8087 C   0  0  1  0  0  0
  -27.2170  -26.7432   20.2134 C   0  0  0  0  0  0
  -25.5999  -33.8315   24.1977 N   0  0  0  0  0  0
  -23.5036  -30.4094   21.5090 C   0  0  2  0  0  0
  -24.9580  -28.7579   20.1198 C   0  0  0  0  0  0
  -22.7747  -29.4344   22.4727 C   0  0  0  0  0  0
  -18.0335  -28.1418   22.8458 C   0  0  0  0  0  0
  -24.1494  -36.7163   23.2649 C   0  0  0  0  0  0
  -26.0827  -30.5518   21.4130 C   0  0  0  0  0  0
  -26.1476  -29.1209   20.7628 C   0  0  0  0  0  0
  -27.2663  -28.1411   20.7753 C   0  0  0  0  0  0
  -25.9947  -26.5779   19.5173 C   0  0  0  0  0  0
  -24.9180  -27.5112   19.4733 C   0  0  0  0  0  0
  -23.7544  -29.7101   20.1428 C   0  0  0  0  0  0
  -25.4141  -36.2910   24.0285 C   0  0  1  0  0  0
  -20.5969  -28.3774   23.1153 C   0  0  2  0  0  0
  -20.6802  -26.9436   22.5407 C   0  0  0  0  0  0
  -19.5778  -26.6370   21.5218 C   0  0  0  0  0  0
  -18.1960  -26.7948   22.1620 C   0  0  0  0  0  0
  -19.1601  -28.8919   23.2788 C   0  0  0  0  0  0
  -18.9505  -30.1504   23.8830 C   0  0  0  0  0  0
  -17.6496  -30.6601   24.0549 C   0  0  0  0  0  0
  -25.9121  -34.9299   23.4964 C   0  0  0  0  0  0
  -16.5385  -29.9084   23.6347 C   0  0  0  0  0  0
  -16.7315  -28.6507   23.0367 C   0  0  0  0  0  0
  -26.4590  -31.6511   25.0693 C   0  0  0  0  0  0
  -25.3668  -31.3835   26.1321 C   0  0  0  0  0  0
  -27.0499  -30.2847   24.6565 C   0  0  0  0  0  0
  -27.6055  -32.4356   25.7500 C   0  0  0  0  0  0
  -27.5568  -37.1733   24.8459 C   0  0  0  0  0  0
  -21.4400  -29.3032   22.3477 N   0  0  0  0  0  0
  -26.4269  -37.3669   23.9412 N   0  0  0  0  0  0
  -24.7787  -30.9538   22.0785 N   0  0  0  0  0  0
  -23.4211  -28.7938   23.3051 O   0  0  0  0  0  0
  -28.1882  -25.5471   20.2629 O   0  0  0  0  0  0
  -26.5752  -34.8868   22.4576 O   0  0  0  0  0  0
  -23.5834  -32.1100   23.6540 O   0  0  0  0  0  0
  -29.0452  -22.3801   20.1628 C   0  0  0  0  0  0
  -30.2796  -19.8786   19.8916 C   0  0  0  0  0  0
  -28.2015  -19.5488   20.6133 C   0  0  0  0  0  0
  -30.6474  -18.3368   20.5542 C   0  0  0  0  0  0
  -28.5022  -17.8437   20.2357 C   0  0  0  0  0  0
  -27.9184  -23.8262   20.2927 C   0  0  0  0  0  0
  -29.0763  -20.8195   20.2548 N   0  0  0  0  0  0
  -29.8413  -17.0079   20.3754 N   0  0  0  0  0  0
  -30.1640  -22.8169   19.8750 O   0  0  0  0  0  0
  -31.4098  -13.2629   19.1496 H   0  0  0  0  0  0
  -30.5480  -12.1876   20.1977 H   0  0  0  0  0  0
  -29.9734  -11.7817   17.7778 H   0  0  0  0  0  0
  -29.5048  -13.4547   17.5927 H   0  0  0  0  0  0
  -28.1247  -11.2933   19.1949 H   0  0  0  0  0  0
  -27.4324  -12.2413   17.9012 H   0  0  0  0  0  0
  -27.4526  -14.2254   19.2368 H   0  0  0  0  0  0
  -28.8626  -12.7654   21.5200 H   0  0  0  0  0  0
  -28.1927  -14.3787   21.6011 H   0  0  0  0  0  0
  -25.2788   -9.5683   22.4761 H   0  0  0  0  0  0
  -24.0017   -7.4638   22.7472 H   0  0  0  0  0  0
  -21.0865   -8.8790   19.8953 H   0  0  0  0  0  0
  -22.3731  -10.9679   19.6168 H   0  0  0  0  0  0
  -21.2017   -7.6152   23.9716 H   0  0  0  0  0  0
  -21.1480   -6.0524   25.9076 H   0  0  0  0  0  0
  -22.0597   -2.7613   23.2842 H   0  0  0  0  0  0
  -22.4031  -11.9835   22.4879 H   0  0  0  0  0  0
  -21.0987  -13.1145   22.2671 H   0  0  0  0  0  0
  -24.6271  -15.8555   20.5473 H   0  0  0  0  0  0
  -26.2446  -15.6453   20.1034 H   0  0  0  0  0  0
  -26.7481  -32.4974   23.0799 H   0  0  0  0  0  0
  -25.0072  -33.9361   25.0080 H   0  0  0  0  0  0
  -22.8265  -31.2458   21.3232 H   0  0  0  0  0  0
  -23.3776  -35.9472   23.3258 H   0  0  0  0  0  0
  -24.3570  -36.8874   22.2074 H   0  0  0  0  0  0
  -23.7229  -37.6320   23.6754 H   0  0  0  0  0  0
  -26.2818  -31.2795   20.6251 H   0  0  0  0  0  0
  -26.9353  -30.6172   22.0767 H   0  0  0  0  0  0
  -28.1655  -28.4259   21.3033 H   0  0  0  0  0  0
  -25.8345  -25.6336   19.0173 H   0  0  0  0  0  0
  -24.0189  -27.2258   18.9443 H   0  0  0  0  0  0
  -23.9287  -30.4715   19.3818 H   0  0  0  0  0  0
  -22.8595  -29.1764   19.8185 H   0  0  0  0  0  0
  -25.1347  -36.1678   25.0775 H   0  0  0  0  0  0
  -21.0051  -28.3395   24.1280 H   0  0  0  0  0  0
  -20.5660  -26.2399   23.3667 H   0  0  0  0  0  0
  -21.6665  -26.7380   22.1227 H   0  0  0  0  0  0
  -19.6932  -25.6261   21.1295 H   0  0  0  0  0  0
  -19.6722  -27.3141   20.6717 H   0  0  0  0  0  0
  -17.4231  -26.6692   21.4021 H   0  0  0  0  0  0
  -18.0345  -26.0105   22.9030 H   0  0  0  0  0  0
  -19.7979  -30.7340   24.2169 H   0  0  0  0  0  0
  -17.5044  -31.6273   24.5165 H   0  0  0  0  0  0
  -15.5381  -30.2963   23.7709 H   0  0  0  0  0  0
  -15.8717  -28.0800   22.7120 H   0  0  0  0  0  0
  -24.5871  -30.7159   25.7638 H   0  0  0  0  0  0
  -24.8834  -32.3061   26.4545 H   0  0  0  0  0  0
  -25.7856  -30.9138   27.0229 H   0  0  0  0  0  0
  -26.3201  -29.6483   24.1550 H   0  0  0  0  0  0
  -27.3923  -29.7275   25.5295 H   0  0  0  0  0  0
  -27.9191  -30.3970   24.0083 H   0  0  0  0  0  0
  -27.2609  -33.3723   26.1895 H   0  0  0  0  0  0
  -28.3958  -32.6810   25.0393 H   0  0  0  0  0  0
  -28.0623  -31.8604   26.5564 H   0  0  0  0  0  0
  -28.2544  -38.0067   24.7528 H   0  0  0  0  0  0
  -28.1104  -36.2592   24.6255 H   0  0  0  0  0  0
  -27.2292  -37.1336   25.8862 H   0  0  0  0  0  0
  -20.9692  -29.8695   21.6555 H   0  0  0  0  0  0
  -26.0099  -38.2715   24.1440 H   0  0  0  0  0  0
  -30.2525  -19.7683   18.8066 H   0  0  0  0  0  0
  -31.1717  -20.4792   20.0717 H   0  0  0  0  0  0
  -28.1011  -19.5992   21.6982 H   0  0  0  0  0  0
  -27.2005  -19.7776   20.2466 H   0  0  0  0  0  0
  -30.7705  -18.4667   21.6304 H   0  0  0  0  0  0
  -31.6524  -18.0992   20.2025 H   0  0  0  0  0  0
  -28.2239  -17.7180   19.1887 H   0  0  0  0  0  0
  -27.7516  -17.2690   20.7788 H   0  0  0  0  0  0
  -27.3714  -23.6535   21.2196 H   0  0  0  0  0  0
  -27.1799  -23.6502   19.5112 H   0  0  0  0  0  0
  1 25  1  0  0  0
  1 30  2  0  0  0
  1 78  1  0  0  0
  2  3  1  0  0  0
  2 25  1  0  0  0
  2 80  1  0  0  0
  2 81  1  0  0  0
  3  4  1  0  0  0
  3 82  1  0  0  0
  3 83  1  0  0  0
  4  5  1  0  0  0
  4 84  1  0  0  0
  4 85  1  0  0  0
  5  6  1  0  0  0
  5 26  1  0  0  0
  5 86  1  0  0  0
  6 25  1  0  0  0
  6 87  1  0  0  0
  6 88  1  0  0  0
  7  8  2  0  0  0
  7 26  1  0  0  0
  7 29  1  0  0  0
  8  9  1  0  0  0
  8 22  1  0  0  0
  9 10  1  0  0  0
  9 27  2  0  0  0
 10 11  2  0  0  0
 10 15  1  0  0  0
 11 12  1  0  0  0
 11 89  1  0  0  0
 12 13  2  0  0  0
 12 90  1  0  0  0
 13 14  1  0  0  0
 13 31  1  0  0  0
 14 15  2  0  0  0
 14 91  1  0  0  0
 15 92  1  0  0  0
 16 17  2  0  0  0
 16 21  1  0  0  0
 16 31  1  0  0  0
 17 18  1  0  0  0
 17 93  1  0  0  0
 18 19  2  0  0  0
 18 94  1  0  0  0
 19 20  1  0  0  0
 19 24  1  0  0  0
 20 21  2  0  0  0
 20 95  1  0  0  0
 21 23  1  0  0  0
 22 28  1  0  0  0
 22 32  2  0  0  0
 26 27  1  0  0  0
 28 96  1  0  0  0
 28 97  1  0  0  0
 29 98  1  0  0  0
 29 99  1  0  0  0
 33 34  1  0  0  0
 33 66  1  0  0  0
 33 70  2  0  0  0
 34 36  1  0  0  0
 34 59  1  0  0  0
 34100  1  0  0  0
 35 44  2  0  0  0
 35 45  1  0  0  0
 35 68  1  0  0  0
 36 56  1  0  0  0
 36101  1  0  0  0
 37 39  1  0  0  0
 37 47  1  0  0  0
 37 66  1  0  0  0
 37102  1  0  0  0
 38 43  2  0  0  0
 38 46  1  0  0  0
 38 47  1  0  0  0
 39 64  1  0  0  0
 39 67  2  0  0  0
 40 52  1  0  0  0
 40 53  2  0  0  0
 40 58  1  0  0  0
 41103  1  0  0  0
 41104  1  0  0  0
 41105  1  0  0  0
 41 48  1  0  0  0
 42 43  1  0  0  0
 42 66  1  0  0  0
 42106  1  0  0  0
 42107  1  0  0  0
 43 44  1  0  0  0
 44108  1  0  0  0
 45 46  2  0  0  0
 45109  1  0  0  0
 46110  1  0  0  0
 47111  1  0  0  0
 47112  1  0  0  0
 48 56  1  0  0  0
 48 65  1  0  0  0
 48113  1  0  0  0
 49 50  1  0  0  0
 49 53  1  0  0  0
 49 64  1  0  0  0
 49114  1  0  0  0
 50 51  1  0  0  0
 50115  1  0  0  0
 50116  1  0  0  0
 51 52  1  0  0  0
 51117  1  0  0  0
 51118  1  0  0  0
 52119  1  0  0  0
 52120  1  0  0  0
 53 54  1  0  0  0
 54 55  2  0  0  0
 54121  1  0  0  0
 55 57  1  0  0  0
 55122  1  0  0  0
 56 69  2  0  0  0
 57 58  2  0  0  0
 57123  1  0  0  0
 58124  1  0  0  0
 59 60  1  0  0  0
 59 61  1  0  0  0
 59 62  1  0  0  0
 60125  1  0  0  0
 60126  1  0  0  0
 60127  1  0  0  0
 61128  1  0  0  0
 61129  1  0  0  0
 61130  1  0  0  0
 62131  1  0  0  0
 62132  1  0  0  0
 62133  1  0  0  0
 63 65  1  0  0  0
 63134  1  0  0  0
 63135  1  0  0  0
 63136  1  0  0  0
 64137  1  0  0  0
 65138  1  0  0  0
 68 76  1  0  0  0
 71 76  1  0  0  0
 71 77  1  0  0  0
 71 79  2  0  0  0
 72 74  1  0  0  0
 72 77  1  0  0  0
 72139  1  0  0  0
 72140  1  0  0  0
 73 75  1  0  0  0
 73 77  1  0  0  0
 73141  1  0  0  0
 73142  1  0  0  0
 74 78  1  0  0  0
 74143  1  0  0  0
 74144  1  0  0  0
 75 78  1  0  0  0
 75145  1  0  0  0
 75146  1  0  0  0
 76147  1  0  0  0
 76148  1  0  0  0
M  ISO  4   1 100  68 101  76 101  78 100
M  END
> <chiral flag>
0

> <version>
0

> <s_m_source_file>
/data/baiqing/PycharmProjects/Reinvent-master-3.2/result/LINK_invent/BTK/process_docking_weight1_custom_sum_contain_oxygen_bond_distance_aromatic_linkinvent_7_9_3/rearranged_h_0113.sdf

> <i_m_source_file_index>
64

> <r_mmod_Potential_Energy-OPLS-2005>
2369.73095703125

> <r_mmod_Stretch_Energy-OPLS-2005>
869.715454101562

> <r_mmod_Bend_Energy-OPLS-2005>
728.713317871094

> <r_mmod_Torsional_Energy-OPLS-2005>
368.303558349609

> <r_mmod_Improper_Torsional_Energy-OPLS-2005>
3.77189683914185

> <r_mmod_Van_der_Waal_Energy-OPLS-2005>
122.739151000977

> <r_mmod_Electrostatic_Energy-OPLS-2005>
-255.999908447266

> <r_mmod_Solvation_Energy-OPLS-2005>
-255.698532104492

> <b_mmod_Minimization_Converged-OPLS-2005>
0

> <r_mmod_RMS_Derivative-OPLS-2005>
0.484431892633438

$$$$
66
                    3D
 Structure written by MMmdl.
169177  0  0  1  0            999 V2000
  -30.6181  -14.7652   20.5192 C   0  0  0  0  0  0
  -30.4477  -12.4675   19.4830 C   0  0  0  0  0  0
  -29.5151  -12.3685   18.2495 C   0  0  0  0  0  0
  -28.0235  -12.3152   18.6393 C   0  0  0  0  0  0
  -27.6414  -13.2279   19.8330 C   0  0  2  0  0  0
  -28.6795  -13.1448   20.9615 C   0  0  0  0  0  0
  -25.2548  -13.8215   20.5689 C   0  0  0  0  0  0
  -24.1803  -13.0459   20.9170 C   0  0  0  0  0  0
  -24.6356  -11.6947   20.8656 C   0  0  0  0  0  0
  -23.9011  -10.4333   21.0351 C   0  0  0  0  0  0
  -24.3574   -9.4273   21.9141 C   0  0  0  0  0  0
  -23.6270   -8.2291   22.0727 C   0  0  0  0  0  0
  -22.4258   -8.0295   21.3527 C   0  0  0  0  0  0
  -21.9864   -9.0259   20.4628 C   0  0  0  0  0  0
  -22.7167  -10.2161   20.3017 C   0  0  0  0  0  0
  -21.6885   -6.0738   22.5260 C   0  0  0  0  0  0
  -21.4038   -6.5640   23.8189 C   0  0  0  0  0  0
  -21.3638   -5.6789   24.9143 C   0  0  0  0  0  0
  -21.6037   -4.3050   24.7201 C   0  0  0  0  0  0
  -21.8831   -3.8140   23.4324 C   0  0  0  0  0  0
  -21.9222   -4.6961   22.3383 C   0  0  0  0  0  0
  -22.7834  -13.5267   21.1866 C   0  0  0  0  0  0
  -22.1701   -4.2141   21.0964 F   0  0  0  0  0  0
  -21.5598   -3.4535   25.7715 F   0  0  0  0  0  0
  -29.9766  -13.5438   20.3926 N   0  0  0  0  0  0
  -26.2930  -12.9404   20.3163 N   0  0  0  0  0  0
  -25.9286  -11.6556   20.5678 N   0  0  0  0  0  0
  -22.0465  -12.8248   22.0417 N   0  0  0  0  0  0
  -25.4289  -15.1935   20.4288 N   0  0  0  0  0  0
  -31.7882  -14.8682   20.1320 O   0  0  0  0  0  0
  -21.6654   -6.8872   21.4222 O   0  0  0  0  0  0
  -22.3516  -14.5596   20.6775 O   0  0  0  0  0  0
  -24.6280  -31.8578   23.2042 C   0  0  0  0  0  0
  -25.9124  -32.4783   23.8374 C   0  0  1  0  0  0
  -27.2135  -27.2823   20.1304 C   0  0  0  0  0  0
  -25.5930  -33.8583   24.2293 N   0  0  0  0  0  0
  -23.4222  -30.4853   21.5449 C   0  0  2  0  0  0
  -24.8660  -28.9401   20.1047 C   0  0  0  0  0  0
  -22.7489  -29.4636   22.4927 C   0  0  0  0  0  0
  -18.0299  -28.1375   22.8510 C   0  0  0  0  0  0
  -24.1469  -36.7284   23.2640 C   0  0  0  0  0  0
  -25.9652  -30.7765   21.3836 C   0  0  0  0  0  0
  -26.0357  -29.4028   20.7241 C   0  0  0  0  0  0
  -27.2044  -28.5834   20.7317 C   0  0  0  0  0  0
  -26.0271  -26.8964   19.4604 C   0  0  0  0  0  0
  -24.8695  -27.6964   19.4594 C   0  0  0  0  0  0
  -23.6352  -29.8239   20.1569 C   0  0  0  0  0  0
  -25.4101  -36.3089   24.0332 C   0  0  1  0  0  0
  -20.5894  -28.3698   23.1280 C   0  0  2  0  0  0
  -20.6781  -26.9422   22.5412 C   0  0  0  0  0  0
  -19.5750  -26.6386   21.5223 C   0  0  0  0  0  0
  -18.1938  -26.7922   22.1645 C   0  0  0  0  0  0
  -19.1552  -28.8863   23.2879 C   0  0  0  0  0  0
  -18.9468  -30.1458   23.8901 C   0  0  0  0  0  0
  -17.6466  -30.6585   24.0569 C   0  0  0  0  0  0
  -25.9055  -34.9462   23.5121 C   0  0  0  0  0  0
  -16.5360  -29.9080   23.6330 C   0  0  0  0  0  0
  -16.7285  -28.6488   23.0381 C   0  0  0  0  0  0
  -26.4483  -31.6589   25.0756 C   0  0  0  0  0  0
  -25.3706  -31.3743   26.1485 C   0  0  0  0  0  0
  -27.0338  -30.3011   24.6246 C   0  0  0  0  0  0
  -27.6045  -32.4339   25.7535 C   0  0  0  0  0  0
  -27.5575  -37.1802   24.8463 C   0  0  0  0  0  0
  -21.4202  -29.3042   22.3668 N   0  0  0  0  0  0
  -26.4282  -37.3790   23.9415 N   0  0  0  0  0  0
  -24.6912  -31.0591   22.1000 N   0  0  0  0  0  0
  -23.4200  -28.8201   23.3049 O   0  0  0  0  0  0
  -28.3322  -26.4241   20.2273 O   0  0  0  0  0  0
  -26.5624  -34.8914   22.4681 O   0  0  0  0  0  0
  -23.5446  -32.1422   23.7356 O   0  0  0  0  0  0
  -29.1798  -19.1112   19.2176 C   0  0  0  0  0  0
  -29.7177  -18.4318   21.2359 C   0  0  0  0  0  0
  -29.4231  -17.7538   19.1110 C   0  0  0  0  0  0
  -29.7356  -17.2719   20.4496 C   0  0  0  0  0  0
  -27.8412  -16.8967   17.3029 C   0  0  0  0  0  0
  -30.1367  -15.8805   17.5122 C   0  0  0  0  0  0
  -29.9539  -22.3883   18.8865 C   0  0  0  0  0  0
  -28.1200  -23.8110   22.0777 C   0  0  0  0  0  0
  -29.8266  -15.8446   22.4832 C   0  0  0  0  0  0
  -29.2517  -21.0294   21.0212 C   0  0  0  0  0  0
  -28.2916  -24.9881   19.8075 C   0  0  0  0  0  0
  -29.2978  -17.1214   17.7279 C   0  0  0  0  0  0
  -28.9623  -22.3141   20.0695 C   0  0  1  0  0  0
  -28.8746  -23.8041   20.7337 C   0  0  2  0  0  0
  -29.3947  -19.5938   20.4959 N   0  0  0  0  0  0
  -29.9277  -15.8809   21.0142 N   0  0  0  0  0  0
  -31.4806  -12.6175   19.1625 H   0  0  0  0  0  0
  -30.4511  -11.5215   20.0248 H   0  0  0  0  0  0
  -29.7630  -11.4587   17.7004 H   0  0  0  0  0  0
  -29.6981  -13.1571   17.5296 H   0  0  0  0  0  0
  -27.8037  -11.2773   18.8849 H   0  0  0  0  0  0
  -27.4027  -12.5431   17.7726 H   0  0  0  0  0  0
  -27.6496  -14.2529   19.4607 H   0  0  0  0  0  0
  -28.7325  -12.1302   21.3554 H   0  0  0  0  0  0
  -28.3643  -13.7707   21.7923 H   0  0  0  0  0  0
  -25.2720   -9.5813   22.4691 H   0  0  0  0  0  0
  -24.0005   -7.4718   22.7456 H   0  0  0  0  0  0
  -21.0771   -8.8762   19.8952 H   0  0  0  0  0  0
  -22.3580  -10.9683   19.6109 H   0  0  0  0  0  0
  -21.2053   -7.6153   23.9697 H   0  0  0  0  0  0
  -21.1420   -6.0507   25.9049 H   0  0  0  0  0  0
  -22.0624   -2.7601   23.2823 H   0  0  0  0  0  0
  -22.4059  -11.9934   22.4877 H   0  0  0  0  0  0
  -21.1062  -13.1267   22.2517 H   0  0  0  0  0  0
  -24.6837  -15.8527   20.6255 H   0  0  0  0  0  0
  -26.3084  -15.6451   20.2085 H   0  0  0  0  0  0
  -26.7197  -32.5430   23.1120 H   0  0  0  0  0  0
  -25.0075  -33.9707   25.0442 H   0  0  0  0  0  0
  -22.7173  -31.3067   21.4069 H   0  0  0  0  0  0
  -23.3734  -35.9613   23.3324 H   0  0  0  0  0  0
  -24.3577  -36.8882   22.2053 H   0  0  0  0  0  0
  -23.7211  -37.6487   23.6654 H   0  0  0  0  0  0
  -26.1037  -31.5399   20.6179 H   0  0  0  0  0  0
  -26.8445  -30.8207   22.0169 H   0  0  0  0  0  0
  -28.0943  -28.9334   21.2385 H   0  0  0  0  0  0
  -25.9390  -25.9693   18.9234 H   0  0  0  0  0  0
  -23.9831  -27.3475   18.9451 H   0  0  0  0  0  0
  -23.7464  -30.6024   19.4004 H   0  0  0  0  0  0
  -22.7535  -29.2496   19.8661 H   0  0  0  0  0  0
  -25.1272  -36.1948   25.0829 H   0  0  0  0  0  0
  -20.9992  -28.3277   24.1397 H   0  0  0  0  0  0
  -20.5679  -26.2334   23.3620 H   0  0  0  0  0  0
  -21.6649  -26.7443   22.1205 H   0  0  0  0  0  0
  -19.6906  -25.6295   21.1262 H   0  0  0  0  0  0
  -19.6659  -27.3192   20.6739 H   0  0  0  0  0  0
  -17.4201  -26.6694   21.4040 H   0  0  0  0  0  0
  -18.0321  -26.0045   22.9026 H   0  0  0  0  0  0
  -19.7944  -30.7279   24.2268 H   0  0  0  0  0  0
  -17.5018  -31.6264   24.5161 H   0  0  0  0  0  0
  -15.5359  -30.2984   23.7624 H   0  0  0  0  0  0
  -15.8693  -28.0782   22.7106 H   0  0  0  0  0  0
  -24.5890  -30.7071   25.7826 H   0  0  0  0  0  0
  -24.8864  -32.2901   26.4891 H   0  0  0  0  0  0
  -25.8014  -30.8952   27.0283 H   0  0  0  0  0  0
  -26.2937  -29.6796   24.1195 H   0  0  0  0  0  0
  -27.3927  -29.7250   25.4780 H   0  0  0  0  0  0
  -27.8852  -30.4295   23.9564 H   0  0  0  0  0  0
  -27.2640  -33.3620   26.2145 H   0  0  0  0  0  0
  -28.3834  -32.6939   25.0355 H   0  0  0  0  0  0
  -28.0746  -31.8453   26.5425 H   0  0  0  0  0  0
  -28.2581  -38.0111   24.7540 H   0  0  0  0  0  0
  -28.1075  -36.2649   24.6243 H   0  0  0  0  0  0
  -27.2311  -37.1392   25.8869 H   0  0  0  0  0  0
  -20.9406  -29.8751   21.6844 H   0  0  0  0  0  0
  -26.0158  -38.2861   24.1429 H   0  0  0  0  0  0
  -28.8614  -19.7929   18.4420 H   0  0  0  0  0  0
  -29.8833  -18.5506   22.2990 H   0  0  0  0  0  0
  -27.2419  -17.7986   17.4285 H   0  0  0  0  0  0
  -27.3781  -16.0879   17.8659 H   0  0  0  0  0  0
  -27.7975  -16.6320   16.2452 H   0  0  0  0  0  0
  -31.1850  -16.0736   17.7412 H   0  0  0  0  0  0
  -30.0669  -15.4965   16.4926 H   0  0  0  0  0  0
  -29.7535  -15.1098   18.1573 H   0  0  0  0  0  0
  -30.2991  -21.4179   18.5342 H   0  0  0  0  0  0
  -30.8474  -22.9551   19.1460 H   0  0  0  0  0  0
  -29.4947  -22.8827   18.0299 H   0  0  0  0  0  0
  -28.1012  -24.8191   22.4953 H   0  0  0  0  0  0
  -28.5978  -23.1778   22.8249 H   0  0  0  0  0  0
  -27.0844  -23.4893   21.9723 H   0  0  0  0  0  0
  -28.8817  -16.2756   22.8146 H   0  0  0  0  0  0
  -30.6278  -16.4275   22.9345 H   0  0  0  0  0  0
  -29.9001  -14.8472   22.9199 H   0  0  0  0  0  0
  -28.4458  -20.9930   21.7566 H   0  0  0  0  0  0
  -30.1531  -21.2483   21.5978 H   0  0  0  0  0  0
  -27.2955  -24.6575   19.5508 H   0  0  0  0  0  0
  -28.8449  -24.9721   18.8699 H   0  0  0  0  0  0
  -29.7073  -17.8597   17.0380 H   0  0  0  0  0  0
  -27.9796  -22.1174   19.6413 H   0  0  0  0  0  0
  -29.8984  -24.0928   20.9789 H   0  0  0  0  0  0
  1 25  1  0  0  0
  1 30  2  0  0  0
  1 86  1  0  0  0
  2  3  1  0  0  0
  2 25  1  0  0  0
  2 87  1  0  0  0
  2 88  1  0  0  0
  3  4  1  0  0  0
  3 89  1  0  0  0
  3 90  1  0  0  0
  4  5  1  0  0  0
  4 91  1  0  0  0
  4 92  1  0  0  0
  5  6  1  0  0  0
  5 26  1  0  0  0
  5 93  1  0  0  0
  6 25  1  0  0  0
  6 94  1  0  0  0
  6 95  1  0  0  0
  7  8  2  0  0  0
  7 26  1  0  0  0
  7 29  1  0  0  0
  8  9  1  0  0  0
  8 22  1  0  0  0
  9 10  1  0  0  0
  9 27  2  0  0  0
 10 11  2  0  0  0
 10 15  1  0  0  0
 11 12  1  0  0  0
 11 96  1  0  0  0
 12 13  2  0  0  0
 12 97  1  0  0  0
 13 14  1  0  0  0
 13 31  1  0  0  0
 14 15  2  0  0  0
 14 98  1  0  0  0
 15 99  1  0  0  0
 16 17  2  0  0  0
 16 21  1  0  0  0
 16 31  1  0  0  0
 17 18  1  0  0  0
 17100  1  0  0  0
 18 19  2  0  0  0
 18101  1  0  0  0
 19 20  1  0  0  0
 19 24  1  0  0  0
 20 21  2  0  0  0
 20102  1  0  0  0
 21 23  1  0  0  0
 22 28  1  0  0  0
 22 32  2  0  0  0
 26 27  1  0  0  0
 28103  1  0  0  0
 28104  1  0  0  0
 29105  1  0  0  0
 29106  1  0  0  0
 33 34  1  0  0  0
 33 66  1  0  0  0
 33 70  2  0  0  0
 34 36  1  0  0  0
 34 59  1  0  0  0
 34107  1  0  0  0
 35 44  2  0  0  0
 35 45  1  0  0  0
 35 68  1  0  0  0
 36 56  1  0  0  0
 36108  1  0  0  0
 37 39  1  0  0  0
 37 47  1  0  0  0
 37 66  1  0  0  0
 37109  1  0  0  0
 38 43  2  0  0  0
 38 46  1  0  0  0
 38 47  1  0  0  0
 39 64  1  0  0  0
 39 67  2  0  0  0
 40 52  1  0  0  0
 40 53  2  0  0  0
 40 58  1  0  0  0
 41110  1  0  0  0
 41111  1  0  0  0
 41112  1  0  0  0
 41 48  1  0  0  0
 42 43  1  0  0  0
 42 66  1  0  0  0
 42113  1  0  0  0
 42114  1  0  0  0
 43 44  1  0  0  0
 44115  1  0  0  0
 45 46  2  0  0  0
 45116  1  0  0  0
 46117  1  0  0  0
 47118  1  0  0  0
 47119  1  0  0  0
 48 56  1  0  0  0
 48 65  1  0  0  0
 48120  1  0  0  0
 49 50  1  0  0  0
 49 53  1  0  0  0
 49 64  1  0  0  0
 49121  1  0  0  0
 50 51  1  0  0  0
 50122  1  0  0  0
 50123  1  0  0  0
 51 52  1  0  0  0
 51124  1  0  0  0
 51125  1  0  0  0
 52126  1  0  0  0
 52127  1  0  0  0
 53 54  1  0  0  0
 54 55  2  0  0  0
 54128  1  0  0  0
 55 57  1  0  0  0
 55129  1  0  0  0
 56 69  2  0  0  0
 57 58  2  0  0  0
 57130  1  0  0  0
 58131  1  0  0  0
 59 60  1  0  0  0
 59 61  1  0  0  0
 59 62  1  0  0  0
 60132  1  0  0  0
 60133  1  0  0  0
 60134  1  0  0  0
 61135  1  0  0  0
 61136  1  0  0  0
 61137  1  0  0  0
 62138  1  0  0  0
 62139  1  0  0  0
 62140  1  0  0  0
 63 65  1  0  0  0
 63141  1  0  0  0
 63142  1  0  0  0
 63143  1  0  0  0
 64144  1  0  0  0
 65145  1  0  0  0
 68 81  1  0  0  0
 71 73  2  0  0  0
 71 85  1  0  0  0
 71146  1  0  0  0
 72 74  2  0  0  0
 72 85  1  0  0  0
 72147  1  0  0  0
 73 74  1  0  0  0
 73 82  1  0  0  0
 74 86  1  0  0  0
 75148  1  0  0  0
 75149  1  0  0  0
 75150  1  0  0  0
 75 82  1  0  0  0
 76 82  1  0  0  0
 76151  1  0  0  0
 76152  1  0  0  0
 76153  1  0  0  0
 77154  1  0  0  0
 77155  1  0  0  0
 77156  1  0  0  0
 77 83  1  0  0  0
 78157  1  0  0  0
 78158  1  0  0  0
 78159  1  0  0  0
 78 84  1  0  0  0
 79 86  1  0  0  0
 79160  1  0  0  0
 79161  1  0  0  0
 79162  1  0  0  0
 80 83  1  0  0  0
 80 85  1  0  0  0
 80163  1  0  0  0
 80164  1  0  0  0
 81 84  1  0  0  0
 81165  1  0  0  0
 81166  1  0  0  0
 82167  1  0  0  0
 83 84  1  0  0  0
 83168  1  0  0  0
 84169  1  0  0  0
M  ISO  4   1 100  68 101  81 101  86 100
M  END
> <chiral flag>
0

> <version>
0

> <s_m_source_file>
/data/baiqing/PycharmProjects/Reinvent-master-3.2/result/LINK_invent/BTK/process_docking_weight1_custom_sum_contain_oxygen_bond_distance_aromatic_linkinvent_7_9_3/rearranged_h_0113.sdf

> <i_m_source_file_index>
65

> <r_mmod_Potential_Energy-OPLS-2005>
409.606811523438

> <r_mmod_Stretch_Energy-OPLS-2005>
132.759857177734

> <r_mmod_Bend_Energy-OPLS-2005>
227.564178466797

> <r_mmod_Torsional_Energy-OPLS-2005>
307.456909179688

> <r_mmod_Improper_Torsional_Energy-OPLS-2005>
3.75081515312195

> <r_mmod_Van_der_Waal_Energy-OPLS-2005>
128.207153320312

> <r_mmod_Electrostatic_Energy-OPLS-2005>
-291.834075927734

> <r_mmod_Solvation_Energy-OPLS-2005>
-183.977264404297

> <b_mmod_Minimization_Converged-OPLS-2005>
0

> <r_mmod_RMS_Derivative-OPLS-2005>
4.94743967056274

$$$$
67
                    3D
 Structure written by MMmdl.
175183  0  0  1  0            999 V2000
  -30.5271  -15.0050   20.4026 C   0  0  0  0  0  0
  -30.4246  -12.6141   19.5534 C   0  0  0  0  0  0
  -29.5270  -12.5457   18.2933 C   0  0  0  0  0  0
  -28.0600  -12.3292   18.7010 C   0  0  0  0  0  0
  -27.6267  -13.2624   19.8593 C   0  0  2  0  0  0
  -28.6587  -13.3245   21.0099 C   0  0  0  0  0  0
  -25.2425  -13.8220   20.5840 C   0  0  0  0  0  0
  -24.1746  -13.0417   20.9281 C   0  0  0  0  0  0
  -24.6362  -11.6920   20.8740 C   0  0  0  0  0  0
  -23.9028  -10.4304   21.0363 C   0  0  0  0  0  0
  -24.3554   -9.4223   21.9156 C   0  0  0  0  0  0
  -23.6282   -8.2236   22.0682 C   0  0  0  0  0  0
  -22.4263   -8.0257   21.3481 C   0  0  0  0  0  0
  -21.9883   -9.0225   20.4587 C   0  0  0  0  0  0
  -22.7183  -10.2119   20.3029 C   0  0  0  0  0  0
  -21.6875   -6.0747   22.5289 C   0  0  0  0  0  0
  -21.3998   -6.5654   23.8238 C   0  0  0  0  0  0
  -21.3657   -5.6786   24.9203 C   0  0  0  0  0  0
  -21.6059   -4.3057   24.7245 C   0  0  0  0  0  0
  -21.8806   -3.8149   23.4344 C   0  0  0  0  0  0
  -21.9185   -4.6986   22.3423 C   0  0  0  0  0  0
  -22.7781  -13.5169   21.2005 C   0  0  0  0  0  0
  -22.1666   -4.2168   21.0993 F   0  0  0  0  0  0
  -21.5615   -3.4532   25.7728 F   0  0  0  0  0  0
  -29.9440  -13.7303   20.4285 N   0  0  0  0  0  0
  -26.2858  -12.9490   20.3364 N   0  0  0  0  0  0
  -25.9295  -11.6612   20.5739 N   0  0  0  0  0  0
  -22.0444  -12.8084   22.0518 N   0  0  0  0  0  0
  -25.4155  -15.1958   20.4360 N   0  0  0  0  0  0
  -31.6833  -15.0514   19.9791 O   0  0  0  0  0  0
  -21.6643   -6.8868   21.4236 O   0  0  0  0  0  0
  -22.3504  -14.5522   20.6950 O   0  0  0  0  0  0
  -24.6461  -31.8402   23.1832 C   0  0  0  0  0  0
  -25.9249  -32.4665   23.8222 C   0  0  1  0  0  0
  -27.1963  -27.1180   20.1613 C   0  0  0  0  0  0
  -25.6020  -33.8485   24.2169 N   0  0  0  0  0  0
  -23.4484  -30.4552   21.5310 C   0  0  2  0  0  0
  -24.8861  -28.8732   20.1135 C   0  0  0  0  0  0
  -22.7596  -29.4521   22.4910 C   0  0  0  0  0  0
  -18.0317  -28.1412   22.8477 C   0  0  0  0  0  0
  -24.1481  -36.7214   23.2630 C   0  0  0  0  0  0
  -26.0011  -30.7114   21.3755 C   0  0  0  0  0  0
  -26.0620  -29.3158   20.7313 C   0  0  0  0  0  0
  -27.2208  -28.4524   20.7340 C   0  0  0  0  0  0
  -25.9946  -26.7659   19.5188 C   0  0  0  0  0  0
  -24.8625  -27.6133   19.4919 C   0  0  0  0  0  0
  -23.6653  -29.7777   20.1518 C   0  0  0  0  0  0
  -25.4118  -36.3008   24.0310 C   0  0  1  0  0  0
  -20.5920  -28.3732   23.1266 C   0  0  2  0  0  0
  -20.6804  -26.9451   22.5410 C   0  0  0  0  0  0
  -19.5784  -26.6403   21.5220 C   0  0  0  0  0  0
  -18.1952  -26.7954   22.1582 C   0  0  0  0  0  0
  -19.1565  -28.8889   23.2828 C   0  0  0  0  0  0
  -18.9480  -30.1506   23.8848 C   0  0  0  0  0  0
  -17.6473  -30.6594   24.0573 C   0  0  0  0  0  0
  -25.9090  -34.9398   23.5034 C   0  0  0  0  0  0
  -16.5362  -29.9096   23.6352 C   0  0  0  0  0  0
  -16.7297  -28.6502   23.0357 C   0  0  0  0  0  0
  -26.4552  -31.6553   25.0681 C   0  0  0  0  0  0
  -25.3740  -31.3741   26.1376 C   0  0  0  0  0  0
  -27.0409  -30.2961   24.6234 C   0  0  0  0  0  0
  -27.6111  -32.4292   25.7432 C   0  0  0  0  0  0
  -27.5575  -37.1748   24.8460 C   0  0  0  0  0  0
  -21.4280  -29.3028   22.3653 N   0  0  0  0  0  0
  -26.4259  -37.3755   23.9446 N   0  0  0  0  0  0
  -24.7196  -31.0270   22.0837 N   0  0  0  0  0  0
  -23.4256  -28.8127   23.3090 O   0  0  0  0  0  0
  -28.2703  -26.1599   20.1438 O   0  0  0  0  0  0
  -26.5632  -34.8925   22.4589 O   0  0  0  0  0  0
  -23.5573  -32.1270   23.7051 O   0  0  0  0  0  0
  -27.2205  -22.3027   19.6347 C   0  0  0  0  0  0
  -27.7712  -20.9145   19.2124 C   0  0  0  0  0  0
  -28.4504  -23.1947   19.8942 C   0  0  1  0  0  0
  -28.8823  -20.5815   20.2301 C   0  0  1  0  0  0
  -30.3846  -18.0076   16.4650 C   0  0  0  0  0  0
  -33.2354  -19.7985   22.3011 C   0  0  0  0  0  0
  -32.9084  -17.7924   20.8188 C   0  0  0  0  0  0
  -31.2033  -20.9246   18.3416 C   0  0  0  0  0  0
  -28.1261  -24.6879   20.6397 C   0  0  0  0  0  0
  -29.7844  -19.1029   17.3696 C   0  0  0  0  0  0
  -30.9516  -19.3966   21.2363 C   0  0  0  0  0  0
  -29.4629  -17.5718   19.9374 C   0  0  0  0  0  0
  -32.4915  -19.2421   21.0693 C   0  0  0  0  0  0
  -30.6567  -19.4976   18.6049 C   0  0  2  0  0  0
  -29.9594  -19.2392   20.0215 C   0  0  1  0  0  0
  -29.7935  -16.1995   20.7004 N   0  0  0  0  0  0
  -29.3075  -22.0472   20.4447 O   0  0  0  0  0  0
  -31.4671  -12.7426   19.2648 H   0  0  0  0  0  0
  -30.3979  -11.6698   20.0985 H   0  0  0  0  0  0
  -29.8510  -11.7343   17.6386 H   0  0  0  0  0  0
  -29.6140  -13.4734   17.7211 H   0  0  0  0  0  0
  -27.9558  -11.2918   19.0152 H   0  0  0  0  0  0
  -27.3972  -12.4613   17.8448 H   0  0  0  0  0  0
  -27.5827  -14.2611   19.4228 H   0  0  0  0  0  0
  -28.7381  -12.3679   21.5295 H   0  0  0  0  0  0
  -28.3346  -14.0504   21.7580 H   0  0  0  0  0  0
  -25.2669   -9.5741   22.4784 H   0  0  0  0  0  0
  -24.0030   -7.4594   22.7351 H   0  0  0  0  0  0
  -21.0841   -8.8672   19.8886 H   0  0  0  0  0  0
  -22.3583  -10.9631   19.6140 H   0  0  0  0  0  0
  -21.2015   -7.6156   23.9740 H   0  0  0  0  0  0
  -21.1481   -6.0539   25.9112 H   0  0  0  0  0  0
  -22.0602   -2.7625   23.2844 H   0  0  0  0  0  0
  -22.4074  -11.9706   22.4819 H   0  0  0  0  0  0
  -21.1036  -13.1050   22.2746 H   0  0  0  0  0  0
  -24.6498  -15.8497   20.5568 H   0  0  0  0  0  0
  -26.2843  -15.6355   20.1612 H   0  0  0  0  0  0
  -26.7335  -32.5244   23.0947 H   0  0  0  0  0  0
  -25.0353  -33.9603   25.0445 H   0  0  0  0  0  0
  -22.7470  -31.2777   21.3732 H   0  0  0  0  0  0
  -23.3779  -35.9508   23.3227 H   0  0  0  0  0  0
  -24.3611  -36.8900   22.2063 H   0  0  0  0  0  0
  -23.7175  -37.6373   23.6697 H   0  0  0  0  0  0
  -26.1540  -31.4555   20.5939 H   0  0  0  0  0  0
  -26.8743  -30.7633   22.0127 H   0  0  0  0  0  0
  -28.1237  -28.7912   21.2202 H   0  0  0  0  0  0
  -25.9172  -25.8032   19.0331 H   0  0  0  0  0  0
  -23.9650  -27.2762   18.9907 H   0  0  0  0  0  0
  -23.7968  -30.5408   19.3832 H   0  0  0  0  0  0
  -22.7815  -29.2100   19.8553 H   0  0  0  0  0  0
  -25.1292  -36.1788   25.0796 H   0  0  0  0  0  0
  -20.9950  -28.3281   24.1411 H   0  0  0  0  0  0
  -20.5747  -26.2338   23.3619 H   0  0  0  0  0  0
  -21.6676  -26.7503   22.1187 H   0  0  0  0  0  0
  -19.6970  -25.6308   21.1277 H   0  0  0  0  0  0
  -19.6736  -27.3189   20.6737 H   0  0  0  0  0  0
  -17.4254  -26.6746   21.3945 H   0  0  0  0  0  0
  -18.0290  -26.0101   22.8956 H   0  0  0  0  0  0
  -19.7959  -30.7331   24.2158 H   0  0  0  0  0  0
  -17.5029  -31.6270   24.5182 H   0  0  0  0  0  0
  -15.5359  -30.2964   23.7726 H   0  0  0  0  0  0
  -15.8686  -28.0813   22.7099 H   0  0  0  0  0  0
  -24.6086  -30.6841   25.7778 H   0  0  0  0  0  0
  -24.8696  -32.2883   26.4513 H   0  0  0  0  0  0
  -25.8063  -30.9227   27.0311 H   0  0  0  0  0  0
  -26.3005  -29.6689   24.1237 H   0  0  0  0  0  0
  -27.4068  -29.7236   25.4764 H   0  0  0  0  0  0
  -27.8903  -30.4226   23.9516 H   0  0  0  0  0  0
  -27.2814  -33.3733   26.1759 H   0  0  0  0  0  0
  -28.4046  -32.6569   25.0310 H   0  0  0  0  0  0
  -28.0620  -31.8538   26.5520 H   0  0  0  0  0  0
  -28.2518  -38.0115   24.7622 H   0  0  0  0  0  0
  -28.1125  -36.2655   24.6101 H   0  0  0  0  0  0
  -27.2341  -37.1184   25.8871 H   0  0  0  0  0  0
  -20.9531  -29.8657   21.6737 H   0  0  0  0  0  0
  -26.0083  -38.2791   24.1537 H   0  0  0  0  0  0
  -26.6467  -22.1940   20.5584 H   0  0  0  0  0  0
  -26.5528  -22.7379   18.8902 H   0  0  0  0  0  0
  -28.1657  -21.0227   18.2042 H   0  0  0  0  0  0
  -26.9894  -20.1550   19.1839 H   0  0  0  0  0  0
  -28.8667  -23.4357   18.9148 H   0  0  0  0  0  0
  -28.3414  -20.3457   21.1484 H   0  0  0  0  0  0
  -29.6443  -17.6786   15.7348 H   0  0  0  0  0  0
  -30.6859  -17.1148   17.0123 H   0  0  0  0  0  0
  -31.2624  -18.3667   15.9265 H   0  0  0  0  0  0
  -34.3153  -19.6573   22.2177 H   0  0  0  0  0  0
  -32.9015  -19.3035   23.2115 H   0  0  0  0  0  0
  -33.0697  -20.8689   22.4298 H   0  0  0  0  0  0
  -33.9907  -17.6909   20.7458 H   0  0  0  0  0  0
  -32.5088  -17.4222   19.8791 H   0  0  0  0  0  0
  -32.5649  -17.1354   21.6149 H   0  0  0  0  0  0
  -30.3981  -21.6319   18.1311 H   0  0  0  0  0  0
  -31.8587  -20.9320   17.4661 H   0  0  0  0  0  0
  -31.7726  -21.3348   19.1706 H   0  0  0  0  0  0
  -28.8146  -24.6930   21.4878 H   0  0  0  0  0  0
  -27.1507  -24.6208   21.1263 H   0  0  0  0  0  0
  -28.7884  -18.7882   17.6788 H   0  0  0  0  0  0
  -29.5944  -19.9769   16.7460 H   0  0  0  0  0  0
  -30.8199  -20.4006   21.6432 H   0  0  0  0  0  0
  -30.6229  -18.7496   22.0500 H   0  0  0  0  0  0
  -29.7184  -17.2133   18.9499 H   0  0  0  0  0  0
  -28.3725  -17.6069   19.9057 H   0  0  0  0  0  0
  -32.8506  -19.8367   20.2327 H   0  0  0  0  0  0
  -31.5270  -18.8455   18.5677 H   0  0  0  0  0  0
  -29.0154  -15.9652   21.3002 H   0  0  0  0  0  0
  1 25  1  0  0  0
  1 30  2  0  0  0
  1 86  1  0  0  0
  2  3  1  0  0  0
  2 25  1  0  0  0
  2 88  1  0  0  0
  2 89  1  0  0  0
  3  4  1  0  0  0
  3 90  1  0  0  0
  3 91  1  0  0  0
  4  5  1  0  0  0
  4 92  1  0  0  0
  4 93  1  0  0  0
  5  6  1  0  0  0
  5 26  1  0  0  0
  5 94  1  0  0  0
  6 25  1  0  0  0
  6 95  1  0  0  0
  6 96  1  0  0  0
  7  8  2  0  0  0
  7 26  1  0  0  0
  7 29  1  0  0  0
  8  9  1  0  0  0
  8 22  1  0  0  0
  9 10  1  0  0  0
  9 27  2  0  0  0
 10 11  2  0  0  0
 10 15  1  0  0  0
 11 12  1  0  0  0
 11 97  1  0  0  0
 12 13  2  0  0  0
 12 98  1  0  0  0
 13 14  1  0  0  0
 13 31  1  0  0  0
 14 15  2  0  0  0
 14 99  1  0  0  0
 15100  1  0  0  0
 16 17  2  0  0  0
 16 21  1  0  0  0
 16 31  1  0  0  0
 17 18  1  0  0  0
 17101  1  0  0  0
 18 19  2  0  0  0
 18102  1  0  0  0
 19 20  1  0  0  0
 19 24  1  0  0  0
 20 21  2  0  0  0
 20103  1  0  0  0
 21 23  1  0  0  0
 22 28  1  0  0  0
 22 32  2  0  0  0
 26 27  1  0  0  0
 28104  1  0  0  0
 28105  1  0  0  0
 29106  1  0  0  0
 29107  1  0  0  0
 33 34  1  0  0  0
 33 66  1  0  0  0
 33 70  2  0  0  0
 34 36  1  0  0  0
 34 59  1  0  0  0
 34108  1  0  0  0
 35 44  2  0  0  0
 35 45  1  0  0  0
 35 68  1  0  0  0
 36 56  1  0  0  0
 36109  1  0  0  0
 37 39  1  0  0  0
 37 47  1  0  0  0
 37 66  1  0  0  0
 37110  1  0  0  0
 38 43  2  0  0  0
 38 46  1  0  0  0
 38 47  1  0  0  0
 39 64  1  0  0  0
 39 67  2  0  0  0
 40 52  1  0  0  0
 40 53  2  0  0  0
 40 58  1  0  0  0
 41111  1  0  0  0
 41112  1  0  0  0
 41113  1  0  0  0
 41 48  1  0  0  0
 42 43  1  0  0  0
 42 66  1  0  0  0
 42114  1  0  0  0
 42115  1  0  0  0
 43 44  1  0  0  0
 44116  1  0  0  0
 45 46  2  0  0  0
 45117  1  0  0  0
 46118  1  0  0  0
 47119  1  0  0  0
 47120  1  0  0  0
 48 56  1  0  0  0
 48 65  1  0  0  0
 48121  1  0  0  0
 49 50  1  0  0  0
 49 53  1  0  0  0
 49 64  1  0  0  0
 49122  1  0  0  0
 50 51  1  0  0  0
 50123  1  0  0  0
 50124  1  0  0  0
 51 52  1  0  0  0
 51125  1  0  0  0
 51126  1  0  0  0
 52127  1  0  0  0
 52128  1  0  0  0
 53 54  1  0  0  0
 54 55  2  0  0  0
 54129  1  0  0  0
 55 57  1  0  0  0
 55130  1  0  0  0
 56 69  2  0  0  0
 57 58  2  0  0  0
 57131  1  0  0  0
 58132  1  0  0  0
 59 60  1  0  0  0
 59 61  1  0  0  0
 59 62  1  0  0  0
 60133  1  0  0  0
 60134  1  0  0  0
 60135  1  0  0  0
 61136  1  0  0  0
 61137  1  0  0  0
 61138  1  0  0  0
 62139  1  0  0  0
 62140  1  0  0  0
 62141  1  0  0  0
 63 65  1  0  0  0
 63142  1  0  0  0
 63143  1  0  0  0
 63144  1  0  0  0
 64145  1  0  0  0
 65146  1  0  0  0
 68 79  1  0  0  0
 71 72  1  0  0  0
 71 73  1  0  0  0
 71147  1  0  0  0
 71148  1  0  0  0
 72149  1  0  0  0
 72150  1  0  0  0
 72 74  1  0  0  0
 73 79  1  0  0  0
 73 87  1  0  0  0
 73151  1  0  0  0
 74 85  1  0  0  0
 74 87  1  0  0  0
 74152  1  0  0  0
 75 80  1  0  0  0
 75153  1  0  0  0
 75154  1  0  0  0
 75155  1  0  0  0
 76156  1  0  0  0
 76157  1  0  0  0
 76158  1  0  0  0
 76 83  1  0  0  0
 77 83  1  0  0  0
 77159  1  0  0  0
 77160  1  0  0  0
 77161  1  0  0  0
 78162  1  0  0  0
 78163  1  0  0  0
 78164  1  0  0  0
 78 84  1  0  0  0
 79165  1  0  0  0
 79166  1  0  0  0
 80 84  1  0  0  0
 80167  1  0  0  0
 80168  1  0  0  0
 81 83  1  0  0  0
 81169  1  0  0  0
 81170  1  0  0  0
 81 85  1  0  0  0
 82 85  1  0  0  0
 82 86  1  0  0  0
 82171  1  0  0  0
 82172  1  0  0  0
 83173  1  0  0  0
 84 85  1  0  0  0
 84174  1  0  0  0
 86175  1  0  0  0
M  ISO  4   1 100  68 101  79 101  86 100
M  END
> <chiral flag>
0

> <version>
0

> <s_m_source_file>
/data/baiqing/PycharmProjects/Reinvent-master-3.2/result/LINK_invent/BTK/process_docking_weight1_custom_sum_contain_oxygen_bond_distance_aromatic_linkinvent_7_9_3/rearranged_h_0113.sdf

> <i_m_source_file_index>
66

> <r_mmod_Potential_Energy-OPLS-2005>
898.632629394531

> <r_mmod_Stretch_Energy-OPLS-2005>
333.949096679688

> <r_mmod_Bend_Energy-OPLS-2005>
418.562530517578

> <r_mmod_Torsional_Energy-OPLS-2005>
358.500030517578

> <r_mmod_Improper_Torsional_Energy-OPLS-2005>
5.481116771698

> <r_mmod_Van_der_Waal_Energy-OPLS-2005>
121.10179901123

> <r_mmod_Electrostatic_Energy-OPLS-2005>
-354.073760986328

> <r_mmod_Solvation_Energy-OPLS-2005>
-202.950820922852

> <b_mmod_Minimization_Converged-OPLS-2005>
0

> <r_mmod_RMS_Derivative-OPLS-2005>
6.03553104400635

$$$$
68
                    3D
 Structure written by MMmdl.
159168  0  0  1  0            999 V2000
  -30.4271  -15.2638   20.4017 C   0  0  0  0  0  0
  -30.4363  -12.8181   19.5132 C   0  0  0  0  0  0
  -29.5401  -12.5914   18.2731 C   0  0  0  0  0  0
  -28.0818  -12.3220   18.6932 C   0  0  0  0  0  0
  -27.6078  -13.2792   19.8165 C   0  0  2  0  0  0
  -28.6423  -13.4419   20.9480 C   0  0  0  0  0  0
  -25.2395  -13.8238   20.5769 C   0  0  0  0  0  0
  -24.1750  -13.0417   20.9277 C   0  0  0  0  0  0
  -24.6423  -11.6909   20.8741 C   0  0  0  0  0  0
  -23.9118  -10.4288   21.0402 C   0  0  0  0  0  0
  -24.3653   -9.4192   21.9182 C   0  0  0  0  0  0
  -23.6326   -8.2223   22.0742 C   0  0  0  0  0  0
  -22.4304   -8.0284   21.3535 C   0  0  0  0  0  0
  -21.9957   -9.0260   20.4637 C   0  0  0  0  0  0
  -22.7292  -10.2132   20.3056 C   0  0  0  0  0  0
  -21.6869   -6.0750   22.5288 C   0  0  0  0  0  0
  -21.4009   -6.5638   23.8221 C   0  0  0  0  0  0
  -21.3659   -5.6791   24.9179 C   0  0  0  0  0  0
  -21.6051   -4.3057   24.7225 C   0  0  0  0  0  0
  -21.8808   -3.8153   23.4339 C   0  0  0  0  0  0
  -21.9190   -4.6978   22.3405 C   0  0  0  0  0  0
  -22.7768  -13.5174   21.1909 C   0  0  0  0  0  0
  -22.1663   -4.2169   21.0983 F   0  0  0  0  0  0
  -21.5633   -3.4533   25.7727 F   0  0  0  0  0  0
  -29.8622  -13.9621   20.3112 N   0  0  0  0  0  0
  -26.2804  -12.9512   20.3178 N   0  0  0  0  0  0
  -25.9356  -11.6596   20.5671 N   0  0  0  0  0  0
  -22.0422  -12.8158   22.0463 N   0  0  0  0  0  0
  -25.3971  -15.2002   20.4271 N   0  0  0  0  0  0
  -31.6562  -15.2558   20.2458 O   0  0  0  0  0  0
  -21.6638   -6.8898   21.4254 O   0  0  0  0  0  0
  -22.3425  -14.5471   20.6746 O   0  0  0  0  0  0
  -24.6659  -31.8236   23.1652 C   0  0  0  0  0  0
  -25.9337  -32.4597   23.8146 C   0  0  1  0  0  0
  -27.2325  -26.9262   20.1905 C   0  0  0  0  0  0
  -25.5976  -33.8414   24.2047 N   0  0  0  0  0  0
  -23.4793  -30.4292   21.5165 C   0  0  2  0  0  0
  -24.9364  -28.8132   20.1135 C   0  0  0  0  0  0
  -22.7690  -29.4434   22.4793 C   0  0  0  0  0  0
  -18.0324  -28.1392   22.8484 C   0  0  0  0  0  0
  -24.1477  -36.7222   23.2647 C   0  0  0  0  0  0
  -26.0480  -30.6322   21.3947 C   0  0  0  0  0  0
  -26.1215  -29.2194   20.7419 C   0  0  0  0  0  0
  -27.2626  -28.2991   20.7500 C   0  0  0  0  0  0
  -26.0193  -26.6733   19.5099 C   0  0  0  0  0  0
  -24.9131  -27.5623   19.4742 C   0  0  0  0  0  0
  -23.7225  -29.7395   20.1457 C   0  0  0  0  0  0
  -25.4116  -36.2976   24.0310 C   0  0  1  0  0  0
  -20.5939  -28.3749   23.1187 C   0  0  2  0  0  0
  -20.6780  -26.9431   22.5400 C   0  0  0  0  0  0
  -19.5746  -26.6364   21.5212 C   0  0  0  0  0  0
  -18.1936  -26.7924   22.1637 C   0  0  0  0  0  0
  -19.1587  -28.8896   23.2815 C   0  0  0  0  0  0
  -18.9506  -30.1487   23.8836 C   0  0  0  0  0  0
  -17.6497  -30.6580   24.0559 C   0  0  0  0  0  0
  -25.9106  -34.9369   23.5001 C   0  0  0  0  0  0
  -16.5384  -29.9073   23.6329 C   0  0  0  0  0  0
  -16.7315  -28.6491   23.0361 C   0  0  0  0  0  0
  -26.4550  -31.6539   25.0687 C   0  0  0  0  0  0
  -25.3644  -31.3854   26.1332 C   0  0  0  0  0  0
  -27.0441  -30.2890   24.6446 C   0  0  0  0  0  0
  -27.6022  -32.4364   25.7504 C   0  0  0  0  0  0
  -27.5564  -37.1756   24.8460 C   0  0  0  0  0  0
  -21.4351  -29.3046   22.3561 N   0  0  0  0  0  0
  -26.4252  -37.3717   23.9438 N   0  0  0  0  0  0
  -24.7518  -30.9880   22.0788 N   0  0  0  0  0  0
  -23.4248  -28.8028   23.3054 O   0  0  0  0  0  0
  -28.2472  -25.8295   20.2553 O   0  0  0  0  0  0
  -26.5709  -34.8908   22.4594 O   0  0  0  0  0  0
  -23.5719  -32.1247   23.6700 O   0  0  0  0  0  0
  -31.7478  -19.0772   22.0854 C   0  0  0  0  0  0
  -31.8866  -19.9754   21.0232 C   0  0  0  0  0  0
  -30.7287  -18.1068   22.0324 C   0  0  0  0  0  0
  -29.9032  -18.0790   20.8698 C   0  0  0  0  0  0
  -29.7484  -19.5172   20.2414 C   0  0  0  0  0  0
  -30.6313  -18.1951   25.5585 C   0  0  0  0  0  0
  -30.7862  -16.7070   25.7348 C   0  0  0  0  0  0
  -31.2856  -17.3727   24.4662 C   0  0  0  0  0  0
  -30.5872  -17.0569   23.1476 C   0  0  0  0  0  0
  -28.7033  -20.9040   20.4458 C   0  0  0  0  0  0
  -29.0116  -22.6899   20.2777 C   0  0  0  0  0  0
  -27.9877  -24.1912   20.2596 C   0  0  0  0  0  0
  -30.9219  -20.1712   20.1067 N   0  0  0  0  0  0
  -29.6632  -16.5463   20.3998 N   0  0  0  0  0  0
  -31.4573  -13.0333   19.1933 H   0  0  0  0  0  0
  -30.4982  -11.9087   20.1124 H   0  0  0  0  0  0
  -29.9215  -11.7643   17.6735 H   0  0  0  0  0  0
  -29.5797  -13.4774   17.6378 H   0  0  0  0  0  0
  -28.0244  -11.2925   19.0456 H   0  0  0  0  0  0
  -27.4189  -12.3827   17.8300 H   0  0  0  0  0  0
  -27.5197  -14.2545   19.3351 H   0  0  0  0  0  0
  -28.8180  -12.5028   21.4755 H   0  0  0  0  0  0
  -28.2825  -14.1571   21.6891 H   0  0  0  0  0  0
  -25.2800   -9.5655   22.4743 H   0  0  0  0  0  0
  -24.0042   -7.4601   22.7450 H   0  0  0  0  0  0
  -21.0889   -8.8797   19.8942 H   0  0  0  0  0  0
  -22.3776  -10.9670   19.6161 H   0  0  0  0  0  0
  -21.1995   -7.6144   23.9734 H   0  0  0  0  0  0
  -21.1502   -6.0513   25.9091 H   0  0  0  0  0  0
  -22.0593   -2.7618   23.2826 H   0  0  0  0  0  0
  -22.4051  -11.9852   22.4904 H   0  0  0  0  0  0
  -21.1021  -13.1125   22.2614 H   0  0  0  0  0  0
  -24.6249  -15.8420   20.5753 H   0  0  0  0  0  0
  -26.2395  -15.6617   20.1093 H   0  0  0  0  0  0
  -26.7424  -32.5141   23.0881 H   0  0  0  0  0  0
  -25.0048  -33.9475   25.0149 H   0  0  0  0  0  0
  -22.7940  -31.2618   21.3380 H   0  0  0  0  0  0
  -23.3750  -35.9532   23.3248 H   0  0  0  0  0  0
  -24.3560  -36.8944   22.2073 H   0  0  0  0  0  0
  -23.7229  -37.6391   23.6745 H   0  0  0  0  0  0
  -26.2266  -31.3746   20.6143 H   0  0  0  0  0  0
  -26.9071  -30.6899   22.0527 H   0  0  0  0  0  0
  -28.1616  -28.6145   21.2609 H   0  0  0  0  0  0
  -25.8968  -25.7219   19.0121 H   0  0  0  0  0  0
  -24.0154  -27.2473   18.9592 H   0  0  0  0  0  0
  -23.8889  -30.5048   19.3872 H   0  0  0  0  0  0
  -22.8333  -29.1974   19.8187 H   0  0  0  0  0  0
  -25.1299  -36.1741   25.0795 H   0  0  0  0  0  0
  -21.0020  -28.3336   24.1318 H   0  0  0  0  0  0
  -20.5614  -26.2391   23.3661 H   0  0  0  0  0  0
  -21.6647  -26.7375   22.1236 H   0  0  0  0  0  0
  -19.6900  -25.6259   21.1292 H   0  0  0  0  0  0
  -19.6648  -27.3132   20.6700 H   0  0  0  0  0  0
  -17.4206  -26.6690   21.4048 H   0  0  0  0  0  0
  -18.0329  -26.0064   22.9025 H   0  0  0  0  0  0
  -19.7984  -30.7310   24.2185 H   0  0  0  0  0  0
  -17.5050  -31.6249   24.5183 H   0  0  0  0  0  0
  -15.5380  -30.2959   23.7643 H   0  0  0  0  0  0
  -15.8727  -28.0764   22.7107 H   0  0  0  0  0  0
  -24.5781  -30.7254   25.7644 H   0  0  0  0  0  0
  -24.8881  -32.3096   26.4615 H   0  0  0  0  0  0
  -25.7821  -30.9098   27.0216 H   0  0  0  0  0  0
  -26.3101  -29.6566   24.1426 H   0  0  0  0  0  0
  -27.3932  -29.7264   25.5118 H   0  0  0  0  0  0
  -27.9063  -30.4062   23.9879 H   0  0  0  0  0  0
  -27.2549  -33.3706   26.1935 H   0  0  0  0  0  0
  -28.3893  -32.6876   25.0380 H   0  0  0  0  0  0
  -28.0612  -31.8608   26.5555 H   0  0  0  0  0  0
  -28.2521  -38.0099   24.7523 H   0  0  0  0  0  0
  -28.1102  -36.2630   24.6211 H   0  0  0  0  0  0
  -27.2307  -37.1312   25.8864 H   0  0  0  0  0  0
  -20.9625  -29.8830   21.6747 H   0  0  0  0  0  0
  -26.0096  -38.2776   24.1421 H   0  0  0  0  0  0
  -32.4932  -19.0873   22.8675 H   0  0  0  0  0  0
  -32.7474  -20.6244   20.9591 H   0  0  0  0  0  0
  -31.2641  -18.8257   26.1830 H   0  0  0  0  0  0
  -29.6299  -18.5825   25.3773 H   0  0  0  0  0  0
  -29.8863  -16.0996   25.6728 H   0  0  0  0  0  0
  -31.5287  -16.3570   26.4518 H   0  0  0  0  0  0
  -32.3685  -17.4477   24.3862 H   0  0  0  0  0  0
  -30.9684  -16.0902   22.8317 H   0  0  0  0  0  0
  -29.5232  -16.9157   23.3396 H   0  0  0  0  0  0
  -28.2540  -20.7631   21.4273 H   0  0  0  0  0  0
  -27.8876  -20.6979   19.7550 H   0  0  0  0  0  0
  -29.5653  -22.7608   19.3425 H   0  0  0  0  0  0
  -29.7717  -22.8941   21.0328 H   0  0  0  0  0  0
  -27.3152  -24.0701   21.1091 H   0  0  0  0  0  0
  -27.3393  -24.0430   19.3991 H   0  0  0  0  0  0
  -28.7102  -16.3800   20.1100 H   0  0  0  0  0  0
  1 25  1  0  0  0
  1 30  2  0  0  0
  1 84  1  0  0  0
  2  3  1  0  0  0
  2 25  1  0  0  0
  2 85  1  0  0  0
  2 86  1  0  0  0
  3  4  1  0  0  0
  3 87  1  0  0  0
  3 88  1  0  0  0
  4  5  1  0  0  0
  4 89  1  0  0  0
  4 90  1  0  0  0
  5  6  1  0  0  0
  5 26  1  0  0  0
  5 91  1  0  0  0
  6 25  1  0  0  0
  6 92  1  0  0  0
  6 93  1  0  0  0
  7  8  2  0  0  0
  7 26  1  0  0  0
  7 29  1  0  0  0
  8  9  1  0  0  0
  8 22  1  0  0  0
  9 10  1  0  0  0
  9 27  2  0  0  0
 10 11  2  0  0  0
 10 15  1  0  0  0
 11 12  1  0  0  0
 11 94  1  0  0  0
 12 13  2  0  0  0
 12 95  1  0  0  0
 13 14  1  0  0  0
 13 31  1  0  0  0
 14 15  2  0  0  0
 14 96  1  0  0  0
 15 97  1  0  0  0
 16 17  2  0  0  0
 16 21  1  0  0  0
 16 31  1  0  0  0
 17 18  1  0  0  0
 17 98  1  0  0  0
 18 19  2  0  0  0
 18 99  1  0  0  0
 19 20  1  0  0  0
 19 24  1  0  0  0
 20 21  2  0  0  0
 20100  1  0  0  0
 21 23  1  0  0  0
 22 28  1  0  0  0
 22 32  2  0  0  0
 26 27  1  0  0  0
 28101  1  0  0  0
 28102  1  0  0  0
 29103  1  0  0  0
 29104  1  0  0  0
 33 34  1  0  0  0
 33 66  1  0  0  0
 33 70  2  0  0  0
 34 36  1  0  0  0
 34 59  1  0  0  0
 34105  1  0  0  0
 35 44  2  0  0  0
 35 45  1  0  0  0
 35 68  1  0  0  0
 36 56  1  0  0  0
 36106  1  0  0  0
 37 39  1  0  0  0
 37 47  1  0  0  0
 37 66  1  0  0  0
 37107  1  0  0  0
 38 43  2  0  0  0
 38 46  1  0  0  0
 38 47  1  0  0  0
 39 64  1  0  0  0
 39 67  2  0  0  0
 40 52  1  0  0  0
 40 53  2  0  0  0
 40 58  1  0  0  0
 41108  1  0  0  0
 41109  1  0  0  0
 41110  1  0  0  0
 41 48  1  0  0  0
 42 43  1  0  0  0
 42 66  1  0  0  0
 42111  1  0  0  0
 42112  1  0  0  0
 43 44  1  0  0  0
 44113  1  0  0  0
 45 46  2  0  0  0
 45114  1  0  0  0
 46115  1  0  0  0
 47116  1  0  0  0
 47117  1  0  0  0
 48 56  1  0  0  0
 48 65  1  0  0  0
 48118  1  0  0  0
 49 50  1  0  0  0
 49 53  1  0  0  0
 49 64  1  0  0  0
 49119  1  0  0  0
 50 51  1  0  0  0
 50120  1  0  0  0
 50121  1  0  0  0
 51 52  1  0  0  0
 51122  1  0  0  0
 51123  1  0  0  0
 52124  1  0  0  0
 52125  1  0  0  0
 53 54  1  0  0  0
 54 55  2  0  0  0
 54126  1  0  0  0
 55 57  1  0  0  0
 55127  1  0  0  0
 56 69  2  0  0  0
 57 58  2  0  0  0
 57128  1  0  0  0
 58129  1  0  0  0
 59 60  1  0  0  0
 59 61  1  0  0  0
 59 62  1  0  0  0
 60130  1  0  0  0
 60131  1  0  0  0
 60132  1  0  0  0
 61133  1  0  0  0
 61134  1  0  0  0
 61135  1  0  0  0
 62136  1  0  0  0
 62137  1  0  0  0
 62138  1  0  0  0
 63 65  1  0  0  0
 63139  1  0  0  0
 63140  1  0  0  0
 63141  1  0  0  0
 64142  1  0  0  0
 65143  1  0  0  0
 68 82  1  0  0  0
 71 72  2  0  0  0
 71 73  1  0  0  0
 71144  1  0  0  0
 72 83  1  0  0  0
 72145  1  0  0  0
 73 74  2  0  0  0
 73 79  1  0  0  0
 74 75  1  0  0  0
 74 84  1  0  0  0
 75 80  1  0  0  0
 75 83  2  0  0  0
 76 77  1  0  0  0
 76 78  1  0  0  0
 76146  1  0  0  0
 76147  1  0  0  0
 77 78  1  0  0  0
 77148  1  0  0  0
 77149  1  0  0  0
 78 79  1  0  0  0
 78150  1  0  0  0
 79151  1  0  0  0
 79152  1  0  0  0
 80 81  1  0  0  0
 80153  1  0  0  0
 80154  1  0  0  0
 81 82  1  0  0  0
 81155  1  0  0  0
 81156  1  0  0  0
 82157  1  0  0  0
 82158  1  0  0  0
 84159  1  0  0  0
M  ISO  4   1 100  68 101  82 101  84 100
M  END
> <chiral flag>
0

> <version>
0

> <s_m_source_file>
/data/baiqing/PycharmProjects/Reinvent-master-3.2/result/LINK_invent/BTK/process_docking_weight1_custom_sum_contain_oxygen_bond_distance_aromatic_linkinvent_7_9_3/rearranged_h_0113.sdf

> <i_m_source_file_index>
67

> <r_mmod_Potential_Energy-OPLS-2005>
1423.60986328125

> <r_mmod_Stretch_Energy-OPLS-2005>
644.934753417969

> <r_mmod_Bend_Energy-OPLS-2005>
463.009368896484

> <r_mmod_Torsional_Energy-OPLS-2005>
459.479217529297

> <r_mmod_Improper_Torsional_Energy-OPLS-2005>
17.0090713500977

> <r_mmod_Van_der_Waal_Energy-OPLS-2005>
133.249282836914

> <r_mmod_Electrostatic_Energy-OPLS-2005>
-526.309265136719

> <r_mmod_Solvation_Energy-OPLS-2005>
-226.608657836914

> <b_mmod_Minimization_Converged-OPLS-2005>
0

> <r_mmod_RMS_Derivative-OPLS-2005>
3.85916924476624

$$$$
69
                    3D
 Structure written by MMmdl.
163170  0  0  1  0            999 V2000
  -30.7113  -14.4385   20.6285 C   0  0  0  0  0  0
  -30.4383  -12.3070   19.4166 C   0  0  0  0  0  0
  -29.5104  -12.5210   18.2026 C   0  0  0  0  0  0
  -28.0276  -12.3749   18.6039 C   0  0  0  0  0  0
  -27.6701  -13.1971   19.8721 C   0  0  2  0  0  0
  -28.7069  -12.9524   20.9917 C   0  0  0  0  0  0
  -25.2651  -13.8130   20.5620 C   0  0  0  0  0  0
  -24.1871  -13.0437   20.9098 C   0  0  0  0  0  0
  -24.6397  -11.6891   20.8681 C   0  0  0  0  0  0
  -23.9038  -10.4309   21.0364 C   0  0  0  0  0  0
  -24.3592   -9.4241   21.9165 C   0  0  0  0  0  0
  -23.6286   -8.2271   22.0751 C   0  0  0  0  0  0
  -22.4265   -8.0274   21.3535 C   0  0  0  0  0  0
  -21.9883   -9.0236   20.4637 C   0  0  0  0  0  0
  -22.7196  -10.2138   20.3040 C   0  0  0  0  0  0
  -21.6865   -6.0722   22.5263 C   0  0  0  0  0  0
  -21.4020   -6.5627   23.8189 C   0  0  0  0  0  0
  -21.3666   -5.6778   24.9152 C   0  0  0  0  0  0
  -21.6038   -4.3039   24.7213 C   0  0  0  0  0  0
  -21.8833   -3.8129   23.4329 C   0  0  0  0  0  0
  -21.9214   -4.6945   22.3384 C   0  0  0  0  0  0
  -22.7906  -13.5275   21.1759 C   0  0  0  0  0  0
  -22.1666   -4.2122   21.0957 F   0  0  0  0  0  0
  -21.5645   -3.4524   25.7723 F   0  0  0  0  0  0
  -30.0451  -13.2661   20.4582 N   0  0  0  0  0  0
  -26.3062  -12.9275   20.3293 N   0  0  0  0  0  0
  -25.9313  -11.6450   20.5693 N   0  0  0  0  0  0
  -22.0503  -12.8318   22.0321 N   0  0  0  0  0  0
  -25.4443  -15.1843   20.4066 N   0  0  0  0  0  0
  -31.7939  -14.6912   20.0970 O   0  0  0  0  0  0
  -21.6635   -6.8861   21.4224 O   0  0  0  0  0  0
  -22.3604  -14.5573   20.6574 O   0  0  0  0  0  0
  -24.6116  -31.8691   23.2134 C   0  0  0  0  0  0
  -25.9040  -32.4833   23.8411 C   0  0  1  0  0  0
  -27.2305  -27.4630   20.0838 C   0  0  0  0  0  0
  -25.5918  -33.8628   24.2358 N   0  0  0  0  0  0
  -23.4002  -30.4960   21.5495 C   0  0  2  0  0  0
  -24.8469  -28.9682   20.1097 C   0  0  0  0  0  0
  -22.7403  -29.4683   22.4978 C   0  0  0  0  0  0
  -18.0282  -28.1395   22.8500 C   0  0  0  0  0  0
  -24.1482  -36.7325   23.2633 C   0  0  0  0  0  0
  -25.9255  -30.8432   21.3648 C   0  0  0  0  0  0
  -26.0023  -29.4777   20.7184 C   0  0  0  0  0  0
  -27.1970  -28.7252   20.7171 C   0  0  0  0  0  0
  -26.0750  -26.9809   19.4422 C   0  0  0  0  0  0
  -24.8742  -27.7142   19.4752 C   0  0  0  0  0  0
  -23.6065  -29.8281   20.1635 C   0  0  0  0  0  0
  -25.4097  -36.3113   24.0333 C   0  0  1  0  0  0
  -20.5881  -28.3675   23.1320 C   0  0  2  0  0  0
  -20.6774  -26.9414   22.5419 C   0  0  0  0  0  0
  -19.5748  -26.6392   21.5224 C   0  0  0  0  0  0
  -18.1925  -26.7946   22.1628 C   0  0  0  0  0  0
  -19.1527  -28.8843   23.2912 C   0  0  0  0  0  0
  -18.9468  -30.1454   23.8919 C   0  0  0  0  0  0
  -17.6460  -30.6589   24.0581 C   0  0  0  0  0  0
  -25.9017  -34.9487   23.5126 C   0  0  0  0  0  0
  -16.5353  -29.9104   23.6333 C   0  0  0  0  0  0
  -16.7275  -28.6519   23.0335 C   0  0  0  0  0  0
  -26.4472  -31.6609   25.0733 C   0  0  0  0  0  0
  -25.3760  -31.3718   26.1496 C   0  0  0  0  0  0
  -27.0298  -30.3055   24.6110 C   0  0  0  0  0  0
  -27.6063  -32.4312   25.7504 C   0  0  0  0  0  0
  -27.5575  -37.1802   24.8463 C   0  0  0  0  0  0
  -21.4135  -29.3051   22.3716 N   0  0  0  0  0  0
  -26.4293  -37.3797   23.9407 N   0  0  0  0  0  0
  -24.6637  -31.0830   22.1010 N   0  0  0  0  0  0
  -23.4178  -28.8214   23.2996 O   0  0  0  0  0  0
  -28.3692  -26.6982   20.0389 O   0  0  0  0  0  0
  -26.5558  -34.8924   22.4677 O   0  0  0  0  0  0
  -23.5322  -32.1445   23.7527 O   0  0  0  0  0  0
  -29.2853  -22.2737   20.5050 C   0  0  0  0  0  0
  -26.9474  -24.3007   21.4098 C   0  0  0  0  0  0
  -29.9470  -17.2288   22.9138 C   0  0  0  0  0  0
  -29.7294  -21.3987   19.3268 C   0  0  0  0  0  0
  -29.2079  -23.7946   20.2689 C   0  0  0  0  0  0
  -29.3052  -19.9042   19.4025 C   0  0  0  0  0  0
  -29.6974  -17.6412   20.3792 C   0  0  0  0  0  0
  -28.7606  -26.1242   21.2856 C   0  0  0  0  0  0
  -28.4615  -24.6039   21.3646 C   0  0  1  0  0  0
  -30.3711  -16.7904   21.4966 C   0  0  2  0  0  0
  -30.0394  -15.3674   21.3322 N   0  0  0  0  0  0
  -30.0079  -19.0971   20.4373 N   0  3  0  0  0  0
  -29.0551  -21.7695   21.6063 O   0  0  0  0  0  0
  -31.4836  -12.4182   19.1202 H   0  0  0  0  0  0
  -30.3419  -11.2897   19.7982 H   0  0  0  0  0  0
  -29.7576  -11.8117   17.4108 H   0  0  0  0  0  0
  -29.6801  -13.5133   17.7825 H   0  0  0  0  0  0
  -27.8373  -11.3165   18.7855 H   0  0  0  0  0  0
  -27.3872  -12.6581   17.7676 H   0  0  0  0  0  0
  -27.7240  -14.2488   19.5914 H   0  0  0  0  0  0
  -28.6851  -11.9090   21.3072 H   0  0  0  0  0  0
  -28.4531  -13.5258   21.8823 H   0  0  0  0  0  0
  -25.2758   -9.5736   22.4704 H   0  0  0  0  0  0
  -23.9992   -7.4703   22.7503 H   0  0  0  0  0  0
  -21.0810   -8.8747   19.8986 H   0  0  0  0  0  0
  -22.3636  -10.9649   19.6125 H   0  0  0  0  0  0
  -21.1978   -7.6128   23.9678 H   0  0  0  0  0  0
  -21.1486   -6.0498   25.9049 H   0  0  0  0  0  0
  -22.0612   -2.7587   23.2825 H   0  0  0  0  0  0
  -22.4066  -11.9995   22.4786 H   0  0  0  0  0  0
  -21.1096  -13.1380   22.2416 H   0  0  0  0  0  0
  -24.6822  -15.8459   20.5111 H   0  0  0  0  0  0
  -26.2986  -15.6214   20.0875 H   0  0  0  0  0  0
  -26.7137  -32.5549   23.1204 H   0  0  0  0  0  0
  -25.0151  -33.9821   25.0555 H   0  0  0  0  0  0
  -22.6891  -31.3126   21.4100 H   0  0  0  0  0  0
  -23.3739  -35.9671   23.3295 H   0  0  0  0  0  0
  -24.3605  -36.8932   22.2058 H   0  0  0  0  0  0
  -23.7247  -37.6530   23.6645 H   0  0  0  0  0  0
  -26.0332  -31.6076   20.5938 H   0  0  0  0  0  0
  -26.8181  -30.9016   21.9756 H   0  0  0  0  0  0
  -28.0909  -29.1114   21.1881 H   0  0  0  0  0  0
  -26.1049  -26.0355   18.9211 H   0  0  0  0  0  0
  -23.9926  -27.3179   18.9883 H   0  0  0  0  0  0
  -23.7075  -30.6026   19.4017 H   0  0  0  0  0  0
  -22.7343  -29.2403   19.8687 H   0  0  0  0  0  0
  -25.1272  -36.1976   25.0829 H   0  0  0  0  0  0
  -20.9990  -28.3240   24.1432 H   0  0  0  0  0  0
  -20.5693  -26.2278   23.3601 H   0  0  0  0  0  0
  -21.6635  -26.7461   22.1194 H   0  0  0  0  0  0
  -19.6890  -25.6303   21.1238 H   0  0  0  0  0  0
  -19.6682  -27.3220   20.6768 H   0  0  0  0  0  0
  -17.4196  -26.6723   21.4028 H   0  0  0  0  0  0
  -18.0310  -26.0100   22.9028 H   0  0  0  0  0  0
  -19.7932  -30.7278   24.2279 H   0  0  0  0  0  0
  -17.5013  -31.6267   24.5183 H   0  0  0  0  0  0
  -15.5351  -30.2995   23.7639 H   0  0  0  0  0  0
  -15.8690  -28.0849   22.7012 H   0  0  0  0  0  0
  -24.5935  -30.7062   25.7840 H   0  0  0  0  0  0
  -24.8953  -32.2875   26.4945 H   0  0  0  0  0  0
  -25.8122  -30.8890   27.0254 H   0  0  0  0  0  0
  -26.2837  -29.6824   24.1169 H   0  0  0  0  0  0
  -27.4078  -29.7280   25.4559 H   0  0  0  0  0  0
  -27.8675  -30.4378   23.9264 H   0  0  0  0  0  0
  -27.2706  -33.3605   26.2124 H   0  0  0  0  0  0
  -28.3868  -32.6872   25.0327 H   0  0  0  0  0  0
  -28.0756  -31.8414   26.5391 H   0  0  0  0  0  0
  -28.2574  -38.0108   24.7502 H   0  0  0  0  0  0
  -28.1067  -36.2632   24.6273 H   0  0  0  0  0  0
  -27.2299  -37.1448   25.8867 H   0  0  0  0  0  0
  -20.9260  -29.8783   21.6973 H   0  0  0  0  0  0
  -26.0165  -38.2869   24.1406 H   0  0  0  0  0  0
  -26.7477  -23.2797   21.7346 H   0  0  0  0  0  0
  -26.4846  -24.4276   20.4321 H   0  0  0  0  0  0
  -26.4334  -24.9613   22.1069 H   0  0  0  0  0  0
  -30.2279  -18.2617   23.1243 H   0  0  0  0  0  0
  -30.4407  -16.6110   23.6669 H   0  0  0  0  0  0
  -28.8693  -17.1446   23.0697 H   0  0  0  0  0  0
  -30.8110  -21.4845   19.2178 H   0  0  0  0  0  0
  -29.2961  -21.8350   18.4255 H   0  0  0  0  0  0
  -28.7540  -23.9831   19.2956 H   0  0  0  0  0  0
  -30.2346  -24.1550   20.1973 H   0  0  0  0  0  0
  -29.4852  -19.4515   18.4258 H   0  0  0  0  0  0
  -28.2287  -19.8401   19.5641 H   0  0  0  0  0  0
  -28.6157  -17.5069   20.4214 H   0  0  0  0  0  0
  -30.0109  -17.2656   19.4031 H   0  0  0  0  0  0
  -29.8321  -26.2957   21.4044 H   0  0  0  0  0  0
  -28.2932  -26.6330   22.1322 H   0  0  0  0  0  0
  -28.8644  -24.2926   22.3301 H   0  0  0  0  0  0
  -31.4555  -16.9034   21.4240 H   0  0  0  0  0  0
  -29.1604  -15.0572   21.7150 H   0  0  0  0  0  0
  -29.7509  -19.4615   21.3424 H   0  0  0  0  0  0
  -31.0023  -19.2091   20.3274 H   0  0  0  0  0  0
  1 25  1  0  0  0
  1 30  2  0  0  0
  1 81  1  0  0  0
  2  3  1  0  0  0
  2 25  1  0  0  0
  2 84  1  0  0  0
  2 85  1  0  0  0
  3  4  1  0  0  0
  3 86  1  0  0  0
  3 87  1  0  0  0
  4  5  1  0  0  0
  4 88  1  0  0  0
  4 89  1  0  0  0
  5  6  1  0  0  0
  5 26  1  0  0  0
  5 90  1  0  0  0
  6 25  1  0  0  0
  6 91  1  0  0  0
  6 92  1  0  0  0
  7  8  2  0  0  0
  7 26  1  0  0  0
  7 29  1  0  0  0
  8  9  1  0  0  0
  8 22  1  0  0  0
  9 10  1  0  0  0
  9 27  2  0  0  0
 10 11  2  0  0  0
 10 15  1  0  0  0
 11 12  1  0  0  0
 11 93  1  0  0  0
 12 13  2  0  0  0
 12 94  1  0  0  0
 13 14  1  0  0  0
 13 31  1  0  0  0
 14 15  2  0  0  0
 14 95  1  0  0  0
 15 96  1  0  0  0
 16 17  2  0  0  0
 16 21  1  0  0  0
 16 31  1  0  0  0
 17 18  1  0  0  0
 17 97  1  0  0  0
 18 19  2  0  0  0
 18 98  1  0  0  0
 19 20  1  0  0  0
 19 24  1  0  0  0
 20 21  2  0  0  0
 20 99  1  0  0  0
 21 23  1  0  0  0
 22 28  1  0  0  0
 22 32  2  0  0  0
 26 27  1  0  0  0
 28100  1  0  0  0
 28101  1  0  0  0
 29102  1  0  0  0
 29103  1  0  0  0
 33 34  1  0  0  0
 33 66  1  0  0  0
 33 70  2  0  0  0
 34 36  1  0  0  0
 34 59  1  0  0  0
 34104  1  0  0  0
 35 44  2  0  0  0
 35 45  1  0  0  0
 35 68  1  0  0  0
 36 56  1  0  0  0
 36105  1  0  0  0
 37 39  1  0  0  0
 37 47  1  0  0  0
 37 66  1  0  0  0
 37106  1  0  0  0
 38 43  2  0  0  0
 38 46  1  0  0  0
 38 47  1  0  0  0
 39 64  1  0  0  0
 39 67  2  0  0  0
 40 52  1  0  0  0
 40 53  2  0  0  0
 40 58  1  0  0  0
 41107  1  0  0  0
 41108  1  0  0  0
 41109  1  0  0  0
 41 48  1  0  0  0
 42 43  1  0  0  0
 42 66  1  0  0  0
 42110  1  0  0  0
 42111  1  0  0  0
 43 44  1  0  0  0
 44112  1  0  0  0
 45 46  2  0  0  0
 45113  1  0  0  0
 46114  1  0  0  0
 47115  1  0  0  0
 47116  1  0  0  0
 48 56  1  0  0  0
 48 65  1  0  0  0
 48117  1  0  0  0
 49 50  1  0  0  0
 49 53  1  0  0  0
 49 64  1  0  0  0
 49118  1  0  0  0
 50 51  1  0  0  0
 50119  1  0  0  0
 50120  1  0  0  0
 51 52  1  0  0  0
 51121  1  0  0  0
 51122  1  0  0  0
 52123  1  0  0  0
 52124  1  0  0  0
 53 54  1  0  0  0
 54 55  2  0  0  0
 54125  1  0  0  0
 55 57  1  0  0  0
 55126  1  0  0  0
 56 69  2  0  0  0
 57 58  2  0  0  0
 57127  1  0  0  0
 58128  1  0  0  0
 59 60  1  0  0  0
 59 61  1  0  0  0
 59 62  1  0  0  0
 60129  1  0  0  0
 60130  1  0  0  0
 60131  1  0  0  0
 61132  1  0  0  0
 61133  1  0  0  0
 61134  1  0  0  0
 62135  1  0  0  0
 62136  1  0  0  0
 62137  1  0  0  0
 63 65  1  0  0  0
 63138  1  0  0  0
 63139  1  0  0  0
 63140  1  0  0  0
 64141  1  0  0  0
 65142  1  0  0  0
 68 78  1  0  0  0
 71 74  1  0  0  0
 71 75  1  0  0  0
 71 83  2  0  0  0
 72143  1  0  0  0
 72144  1  0  0  0
 72145  1  0  0  0
 72 79  1  0  0  0
 73146  1  0  0  0
 73147  1  0  0  0
 73148  1  0  0  0
 73 80  1  0  0  0
 74 76  1  0  0  0
 74149  1  0  0  0
 74150  1  0  0  0
 75 79  1  0  0  0
 75151  1  0  0  0
 75152  1  0  0  0
 76 82  1  0  0  0
 76153  1  0  0  0
 76154  1  0  0  0
 77 80  1  0  0  0
 77 82  1  0  0  0
 77155  1  0  0  0
 77156  1  0  0  0
 78 79  1  0  0  0
 78157  1  0  0  0
 78158  1  0  0  0
 79159  1  0  0  0
 80 81  1  0  0  0
 80160  1  0  0  0
 81161  1  0  0  0
 82162  1  0  0  0
 82163  1  0  0  0
M  CHG  1  82   1
M  ISO  4   1 100  68 101  78 101  81 100
M  END
> <chiral flag>
0

> <version>
0

> <s_m_source_file>
/data/baiqing/PycharmProjects/Reinvent-master-3.2/result/LINK_invent/BTK/process_docking_weight1_custom_sum_contain_oxygen_bond_distance_aromatic_linkinvent_7_9_3/rearranged_h_0113.sdf

> <i_m_source_file_index>
68

> <r_mmod_Potential_Energy-OPLS-2005>
-334.433288574219

> <r_mmod_Stretch_Energy-OPLS-2005>
35.1283531188965

> <r_mmod_Bend_Energy-OPLS-2005>
96.2797775268555

> <r_mmod_Torsional_Energy-OPLS-2005>
207.734466552734

> <r_mmod_Improper_Torsional_Energy-OPLS-2005>
3.08800458908081

> <r_mmod_Van_der_Waal_Energy-OPLS-2005>
126.662017822266

> <r_mmod_Electrostatic_Energy-OPLS-2005>
-356.901580810547

> <r_mmod_Solvation_Energy-OPLS-2005>
-456.006439208984

> <b_mmod_Minimization_Converged-OPLS-2005>
0

> <r_mmod_RMS_Derivative-OPLS-2005>
4.00794553756714

$$$$
70
                    3D
 Structure written by MMmdl.
158166  0  0  1  0            999 V2000
  -30.4274  -15.1965   20.3809 C   0  0  0  0  0  0
  -30.4476  -12.7557   19.5180 C   0  0  0  0  0  0
  -29.5349  -12.5675   18.2790 C   0  0  0  0  0  0
  -28.0751  -12.3119   18.6988 C   0  0  0  0  0  0
  -27.6187  -13.2663   19.8306 C   0  0  2  0  0  0
  -28.6570  -13.3809   20.9667 C   0  0  0  0  0  0
  -25.2406  -13.8233   20.5727 C   0  0  0  0  0  0
  -24.1754  -13.0431   20.9256 C   0  0  0  0  0  0
  -24.6397  -11.6924   20.8761 C   0  0  0  0  0  0
  -23.9084  -10.4285   21.0405 C   0  0  0  0  0  0
  -24.3630   -9.4200   21.9182 C   0  0  0  0  0  0
  -23.6300   -8.2238   22.0751 C   0  0  0  0  0  0
  -22.4283   -8.0276   21.3541 C   0  0  0  0  0  0
  -21.9920   -9.0252   20.4644 C   0  0  0  0  0  0
  -22.7252  -10.2130   20.3055 C   0  0  0  0  0  0
  -21.6855   -6.0734   22.5274 C   0  0  0  0  0  0
  -21.4014   -6.5636   23.8208 C   0  0  0  0  0  0
  -21.3661   -5.6790   24.9169 C   0  0  0  0  0  0
  -21.6046   -4.3054   24.7221 C   0  0  0  0  0  0
  -21.8819   -3.8145   23.4340 C   0  0  0  0  0  0
  -21.9192   -4.6962   22.3398 C   0  0  0  0  0  0
  -22.7771  -13.5186   21.1903 C   0  0  0  0  0  0
  -22.1662   -4.2145   21.0977 F   0  0  0  0  0  0
  -21.5630   -3.4537   25.7736 F   0  0  0  0  0  0
  -29.8992  -13.8796   20.3552 N   0  0  0  0  0  0
  -26.2837  -12.9491   20.3225 N   0  0  0  0  0  0
  -25.9332  -11.6604   20.5728 N   0  0  0  0  0  0
  -22.0430  -12.8174   22.0463 N   0  0  0  0  0  0
  -25.4021  -15.1965   20.4115 N   0  0  0  0  0  0
  -31.6412  -15.2477   20.1282 O   0  0  0  0  0  0
  -21.6643   -6.8877   21.4237 O   0  0  0  0  0  0
  -22.3449  -14.5490   20.6740 O   0  0  0  0  0  0
  -24.6588  -31.8265   23.1723 C   0  0  0  0  0  0
  -25.9287  -32.4607   23.8181 C   0  0  1  0  0  0
  -27.2181  -26.9662   20.1811 C   0  0  0  0  0  0
  -25.5967  -33.8418   24.2090 N   0  0  0  0  0  0
  -23.4727  -30.4379   21.5193 C   0  0  2  0  0  0
  -24.9256  -28.8314   20.1079 C   0  0  0  0  0  0
  -22.7656  -29.4451   22.4782 C   0  0  0  0  0  0
  -18.0317  -28.1421   22.8477 C   0  0  0  0  0  0
  -24.1471  -36.7187   23.2654 C   0  0  0  0  0  0
  -26.0384  -30.6452   21.3973 C   0  0  0  0  0  0
  -26.1060  -29.2387   20.7416 C   0  0  0  0  0  0
  -27.2467  -28.3253   20.7557 C   0  0  0  0  0  0
  -26.0124  -26.7017   19.4941 C   0  0  0  0  0  0
  -24.9020  -27.5830   19.4647 C   0  0  0  0  0  0
  -23.7099  -29.7545   20.1441 C   0  0  0  0  0  0
  -25.4119  -36.2975   24.0309 C   0  0  1  0  0  0
  -20.5945  -28.3751   23.1194 C   0  0  2  0  0  0
  -20.6788  -26.9432   22.5413 C   0  0  0  0  0  0
  -19.5761  -26.6389   21.5222 C   0  0  0  0  0  0
  -18.1941  -26.7958   22.1630 C   0  0  0  0  0  0
  -19.1582  -28.8908   23.2826 C   0  0  0  0  0  0
  -18.9499  -30.1501   23.8860 C   0  0  0  0  0  0
  -17.6493  -30.6612   24.0568 C   0  0  0  0  0  0
  -25.9092  -34.9361   23.5024 C   0  0  0  0  0  0
  -16.5377  -29.9102   23.6362 C   0  0  0  0  0  0
  -16.7304  -28.6522   23.0383 C   0  0  0  0  0  0
  -26.4549  -31.6553   25.0702 C   0  0  0  0  0  0
  -25.3697  -31.3791   26.1375 C   0  0  0  0  0  0
  -27.0454  -30.2936   24.6411 C   0  0  0  0  0  0
  -27.6043  -32.4367   25.7495 C   0  0  0  0  0  0
  -27.5553  -37.1750   24.8475 C   0  0  0  0  0  0
  -21.4329  -29.3036   22.3536 N   0  0  0  0  0  0
  -26.4255  -37.3719   23.9429 N   0  0  0  0  0  0
  -24.7443  -30.9965   22.0832 N   0  0  0  0  0  0
  -23.4220  -28.8032   23.3021 O   0  0  0  0  0  0
  -28.2342  -25.8937   20.2922 O   0  0  0  0  0  0
  -26.5700  -34.8893   22.4616 O   0  0  0  0  0  0
  -23.5669  -32.1214   23.6841 O   0  0  0  0  0  0
  -28.0748  -20.1546   20.8686 C   0  0  0  0  0  0
  -28.3001  -18.6947   20.8668 C   0  0  0  0  0  0
  -30.1756  -20.3798   20.0093 C   0  0  0  0  0  0
  -29.0138  -21.1670   20.4347 C   0  0  0  0  0  0
  -29.4991  -17.9865   20.4547 C   0  0  0  0  0  0
  -32.4667  -23.1817   22.4370 C   0  0  0  0  0  0
  -30.2656  -23.1074   23.6547 C   0  0  0  0  0  0
  -30.3288  -23.4044   21.0970 C   0  0  0  0  0  0
  -28.0948  -24.2892   19.9965 C   0  0  0  0  0  0
  -28.9178  -22.8898   20.7243 C   0  0  1  0  0  0
  -30.9926  -22.7618   22.3423 C   0  0  0  0  0  0
  -30.3966  -18.9644   20.0169 N   0  0  0  0  0  0
  -29.5699  -16.3822   20.5308 N   0  0  0  0  0  0
  -31.4667  -12.9622   19.1883 H   0  0  0  0  0  0
  -30.5092  -11.8330   20.0975 H   0  0  0  0  0  0
  -29.8958  -11.7434   17.6622 H   0  0  0  0  0  0
  -29.5828  -13.4609   17.6546 H   0  0  0  0  0  0
  -28.0057  -11.2787   19.0409 H   0  0  0  0  0  0
  -27.4104  -12.3941   17.8381 H   0  0  0  0  0  0
  -27.5508  -14.2486   19.3623 H   0  0  0  0  0  0
  -28.8074  -12.4207   21.4631 H   0  0  0  0  0  0
  -28.3110  -14.0740   21.7352 H   0  0  0  0  0  0
  -25.2770   -9.5676   22.4760 H   0  0  0  0  0  0
  -24.0004   -7.4627   22.7471 H   0  0  0  0  0  0
  -21.0847   -8.8769   19.8953 H   0  0  0  0  0  0
  -22.3701  -10.9667   19.6168 H   0  0  0  0  0  0
  -21.2007   -7.6145   23.9706 H   0  0  0  0  0  0
  -21.1485   -6.0523   25.9073 H   0  0  0  0  0  0
  -22.0599   -2.7606   23.2840 H   0  0  0  0  0  0
  -22.4061  -11.9842   22.4846 H   0  0  0  0  0  0
  -21.1045  -13.1181   22.2682 H   0  0  0  0  0  0
  -24.6150  -15.8316   20.4916 H   0  0  0  0  0  0
  -26.2174  -15.6315   20.0013 H   0  0  0  0  0  0
  -26.7356  -32.5142   23.0900 H   0  0  0  0  0  0
  -25.0083  -33.9502   25.0220 H   0  0  0  0  0  0
  -22.7862  -31.2698   21.3508 H   0  0  0  0  0  0
  -23.3756  -35.9492   23.3300 H   0  0  0  0  0  0
  -24.3549  -36.8849   22.2073 H   0  0  0  0  0  0
  -23.7195  -37.6360   23.6713 H   0  0  0  0  0  0
  -26.2194  -31.3888   20.6202 H   0  0  0  0  0  0
  -26.8990  -30.6991   22.0522 H   0  0  0  0  0  0
  -28.1401  -28.6312   21.2816 H   0  0  0  0  0  0
  -25.8945  -25.7470   19.0025 H   0  0  0  0  0  0
  -24.0044  -27.2678   18.9500 H   0  0  0  0  0  0
  -23.8634  -30.5234   19.3858 H   0  0  0  0  0  0
  -22.8203  -29.2072   19.8272 H   0  0  0  0  0  0
  -25.1317  -36.1771   25.0796 H   0  0  0  0  0  0
  -21.0043  -28.3358   24.1316 H   0  0  0  0  0  0
  -20.5662  -26.2374   23.3658 H   0  0  0  0  0  0
  -21.6649  -26.7411   22.1220 H   0  0  0  0  0  0
  -19.6910  -25.6291   21.1277 H   0  0  0  0  0  0
  -19.6697  -27.3178   20.6734 H   0  0  0  0  0  0
  -17.4217  -26.6727   21.4022 H   0  0  0  0  0  0
  -18.0314  -26.0110   22.9035 H   0  0  0  0  0  0
  -19.7973  -30.7331   24.2201 H   0  0  0  0  0  0
  -17.5050  -31.6290   24.5180 H   0  0  0  0  0  0
  -15.5379  -30.3004   23.7703 H   0  0  0  0  0  0
  -15.8703  -28.0831   22.7122 H   0  0  0  0  0  0
  -24.5889  -30.7119   25.7703 H   0  0  0  0  0  0
  -24.8862  -32.2981   26.4697 H   0  0  0  0  0  0
  -25.7953  -30.9048   27.0229 H   0  0  0  0  0  0
  -26.3119  -29.6624   24.1380 H   0  0  0  0  0  0
  -27.3977  -29.7287   25.5054 H   0  0  0  0  0  0
  -27.9067  -30.4151   23.9837 H   0  0  0  0  0  0
  -27.2616  -33.3717   26.1938 H   0  0  0  0  0  0
  -28.3915  -32.6856   25.0366 H   0  0  0  0  0  0
  -28.0645  -31.8590   26.5523 H   0  0  0  0  0  0
  -28.2574  -38.0046   24.7531 H   0  0  0  0  0  0
  -28.1046  -36.2580   24.6288 H   0  0  0  0  0  0
  -27.2282  -37.1387   25.8881 H   0  0  0  0  0  0
  -20.9580  -29.8725   21.6666 H   0  0  0  0  0  0
  -26.0102  -38.2765   24.1477 H   0  0  0  0  0  0
  -27.1365  -20.5020   21.2765 H   0  0  0  0  0  0
  -27.4833  -18.0930   21.2414 H   0  0  0  0  0  0
  -31.0494  -20.9287   19.6908 H   0  0  0  0  0  0
  -32.9553  -22.7139   23.2925 H   0  0  0  0  0  0
  -32.5678  -24.2624   22.5473 H   0  0  0  0  0  0
  -33.0188  -22.8842   21.5446 H   0  0  0  0  0  0
  -30.8039  -22.7129   24.5170 H   0  0  0  0  0  0
  -29.2641  -22.6788   23.6925 H   0  0  0  0  0  0
  -30.1758  -24.1855   23.7917 H   0  0  0  0  0  0
  -30.2857  -24.4813   21.2644 H   0  0  0  0  0  0
  -30.9750  -23.2802   20.2272 H   0  0  0  0  0  0
  -27.0305  -24.0716   20.0893 H   0  0  0  0  0  0
  -28.2907  -24.2109   18.9271 H   0  0  0  0  0  0
  -28.3743  -22.8647   21.6673 H   0  0  0  0  0  0
  -30.9827  -21.6772   22.2446 H   0  0  0  0  0  0
  -28.6548  -16.0284   20.7553 H   0  0  0  0  0  0
  1 25  1  0  0  0
  1 30  2  0  0  0
  1 83  1  0  0  0
  2  3  1  0  0  0
  2 25  1  0  0  0
  2 84  1  0  0  0
  2 85  1  0  0  0
  3  4  1  0  0  0
  3 86  1  0  0  0
  3 87  1  0  0  0
  4  5  1  0  0  0
  4 88  1  0  0  0
  4 89  1  0  0  0
  5  6  1  0  0  0
  5 26  1  0  0  0
  5 90  1  0  0  0
  6 25  1  0  0  0
  6 91  1  0  0  0
  6 92  1  0  0  0
  7  8  2  0  0  0
  7 26  1  0  0  0
  7 29  1  0  0  0
  8  9  1  0  0  0
  8 22  1  0  0  0
  9 10  1  0  0  0
  9 27  2  0  0  0
 10 11  2  0  0  0
 10 15  1  0  0  0
 11 12  1  0  0  0
 11 93  1  0  0  0
 12 13  2  0  0  0
 12 94  1  0  0  0
 13 14  1  0  0  0
 13 31  1  0  0  0
 14 15  2  0  0  0
 14 95  1  0  0  0
 15 96  1  0  0  0
 16 17  2  0  0  0
 16 21  1  0  0  0
 16 31  1  0  0  0
 17 18  1  0  0  0
 17 97  1  0  0  0
 18 19  2  0  0  0
 18 98  1  0  0  0
 19 20  1  0  0  0
 19 24  1  0  0  0
 20 21  2  0  0  0
 20 99  1  0  0  0
 21 23  1  0  0  0
 22 28  1  0  0  0
 22 32  2  0  0  0
 26 27  1  0  0  0
 28100  1  0  0  0
 28101  1  0  0  0
 29102  1  0  0  0
 29103  1  0  0  0
 33 34  1  0  0  0
 33 66  1  0  0  0
 33 70  2  0  0  0
 34 36  1  0  0  0
 34 59  1  0  0  0
 34104  1  0  0  0
 35 44  2  0  0  0
 35 45  1  0  0  0
 35 68  1  0  0  0
 36 56  1  0  0  0
 36105  1  0  0  0
 37 39  1  0  0  0
 37 47  1  0  0  0
 37 66  1  0  0  0
 37106  1  0  0  0
 38 43  2  0  0  0
 38 46  1  0  0  0
 38 47  1  0  0  0
 39 64  1  0  0  0
 39 67  2  0  0  0
 40 52  1  0  0  0
 40 53  2  0  0  0
 40 58  1  0  0  0
 41107  1  0  0  0
 41108  1  0  0  0
 41109  1  0  0  0
 41 48  1  0  0  0
 42 43  1  0  0  0
 42 66  1  0  0  0
 42110  1  0  0  0
 42111  1  0  0  0
 43 44  1  0  0  0
 44112  1  0  0  0
 45 46  2  0  0  0
 45113  1  0  0  0
 46114  1  0  0  0
 47115  1  0  0  0
 47116  1  0  0  0
 48 56  1  0  0  0
 48 65  1  0  0  0
 48117  1  0  0  0
 49 50  1  0  0  0
 49 53  1  0  0  0
 49 64  1  0  0  0
 49118  1  0  0  0
 50 51  1  0  0  0
 50119  1  0  0  0
 50120  1  0  0  0
 51 52  1  0  0  0
 51121  1  0  0  0
 51122  1  0  0  0
 52123  1  0  0  0
 52124  1  0  0  0
 53 54  1  0  0  0
 54 55  2  0  0  0
 54125  1  0  0  0
 55 57  1  0  0  0
 55126  1  0  0  0
 56 69  2  0  0  0
 57 58  2  0  0  0
 57127  1  0  0  0
 58128  1  0  0  0
 59 60  1  0  0  0
 59 61  1  0  0  0
 59 62  1  0  0  0
 60129  1  0  0  0
 60130  1  0  0  0
 60131  1  0  0  0
 61132  1  0  0  0
 61133  1  0  0  0
 61134  1  0  0  0
 62135  1  0  0  0
 62136  1  0  0  0
 62137  1  0  0  0
 63 65  1  0  0  0
 63138  1  0  0  0
 63139  1  0  0  0
 63140  1  0  0  0
 64141  1  0  0  0
 65142  1  0  0  0
 68 79  1  0  0  0
 71 72  2  0  0  0
 71 74  1  0  0  0
 71143  1  0  0  0
 72 75  1  0  0  0
 72144  1  0  0  0
 73 74  2  0  0  0
 73 82  1  0  0  0
 73145  1  0  0  0
 74 80  1  0  0  0
 75 82  2  0  0  0
 75 83  1  0  0  0
 76146  1  0  0  0
 76147  1  0  0  0
 76148  1  0  0  0
 76 81  1  0  0  0
 77 81  1  0  0  0
 77149  1  0  0  0
 77150  1  0  0  0
 77151  1  0  0  0
 78 81  1  0  0  0
 78152  1  0  0  0
 78153  1  0  0  0
 78 80  1  0  0  0
 79 80  1  0  0  0
 79154  1  0  0  0
 79155  1  0  0  0
 80156  1  0  0  0
 81157  1  0  0  0
 83158  1  0  0  0
M  ISO  4   1 100  68 101  79 101  83 100
M  END
> <chiral flag>
0

> <version>
0

> <s_m_source_file>
/data/baiqing/PycharmProjects/Reinvent-master-3.2/result/LINK_invent/BTK/process_docking_weight1_custom_sum_contain_oxygen_bond_distance_aromatic_linkinvent_7_9_3/rearranged_h_0113.sdf

> <i_m_source_file_index>
69

> <r_mmod_Potential_Energy-OPLS-2005>
944.368408203125

> <r_mmod_Stretch_Energy-OPLS-2005>
470.727172851562

> <r_mmod_Bend_Energy-OPLS-2005>
429.244750976562

> <r_mmod_Torsional_Energy-OPLS-2005>
223.817138671875

> <r_mmod_Improper_Torsional_Energy-OPLS-2005>
6.4780125617981

> <r_mmod_Van_der_Waal_Energy-OPLS-2005>
129.857482910156

> <r_mmod_Electrostatic_Energy-OPLS-2005>
-481.965728759766

> <r_mmod_Solvation_Energy-OPLS-2005>
-228.743667602539

> <b_mmod_Minimization_Converged-OPLS-2005>
0

> <r_mmod_RMS_Derivative-OPLS-2005>
1.27451801300049

$$$$
71
                    3D
 Structure written by MMmdl.
166173  0  0  1  0            999 V2000
  -30.5506  -14.9292   20.4209 C   0  0  0  0  0  0
  -30.4377  -12.5762   19.4924 C   0  0  0  0  0  0
  -29.5175  -12.5221   18.2517 C   0  0  0  0  0  0
  -28.0505  -12.3123   18.6721 C   0  0  0  0  0  0
  -27.6289  -13.2456   19.8372 C   0  0  2  0  0  0
  -28.6728  -13.2690   20.9730 C   0  0  0  0  0  0
  -25.2458  -13.8212   20.5713 C   0  0  0  0  0  0
  -24.1778  -13.0441   20.9241 C   0  0  0  0  0  0
  -24.6391  -11.6925   20.8765 C   0  0  0  0  0  0
  -23.9078  -10.4295   21.0415 C   0  0  0  0  0  0
  -24.3627   -9.4207   21.9190 C   0  0  0  0  0  0
  -23.6301   -8.2242   22.0755 C   0  0  0  0  0  0
  -22.4282   -8.0283   21.3545 C   0  0  0  0  0  0
  -21.9922   -9.0259   20.4647 C   0  0  0  0  0  0
  -22.7253  -10.2137   20.3060 C   0  0  0  0  0  0
  -21.6855   -6.0740   22.5283 C   0  0  0  0  0  0
  -21.4013   -6.5642   23.8216 C   0  0  0  0  0  0
  -21.3659   -5.6793   24.9177 C   0  0  0  0  0  0
  -21.6045   -4.3056   24.7229 C   0  0  0  0  0  0
  -21.8817   -3.8151   23.4347 C   0  0  0  0  0  0
  -21.9192   -4.6967   22.3404 C   0  0  0  0  0  0
  -22.7796  -13.5209   21.1898 C   0  0  0  0  0  0
  -22.1659   -4.2152   21.0980 F   0  0  0  0  0  0
  -21.5631   -3.4539   25.7741 F   0  0  0  0  0  0
  -29.9477  -13.6754   20.3702 N   0  0  0  0  0  0
  -26.2881  -12.9440   20.3246 N   0  0  0  0  0  0
  -25.9321  -11.6573   20.5752 N   0  0  0  0  0  0
  -22.0444  -12.8193   22.0445 N   0  0  0  0  0  0
  -25.4118  -15.1942   20.4117 N   0  0  0  0  0  0
  -31.7583  -14.9877   20.1698 O   0  0  0  0  0  0
  -21.6642   -6.8884   21.4244 O   0  0  0  0  0  0
  -22.3480  -14.5514   20.6741 O   0  0  0  0  0  0
  -24.6446  -31.8436   23.1886 C   0  0  0  0  0  0
  -25.9216  -32.4690   23.8272 C   0  0  1  0  0  0
  -27.2134  -27.1328   20.1392 C   0  0  0  0  0  0
  -25.5962  -33.8497   24.2186 N   0  0  0  0  0  0
  -23.4468  -30.4652   21.5351 C   0  0  2  0  0  0
  -24.8940  -28.8948   20.1089 C   0  0  0  0  0  0
  -22.7568  -29.4546   22.4857 C   0  0  0  0  0  0
  -18.0305  -28.1390   22.8477 C   0  0  0  0  0  0
  -24.1495  -36.7254   23.2640 C   0  0  0  0  0  0
  -26.0044  -30.7161   21.3879 C   0  0  0  0  0  0
  -26.0736  -29.3288   20.7259 C   0  0  0  0  0  0
  -27.2329  -28.4646   20.7233 C   0  0  0  0  0  0
  -26.0005  -26.8014   19.4916 C   0  0  0  0  0  0
  -24.8709  -27.6448   19.4772 C   0  0  0  0  0  0
  -23.6720  -29.7977   20.1535 C   0  0  0  0  0  0
  -25.4127  -36.3026   24.0311 C   0  0  1  0  0  0
  -20.5918  -28.3716   23.1234 C   0  0  2  0  0  0
  -20.6790  -26.9419   22.5401 C   0  0  0  0  0  0
  -19.5763  -26.6378   21.5209 C   0  0  0  0  0  0
  -18.1944  -26.7929   22.1622 C   0  0  0  0  0  0
  -19.1562  -28.8872   23.2847 C   0  0  0  0  0  0
  -18.9479  -30.1469   23.8870 C   0  0  0  0  0  0
  -17.6476  -30.6588   24.0557 C   0  0  0  0  0  0
  -25.9078  -34.9402   23.5056 C   0  0  0  0  0  0
  -16.5367  -29.9079   23.6338 C   0  0  0  0  0  0
  -16.7289  -28.6498   23.0358 C   0  0  0  0  0  0
  -26.4533  -31.6563   25.0719 C   0  0  0  0  0  0
  -25.3715  -31.3758   26.1415 C   0  0  0  0  0  0
  -27.0401  -30.2958   24.6311 C   0  0  0  0  0  0
  -27.6057  -32.4337   25.7507 C   0  0  0  0  0  0
  -27.5575  -37.1785   24.8463 C   0  0  0  0  0  0
  -21.4260  -29.3045   22.3608 N   0  0  0  0  0  0
  -26.4286  -37.3743   23.9407 N   0  0  0  0  0  0
  -24.7186  -31.0294   22.0921 N   0  0  0  0  0  0
  -23.4214  -28.8083   23.2997 O   0  0  0  0  0  0
  -28.2730  -26.1515   20.2232 O   0  0  0  0  0  0
  -26.5661  -34.8898   22.4634 O   0  0  0  0  0  0
  -23.5566  -32.1311   23.7108 O   0  0  0  0  0  0
  -30.5460  -19.8780   22.9622 C   0  0  0  0  0  0
  -28.0853  -20.5080   22.8883 C   0  0  0  0  0  0
  -28.2717  -24.5880   18.3195 C   0  0  0  0  0  0
  -31.0283  -24.5362   21.2472 C   0  0  0  0  0  0
  -30.1922  -17.6426   20.5570 C   0  0  0  0  0  0
  -29.1482  -18.9684   20.3884 C   0  0  0  0  0  0
  -28.7034  -21.6959   20.1190 C   0  0  0  0  0  0
  -29.4672  -20.6836   22.2283 C   0  0  0  0  0  0
  -28.9633  -23.3294   20.5090 C   0  0  2  0  0  0
  -28.1124  -24.6408   19.8501 C   0  0  1  0  0  0
  -29.7818  -16.1176   20.5457 N   0  0  0  0  0  0
  -29.4509  -20.4705   20.7649 N   0  0  0  0  0  0
  -30.4167  -23.5524   20.3295 N   0  3  0  0  0  0
  -31.4713  -12.7318   19.1799 H   0  0  0  0  0  0
  -30.4289  -11.6244   20.0257 H   0  0  0  0  0  0
  -29.8318  -11.7224   17.5800 H   0  0  0  0  0  0
  -29.6081  -13.4514   17.6871 H   0  0  0  0  0  0
  -27.9437  -11.2713   18.9796 H   0  0  0  0  0  0
  -27.3869  -12.4461   17.8171 H   0  0  0  0  0  0
  -27.5935  -14.2480   19.4100 H   0  0  0  0  0  0
  -28.7565  -12.2916   21.4505 H   0  0  0  0  0  0
  -28.3780  -13.9724   21.7535 H   0  0  0  0  0  0
  -25.2768   -9.5681   22.4772 H   0  0  0  0  0  0
  -24.0009   -7.4628   22.7469 H   0  0  0  0  0  0
  -21.0858   -8.8783   19.8945 H   0  0  0  0  0  0
  -22.3715  -10.9682   19.6173 H   0  0  0  0  0  0
  -21.2001   -7.6150   23.9721 H   0  0  0  0  0  0
  -21.1484   -6.0523   25.9080 H   0  0  0  0  0  0
  -22.0595   -2.7614   23.2850 H   0  0  0  0  0  0
  -22.4067  -11.9854   22.4829 H   0  0  0  0  0  0
  -21.1055  -13.1203   22.2646 H   0  0  0  0  0  0
  -24.6399  -15.8434   20.5186 H   0  0  0  0  0  0
  -26.2477  -15.6329   20.0493 H   0  0  0  0  0  0
  -26.7277  -32.5292   23.0993 H   0  0  0  0  0  0
  -25.0096  -33.9614   25.0325 H   0  0  0  0  0  0
  -22.7495  -31.2916   21.3827 H   0  0  0  0  0  0
  -23.3762  -35.9581   23.3286 H   0  0  0  0  0  0
  -24.3575  -36.8906   22.2057 H   0  0  0  0  0  0
  -23.7249  -37.6444   23.6691 H   0  0  0  0  0  0
  -26.1627  -31.4718   20.6174 H   0  0  0  0  0  0
  -26.8739  -30.7632   22.0318 H   0  0  0  0  0  0
  -28.1319  -28.7931   21.2257 H   0  0  0  0  0  0
  -25.8707  -25.8466   19.0082 H   0  0  0  0  0  0
  -23.9685  -27.3064   18.9866 H   0  0  0  0  0  0
  -23.8093  -30.5733   19.3993 H   0  0  0  0  0  0
  -22.7860  -29.2416   19.8421 H   0  0  0  0  0  0
  -25.1317  -36.1849   25.0803 H   0  0  0  0  0  0
  -21.0011  -28.3305   24.1355 H   0  0  0  0  0  0
  -20.5687  -26.2326   23.3618 H   0  0  0  0  0  0
  -21.6655  -26.7425   22.1197 H   0  0  0  0  0  0
  -19.6925  -25.6283   21.1252 H   0  0  0  0  0  0
  -19.6702  -27.3176   20.6729 H   0  0  0  0  0  0
  -17.4214  -26.6674   21.4025 H   0  0  0  0  0  0
  -18.0344  -26.0072   22.9021 H   0  0  0  0  0  0
  -19.7954  -30.7295   24.2225 H   0  0  0  0  0  0
  -17.5028  -31.6266   24.5162 H   0  0  0  0  0  0
  -15.5366  -30.2973   23.7677 H   0  0  0  0  0  0
  -15.8689  -28.0809   22.7089 H   0  0  0  0  0  0
  -24.5894  -30.7106   25.7737 H   0  0  0  0  0  0
  -24.8908  -32.2943   26.4791 H   0  0  0  0  0  0
  -25.7998  -30.8962   27.0226 H   0  0  0  0  0  0
  -26.3022  -29.6677   24.1308 H   0  0  0  0  0  0
  -27.3995  -29.7263   25.4893 H   0  0  0  0  0  0
  -27.8936  -30.4189   23.9641 H   0  0  0  0  0  0
  -27.2641  -33.3658   26.2021 H   0  0  0  0  0  0
  -28.3900  -32.6868   25.0361 H   0  0  0  0  0  0
  -28.0686  -31.8508   26.5480 H   0  0  0  0  0  0
  -28.2580  -38.0093   24.7514 H   0  0  0  0  0  0
  -28.1085  -36.2623   24.6287 H   0  0  0  0  0  0
  -27.2289  -37.1423   25.8864 H   0  0  0  0  0  0
  -20.9469  -29.8767   21.6797 H   0  0  0  0  0  0
  -26.0150  -38.2808   24.1419 H   0  0  0  0  0  0
  -30.7726  -20.3424   23.9226 H   0  0  0  0  0  0
  -31.4808  -19.8362   22.4022 H   0  0  0  0  0  0
  -30.2149  -18.8659   23.1912 H   0  0  0  0  0  0
  -28.1357  -20.7727   23.9448 H   0  0  0  0  0  0
  -27.7269  -19.4802   22.8426 H   0  0  0  0  0  0
  -27.3238  -21.1499   22.4469 H   0  0  0  0  0  0
  -28.0226  -23.6014   17.9300 H   0  0  0  0  0  0
  -29.2936  -24.8172   18.0210 H   0  0  0  0  0  0
  -27.6308  -25.3029   17.8079 H   0  0  0  0  0  0
  -32.1007  -24.6033   21.0640 H   0  0  0  0  0  0
  -30.8871  -24.2442   22.2882 H   0  0  0  0  0  0
  -30.6079  -25.5318   21.1098 H   0  0  0  0  0  0
  -30.7669  -17.7444   21.4710 H   0  0  0  0  0  0
  -30.9448  -17.7513   19.7755 H   0  0  0  0  0  0
  -28.2069  -18.6993   20.8657 H   0  0  0  0  0  0
  -28.8956  -18.9922   19.3274 H   0  0  0  0  0  0
  -28.8502  -21.5941   19.0426 H   0  0  0  0  0  0
  -27.6364  -21.5136   20.2547 H   0  0  0  0  0  0
  -29.7693  -21.7150   22.3970 H   0  0  0  0  0  0
  -28.7521  -23.4034   21.5758 H   0  0  0  0  0  0
  -27.0767  -24.3960   20.0827 H   0  0  0  0  0  0
  -28.7954  -15.9499   20.6775 H   0  0  0  0  0  0
  -30.8698  -22.6634   20.4835 H   0  0  0  0  0  0
  -30.6112  -23.8185   19.3773 H   0  0  0  0  0  0
  1 25  1  0  0  0
  1 30  2  0  0  0
  1 81  1  0  0  0
  2  3  1  0  0  0
  2 25  1  0  0  0
  2 84  1  0  0  0
  2 85  1  0  0  0
  3  4  1  0  0  0
  3 86  1  0  0  0
  3 87  1  0  0  0
  4  5  1  0  0  0
  4 88  1  0  0  0
  4 89  1  0  0  0
  5  6  1  0  0  0
  5 26  1  0  0  0
  5 90  1  0  0  0
  6 25  1  0  0  0
  6 91  1  0  0  0
  6 92  1  0  0  0
  7  8  2  0  0  0
  7 26  1  0  0  0
  7 29  1  0  0  0
  8  9  1  0  0  0
  8 22  1  0  0  0
  9 10  1  0  0  0
  9 27  2  0  0  0
 10 11  2  0  0  0
 10 15  1  0  0  0
 11 12  1  0  0  0
 11 93  1  0  0  0
 12 13  2  0  0  0
 12 94  1  0  0  0
 13 14  1  0  0  0
 13 31  1  0  0  0
 14 15  2  0  0  0
 14 95  1  0  0  0
 15 96  1  0  0  0
 16 17  2  0  0  0
 16 21  1  0  0  0
 16 31  1  0  0  0
 17 18  1  0  0  0
 17 97  1  0  0  0
 18 19  2  0  0  0
 18 98  1  0  0  0
 19 20  1  0  0  0
 19 24  1  0  0  0
 20 21  2  0  0  0
 20 99  1  0  0  0
 21 23  1  0  0  0
 22 28  1  0  0  0
 22 32  2  0  0  0
 26 27  1  0  0  0
 28100  1  0  0  0
 28101  1  0  0  0
 29102  1  0  0  0
 29103  1  0  0  0
 33 34  1  0  0  0
 33 66  1  0  0  0
 33 70  2  0  0  0
 34 36  1  0  0  0
 34 59  1  0  0  0
 34104  1  0  0  0
 35 44  2  0  0  0
 35 45  1  0  0  0
 35 68  1  0  0  0
 36 56  1  0  0  0
 36105  1  0  0  0
 37 39  1  0  0  0
 37 47  1  0  0  0
 37 66  1  0  0  0
 37106  1  0  0  0
 38 43  2  0  0  0
 38 46  1  0  0  0
 38 47  1  0  0  0
 39 64  1  0  0  0
 39 67  2  0  0  0
 40 52  1  0  0  0
 40 53  2  0  0  0
 40 58  1  0  0  0
 41107  1  0  0  0
 41108  1  0  0  0
 41109  1  0  0  0
 41 48  1  0  0  0
 42 43  1  0  0  0
 42 66  1  0  0  0
 42110  1  0  0  0
 42111  1  0  0  0
 43 44  1  0  0  0
 44112  1  0  0  0
 45 46  2  0  0  0
 45113  1  0  0  0
 46114  1  0  0  0
 47115  1  0  0  0
 47116  1  0  0  0
 48 56  1  0  0  0
 48 65  1  0  0  0
 48117  1  0  0  0
 49 50  1  0  0  0
 49 53  1  0  0  0
 49 64  1  0  0  0
 49118  1  0  0  0
 50 51  1  0  0  0
 50119  1  0  0  0
 50120  1  0  0  0
 51 52  1  0  0  0
 51121  1  0  0  0
 51122  1  0  0  0
 52123  1  0  0  0
 52124  1  0  0  0
 53 54  1  0  0  0
 54 55  2  0  0  0
 54125  1  0  0  0
 55 57  1  0  0  0
 55126  1  0  0  0
 56 69  2  0  0  0
 57 58  2  0  0  0
 57127  1  0  0  0
 58128  1  0  0  0
 59 60  1  0  0  0
 59 61  1  0  0  0
 59 62  1  0  0  0
 60129  1  0  0  0
 60130  1  0  0  0
 60131  1  0  0  0
 61132  1  0  0  0
 61133  1  0  0  0
 61134  1  0  0  0
 62135  1  0  0  0
 62136  1  0  0  0
 62137  1  0  0  0
 63 65  1  0  0  0
 63138  1  0  0  0
 63139  1  0  0  0
 63140  1  0  0  0
 64141  1  0  0  0
 65142  1  0  0  0
 68 80  1  0  0  0
 71143  1  0  0  0
 71144  1  0  0  0
 71145  1  0  0  0
 71 78  1  0  0  0
 72 78  1  0  0  0
 72146  1  0  0  0
 72147  1  0  0  0
 72148  1  0  0  0
 73149  1  0  0  0
 73150  1  0  0  0
 73151  1  0  0  0
 73 80  1  0  0  0
 74 83  1  0  0  0
 74152  1  0  0  0
 74153  1  0  0  0
 74154  1  0  0  0
 75 76  1  0  0  0
 75 81  1  0  0  0
 75155  1  0  0  0
 75156  1  0  0  0
 76 82  1  0  0  0
 76157  1  0  0  0
 76158  1  0  0  0
 77 82  1  0  0  0
 77159  1  0  0  0
 77160  1  0  0  0
 77 79  1  0  0  0
 78 82  1  0  0  0
 78161  1  0  0  0
 79 80  1  0  0  0
 79 83  1  0  0  0
 79162  1  0  0  0
 80163  1  0  0  0
 81164  1  0  0  0
 83165  1  0  0  0
 83166  1  0  0  0
M  CHG  1  83   1
M  ISO  4   1 100  68 101  80 101  81 100
M  END
> <chiral flag>
0

> <version>
0

> <s_m_source_file>
/data/baiqing/PycharmProjects/Reinvent-master-3.2/result/LINK_invent/BTK/process_docking_weight1_custom_sum_contain_oxygen_bond_distance_aromatic_linkinvent_7_9_3/rearranged_h_0113.sdf

> <i_m_source_file_index>
70

> <r_mmod_Potential_Energy-OPLS-2005>
311.924621582031

> <r_mmod_Stretch_Energy-OPLS-2005>
282.796234130859

> <r_mmod_Bend_Energy-OPLS-2005>
279.224578857422

> <r_mmod_Torsional_Energy-OPLS-2005>
233.050216674805

> <r_mmod_Improper_Torsional_Energy-OPLS-2005>
4.38939046859741

> <r_mmod_Van_der_Waal_Energy-OPLS-2005>
121.834381103516

> <r_mmod_Electrostatic_Energy-OPLS-2005>
-360.239501953125

> <r_mmod_Solvation_Energy-OPLS-2005>
-435.839447021484

> <b_mmod_Minimization_Converged-OPLS-2005>
0

> <r_mmod_RMS_Derivative-OPLS-2005>
0.61190527677536

$$$$
72
                    3D
 Structure written by MMmdl.
172180  0  0  1  0            999 V2000
  -30.6066  -14.6924   20.4987 C   0  0  0  0  0  0
  -30.4406  -12.4298   19.4400 C   0  0  0  0  0  0
  -29.4983  -12.4719   18.2162 C   0  0  0  0  0  0
  -28.0283  -12.2959   18.6471 C   0  0  0  0  0  0
  -27.6403  -13.2099   19.8371 C   0  0  2  0  0  0
  -28.6862  -13.1203   20.9668 C   0  0  0  0  0  0
  -25.2529  -13.8149   20.5641 C   0  0  0  0  0  0
  -24.1823  -13.0424   20.9224 C   0  0  0  0  0  0
  -24.6381  -11.6890   20.8761 C   0  0  0  0  0  0
  -23.9050  -10.4276   21.0433 C   0  0  0  0  0  0
  -24.3606   -9.4198   21.9204 C   0  0  0  0  0  0
  -23.6293   -8.2226   22.0775 C   0  0  0  0  0  0
  -22.4274   -8.0267   21.3547 C   0  0  0  0  0  0
  -21.9908   -9.0234   20.4637 C   0  0  0  0  0  0
  -22.7237  -10.2117   20.3055 C   0  0  0  0  0  0
  -21.6842   -6.0732   22.5286 C   0  0  0  0  0  0
  -21.3989   -6.5637   23.8217 C   0  0  0  0  0  0
  -21.3660   -5.6791   24.9180 C   0  0  0  0  0  0
  -21.6050   -4.3060   24.7233 C   0  0  0  0  0  0
  -21.8819   -3.8148   23.4359 C   0  0  0  0  0  0
  -21.9183   -4.6960   22.3408 C   0  0  0  0  0  0
  -22.7845  -13.5222   21.1880 C   0  0  0  0  0  0
  -22.1663   -4.2150   21.0990 F   0  0  0  0  0  0
  -21.5642   -3.4546   25.7751 F   0  0  0  0  0  0
  -29.9881  -13.4721   20.3827 N   0  0  0  0  0  0
  -26.2931  -12.9313   20.3214 N   0  0  0  0  0  0
  -25.9299  -11.6486   20.5746 N   0  0  0  0  0  0
  -22.0496  -12.8178   22.0409 N   0  0  0  0  0  0
  -25.4210  -15.1884   20.4024 N   0  0  0  0  0  0
  -31.8037  -14.8342   20.2423 O   0  0  0  0  0  0
  -21.6635   -6.8873   21.4244 O   0  0  0  0  0  0
  -22.3545  -14.5544   20.6756 O   0  0  0  0  0  0
  -24.6304  -31.8567   23.2015 C   0  0  0  0  0  0
  -25.9121  -32.4758   23.8332 C   0  0  1  0  0  0
  -27.2023  -27.2742   20.1101 C   0  0  0  0  0  0
  -25.5935  -33.8561   24.2274 N   0  0  0  0  0  0
  -23.4239  -30.4836   21.5459 C   0  0  2  0  0  0
  -24.8673  -28.9442   20.1019 C   0  0  0  0  0  0
  -22.7511  -29.4588   22.4927 C   0  0  0  0  0  0
  -18.0287  -28.1378   22.8481 C   0  0  0  0  0  0
  -24.1496  -36.7256   23.2639 C   0  0  0  0  0  0
  -25.9730  -30.7702   21.3834 C   0  0  0  0  0  0
  -26.0403  -29.3989   20.7189 C   0  0  0  0  0  0
  -27.2100  -28.5729   20.7204 C   0  0  0  0  0  0
  -26.0148  -26.9025   19.4387 C   0  0  0  0  0  0
  -24.8606  -27.7014   19.4543 C   0  0  0  0  0  0
  -23.6372  -29.8272   20.1591 C   0  0  0  0  0  0
  -25.4128  -36.3060   24.0332 C   0  0  1  0  0  0
  -20.5902  -28.3649   23.1274 C   0  0  2  0  0  0
  -20.6783  -26.9372   22.5408 C   0  0  0  0  0  0
  -19.5757  -26.6382   21.5200 C   0  0  0  0  0  0
  -18.1929  -26.7922   22.1609 C   0  0  0  0  0  0
  -19.1549  -28.8835   23.2851 C   0  0  0  0  0  0
  -18.9476  -30.1437   23.8860 C   0  0  0  0  0  0
  -17.6486  -30.6566   24.0548 C   0  0  0  0  0  0
  -25.9075  -34.9441   23.5094 C   0  0  0  0  0  0
  -16.5372  -29.9061   23.6353 C   0  0  0  0  0  0
  -16.7272  -28.6493   23.0343 C   0  0  0  0  0  0
  -26.4509  -31.6598   25.0721 C   0  0  0  0  0  0
  -25.3712  -31.3677   26.1413 C   0  0  0  0  0  0
  -27.0408  -30.3041   24.6180 C   0  0  0  0  0  0
  -27.6061  -32.4361   25.7503 C   0  0  0  0  0  0
  -27.5585  -37.1771   24.8475 C   0  0  0  0  0  0
  -21.4217  -29.3001   22.3688 N   0  0  0  0  0  0
  -26.4316  -37.3761   23.9416 N   0  0  0  0  0  0
  -24.6948  -31.0541   22.0991 N   0  0  0  0  0  0
  -23.4240  -28.8081   23.2975 O   0  0  0  0  0  0
  -28.2831  -26.3693   20.2002 O   0  0  0  0  0  0
  -26.5636  -34.8903   22.4668 O   0  0  0  0  0  0
  -23.5467  -32.1423   23.7316 O   0  0  0  0  0  0
  -31.3394  -19.1712   21.8750 C   0  0  0  0  0  0
  -27.5487  -19.6150   22.2557 C   0  0  0  0  0  0
  -28.2961  -20.9555   22.3257 C   0  0  0  0  0  0
  -27.8430  -19.0753   20.8564 C   0  0  0  0  0  0
  -29.2071  -21.0176   21.0758 C   0  0  2  0  0  0
  -33.2079  -21.8936   22.2011 C   0  0  0  0  0  0
  -34.9080  -20.0398   21.8075 C   0  0  0  0  0  0
  -28.6918  -22.2153   20.1227 C   0  0  0  0  0  0
  -28.8853  -23.7474   20.6057 C   0  0  0  0  0  0
  -30.0183  -17.0594   21.4949 C   0  0  0  0  0  0
  -28.0648  -24.9196   19.8806 C   0  0  0  0  0  0
  -30.3337  -18.5432   20.8775 C   0  0  1  0  0  0
  -33.4765  -20.3789   22.2389 C   0  0  0  0  0  0
  -32.4980  -19.6674   21.4131 N   0  0  0  0  0  0
  -29.7830  -15.7752   20.7223 N   0  0  0  0  0  0
  -29.1995  -19.5604   20.5358 N   0  3  1  0  0  0
  -31.0380  -19.2434   23.0699 O   0  0  0  0  0  0
  -31.4754  -12.5825   19.1273 H   0  0  0  0  0  0
  -30.4105  -11.4522   19.9227 H   0  0  0  0  0  0
  -29.7704  -11.6868   17.5097 H   0  0  0  0  0  0
  -29.6145  -13.4177   17.6853 H   0  0  0  0  0  0
  -27.8975  -11.2520   18.9369 H   0  0  0  0  0  0
  -27.3588  -12.4596   17.8023 H   0  0  0  0  0  0
  -27.6376  -14.2280   19.4505 H   0  0  0  0  0  0
  -28.7210  -12.1134   21.3851 H   0  0  0  0  0  0
  -28.4248  -13.7822   21.7949 H   0  0  0  0  0  0
  -25.2747   -9.5687   22.4790 H   0  0  0  0  0  0
  -24.0002   -7.4618   22.7500 H   0  0  0  0  0  0
  -21.0848   -8.8737   19.8935 H   0  0  0  0  0  0
  -22.3704  -10.9649   19.6161 H   0  0  0  0  0  0
  -21.1962   -7.6139   23.9716 H   0  0  0  0  0  0
  -21.1492   -6.0526   25.9082 H   0  0  0  0  0  0
  -22.0598   -2.7607   23.2859 H   0  0  0  0  0  0
  -22.4107  -11.9777   22.4673 H   0  0  0  0  0  0
  -21.1135  -13.1200   22.2686 H   0  0  0  0  0  0
  -24.6291  -15.8193   20.4689 H   0  0  0  0  0  0
  -26.2298  -15.6117   19.9665 H   0  0  0  0  0  0
  -26.7185  -32.5402   23.1064 H   0  0  0  0  0  0
  -25.0094  -33.9714   25.0424 H   0  0  0  0  0  0
  -22.7179  -31.3041   21.4045 H   0  0  0  0  0  0
  -23.3788  -35.9557   23.3323 H   0  0  0  0  0  0
  -24.3555  -36.8886   22.2047 H   0  0  0  0  0  0
  -23.7254  -37.6453   23.6662 H   0  0  0  0  0  0
  -26.1164  -31.5347   20.6175 H   0  0  0  0  0  0
  -26.8498  -30.8100   22.0176 H   0  0  0  0  0  0
  -28.1020  -28.9011   21.2363 H   0  0  0  0  0  0
  -25.9340  -25.9731   18.8942 H   0  0  0  0  0  0
  -23.9651  -27.3580   18.9521 H   0  0  0  0  0  0
  -23.7508  -30.6077   19.4063 H   0  0  0  0  0  0
  -22.7551  -29.2573   19.8554 H   0  0  0  0  0  0
  -25.1306  -36.1907   25.0827 H   0  0  0  0  0  0
  -20.9974  -28.3227   24.1395 H   0  0  0  0  0  0
  -20.5712  -26.2223   23.3583 H   0  0  0  0  0  0
  -21.6627  -26.7412   22.1143 H   0  0  0  0  0  0
  -19.6912  -25.6310   21.1187 H   0  0  0  0  0  0
  -19.6717  -27.3221   20.6769 H   0  0  0  0  0  0
  -17.4197  -26.6689   21.3991 H   0  0  0  0  0  0
  -18.0267  -26.0056   22.8995 H   0  0  0  0  0  0
  -19.7962  -30.7236   24.2216 H   0  0  0  0  0  0
  -17.5045  -31.6247   24.5149 H   0  0  0  0  0  0
  -15.5366  -30.2927   23.7732 H   0  0  0  0  0  0
  -15.8678  -28.0816   22.7050 H   0  0  0  0  0  0
  -24.5968  -30.6945   25.7706 H   0  0  0  0  0  0
  -24.8767  -32.2784   26.4785 H   0  0  0  0  0  0
  -25.7995  -30.8903   27.0237 H   0  0  0  0  0  0
  -26.3016  -29.6719   24.1237 H   0  0  0  0  0  0
  -27.4202  -29.7329   25.4666 H   0  0  0  0  0  0
  -27.8805  -30.4383   23.9365 H   0  0  0  0  0  0
  -27.2710  -33.3746   26.1937 H   0  0  0  0  0  0
  -28.3911  -32.6807   25.0329 H   0  0  0  0  0  0
  -28.0648  -31.8563   26.5517 H   0  0  0  0  0  0
  -28.2569  -38.0096   24.7535 H   0  0  0  0  0  0
  -28.1118  -36.2607   24.6322 H   0  0  0  0  0  0
  -27.2248  -37.1449   25.8863 H   0  0  0  0  0  0
  -20.9415  -29.8790   21.6946 H   0  0  0  0  0  0
  -26.0189  -38.2832   24.1425 H   0  0  0  0  0  0
  -26.4777  -19.7161   22.4365 H   0  0  0  0  0  0
  -27.9453  -18.9348   23.0104 H   0  0  0  0  0  0
  -28.8847  -21.0153   23.2416 H   0  0  0  0  0  0
  -27.5871  -21.7828   22.3573 H   0  0  0  0  0  0
  -27.1485  -19.5353   20.1518 H   0  0  0  0  0  0
  -27.6988  -18.0019   20.7537 H   0  0  0  0  0  0
  -30.2009  -21.3533   21.3573 H   0  0  0  0  0  0
  -33.9051  -22.4306   22.8469 H   0  0  0  0  0  0
  -32.2028  -22.1297   22.5557 H   0  0  0  0  0  0
  -33.3118  -22.2991   21.1930 H   0  0  0  0  0  0
  -35.6314  -20.5503   22.4445 H   0  0  0  0  0  0
  -35.1109  -20.3385   20.7802 H   0  0  0  0  0  0
  -35.0993  -18.9707   21.8909 H   0  0  0  0  0  0
  -27.6306  -22.0584   19.9258 H   0  0  0  0  0  0
  -29.1772  -22.1143   19.1519 H   0  0  0  0  0  0
  -29.9477  -23.9851   20.5524 H   0  0  0  0  0  0
  -28.6316  -23.7970   21.6654 H   0  0  0  0  0  0
  -29.2218  -17.1378   22.2340 H   0  0  0  0  0  0
  -30.8744  -16.7794   22.1139 H   0  0  0  0  0  0
  -27.0297  -24.6463   20.0822 H   0  0  0  0  0  0
  -28.2009  -24.8188   18.8035 H   0  0  0  0  0  0
  -30.8778  -18.3904   19.9448 H   0  0  0  0  0  0
  -33.3826  -20.0541   23.2781 H   0  0  0  0  0  0
  -32.6935  -19.5806   20.4244 H   0  0  0  0  0  0
  -28.8130  -15.5028   20.6926 H   0  0  0  0  0  0
  -29.2503  -19.6255   19.5293 H   0  0  0  0  0  0
  1 25  1  0  0  0
  1 30  2  0  0  0
  1 85  1  0  0  0
  2  3  1  0  0  0
  2 25  1  0  0  0
  2 88  1  0  0  0
  2 89  1  0  0  0
  3  4  1  0  0  0
  3 90  1  0  0  0
  3 91  1  0  0  0
  4  5  1  0  0  0
  4 92  1  0  0  0
  4 93  1  0  0  0
  5  6  1  0  0  0
  5 26  1  0  0  0
  5 94  1  0  0  0
  6 25  1  0  0  0
  6 95  1  0  0  0
  6 96  1  0  0  0
  7  8  2  0  0  0
  7 26  1  0  0  0
  7 29  1  0  0  0
  8  9  1  0  0  0
  8 22  1  0  0  0
  9 10  1  0  0  0
  9 27  2  0  0  0
 10 11  2  0  0  0
 10 15  1  0  0  0
 11 12  1  0  0  0
 11 97  1  0  0  0
 12 13  2  0  0  0
 12 98  1  0  0  0
 13 14  1  0  0  0
 13 31  1  0  0  0
 14 15  2  0  0  0
 14 99  1  0  0  0
 15100  1  0  0  0
 16 17  2  0  0  0
 16 21  1  0  0  0
 16 31  1  0  0  0
 17 18  1  0  0  0
 17101  1  0  0  0
 18 19  2  0  0  0
 18102  1  0  0  0
 19 20  1  0  0  0
 19 24  1  0  0  0
 20 21  2  0  0  0
 20103  1  0  0  0
 21 23  1  0  0  0
 22 28  1  0  0  0
 22 32  2  0  0  0
 26 27  1  0  0  0
 28104  1  0  0  0
 28105  1  0  0  0
 29106  1  0  0  0
 29107  1  0  0  0
 33 34  1  0  0  0
 33 66  1  0  0  0
 33 70  2  0  0  0
 34 36  1  0  0  0
 34 59  1  0  0  0
 34108  1  0  0  0
 35 44  2  0  0  0
 35 45  1  0  0  0
 35 68  1  0  0  0
 36 56  1  0  0  0
 36109  1  0  0  0
 37 39  1  0  0  0
 37 47  1  0  0  0
 37 66  1  0  0  0
 37110  1  0  0  0
 38 43  2  0  0  0
 38 46  1  0  0  0
 38 47  1  0  0  0
 39 64  1  0  0  0
 39 67  2  0  0  0
 40 52  1  0  0  0
 40 53  2  0  0  0
 40 58  1  0  0  0
 41111  1  0  0  0
 41112  1  0  0  0
 41113  1  0  0  0
 41 48  1  0  0  0
 42 43  1  0  0  0
 42 66  1  0  0  0
 42114  1  0  0  0
 42115  1  0  0  0
 43 44  1  0  0  0
 44116  1  0  0  0
 45 46  2  0  0  0
 45117  1  0  0  0
 46118  1  0  0  0
 47119  1  0  0  0
 47120  1  0  0  0
 48 56  1  0  0  0
 48 65  1  0  0  0
 48121  1  0  0  0
 49 50  1  0  0  0
 49 53  1  0  0  0
 49 64  1  0  0  0
 49122  1  0  0  0
 50 51  1  0  0  0
 50123  1  0  0  0
 50124  1  0  0  0
 51 52  1  0  0  0
 51125  1  0  0  0
 51126  1  0  0  0
 52127  1  0  0  0
 52128  1  0  0  0
 53 54  1  0  0  0
 54 55  2  0  0  0
 54129  1  0  0  0
 55 57  1  0  0  0
 55130  1  0  0  0
 56 69  2  0  0  0
 57 58  2  0  0  0
 57131  1  0  0  0
 58132  1  0  0  0
 59 60  1  0  0  0
 59 61  1  0  0  0
 59 62  1  0  0  0
 60133  1  0  0  0
 60134  1  0  0  0
 60135  1  0  0  0
 61136  1  0  0  0
 61137  1  0  0  0
 61138  1  0  0  0
 62139  1  0  0  0
 62140  1  0  0  0
 62141  1  0  0  0
 63 65  1  0  0  0
 63142  1  0  0  0
 63143  1  0  0  0
 63144  1  0  0  0
 64145  1  0  0  0
 65146  1  0  0  0
 68 81  1  0  0  0
 71 82  1  0  0  0
 71 84  1  0  0  0
 71 87  2  0  0  0
 72 73  1  0  0  0
 72 74  1  0  0  0
 72147  1  0  0  0
 72148  1  0  0  0
 73 75  1  0  0  0
 73149  1  0  0  0
 73150  1  0  0  0
 74151  1  0  0  0
 74152  1  0  0  0
 74 86  1  0  0  0
 75 78  1  0  0  0
 75 86  1  0  0  0
 75153  1  0  0  0
 76154  1  0  0  0
 76155  1  0  0  0
 76156  1  0  0  0
 76 83  1  0  0  0
 77 83  1  0  0  0
 77157  1  0  0  0
 77158  1  0  0  0
 77159  1  0  0  0
 78 79  1  0  0  0
 78160  1  0  0  0
 78161  1  0  0  0
 79 81  1  0  0  0
 79162  1  0  0  0
 79163  1  0  0  0
 80 85  1  0  0  0
 80164  1  0  0  0
 80165  1  0  0  0
 80 82  1  0  0  0
 81166  1  0  0  0
 81167  1  0  0  0
 82 86  1  0  0  0
 82168  1  0  0  0
 83 84  1  0  0  0
 83169  1  0  0  0
 84170  1  0  0  0
 85171  1  0  0  0
 86172  1  0  0  0
M  CHG  1  86   1
M  ISO  4   1 100  68 101  81 101  85 100
M  END
> <chiral flag>
0

> <version>
0

> <s_m_source_file>
/data/baiqing/PycharmProjects/Reinvent-master-3.2/result/LINK_invent/BTK/process_docking_weight1_custom_sum_contain_oxygen_bond_distance_aromatic_linkinvent_7_9_3/rearranged_h_0113.sdf

> <i_m_source_file_index>
71

> <r_mmod_Potential_Energy-OPLS-2005>
127.563949584961

> <r_mmod_Stretch_Energy-OPLS-2005>
123.8271484375

> <r_mmod_Bend_Energy-OPLS-2005>
222.969497680664

> <r_mmod_Torsional_Energy-OPLS-2005>
353.101135253906

> <r_mmod_Improper_Torsional_Energy-OPLS-2005>
6.59712266921997

> <r_mmod_Van_der_Waal_Energy-OPLS-2005>
135.163070678711

> <r_mmod_Electrostatic_Energy-OPLS-2005>
-328.814910888672

> <r_mmod_Solvation_Energy-OPLS-2005>
-463.520782470703

> <b_mmod_Minimization_Converged-OPLS-2005>
0

> <r_mmod_RMS_Derivative-OPLS-2005>
4.49497652053833

$$$$
73
                    3D
 Structure written by MMmdl.
159166  0  0  1  0            999 V2000
  -30.5022  -14.8750   20.2735 C   0  0  0  0  0  0
  -30.4455  -12.5020   19.4788 C   0  0  0  0  0  0
  -29.5219  -12.4327   18.2353 C   0  0  0  0  0  0
  -28.0384  -12.2838   18.6309 C   0  0  0  0  0  0
  -27.6208  -13.2151   19.8001 C   0  0  2  0  0  0
  -28.6632  -13.2319   20.9285 C   0  0  0  0  0  0
  -25.2507  -13.8098   20.5683 C   0  0  0  0  0  0
  -24.1744  -13.0390   20.9228 C   0  0  0  0  0  0
  -24.6305  -11.6879   20.8693 C   0  0  0  0  0  0
  -23.8972  -10.4282   21.0380 C   0  0  0  0  0  0
  -24.3589   -9.4250   21.9172 C   0  0  0  0  0  0
  -23.6313   -8.2253   22.0739 C   0  0  0  0  0  0
  -22.4303   -8.0264   21.3526 C   0  0  0  0  0  0
  -21.9893   -9.0188   20.4604 C   0  0  0  0  0  0
  -22.7147  -10.2116   20.2991 C   0  0  0  0  0  0
  -21.6893   -6.0715   22.5288 C   0  0  0  0  0  0
  -21.4025   -6.5627   23.8198 C   0  0  0  0  0  0
  -21.3663   -5.6788   24.9171 C   0  0  0  0  0  0
  -21.6048   -4.3051   24.7215 C   0  0  0  0  0  0
  -21.8822   -3.8131   23.4329 C   0  0  0  0  0  0
  -21.9210   -4.6949   22.3393 C   0  0  0  0  0  0
  -22.7811  -13.5262   21.1862 C   0  0  0  0  0  0
  -22.1704   -4.2136   21.0976 F   0  0  0  0  0  0
  -21.5609   -3.4525   25.7733 F   0  0  0  0  0  0
  -29.9598  -13.5991   20.3492 N   0  0  0  0  0  0
  -26.2821  -12.9250   20.3035 N   0  0  0  0  0  0
  -25.9211  -11.6423   20.5593 N   0  0  0  0  0  0
  -22.0402  -12.8280   22.0431 N   0  0  0  0  0  0
  -25.4317  -15.1785   20.4192 N   0  0  0  0  0  0
  -31.7279  -14.9648   20.1502 O   0  0  0  0  0  0
  -21.6668   -6.8863   21.4240 O   0  0  0  0  0  0
  -22.3514  -14.5512   20.6616 O   0  0  0  0  0  0
  -24.6379  -31.8556   23.1917 C   0  0  0  0  0  0
  -25.9200  -32.4768   23.8313 C   0  0  1  0  0  0
  -27.2083  -27.2053   20.1364 C   0  0  0  0  0  0
  -25.5986  -33.8576   24.2238 N   0  0  0  0  0  0
  -23.4299  -30.4715   21.5406 C   0  0  2  0  0  0
  -24.8763  -28.9246   20.1062 C   0  0  0  0  0  0
  -22.7538  -29.4582   22.4950 C   0  0  0  0  0  0
  -18.0335  -28.1381   22.8539 C   0  0  0  0  0  0
  -24.1498  -36.7200   23.2634 C   0  0  0  0  0  0
  -25.9836  -30.7536   21.3778 C   0  0  0  0  0  0
  -26.0538  -29.3741   20.7176 C   0  0  0  0  0  0
  -27.2189  -28.5246   20.7274 C   0  0  0  0  0  0
  -26.0095  -26.8546   19.4802 C   0  0  0  0  0  0
  -24.8664  -27.6766   19.4751 C   0  0  0  0  0  0
  -23.6379  -29.7975   20.1625 C   0  0  0  0  0  0
  -25.4118  -36.3002   24.0319 C   0  0  1  0  0  0
  -20.5956  -28.3667   23.1316 C   0  0  2  0  0  0
  -20.6854  -26.9389   22.5424 C   0  0  0  0  0  0
  -19.5763  -26.6358   21.5291 C   0  0  0  0  0  0
  -18.1938  -26.7928   22.1675 C   0  0  0  0  0  0
  -19.1609  -28.8847   23.2908 C   0  0  0  0  0  0
  -18.9500  -30.1498   23.8837 C   0  0  0  0  0  0
  -17.6491  -30.6605   24.0557 C   0  0  0  0  0  0
  -25.9073  -34.9423   23.5055 C   0  0  0  0  0  0
  -16.5384  -29.9055   23.6408 C   0  0  0  0  0  0
  -16.7318  -28.6490   23.0411 C   0  0  0  0  0  0
  -26.4502  -31.6653   25.0766 C   0  0  0  0  0  0
  -25.3644  -31.3911   26.1430 C   0  0  0  0  0  0
  -27.0393  -30.3065   24.6380 C   0  0  0  0  0  0
  -27.6019  -32.4454   25.7546 C   0  0  0  0  0  0
  -27.5552  -37.1762   24.8474 C   0  0  0  0  0  0
  -21.4239  -29.2976   22.3679 N   0  0  0  0  0  0
  -26.4271  -37.3730   23.9424 N   0  0  0  0  0  0
  -24.7046  -31.0468   22.0913 N   0  0  0  0  0  0
  -23.4229  -28.8166   23.3096 O   0  0  0  0  0  0
  -28.2798  -26.2617   20.2314 O   0  0  0  0  0  0
  -26.5641  -34.8904   22.4610 O   0  0  0  0  0  0
  -23.5536  -32.1447   23.7161 O   0  0  0  0  0  0
  -29.5076  -16.3235   18.3754 C   0  0  0  0  0  0
  -30.1851  -23.8151   21.0260 C   0  0  0  0  0  0
  -28.7748  -21.9960   19.7495 C   0  0  0  0  0  0
  -29.2654  -20.5896   20.4769 C   0  0  0  0  0  0
  -29.8650  -17.7490   20.4373 C   0  0  0  0  0  0
  -28.1661  -24.8072   19.7532 C   0  0  0  0  0  0
  -29.5870  -16.2041   19.9193 C   0  0  2  0  0  0
  -28.7845  -23.4765   20.4974 C   0  0  2  0  0  0
  -28.9743  -19.0563   19.9099 C   0  0  1  0  0  0
  -27.5307  -18.7455   20.0825 N   0  3  0  0  0  0
  -31.4703  -12.6783   19.1568 H   0  0  0  0  0  0
  -30.4576  -11.5584   20.0264 H   0  0  0  0  0  0
  -29.8232  -11.6018   17.5931 H   0  0  0  0  0  0
  -29.6545  -13.3164   17.6202 H   0  0  0  0  0  0
  -27.8905  -11.2451   18.9181 H   0  0  0  0  0  0
  -27.4026  -12.4605   17.7615 H   0  0  0  0  0  0
  -27.5717  -14.2047   19.3561 H   0  0  0  0  0  0
  -28.7234  -12.2517   21.4014 H   0  0  0  0  0  0
  -28.3764  -13.9434   21.7030 H   0  0  0  0  0  0
  -25.2734   -9.5773   22.4747 H   0  0  0  0  0  0
  -24.0034   -7.4658   22.7464 H   0  0  0  0  0  0
  -21.0804   -8.8606   19.8946 H   0  0  0  0  0  0
  -22.3523  -10.9609   19.6063 H   0  0  0  0  0  0
  -21.2028   -7.6133   23.9679 H   0  0  0  0  0  0
  -21.1492   -6.0535   25.9068 H   0  0  0  0  0  0
  -22.0593   -2.7588   23.2823 H   0  0  0  0  0  0
  -22.4100  -12.0080   22.4999 H   0  0  0  0  0  0
  -21.0911  -13.1157   22.2369 H   0  0  0  0  0  0
  -24.6750  -15.8428   20.5269 H   0  0  0  0  0  0
  -26.2889  -15.5854   20.0796 H   0  0  0  0  0  0
  -26.7255  -32.5467   23.1035 H   0  0  0  0  0  0
  -25.0168  -33.9799   25.0402 H   0  0  0  0  0  0
  -22.7283  -31.2942   21.3898 H   0  0  0  0  0  0
  -23.3819  -35.9491   23.3313 H   0  0  0  0  0  0
  -24.3532  -36.8841   22.2041 H   0  0  0  0  0  0
  -23.7240  -37.6389   23.6665 H   0  0  0  0  0  0
  -26.1407  -31.5234   20.6212 H   0  0  0  0  0  0
  -26.8470  -30.7798   22.0293 H   0  0  0  0  0  0
  -28.1093  -28.8591   21.2443 H   0  0  0  0  0  0
  -25.8805  -25.9178   18.9712 H   0  0  0  0  0  0
  -23.9682  -27.3290   18.9852 H   0  0  0  0  0  0
  -23.7176  -30.5618   19.3914 H   0  0  0  0  0  0
  -22.7681  -29.2001   19.8796 H   0  0  0  0  0  0
  -25.1324  -36.1754   25.0827 H   0  0  0  0  0  0
  -21.0095  -28.3228   24.1436 H   0  0  0  0  0  0
  -20.5903  -26.2239   23.3615 H   0  0  0  0  0  0
  -21.6684  -26.7480   22.1093 H   0  0  0  0  0  0
  -19.6915  -25.6271   21.1319 H   0  0  0  0  0  0
  -19.6722  -27.3207   20.6855 H   0  0  0  0  0  0
  -17.4266  -26.6846   21.4029 H   0  0  0  0  0  0
  -18.0196  -26.0048   22.9009 H   0  0  0  0  0  0
  -19.7978  -30.7394   24.2111 H   0  0  0  0  0  0
  -17.5033  -31.6283   24.5135 H   0  0  0  0  0  0
  -15.5391  -30.2897   23.7791 H   0  0  0  0  0  0
  -15.8731  -28.0769   22.7141 H   0  0  0  0  0  0
  -24.5791  -30.7296   25.7736 H   0  0  0  0  0  0
  -24.8854  -32.3140   26.4731 H   0  0  0  0  0  0
  -25.7850  -30.9136   27.0285 H   0  0  0  0  0  0
  -26.3024  -29.6783   24.1379 H   0  0  0  0  0  0
  -27.3987  -29.7387   25.4977 H   0  0  0  0  0  0
  -27.8892  -30.4341   23.9683 H   0  0  0  0  0  0
  -27.2581  -33.3790   26.2005 H   0  0  0  0  0  0
  -28.3833  -32.7039   25.0384 H   0  0  0  0  0  0
  -28.0630  -31.8688   26.5574 H   0  0  0  0  0  0
  -28.2569  -38.0064   24.7536 H   0  0  0  0  0  0
  -28.1049  -36.2614   24.6259 H   0  0  0  0  0  0
  -27.2264  -37.1317   25.8876 H   0  0  0  0  0  0
  -20.9458  -29.8507   21.6717 H   0  0  0  0  0  0
  -26.0122  -38.2780   24.1526 H   0  0  0  0  0  0
  -28.5082  -16.5965   18.0249 H   0  0  0  0  0  0
  -29.7835  -15.4119   17.8571 H   0  0  0  0  0  0
  -30.2037  -17.0772   18.0071 H   0  0  0  0  0  0
  -30.6112  -22.9796   21.5848 H   0  0  0  0  0  0
  -30.1349  -24.6665   21.7100 H   0  0  0  0  0  0
  -30.8682  -24.0769   20.2174 H   0  0  0  0  0  0
  -27.7566  -21.8310   19.3911 H   0  0  0  0  0  0
  -29.3605  -22.1046   18.8331 H   0  0  0  0  0  0
  -28.8581  -20.6058   21.4856 H   0  0  0  0  0  0
  -30.3439  -20.6873   20.6132 H   0  0  0  0  0  0
  -29.8191  -17.7421   21.5240 H   0  0  0  0  0  0
  -30.9063  -17.9636   20.2026 H   0  0  0  0  0  0
  -27.1254  -24.5161   19.6442 H   0  0  0  0  0  0
  -28.5632  -24.8227   18.7394 H   0  0  0  0  0  0
  -28.5959  -15.9586   20.2962 H   0  0  0  0  0  0
  -28.1624  -23.3378   21.3798 H   0  0  0  0  0  0
  -29.1330  -19.1245   18.8289 H   0  0  0  0  0  0
  -27.3201  -18.5068   21.0402 H   0  0  0  0  0  0
  -27.2464  -17.9839   19.4953 H   0  0  0  0  0  0
  -26.9510  -19.5267   19.8326 H   0  0  0  0  0  0
  1 25  1  0  0  0
  1 30  2  0  0  0
  1 77  1  0  0  0
  2  3  1  0  0  0
  2 25  1  0  0  0
  2 81  1  0  0  0
  2 82  1  0  0  0
  3  4  1  0  0  0
  3 83  1  0  0  0
  3 84  1  0  0  0
  4  5  1  0  0  0
  4 85  1  0  0  0
  4 86  1  0  0  0
  5  6  1  0  0  0
  5 26  1  0  0  0
  5 87  1  0  0  0
  6 25  1  0  0  0
  6 88  1  0  0  0
  6 89  1  0  0  0
  7  8  2  0  0  0
  7 26  1  0  0  0
  7 29  1  0  0  0
  8  9  1  0  0  0
  8 22  1  0  0  0
  9 10  1  0  0  0
  9 27  2  0  0  0
 10 11  2  0  0  0
 10 15  1  0  0  0
 11 12  1  0  0  0
 11 90  1  0  0  0
 12 13  2  0  0  0
 12 91  1  0  0  0
 13 14  1  0  0  0
 13 31  1  0  0  0
 14 15  2  0  0  0
 14 92  1  0  0  0
 15 93  1  0  0  0
 16 17  2  0  0  0
 16 21  1  0  0  0
 16 31  1  0  0  0
 17 18  1  0  0  0
 17 94  1  0  0  0
 18 19  2  0  0  0
 18 95  1  0  0  0
 19 20  1  0  0  0
 19 24  1  0  0  0
 20 21  2  0  0  0
 20 96  1  0  0  0
 21 23  1  0  0  0
 22 28  1  0  0  0
 22 32  2  0  0  0
 26 27  1  0  0  0
 28 97  1  0  0  0
 28 98  1  0  0  0
 29 99  1  0  0  0
 29100  1  0  0  0
 33 34  1  0  0  0
 33 66  1  0  0  0
 33 70  2  0  0  0
 34 36  1  0  0  0
 34 59  1  0  0  0
 34101  1  0  0  0
 35 44  2  0  0  0
 35 45  1  0  0  0
 35 68  1  0  0  0
 36 56  1  0  0  0
 36102  1  0  0  0
 37 39  1  0  0  0
 37 47  1  0  0  0
 37 66  1  0  0  0
 37103  1  0  0  0
 38 43  2  0  0  0
 38 46  1  0  0  0
 38 47  1  0  0  0
 39 64  1  0  0  0
 39 67  2  0  0  0
 40 52  1  0  0  0
 40 53  2  0  0  0
 40 58  1  0  0  0
 41104  1  0  0  0
 41105  1  0  0  0
 41106  1  0  0  0
 41 48  1  0  0  0
 42 43  1  0  0  0
 42 66  1  0  0  0
 42107  1  0  0  0
 42108  1  0  0  0
 43 44  1  0  0  0
 44109  1  0  0  0
 45 46  2  0  0  0
 45110  1  0  0  0
 46111  1  0  0  0
 47112  1  0  0  0
 47113  1  0  0  0
 48 56  1  0  0  0
 48 65  1  0  0  0
 48114  1  0  0  0
 49 50  1  0  0  0
 49 53  1  0  0  0
 49 64  1  0  0  0
 49115  1  0  0  0
 50 51  1  0  0  0
 50116  1  0  0  0
 50117  1  0  0  0
 51 52  1  0  0  0
 51118  1  0  0  0
 51119  1  0  0  0
 52120  1  0  0  0
 52121  1  0  0  0
 53 54  1  0  0  0
 54 55  2  0  0  0
 54122  1  0  0  0
 55 57  1  0  0  0
 55123  1  0  0  0
 56 69  2  0  0  0
 57 58  2  0  0  0
 57124  1  0  0  0
 58125  1  0  0  0
 59 60  1  0  0  0
 59 61  1  0  0  0
 59 62  1  0  0  0
 60126  1  0  0  0
 60127  1  0  0  0
 60128  1  0  0  0
 61129  1  0  0  0
 61130  1  0  0  0
 61131  1  0  0  0
 62132  1  0  0  0
 62133  1  0  0  0
 62134  1  0  0  0
 63 65  1  0  0  0
 63135  1  0  0  0
 63136  1  0  0  0
 63137  1  0  0  0
 64138  1  0  0  0
 65139  1  0  0  0
 68 76  1  0  0  0
 71140  1  0  0  0
 71141  1  0  0  0
 71142  1  0  0  0
 71 77  1  0  0  0
 72143  1  0  0  0
 72144  1  0  0  0
 72145  1  0  0  0
 72 78  1  0  0  0
 73 74  1  0  0  0
 73 78  1  0  0  0
 73146  1  0  0  0
 73147  1  0  0  0
 74 79  1  0  0  0
 74148  1  0  0  0
 74149  1  0  0  0
 75 77  1  0  0  0
 75 79  1  0  0  0
 75150  1  0  0  0
 75151  1  0  0  0
 76 78  1  0  0  0
 76152  1  0  0  0
 76153  1  0  0  0
 77154  1  0  0  0
 78155  1  0  0  0
 79 80  1  0  0  0
 79156  1  0  0  0
 80157  1  0  0  0
 80158  1  0  0  0
 80159  1  0  0  0
M  CHG  1  80   1
M  ISO  4   1 100  68 101  76 101  77 100
M  END
> <chiral flag>
0

> <version>
0

> <s_m_source_file>
/data/baiqing/PycharmProjects/Reinvent-master-3.2/result/LINK_invent/BTK/process_docking_weight1_custom_sum_contain_oxygen_bond_distance_aromatic_linkinvent_7_9_3/rearranged_h_0113.sdf

> <i_m_source_file_index>
72

> <r_mmod_Potential_Energy-OPLS-2005>
213.467071533203

> <r_mmod_Stretch_Energy-OPLS-2005>
207.804107666016

> <r_mmod_Bend_Energy-OPLS-2005>
222.359237670898

> <r_mmod_Torsional_Energy-OPLS-2005>
236.290893554688

> <r_mmod_Improper_Torsional_Energy-OPLS-2005>
10.4219675064087

> <r_mmod_Van_der_Waal_Energy-OPLS-2005>
114.708274841309

> <r_mmod_Electrostatic_Energy-OPLS-2005>
-234.90071105957

> <r_mmod_Solvation_Energy-OPLS-2005>
-497.505554199219

> <b_mmod_Minimization_Converged-OPLS-2005>
0

> <r_mmod_RMS_Derivative-OPLS-2005>
8.16436958312988

$$$$
74
                    3D
 Structure written by MMmdl.
174182  0  0  1  0            999 V2000
  -30.6977  -14.4423   20.5337 C   0  0  0  0  0  0
  -30.4119  -12.2649   19.4298 C   0  0  0  0  0  0
  -29.4984  -12.4915   18.2078 C   0  0  0  0  0  0
  -28.0139  -12.3626   18.6111 C   0  0  0  0  0  0
  -27.6588  -13.2000   19.8705 C   0  0  2  0  0  0
  -28.6980  -12.9888   20.9934 C   0  0  0  0  0  0
  -25.2599  -13.8130   20.5658 C   0  0  0  0  0  0
  -24.1866  -13.0440   20.9200 C   0  0  0  0  0  0
  -24.6406  -11.6884   20.8747 C   0  0  0  0  0  0
  -23.9068  -10.4277   21.0399 C   0  0  0  0  0  0
  -24.3619   -9.4201   21.9177 C   0  0  0  0  0  0
  -23.6313   -8.2233   22.0750 C   0  0  0  0  0  0
  -22.4270   -8.0276   21.3571 C   0  0  0  0  0  0
  -21.9916   -9.0242   20.4650 C   0  0  0  0  0  0
  -22.7240  -10.2130   20.3050 C   0  0  0  0  0  0
  -21.6871   -6.0747   22.5294 C   0  0  0  0  0  0
  -21.4010   -6.5644   23.8226 C   0  0  0  0  0  0
  -21.3663   -5.6797   24.9182 C   0  0  0  0  0  0
  -21.6052   -4.3063   24.7229 C   0  0  0  0  0  0
  -21.8822   -3.8157   23.4346 C   0  0  0  0  0  0
  -21.9201   -4.6978   22.3402 C   0  0  0  0  0  0
  -22.7884  -13.5233   21.1850 C   0  0  0  0  0  0
  -22.1677   -4.2177   21.0983 F   0  0  0  0  0  0
  -21.5632   -3.4525   25.7730 F   0  0  0  0  0  0
  -30.0298  -13.2632   20.4358 N   0  0  0  0  0  0
  -26.3027  -12.9297   20.3339 N   0  0  0  0  0  0
  -25.9330  -11.6465   20.5788 N   0  0  0  0  0  0
  -22.0502  -12.8237   22.0393 N   0  0  0  0  0  0
  -25.4316  -15.1848   20.3978 N   0  0  0  0  0  0
  -31.8791  -14.5754   20.1908 O   0  0  0  0  0  0
  -21.6663   -6.8863   21.4244 O   0  0  0  0  0  0
  -22.3564  -14.5533   20.6683 O   0  0  0  0  0  0
  -24.6106  -31.8691   23.2067 C   0  0  0  0  0  0
  -25.8979  -32.4833   23.8395 C   0  0  1  0  0  0
  -27.2404  -27.4553   20.1113 C   0  0  0  0  0  0
  -25.5845  -33.8632   24.2352 N   0  0  0  0  0  0
  -23.4014  -30.4880   21.5458 C   0  0  2  0  0  0
  -24.8510  -28.9533   20.1194 C   0  0  0  0  0  0
  -22.7397  -29.4656   22.4975 C   0  0  0  0  0  0
  -18.0261  -28.1378   22.8465 C   0  0  0  0  0  0
  -24.1479  -36.7335   23.2648 C   0  0  0  0  0  0
  -25.9234  -30.8498   21.3474 C   0  0  0  0  0  0
  -26.0095  -29.4781   20.7094 C   0  0  0  0  0  0
  -27.2099  -28.7369   20.7005 C   0  0  0  0  0  0
  -26.0739  -26.9411   19.5094 C   0  0  0  0  0  0
  -24.8790  -27.6828   19.5151 C   0  0  0  0  0  0
  -23.6109  -29.8138   20.1641 C   0  0  0  0  0  0
  -25.4087  -36.3143   24.0360 C   0  0  1  0  0  0
  -20.5851  -28.3643   23.1323 C   0  0  2  0  0  0
  -20.6747  -26.9388   22.5418 C   0  0  0  0  0  0
  -19.5747  -26.6387   21.5200 C   0  0  0  0  0  0
  -18.1924  -26.7932   22.1609 C   0  0  0  0  0  0
  -19.1526  -28.8819   23.2905 C   0  0  0  0  0  0
  -18.9461  -30.1413   23.8935 C   0  0  0  0  0  0
  -17.6473  -30.6594   24.0549 C   0  0  0  0  0  0
  -25.9003  -34.9495   23.5179 C   0  0  0  0  0  0
  -16.5352  -29.9110   23.6293 C   0  0  0  0  0  0
  -16.7263  -28.6520   23.0336 C   0  0  0  0  0  0
  -26.4385  -31.6596   25.0700 C   0  0  0  0  0  0
  -25.3645  -31.3723   26.1450 C   0  0  0  0  0  0
  -27.0174  -30.3048   24.5979 C   0  0  0  0  0  0
  -27.5951  -32.4276   25.7489 C   0  0  0  0  0  0
  -27.5594  -37.1817   24.8467 C   0  0  0  0  0  0
  -21.4124  -29.3042   22.3735 N   0  0  0  0  0  0
  -26.4293  -37.3817   23.9431 N   0  0  0  0  0  0
  -24.6636  -31.0814   22.0935 N   0  0  0  0  0  0
  -23.4181  -28.8183   23.2994 O   0  0  0  0  0  0
  -28.4106  -26.7409   20.0777 O   0  0  0  0  0  0
  -26.5584  -34.8947   22.4735 O   0  0  0  0  0  0
  -23.5304  -32.1384   23.7505 O   0  0  0  0  0  0
  -28.4517  -17.2148   21.6765 C   0  0  0  0  0  0
  -29.7025  -16.3025   21.7806 C   0  0  0  0  0  0
  -29.9910  -16.4125   19.3761 C   0  0  0  0  0  0
  -28.4174  -18.1198   20.4085 C   0  0  2  0  0  0
  -28.7060  -17.2372   19.1537 C   0  0  1  0  0  0
  -27.4887  -18.7205   17.3925 C   0  0  0  0  0  0
  -29.5986  -20.7015   22.6457 C   0  0  0  0  0  0
  -29.9636  -25.8041   21.5819 C   0  0  0  0  0  0
  -29.3340  -19.3825   20.5016 C   0  0  0  0  0  0
  -28.9191  -21.9234   20.5056 C   0  0  0  0  0  0
  -28.2766  -24.3270   20.3289 C   0  0  0  0  0  0
  -28.7776  -17.9940   17.7972 C   0  0  2  0  0  0
  -28.8164  -20.5978   21.3249 C   0  0  2  0  0  0
  -28.5323  -25.6822   21.0376 C   0  0  2  0  0  0
  -29.8932  -15.5307   20.5463 N   0  0  0  0  0  0
  -28.4155  -23.1326   21.2077 N   0  3  0  0  0  0
  -29.0545  -17.1326   16.8189 F   0  0  0  0  0  0
  -31.4633  -12.3364   19.1461 H   0  0  0  0  0  0
  -30.2728  -11.2567   19.8257 H   0  0  0  0  0  0
  -29.7366  -11.7752   17.4218 H   0  0  0  0  0  0
  -29.6835  -13.4808   17.7863 H   0  0  0  0  0  0
  -27.8126  -11.3048   18.7962 H   0  0  0  0  0  0
  -27.3797  -12.6557   17.7733 H   0  0  0  0  0  0
  -27.6927  -14.2468   19.5708 H   0  0  0  0  0  0
  -28.6529  -11.9632   21.3642 H   0  0  0  0  0  0
  -28.4788  -13.6265   21.8495 H   0  0  0  0  0  0
  -25.2760   -9.5723   22.4748 H   0  0  0  0  0  0
  -24.0078   -7.4622   22.7439 H   0  0  0  0  0  0
  -21.0875   -8.8731   19.8933 H   0  0  0  0  0  0
  -22.3683  -10.9669   19.6167 H   0  0  0  0  0  0
  -21.1982   -7.6150   23.9745 H   0  0  0  0  0  0
  -21.1502   -6.0513   25.9102 H   0  0  0  0  0  0
  -22.0597   -2.7612   23.2838 H   0  0  0  0  0  0
  -22.4146  -11.9942   22.4841 H   0  0  0  0  0  0
  -21.1105  -13.1263   22.2521 H   0  0  0  0  0  0
  -24.6625  -15.8373   20.4932 H   0  0  0  0  0  0
  -26.2859  -15.6183   20.0764 H   0  0  0  0  0  0
  -26.7045  -32.5605   23.1179 H   0  0  0  0  0  0
  -24.9908  -33.9763   25.0441 H   0  0  0  0  0  0
  -22.6914  -31.3047   21.4009 H   0  0  0  0  0  0
  -23.3740  -35.9673   23.3320 H   0  0  0  0  0  0
  -24.3600  -36.8938   22.2068 H   0  0  0  0  0  0
  -23.7212  -37.6536   23.6645 H   0  0  0  0  0  0
  -26.0130  -31.6068   20.5664 H   0  0  0  0  0  0
  -26.8201  -30.9292   21.9503 H   0  0  0  0  0  0
  -28.1133  -29.1464   21.1336 H   0  0  0  0  0  0
  -26.0921  -25.9762   19.0243 H   0  0  0  0  0  0
  -23.9933  -27.2729   19.0512 H   0  0  0  0  0  0
  -23.7174  -30.5800   19.3958 H   0  0  0  0  0  0
  -22.7416  -29.2208   19.8719 H   0  0  0  0  0  0
  -25.1249  -36.2030   25.0850 H   0  0  0  0  0  0
  -20.9937  -28.3219   24.1449 H   0  0  0  0  0  0
  -20.5577  -26.2285   23.3608 H   0  0  0  0  0  0
  -21.6624  -26.7399   22.1258 H   0  0  0  0  0  0
  -19.6885  -25.6294   21.1241 H   0  0  0  0  0  0
  -19.6707  -27.3171   20.6705 H   0  0  0  0  0  0
  -17.4182  -26.6644   21.4025 H   0  0  0  0  0  0
  -18.0342  -26.0101   22.9030 H   0  0  0  0  0  0
  -19.7941  -30.7198   24.2373 H   0  0  0  0  0  0
  -17.5038  -31.6280   24.5144 H   0  0  0  0  0  0
  -15.5358  -30.3043   23.7591 H   0  0  0  0  0  0
  -15.8653  -28.0840   22.7059 H   0  0  0  0  0  0
  -24.5769  -30.7135   25.7808 H   0  0  0  0  0  0
  -24.8871  -32.2892   26.4934 H   0  0  0  0  0  0
  -25.7990  -30.8915   27.0204 H   0  0  0  0  0  0
  -26.2676  -29.6897   24.0994 H   0  0  0  0  0  0
  -27.3936  -29.7236   25.4412 H   0  0  0  0  0  0
  -27.8523  -30.4395   23.9092 H   0  0  0  0  0  0
  -27.2567  -33.3548   26.2138 H   0  0  0  0  0  0
  -28.3786  -32.6850   25.0329 H   0  0  0  0  0  0
  -28.0582  -31.8367   26.5408 H   0  0  0  0  0  0
  -28.2608  -38.0120   24.7512 H   0  0  0  0  0  0
  -28.1102  -36.2640   24.6291 H   0  0  0  0  0  0
  -27.2327  -37.1487   25.8880 H   0  0  0  0  0  0
  -20.9263  -29.8824   21.7015 H   0  0  0  0  0  0
  -26.0211  -38.2920   24.1408 H   0  0  0  0  0  0
  -28.3573  -17.8191   22.5795 H   0  0  0  0  0  0
  -27.5751  -16.5631   21.6681 H   0  0  0  0  0  0
  -29.5985  -15.6270   22.6338 H   0  0  0  0  0  0
  -30.5958  -16.8979   21.9764 H   0  0  0  0  0  0
  -30.8640  -17.0618   19.4771 H   0  0  0  0  0  0
  -30.1668  -15.7977   18.4889 H   0  0  0  0  0  0
  -27.3916  -18.4768   20.3081 H   0  0  0  0  0  0
  -27.8818  -16.5274   19.0614 H   0  0  0  0  0  0
  -26.7335  -18.0101   17.0538 H   0  0  0  0  0  0
  -27.6913  -19.4103   16.5716 H   0  0  0  0  0  0
  -27.0604  -19.3075   18.2027 H   0  0  0  0  0  0
  -29.6037  -19.7545   23.1848 H   0  0  0  0  0  0
  -29.1626  -21.4495   23.3067 H   0  0  0  0  0  0
  -30.6392  -20.9802   22.4632 H   0  0  0  0  0  0
  -30.2058  -25.0140   22.2901 H   0  0  0  0  0  0
  -30.1053  -26.7582   22.0936 H   0  0  0  0  0  0
  -30.6889  -25.7599   20.7714 H   0  0  0  0  0  0
  -29.4760  -19.7811   19.5028 H   0  0  0  0  0  0
  -30.3410  -19.0923   20.8095 H   0  0  0  0  0  0
  -28.3664  -21.8143   19.5699 H   0  0  0  0  0  0
  -29.9596  -22.0973   20.2233 H   0  0  0  0  0  0
  -28.9520  -24.2453   19.4776 H   0  0  0  0  0  0
  -27.2688  -24.3002   19.9185 H   0  0  0  0  0  0
  -29.6191  -18.6882   17.7738 H   0  0  0  0  0  0
  -27.7641  -20.4301   21.5551 H   0  0  0  0  0  0
  -27.8313  -25.8171   21.8643 H   0  0  0  0  0  0
  -29.0564  -23.3441   21.9565 H   0  0  0  0  0  0
  -27.5186  -22.9308   21.6237 H   0  0  0  0  0  0
  1 25  1  0  0  0
  1 30  2  0  0  0
  1 85  1  0  0  0
  2  3  1  0  0  0
  2 25  1  0  0  0
  2 88  1  0  0  0
  2 89  1  0  0  0
  3  4  1  0  0  0
  3 90  1  0  0  0
  3 91  1  0  0  0
  4  5  1  0  0  0
  4 92  1  0  0  0
  4 93  1  0  0  0
  5  6  1  0  0  0
  5 26  1  0  0  0
  5 94  1  0  0  0
  6 25  1  0  0  0
  6 95  1  0  0  0
  6 96  1  0  0  0
  7  8  2  0  0  0
  7 26  1  0  0  0
  7 29  1  0  0  0
  8  9  1  0  0  0
  8 22  1  0  0  0
  9 10  1  0  0  0
  9 27  2  0  0  0
 10 11  2  0  0  0
 10 15  1  0  0  0
 11 12  1  0  0  0
 11 97  1  0  0  0
 12 13  2  0  0  0
 12 98  1  0  0  0
 13 14  1  0  0  0
 13 31  1  0  0  0
 14 15  2  0  0  0
 14 99  1  0  0  0
 15100  1  0  0  0
 16 17  2  0  0  0
 16 21  1  0  0  0
 16 31  1  0  0  0
 17 18  1  0  0  0
 17101  1  0  0  0
 18 19  2  0  0  0
 18102  1  0  0  0
 19 20  1  0  0  0
 19 24  1  0  0  0
 20 21  2  0  0  0
 20103  1  0  0  0
 21 23  1  0  0  0
 22 28  1  0  0  0
 22 32  2  0  0  0
 26 27  1  0  0  0
 28104  1  0  0  0
 28105  1  0  0  0
 29106  1  0  0  0
 29107  1  0  0  0
 33 34  1  0  0  0
 33 66  1  0  0  0
 33 70  2  0  0  0
 34 36  1  0  0  0
 34 59  1  0  0  0
 34108  1  0  0  0
 35 44  2  0  0  0
 35 45  1  0  0  0
 35 68  1  0  0  0
 36 56  1  0  0  0
 36109  1  0  0  0
 37 39  1  0  0  0
 37 47  1  0  0  0
 37 66  1  0  0  0
 37110  1  0  0  0
 38 43  2  0  0  0
 38 46  1  0  0  0
 38 47  1  0  0  0
 39 64  1  0  0  0
 39 67  2  0  0  0
 40 52  1  0  0  0
 40 53  2  0  0  0
 40 58  1  0  0  0
 41111  1  0  0  0
 41112  1  0  0  0
 41113  1  0  0  0
 41 48  1  0  0  0
 42 43  1  0  0  0
 42 66  1  0  0  0
 42114  1  0  0  0
 42115  1  0  0  0
 43 44  1  0  0  0
 44116  1  0  0  0
 45 46  2  0  0  0
 45117  1  0  0  0
 46118  1  0  0  0
 47119  1  0  0  0
 47120  1  0  0  0
 48 56  1  0  0  0
 48 65  1  0  0  0
 48121  1  0  0  0
 49 50  1  0  0  0
 49 53  1  0  0  0
 49 64  1  0  0  0
 49122  1  0  0  0
 50 51  1  0  0  0
 50123  1  0  0  0
 50124  1  0  0  0
 51 52  1  0  0  0
 51125  1  0  0  0
 51126  1  0  0  0
 52127  1  0  0  0
 52128  1  0  0  0
 53 54  1  0  0  0
 54 55  2  0  0  0
 54129  1  0  0  0
 55 57  1  0  0  0
 55130  1  0  0  0
 56 69  2  0  0  0
 57 58  2  0  0  0
 57131  1  0  0  0
 58132  1  0  0  0
 59 60  1  0  0  0
 59 61  1  0  0  0
 59 62  1  0  0  0
 60133  1  0  0  0
 60134  1  0  0  0
 60135  1  0  0  0
 61136  1  0  0  0
 61137  1  0  0  0
 61138  1  0  0  0
 62139  1  0  0  0
 62140  1  0  0  0
 62141  1  0  0  0
 63 65  1  0  0  0
 63142  1  0  0  0
 63143  1  0  0  0
 63144  1  0  0  0
 64145  1  0  0  0
 65146  1  0  0  0
 68 84  1  0  0  0
 71 72  1  0  0  0
 71 74  1  0  0  0
 71147  1  0  0  0
 71148  1  0  0  0
 72 85  1  0  0  0
 72149  1  0  0  0
 72150  1  0  0  0
 73 85  1  0  0  0
 73151  1  0  0  0
 73152  1  0  0  0
 73 75  1  0  0  0
 74 75  1  0  0  0
 74 79  1  0  0  0
 74153  1  0  0  0
 75 82  1  0  0  0
 75154  1  0  0  0
 76155  1  0  0  0
 76156  1  0  0  0
 76157  1  0  0  0
 76 82  1  0  0  0
 77158  1  0  0  0
 77159  1  0  0  0
 77160  1  0  0  0
 77 83  1  0  0  0
 78161  1  0  0  0
 78162  1  0  0  0
 78163  1  0  0  0
 78 84  1  0  0  0
 79 83  1  0  0  0
 79164  1  0  0  0
 79165  1  0  0  0
 80 83  1  0  0  0
 80 86  1  0  0  0
 80166  1  0  0  0
 80167  1  0  0  0
 81 84  1  0  0  0
 81 86  1  0  0  0
 81168  1  0  0  0
 81169  1  0  0  0
 82 87  1  0  0  0
 82170  1  0  0  0
 83171  1  0  0  0
 84172  1  0  0  0
 86173  1  0  0  0
 86174  1  0  0  0
M  CHG  1  86   1
M  ISO  4   1 100  68 101  84 101  85 100
M  END
> <chiral flag>
0

> <version>
0

> <s_m_source_file>
/data/baiqing/PycharmProjects/Reinvent-master-3.2/result/LINK_invent/BTK/process_docking_weight1_custom_sum_contain_oxygen_bond_distance_aromatic_linkinvent_7_9_3/rearranged_h_0113.sdf

> <i_m_source_file_index>
73

> <r_mmod_Potential_Energy-OPLS-2005>
94.2988357543945

> <r_mmod_Stretch_Energy-OPLS-2005>
39.3977012634277

> <r_mmod_Bend_Energy-OPLS-2005>
108.137985229492

> <r_mmod_Torsional_Energy-OPLS-2005>
397.284118652344

> <r_mmod_Improper_Torsional_Energy-OPLS-2005>
18.5912208557129

> <r_mmod_Van_der_Waal_Energy-OPLS-2005>
129.401718139648

> <r_mmod_Electrostatic_Energy-OPLS-2005>
-187.33088684082

> <r_mmod_Solvation_Energy-OPLS-2005>
-425.155700683594

> <b_mmod_Minimization_Converged-OPLS-2005>
0

> <r_mmod_RMS_Derivative-OPLS-2005>
5.24514436721802

$$$$
75
                    3D
 Structure written by MMmdl.
174183  0  0  1  0            999 V2000
  -30.5822  -14.8880   20.4160 C   0  0  0  0  0  0
  -30.4333  -12.5486   19.4927 C   0  0  0  0  0  0
  -29.5159  -12.5129   18.2512 C   0  0  0  0  0  0
  -28.0470  -12.3142   18.6699 C   0  0  0  0  0  0
  -27.6304  -13.2462   19.8390 C   0  0  2  0  0  0
  -28.6739  -13.2643   20.9758 C   0  0  0  0  0  0
  -25.2469  -13.8216   20.5712 C   0  0  0  0  0  0
  -24.1777  -13.0450   20.9235 C   0  0  0  0  0  0
  -24.6390  -11.6931   20.8758 C   0  0  0  0  0  0
  -23.9078  -10.4294   21.0407 C   0  0  0  0  0  0
  -24.3627   -9.4205   21.9182 C   0  0  0  0  0  0
  -23.6298   -8.2242   22.0750 C   0  0  0  0  0  0
  -22.4277   -8.0283   21.3542 C   0  0  0  0  0  0
  -21.9921   -9.0251   20.4640 C   0  0  0  0  0  0
  -22.7251  -10.2131   20.3051 C   0  0  0  0  0  0
  -21.6853   -6.0736   22.5276 C   0  0  0  0  0  0
  -21.4011   -6.5638   23.8208 C   0  0  0  0  0  0
  -21.3657   -5.6789   24.9167 C   0  0  0  0  0  0
  -21.6044   -4.3054   24.7213 C   0  0  0  0  0  0
  -21.8821   -3.8150   23.4334 C   0  0  0  0  0  0
  -21.9195   -4.6970   22.3393 C   0  0  0  0  0  0
  -22.7805  -13.5242   21.1869 C   0  0  0  0  0  0
  -22.1666   -4.2164   21.0968 F   0  0  0  0  0  0
  -21.5628   -3.4532   25.7719 F   0  0  0  0  0  0
  -29.9564  -13.6485   20.3748 N   0  0  0  0  0  0
  -26.2885  -12.9447   20.3246 N   0  0  0  0  0  0
  -25.9325  -11.6581   20.5748 N   0  0  0  0  0  0
  -22.0428  -12.8215   22.0388 N   0  0  0  0  0  0
  -25.4129  -15.1937   20.4094 N   0  0  0  0  0  0
  -31.7876  -14.9278   20.1467 O   0  0  0  0  0  0
  -21.6644   -6.8880   21.4238 O   0  0  0  0  0  0
  -22.3525  -14.5583   20.6744 O   0  0  0  0  0  0
  -24.6412  -31.8458   23.1902 C   0  0  0  0  0  0
  -25.9206  -32.4704   23.8276 C   0  0  1  0  0  0
  -27.2200  -27.1765   20.1376 C   0  0  0  0  0  0
  -25.5987  -33.8510   24.2216 N   0  0  0  0  0  0
  -23.4415  -30.4658   21.5356 C   0  0  2  0  0  0
  -24.8870  -28.8954   20.1078 C   0  0  0  0  0  0
  -22.7537  -29.4562   22.4880 C   0  0  0  0  0  0
  -18.0290  -28.1396   22.8477 C   0  0  0  0  0  0
  -24.1501  -36.7239   23.2640 C   0  0  0  0  0  0
  -25.9940  -30.7311   21.3816 C   0  0  0  0  0  0
  -26.0613  -29.3469   20.7208 C   0  0  0  0  0  0
  -27.2262  -28.5019   20.7179 C   0  0  0  0  0  0
  -26.0167  -26.8044   19.4998 C   0  0  0  0  0  0
  -24.8757  -27.6359   19.4853 C   0  0  0  0  0  0
  -23.6607  -29.7911   20.1554 C   0  0  0  0  0  0
  -25.4132  -36.3033   24.0320 C   0  0  1  0  0  0
  -20.5898  -28.3719   23.1241 C   0  0  2  0  0  0
  -20.6783  -26.9423   22.5403 C   0  0  0  0  0  0
  -19.5763  -26.6378   21.5214 C   0  0  0  0  0  0
  -18.1940  -26.7940   22.1612 C   0  0  0  0  0  0
  -19.1547  -28.8880   23.2855 C   0  0  0  0  0  0
  -18.9465  -30.1477   23.8877 C   0  0  0  0  0  0
  -17.6461  -30.6594   24.0561 C   0  0  0  0  0  0
  -25.9077  -34.9415   23.5069 C   0  0  0  0  0  0
  -16.5353  -29.9078   23.6343 C   0  0  0  0  0  0
  -16.7272  -28.6499   23.0358 C   0  0  0  0  0  0
  -26.4540  -31.6560   25.0707 C   0  0  0  0  0  0
  -25.3729  -31.3730   26.1399 C   0  0  0  0  0  0
  -27.0436  -30.2977   24.6278 C   0  0  0  0  0  0
  -27.6100  -32.4313   25.7463 C   0  0  0  0  0  0
  -27.5583  -37.1763   24.8459 C   0  0  0  0  0  0
  -21.4229  -29.3058   22.3623 N   0  0  0  0  0  0
  -26.4293  -37.3748   23.9405 N   0  0  0  0  0  0
  -24.7123  -31.0343   22.0914 N   0  0  0  0  0  0
  -23.4193  -28.8105   23.3016 O   0  0  0  0  0  0
  -28.3206  -26.2658   20.2231 O   0  0  0  0  0  0
  -26.5635  -34.8909   22.4626 O   0  0  0  0  0  0
  -23.5543  -32.1314   23.7153 O   0  0  0  0  0  0
  -28.3389  -19.4336   20.1393 C   0  0  0  0  0  0
  -30.4995  -20.1993   20.5984 C   0  0  0  0  0  0
  -29.6888  -19.0366   20.3847 C   0  0  0  0  0  0
  -27.8867  -20.8202   20.1931 C   0  0  0  0  0  0
  -28.7918  -21.9156   20.4582 C   0  0  0  0  0  0
  -23.1748  -21.3786   20.4986 C   0  0  0  0  0  0
  -23.5539  -19.0608   21.3975 C   0  0  0  0  0  0
  -21.7546  -20.9495   20.0627 C   0  0  0  0  0  0
  -22.1366  -18.6660   20.9332 C   0  0  0  0  0  0
  -24.1447  -20.1752   20.5109 C   0  0  0  0  0  0
  -29.1293  -23.9030   22.0868 C   0  0  0  0  0  0
  -30.3872  -17.5450   20.2862 C   0  0  0  0  0  0
  -26.4055  -21.0767   19.9015 C   0  0  0  0  0  0
  -28.3665  -24.7850   19.7806 C   0  0  0  0  0  0
  -28.3837  -23.4810   20.8095 C   0  0  1  0  0  0
  -30.0948  -21.5255   20.6238 N   0  0  0  0  0  0
  -29.8506  -16.0949   20.5279 N   0  0  0  0  0  0
  -21.2339  -19.8381   20.8921 N   0  3  0  0  0  0
  -25.5146  -20.5412   20.9592 N   0  3  0  0  0  0
  -31.4698  -12.6886   19.1812 H   0  0  0  0  0  0
  -30.4115  -11.5953   20.0231 H   0  0  0  0  0  0
  -29.8246  -11.7147   17.5749 H   0  0  0  0  0  0
  -29.6169  -13.4437   17.6915 H   0  0  0  0  0  0
  -27.9328  -11.2716   18.9698 H   0  0  0  0  0  0
  -27.3856  -12.4557   17.8154 H   0  0  0  0  0  0
  -27.5961  -14.2499   19.4151 H   0  0  0  0  0  0
  -28.7456  -12.2879   21.4567 H   0  0  0  0  0  0
  -28.3851  -13.9756   21.7513 H   0  0  0  0  0  0
  -25.2770   -9.5679   22.4766 H   0  0  0  0  0  0
  -24.0007   -7.4628   22.7457 H   0  0  0  0  0  0
  -21.0867   -8.8761   19.8929 H   0  0  0  0  0  0
  -22.3714  -10.9666   19.6160 H   0  0  0  0  0  0
  -21.2003   -7.6143   23.9718 H   0  0  0  0  0  0
  -21.1481   -6.0512   25.9072 H   0  0  0  0  0  0
  -22.0608   -2.7617   23.2823 H   0  0  0  0  0  0
  -22.4037  -11.9869   22.4770 H   0  0  0  0  0  0
  -21.1024  -13.1207   22.2532 H   0  0  0  0  0  0
  -24.6293  -15.8296   20.4892 H   0  0  0  0  0  0
  -26.2409  -15.6215   20.0172 H   0  0  0  0  0  0
  -26.7266  -32.5308   23.0997 H   0  0  0  0  0  0
  -25.0213  -33.9638   25.0418 H   0  0  0  0  0  0
  -22.7442  -31.2914   21.3822 H   0  0  0  0  0  0
  -23.3798  -35.9532   23.3271 H   0  0  0  0  0  0
  -24.3594  -36.8903   22.2062 H   0  0  0  0  0  0
  -23.7221  -37.6413   23.6687 H   0  0  0  0  0  0
  -26.1504  -31.4896   20.6131 H   0  0  0  0  0  0
  -26.8648  -30.7721   22.0243 H   0  0  0  0  0  0
  -28.1241  -28.8465   21.2111 H   0  0  0  0  0  0
  -25.9170  -25.8373   19.0331 H   0  0  0  0  0  0
  -23.9735  -27.2817   19.0057 H   0  0  0  0  0  0
  -23.7837  -30.5618   19.3939 H   0  0  0  0  0  0
  -22.7776  -29.2241   19.8559 H   0  0  0  0  0  0
  -25.1321  -36.1863   25.0812 H   0  0  0  0  0  0
  -20.9998  -28.3314   24.1358 H   0  0  0  0  0  0
  -20.5716  -26.2322   23.3614 H   0  0  0  0  0  0
  -21.6645  -26.7462   22.1181 H   0  0  0  0  0  0
  -19.6933  -25.6287   21.1256 H   0  0  0  0  0  0
  -19.6718  -27.3177   20.6737 H   0  0  0  0  0  0
  -17.4216  -26.6711   21.3995 H   0  0  0  0  0  0
  -18.0319  -26.0076   22.8999 H   0  0  0  0  0  0
  -19.7941  -30.7308   24.2236 H   0  0  0  0  0  0
  -17.5005  -31.6274   24.5156 H   0  0  0  0  0  0
  -15.5353  -30.2970   23.7690 H   0  0  0  0  0  0
  -15.8666  -28.0813   22.7086 H   0  0  0  0  0  0
  -24.5895  -30.7114   25.7672 H   0  0  0  0  0  0
  -24.8946  -32.2921   26.4803 H   0  0  0  0  0  0
  -25.8003  -30.8876   27.0184 H   0  0  0  0  0  0
  -26.3073  -29.6657   24.1312 H   0  0  0  0  0  0
  -27.4107  -29.7304   25.4839 H   0  0  0  0  0  0
  -27.8934  -30.4243   23.9569 H   0  0  0  0  0  0
  -27.2740  -33.3650   26.1972 H   0  0  0  0  0  0
  -28.3929  -32.6808   25.0288 H   0  0  0  0  0  0
  -28.0743  -31.8480   26.5419 H   0  0  0  0  0  0
  -28.2570  -38.0091   24.7556 H   0  0  0  0  0  0
  -28.1117  -36.2626   24.6237 H   0  0  0  0  0  0
  -27.2293  -37.1343   25.8858 H   0  0  0  0  0  0
  -20.9429  -29.8742   21.6784 H   0  0  0  0  0  0
  -26.0169  -38.2816   24.1422 H   0  0  0  0  0  0
  -27.6258  -18.6590   19.8966 H   0  0  0  0  0  0
  -31.5602  -20.0614   20.7511 H   0  0  0  0  0  0
  -23.1268  -21.8371   21.4873 H   0  0  0  0  0  0
  -23.5365  -22.1526   19.8209 H   0  0  0  0  0  0
  -24.1938  -18.1778   21.3656 H   0  0  0  0  0  0
  -23.5235  -19.3807   22.4400 H   0  0  0  0  0  0
  -21.7642  -20.6362   19.0174 H   0  0  0  0  0  0
  -21.0671  -21.7944   20.1245 H   0  0  0  0  0  0
  -21.7204  -17.9087   21.5990 H   0  0  0  0  0  0
  -22.1801  -18.2140   19.9409 H   0  0  0  0  0  0
  -24.2092  -19.7715   19.4984 H   0  0  0  0  0  0
  -28.9729  -23.1841   22.8909 H   0  0  0  0  0  0
  -28.7831  -24.8733   22.4431 H   0  0  0  0  0  0
  -30.2029  -23.9795   21.9089 H   0  0  0  0  0  0
  -31.2714  -17.6115   20.9231 H   0  0  0  0  0  0
  -30.7992  -17.5170   19.2754 H   0  0  0  0  0  0
  -26.1924  -20.5927   18.9474 H   0  0  0  0  0  0
  -26.1898  -22.1331   19.7409 H   0  0  0  0  0  0
  -27.6217  -24.5996   19.0097 H   0  0  0  0  0  0
  -29.3066  -24.7247   19.2322 H   0  0  0  0  0  0
  -27.3498  -23.4172   21.1431 H   0  0  0  0  0  0
  -28.8642  -15.9973   20.7135 H   0  0  0  0  0  0
  -20.3449  -19.5444   20.5168 H   0  0  0  0  0  0
  -21.0558  -20.1643   21.8288 H   0  0  0  0  0  0
  -25.9433  -19.6991   21.3038 H   0  0  0  0  0  0
  -25.4747  -21.1833   21.7346 H   0  0  0  0  0  0
  1 25  1  0  0  0
  1 30  2  0  0  0
  1 87  1  0  0  0
  2  3  1  0  0  0
  2 25  1  0  0  0
  2 90  1  0  0  0
  2 91  1  0  0  0
  3  4  1  0  0  0
  3 92  1  0  0  0
  3 93  1  0  0  0
  4  5  1  0  0  0
  4 94  1  0  0  0
  4 95  1  0  0  0
  5  6  1  0  0  0
  5 26  1  0  0  0
  5 96  1  0  0  0
  6 25  1  0  0  0
  6 97  1  0  0  0
  6 98  1  0  0  0
  7  8  2  0  0  0
  7 26  1  0  0  0
  7 29  1  0  0  0
  8  9  1  0  0  0
  8 22  1  0  0  0
  9 10  1  0  0  0
  9 27  2  0  0  0
 10 11  2  0  0  0
 10 15  1  0  0  0
 11 12  1  0  0  0
 11 99  1  0  0  0
 12 13  2  0  0  0
 12100  1  0  0  0
 13 14  1  0  0  0
 13 31  1  0  0  0
 14 15  2  0  0  0
 14101  1  0  0  0
 15102  1  0  0  0
 16 17  2  0  0  0
 16 21  1  0  0  0
 16 31  1  0  0  0
 17 18  1  0  0  0
 17103  1  0  0  0
 18 19  2  0  0  0
 18104  1  0  0  0
 19 20  1  0  0  0
 19 24  1  0  0  0
 20 21  2  0  0  0
 20105  1  0  0  0
 21 23  1  0  0  0
 22 28  1  0  0  0
 22 32  2  0  0  0
 26 27  1  0  0  0
 28106  1  0  0  0
 28107  1  0  0  0
 29108  1  0  0  0
 29109  1  0  0  0
 33 34  1  0  0  0
 33 66  1  0  0  0
 33 70  2  0  0  0
 34 36  1  0  0  0
 34 59  1  0  0  0
 34110  1  0  0  0
 35 44  2  0  0  0
 35 45  1  0  0  0
 35 68  1  0  0  0
 36 56  1  0  0  0
 36111  1  0  0  0
 37 39  1  0  0  0
 37 47  1  0  0  0
 37 66  1  0  0  0
 37112  1  0  0  0
 38 43  2  0  0  0
 38 46  1  0  0  0
 38 47  1  0  0  0
 39 64  1  0  0  0
 39 67  2  0  0  0
 40 52  1  0  0  0
 40 53  2  0  0  0
 40 58  1  0  0  0
 41113  1  0  0  0
 41114  1  0  0  0
 41115  1  0  0  0
 41 48  1  0  0  0
 42 43  1  0  0  0
 42 66  1  0  0  0
 42116  1  0  0  0
 42117  1  0  0  0
 43 44  1  0  0  0
 44118  1  0  0  0
 45 46  2  0  0  0
 45119  1  0  0  0
 46120  1  0  0  0
 47121  1  0  0  0
 47122  1  0  0  0
 48 56  1  0  0  0
 48 65  1  0  0  0
 48123  1  0  0  0
 49 50  1  0  0  0
 49 53  1  0  0  0
 49 64  1  0  0  0
 49124  1  0  0  0
 50 51  1  0  0  0
 50125  1  0  0  0
 50126  1  0  0  0
 51 52  1  0  0  0
 51127  1  0  0  0
 51128  1  0  0  0
 52129  1  0  0  0
 52130  1  0  0  0
 53 54  1  0  0  0
 54 55  2  0  0  0
 54131  1  0  0  0
 55 57  1  0  0  0
 55132  1  0  0  0
 56 69  2  0  0  0
 57 58  2  0  0  0
 57133  1  0  0  0
 58134  1  0  0  0
 59 60  1  0  0  0
 59 61  1  0  0  0
 59 62  1  0  0  0
 60135  1  0  0  0
 60136  1  0  0  0
 60137  1  0  0  0
 61138  1  0  0  0
 61139  1  0  0  0
 61140  1  0  0  0
 62141  1  0  0  0
 62142  1  0  0  0
 62143  1  0  0  0
 63 65  1  0  0  0
 63144  1  0  0  0
 63145  1  0  0  0
 63146  1  0  0  0
 64147  1  0  0  0
 65148  1  0  0  0
 68 84  1  0  0  0
 71 73  2  0  0  0
 71 74  1  0  0  0
 71149  1  0  0  0
 72 73  1  0  0  0
 72 86  2  0  0  0
 72150  1  0  0  0
 73 82  1  0  0  0
 74 75  2  0  0  0
 74 83  1  0  0  0
 75 85  1  0  0  0
 75 86  1  0  0  0
 76 78  1  0  0  0
 76 80  1  0  0  0
 76151  1  0  0  0
 76152  1  0  0  0
 77 79  1  0  0  0
 77 80  1  0  0  0
 77153  1  0  0  0
 77154  1  0  0  0
 78 88  1  0  0  0
 78155  1  0  0  0
 78156  1  0  0  0
 79 88  1  0  0  0
 79157  1  0  0  0
 79158  1  0  0  0
 80 89  1  0  0  0
 80159  1  0  0  0
 81160  1  0  0  0
 81161  1  0  0  0
 81162  1  0  0  0
 81 85  1  0  0  0
 82 87  1  0  0  0
 82163  1  0  0  0
 82164  1  0  0  0
 83 89  1  0  0  0
 83165  1  0  0  0
 83166  1  0  0  0
 84 85  1  0  0  0
 84167  1  0  0  0
 84168  1  0  0  0
 85169  1  0  0  0
 87170  1  0  0  0
 88171  1  0  0  0
 88172  1  0  0  0
 89173  1  0  0  0
 89174  1  0  0  0
M  CHG  2  88   1  89   1
M  ISO  4   1 100  68 101  84 101  87 100
M  END
> <chiral flag>
0

> <version>
0

> <s_m_source_file>
/data/baiqing/PycharmProjects/Reinvent-master-3.2/result/LINK_invent/BTK/process_docking_weight1_custom_sum_contain_oxygen_bond_distance_aromatic_linkinvent_7_9_3/rearranged_h_0113.sdf

> <i_m_source_file_index>
74

> <r_mmod_Potential_Energy-OPLS-2005>
-34.5749855041504

> <r_mmod_Stretch_Energy-OPLS-2005>
208.547271728516

> <r_mmod_Bend_Energy-OPLS-2005>
276.829925537109

> <r_mmod_Torsional_Energy-OPLS-2005>
234.461074829102

> <r_mmod_Improper_Torsional_Energy-OPLS-2005>
6.87591695785522

> <r_mmod_Van_der_Waal_Energy-OPLS-2005>
130.380615234375

> <r_mmod_Electrostatic_Energy-OPLS-2005>
29.7861671447754

> <r_mmod_Solvation_Energy-OPLS-2005>
-1072.87353515625

> <b_mmod_Minimization_Converged-OPLS-2005>
0

> <r_mmod_RMS_Derivative-OPLS-2005>
1.75024366378784

$$$$
76
                    3D
 Structure written by MMmdl.
157166  0  0  1  0            999 V2000
  -30.4789  -15.0627   20.4115 C   0  0  0  0  0  0
  -30.4401  -12.6724   19.5092 C   0  0  0  0  0  0
  -29.5261  -12.5411   18.2671 C   0  0  0  0  0  0
  -28.0624  -12.3070   18.6856 C   0  0  0  0  0  0
  -27.6177  -13.2548   19.8301 C   0  0  2  0  0  0
  -28.6544  -13.3275   20.9703 C   0  0  0  0  0  0
  -25.2400  -13.8217   20.5717 C   0  0  0  0  0  0
  -24.1730  -13.0412   20.9235 C   0  0  0  0  0  0
  -24.6369  -11.6912   20.8739 C   0  0  0  0  0  0
  -23.9056  -10.4273   21.0387 C   0  0  0  0  0  0
  -24.3609   -9.4196   21.9166 C   0  0  0  0  0  0
  -23.6282   -8.2233   22.0743 C   0  0  0  0  0  0
  -22.4265   -8.0263   21.3533 C   0  0  0  0  0  0
  -21.9890   -9.0238   20.4642 C   0  0  0  0  0  0
  -22.7219  -10.2118   20.3046 C   0  0  0  0  0  0
  -21.6852   -6.0710   22.5269 C   0  0  0  0  0  0
  -21.4019   -6.5621   23.8201 C   0  0  0  0  0  0
  -21.3660   -5.6779   24.9168 C   0  0  0  0  0  0
  -21.6050   -4.3042   24.7221 C   0  0  0  0  0  0
  -21.8818   -3.8123   23.4345 C   0  0  0  0  0  0
  -21.9195   -4.6937   22.3399 C   0  0  0  0  0  0
  -22.7761  -13.5188   21.1881 C   0  0  0  0  0  0
  -22.1661   -4.2118   21.0978 F   0  0  0  0  0  0
  -21.5631   -3.4530   25.7738 F   0  0  0  0  0  0
  -29.9082  -13.7825   20.3587 N   0  0  0  0  0  0
  -26.2813  -12.9457   20.3198 N   0  0  0  0  0  0
  -25.9296  -11.6585   20.5701 N   0  0  0  0  0  0
  -22.0428  -12.8190   22.0465 N   0  0  0  0  0  0
  -25.4016  -15.1951   20.4161 N   0  0  0  0  0  0
  -31.6878  -15.1032   20.1576 O   0  0  0  0  0  0
  -21.6636   -6.8855   21.4231 O   0  0  0  0  0  0
  -22.3440  -14.5479   20.6713 O   0  0  0  0  0  0
  -24.6501  -31.8400   23.1845 C   0  0  0  0  0  0
  -25.9259  -32.4668   23.8244 C   0  0  1  0  0  0
  -27.1935  -27.0665   20.1473 C   0  0  0  0  0  0
  -25.5997  -33.8476   24.2155 N   0  0  0  0  0  0
  -23.4563  -30.4606   21.5292 C   0  0  2  0  0  0
  -24.9022  -28.8826   20.1047 C   0  0  0  0  0  0
  -22.7626  -29.4518   22.4808 C   0  0  0  0  0  0
  -18.0328  -28.1414   22.8490 C   0  0  0  0  0  0
  -24.1484  -36.7225   23.2639 C   0  0  0  0  0  0
  -26.0189  -30.6899   21.3965 C   0  0  0  0  0  0
  -26.0824  -29.2958   20.7344 C   0  0  0  0  0  0
  -27.2293  -28.4038   20.7398 C   0  0  0  0  0  0
  -25.9856  -26.7789   19.4744 C   0  0  0  0  0  0
  -24.8694  -27.6402   19.4595 C   0  0  0  0  0  0
  -23.6876  -29.7969   20.1460 C   0  0  0  0  0  0
  -25.4117  -36.2996   24.0301 C   0  0  1  0  0  0
  -20.5955  -28.3742   23.1220 C   0  0  2  0  0  0
  -20.6801  -26.9435   22.5407 C   0  0  0  0  0  0
  -19.5752  -26.6392   21.5234 C   0  0  0  0  0  0
  -18.1948  -26.7949   22.1652 C   0  0  0  0  0  0
  -19.1595  -28.8893   23.2846 C   0  0  0  0  0  0
  -18.9502  -30.1496   23.8864 C   0  0  0  0  0  0
  -17.6494  -30.6598   24.0571 C   0  0  0  0  0  0
  -25.9081  -34.9386   23.5028 C   0  0  0  0  0  0
  -16.5384  -29.9096   23.6349 C   0  0  0  0  0  0
  -16.7316  -28.6522   23.0355 C   0  0  0  0  0  0
  -26.4554  -31.6563   25.0719 C   0  0  0  0  0  0
  -25.3716  -31.3832   26.1407 C   0  0  0  0  0  0
  -27.0425  -30.2934   24.6380 C   0  0  0  0  0  0
  -27.6056  -32.4352   25.7536 C   0  0  0  0  0  0
  -27.5559  -37.1767   24.8464 C   0  0  0  0  0  0
  -21.4307  -29.3051   22.3576 N   0  0  0  0  0  0
  -26.4256  -37.3733   23.9427 N   0  0  0  0  0  0
  -24.7284  -31.0213   22.0901 N   0  0  0  0  0  0
  -23.4261  -28.8069   23.2963 O   0  0  0  0  0  0
  -28.2031  -26.0177   20.2074 O   0  0  0  0  0  0
  -26.5659  -34.8909   22.4604 O   0  0  0  0  0  0
  -23.5610  -32.1302   23.7031 O   0  0  0  0  0  0
  -29.1276  -19.0188   20.2815 C   0  0  0  0  0  0
  -29.3828  -20.4656   20.6471 C   0  0  0  0  0  0
  -29.9241  -17.8085   20.7228 C   0  0  0  0  0  0
  -30.4650  -20.5496   21.5648 C   0  0  0  0  0  0
  -30.9731  -18.2142   21.5864 C   0  0  0  0  0  0
  -28.8988  -23.1880   20.1992 C   0  0  0  0  0  0
  -30.9234  -21.7167   23.8606 C   0  0  0  0  0  0
  -29.8576  -22.5416   23.2023 C   0  0  0  0  0  0
  -30.8550  -21.7786   22.3448 C   0  0  0  0  0  0
  -31.8562  -17.2401   22.3397 C   0  0  0  0  0  0
  -27.8266  -24.4804   20.0507 C   0  0  0  0  0  0
  -31.2189  -19.4923   21.9464 N   0  0  0  0  0  0
  -28.5833  -21.7743   20.2860 N   0  0  0  0  0  0
  -29.6769  -16.2702   20.4897 N   0  0  0  0  0  0
  -30.0873  -23.5067   20.1462 O   0  0  0  0  0  0
  -31.4672  -12.8619   19.1928 H   0  0  0  0  0  0
  -30.4739  -11.7397   20.0748 H   0  0  0  0  0  0
  -29.8709  -11.7274   17.6275 H   0  0  0  0  0  0
  -29.5974  -13.4522   17.6693 H   0  0  0  0  0  0
  -27.9772  -11.2711   19.0149 H   0  0  0  0  0  0
  -27.4020  -12.4054   17.8234 H   0  0  0  0  0  0
  -27.5656  -14.2453   19.3768 H   0  0  0  0  0  0
  -28.7770  -12.3593   21.4601 H   0  0  0  0  0  0
  -28.3314  -14.0276   21.7433 H   0  0  0  0  0  0
  -25.2755   -9.5681   22.4736 H   0  0  0  0  0  0
  -23.9981   -7.4630   22.7475 H   0  0  0  0  0  0
  -21.0805   -8.8763   19.8973 H   0  0  0  0  0  0
  -22.3656  -10.9655   19.6159 H   0  0  0  0  0  0
  -21.2023   -7.6126   23.9695 H   0  0  0  0  0  0
  -21.1483   -6.0510   25.9068 H   0  0  0  0  0  0
  -22.0599   -2.7580   23.2858 H   0  0  0  0  0  0
  -22.4047  -11.9883   22.4907 H   0  0  0  0  0  0
  -21.1054  -13.1224   22.2667 H   0  0  0  0  0  0
  -24.6259  -15.8382   20.5330 H   0  0  0  0  0  0
  -26.2327  -15.6452   20.0560 H   0  0  0  0  0  0
  -26.7325  -32.5251   23.0973 H   0  0  0  0  0  0
  -25.0170  -33.9591   25.0322 H   0  0  0  0  0  0
  -22.7611  -31.2888   21.3740 H   0  0  0  0  0  0
  -23.3754  -35.9548   23.3278 H   0  0  0  0  0  0
  -24.3566  -36.8895   22.2058 H   0  0  0  0  0  0
  -23.7241  -37.6409   23.6701 H   0  0  0  0  0  0
  -26.1887  -31.4437   20.6261 H   0  0  0  0  0  0
  -26.8843  -30.7343   22.0468 H   0  0  0  0  0  0
  -28.1250  -28.7106   21.2612 H   0  0  0  0  0  0
  -25.8555  -25.8355   18.9688 H   0  0  0  0  0  0
  -23.9676  -27.3235   18.9523 H   0  0  0  0  0  0
  -23.8451  -30.5744   19.3975 H   0  0  0  0  0  0
  -22.7992  -29.2515   19.8214 H   0  0  0  0  0  0
  -25.1315  -36.1788   25.0786 H   0  0  0  0  0  0
  -21.0047  -28.3325   24.1339 H   0  0  0  0  0  0
  -20.5723  -26.2350   23.3639 H   0  0  0  0  0  0
  -21.6661  -26.7438   22.1186 H   0  0  0  0  0  0
  -19.6900  -25.6304   21.1262 H   0  0  0  0  0  0
  -19.6671  -27.3207   20.6770 H   0  0  0  0  0  0
  -17.4219  -26.6724   21.4050 H   0  0  0  0  0  0
  -18.0316  -26.0113   22.9064 H   0  0  0  0  0  0
  -19.7983  -30.7332   24.2201 H   0  0  0  0  0  0
  -17.5050  -31.6269   24.5192 H   0  0  0  0  0  0
  -15.5384  -30.2979   23.7679 H   0  0  0  0  0  0
  -15.8730  -28.0831   22.7053 H   0  0  0  0  0  0
  -24.5865  -30.7211   25.7755 H   0  0  0  0  0  0
  -24.8950  -32.3048   26.4735 H   0  0  0  0  0  0
  -25.7958  -30.9073   27.0249 H   0  0  0  0  0  0
  -26.3072  -29.6649   24.1334 H   0  0  0  0  0  0
  -27.3943  -29.7261   25.5007 H   0  0  0  0  0  0
  -27.9028  -30.4156   23.9793 H   0  0  0  0  0  0
  -27.2620  -33.3698   26.1991 H   0  0  0  0  0  0
  -28.3942  -32.6831   25.0416 H   0  0  0  0  0  0
  -28.0620  -31.8543   26.5563 H   0  0  0  0  0  0
  -28.2546  -38.0088   24.7518 H   0  0  0  0  0  0
  -28.1074  -36.2613   24.6262 H   0  0  0  0  0  0
  -27.2279  -37.1387   25.8866 H   0  0  0  0  0  0
  -20.9524  -29.8806   21.6789 H   0  0  0  0  0  0
  -26.0095  -38.2783   24.1466 H   0  0  0  0  0  0
  -28.2655  -18.8287   19.6587 H   0  0  0  0  0  0
  -30.6024  -20.7987   24.3475 H   0  0  0  0  0  0
  -31.7327  -22.2492   24.3520 H   0  0  0  0  0  0
  -29.9602  -23.6251   23.2491 H   0  0  0  0  0  0
  -28.8371  -22.1664   23.2367 H   0  0  0  0  0  0
  -31.6455  -22.3340   21.8447 H   0  0  0  0  0  0
  -31.2522  -16.4892   22.8495 H   0  0  0  0  0  0
  -32.4535  -17.7445   23.0998 H   0  0  0  0  0  0
  -32.5616  -16.7584   21.6701 H   0  0  0  0  0  0
  -27.4209  -24.3629   19.0464 H   0  0  0  0  0  0
  -26.9930  -24.2792   20.7238 H   0  0  0  0  0  0
  -27.6010  -21.6051   20.1047 H   0  0  0  0  0  0
  -28.6943  -16.0434   20.4384 H   0  0  0  0  0  0
  1 25  1  0  0  0
  1 30  2  0  0  0
  1 84  1  0  0  0
  2  3  1  0  0  0
  2 25  1  0  0  0
  2 86  1  0  0  0
  2 87  1  0  0  0
  3  4  1  0  0  0
  3 88  1  0  0  0
  3 89  1  0  0  0
  4  5  1  0  0  0
  4 90  1  0  0  0
  4 91  1  0  0  0
  5  6  1  0  0  0
  5 26  1  0  0  0
  5 92  1  0  0  0
  6 25  1  0  0  0
  6 93  1  0  0  0
  6 94  1  0  0  0
  7  8  2  0  0  0
  7 26  1  0  0  0
  7 29  1  0  0  0
  8  9  1  0  0  0
  8 22  1  0  0  0
  9 10  1  0  0  0
  9 27  2  0  0  0
 10 11  2  0  0  0
 10 15  1  0  0  0
 11 12  1  0  0  0
 11 95  1  0  0  0
 12 13  2  0  0  0
 12 96  1  0  0  0
 13 14  1  0  0  0
 13 31  1  0  0  0
 14 15  2  0  0  0
 14 97  1  0  0  0
 15 98  1  0  0  0
 16 17  2  0  0  0
 16 21  1  0  0  0
 16 31  1  0  0  0
 17 18  1  0  0  0
 17 99  1  0  0  0
 18 19  2  0  0  0
 18100  1  0  0  0
 19 20  1  0  0  0
 19 24  1  0  0  0
 20 21  2  0  0  0
 20101  1  0  0  0
 21 23  1  0  0  0
 22 28  1  0  0  0
 22 32  2  0  0  0
 26 27  1  0  0  0
 28102  1  0  0  0
 28103  1  0  0  0
 29104  1  0  0  0
 29105  1  0  0  0
 33 34  1  0  0  0
 33 66  1  0  0  0
 33 70  2  0  0  0
 34 36  1  0  0  0
 34 59  1  0  0  0
 34106  1  0  0  0
 35 44  2  0  0  0
 35 45  1  0  0  0
 35 68  1  0  0  0
 36 56  1  0  0  0
 36107  1  0  0  0
 37 39  1  0  0  0
 37 47  1  0  0  0
 37 66  1  0  0  0
 37108  1  0  0  0
 38 43  2  0  0  0
 38 46  1  0  0  0
 38 47  1  0  0  0
 39 64  1  0  0  0
 39 67  2  0  0  0
 40 52  1  0  0  0
 40 53  2  0  0  0
 40 58  1  0  0  0
 41109  1  0  0  0
 41110  1  0  0  0
 41111  1  0  0  0
 41 48  1  0  0  0
 42 43  1  0  0  0
 42 66  1  0  0  0
 42112  1  0  0  0
 42113  1  0  0  0
 43 44  1  0  0  0
 44114  1  0  0  0
 45 46  2  0  0  0
 45115  1  0  0  0
 46116  1  0  0  0
 47117  1  0  0  0
 47118  1  0  0  0
 48 56  1  0  0  0
 48 65  1  0  0  0
 48119  1  0  0  0
 49 50  1  0  0  0
 49 53  1  0  0  0
 49 64  1  0  0  0
 49120  1  0  0  0
 50 51  1  0  0  0
 50121  1  0  0  0
 50122  1  0  0  0
 51 52  1  0  0  0
 51123  1  0  0  0
 51124  1  0  0  0
 52125  1  0  0  0
 52126  1  0  0  0
 53 54  1  0  0  0
 54 55  2  0  0  0
 54127  1  0  0  0
 55 57  1  0  0  0
 55128  1  0  0  0
 56 69  2  0  0  0
 57 58  2  0  0  0
 57129  1  0  0  0
 58130  1  0  0  0
 59 60  1  0  0  0
 59 61  1  0  0  0
 59 62  1  0  0  0
 60131  1  0  0  0
 60132  1  0  0  0
 60133  1  0  0  0
 61134  1  0  0  0
 61135  1  0  0  0
 61136  1  0  0  0
 62137  1  0  0  0
 62138  1  0  0  0
 62139  1  0  0  0
 63 65  1  0  0  0
 63140  1  0  0  0
 63141  1  0  0  0
 63142  1  0  0  0
 64143  1  0  0  0
 65144  1  0  0  0
 68 81  1  0  0  0
 71 72  2  0  0  0
 71 73  1  0  0  0
 71145  1  0  0  0
 72 74  1  0  0  0
 72 83  1  0  0  0
 73 75  2  0  0  0
 73 84  1  0  0  0
 74 82  2  0  0  0
 74 79  1  0  0  0
 75 80  1  0  0  0
 75 82  1  0  0  0
 76 81  1  0  0  0
 76 83  1  0  0  0
 76 85  2  0  0  0
 77 78  1  0  0  0
 77 79  1  0  0  0
 77146  1  0  0  0
 77147  1  0  0  0
 78 79  1  0  0  0
 78148  1  0  0  0
 78149  1  0  0  0
 79150  1  0  0  0
 80151  1  0  0  0
 80152  1  0  0  0
 80153  1  0  0  0
 81154  1  0  0  0
 81155  1  0  0  0
 83156  1  0  0  0
 84157  1  0  0  0
M  ISO  4   1 100  68 101  81 101  84 100
M  END
> <chiral flag>
0

> <version>
0

> <s_m_source_file>
/data/baiqing/PycharmProjects/Reinvent-master-3.2/result/LINK_invent/BTK/process_docking_weight1_custom_sum_contain_oxygen_bond_distance_aromatic_linkinvent_7_9_3/rearranged_h_0113.sdf

> <i_m_source_file_index>
75

> <r_mmod_Potential_Energy-OPLS-2005>
541.9482421875

> <r_mmod_Stretch_Energy-OPLS-2005>
350.972869873047

> <r_mmod_Bend_Energy-OPLS-2005>
285.804779052734

> <r_mmod_Torsional_Energy-OPLS-2005>
266.968536376953

> <r_mmod_Improper_Torsional_Energy-OPLS-2005>
8.16021060943604

> <r_mmod_Van_der_Waal_Energy-OPLS-2005>
144.062286376953

> <r_mmod_Electrostatic_Energy-OPLS-2005>
-537.033081054688

> <r_mmod_Solvation_Energy-OPLS-2005>
-253.709213256836

> <b_mmod_Minimization_Converged-OPLS-2005>
0

> <r_mmod_RMS_Derivative-OPLS-2005>
3.01687741279602

$$$$
77
                    3D
 Structure written by MMmdl.
168176  0  0  1  0            999 V2000
  -30.6191  -14.7148   20.3367 C   0  0  0  0  0  0
  -30.4373  -12.3831   19.4990 C   0  0  0  0  0  0
  -29.5310  -12.3562   18.2475 C   0  0  0  0  0  0
  -28.0289  -12.3366   18.6249 C   0  0  0  0  0  0
  -27.6387  -13.2408   19.8339 C   0  0  2  0  0  0
  -28.6870  -13.1907   20.9638 C   0  0  0  0  0  0
  -25.2428  -13.8254   20.5556 C   0  0  0  0  0  0
  -24.1771  -13.0477   20.9236 C   0  0  0  0  0  0
  -24.6392  -11.6964   20.8753 C   0  0  0  0  0  0
  -23.9038  -10.4325   21.0403 C   0  0  0  0  0  0
  -24.3601   -9.4233   21.9169 C   0  0  0  0  0  0
  -23.6302   -8.2241   22.0721 C   0  0  0  0  0  0
  -22.4286   -8.0245   21.3498 C   0  0  0  0  0  0
  -21.9896   -9.0235   20.4622 C   0  0  0  0  0  0
  -22.7210  -10.2137   20.3040 C   0  0  0  0  0  0
  -21.6871   -6.0661   22.5226 C   0  0  0  0  0  0
  -21.4022   -6.5576   23.8150 C   0  0  0  0  0  0
  -21.3691   -5.6756   24.9137 C   0  0  0  0  0  0
  -21.6073   -4.3012   24.7220 C   0  0  0  0  0  0
  -21.8829   -3.8075   23.4352 C   0  0  0  0  0  0
  -21.9209   -4.6879   22.3387 C   0  0  0  0  0  0
  -22.7769  -13.5220   21.1921 C   0  0  0  0  0  0
  -22.1672   -4.2060   21.0968 F   0  0  0  0  0  0
  -21.5656   -3.4506   25.7734 F   0  0  0  0  0  0
  -29.9822  -13.4973   20.3507 N   0  0  0  0  0  0
  -26.2903  -12.9503   20.3220 N   0  0  0  0  0  0
  -25.9335  -11.6637   20.5787 N   0  0  0  0  0  0
  -22.0386  -12.8206   22.0490 N   0  0  0  0  0  0
  -25.4023  -15.1932   20.3649 N   0  0  0  0  0  0
  -31.8470  -14.7642   20.2604 O   0  0  0  0  0  0
  -21.6670   -6.8817   21.4186 O   0  0  0  0  0  0
  -22.3442  -14.5509   20.6764 O   0  0  0  0  0  0
  -24.6273  -31.8593   23.2016 C   0  0  0  0  0  0
  -25.9127  -32.4744   23.8355 C   0  0  1  0  0  0
  -27.1951  -27.2988   20.1037 C   0  0  0  0  0  0
  -25.5939  -33.8558   24.2257 N   0  0  0  0  0  0
  -23.4194  -30.4878   21.5475 C   0  0  2  0  0  0
  -24.8506  -28.9322   20.1106 C   0  0  0  0  0  0
  -22.7472  -29.4673   22.4964 C   0  0  0  0  0  0
  -18.0293  -28.1414   22.8524 C   0  0  0  0  0  0
  -24.1498  -36.7312   23.2658 C   0  0  0  0  0  0
  -25.9645  -30.7750   21.3757 C   0  0  0  0  0  0
  -26.0216  -29.4057   20.7116 C   0  0  0  0  0  0
  -27.1969  -28.5976   20.6979 C   0  0  0  0  0  0
  -25.9923  -26.8607   19.5073 C   0  0  0  0  0  0
  -24.8363  -27.6659   19.5040 C   0  0  0  0  0  0
  -23.6280  -29.8272   20.1617 C   0  0  0  0  0  0
  -25.4109  -36.3064   24.0340 C   0  0  1  0  0  0
  -20.5905  -28.3708   23.1303 C   0  0  2  0  0  0
  -20.6789  -26.9439   22.5423 C   0  0  0  0  0  0
  -19.5735  -26.6408   21.5249 C   0  0  0  0  0  0
  -18.1922  -26.7960   22.1653 C   0  0  0  0  0  0
  -19.1552  -28.8877   23.2916 C   0  0  0  0  0  0
  -18.9475  -30.1493   23.8887 C   0  0  0  0  0  0
  -17.6476  -30.6600   24.0605 C   0  0  0  0  0  0
  -25.9062  -34.9445   23.5104 C   0  0  0  0  0  0
  -16.5380  -29.9115   23.6335 C   0  0  0  0  0  0
  -16.7283  -28.6558   23.0334 C   0  0  0  0  0  0
  -26.4474  -31.6555   25.0760 C   0  0  0  0  0  0
  -25.3730  -31.3711   26.1530 C   0  0  0  0  0  0
  -27.0318  -30.2971   24.6238 C   0  0  0  0  0  0
  -27.6013  -32.4318   25.7520 C   0  0  0  0  0  0
  -27.5575  -37.1817   24.8468 C   0  0  0  0  0  0
  -21.4196  -29.3052   22.3689 N   0  0  0  0  0  0
  -26.4273  -37.3782   23.9429 N   0  0  0  0  0  0
  -24.6902  -31.0608   22.0964 N   0  0  0  0  0  0
  -23.4194  -28.8200   23.3049 O   0  0  0  0  0  0
  -28.3398  -26.4946   20.1430 O   0  0  0  0  0  0
  -26.5656  -34.8914   22.4678 O   0  0  0  0  0  0
  -23.5433  -32.1430   23.7338 O   0  0  0  0  0  0
  -27.7923  -18.6765   20.8111 C   0  0  0  0  0  0
  -28.3166  -17.3626   20.7280 C   0  0  0  0  0  0
  -29.9120  -19.5976   20.1812 C   0  0  0  0  0  0
  -28.5542  -19.8425   20.5358 C   0  0  0  0  0  0
  -30.4486  -18.2664   20.0304 C   0  0  0  0  0  0
  -29.6312  -17.1065   20.2920 C   0  0  0  0  0  0
  -27.0136  -21.3265   21.9395 C   0  0  0  0  0  0
  -32.3410  -19.0857   18.4430 C   0  0  0  0  0  0
  -28.4452  -24.3263   22.1286 C   0  0  0  0  0  0
  -29.8416  -15.7613   18.2999 C   0  0  0  0  0  0
  -28.3711  -25.0928   19.6716 C   0  0  0  0  0  0
  -27.8360  -21.2568   20.6171 C   0  0  1  0  0  0
  -31.8939  -18.0991   19.5395 C   0  0  1  0  0  0
  -28.0309  -23.9117   20.6914 C   0  0  2  0  0  0
  -29.8955  -15.7613   19.7730 N   0  0  0  0  0  0
  -28.6347  -22.5323   20.3577 N   0  3  0  0  0  0
  -32.7266  -18.2118   20.5768 F   0  0  0  0  0  0
  -31.4844  -12.4767   19.2083 H   0  0  0  0  0  0
  -30.3678  -11.4470   20.0539 H   0  0  0  0  0  0
  -29.7641  -11.4589   17.6685 H   0  0  0  0  0  0
  -29.7700  -13.1791   17.5769 H   0  0  0  0  0  0
  -27.7776  -11.2996   18.8473 H   0  0  0  0  0  0
  -27.4315  -12.6003   17.7518 H   0  0  0  0  0  0
  -27.6206  -14.2640   19.4638 H   0  0  0  0  0  0
  -28.7011  -12.2046   21.4342 H   0  0  0  0  0  0
  -28.4462  -13.9042   21.7530 H   0  0  0  0  0  0
  -25.2744   -9.5731   22.4747 H   0  0  0  0  0  0
  -23.9986   -7.4661   22.7484 H   0  0  0  0  0  0
  -21.0793   -8.8775   19.8998 H   0  0  0  0  0  0
  -22.3642  -10.9652   19.6147 H   0  0  0  0  0  0
  -21.1973   -7.6075   23.9618 H   0  0  0  0  0  0
  -21.1545   -6.0492   25.9042 H   0  0  0  0  0  0
  -22.0598   -2.7526   23.2875 H   0  0  0  0  0  0
  -22.3941  -11.9879   22.4950 H   0  0  0  0  0  0
  -21.0994  -13.1240   22.2630 H   0  0  0  0  0  0
  -24.6252  -15.8465   20.4215 H   0  0  0  0  0  0
  -26.2129  -15.5888   19.9043 H   0  0  0  0  0  0
  -26.7201  -32.5382   23.1100 H   0  0  0  0  0  0
  -24.9982  -33.9740   25.0325 H   0  0  0  0  0  0
  -22.7155  -31.3099   21.4056 H   0  0  0  0  0  0
  -23.3724  -35.9685   23.3280 H   0  0  0  0  0  0
  -24.3607  -36.8976   22.2085 H   0  0  0  0  0  0
  -23.7273  -37.6516   23.6688 H   0  0  0  0  0  0
  -26.1168  -31.5321   20.6068 H   0  0  0  0  0  0
  -26.8440  -30.8137   22.0071 H   0  0  0  0  0  0
  -28.0996  -28.9551   21.1696 H   0  0  0  0  0  0
  -25.8999  -25.8817   19.0601 H   0  0  0  0  0  0
  -23.9325  -27.2897   19.0471 H   0  0  0  0  0  0
  -23.7664  -30.6091   19.4145 H   0  0  0  0  0  0
  -22.7424  -29.2755   19.8409 H   0  0  0  0  0  0
  -25.1259  -36.1899   25.0829 H   0  0  0  0  0  0
  -21.0010  -28.3290   24.1433 H   0  0  0  0  0  0
  -20.5705  -26.2352   23.3647 H   0  0  0  0  0  0
  -21.6662  -26.7493   22.1207 H   0  0  0  0  0  0
  -19.6902  -25.6313   21.1277 H   0  0  0  0  0  0
  -19.6643  -27.3231   20.6777 H   0  0  0  0  0  0
  -17.4211  -26.6769   21.4034 H   0  0  0  0  0  0
  -18.0283  -26.0096   22.9015 H   0  0  0  0  0  0
  -19.7957  -30.7360   24.2205 H   0  0  0  0  0  0
  -17.5017  -31.6252   24.5262 H   0  0  0  0  0  0
  -15.5365  -30.3007   23.7651 H   0  0  0  0  0  0
  -15.8702  -28.0873   22.6981 H   0  0  0  0  0  0
  -24.5851  -30.7102   25.7872 H   0  0  0  0  0  0
  -24.9012  -32.2913   26.4995 H   0  0  0  0  0  0
  -25.8120  -30.8841   27.0264 H   0  0  0  0  0  0
  -26.2906  -29.6742   24.1236 H   0  0  0  0  0  0
  -27.3943  -29.7199   25.4741 H   0  0  0  0  0  0
  -27.8788  -30.4212   23.9508 H   0  0  0  0  0  0
  -27.2549  -33.3580   26.2114 H   0  0  0  0  0  0
  -28.3793  -32.6972   25.0348 H   0  0  0  0  0  0
  -28.0718  -31.8476   26.5442 H   0  0  0  0  0  0
  -28.2566  -38.0139   24.7516 H   0  0  0  0  0  0
  -28.1091  -36.2676   24.6216 H   0  0  0  0  0  0
  -27.2360  -37.1393   25.8897 H   0  0  0  0  0  0
  -20.9367  -29.8800   21.6925 H   0  0  0  0  0  0
  -26.0123  -38.2859   24.1387 H   0  0  0  0  0  0
  -26.7440  -18.7567   21.0482 H   0  0  0  0  0  0
  -27.6487  -16.5322   20.9005 H   0  0  0  0  0  0
  -30.5442  -20.4457   19.9649 H   0  0  0  0  0  0
  -26.4452  -22.2462   22.0524 H   0  0  0  0  0  0
  -27.6635  -21.2141   22.8080 H   0  0  0  0  0  0
  -26.2470  -20.5569   22.0096 H   0  0  0  0  0  0
  -31.6601  -19.0563   17.5926 H   0  0  0  0  0  0
  -33.3291  -18.8172   18.0699 H   0  0  0  0  0  0
  -32.4141  -20.1150   18.8021 H   0  0  0  0  0  0
  -28.0737  -23.6356   22.8855 H   0  0  0  0  0  0
  -28.0569  -25.3073   22.4098 H   0  0  0  0  0  0
  -29.5314  -24.3523   22.2381 H   0  0  0  0  0  0
  -29.6668  -16.7530   17.8764 H   0  0  0  0  0  0
  -29.0003  -15.1753   17.9356 H   0  0  0  0  0  0
  -30.7670  -15.3845   17.8534 H   0  0  0  0  0  0
  -27.7962  -24.9798   18.7486 H   0  0  0  0  0  0
  -29.3988  -24.9345   19.3379 H   0  0  0  0  0  0
  -27.1156  -21.2306   19.7961 H   0  0  0  0  0  0
  -32.0425  -17.0929   19.1478 H   0  0  0  0  0  0
  -26.9424  -23.8341   20.6625 H   0  0  0  0  0  0
  -28.8671  -22.5159   19.3736 H   0  0  0  0  0  0
  -29.5035  -22.4480   20.8627 H   0  0  0  0  0  0
  1 25  1  0  0  0
  1 30  2  0  0  0
  1 85  1  0  0  0
  2  3  1  0  0  0
  2 25  1  0  0  0
  2 88  1  0  0  0
  2 89  1  0  0  0
  3  4  1  0  0  0
  3 90  1  0  0  0
  3 91  1  0  0  0
  4  5  1  0  0  0
  4 92  1  0  0  0
  4 93  1  0  0  0
  5  6  1  0  0  0
  5 26  1  0  0  0
  5 94  1  0  0  0
  6 25  1  0  0  0
  6 95  1  0  0  0
  6 96  1  0  0  0
  7  8  2  0  0  0
  7 26  1  0  0  0
  7 29  1  0  0  0
  8  9  1  0  0  0
  8 22  1  0  0  0
  9 10  1  0  0  0
  9 27  2  0  0  0
 10 11  2  0  0  0
 10 15  1  0  0  0
 11 12  1  0  0  0
 11 97  1  0  0  0
 12 13  2  0  0  0
 12 98  1  0  0  0
 13 14  1  0  0  0
 13 31  1  0  0  0
 14 15  2  0  0  0
 14 99  1  0  0  0
 15100  1  0  0  0
 16 17  2  0  0  0
 16 21  1  0  0  0
 16 31  1  0  0  0
 17 18  1  0  0  0
 17101  1  0  0  0
 18 19  2  0  0  0
 18102  1  0  0  0
 19 20  1  0  0  0
 19 24  1  0  0  0
 20 21  2  0  0  0
 20103  1  0  0  0
 21 23  1  0  0  0
 22 28  1  0  0  0
 22 32  2  0  0  0
 26 27  1  0  0  0
 28104  1  0  0  0
 28105  1  0  0  0
 29106  1  0  0  0
 29107  1  0  0  0
 33 34  1  0  0  0
 33 66  1  0  0  0
 33 70  2  0  0  0
 34 36  1  0  0  0
 34 59  1  0  0  0
 34108  1  0  0  0
 35 44  2  0  0  0
 35 45  1  0  0  0
 35 68  1  0  0  0
 36 56  1  0  0  0
 36109  1  0  0  0
 37 39  1  0  0  0
 37 47  1  0  0  0
 37 66  1  0  0  0
 37110  1  0  0  0
 38 43  2  0  0  0
 38 46  1  0  0  0
 38 47  1  0  0  0
 39 64  1  0  0  0
 39 67  2  0  0  0
 40 52  1  0  0  0
 40 53  2  0  0  0
 40 58  1  0  0  0
 41111  1  0  0  0
 41112  1  0  0  0
 41113  1  0  0  0
 41 48  1  0  0  0
 42 43  1  0  0  0
 42 66  1  0  0  0
 42114  1  0  0  0
 42115  1  0  0  0
 43 44  1  0  0  0
 44116  1  0  0  0
 45 46  2  0  0  0
 45117  1  0  0  0
 46118  1  0  0  0
 47119  1  0  0  0
 47120  1  0  0  0
 48 56  1  0  0  0
 48 65  1  0  0  0
 48121  1  0  0  0
 49 50  1  0  0  0
 49 53  1  0  0  0
 49 64  1  0  0  0
 49122  1  0  0  0
 50 51  1  0  0  0
 50123  1  0  0  0
 50124  1  0  0  0
 51 52  1  0  0  0
 51125  1  0  0  0
 51126  1  0  0  0
 52127  1  0  0  0
 52128  1  0  0  0
 53 54  1  0  0  0
 54 55  2  0  0  0
 54129  1  0  0  0
 55 57  1  0  0  0
 55130  1  0  0  0
 56 69  2  0  0  0
 57 58  2  0  0  0
 57131  1  0  0  0
 58132  1  0  0  0
 59 60  1  0  0  0
 59 61  1  0  0  0
 59 62  1  0  0  0
 60133  1  0  0  0
 60134  1  0  0  0
 60135  1  0  0  0
 61136  1  0  0  0
 61137  1  0  0  0
 61138  1  0  0  0
 62139  1  0  0  0
 62140  1  0  0  0
 62141  1  0  0  0
 63 65  1  0  0  0
 63142  1  0  0  0
 63143  1  0  0  0
 63144  1  0  0  0
 64145  1  0  0  0
 65146  1  0  0  0
 68 81  1  0  0  0
 71 72  2  0  0  0
 71 74  1  0  0  0
 71147  1  0  0  0
 72 76  1  0  0  0
 72148  1  0  0  0
 73 74  2  0  0  0
 73 75  1  0  0  0
 73149  1  0  0  0
 74 82  1  0  0  0
 75 76  2  0  0  0
 75 83  1  0  0  0
 76 85  1  0  0  0
 77150  1  0  0  0
 77151  1  0  0  0
 77152  1  0  0  0
 77 82  1  0  0  0
 78153  1  0  0  0
 78154  1  0  0  0
 78155  1  0  0  0
 78 83  1  0  0  0
 79156  1  0  0  0
 79157  1  0  0  0
 79158  1  0  0  0
 79 84  1  0  0  0
 80 85  1  0  0  0
 80159  1  0  0  0
 80160  1  0  0  0
 80161  1  0  0  0
 81 84  1  0  0  0
 81162  1  0  0  0
 81163  1  0  0  0
 82 86  1  0  0  0
 82164  1  0  0  0
 83 87  1  0  0  0
 83165  1  0  0  0
 84 86  1  0  0  0
 84166  1  0  0  0
 86167  1  0  0  0
 86168  1  0  0  0
M  CHG  1  86   1
M  ISO  4   1 100  68 101  81 101  85 100
M  END
> <chiral flag>
0

> <version>
0

> <s_m_source_file>
/data/baiqing/PycharmProjects/Reinvent-master-3.2/result/LINK_invent/BTK/process_docking_weight1_custom_sum_contain_oxygen_bond_distance_aromatic_linkinvent_7_9_3/rearranged_h_0113.sdf

> <i_m_source_file_index>
76

> <r_mmod_Potential_Energy-OPLS-2005>
246.256271362305

> <r_mmod_Stretch_Energy-OPLS-2005>
96.3974227905273

> <r_mmod_Bend_Energy-OPLS-2005>
172.587814331055

> <r_mmod_Torsional_Energy-OPLS-2005>
356.117401123047

> <r_mmod_Improper_Torsional_Energy-OPLS-2005>
29.368673324585

> <r_mmod_Van_der_Waal_Energy-OPLS-2005>
142.830474853516

> <r_mmod_Electrostatic_Energy-OPLS-2005>
-195.12956237793

> <r_mmod_Solvation_Energy-OPLS-2005>
-438.061706542969

> <b_mmod_Minimization_Converged-OPLS-2005>
0

> <r_mmod_RMS_Derivative-OPLS-2005>
6.61713171005249

$$$$
78
                    3D
 Structure written by MMmdl.
180188  0  0  1  0            999 V2000
  -30.6840  -14.4295   20.5552 C   0  0  0  0  0  0
  -30.4243  -12.2675   19.4195 C   0  0  0  0  0  0
  -29.5009  -12.4912   18.2041 C   0  0  0  0  0  0
  -28.0195  -12.3514   18.6152 C   0  0  0  0  0  0
  -27.6641  -13.1834   19.8773 C   0  0  2  0  0  0
  -28.7035  -12.9424   20.9955 C   0  0  0  0  0  0
  -25.2618  -13.8108   20.5694 C   0  0  0  0  0  0
  -24.1828  -13.0431   20.9172 C   0  0  0  0  0  0
  -24.6337  -11.6884   20.8716 C   0  0  0  0  0  0
  -23.8989  -10.4293   21.0390 C   0  0  0  0  0  0
  -24.3565   -9.4233   21.9174 C   0  0  0  0  0  0
  -23.6280   -8.2247   22.0751 C   0  0  0  0  0  0
  -22.4268   -8.0263   21.3532 C   0  0  0  0  0  0
  -21.9872   -9.0218   20.4632 C   0  0  0  0  0  0
  -22.7167  -10.2121   20.3036 C   0  0  0  0  0  0
  -21.6842   -6.0728   22.5285 C   0  0  0  0  0  0
  -21.4008   -6.5619   23.8224 C   0  0  0  0  0  0
  -21.3677   -5.6776   24.9177 C   0  0  0  0  0  0
  -21.6062   -4.3047   24.7225 C   0  0  0  0  0  0
  -21.8827   -3.8133   23.4347 C   0  0  0  0  0  0
  -21.9191   -4.6950   22.3410 C   0  0  0  0  0  0
  -22.7865  -13.5264   21.1850 C   0  0  0  0  0  0
  -22.1653   -4.2130   21.0983 F   0  0  0  0  0  0
  -21.5651   -3.4540   25.7743 F   0  0  0  0  0  0
  -30.0373  -13.2419   20.4458 N   0  0  0  0  0  0
  -26.3023  -12.9230   20.3354 N   0  0  0  0  0  0
  -25.9247  -11.6413   20.5718 N   0  0  0  0  0  0
  -22.0466  -12.8272   22.0394 N   0  0  0  0  0  0
  -25.4403  -15.1828   20.4203 N   0  0  0  0  0  0
  -31.8068  -14.6472   20.0933 O   0  0  0  0  0  0
  -21.6633   -6.8862   21.4246 O   0  0  0  0  0  0
  -22.3580  -14.5580   20.6702 O   0  0  0  0  0  0
  -24.6127  -31.8689   23.2113 C   0  0  0  0  0  0
  -25.9036  -32.4823   23.8413 C   0  0  1  0  0  0
  -27.2438  -27.4572   20.0985 C   0  0  0  0  0  0
  -25.5906  -33.8620   24.2353 N   0  0  0  0  0  0
  -23.4014  -30.4904   21.5494 C   0  0  2  0  0  0
  -24.8533  -28.9577   20.1158 C   0  0  0  0  0  0
  -22.7407  -29.4655   22.4985 C   0  0  0  0  0  0
  -18.0266  -28.1372   22.8485 C   0  0  0  0  0  0
  -24.1479  -36.7300   23.2640 C   0  0  0  0  0  0
  -25.9278  -30.8420   21.3615 C   0  0  0  0  0  0
  -26.0110  -29.4783   20.7089 C   0  0  0  0  0  0
  -27.2125  -28.7356   20.6950 C   0  0  0  0  0  0
  -26.0728  -26.9399   19.5072 C   0  0  0  0  0  0
  -24.8785  -27.6868   19.5117 C   0  0  0  0  0  0
  -23.6112  -29.8199   20.1658 C   0  0  0  0  0  0
  -25.4099  -36.3108   24.0348 C   0  0  1  0  0  0
  -20.5857  -28.3657   23.1312 C   0  0  2  0  0  0
  -20.6751  -26.9389   22.5414 C   0  0  0  0  0  0
  -19.5735  -26.6376   21.5211 C   0  0  0  0  0  0
  -18.1918  -26.7919   22.1616 C   0  0  0  0  0  0
  -19.1514  -28.8830   23.2899 C   0  0  0  0  0  0
  -18.9449  -30.1445   23.8903 C   0  0  0  0  0  0
  -17.6443  -30.6578   24.0557 C   0  0  0  0  0  0
  -25.9031  -34.9476   23.5147 C   0  0  0  0  0  0
  -16.5335  -29.9068   23.6336 C   0  0  0  0  0  0
  -16.7261  -28.6488   23.0355 C   0  0  0  0  0  0
  -26.4474  -31.6591   25.0732 C   0  0  0  0  0  0
  -25.3761  -31.3679   26.1495 C   0  0  0  0  0  0
  -27.0308  -30.3037   24.6104 C   0  0  0  0  0  0
  -27.6072  -32.4297   25.7479 C   0  0  0  0  0  0
  -27.5581  -37.1792   24.8462 C   0  0  0  0  0  0
  -21.4134  -29.3031   22.3719 N   0  0  0  0  0  0
  -26.4276  -37.3802   23.9435 N   0  0  0  0  0  0
  -24.6654  -31.0802   22.1004 N   0  0  0  0  0  0
  -23.4185  -28.8208   23.3028 O   0  0  0  0  0  0
  -28.3956  -26.7073   20.1023 O   0  0  0  0  0  0
  -26.5579  -34.8919   22.4692 O   0  0  0  0  0  0
  -23.5327  -32.1427   23.7526 O   0  0  0  0  0  0
  -27.8501  -16.7764   18.0989 C   0  0  0  0  0  0
  -30.7121  -20.4873   17.6213 C   0  0  0  0  0  0
  -30.5333  -18.9754   17.4756 C   0  0  2  0  0  0
  -31.5022  -20.6433   18.9133 C   0  0  1  0  0  0
  -30.8176  -18.4229   18.9062 C   0  0  2  0  0  0
  -27.3380  -15.6908   17.1603 C   0  0  0  0  0  0
  -32.3303  -16.4314   15.2274 C   0  0  0  0  0  0
  -29.9290  -17.1382   14.9067 C   0  0  0  0  0  0
  -31.4160  -22.0350   19.5816 C   0  0  0  0  0  0
  -28.5618  -24.2567   20.4908 C   0  0  0  0  0  0
  -30.2176  -16.8642   20.8889 C   0  0  0  0  0  0
  -28.4032  -25.6713   21.0932 C   0  0  0  0  0  0
  -30.0145  -23.8654   20.1651 C   0  0  0  0  0  0
  -29.7105  -17.5555   19.5820 C   0  0  2  0  0  0
  -31.1083  -17.0796   15.8965 C   0  0  0  0  0  0
  -29.0591  -16.6085   18.6572 N   0  0  0  0  0  0
  -29.9113  -15.4314   20.9940 N   0  0  0  0  0  0
  -31.4449  -18.4246   16.4270 N   0  3  0  0  0  0
  -27.1523  -17.7689   18.3057 O   0  0  0  0  0  0
  -30.9987  -19.5888   19.7203 O   0  0  0  0  0  0
  -30.0752  -22.5100   19.7145 O   0  0  0  0  0  0
  -31.4730  -12.3570   19.1309 H   0  0  0  0  0  0
  -30.3063  -11.2526   19.8019 H   0  0  0  0  0  0
  -29.7424  -11.7800   17.4124 H   0  0  0  0  0  0
  -29.6824  -13.4807   17.7830 H   0  0  0  0  0  0
  -27.8377  -11.2948   18.8123 H   0  0  0  0  0  0
  -27.3654  -12.6170   17.7838 H   0  0  0  0  0  0
  -27.7157  -14.2315   19.5959 H   0  0  0  0  0  0
  -28.6721  -11.9004   21.3198 H   0  0  0  0  0  0
  -28.4723  -13.5304   21.8856 H   0  0  0  0  0  0
  -25.2713   -9.5753   22.4734 H   0  0  0  0  0  0
  -24.0020   -7.4651   22.7465 H   0  0  0  0  0  0
  -21.0818   -8.8699   19.8926 H   0  0  0  0  0  0
  -22.3606  -10.9640   19.6139 H   0  0  0  0  0  0
  -21.1974   -7.6123   23.9741 H   0  0  0  0  0  0
  -21.1505   -6.0481   25.9091 H   0  0  0  0  0  0
  -22.0591   -2.7589   23.2842 H   0  0  0  0  0  0
  -22.3993  -11.9878   22.4746 H   0  0  0  0  0  0
  -21.1094  -13.1349   22.2583 H   0  0  0  0  0  0
  -24.6797  -15.8409   20.5487 H   0  0  0  0  0  0
  -26.3042  -15.6329   20.1519 H   0  0  0  0  0  0
  -26.7115  -32.5547   23.1185 H   0  0  0  0  0  0
  -25.0098  -33.9793   25.0527 H   0  0  0  0  0  0
  -22.6907  -31.3081   21.4096 H   0  0  0  0  0  0
  -23.3760  -35.9609   23.3274 H   0  0  0  0  0  0
  -24.3590  -36.8946   22.2064 H   0  0  0  0  0  0
  -23.7197  -37.6484   23.6660 H   0  0  0  0  0  0
  -26.0420  -31.6114   20.5973 H   0  0  0  0  0  0
  -26.8141  -30.8946   21.9819 H   0  0  0  0  0  0
  -28.1076  -29.1341   21.1531 H   0  0  0  0  0  0
  -26.0877  -25.9609   19.0483 H   0  0  0  0  0  0
  -23.9876  -27.2805   19.0541 H   0  0  0  0  0  0
  -23.7162  -30.5938   19.4053 H   0  0  0  0  0  0
  -22.7370  -29.2379   19.8706 H   0  0  0  0  0  0
  -25.1265  -36.1963   25.0839 H   0  0  0  0  0  0
  -20.9961  -28.3211   24.1429 H   0  0  0  0  0  0
  -20.5655  -26.2259   23.3596 H   0  0  0  0  0  0
  -21.6616  -26.7430   22.1201 H   0  0  0  0  0  0
  -19.6889  -25.6295   21.1229 H   0  0  0  0  0  0
  -19.6678  -27.3188   20.6744 H   0  0  0  0  0  0
  -17.4187  -26.6686   21.4013 H   0  0  0  0  0  0
  -18.0305  -26.0051   22.8998 H   0  0  0  0  0  0
  -19.7924  -30.7257   24.2267 H   0  0  0  0  0  0
  -17.5003  -31.6264   24.5145 H   0  0  0  0  0  0
  -15.5340  -30.2970   23.7671 H   0  0  0  0  0  0
  -15.8657  -28.0816   22.7073 H   0  0  0  0  0  0
  -24.5914  -30.7049   25.7818 H   0  0  0  0  0  0
  -24.8969  -32.2827   26.4994 H   0  0  0  0  0  0
  -25.8131  -30.8801   27.0219 H   0  0  0  0  0  0
  -26.2841  -29.6769   24.1211 H   0  0  0  0  0  0
  -27.4139  -29.7293   25.4549 H   0  0  0  0  0  0
  -27.8647  -30.4355   23.9209 H   0  0  0  0  0  0
  -27.2736  -33.3616   26.2048 H   0  0  0  0  0  0
  -28.3882  -32.6822   25.0295 H   0  0  0  0  0  0
  -28.0731  -31.8418   26.5396 H   0  0  0  0  0  0
  -28.2569  -38.0122   24.7569 H   0  0  0  0  0  0
  -28.1112  -36.2658   24.6203 H   0  0  0  0  0  0
  -27.2315  -37.1333   25.8868 H   0  0  0  0  0  0
  -20.9286  -29.8745   21.6944 H   0  0  0  0  0  0
  -26.0162  -38.2870   24.1480 H   0  0  0  0  0  0
  -29.7309  -20.9497   17.7325 H   0  0  0  0  0  0
  -31.1987  -20.9696   16.7731 H   0  0  0  0  0  0
  -29.5002  -18.8121   17.1786 H   0  0  0  0  0  0
  -32.5531  -20.4242   18.7161 H   0  0  0  0  0  0
  -31.7599  -17.8694   18.8976 H   0  0  0  0  0  0
  -28.1200  -14.9872   16.8752 H   0  0  0  0  0  0
  -26.9432  -16.1398   16.2482 H   0  0  0  0  0  0
  -26.5288  -15.1372   17.6380 H   0  0  0  0  0  0
  -32.0882  -15.4288   14.8733 H   0  0  0  0  0  0
  -33.1649  -16.3308   15.9210 H   0  0  0  0  0  0
  -32.6731  -17.0050   14.3656 H   0  0  0  0  0  0
  -29.6628  -16.1379   14.5642 H   0  0  0  0  0  0
  -30.1791  -17.7249   14.0216 H   0  0  0  0  0  0
  -29.0332  -17.5739   15.3469 H   0  0  0  0  0  0
  -31.9864  -22.7407   18.9746 H   0  0  0  0  0  0
  -31.8976  -22.0014   20.5597 H   0  0  0  0  0  0
  -27.9271  -24.1484   19.6118 H   0  0  0  0  0  0
  -28.1840  -23.5403   21.2208 H   0  0  0  0  0  0
  -29.7618  -17.3603   21.7482 H   0  0  0  0  0  0
  -31.2898  -17.0193   21.0213 H   0  0  0  0  0  0
  -29.2099  -25.8716   21.8003 H   0  0  0  0  0  0
  -27.4896  -25.6928   21.6926 H   0  0  0  0  0  0
  -30.6280  -23.9815   21.0599 H   0  0  0  0  0  0
  -30.4205  -24.5353   19.4064 H   0  0  0  0  0  0
  -28.9483  -18.2669   19.9045 H   0  0  0  0  0  0
  -30.8365  -16.4330   16.7292 H   0  0  0  0  0  0
  -29.5671  -15.7627   18.4435 H   0  0  0  0  0  0
  -28.9928  -15.1765   21.3274 H   0  0  0  0  0  0
  -32.3895  -18.4017   16.7829 H   0  0  0  0  0  0
  -31.4480  -19.0576   15.6411 H   0  0  0  0  0  0
  1 25  1  0  0  0
  1 30  2  0  0  0
  1 87  1  0  0  0
  2  3  1  0  0  0
  2 25  1  0  0  0
  2 92  1  0  0  0
  2 93  1  0  0  0
  3  4  1  0  0  0
  3 94  1  0  0  0
  3 95  1  0  0  0
  4  5  1  0  0  0
  4 96  1  0  0  0
  4 97  1  0  0  0
  5  6  1  0  0  0
  5 26  1  0  0  0
  5 98  1  0  0  0
  6 25  1  0  0  0
  6 99  1  0  0  0
  6100  1  0  0  0
  7  8  2  0  0  0
  7 26  1  0  0  0
  7 29  1  0  0  0
  8  9  1  0  0  0
  8 22  1  0  0  0
  9 10  1  0  0  0
  9 27  2  0  0  0
 10 11  2  0  0  0
 10 15  1  0  0  0
 11 12  1  0  0  0
 11101  1  0  0  0
 12 13  2  0  0  0
 12102  1  0  0  0
 13 14  1  0  0  0
 13 31  1  0  0  0
 14 15  2  0  0  0
 14103  1  0  0  0
 15104  1  0  0  0
 16 17  2  0  0  0
 16 21  1  0  0  0
 16 31  1  0  0  0
 17 18  1  0  0  0
 17105  1  0  0  0
 18 19  2  0  0  0
 18106  1  0  0  0
 19 20  1  0  0  0
 19 24  1  0  0  0
 20 21  2  0  0  0
 20107  1  0  0  0
 21 23  1  0  0  0
 22 28  1  0  0  0
 22 32  2  0  0  0
 26 27  1  0  0  0
 28108  1  0  0  0
 28109  1  0  0  0
 29110  1  0  0  0
 29111  1  0  0  0
 33 34  1  0  0  0
 33 66  1  0  0  0
 33 70  2  0  0  0
 34 36  1  0  0  0
 34 59  1  0  0  0
 34112  1  0  0  0
 35 44  2  0  0  0
 35 45  1  0  0  0
 35 68  1  0  0  0
 36 56  1  0  0  0
 36113  1  0  0  0
 37 39  1  0  0  0
 37 47  1  0  0  0
 37 66  1  0  0  0
 37114  1  0  0  0
 38 43  2  0  0  0
 38 46  1  0  0  0
 38 47  1  0  0  0
 39 64  1  0  0  0
 39 67  2  0  0  0
 40 52  1  0  0  0
 40 53  2  0  0  0
 40 58  1  0  0  0
 41115  1  0  0  0
 41116  1  0  0  0
 41117  1  0  0  0
 41 48  1  0  0  0
 42 43  1  0  0  0
 42 66  1  0  0  0
 42118  1  0  0  0
 42119  1  0  0  0
 43 44  1  0  0  0
 44120  1  0  0  0
 45 46  2  0  0  0
 45121  1  0  0  0
 46122  1  0  0  0
 47123  1  0  0  0
 47124  1  0  0  0
 48 56  1  0  0  0
 48 65  1  0  0  0
 48125  1  0  0  0
 49 50  1  0  0  0
 49 53  1  0  0  0
 49 64  1  0  0  0
 49126  1  0  0  0
 50 51  1  0  0  0
 50127  1  0  0  0
 50128  1  0  0  0
 51 52  1  0  0  0
 51129  1  0  0  0
 51130  1  0  0  0
 52131  1  0  0  0
 52132  1  0  0  0
 53 54  1  0  0  0
 54 55  2  0  0  0
 54133  1  0  0  0
 55 57  1  0  0  0
 55134  1  0  0  0
 56 69  2  0  0  0
 57 58  2  0  0  0
 57135  1  0  0  0
 58136  1  0  0  0
 59 60  1  0  0  0
 59 61  1  0  0  0
 59 62  1  0  0  0
 60137  1  0  0  0
 60138  1  0  0  0
 60139  1  0  0  0
 61140  1  0  0  0
 61141  1  0  0  0
 61142  1  0  0  0
 62143  1  0  0  0
 62144  1  0  0  0
 62145  1  0  0  0
 63 65  1  0  0  0
 63146  1  0  0  0
 63147  1  0  0  0
 63148  1  0  0  0
 64149  1  0  0  0
 65150  1  0  0  0
 68 82  1  0  0  0
 71 76  1  0  0  0
 71 86  1  0  0  0
 71 89  2  0  0  0
 72 73  1  0  0  0
 72 74  1  0  0  0
 72151  1  0  0  0
 72152  1  0  0  0
 73 75  1  0  0  0
 73 88  1  0  0  0
 73153  1  0  0  0
 74 79  1  0  0  0
 74 90  1  0  0  0
 74154  1  0  0  0
 75 84  1  0  0  0
 75 90  1  0  0  0
 75155  1  0  0  0
 76156  1  0  0  0
 76157  1  0  0  0
 76158  1  0  0  0
 77159  1  0  0  0
 77160  1  0  0  0
 77161  1  0  0  0
 77 85  1  0  0  0
 78 85  1  0  0  0
 78162  1  0  0  0
 78163  1  0  0  0
 78164  1  0  0  0
 79 91  1  0  0  0
 79165  1  0  0  0
 79166  1  0  0  0
 80 82  1  0  0  0
 80 83  1  0  0  0
 80167  1  0  0  0
 80168  1  0  0  0
 81 87  1  0  0  0
 81169  1  0  0  0
 81170  1  0  0  0
 81 84  1  0  0  0
 82171  1  0  0  0
 82172  1  0  0  0
 83 91  1  0  0  0
 83173  1  0  0  0
 83174  1  0  0  0
 84 86  1  0  0  0
 84175  1  0  0  0
 85 88  1  0  0  0
 85176  1  0  0  0
 86177  1  0  0  0
 87178  1  0  0  0
 88179  1  0  0  0
 88180  1  0  0  0
M  CHG  1  88   1
M  ISO  4   1 100  68 101  82 101  87 100
M  END
> <chiral flag>
0

> <version>
0

> <s_m_source_file>
/data/baiqing/PycharmProjects/Reinvent-master-3.2/result/LINK_invent/BTK/process_docking_weight1_custom_sum_contain_oxygen_bond_distance_aromatic_linkinvent_7_9_3/rearranged_h_0113.sdf

> <i_m_source_file_index>
77

> <r_mmod_Potential_Energy-OPLS-2005>
-260.252014160156

> <r_mmod_Stretch_Energy-OPLS-2005>
38.4846458435059

> <r_mmod_Bend_Energy-OPLS-2005>
118.514221191406

> <r_mmod_Torsional_Energy-OPLS-2005>
314.786468505859

> <r_mmod_Improper_Torsional_Energy-OPLS-2005>
5.41158056259155

> <r_mmod_Van_der_Waal_Energy-OPLS-2005>
110.308700561523

> <r_mmod_Electrostatic_Energy-OPLS-2005>
-405.562438964844

> <r_mmod_Solvation_Energy-OPLS-2005>
-452.780639648438

> <b_mmod_Minimization_Converged-OPLS-2005>
0

> <r_mmod_RMS_Derivative-OPLS-2005>
2.70884108543396

$$$$
79
                    3D
 Structure written by MMmdl.
152159  0  0  1  0            999 V2000
  -30.2482  -16.0055   20.2670 C   0  0  0  0  0  0
  -30.4157  -13.3603   19.5132 C   0  0  0  0  0  0
  -29.5818  -12.7621   18.3362 C   0  0  0  0  0  0
  -28.1701  -12.3484   18.7802 C   0  0  0  0  0  0
  -27.5961  -13.3605   19.7965 C   0  0  2  0  0  0
  -28.6094  -13.8470   20.8749 C   0  0  0  0  0  0
  -25.2303  -13.8355   20.5827 C   0  0  0  0  0  0
  -24.1748  -13.0472   20.9293 C   0  0  0  0  0  0
  -24.6514  -11.6981   20.8764 C   0  0  0  0  0  0
  -23.9203  -10.4333   21.0381 C   0  0  0  0  0  0
  -24.3700   -9.4234   21.9168 C   0  0  0  0  0  0
  -23.6332   -8.2284   22.0774 C   0  0  0  0  0  0
  -22.4307   -8.0326   21.3558 C   0  0  0  0  0  0
  -21.9942   -9.0331   20.4702 C   0  0  0  0  0  0
  -22.7321  -10.2188   20.3088 C   0  0  0  0  0  0
  -21.6866   -6.0776   22.5293 C   0  0  0  0  0  0
  -21.4033   -6.5654   23.8227 C   0  0  0  0  0  0
  -21.3676   -5.6783   24.9166 C   0  0  0  0  0  0
  -21.6044   -4.3052   24.7199 C   0  0  0  0  0  0
  -21.8803   -3.8159   23.4308 C   0  0  0  0  0  0
  -21.9176   -4.6991   22.3381 C   0  0  0  0  0  0
  -22.7711  -13.5195   21.1840 C   0  0  0  0  0  0
  -22.1639   -4.2186   21.0949 F   0  0  0  0  0  0
  -21.5631   -3.4518   25.7704 F   0  0  0  0  0  0
  -29.7177  -14.5914   20.1684 N   0  0  0  0  0  0
  -26.2871  -12.9808   20.3260 N   0  0  0  0  0  0
  -25.9492  -11.6832   20.5648 N   0  0  0  0  0  0
  -22.0278  -12.8319   22.0391 N   0  0  0  0  0  0
  -25.3767  -15.2102   20.4268 N   0  0  0  0  0  0
  -31.4900  -15.8293   20.2564 O   0  0  0  0  0  0
  -21.6656   -6.8931   21.4251 O   0  0  0  0  0  0
  -22.3462  -14.5481   20.6583 O   0  0  0  0  0  0
  -24.7111  -31.7695   23.1326 C   0  0  0  0  0  0
  -25.9547  -32.4301   23.7998 C   0  0  1  0  0  0
  -27.2809  -26.4493   20.2346 C   0  0  0  0  0  0
  -25.6009  -33.8151   24.1849 N   0  0  0  0  0  0
  -23.5514  -30.3580   21.4903 C   0  0  2  0  0  0
  -25.0196  -28.6402   20.1356 C   0  0  0  0  0  0
  -22.7874  -29.4179   22.4646 C   0  0  0  0  0  0
  -18.0355  -28.1403   22.8446 C   0  0  0  0  0  0
  -24.1487  -36.7049   23.2682 C   0  0  0  0  0  0
  -26.1448  -30.4217   21.4341 C   0  0  0  0  0  0
  -26.2168  -28.9573   20.7857 C   0  0  0  0  0  0
  -27.3192  -27.9037   20.7863 C   0  0  0  0  0  0
  -26.0371  -26.4089   19.5300 C   0  0  0  0  0  0
  -24.9837  -27.3928   19.4822 C   0  0  0  0  0  0
  -23.8214  -29.6228   20.1423 C   0  0  0  0  0  0
  -25.4160  -36.2801   24.0273 C   0  0  1  0  0  0
  -20.6002  -28.3799   23.1068 C   0  0  2  0  0  0
  -20.6789  -26.9424   22.5410 C   0  0  0  0  0  0
  -19.5778  -26.6336   21.5211 C   0  0  0  0  0  0
  -18.1961  -26.7922   22.1619 C   0  0  0  0  0  0
  -19.1626  -28.8939   23.2720 C   0  0  0  0  0  0
  -18.9529  -30.1514   23.8785 C   0  0  0  0  0  0
  -17.6518  -30.6591   24.0527 C   0  0  0  0  0  0
  -25.9150  -34.9187   23.4913 C   0  0  0  0  0  0
  -16.5403  -29.9065   23.6345 C   0  0  0  0  0  0
  -16.7336  -28.6473   23.0385 C   0  0  0  0  0  0
  -26.4638  -31.6463   25.0754 C   0  0  0  0  0  0
  -25.3668  -31.3872   26.1365 C   0  0  0  0  0  0
  -27.0618  -30.2756   24.6887 C   0  0  0  0  0  0
  -27.6022  -32.4409   25.7587 C   0  0  0  0  0  0
  -27.5512  -37.1744   24.8512 C   0  0  0  0  0  0
  -21.4509  -29.2992   22.3354 N   0  0  0  0  0  0
  -26.4294  -37.3553   23.9331 N   0  0  0  0  0  0
  -24.8276  -30.8902   22.0682 N   0  0  0  0  0  0
  -23.4181  -28.7831   23.3111 O   0  0  0  0  0  0
  -28.2578  -25.1374   20.2301 O   0  0  0  0  0  0
  -26.5835  -34.8804   22.4561 O   0  0  0  0  0  0
  -23.6066  -32.0877   23.6111 O   0  0  0  0  0  0
  -32.0218  -20.4680   21.5540 C   0  0  0  0  0  0
  -29.1997  -19.3462   21.9811 C   0  0  0  0  0  0
  -31.3026  -19.4574   20.6135 C   0  0  0  0  0  0
  -28.2455  -23.2343   20.3783 C   0  0  0  0  0  0
  -29.1211  -21.3621   19.9319 C   0  0  2  0  0  0
  -29.7187  -19.3912   20.5365 C   0  0  2  0  0  0
  -29.5783  -17.5135   20.1939 N   0  0  0  0  0  0
  -30.3653  -21.9417   19.3767 N   0  3  0  0  0  0
  -31.3830  -13.6614   19.1075 H   0  0  0  0  0  0
  -30.6573  -12.5907   20.2480 H   0  0  0  0  0  0
  -30.1089  -11.9164   17.8902 H   0  0  0  0  0  0
  -29.5069  -13.5190   17.5528 H   0  0  0  0  0  0
  -28.2322  -11.3613   19.2388 H   0  0  0  0  0  0
  -27.5186  -12.2548   17.9121 H   0  0  0  0  0  0
  -27.4030  -14.2435   19.1833 H   0  0  0  0  0  0
  -28.9533  -13.0215   21.4993 H   0  0  0  0  0  0
  -28.1161  -14.5412   21.5551 H   0  0  0  0  0  0
  -25.2836   -9.5693   22.4757 H   0  0  0  0  0  0
  -24.0011   -7.4693   22.7536 H   0  0  0  0  0  0
  -21.0829   -8.8921   19.9086 H   0  0  0  0  0  0
  -22.3763  -10.9744   19.6241 H   0  0  0  0  0  0
  -21.2065   -7.6160   23.9751 H   0  0  0  0  0  0
  -21.1510   -6.0501   25.9078 H   0  0  0  0  0  0
  -22.0565   -2.7627   23.2775 H   0  0  0  0  0  0
  -22.3753  -12.0031   22.4979 H   0  0  0  0  0  0
  -21.0898  -13.1511   22.2415 H   0  0  0  0  0  0
  -24.5943  -15.8462   20.5472 H   0  0  0  0  0  0
  -26.2086  -15.6641   20.0733 H   0  0  0  0  0  0
  -26.7687  -32.4719   23.0767 H   0  0  0  0  0  0
  -24.9958  -33.9133   24.9863 H   0  0  0  0  0  0
  -22.8931  -31.2033   21.2748 H   0  0  0  0  0  0
  -23.3710  -35.9447   23.3542 H   0  0  0  0  0  0
  -24.3464  -36.8503   22.2055 H   0  0  0  0  0  0
  -23.7360  -37.6326   23.6639 H   0  0  0  0  0  0
  -26.3854  -31.1385   20.6480 H   0  0  0  0  0  0
  -26.9770  -30.4934   22.1216 H   0  0  0  0  0  0
  -28.2255  -28.1873   21.3031 H   0  0  0  0  0  0
  -25.8420  -25.4883   18.9982 H   0  0  0  0  0  0
  -24.0907  -27.1282   18.9331 H   0  0  0  0  0  0
  -24.0098  -30.3698   19.3715 H   0  0  0  0  0  0
  -22.9229  -29.0979   19.8155 H   0  0  0  0  0  0
  -25.1424  -36.1567   25.0778 H   0  0  0  0  0  0
  -21.0088  -28.3439   24.1196 H   0  0  0  0  0  0
  -20.5564  -26.2440   23.3697 H   0  0  0  0  0  0
  -21.6638  -26.7275   22.1270 H   0  0  0  0  0  0
  -19.6905  -25.6219   21.1296 H   0  0  0  0  0  0
  -19.6695  -27.3084   20.6683 H   0  0  0  0  0  0
  -17.4208  -26.6654   21.4038 H   0  0  0  0  0  0
  -18.0365  -26.0089   22.9048 H   0  0  0  0  0  0
  -19.8015  -30.7342   24.2089 H   0  0  0  0  0  0
  -17.5078  -31.6271   24.5136 H   0  0  0  0  0  0
  -15.5394  -30.2931   23.7749 H   0  0  0  0  0  0
  -15.8730  -28.0753   22.7183 H   0  0  0  0  0  0
  -24.5726  -30.7392   25.7655 H   0  0  0  0  0  0
  -24.9046  -32.3146   26.4742 H   0  0  0  0  0  0
  -25.7801  -30.8995   27.0203 H   0  0  0  0  0  0
  -26.3414  -29.6290   24.1873 H   0  0  0  0  0  0
  -27.3879  -29.7318   25.5766 H   0  0  0  0  0  0
  -27.9455  -30.3801   24.0598 H   0  0  0  0  0  0
  -27.2443  -33.3692   26.2047 H   0  0  0  0  0  0
  -28.3879  -32.7021   25.0498 H   0  0  0  0  0  0
  -28.0665  -31.8675   26.5615 H   0  0  0  0  0  0
  -28.2724  -37.9825   24.7232 H   0  0  0  0  0  0
  -28.0800  -36.2360   24.6796 H   0  0  0  0  0  0
  -27.2171  -37.1934   25.8898 H   0  0  0  0  0  0
  -20.9872  -29.8583   21.6332 H   0  0  0  0  0  0
  -26.0129  -38.2647   24.1111 H   0  0  0  0  0  0
  -31.6797  -21.4991   21.4918 H   0  0  0  0  0  0
  -33.0981  -20.4777   21.3603 H   0  0  0  0  0  0
  -31.9346  -20.1621   22.5979 H   0  0  0  0  0  0
  -29.6598  -20.0955   22.6218 H   0  0  0  0  0  0
  -29.3991  -18.3851   22.4623 H   0  0  0  0  0  0
  -28.1215  -19.5020   21.9988 H   0  0  0  0  0  0
  -31.6873  -18.4923   20.9492 H   0  0  0  0  0  0
  -31.7153  -19.5578   19.6061 H   0  0  0  0  0  0
  -28.1265  -23.1453   21.4556 H   0  0  0  0  0  0
  -27.2351  -23.0577   20.0122 H   0  0  0  0  0  0
  -28.5561  -21.1148   19.0299 H   0  0  0  0  0  0
  -28.6147  -17.3441   19.9345 H   0  0  0  0  0  0
  -31.0046  -22.1229   20.1349 H   0  0  0  0  0  0
  -30.1674  -22.8276   18.9373 H   0  0  0  0  0  0
  -30.8248  -21.3606   18.6988 H   0  0  0  0  0  0
  1 25  1  0  0  0
  1 30  2  0  0  0
  1 77  1  0  0  0
  2  3  1  0  0  0
  2 25  1  0  0  0
  2 79  1  0  0  0
  2 80  1  0  0  0
  3  4  1  0  0  0
  3 81  1  0  0  0
  3 82  1  0  0  0
  4  5  1  0  0  0
  4 83  1  0  0  0
  4 84  1  0  0  0
  5  6  1  0  0  0
  5 26  1  0  0  0
  5 85  1  0  0  0
  6 25  1  0  0  0
  6 86  1  0  0  0
  6 87  1  0  0  0
  7  8  2  0  0  0
  7 26  1  0  0  0
  7 29  1  0  0  0
  8  9  1  0  0  0
  8 22  1  0  0  0
  9 10  1  0  0  0
  9 27  2  0  0  0
 10 11  2  0  0  0
 10 15  1  0  0  0
 11 12  1  0  0  0
 11 88  1  0  0  0
 12 13  2  0  0  0
 12 89  1  0  0  0
 13 14  1  0  0  0
 13 31  1  0  0  0
 14 15  2  0  0  0
 14 90  1  0  0  0
 15 91  1  0  0  0
 16 17  2  0  0  0
 16 21  1  0  0  0
 16 31  1  0  0  0
 17 18  1  0  0  0
 17 92  1  0  0  0
 18 19  2  0  0  0
 18 93  1  0  0  0
 19 20  1  0  0  0
 19 24  1  0  0  0
 20 21  2  0  0  0
 20 94  1  0  0  0
 21 23  1  0  0  0
 22 28  1  0  0  0
 22 32  2  0  0  0
 26 27  1  0  0  0
 28 95  1  0  0  0
 28 96  1  0  0  0
 29 97  1  0  0  0
 29 98  1  0  0  0
 33 34  1  0  0  0
 33 66  1  0  0  0
 33 70  2  0  0  0
 34 36  1  0  0  0
 34 59  1  0  0  0
 34 99  1  0  0  0
 35 44  2  0  0  0
 35 45  1  0  0  0
 35 68  1  0  0  0
 36 56  1  0  0  0
 36100  1  0  0  0
 37 39  1  0  0  0
 37 47  1  0  0  0
 37 66  1  0  0  0
 37101  1  0  0  0
 38 43  2  0  0  0
 38 46  1  0  0  0
 38 47  1  0  0  0
 39 64  1  0  0  0
 39 67  2  0  0  0
 40 52  1  0  0  0
 40 53  2  0  0  0
 40 58  1  0  0  0
 41102  1  0  0  0
 41103  1  0  0  0
 41104  1  0  0  0
 41 48  1  0  0  0
 42 43  1  0  0  0
 42 66  1  0  0  0
 42105  1  0  0  0
 42106  1  0  0  0
 43 44  1  0  0  0
 44107  1  0  0  0
 45 46  2  0  0  0
 45108  1  0  0  0
 46109  1  0  0  0
 47110  1  0  0  0
 47111  1  0  0  0
 48 56  1  0  0  0
 48 65  1  0  0  0
 48112  1  0  0  0
 49 50  1  0  0  0
 49 53  1  0  0  0
 49 64  1  0  0  0
 49113  1  0  0  0
 50 51  1  0  0  0
 50114  1  0  0  0
 50115  1  0  0  0
 51 52  1  0  0  0
 51116  1  0  0  0
 51117  1  0  0  0
 52118  1  0  0  0
 52119  1  0  0  0
 53 54  1  0  0  0
 54 55  2  0  0  0
 54120  1  0  0  0
 55 57  1  0  0  0
 55121  1  0  0  0
 56 69  2  0  0  0
 57 58  2  0  0  0
 57122  1  0  0  0
 58123  1  0  0  0
 59 60  1  0  0  0
 59 61  1  0  0  0
 59 62  1  0  0  0
 60124  1  0  0  0
 60125  1  0  0  0
 60126  1  0  0  0
 61127  1  0  0  0
 61128  1  0  0  0
 61129  1  0  0  0
 62130  1  0  0  0
 62131  1  0  0  0
 62132  1  0  0  0
 63 65  1  0  0  0
 63133  1  0  0  0
 63134  1  0  0  0
 63135  1  0  0  0
 64136  1  0  0  0
 65137  1  0  0  0
 68 74  1  0  0  0
 71 73  1  0  0  0
 71138  1  0  0  0
 71139  1  0  0  0
 71140  1  0  0  0
 72141  1  0  0  0
 72142  1  0  0  0
 72143  1  0  0  0
 72 76  1  0  0  0
 73 76  1  0  0  0
 73144  1  0  0  0
 73145  1  0  0  0
 74 75  1  0  0  0
 74146  1  0  0  0
 74147  1  0  0  0
 75 76  1  0  0  0
 75 78  1  0  0  0
 75148  1  0  0  0
 76 77  1  0  0  0
 77149  1  0  0  0
 78150  1  0  0  0
 78151  1  0  0  0
 78152  1  0  0  0
M  CHG  1  78   1
M  ISO  4   1 100  68 101  74 101  77 100
M  END
> <chiral flag>
0

> <version>
0

> <s_m_source_file>
/data/baiqing/PycharmProjects/Reinvent-master-3.2/result/LINK_invent/BTK/process_docking_weight1_custom_sum_contain_oxygen_bond_distance_aromatic_linkinvent_7_9_3/rearranged_h_0113.sdf

> <i_m_source_file_index>
78

> <r_mmod_Potential_Energy-OPLS-2005>
4100.33056640625

> <r_mmod_Stretch_Energy-OPLS-2005>
2029.49682617188

> <r_mmod_Bend_Energy-OPLS-2005>
932.062683105469

> <r_mmod_Torsional_Energy-OPLS-2005>
327.509857177734

> <r_mmod_Improper_Torsional_Energy-OPLS-2005>
5.30774831771851

> <r_mmod_Van_der_Waal_Energy-OPLS-2005>
120.773178100586

> <r_mmod_Electrostatic_Energy-OPLS-2005>
-318.127319335938

> <r_mmod_Solvation_Energy-OPLS-2005>
-499.390960693359

> <b_mmod_Minimization_Converged-OPLS-2005>
0

> <r_mmod_RMS_Derivative-OPLS-2005>
7.0722393989563

$$$$
80
                    3D
 Structure written by MMmdl.
158166  0  0  1  0            999 V2000
  -30.5873  -14.8558   20.4311 C   0  0  0  0  0  0
  -30.4345  -12.5261   19.4852 C   0  0  0  0  0  0
  -29.5142  -12.5141   18.2442 C   0  0  0  0  0  0
  -28.0446  -12.3195   18.6626 C   0  0  0  0  0  0
  -27.6336  -13.2425   19.8404 C   0  0  2  0  0  0
  -28.6796  -13.2366   20.9759 C   0  0  0  0  0  0
  -25.2473  -13.8210   20.5706 C   0  0  0  0  0  0
  -24.1782  -13.0440   20.9227 C   0  0  0  0  0  0
  -24.6389  -11.6923   20.8753 C   0  0  0  0  0  0
  -23.9074  -10.4293   21.0408 C   0  0  0  0  0  0
  -24.3623   -9.4206   21.9185 C   0  0  0  0  0  0
  -23.6295   -8.2242   22.0754 C   0  0  0  0  0  0
  -22.4277   -8.0279   21.3545 C   0  0  0  0  0  0
  -21.9914   -9.0254   20.4649 C   0  0  0  0  0  0
  -22.7245  -10.2132   20.3058 C   0  0  0  0  0  0
  -21.6852   -6.0732   22.5277 C   0  0  0  0  0  0
  -21.4016   -6.5637   23.8210 C   0  0  0  0  0  0
  -21.3661   -5.6789   24.9172 C   0  0  0  0  0  0
  -21.6046   -4.3053   24.7222 C   0  0  0  0  0  0
  -21.8819   -3.8143   23.4344 C   0  0  0  0  0  0
  -21.9191   -4.6960   22.3399 C   0  0  0  0  0  0
  -22.7802  -13.5214   21.1878 C   0  0  0  0  0  0
  -22.1658   -4.2146   21.0976 F   0  0  0  0  0  0
  -21.5629   -3.4537   25.7736 F   0  0  0  0  0  0
  -29.9654  -13.6174   20.3793 N   0  0  0  0  0  0
  -26.2901  -12.9435   20.3255 N   0  0  0  0  0  0
  -25.9321  -11.6570   20.5746 N   0  0  0  0  0  0
  -22.0451  -12.8203   22.0435 N   0  0  0  0  0  0
  -25.4136  -15.1938   20.4118 N   0  0  0  0  0  0
  -31.7935  -14.9065   20.1767 O   0  0  0  0  0  0
  -21.6639   -6.8876   21.4240 O   0  0  0  0  0  0
  -22.3484  -14.5516   20.6718 O   0  0  0  0  0  0
  -24.6407  -31.8500   23.1950 C   0  0  0  0  0  0
  -25.9202  -32.4723   23.8313 C   0  0  1  0  0  0
  -27.2052  -27.1738   20.1314 C   0  0  0  0  0  0
  -25.5970  -33.8529   24.2227 N   0  0  0  0  0  0
  -23.4409  -30.4755   21.5409 C   0  0  2  0  0  0
  -24.8873  -28.9208   20.1077 C   0  0  0  0  0  0
  -22.7552  -29.4585   22.4875 C   0  0  0  0  0  0
  -18.0305  -28.1394   22.8479 C   0  0  0  0  0  0
  -24.1494  -36.7263   23.2639 C   0  0  0  0  0  0
  -25.9976  -30.7338   21.3928 C   0  0  0  0  0  0
  -26.0667  -29.3521   20.7283 C   0  0  0  0  0  0
  -27.2274  -28.4934   20.7302 C   0  0  0  0  0  0
  -25.9994  -26.8538   19.4590 C   0  0  0  0  0  0
  -24.8650  -27.6824   19.4596 C   0  0  0  0  0  0
  -23.6639  -29.8179   20.1562 C   0  0  0  0  0  0
  -25.4125  -36.3047   24.0319 C   0  0  1  0  0  0
  -20.5917  -28.3721   23.1239 C   0  0  2  0  0  0
  -20.6796  -26.9430   22.5398 C   0  0  0  0  0  0
  -19.5766  -26.6386   21.5210 C   0  0  0  0  0  0
  -18.1948  -26.7934   22.1624 C   0  0  0  0  0  0
  -19.1562  -28.8875   23.2852 C   0  0  0  0  0  0
  -18.9478  -30.1472   23.8876 C   0  0  0  0  0  0
  -17.6475  -30.6591   24.0561 C   0  0  0  0  0  0
  -25.9073  -34.9422   23.5075 C   0  0  0  0  0  0
  -16.5365  -29.9084   23.6336 C   0  0  0  0  0  0
  -16.7291  -28.6503   23.0358 C   0  0  0  0  0  0
  -26.4531  -31.6572   25.0735 C   0  0  0  0  0  0
  -25.3719  -31.3754   26.1429 C   0  0  0  0  0  0
  -27.0397  -30.2969   24.6303 C   0  0  0  0  0  0
  -27.6066  -32.4331   25.7519 C   0  0  0  0  0  0
  -27.5578  -37.1791   24.8467 C   0  0  0  0  0  0
  -21.4250  -29.3057   22.3616 N   0  0  0  0  0  0
  -26.4292  -37.3754   23.9406 N   0  0  0  0  0  0
  -24.7126  -31.0391   22.0977 N   0  0  0  0  0  0
  -23.4216  -28.8117   23.2999 O   0  0  0  0  0  0
  -28.2362  -26.1716   20.2142 O   0  0  0  0  0  0
  -26.5644  -34.8910   22.4644 O   0  0  0  0  0  0
  -23.5535  -32.1369   23.7185 O   0  0  0  0  0  0
  -28.8092  -22.6542   21.4323 C   0  0  0  0  0  0
  -29.0541  -21.2316   21.5618 C   0  0  0  0  0  0
  -29.0796  -20.3405   20.4313 C   0  0  0  0  0  0
  -28.5959  -23.2907   20.1754 C   0  0  0  0  0  0
  -28.9165  -21.0748   19.2074 C   0  0  0  0  0  0
  -29.1870  -20.6639   22.9625 C   0  0  0  0  0  0
  -28.8844  -20.3543   17.8719 C   0  0  0  0  0  0
  -30.9996  -17.8422   19.1736 C   0  0  0  0  0  0
  -28.9824  -18.7012   20.5606 C   0  0  0  0  0  0
  -27.8227  -24.7139   19.9370 C   0  0  0  0  0  0
  -30.1771  -17.5622   20.4412 C   0  0  1  0  0  0
  -28.6994  -22.4406   19.1019 N   0  0  0  0  0  0
  -29.8225  -16.0361   20.5485 N   0  0  0  0  0  0
  -31.4729  -12.6622   19.1784 H   0  0  0  0  0  0
  -30.4000  -11.5662   20.0027 H   0  0  0  0  0  0
  -29.8152  -11.7227   17.5563 H   0  0  0  0  0  0
  -29.6207  -13.4521   17.6977 H   0  0  0  0  0  0
  -27.9244  -11.2761   18.9558 H   0  0  0  0  0  0
  -27.3831  -12.4738   17.8094 H   0  0  0  0  0  0
  -27.6083  -14.2513   19.4279 H   0  0  0  0  0  0
  -28.3997  -13.9370   21.7645 H   0  0  0  0  0  0
  -28.7439  -12.2532   21.4436 H   0  0  0  0  0  0
  -25.2766   -9.5678   22.4761 H   0  0  0  0  0  0
  -24.0000   -7.4632   22.7473 H   0  0  0  0  0  0
  -21.0843   -8.8775   19.8957 H   0  0  0  0  0  0
  -22.3702  -10.9670   19.6167 H   0  0  0  0  0  0
  -21.2011   -7.6145   23.9713 H   0  0  0  0  0  0
  -21.1485   -6.0520   25.9075 H   0  0  0  0  0  0
  -22.0599   -2.7607   23.2843 H   0  0  0  0  0  0
  -22.4069  -11.9868   22.4830 H   0  0  0  0  0  0
  -21.1068  -13.1223   22.2643 H   0  0  0  0  0  0
  -24.6418  -15.8428   20.5215 H   0  0  0  0  0  0
  -26.2501  -15.6344   20.0530 H   0  0  0  0  0  0
  -26.7266  -32.5337   23.1041 H   0  0  0  0  0  0
  -25.0116  -33.9657   25.0374 H   0  0  0  0  0  0
  -22.7412  -31.3011   21.3950 H   0  0  0  0  0  0
  -23.3761  -35.9591   23.3295 H   0  0  0  0  0  0
  -24.3579  -36.8896   22.2054 H   0  0  0  0  0  0
  -23.7246  -37.6459   23.6673 H   0  0  0  0  0  0
  -26.1551  -31.4938   20.6264 H   0  0  0  0  0  0
  -26.8674  -30.7759   22.0365 H   0  0  0  0  0  0
  -28.1213  -28.8144   21.2468 H   0  0  0  0  0  0
  -25.8691  -25.9212   18.9343 H   0  0  0  0  0  0
  -23.9669  -27.3498   18.9572 H   0  0  0  0  0  0
  -23.7968  -30.5985   19.4061 H   0  0  0  0  0  0
  -22.7784  -29.2609   19.8440 H   0  0  0  0  0  0
  -25.1310  -36.1883   25.0810 H   0  0  0  0  0  0
  -21.0012  -28.3308   24.1360 H   0  0  0  0  0  0
  -20.5703  -26.2333   23.3613 H   0  0  0  0  0  0
  -21.6661  -26.7449   22.1188 H   0  0  0  0  0  0
  -19.6931  -25.6293   21.1252 H   0  0  0  0  0  0
  -19.6701  -27.3185   20.6731 H   0  0  0  0  0  0
  -17.4217  -26.6679   21.4027 H   0  0  0  0  0  0
  -18.0349  -26.0079   22.9024 H   0  0  0  0  0  0
  -19.7954  -30.7295   24.2236 H   0  0  0  0  0  0
  -17.5028  -31.6269   24.5168 H   0  0  0  0  0  0
  -15.5366  -30.2979   23.7673 H   0  0  0  0  0  0
  -15.8691  -28.0813   22.7086 H   0  0  0  0  0  0
  -24.5907  -30.7093   25.7747 H   0  0  0  0  0  0
  -24.8901  -32.2935   26.4800 H   0  0  0  0  0  0
  -25.8005  -30.8963   27.0241 H   0  0  0  0  0  0
  -26.3016  -29.6693   24.1296 H   0  0  0  0  0  0
  -27.4002  -29.7264   25.4872 H   0  0  0  0  0  0
  -27.8928  -30.4207   23.9628 H   0  0  0  0  0  0
  -27.2663  -33.3648   26.2051 H   0  0  0  0  0  0
  -28.3903  -32.6864   25.0367 H   0  0  0  0  0  0
  -28.0706  -31.8485   26.5474 H   0  0  0  0  0  0
  -28.2593  -38.0090   24.7507 H   0  0  0  0  0  0
  -28.1077  -36.2619   24.6303 H   0  0  0  0  0  0
  -27.2291  -37.1447   25.8868 H   0  0  0  0  0  0
  -20.9449  -29.8776   21.6808 H   0  0  0  0  0  0
  -26.0163  -38.2825   24.1401 H   0  0  0  0  0  0
  -28.6860  -23.2525   22.3256 H   0  0  0  0  0  0
  -28.2420  -20.2288   23.2881 H   0  0  0  0  0  0
  -29.4645  -21.4376   23.6792 H   0  0  0  0  0  0
  -29.9548  -19.8911   22.9994 H   0  0  0  0  0  0
  -29.8640  -19.9425   17.6379 H   0  0  0  0  0  0
  -28.6161  -21.0291   17.0583 H   0  0  0  0  0  0
  -28.1558  -19.5448   17.8725 H   0  0  0  0  0  0
  -30.4189  -17.6386   18.2740 H   0  0  0  0  0  0
  -31.9077  -17.2431   19.1301 H   0  0  0  0  0  0
  -31.3182  -18.8845   19.1410 H   0  0  0  0  0  0
  -28.2247  -18.4101   19.8338 H   0  0  0  0  0  0
  -28.4836  -18.5080   21.5098 H   0  0  0  0  0  0
  -26.8780  -24.5612   20.4604 H   0  0  0  0  0  0
  -27.5861  -24.6900   18.8730 H   0  0  0  0  0  0
  -30.8464  -17.7460   21.2830 H   0  0  0  0  0  0
  -28.8439  -15.8552   20.7157 H   0  0  0  0  0  0
  1 25  1  0  0  0
  1 30  2  0  0  0
  1 83  1  0  0  0
  2  3  1  0  0  0
  2 25  1  0  0  0
  2 84  1  0  0  0
  2 85  1  0  0  0
  3  4  1  0  0  0
  3 86  1  0  0  0
  3 87  1  0  0  0
  4  5  1  0  0  0
  4 88  1  0  0  0
  4 89  1  0  0  0
  5  6  1  0  0  0
  5 26  1  0  0  0
  5 90  1  0  0  0
  6 25  1  0  0  0
  6 91  1  0  0  0
  6 92  1  0  0  0
  7  8  2  0  0  0
  7 26  1  0  0  0
  7 29  1  0  0  0
  8  9  1  0  0  0
  8 22  1  0  0  0
  9 10  1  0  0  0
  9 27  2  0  0  0
 10 11  2  0  0  0
 10 15  1  0  0  0
 11 12  1  0  0  0
 11 93  1  0  0  0
 12 13  2  0  0  0
 12 94  1  0  0  0
 13 14  1  0  0  0
 13 31  1  0  0  0
 14 15  2  0  0  0
 14 95  1  0  0  0
 15 96  1  0  0  0
 16 17  2  0  0  0
 16 21  1  0  0  0
 16 31  1  0  0  0
 17 18  1  0  0  0
 17 97  1  0  0  0
 18 19  2  0  0  0
 18 98  1  0  0  0
 19 20  1  0  0  0
 19 24  1  0  0  0
 20 21  2  0  0  0
 20 99  1  0  0  0
 21 23  1  0  0  0
 22 28  1  0  0  0
 22 32  2  0  0  0
 26 27  1  0  0  0
 28100  1  0  0  0
 28101  1  0  0  0
 29102  1  0  0  0
 29103  1  0  0  0
 33 34  1  0  0  0
 33 66  1  0  0  0
 33 70  2  0  0  0
 34 36  1  0  0  0
 34 59  1  0  0  0
 34104  1  0  0  0
 35 44  2  0  0  0
 35 45  1  0  0  0
 35 68  1  0  0  0
 36 56  1  0  0  0
 36105  1  0  0  0
 37 39  1  0  0  0
 37 47  1  0  0  0
 37 66  1  0  0  0
 37106  1  0  0  0
 38 43  2  0  0  0
 38 46  1  0  0  0
 38 47  1  0  0  0
 39 64  1  0  0  0
 39 67  2  0  0  0
 40 52  1  0  0  0
 40 53  2  0  0  0
 40 58  1  0  0  0
 41107  1  0  0  0
 41108  1  0  0  0
 41109  1  0  0  0
 41 48  1  0  0  0
 42 43  1  0  0  0
 42 66  1  0  0  0
 42110  1  0  0  0
 42111  1  0  0  0
 43 44  1  0  0  0
 44112  1  0  0  0
 45 46  2  0  0  0
 45113  1  0  0  0
 46114  1  0  0  0
 47115  1  0  0  0
 47116  1  0  0  0
 48 56  1  0  0  0
 48 65  1  0  0  0
 48117  1  0  0  0
 49 50  1  0  0  0
 49 53  1  0  0  0
 49 64  1  0  0  0
 49118  1  0  0  0
 50 51  1  0  0  0
 50119  1  0  0  0
 50120  1  0  0  0
 51 52  1  0  0  0
 51121  1  0  0  0
 51122  1  0  0  0
 52123  1  0  0  0
 52124  1  0  0  0
 53 54  1  0  0  0
 54 55  2  0  0  0
 54125  1  0  0  0
 55 57  1  0  0  0
 55126  1  0  0  0
 56 69  2  0  0  0
 57 58  2  0  0  0
 57127  1  0  0  0
 58128  1  0  0  0
 59 60  1  0  0  0
 59 61  1  0  0  0
 59 62  1  0  0  0
 60129  1  0  0  0
 60130  1  0  0  0
 60131  1  0  0  0
 61132  1  0  0  0
 61133  1  0  0  0
 61134  1  0  0  0
 62135  1  0  0  0
 62136  1  0  0  0
 62137  1  0  0  0
 63 65  1  0  0  0
 63138  1  0  0  0
 63139  1  0  0  0
 63140  1  0  0  0
 64141  1  0  0  0
 65142  1  0  0  0
 68 80  1  0  0  0
 71 72  2  0  0  0
 71 74  1  0  0  0
 71143  1  0  0  0
 72 73  1  0  0  0
 72 76  1  0  0  0
 73 75  2  0  0  0
 73 79  1  0  0  0
 74 80  1  0  0  0
 74 82  2  0  0  0
 75 77  1  0  0  0
 75 82  1  0  0  0
 76144  1  0  0  0
 76145  1  0  0  0
 76146  1  0  0  0
 77147  1  0  0  0
 77148  1  0  0  0
 77149  1  0  0  0
 78150  1  0  0  0
 78151  1  0  0  0
 78152  1  0  0  0
 78 81  1  0  0  0
 79 81  1  0  0  0
 79153  1  0  0  0
 79154  1  0  0  0
 80155  1  0  0  0
 80156  1  0  0  0
 81 83  1  0  0  0
 81157  1  0  0  0
 83158  1  0  0  0
M  ISO  4   1 100  68 101  80 101  83 100
M  END
> <chiral flag>
0

> <version>
0

> <s_m_source_file>
/data/baiqing/PycharmProjects/Reinvent-master-3.2/result/LINK_invent/BTK/process_docking_weight1_custom_sum_contain_oxygen_bond_distance_aromatic_linkinvent_7_9_3/rearranged_h_0113.sdf

> <i_m_source_file_index>
79

> <r_mmod_Potential_Energy-OPLS-2005>
216.55615234375

> <r_mmod_Stretch_Energy-OPLS-2005>
194.848373413086

> <r_mmod_Bend_Energy-OPLS-2005>
241.106567382812

> <r_mmod_Torsional_Energy-OPLS-2005>
222.712127685547

> <r_mmod_Improper_Torsional_Energy-OPLS-2005>
10.4279079437256

> <r_mmod_Van_der_Waal_Energy-OPLS-2005>
143.767730712891

> <r_mmod_Electrostatic_Energy-OPLS-2005>
-521.223449707031

> <r_mmod_Solvation_Energy-OPLS-2005>
-226.483154296875

> <b_mmod_Minimization_Converged-OPLS-2005>
0

> <r_mmod_RMS_Derivative-OPLS-2005>
0.676619708538055

$$$$
81
                    3D
 Structure written by MMmdl.
147155  0  0  1  0            999 V2000
  -30.2678  -15.8568   20.3242 C   0  0  0  0  0  0
  -30.3927  -13.2570   19.5310 C   0  0  0  0  0  0
  -29.5470  -12.7100   18.3414 C   0  0  0  0  0  0
  -28.1440  -12.3042   18.8051 C   0  0  0  0  0  0
  -27.5837  -13.3338   19.8084 C   0  0  2  0  0  0
  -28.5857  -13.7827   20.9057 C   0  0  0  0  0  0
  -25.2276  -13.8332   20.5854 C   0  0  0  0  0  0
  -24.1688  -13.0444   20.9311 C   0  0  0  0  0  0
  -24.6424  -11.6964   20.8770 C   0  0  0  0  0  0
  -23.9134  -10.4298   21.0390 C   0  0  0  0  0  0
  -24.3663   -9.4210   21.9175 C   0  0  0  0  0  0
  -23.6320   -8.2253   22.0752 C   0  0  0  0  0  0
  -22.4300   -8.0292   21.3544 C   0  0  0  0  0  0
  -21.9950   -9.0268   20.4642 C   0  0  0  0  0  0
  -22.7297  -10.2138   20.3045 C   0  0  0  0  0  0
  -21.6862   -6.0743   22.5277 C   0  0  0  0  0  0
  -21.4021   -6.5643   23.8211 C   0  0  0  0  0  0
  -21.3661   -5.6795   24.9172 C   0  0  0  0  0  0
  -21.6044   -4.3057   24.7222 C   0  0  0  0  0  0
  -21.8818   -3.8150   23.4343 C   0  0  0  0  0  0
  -21.9196   -4.6969   22.3400 C   0  0  0  0  0  0
  -22.7694  -13.5152   21.1931 C   0  0  0  0  0  0
  -22.1662   -4.2154   21.0977 F   0  0  0  0  0  0
  -21.5627   -3.4540   25.7734 F   0  0  0  0  0  0
  -29.7137  -14.4750   20.2175 N   0  0  0  0  0  0
  -26.2747  -12.9709   20.3298 N   0  0  0  0  0  0
  -25.9381  -11.6749   20.5709 N   0  0  0  0  0  0
  -22.0367  -12.8120   22.0481 N   0  0  0  0  0  0
  -25.3854  -15.2078   20.4312 N   0  0  0  0  0  0
  -31.5027  -15.6774   20.2012 O   0  0  0  0  0  0
  -21.6654   -6.8893   21.4242 O   0  0  0  0  0  0
  -22.3362  -14.5446   20.6764 O   0  0  0  0  0  0
  -24.6986  -31.7815   23.1379 C   0  0  0  0  0  0
  -25.9492  -32.4374   23.7985 C   0  0  1  0  0  0
  -27.2302  -26.5427   20.2295 C   0  0  0  0  0  0
  -25.6007  -33.8208   24.1856 N   0  0  0  0  0  0
  -23.5322  -30.3760   21.4953 C   0  0  2  0  0  0
  -24.9911  -28.6836   20.1205 C   0  0  0  0  0  0
  -22.7834  -29.4215   22.4663 C   0  0  0  0  0  0
  -18.0349  -28.1431   22.8448 C   0  0  0  0  0  0
  -24.1493  -36.7109   23.2657 C   0  0  0  0  0  0
  -26.1189  -30.4610   21.4269 C   0  0  0  0  0  0
  -26.1819  -29.0083   20.7797 C   0  0  0  0  0  0
  -27.2778  -27.9702   20.7978 C   0  0  0  0  0  0
  -26.0064  -26.4687   19.5059 C   0  0  0  0  0  0
  -24.9520  -27.4420   19.4588 C   0  0  0  0  0  0
  -23.7950  -29.6585   20.1371 C   0  0  0  0  0  0
  -25.4150  -36.2839   24.0270 C   0  0  1  0  0  0
  -20.5992  -28.3797   23.1112 C   0  0  2  0  0  0
  -20.6805  -26.9440   22.5407 C   0  0  0  0  0  0
  -19.5784  -26.6365   21.5219 C   0  0  0  0  0  0
  -18.1966  -26.7956   22.1618 C   0  0  0  0  0  0
  -19.1620  -28.8941   23.2756 C   0  0  0  0  0  0
  -18.9524  -30.1521   23.8807 C   0  0  0  0  0  0
  -17.6512  -30.6609   24.0547 C   0  0  0  0  0  0
  -25.9142  -34.9235   23.4912 C   0  0  0  0  0  0
  -16.5399  -29.9088   23.6355 C   0  0  0  0  0  0
  -16.7328  -28.6512   23.0371 C   0  0  0  0  0  0
  -26.4620  -31.6479   25.0676 C   0  0  0  0  0  0
  -25.3643  -31.3844   26.1261 C   0  0  0  0  0  0
  -27.0580  -30.2800   24.6695 C   0  0  0  0  0  0
  -27.6037  -32.4380   25.7503 C   0  0  0  0  0  0
  -27.5556  -37.1708   24.8467 C   0  0  0  0  0  0
  -21.4467  -29.3012   22.3413 N   0  0  0  0  0  0
  -26.4260  -37.3619   23.9412 N   0  0  0  0  0  0
  -24.8085  -30.9101   22.0720 N   0  0  0  0  0  0
  -23.4203  -28.7841   23.3082 O   0  0  0  0  0  0
  -28.1711  -25.2519   20.3204 O   0  0  0  0  0  0
  -26.5805  -34.8845   22.4546 O   0  0  0  0  0  0
  -23.5970  -32.0965   23.6232 O   0  0  0  0  0  0
  -29.8879  -20.4661   19.6856 C   0  0  0  0  0  0
  -27.9692  -19.9954   20.5254 C   0  0  0  0  0  0
  -30.4428  -18.7933   20.0452 C   0  0  0  0  0  0
  -28.4776  -18.2898   20.8404 C   0  0  0  0  0  0
  -28.7797  -21.5379   20.4681 C   0  0  0  0  0  0
  -28.0510  -23.4252   20.1041 C   0  0  0  0  0  0
  -29.6840  -17.3757   20.2690 N   0  0  0  0  0  0
  -31.3683  -13.5347   19.1313 H   0  0  0  0  0  0
  -30.6083  -12.4639   20.2492 H   0  0  0  0  0  0
  -30.0486  -11.8644   17.8689 H   0  0  0  0  0  0
  -29.4650  -13.4850   17.5779 H   0  0  0  0  0  0
  -28.2185  -11.3301   19.2900 H   0  0  0  0  0  0
  -27.4736  -12.1783   17.9539 H   0  0  0  0  0  0
  -27.4087  -14.2173   19.1923 H   0  0  0  0  0  0
  -28.9049  -12.9505   21.5351 H   0  0  0  0  0  0
  -28.1065  -14.5000   21.5736 H   0  0  0  0  0  0
  -25.2800   -9.5683   22.4764 H   0  0  0  0  0  0
  -24.0017   -7.4647   22.7481 H   0  0  0  0  0  0
  -21.0878   -8.8799   19.8950 H   0  0  0  0  0  0
  -22.3754  -10.9680   19.6159 H   0  0  0  0  0  0
  -21.2016   -7.6152   23.9716 H   0  0  0  0  0  0
  -21.1483   -6.0524   25.9075 H   0  0  0  0  0  0
  -22.0595   -2.7612   23.2842 H   0  0  0  0  0  0
  -22.4021  -11.9802   22.4877 H   0  0  0  0  0  0
  -21.0969  -13.1102   22.2678 H   0  0  0  0  0  0
  -24.6150  -15.8567   20.5499 H   0  0  0  0  0  0
  -26.2354  -15.6543   20.1123 H   0  0  0  0  0  0
  -26.7589  -32.4804   23.0702 H   0  0  0  0  0  0
  -25.0042  -33.9220   24.9936 H   0  0  0  0  0  0
  -22.8666  -31.2173   21.2917 H   0  0  0  0  0  0
  -23.3781  -35.9410   23.3250 H   0  0  0  0  0  0
  -24.3555  -36.8852   22.2085 H   0  0  0  0  0  0
  -23.7227  -37.6251   23.6794 H   0  0  0  0  0  0
  -26.3387  -31.1750   20.6320 H   0  0  0  0  0  0
  -26.9636  -30.5345   22.0991 H   0  0  0  0  0  0
  -28.1686  -28.2294   21.3525 H   0  0  0  0  0  0
  -25.8133  -25.5381   18.9909 H   0  0  0  0  0  0
  -24.0579  -27.1821   18.9089 H   0  0  0  0  0  0
  -23.9835  -30.4121   19.3716 H   0  0  0  0  0  0
  -22.8965  -29.1332   19.8089 H   0  0  0  0  0  0
  -25.1365  -36.1575   25.0758 H   0  0  0  0  0  0
  -21.0070  -28.3435   24.1241 H   0  0  0  0  0  0
  -20.5654  -26.2425   23.3684 H   0  0  0  0  0  0
  -21.6665  -26.7357   22.1234 H   0  0  0  0  0  0
  -19.6937  -25.6253   21.1306 H   0  0  0  0  0  0
  -19.6732  -27.3127   20.6710 H   0  0  0  0  0  0
  -17.4237  -26.6701   21.4020 H   0  0  0  0  0  0
  -18.0347  -26.0119   22.9033 H   0  0  0  0  0  0
  -19.8000  -30.7359   24.2137 H   0  0  0  0  0  0
  -17.5063  -31.6280   24.5166 H   0  0  0  0  0  0
  -15.5397  -30.2962   23.7733 H   0  0  0  0  0  0
  -15.8729  -28.0801   22.7137 H   0  0  0  0  0  0
  -24.5863  -30.7162   25.7553 H   0  0  0  0  0  0
  -24.8798  -32.3081   26.4435 H   0  0  0  0  0  0
  -25.7779  -30.9168   27.0206 H   0  0  0  0  0  0
  -26.3328  -29.6361   24.1710 H   0  0  0  0  0  0
  -27.3965  -29.7314   25.5495 H   0  0  0  0  0  0
  -27.9323  -30.3888   24.0277 H   0  0  0  0  0  0
  -27.2558  -33.3774   26.1812 H   0  0  0  0  0  0
  -28.3980  -32.6794   25.0428 H   0  0  0  0  0  0
  -28.0561  -31.8695   26.5639 H   0  0  0  0  0  0
  -28.2527  -38.0045   24.7519 H   0  0  0  0  0  0
  -28.1097  -36.2564   24.6286 H   0  0  0  0  0  0
  -27.2272  -37.1329   25.8868 H   0  0  0  0  0  0
  -20.9810  -29.8645   21.6434 H   0  0  0  0  0  0
  -26.0070  -38.2657   24.1440 H   0  0  0  0  0  0
  -29.5696  -20.4340   18.6413 H   0  0  0  0  0  0
  -30.8115  -21.0437   19.6313 H   0  0  0  0  0  0
  -27.1595  -20.1586   21.2374 H   0  0  0  0  0  0
  -27.4334  -19.9361   19.5754 H   0  0  0  0  0  0
  -31.0627  -18.8886   20.9384 H   0  0  0  0  0  0
  -31.1673  -18.5649   19.2626 H   0  0  0  0  0  0
  -27.5875  -17.6844   20.6658 H   0  0  0  0  0  0
  -28.6135  -18.2320   21.9215 H   0  0  0  0  0  0
  -29.1787  -21.6640   21.4749 H   0  0  0  0  0  0
  -27.0604  -23.3092   20.5441 H   0  0  0  0  0  0
  -27.8517  -23.3763   19.0336 H   0  0  0  0  0  0
  1 25  1  0  0  0
  1 30  2  0  0  0
  1 77  1  0  0  0
  2  3  1  0  0  0
  2 25  1  0  0  0
  2 78  1  0  0  0
  2 79  1  0  0  0
  3  4  1  0  0  0
  3 80  1  0  0  0
  3 81  1  0  0  0
  4  5  1  0  0  0
  4 82  1  0  0  0
  4 83  1  0  0  0
  5  6  1  0  0  0
  5 26  1  0  0  0
  5 84  1  0  0  0
  6 25  1  0  0  0
  6 85  1  0  0  0
  6 86  1  0  0  0
  7  8  2  0  0  0
  7 26  1  0  0  0
  7 29  1  0  0  0
  8  9  1  0  0  0
  8 22  1  0  0  0
  9 10  1  0  0  0
  9 27  2  0  0  0
 10 11  2  0  0  0
 10 15  1  0  0  0
 11 12  1  0  0  0
 11 87  1  0  0  0
 12 13  2  0  0  0
 12 88  1  0  0  0
 13 14  1  0  0  0
 13 31  1  0  0  0
 14 15  2  0  0  0
 14 89  1  0  0  0
 15 90  1  0  0  0
 16 17  2  0  0  0
 16 21  1  0  0  0
 16 31  1  0  0  0
 17 18  1  0  0  0
 17 91  1  0  0  0
 18 19  2  0  0  0
 18 92  1  0  0  0
 19 20  1  0  0  0
 19 24  1  0  0  0
 20 21  2  0  0  0
 20 93  1  0  0  0
 21 23  1  0  0  0
 22 28  1  0  0  0
 22 32  2  0  0  0
 26 27  1  0  0  0
 28 94  1  0  0  0
 28 95  1  0  0  0
 29 96  1  0  0  0
 29 97  1  0  0  0
 33 34  1  0  0  0
 33 66  1  0  0  0
 33 70  2  0  0  0
 34 36  1  0  0  0
 34 59  1  0  0  0
 34 98  1  0  0  0
 35 44  2  0  0  0
 35 45  1  0  0  0
 35 68  1  0  0  0
 36 56  1  0  0  0
 36 99  1  0  0  0
 37 39  1  0  0  0
 37 47  1  0  0  0
 37 66  1  0  0  0
 37100  1  0  0  0
 38 43  2  0  0  0
 38 46  1  0  0  0
 38 47  1  0  0  0
 39 64  1  0  0  0
 39 67  2  0  0  0
 40 52  1  0  0  0
 40 53  2  0  0  0
 40 58  1  0  0  0
 41101  1  0  0  0
 41102  1  0  0  0
 41103  1  0  0  0
 41 48  1  0  0  0
 42 43  1  0  0  0
 42 66  1  0  0  0
 42104  1  0  0  0
 42105  1  0  0  0
 43 44  1  0  0  0
 44106  1  0  0  0
 45 46  2  0  0  0
 45107  1  0  0  0
 46108  1  0  0  0
 47109  1  0  0  0
 47110  1  0  0  0
 48 56  1  0  0  0
 48 65  1  0  0  0
 48111  1  0  0  0
 49 50  1  0  0  0
 49 53  1  0  0  0
 49 64  1  0  0  0
 49112  1  0  0  0
 50 51  1  0  0  0
 50113  1  0  0  0
 50114  1  0  0  0
 51 52  1  0  0  0
 51115  1  0  0  0
 51116  1  0  0  0
 52117  1  0  0  0
 52118  1  0  0  0
 53 54  1  0  0  0
 54 55  2  0  0  0
 54119  1  0  0  0
 55 57  1  0  0  0
 55120  1  0  0  0
 56 69  2  0  0  0
 57 58  2  0  0  0
 57121  1  0  0  0
 58122  1  0  0  0
 59 60  1  0  0  0
 59 61  1  0  0  0
 59 62  1  0  0  0
 60123  1  0  0  0
 60124  1  0  0  0
 60125  1  0  0  0
 61126  1  0  0  0
 61127  1  0  0  0
 61128  1  0  0  0
 62129  1  0  0  0
 62130  1  0  0  0
 62131  1  0  0  0
 63 65  1  0  0  0
 63132  1  0  0  0
 63133  1  0  0  0
 63134  1  0  0  0
 64135  1  0  0  0
 65136  1  0  0  0
 68 76  1  0  0  0
 71 73  1  0  0  0
 71 75  1  0  0  0
 71137  1  0  0  0
 71138  1  0  0  0
 72 74  1  0  0  0
 72 75  1  0  0  0
 72139  1  0  0  0
 72140  1  0  0  0
 73 77  1  0  0  0
 73141  1  0  0  0
 73142  1  0  0  0
 74 77  1  0  0  0
 74143  1  0  0  0
 74144  1  0  0  0
 75 76  1  0  0  0
 75145  1  0  0  0
 76146  1  0  0  0
 76147  1  0  0  0
M  ISO  4   1 100  68 101  76 101  77 100
M  END
> <chiral flag>
0

> <version>
0

> <s_m_source_file>
/data/baiqing/PycharmProjects/Reinvent-master-3.2/result/LINK_invent/BTK/process_docking_weight1_custom_sum_contain_oxygen_bond_distance_aromatic_linkinvent_7_9_3/rearranged_h_0113.sdf

> <i_m_source_file_index>
80

> <r_mmod_Potential_Energy-OPLS-2005>
3558.36840820312

> <r_mmod_Stretch_Energy-OPLS-2005>
1375.01708984375

> <r_mmod_Bend_Energy-OPLS-2005>
961.027893066406

> <r_mmod_Torsional_Energy-OPLS-2005>
310.429077148438

> <r_mmod_Improper_Torsional_Energy-OPLS-2005>
10.2289934158325

> <r_mmod_Van_der_Waal_Energy-OPLS-2005>
121.921272277832

> <r_mmod_Electrostatic_Energy-OPLS-2005>
-266.876007080078

> <r_mmod_Solvation_Energy-OPLS-2005>
-210.197875976562

> <b_mmod_Minimization_Converged-OPLS-2005>
0

> <r_mmod_RMS_Derivative-OPLS-2005>
0.203677028417587

$$$$
82
                    3D
 Structure written by MMmdl.
162170  0  0  1  0            999 V2000
  -30.5885  -14.7584   20.4768 C   0  0  0  0  0  0
  -30.4409  -12.4719   19.4612 C   0  0  0  0  0  0
  -29.5087  -12.5084   18.2291 C   0  0  0  0  0  0
  -28.0363  -12.3250   18.6475 C   0  0  0  0  0  0
  -27.6410  -13.2251   19.8482 C   0  0  2  0  0  0
  -28.6873  -13.1537   20.9809 C   0  0  0  0  0  0
  -25.2511  -13.8178   20.5680 C   0  0  0  0  0  0
  -24.1801  -13.0433   20.9215 C   0  0  0  0  0  0
  -24.6382  -11.6911   20.8752 C   0  0  0  0  0  0
  -23.9058  -10.4292   21.0413 C   0  0  0  0  0  0
  -24.3614   -9.4207   21.9185 C   0  0  0  0  0  0
  -23.6294   -8.2239   22.0754 C   0  0  0  0  0  0
  -22.4275   -8.0276   21.3542 C   0  0  0  0  0  0
  -21.9907   -9.0250   20.4644 C   0  0  0  0  0  0
  -22.7234  -10.2130   20.3059 C   0  0  0  0  0  0
  -21.6856   -6.0732   22.5280 C   0  0  0  0  0  0
  -21.4013   -6.5639   23.8212 C   0  0  0  0  0  0
  -21.3655   -5.6795   24.9177 C   0  0  0  0  0  0
  -21.6047   -4.3056   24.7228 C   0  0  0  0  0  0
  -21.8820   -3.8144   23.4349 C   0  0  0  0  0  0
  -21.9192   -4.6960   22.3405 C   0  0  0  0  0  0
  -22.7825  -13.5219   21.1876 C   0  0  0  0  0  0
  -22.1664   -4.2147   21.0984 F   0  0  0  0  0  0
  -21.5627   -3.4540   25.7740 F   0  0  0  0  0  0
  -29.9833  -13.5236   20.3963 N   0  0  0  0  0  0
  -26.2927  -12.9370   20.3265 N   0  0  0  0  0  0
  -25.9307  -11.6523   20.5753 N   0  0  0  0  0  0
  -22.0474  -12.8203   22.0431 N   0  0  0  0  0  0
  -25.4197  -15.1897   20.4063 N   0  0  0  0  0  0
  -31.7819  -14.8839   20.1910 O   0  0  0  0  0  0
  -21.6641   -6.8870   21.4240 O   0  0  0  0  0  0
  -22.3520  -14.5532   20.6733 O   0  0  0  0  0  0
  -24.6344  -31.8541   23.1983 C   0  0  0  0  0  0
  -25.9161  -32.4751   23.8331 C   0  0  1  0  0  0
  -27.2131  -27.2303   20.1169 C   0  0  0  0  0  0
  -25.5957  -33.8558   24.2250 N   0  0  0  0  0  0
  -23.4311  -30.4804   21.5430 C   0  0  2  0  0  0
  -24.8728  -28.9275   20.1121 C   0  0  0  0  0  0
  -22.7516  -29.4610   22.4903 C   0  0  0  0  0  0
  -18.0299  -28.1386   22.8483 C   0  0  0  0  0  0
  -24.1489  -36.7273   23.2639 C   0  0  0  0  0  0
  -25.9821  -30.7565   21.3835 C   0  0  0  0  0  0
  -26.0486  -29.3775   20.7244 C   0  0  0  0  0  0
  -27.2159  -28.5406   20.7195 C   0  0  0  0  0  0
  -26.0047  -26.8683   19.4733 C   0  0  0  0  0  0
  -24.8578  -27.6800   19.4795 C   0  0  0  0  0  0
  -23.6480  -29.8191   20.1589 C   0  0  0  0  0  0
  -25.4121  -36.3068   24.0324 C   0  0  1  0  0  0
  -20.5905  -28.3702   23.1259 C   0  0  2  0  0  0
  -20.6784  -26.9416   22.5404 C   0  0  0  0  0  0
  -19.5756  -26.6382   21.5212 C   0  0  0  0  0  0
  -18.1939  -26.7933   22.1618 C   0  0  0  0  0  0
  -19.1554  -28.8861   23.2865 C   0  0  0  0  0  0
  -18.9471  -30.1457   23.8878 C   0  0  0  0  0  0
  -17.6470  -30.6586   24.0561 C   0  0  0  0  0  0
  -25.9064  -34.9439   23.5087 C   0  0  0  0  0  0
  -16.5359  -29.9084   23.6325 C   0  0  0  0  0  0
  -16.7285  -28.6498   23.0357 C   0  0  0  0  0  0
  -26.4518  -31.6584   25.0731 C   0  0  0  0  0  0
  -25.3732  -31.3744   26.1445 C   0  0  0  0  0  0
  -27.0365  -30.2994   24.6242 C   0  0  0  0  0  0
  -27.6061  -32.4330   25.7507 C   0  0  0  0  0  0
  -27.5576  -37.1803   24.8472 C   0  0  0  0  0  0
  -21.4223  -29.3054   22.3652 N   0  0  0  0  0  0
  -26.4288  -37.3776   23.9409 N   0  0  0  0  0  0
  -24.7019  -31.0491   22.0967 N   0  0  0  0  0  0
  -23.4210  -28.8137   23.2997 O   0  0  0  0  0  0
  -28.3316  -26.3440   20.1675 O   0  0  0  0  0  0
  -26.5629  -34.8914   22.4649 O   0  0  0  0  0  0
  -23.5488  -32.1376   23.7263 O   0  0  0  0  0  0
  -29.1695  -23.8499   20.5440 C   0  0  0  0  0  0
  -28.8675  -22.6304   19.9113 C   0  0  0  0  0  0
  -28.3278  -24.9088   19.9947 C   0  0  0  0  0  0
  -26.7308  -20.7874   18.4900 C   0  0  0  0  0  0
  -27.9226  -22.1689   16.7290 C   0  0  0  0  0  0
  -25.7264  -22.8921   17.6688 C   0  0  0  0  0  0
  -29.6181  -21.2176   19.8480 C   0  0  0  0  0  0
  -30.0641  -17.3401   21.0107 C   0  0  0  0  0  0
  -29.4140  -18.5471   20.1289 C   0  0  0  0  0  0
  -27.0786  -22.2148   18.0180 C   0  0  0  0  0  0
  -27.5580  -24.3340   19.0913 N   0  0  0  0  0  0
  -27.8074  -22.9866   19.0561 N   0  0  0  0  0  0
  -29.7764  -15.8623   20.6983 N   0  0  0  0  0  0
  -29.3062  -19.9824   20.7128 N   0  3  0  0  0  0
  -31.4769  -12.6225   19.1521 H   0  0  0  0  0  0
  -30.4089  -11.4943   19.9448 H   0  0  0  0  0  0
  -29.7953  -11.7332   17.5172 H   0  0  0  0  0  0
  -29.6244  -13.4606   17.7087 H   0  0  0  0  0  0
  -27.8980  -11.2761   18.9120 H   0  0  0  0  0  0
  -27.3758  -12.5138   17.8005 H   0  0  0  0  0  0
  -27.6347  -14.2469   19.4682 H   0  0  0  0  0  0
  -28.7316  -12.1501   21.4070 H   0  0  0  0  0  0
  -28.4159  -13.8205   21.8014 H   0  0  0  0  0  0
  -25.2764   -9.5687   22.4758 H   0  0  0  0  0  0
  -24.0011   -7.4628   22.7469 H   0  0  0  0  0  0
  -21.0844   -8.8763   19.8944 H   0  0  0  0  0  0
  -22.3695  -10.9666   19.6165 H   0  0  0  0  0  0
  -21.2004   -7.6148   23.9715 H   0  0  0  0  0  0
  -21.1477   -6.0525   25.9081 H   0  0  0  0  0  0
  -22.0597   -2.7606   23.2853 H   0  0  0  0  0  0
  -22.4109  -11.9862   22.4808 H   0  0  0  0  0  0
  -21.1083  -13.1205   22.2637 H   0  0  0  0  0  0
  -24.6432  -15.8354   20.5030 H   0  0  0  0  0  0
  -26.2502  -15.6246   20.0267 H   0  0  0  0  0  0
  -26.7217  -32.5378   23.1057 H   0  0  0  0  0  0
  -25.0147  -33.9696   25.0431 H   0  0  0  0  0  0
  -22.7294  -31.3043   21.3985 H   0  0  0  0  0  0
  -23.3754  -35.9602   23.3313 H   0  0  0  0  0  0
  -24.3573  -36.8884   22.2047 H   0  0  0  0  0  0
  -23.7230  -37.6474   23.6658 H   0  0  0  0  0  0
  -26.1294  -31.5146   20.6130 H   0  0  0  0  0  0
  -26.8570  -30.8005   22.0202 H   0  0  0  0  0  0
  -28.1143  -28.8843   21.2120 H   0  0  0  0  0  0
  -25.8797  -25.9340   18.9579 H   0  0  0  0  0  0
  -23.9593  -27.3294   18.9896 H   0  0  0  0  0  0
  -23.7769  -30.5960   19.4045 H   0  0  0  0  0  0
  -22.7637  -29.2580   19.8503 H   0  0  0  0  0  0
  -25.1302  -36.1918   25.0817 H   0  0  0  0  0  0
  -20.9992  -28.3277   24.1379 H   0  0  0  0  0  0
  -20.5683  -26.2311   23.3614 H   0  0  0  0  0  0
  -21.6650  -26.7439   22.1190 H   0  0  0  0  0  0
  -19.6912  -25.6293   21.1243 H   0  0  0  0  0  0
  -19.6685  -27.3187   20.6740 H   0  0  0  0  0  0
  -17.4207  -26.6677   21.4023 H   0  0  0  0  0  0
  -18.0322  -26.0087   22.9019 H   0  0  0  0  0  0
  -19.7951  -30.7280   24.2233 H   0  0  0  0  0  0
  -17.5029  -31.6263   24.5168 H   0  0  0  0  0  0
  -15.5358  -30.2980   23.7668 H   0  0  0  0  0  0
  -15.8684  -28.0815   22.7081 H   0  0  0  0  0  0
  -24.5925  -30.7069   25.7783 H   0  0  0  0  0  0
  -24.8900  -32.2911   26.4831 H   0  0  0  0  0  0
  -25.8042  -30.8959   27.0247 H   0  0  0  0  0  0
  -26.2953  -29.6742   24.1248 H   0  0  0  0  0  0
  -27.4010  -29.7264   25.4778 H   0  0  0  0  0  0
  -27.8858  -30.4253   23.9524 H   0  0  0  0  0  0
  -27.2667  -33.3644   26.2050 H   0  0  0  0  0  0
  -28.3893  -32.6867   25.0351 H   0  0  0  0  0  0
  -28.0713  -31.8483   26.5450 H   0  0  0  0  0  0
  -28.2612  -38.0088   24.7506 H   0  0  0  0  0  0
  -28.1053  -36.2611   24.6316 H   0  0  0  0  0  0
  -27.2292  -37.1476   25.8880 H   0  0  0  0  0  0
  -20.9405  -29.8793   21.6874 H   0  0  0  0  0  0
  -26.0165  -38.2854   24.1399 H   0  0  0  0  0  0
  -29.9702  -23.9923   21.2548 H   0  0  0  0  0  0
  -25.9971  -20.3232   17.8301 H   0  0  0  0  0  0
  -26.3005  -20.7906   19.4919 H   0  0  0  0  0  0
  -27.5837  -20.1170   18.4775 H   0  0  0  0  0  0
  -27.3983  -21.6404   15.9324 H   0  0  0  0  0  0
  -28.8784  -21.6686   16.8716 H   0  0  0  0  0  0
  -28.1378  -23.1750   16.3654 H   0  0  0  0  0  0
  -25.1506  -22.2995   16.9576 H   0  0  0  0  0  0
  -25.8600  -23.8719   17.2093 H   0  0  0  0  0  0
  -25.1062  -23.0267   18.5555 H   0  0  0  0  0  0
  -30.6743  -21.4168   20.0315 H   0  0  0  0  0  0
  -29.6218  -20.8879   18.8121 H   0  0  0  0  0  0
  -29.7368  -17.4790   22.0412 H   0  0  0  0  0  0
  -31.1461  -17.4772   21.0387 H   0  0  0  0  0  0
  -28.4025  -18.2547   19.8448 H   0  0  0  0  0  0
  -29.9708  -18.6003   19.1926 H   0  0  0  0  0  0
  -28.8084  -15.6056   20.8178 H   0  0  0  0  0  0
  -28.3729  -20.0891   21.0737 H   0  0  0  0  0  0
  -29.9165  -20.0446   21.5106 H   0  0  0  0  0  0
  1 25  1  0  0  0
  1 30  2  0  0  0
  1 83  1  0  0  0
  2  3  1  0  0  0
  2 25  1  0  0  0
  2 85  1  0  0  0
  2 86  1  0  0  0
  3  4  1  0  0  0
  3 87  1  0  0  0
  3 88  1  0  0  0
  4  5  1  0  0  0
  4 89  1  0  0  0
  4 90  1  0  0  0
  5  6  1  0  0  0
  5 26  1  0  0  0
  5 91  1  0  0  0
  6 25  1  0  0  0
  6 92  1  0  0  0
  6 93  1  0  0  0
  7  8  2  0  0  0
  7 26  1  0  0  0
  7 29  1  0  0  0
  8  9  1  0  0  0
  8 22  1  0  0  0
  9 10  1  0  0  0
  9 27  2  0  0  0
 10 11  2  0  0  0
 10 15  1  0  0  0
 11 12  1  0  0  0
 11 94  1  0  0  0
 12 13  2  0  0  0
 12 95  1  0  0  0
 13 14  1  0  0  0
 13 31  1  0  0  0
 14 15  2  0  0  0
 14 96  1  0  0  0
 15 97  1  0  0  0
 16 17  2  0  0  0
 16 21  1  0  0  0
 16 31  1  0  0  0
 17 18  1  0  0  0
 17 98  1  0  0  0
 18 19  2  0  0  0
 18 99  1  0  0  0
 19 20  1  0  0  0
 19 24  1  0  0  0
 20 21  2  0  0  0
 20100  1  0  0  0
 21 23  1  0  0  0
 22 28  1  0  0  0
 22 32  2  0  0  0
 26 27  1  0  0  0
 28101  1  0  0  0
 28102  1  0  0  0
 29103  1  0  0  0
 29104  1  0  0  0
 33 34  1  0  0  0
 33 66  1  0  0  0
 33 70  2  0  0  0
 34 36  1  0  0  0
 34 59  1  0  0  0
 34105  1  0  0  0
 35 44  2  0  0  0
 35 45  1  0  0  0
 35 68  1  0  0  0
 36 56  1  0  0  0
 36106  1  0  0  0
 37 39  1  0  0  0
 37 47  1  0  0  0
 37 66  1  0  0  0
 37107  1  0  0  0
 38 43  2  0  0  0
 38 46  1  0  0  0
 38 47  1  0  0  0
 39 64  1  0  0  0
 39 67  2  0  0  0
 40 52  1  0  0  0
 40 53  2  0  0  0
 40 58  1  0  0  0
 41108  1  0  0  0
 41109  1  0  0  0
 41110  1  0  0  0
 41 48  1  0  0  0
 42 43  1  0  0  0
 42 66  1  0  0  0
 42111  1  0  0  0
 42112  1  0  0  0
 43 44  1  0  0  0
 44113  1  0  0  0
 45 46  2  0  0  0
 45114  1  0  0  0
 46115  1  0  0  0
 47116  1  0  0  0
 47117  1  0  0  0
 48 56  1  0  0  0
 48 65  1  0  0  0
 48118  1  0  0  0
 49 50  1  0  0  0
 49 53  1  0  0  0
 49 64  1  0  0  0
 49119  1  0  0  0
 50 51  1  0  0  0
 50120  1  0  0  0
 50121  1  0  0  0
 51 52  1  0  0  0
 51122  1  0  0  0
 51123  1  0  0  0
 52124  1  0  0  0
 52125  1  0  0  0
 53 54  1  0  0  0
 54 55  2  0  0  0
 54126  1  0  0  0
 55 57  1  0  0  0
 55127  1  0  0  0
 56 69  2  0  0  0
 57 58  2  0  0  0
 57128  1  0  0  0
 58129  1  0  0  0
 59 60  1  0  0  0
 59 61  1  0  0  0
 59 62  1  0  0  0
 60130  1  0  0  0
 60131  1  0  0  0
 60132  1  0  0  0
 61133  1  0  0  0
 61134  1  0  0  0
 61135  1  0  0  0
 62136  1  0  0  0
 62137  1  0  0  0
 62138  1  0  0  0
 63 65  1  0  0  0
 63139  1  0  0  0
 63140  1  0  0  0
 63141  1  0  0  0
 64142  1  0  0  0
 65143  1  0  0  0
 68 73  1  0  0  0
 71 72  2  0  0  0
 71 73  1  0  0  0
 71144  1  0  0  0
 72 77  1  0  0  0
 72 82  1  0  0  0
 73 81  2  0  0  0
 74145  1  0  0  0
 74146  1  0  0  0
 74147  1  0  0  0
 74 80  1  0  0  0
 75 80  1  0  0  0
 75148  1  0  0  0
 75149  1  0  0  0
 75150  1  0  0  0
 76 80  1  0  0  0
 76151  1  0  0  0
 76152  1  0  0  0
 76153  1  0  0  0
 77 84  1  0  0  0
 77154  1  0  0  0
 77155  1  0  0  0
 78 79  1  0  0  0
 78 83  1  0  0  0
 78156  1  0  0  0
 78157  1  0  0  0
 79 84  1  0  0  0
 79158  1  0  0  0
 79159  1  0  0  0
 80 82  1  0  0  0
 81 82  1  0  0  0
 83160  1  0  0  0
 84161  1  0  0  0
 84162  1  0  0  0
M  CHG  1  84   1
M  ISO  4   1 100  68 101  73 101  83 100
M  END
> <chiral flag>
0

> <version>
0

> <s_m_source_file>
/data/baiqing/PycharmProjects/Reinvent-master-3.2/result/LINK_invent/BTK/process_docking_weight1_custom_sum_contain_oxygen_bond_distance_aromatic_linkinvent_7_9_3/rearranged_h_0113.sdf

> <i_m_source_file_index>
81

> <r_mmod_Potential_Energy-OPLS-2005>
-79.323844909668

> <r_mmod_Stretch_Energy-OPLS-2005>
134.000183105469

> <r_mmod_Bend_Energy-OPLS-2005>
201.622787475586

> <r_mmod_Torsional_Energy-OPLS-2005>
257.596160888672

> <r_mmod_Improper_Torsional_Energy-OPLS-2005>
6.73121118545532

> <r_mmod_Van_der_Waal_Energy-OPLS-2005>
130.859527587891

> <r_mmod_Electrostatic_Energy-OPLS-2005>
-387.5380859375

> <r_mmod_Solvation_Energy-OPLS-2005>
-517.617370605469

> <b_mmod_Minimization_Converged-OPLS-2005>
0

> <r_mmod_RMS_Derivative-OPLS-2005>
1.32747411727905

$$$$
83
                    3D
 Structure written by MMmdl.
159167  0  0  1  0            999 V2000
  -30.5658  -14.9103   20.4006 C   0  0  0  0  0  0
  -30.4239  -12.5574   19.4924 C   0  0  0  0  0  0
  -29.5124  -12.5117   18.2474 C   0  0  0  0  0  0
  -28.0454  -12.3088   18.6683 C   0  0  0  0  0  0
  -27.6254  -13.2465   19.8308 C   0  0  2  0  0  0
  -28.6654  -13.2791   20.9692 C   0  0  0  0  0  0
  -25.2450  -13.8200   20.5701 C   0  0  0  0  0  0
  -24.1771  -13.0437   20.9231 C   0  0  0  0  0  0
  -24.6367  -11.6917   20.8729 C   0  0  0  0  0  0
  -23.9061  -10.4292   21.0399 C   0  0  0  0  0  0
  -24.3610   -9.4211   21.9185 C   0  0  0  0  0  0
  -23.6287   -8.2241   22.0754 C   0  0  0  0  0  0
  -22.4277   -8.0271   21.3532 C   0  0  0  0  0  0
  -21.9905   -9.0247   20.4643 C   0  0  0  0  0  0
  -22.7227  -10.2132   20.3052 C   0  0  0  0  0  0
  -21.6854   -6.0726   22.5273 C   0  0  0  0  0  0
  -21.4016   -6.5637   23.8202 C   0  0  0  0  0  0
  -21.3657   -5.6795   24.9168 C   0  0  0  0  0  0
  -21.6041   -4.3054   24.7230 C   0  0  0  0  0  0
  -21.8818   -3.8142   23.4353 C   0  0  0  0  0  0
  -21.9196   -4.6952   22.3406 C   0  0  0  0  0  0
  -22.7799  -13.5216   21.1897 C   0  0  0  0  0  0
  -22.1666   -4.2142   21.0986 F   0  0  0  0  0  0
  -21.5628   -3.4544   25.7747 F   0  0  0  0  0  0
  -29.9454  -13.6656   20.3660 N   0  0  0  0  0  0
  -26.2860  -12.9433   20.3200 N   0  0  0  0  0  0
  -25.9294  -11.6566   20.5688 N   0  0  0  0  0  0
  -22.0455  -12.8192   22.0436 N   0  0  0  0  0  0
  -25.4144  -15.1931   20.4137 N   0  0  0  0  0  0
  -31.7737  -14.9322   20.1484 O   0  0  0  0  0  0
  -21.6637   -6.8870   21.4236 O   0  0  0  0  0  0
  -22.3491  -14.5533   20.6749 O   0  0  0  0  0  0
  -24.6431  -31.8458   23.1876 C   0  0  0  0  0  0
  -25.9215  -32.4695   23.8260 C   0  0  1  0  0  0
  -27.2134  -27.1350   20.1518 C   0  0  0  0  0  0
  -25.5969  -33.8509   24.2188 N   0  0  0  0  0  0
  -23.4462  -30.4657   21.5346 C   0  0  2  0  0  0
  -24.8947  -28.8910   20.1144 C   0  0  0  0  0  0
  -22.7557  -29.4571   22.4867 C   0  0  0  0  0  0
  -18.0313  -28.1394   22.8473 C   0  0  0  0  0  0
  -24.1505  -36.7254   23.2638 C   0  0  0  0  0  0
  -26.0034  -30.7167   21.3897 C   0  0  0  0  0  0
  -26.0733  -29.3283   20.7315 C   0  0  0  0  0  0
  -27.2341  -28.4669   20.7336 C   0  0  0  0  0  0
  -26.0102  -26.8065   19.4873 C   0  0  0  0  0  0
  -24.8758  -27.6422   19.4787 C   0  0  0  0  0  0
  -23.6716  -29.7930   20.1556 C   0  0  0  0  0  0
  -25.4132  -36.3036   24.0311 C   0  0  1  0  0  0
  -20.5924  -28.3721   23.1232 C   0  0  2  0  0  0
  -20.6810  -26.9431   22.5392 C   0  0  0  0  0  0
  -19.5781  -26.6388   21.5206 C   0  0  0  0  0  0
  -18.1957  -26.7937   22.1617 C   0  0  0  0  0  0
  -19.1566  -28.8880   23.2844 C   0  0  0  0  0  0
  -18.9485  -30.1478   23.8866 C   0  0  0  0  0  0
  -17.6485  -30.6593   24.0561 C   0  0  0  0  0  0
  -25.9086  -34.9407   23.5054 C   0  0  0  0  0  0
  -16.5380  -29.9079   23.6334 C   0  0  0  0  0  0
  -16.7299  -28.6500   23.0351 C   0  0  0  0  0  0
  -26.4530  -31.6556   25.0699 C   0  0  0  0  0  0
  -25.3702  -31.3746   26.1380 C   0  0  0  0  0  0
  -27.0402  -30.2951   24.6295 C   0  0  0  0  0  0
  -27.6065  -32.4317   25.7474 C   0  0  0  0  0  0
  -27.5581  -37.1783   24.8459 C   0  0  0  0  0  0
  -21.4262  -29.3055   22.3599 N   0  0  0  0  0  0
  -26.4298  -37.3739   23.9397 N   0  0  0  0  0  0
  -24.7168  -31.0312   22.0912 N   0  0  0  0  0  0
  -23.4189  -28.8120   23.3029 O   0  0  0  0  0  0
  -28.2659  -26.1496   20.2045 O   0  0  0  0  0  0
  -26.5664  -34.8893   22.4635 O   0  0  0  0  0  0
  -23.5555  -32.1353   23.7096 O   0  0  0  0  0  0
  -31.5840  -18.8332   22.3548 C   0  0  0  0  0  0
  -31.5067  -17.3595   22.5904 C   0  0  0  0  0  0
  -31.4945  -17.8863   21.1639 C   0  0  0  0  0  0
  -30.6456  -17.7501   18.8125 C   0  0  0  0  0  0
  -29.1806  -18.9521   20.5073 C   0  0  0  0  0  0
  -29.5800  -20.5819   20.2261 C   0  0  0  0  0  0
  -29.0368  -23.3263   20.2177 C   0  0  0  0  0  0
  -27.9593  -24.6181   20.2828 C   0  0  0  0  0  0
  -30.2442  -17.6430   20.3028 C   0  0  2  0  0  0
  -29.8189  -16.1231   20.4916 N   0  0  0  0  0  0
  -28.5895  -21.8084   20.3900 N   0  3  0  0  0  0
  -31.4612  -12.6930   19.1849 H   0  0  0  0  0  0
  -30.3927  -11.6063   20.0248 H   0  0  0  0  0  0
  -29.8241  -11.7071   17.5799 H   0  0  0  0  0  0
  -29.6119  -13.4380   17.6787 H   0  0  0  0  0  0
  -27.9358  -11.2687   18.9803 H   0  0  0  0  0  0
  -27.3839  -12.4390   17.8109 H   0  0  0  0  0  0
  -27.5887  -14.2470   19.4003 H   0  0  0  0  0  0
  -28.7348  -12.3111   21.4673 H   0  0  0  0  0  0
  -28.3699  -14.0021   21.7307 H   0  0  0  0  0  0
  -25.2753   -9.5709   22.4758 H   0  0  0  0  0  0
  -23.9995   -7.4643   22.7484 H   0  0  0  0  0  0
  -21.0833   -8.8768   19.8954 H   0  0  0  0  0  0
  -22.3669  -10.9673   19.6162 H   0  0  0  0  0  0
  -21.1995   -7.6148   23.9702 H   0  0  0  0  0  0
  -21.1482   -6.0532   25.9074 H   0  0  0  0  0  0
  -22.0591   -2.7606   23.2863 H   0  0  0  0  0  0
  -22.4067  -11.9843   22.4812 H   0  0  0  0  0  0
  -21.1065  -13.1201   22.2618 H   0  0  0  0  0  0
  -24.6482  -15.8476   20.5312 H   0  0  0  0  0  0
  -26.2528  -15.6292   20.0539 H   0  0  0  0  0  0
  -26.7278  -32.5299   23.0983 H   0  0  0  0  0  0
  -25.0089  -33.9619   25.0318 H   0  0  0  0  0  0
  -22.7488  -31.2913   21.3784 H   0  0  0  0  0  0
  -23.3767  -35.9584   23.3288 H   0  0  0  0  0  0
  -24.3598  -36.8914   22.2056 H   0  0  0  0  0  0
  -23.7260  -37.6448   23.6694 H   0  0  0  0  0  0
  -26.1621  -31.4710   20.6183 H   0  0  0  0  0  0
  -26.8721  -30.7664   22.0340 H   0  0  0  0  0  0
  -28.1321  -28.7979   21.2366 H   0  0  0  0  0  0
  -25.9040  -25.8706   18.9648 H   0  0  0  0  0  0
  -23.9786  -27.3029   18.9804 H   0  0  0  0  0  0
  -23.8084  -30.5653   19.3975 H   0  0  0  0  0  0
  -22.7858  -29.2346   19.8465 H   0  0  0  0  0  0
  -25.1327  -36.1857   25.0800 H   0  0  0  0  0  0
  -21.0024  -28.3332   24.1357 H   0  0  0  0  0  0
  -20.5725  -26.2350   23.3613 H   0  0  0  0  0  0
  -21.6672  -26.7460   22.1184 H   0  0  0  0  0  0
  -19.6946  -25.6290   21.1262 H   0  0  0  0  0  0
  -19.6715  -27.3178   20.6714 H   0  0  0  0  0  0
  -17.4231  -26.6680   21.4017 H   0  0  0  0  0  0
  -18.0357  -26.0076   22.9009 H   0  0  0  0  0  0
  -19.7964  -30.7300   24.2223 H   0  0  0  0  0  0
  -17.5037  -31.6269   24.5170 H   0  0  0  0  0  0
  -15.5376  -30.2970   23.7678 H   0  0  0  0  0  0
  -15.8700  -28.0813   22.7070 H   0  0  0  0  0  0
  -24.5881  -30.7103   25.7679 H   0  0  0  0  0  0
  -24.8872  -32.2929   26.4730 H   0  0  0  0  0  0
  -25.7952  -30.8946   27.0201 H   0  0  0  0  0  0
  -26.3029  -29.6648   24.1312 H   0  0  0  0  0  0
  -27.4031  -29.7272   25.4873 H   0  0  0  0  0  0
  -27.8928  -30.4176   23.9609 H   0  0  0  0  0  0
  -27.2685  -33.3653   26.1971 H   0  0  0  0  0  0
  -28.3903  -32.6822   25.0314 H   0  0  0  0  0  0
  -28.0700  -31.8493   26.5444 H   0  0  0  0  0  0
  -28.2582  -38.0093   24.7522 H   0  0  0  0  0  0
  -28.1106  -36.2629   24.6289 H   0  0  0  0  0  0
  -27.2304  -37.1429   25.8863 H   0  0  0  0  0  0
  -20.9473  -29.8758   21.6761 H   0  0  0  0  0  0
  -26.0171  -38.2811   24.1389 H   0  0  0  0  0  0
  -32.5439  -19.3102   22.5421 H   0  0  0  0  0  0
  -30.7192  -19.4088   22.6751 H   0  0  0  0  0  0
  -30.5758  -16.9700   22.9995 H   0  0  0  0  0  0
  -32.4074  -16.8490   22.9247 H   0  0  0  0  0  0
  -32.4293  -17.7312   20.6260 H   0  0  0  0  0  0
  -31.0458  -18.7342   18.5683 H   0  0  0  0  0  0
  -29.7920  -17.5759   18.1556 H   0  0  0  0  0  0
  -31.4169  -17.0328   18.5306 H   0  0  0  0  0  0
  -28.3079  -18.7446   19.8875 H   0  0  0  0  0  0
  -28.7947  -18.8899   21.5246 H   0  0  0  0  0  0
  -29.9426  -20.6500   19.2001 H   0  0  0  0  0  0
  -30.4492  -20.8232   20.8356 H   0  0  0  0  0  0
  -29.8050  -23.5076   20.9689 H   0  0  0  0  0  0
  -29.5527  -23.3932   19.2590 H   0  0  0  0  0  0
  -27.3985  -24.4978   21.2105 H   0  0  0  0  0  0
  -27.2426  -24.3908   19.4979 H   0  0  0  0  0  0
  -28.8352  -15.9756   20.6632 H   0  0  0  0  0  0
  -28.1783  -21.7305   21.3064 H   0  0  0  0  0  0
  -27.8371  -21.6460   19.7389 H   0  0  0  0  0  0
  1 25  1  0  0  0
  1 30  2  0  0  0
  1 80  1  0  0  0
  2  3  1  0  0  0
  2 25  1  0  0  0
  2 82  1  0  0  0
  2 83  1  0  0  0
  3  4  1  0  0  0
  3 84  1  0  0  0
  3 85  1  0  0  0
  4  5  1  0  0  0
  4 86  1  0  0  0
  4 87  1  0  0  0
  5  6  1  0  0  0
  5 26  1  0  0  0
  5 88  1  0  0  0
  6 25  1  0  0  0
  6 89  1  0  0  0
  6 90  1  0  0  0
  7  8  2  0  0  0
  7 26  1  0  0  0
  7 29  1  0  0  0
  8  9  1  0  0  0
  8 22  1  0  0  0
  9 10  1  0  0  0
  9 27  2  0  0  0
 10 11  2  0  0  0
 10 15  1  0  0  0
 11 12  1  0  0  0
 11 91  1  0  0  0
 12 13  2  0  0  0
 12 92  1  0  0  0
 13 14  1  0  0  0
 13 31  1  0  0  0
 14 15  2  0  0  0
 14 93  1  0  0  0
 15 94  1  0  0  0
 16 17  2  0  0  0
 16 21  1  0  0  0
 16 31  1  0  0  0
 17 18  1  0  0  0
 17 95  1  0  0  0
 18 19  2  0  0  0
 18 96  1  0  0  0
 19 20  1  0  0  0
 19 24  1  0  0  0
 20 21  2  0  0  0
 20 97  1  0  0  0
 21 23  1  0  0  0
 22 28  1  0  0  0
 22 32  2  0  0  0
 26 27  1  0  0  0
 28 98  1  0  0  0
 28 99  1  0  0  0
 29100  1  0  0  0
 29101  1  0  0  0
 33 34  1  0  0  0
 33 66  1  0  0  0
 33 70  2  0  0  0
 34 36  1  0  0  0
 34 59  1  0  0  0
 34102  1  0  0  0
 35 44  2  0  0  0
 35 45  1  0  0  0
 35 68  1  0  0  0
 36 56  1  0  0  0
 36103  1  0  0  0
 37 39  1  0  0  0
 37 47  1  0  0  0
 37 66  1  0  0  0
 37104  1  0  0  0
 38 43  2  0  0  0
 38 46  1  0  0  0
 38 47  1  0  0  0
 39 64  1  0  0  0
 39 67  2  0  0  0
 40 52  1  0  0  0
 40 53  2  0  0  0
 40 58  1  0  0  0
 41105  1  0  0  0
 41106  1  0  0  0
 41107  1  0  0  0
 41 48  1  0  0  0
 42 43  1  0  0  0
 42 66  1  0  0  0
 42108  1  0  0  0
 42109  1  0  0  0
 43 44  1  0  0  0
 44110  1  0  0  0
 45 46  2  0  0  0
 45111  1  0  0  0
 46112  1  0  0  0
 47113  1  0  0  0
 47114  1  0  0  0
 48 56  1  0  0  0
 48 65  1  0  0  0
 48115  1  0  0  0
 49 50  1  0  0  0
 49 53  1  0  0  0
 49 64  1  0  0  0
 49116  1  0  0  0
 50 51  1  0  0  0
 50117  1  0  0  0
 50118  1  0  0  0
 51 52  1  0  0  0
 51119  1  0  0  0
 51120  1  0  0  0
 52121  1  0  0  0
 52122  1  0  0  0
 53 54  1  0  0  0
 54 55  2  0  0  0
 54123  1  0  0  0
 55 57  1  0  0  0
 55124  1  0  0  0
 56 69  2  0  0  0
 57 58  2  0  0  0
 57125  1  0  0  0
 58126  1  0  0  0
 59 60  1  0  0  0
 59 61  1  0  0  0
 59 62  1  0  0  0
 60127  1  0  0  0
 60128  1  0  0  0
 60129  1  0  0  0
 61130  1  0  0  0
 61131  1  0  0  0
 61132  1  0  0  0
 62133  1  0  0  0
 62134  1  0  0  0
 62135  1  0  0  0
 63 65  1  0  0  0
 63136  1  0  0  0
 63137  1  0  0  0
 63138  1  0  0  0
 64139  1  0  0  0
 65140  1  0  0  0
 68 78  1  0  0  0
 71 72  1  0  0  0
 71141  1  0  0  0
 71142  1  0  0  0
 71 73  1  0  0  0
 72 73  1  0  0  0
 72143  1  0  0  0
 72144  1  0  0  0
 73 79  1  0  0  0
 73145  1  0  0  0
 74146  1  0  0  0
 74147  1  0  0  0
 74148  1  0  0  0
 74 79  1  0  0  0
 75 76  1  0  0  0
 75 79  1  0  0  0
 75149  1  0  0  0
 75150  1  0  0  0
 76 81  1  0  0  0
 76151  1  0  0  0
 76152  1  0  0  0
 77 78  1  0  0  0
 77 81  1  0  0  0
 77153  1  0  0  0
 77154  1  0  0  0
 78155  1  0  0  0
 78156  1  0  0  0
 79 80  1  0  0  0
 80157  1  0  0  0
 81158  1  0  0  0
 81159  1  0  0  0
M  CHG  1  81   1
M  ISO  4   1 100  68 101  78 101  80 100
M  END
> <chiral flag>
0

> <version>
0

> <s_m_source_file>
/data/baiqing/PycharmProjects/Reinvent-master-3.2/result/LINK_invent/BTK/process_docking_weight1_custom_sum_contain_oxygen_bond_distance_aromatic_linkinvent_7_9_3/rearranged_h_0113.sdf

> <i_m_source_file_index>
82

> <r_mmod_Potential_Energy-OPLS-2005>
398.255218505859

> <r_mmod_Stretch_Energy-OPLS-2005>
273.885528564453

> <r_mmod_Bend_Energy-OPLS-2005>
258.983551025391

> <r_mmod_Torsional_Energy-OPLS-2005>
269.461975097656

> <r_mmod_Improper_Torsional_Energy-OPLS-2005>
4.80548191070557

> <r_mmod_Van_der_Waal_Energy-OPLS-2005>
120.258201599121

> <r_mmod_Electrostatic_Energy-OPLS-2005>
-243.948760986328

> <r_mmod_Solvation_Energy-OPLS-2005>
-464.275787353516

> <b_mmod_Minimization_Converged-OPLS-2005>
0

> <r_mmod_RMS_Derivative-OPLS-2005>
2.31353497505188

$$$$
84
                    3D
 Structure written by MMmdl.
166174  0  0  1  0            999 V2000
  -30.6094  -14.7101   20.5097 C   0  0  0  0  0  0
  -30.4413  -12.4345   19.4802 C   0  0  0  0  0  0
  -29.5099  -12.5136   18.2486 C   0  0  0  0  0  0
  -28.0378  -12.3369   18.6633 C   0  0  0  0  0  0
  -27.6510  -13.2229   19.8750 C   0  0  2  0  0  0
  -28.6961  -13.1093   21.0099 C   0  0  0  0  0  0
  -25.2513  -13.8167   20.5723 C   0  0  0  0  0  0
  -24.1804  -13.0402   20.9238 C   0  0  0  0  0  0
  -24.6416  -11.6889   20.8785 C   0  0  0  0  0  0
  -23.9094  -10.4278   21.0428 C   0  0  0  0  0  0
  -24.3650   -9.4173   21.9174 C   0  0  0  0  0  0
  -23.6312   -8.2214   22.0731 C   0  0  0  0  0  0
  -22.4282   -8.0275   21.3544 C   0  0  0  0  0  0
  -21.9920   -9.0256   20.4656 C   0  0  0  0  0  0
  -22.7259  -10.2127   20.3073 C   0  0  0  0  0  0
  -21.6848   -6.0743   22.5299 C   0  0  0  0  0  0
  -21.4025   -6.5648   23.8234 C   0  0  0  0  0  0
  -21.3669   -5.6799   24.9191 C   0  0  0  0  0  0
  -21.6031   -4.3063   24.7241 C   0  0  0  0  0  0
  -21.8802   -3.8157   23.4368 C   0  0  0  0  0  0
  -21.9188   -4.6971   22.3425 C   0  0  0  0  0  0
  -22.7839  -13.5183   21.1931 C   0  0  0  0  0  0
  -22.1652   -4.2149   21.1003 F   0  0  0  0  0  0
  -21.5619   -3.4543   25.7761 F   0  0  0  0  0  0
  -30.0104  -13.4690   20.4500 N   0  0  0  0  0  0
  -26.2985  -12.9376   20.3412 N   0  0  0  0  0  0
  -25.9361  -11.6535   20.5827 N   0  0  0  0  0  0
  -22.0545  -12.8133   22.0499 N   0  0  0  0  0  0
  -25.4123  -15.1893   20.4037 N   0  0  0  0  0  0
  -31.7404  -14.8968   20.0562 O   0  0  0  0  0  0
  -21.6632   -6.8884   21.4254 O   0  0  0  0  0  0
  -22.3519  -14.5499   20.6815 O   0  0  0  0  0  0
  -24.6364  -31.8530   23.1941 C   0  0  0  0  0  0
  -25.9155  -32.4746   23.8313 C   0  0  1  0  0  0
  -27.2299  -27.2556   20.1185 C   0  0  0  0  0  0
  -25.5886  -33.8533   24.2215 N   0  0  0  0  0  0
  -23.4330  -30.4776   21.5401 C   0  0  2  0  0  0
  -24.8823  -28.9269   20.1046 C   0  0  0  0  0  0
  -22.7545  -29.4569   22.4860 C   0  0  0  0  0  0
  -18.0359  -28.1383   22.8498 C   0  0  0  0  0  0
  -24.1509  -36.7280   23.2654 C   0  0  0  0  0  0
  -25.9867  -30.7638   21.3830 C   0  0  0  0  0  0
  -26.0565  -29.3917   20.7111 C   0  0  0  0  0  0
  -27.2336  -28.5699   20.6999 C   0  0  0  0  0  0
  -26.0335  -26.8621   19.4845 C   0  0  0  0  0  0
  -24.8787  -27.6722   19.4746 C   0  0  0  0  0  0
  -23.6528  -29.8187   20.1567 C   0  0  0  0  0  0
  -25.4111  -36.3041   24.0352 C   0  0  1  0  0  0
  -20.5967  -28.3703   23.1255 C   0  0  2  0  0  0
  -20.6833  -26.9397   22.5427 C   0  0  0  0  0  0
  -19.5795  -26.6356   21.5227 C   0  0  0  0  0  0
  -18.1985  -26.7922   22.1648 C   0  0  0  0  0  0
  -19.1606  -28.8868   23.2881 C   0  0  0  0  0  0
  -18.9500  -30.1496   23.8875 C   0  0  0  0  0  0
  -17.6469  -30.6569   24.0583 C   0  0  0  0  0  0
  -25.9036  -34.9428   23.5085 C   0  0  0  0  0  0
  -16.5389  -29.9053   23.6301 C   0  0  0  0  0  0
  -16.7338  -28.6487   23.0303 C   0  0  0  0  0  0
  -26.4470  -31.6615   25.0755 C   0  0  0  0  0  0
  -25.3641  -31.3798   26.1435 C   0  0  0  0  0  0
  -27.0304  -30.3028   24.6281 C   0  0  0  0  0  0
  -27.6053  -32.4371   25.7501 C   0  0  0  0  0  0
  -27.5572  -37.1742   24.8433 C   0  0  0  0  0  0
  -21.4258  -29.2991   22.3583 N   0  0  0  0  0  0
  -26.4271  -37.3730   23.9423 N   0  0  0  0  0  0
  -24.7046  -31.0475   22.0957 N   0  0  0  0  0  0
  -23.4236  -28.8106   23.2967 O   0  0  0  0  0  0
  -28.3385  -26.3690   20.1878 O   0  0  0  0  0  0
  -26.5632  -34.8889   22.4662 O   0  0  0  0  0  0
  -23.5491  -32.1374   23.7183 O   0  0  0  0  0  0
  -29.8252  -21.1815   21.0704 C   0  0  0  0  0  0
  -28.6924  -21.5376   19.2323 C   0  0  0  0  0  0
  -29.2390  -22.2492   20.2699 C   0  0  0  0  0  0
  -29.6582  -19.8944   20.5402 C   0  0  0  0  0  0
  -31.2834  -25.5454   20.7581 C   0  0  0  0  0  0
  -28.9763  -18.2119   22.2714 C   0  0  0  0  0  0
  -31.4098  -18.6540   21.9189 C   0  0  0  0  0  0
  -28.4672  -19.1791   18.3913 C   0  0  0  0  0  0
  -30.7513  -24.2609   20.1067 C   0  0  0  0  0  0
  -28.2021  -24.8794   19.9572 C   0  0  0  0  0  0
  -29.3217  -23.8367   20.5184 C   0  0  1  0  0  0
  -30.0536  -18.4776   21.1912 C   0  0  0  0  0  0
  -28.9367  -20.1535   19.3657 N   0  0  0  0  0  0
  -29.8420  -15.7608   20.9585 N   0  0  0  0  0  0
  -30.2393  -17.1933   20.3499 N   0  3  0  0  0  0
  -31.4785  -12.5717   19.1707 H   0  0  0  0  0  0
  -30.3948  -11.4423   19.9348 H   0  0  0  0  0  0
  -29.7848  -11.7509   17.5195 H   0  0  0  0  0  0
  -29.6392  -13.4806   17.7570 H   0  0  0  0  0  0
  -27.9005  -11.2857   18.9196 H   0  0  0  0  0  0
  -27.3745  -12.5328   17.8212 H   0  0  0  0  0  0
  -27.6636  -14.2539   19.5253 H   0  0  0  0  0  0
  -28.7169  -12.0952   21.4109 H   0  0  0  0  0  0
  -28.4224  -13.7516   21.8490 H   0  0  0  0  0  0
  -25.2782   -9.5622   22.4751 H   0  0  0  0  0  0
  -24.0000   -7.4595   22.7454 H   0  0  0  0  0  0
  -21.0819   -8.8818   19.9005 H   0  0  0  0  0  0
  -22.3714  -10.9688   19.6215 H   0  0  0  0  0  0
  -21.2039   -7.6161   23.9749 H   0  0  0  0  0  0
  -21.1500   -6.0535   25.9097 H   0  0  0  0  0  0
  -22.0574   -2.7621   23.2887 H   0  0  0  0  0  0
  -22.4151  -11.9712   22.4761 H   0  0  0  0  0  0
  -21.1230  -13.1180   22.2906 H   0  0  0  0  0  0
  -24.6181  -15.8148   20.4933 H   0  0  0  0  0  0
  -26.2190  -15.6388   19.9959 H   0  0  0  0  0  0
  -26.7292  -32.5439   23.1108 H   0  0  0  0  0  0
  -24.9969  -33.9635   25.0312 H   0  0  0  0  0  0
  -22.7337  -31.3056   21.3898 H   0  0  0  0  0  0
  -23.3739  -35.9630   23.3298 H   0  0  0  0  0  0
  -24.3590  -36.8898   22.2055 H   0  0  0  0  0  0
  -23.7279  -37.6483   23.6705 H   0  0  0  0  0  0
  -26.1466  -31.5325   20.6261 H   0  0  0  0  0  0
  -26.8572  -30.7940   22.0290 H   0  0  0  0  0  0
  -28.1366  -28.9171   21.1810 H   0  0  0  0  0  0
  -25.9637  -25.8981   19.0055 H   0  0  0  0  0  0
  -23.9874  -27.3030   18.9883 H   0  0  0  0  0  0
  -23.7777  -30.6054   19.4125 H   0  0  0  0  0  0
  -22.7679  -29.2553   19.8504 H   0  0  0  0  0  0
  -25.1288  -36.1875   25.0848 H   0  0  0  0  0  0
  -21.0152  -28.3328   24.1342 H   0  0  0  0  0  0
  -20.5710  -26.2300   23.3649 H   0  0  0  0  0  0
  -21.6707  -26.7370   22.1245 H   0  0  0  0  0  0
  -19.6908  -25.6232   21.1311 H   0  0  0  0  0  0
  -19.6766  -27.3137   20.6749 H   0  0  0  0  0  0
  -17.4249  -26.6736   21.4065 H   0  0  0  0  0  0
  -18.0410  -26.0076   22.9090 H   0  0  0  0  0  0
  -19.7967  -30.7382   24.2201 H   0  0  0  0  0  0
  -17.4972  -31.6210   24.5233 H   0  0  0  0  0  0
  -15.5368  -30.2910   23.7546 H   0  0  0  0  0  0
  -15.8810  -28.0782   22.6933 H   0  0  0  0  0  0
  -24.5814  -30.7163   25.7731 H   0  0  0  0  0  0
  -24.8789  -32.2962   26.4840 H   0  0  0  0  0  0
  -25.7863  -30.8969   27.0254 H   0  0  0  0  0  0
  -26.2908  -29.6786   24.1250 H   0  0  0  0  0  0
  -27.3885  -29.7325   25.4853 H   0  0  0  0  0  0
  -27.8850  -30.4284   23.9626 H   0  0  0  0  0  0
  -27.2697  -33.3697   26.2076 H   0  0  0  0  0  0
  -28.3844  -32.6887   25.0289 H   0  0  0  0  0  0
  -28.0780  -31.8501   26.5370 H   0  0  0  0  0  0
  -28.2551  -38.0071   24.7484 H   0  0  0  0  0  0
  -28.1125  -36.2579   24.6286 H   0  0  0  0  0  0
  -27.2310  -37.1426   25.8840 H   0  0  0  0  0  0
  -20.9386  -29.8600   21.6746 H   0  0  0  0  0  0
  -26.0170  -38.2829   24.1372 H   0  0  0  0  0  0
  -30.3309  -21.3579   22.0090 H   0  0  0  0  0  0
  -28.1478  -21.8977   18.3664 H   0  0  0  0  0  0
  -30.7581  -26.4292   20.4045 H   0  0  0  0  0  0
  -32.3374  -25.6791   20.5092 H   0  0  0  0  0  0
  -31.2016  -25.5170   21.8464 H   0  0  0  0  0  0
  -28.8587  -19.0801   22.9214 H   0  0  0  0  0  0
  -29.2264  -17.3769   22.9250 H   0  0  0  0  0  0
  -27.9980  -18.0242   21.8290 H   0  0  0  0  0  0
  -31.3663  -19.4267   22.6867 H   0  0  0  0  0  0
  -32.2045  -18.9402   21.2258 H   0  0  0  0  0  0
  -31.7330  -17.7362   22.4135 H   0  0  0  0  0  0
  -28.2541  -19.6686   17.4392 H   0  0  0  0  0  0
  -27.5542  -18.7058   18.7520 H   0  0  0  0  0  0
  -29.2248  -18.4219   18.2018 H   0  0  0  0  0  0
  -31.4388  -23.4697   20.4127 H   0  0  0  0  0  0
  -30.8304  -24.3151   19.0229 H   0  0  0  0  0  0
  -28.1327  -24.7331   18.8789 H   0  0  0  0  0  0
  -27.2467  -24.5524   20.3695 H   0  0  0  0  0  0
  -29.2738  -23.9219   21.6065 H   0  0  0  0  0  0
  -28.9055  -15.6496   21.3113 H   0  0  0  0  0  0
  -31.2123  -17.1149   20.0858 H   0  0  0  0  0  0
  -29.7243  -17.2967   19.4909 H   0  0  0  0  0  0
  1 25  1  0  0  0
  1 30  2  0  0  0
  1 84  1  0  0  0
  2  3  1  0  0  0
  2 25  1  0  0  0
  2 86  1  0  0  0
  2 87  1  0  0  0
  3  4  1  0  0  0
  3 88  1  0  0  0
  3 89  1  0  0  0
  4  5  1  0  0  0
  4 90  1  0  0  0
  4 91  1  0  0  0
  5  6  1  0  0  0
  5 26  1  0  0  0
  5 92  1  0  0  0
  6 25  1  0  0  0
  6 93  1  0  0  0
  6 94  1  0  0  0
  7  8  2  0  0  0
  7 26  1  0  0  0
  7 29  1  0  0  0
  8  9  1  0  0  0
  8 22  1  0  0  0
  9 10  1  0  0  0
  9 27  2  0  0  0
 10 11  2  0  0  0
 10 15  1  0  0  0
 11 12  1  0  0  0
 11 95  1  0  0  0
 12 13  2  0  0  0
 12 96  1  0  0  0
 13 14  1  0  0  0
 13 31  1  0  0  0
 14 15  2  0  0  0
 14 97  1  0  0  0
 15 98  1  0  0  0
 16 17  2  0  0  0
 16 21  1  0  0  0
 16 31  1  0  0  0
 17 18  1  0  0  0
 17 99  1  0  0  0
 18 19  2  0  0  0
 18100  1  0  0  0
 19 20  1  0  0  0
 19 24  1  0  0  0
 20 21  2  0  0  0
 20101  1  0  0  0
 21 23  1  0  0  0
 22 28  1  0  0  0
 22 32  2  0  0  0
 26 27  1  0  0  0
 28102  1  0  0  0
 28103  1  0  0  0
 29104  1  0  0  0
 29105  1  0  0  0
 33 34  1  0  0  0
 33 66  1  0  0  0
 33 70  2  0  0  0
 34 36  1  0  0  0
 34 59  1  0  0  0
 34106  1  0  0  0
 35 44  2  0  0  0
 35 45  1  0  0  0
 35 68  1  0  0  0
 36 56  1  0  0  0
 36107  1  0  0  0
 37 39  1  0  0  0
 37 47  1  0  0  0
 37 66  1  0  0  0
 37108  1  0  0  0
 38 43  2  0  0  0
 38 46  1  0  0  0
 38 47  1  0  0  0
 39 64  1  0  0  0
 39 67  2  0  0  0
 40 52  1  0  0  0
 40 53  2  0  0  0
 40 58  1  0  0  0
 41109  1  0  0  0
 41110  1  0  0  0
 41111  1  0  0  0
 41 48  1  0  0  0
 42 43  1  0  0  0
 42 66  1  0  0  0
 42112  1  0  0  0
 42113  1  0  0  0
 43 44  1  0  0  0
 44114  1  0  0  0
 45 46  2  0  0  0
 45115  1  0  0  0
 46116  1  0  0  0
 47117  1  0  0  0
 47118  1  0  0  0
 48 56  1  0  0  0
 48 65  1  0  0  0
 48119  1  0  0  0
 49 50  1  0  0  0
 49 53  1  0  0  0
 49 64  1  0  0  0
 49120  1  0  0  0
 50 51  1  0  0  0
 50121  1  0  0  0
 50122  1  0  0  0
 51 52  1  0  0  0
 51123  1  0  0  0
 51124  1  0  0  0
 52125  1  0  0  0
 52126  1  0  0  0
 53 54  1  0  0  0
 54 55  2  0  0  0
 54127  1  0  0  0
 55 57  1  0  0  0
 55128  1  0  0  0
 56 69  2  0  0  0
 57 58  2  0  0  0
 57129  1  0  0  0
 58130  1  0  0  0
 59 60  1  0  0  0
 59 61  1  0  0  0
 59 62  1  0  0  0
 60131  1  0  0  0
 60132  1  0  0  0
 60133  1  0  0  0
 61134  1  0  0  0
 61135  1  0  0  0
 61136  1  0  0  0
 62137  1  0  0  0
 62138  1  0  0  0
 62139  1  0  0  0
 63 65  1  0  0  0
 63140  1  0  0  0
 63141  1  0  0  0
 63142  1  0  0  0
 64143  1  0  0  0
 65144  1  0  0  0
 68 80  1  0  0  0
 71 73  1  0  0  0
 71 74  2  0  0  0
 71145  1  0  0  0
 72 73  2  0  0  0
 72 83  1  0  0  0
 72146  1  0  0  0
 73 81  1  0  0  0
 74 82  1  0  0  0
 74 83  1  0  0  0
 75 79  1  0  0  0
 75147  1  0  0  0
 75148  1  0  0  0
 75149  1  0  0  0
 76150  1  0  0  0
 76151  1  0  0  0
 76152  1  0  0  0
 76 82  1  0  0  0
 77 82  1  0  0  0
 77153  1  0  0  0
 77154  1  0  0  0
 77155  1  0  0  0
 78 83  1  0  0  0
 78156  1  0  0  0
 78157  1  0  0  0
 78158  1  0  0  0
 79159  1  0  0  0
 79160  1  0  0  0
 79 81  1  0  0  0
 80 81  1  0  0  0
 80161  1  0  0  0
 80162  1  0  0  0
 81163  1  0  0  0
 82 85  1  0  0  0
 84 85  1  0  0  0
 84164  1  0  0  0
 85165  1  0  0  0
 85166  1  0  0  0
M  CHG  1  85   1
M  ISO  4   1 100  68 101  80 101  84 100
M  END
> <chiral flag>
0

> <version>
0

> <s_m_source_file>
/data/baiqing/PycharmProjects/Reinvent-master-3.2/result/LINK_invent/BTK/process_docking_weight1_custom_sum_contain_oxygen_bond_distance_aromatic_linkinvent_7_9_3/rearranged_h_0113.sdf

> <i_m_source_file_index>
83

> <r_mmod_Potential_Energy-OPLS-2005>
-87.5331878662109

> <r_mmod_Stretch_Energy-OPLS-2005>
139.932525634766

> <r_mmod_Bend_Energy-OPLS-2005>
198.627044677734

> <r_mmod_Torsional_Energy-OPLS-2005>
227.296112060547

> <r_mmod_Improper_Torsional_Energy-OPLS-2005>
5.77949094772339

> <r_mmod_Van_der_Waal_Energy-OPLS-2005>
117.628700256348

> <r_mmod_Electrostatic_Energy-OPLS-2005>
-400.672332763672

> <r_mmod_Solvation_Energy-OPLS-2005>
-454.307098388672

> <b_mmod_Minimization_Converged-OPLS-2005>
0

> <r_mmod_RMS_Derivative-OPLS-2005>
6.5630955696106

$$$$
85
                    3D
 Structure written by MMmdl.
162170  0  0  1  0            999 V2000
  -30.5158  -14.9772   20.3804 C   0  0  0  0  0  0
  -30.4394  -12.6037   19.4791 C   0  0  0  0  0  0
  -29.5227  -12.5379   18.2393 C   0  0  0  0  0  0
  -28.0592  -12.3015   18.6668 C   0  0  0  0  0  0
  -27.6261  -13.2430   19.8224 C   0  0  2  0  0  0
  -28.6705  -13.2983   20.9535 C   0  0  0  0  0  0
  -25.2473  -13.8210   20.5662 C   0  0  0  0  0  0
  -24.1782  -13.0448   20.9214 C   0  0  0  0  0  0
  -24.6399  -11.6930   20.8764 C   0  0  0  0  0  0
  -23.9087  -10.4313   21.0423 C   0  0  0  0  0  0
  -24.3620   -9.4220   21.9205 C   0  0  0  0  0  0
  -23.6311   -8.2247   22.0761 C   0  0  0  0  0  0
  -22.4298   -8.0291   21.3541 C   0  0  0  0  0  0
  -21.9941   -9.0262   20.4642 C   0  0  0  0  0  0
  -22.7253  -10.2151   20.3069 C   0  0  0  0  0  0
  -21.6865   -6.0758   22.5289 C   0  0  0  0  0  0
  -21.4006   -6.5647   23.8227 C   0  0  0  0  0  0
  -21.3665   -5.6787   24.9173 C   0  0  0  0  0  0
  -21.6051   -4.3057   24.7212 C   0  0  0  0  0  0
  -21.8813   -3.8154   23.4336 C   0  0  0  0  0  0
  -21.9178   -4.6975   22.3390 C   0  0  0  0  0  0
  -22.7799  -13.5227   21.1830 C   0  0  0  0  0  0
  -22.1653   -4.2158   21.0973 F   0  0  0  0  0  0
  -21.5632   -3.4527   25.7726 F   0  0  0  0  0  0
  -29.9343  -13.7134   20.3314 N   0  0  0  0  0  0
  -26.2876  -12.9422   20.3165 N   0  0  0  0  0  0
  -25.9340  -11.6567   20.5731 N   0  0  0  0  0  0
  -22.0382  -12.8300   22.0395 N   0  0  0  0  0  0
  -25.4126  -15.1928   20.4032 N   0  0  0  0  0  0
  -31.7387  -15.0392   20.2164 O   0  0  0  0  0  0
  -21.6645   -6.8901   21.4261 O   0  0  0  0  0  0
  -22.3518  -14.5502   20.6593 O   0  0  0  0  0  0
  -24.6499  -31.8417   23.1877 C   0  0  0  0  0  0
  -25.9245  -32.4706   23.8270 C   0  0  1  0  0  0
  -27.2082  -27.0909   20.1380 C   0  0  0  0  0  0
  -25.5985  -33.8517   24.2184 N   0  0  0  0  0  0
  -23.4565  -30.4629   21.5360 C   0  0  2  0  0  0
  -24.9024  -28.8853   20.1153 C   0  0  0  0  0  0
  -22.7589  -29.4532   22.4851 C   0  0  0  0  0  0
  -18.0311  -28.1427   22.8468 C   0  0  0  0  0  0
  -24.1504  -36.7245   23.2637 C   0  0  0  0  0  0
  -26.0184  -30.7027   21.3917 C   0  0  0  0  0  0
  -26.0870  -29.3091   20.7322 C   0  0  0  0  0  0
  -27.2406  -28.4263   20.7297 C   0  0  0  0  0  0
  -25.9898  -26.7848   19.4917 C   0  0  0  0  0  0
  -24.8674  -27.6363   19.4842 C   0  0  0  0  0  0
  -23.6868  -29.7992   20.1544 C   0  0  0  0  0  0
  -25.4135  -36.3046   24.0320 C   0  0  1  0  0  0
  -20.5922  -28.3752   23.1241 C   0  0  2  0  0  0
  -20.6817  -26.9453   22.5413 C   0  0  0  0  0  0
  -19.5779  -26.6385   21.5244 C   0  0  0  0  0  0
  -18.1946  -26.7961   22.1625 C   0  0  0  0  0  0
  -19.1564  -28.8906   23.2841 C   0  0  0  0  0  0
  -18.9474  -30.1499   23.8867 C   0  0  0  0  0  0
  -17.6474  -30.6615   24.0557 C   0  0  0  0  0  0
  -25.9080  -34.9421   23.5051 C   0  0  0  0  0  0
  -16.5362  -29.9108   23.6337 C   0  0  0  0  0  0
  -16.7291  -28.6536   23.0330 C   0  0  0  0  0  0
  -26.4525  -31.6584   25.0734 C   0  0  0  0  0  0
  -25.3675  -31.3804   26.1411 C   0  0  0  0  0  0
  -27.0381  -30.2972   24.6343 C   0  0  0  0  0  0
  -27.6070  -32.4321   25.7529 C   0  0  0  0  0  0
  -27.5579  -37.1788   24.8448 C   0  0  0  0  0  0
  -21.4273  -29.3081   22.3616 N   0  0  0  0  0  0
  -26.4278  -37.3772   23.9418 N   0  0  0  0  0  0
  -24.7291  -31.0230   22.0948 N   0  0  0  0  0  0
  -23.4202  -28.8039   23.2994 O   0  0  0  0  0  0
  -28.2363  -26.0615   20.1830 O   0  0  0  0  0  0
  -26.5633  -34.8929   22.4612 O   0  0  0  0  0  0
  -23.5589  -32.1317   23.7062 O   0  0  0  0  0  0
  -26.7150  -21.7637   19.3982 C   0  0  0  0  0  0
  -27.4114  -19.1491   19.6048 C   0  0  0  0  0  0
  -28.0474  -21.5639   19.8533 C   0  0  0  0  0  0
  -28.4284  -20.0756   19.9322 C   0  0  0  0  0  0
  -25.8399  -20.7176   19.0706 C   0  0  0  0  0  0
  -24.4539  -20.9801   18.5125 C   0  0  0  0  0  0
  -29.9721  -23.1112   19.1337 C   0  0  0  0  0  0
  -29.7696  -19.1657   20.1600 C   0  0  0  0  0  0
  -27.8968  -24.5331   19.9587 C   0  0  0  0  0  0
  -31.0863  -17.6703   21.8989 C   0  0  0  0  0  0
  -28.7744  -23.0462   20.0904 C   0  0  1  0  0  0
  -29.8580  -17.6448   20.9545 C   0  0  2  0  0  0
  -26.1735  -19.4335   19.1892 N   0  0  0  0  0  0
  -29.7097  -16.1560   20.4071 N   0  0  0  0  0  0
  -30.8686  -18.5248   23.0050 O   0  0  0  0  0  0
  -31.4740  -12.7611   19.1708 H   0  0  0  0  0  0
  -30.4283  -11.6543   20.0188 H   0  0  0  0  0  0
  -29.8569  -11.7533   17.5620 H   0  0  0  0  0  0
  -29.5932  -13.4717   17.6783 H   0  0  0  0  0  0
  -27.9827  -11.2648   18.9957 H   0  0  0  0  0  0
  -27.3886  -12.4004   17.8131 H   0  0  0  0  0  0
  -27.5819  -14.2375   19.3806 H   0  0  0  0  0  0
  -28.7693  -12.3352   21.4579 H   0  0  0  0  0  0
  -28.3684  -14.0224   21.7121 H   0  0  0  0  0  0
  -25.2764   -9.5702   22.4772 H   0  0  0  0  0  0
  -24.0006   -7.4662   22.7517 H   0  0  0  0  0  0
  -21.0858   -8.8798   19.8977 H   0  0  0  0  0  0
  -22.3726  -10.9685   19.6166 H   0  0  0  0  0  0
  -21.2023   -7.6161   23.9739 H   0  0  0  0  0  0
  -21.1485   -6.0512   25.9082 H   0  0  0  0  0  0
  -22.0588   -2.7619   23.2820 H   0  0  0  0  0  0
  -22.3945  -12.0023   22.4938 H   0  0  0  0  0  0
  -21.0975  -13.1381   22.2460 H   0  0  0  0  0  0
  -24.6365  -15.8390   20.5043 H   0  0  0  0  0  0
  -26.2429  -15.6312   20.0300 H   0  0  0  0  0  0
  -26.7323  -32.5314   23.1005 H   0  0  0  0  0  0
  -25.0193  -33.9619   25.0371 H   0  0  0  0  0  0
  -22.7660  -31.2942   21.3805 H   0  0  0  0  0  0
  -23.3802  -35.9530   23.3248 H   0  0  0  0  0  0
  -24.3600  -36.8916   22.2055 H   0  0  0  0  0  0
  -23.7209  -37.6415   23.6693 H   0  0  0  0  0  0
  -26.1726  -31.4560   20.6181 H   0  0  0  0  0  0
  -26.8884  -30.7586   22.0329 H   0  0  0  0  0  0
  -28.1415  -28.7371   21.2386 H   0  0  0  0  0  0
  -25.8542  -25.8348   19.0008 H   0  0  0  0  0  0
  -23.9601  -27.3028   18.9993 H   0  0  0  0  0  0
  -23.8466  -30.5798   19.4095 H   0  0  0  0  0  0
  -22.7981  -29.2584   19.8242 H   0  0  0  0  0  0
  -25.1331  -36.1860   25.0810 H   0  0  0  0  0  0
  -21.0018  -28.3374   24.1363 H   0  0  0  0  0  0
  -20.5778  -26.2361   23.3636 H   0  0  0  0  0  0
  -21.6675  -26.7504   22.1173 H   0  0  0  0  0  0
  -19.6940  -25.6286   21.1300 H   0  0  0  0  0  0
  -19.6730  -27.3175   20.6761 H   0  0  0  0  0  0
  -17.4234  -26.6707   21.4004 H   0  0  0  0  0  0
  -18.0305  -26.0119   22.9031 H   0  0  0  0  0  0
  -19.7955  -30.7312   24.2215 H   0  0  0  0  0  0
  -17.5035  -31.6297   24.5164 H   0  0  0  0  0  0
  -15.5356  -30.2990   23.7718 H   0  0  0  0  0  0
  -15.8688  -28.0870   22.7028 H   0  0  0  0  0  0
  -24.5881  -30.7125   25.7727 H   0  0  0  0  0  0
  -24.8823  -32.2991   26.4716 H   0  0  0  0  0  0
  -25.7924  -30.9063   27.0261 H   0  0  0  0  0  0
  -26.2996  -29.6695   24.1347 H   0  0  0  0  0  0
  -27.3965  -29.7308   25.4940 H   0  0  0  0  0  0
  -27.8925  -30.4201   23.9692 H   0  0  0  0  0  0
  -27.2702  -33.3654   26.2049 H   0  0  0  0  0  0
  -28.3930  -32.6796   25.0389 H   0  0  0  0  0  0
  -28.0672  -31.8454   26.5484 H   0  0  0  0  0  0
  -28.2567  -38.0117   24.7570 H   0  0  0  0  0  0
  -28.1110  -36.2655   24.6197 H   0  0  0  0  0  0
  -27.2300  -37.1345   25.8847 H   0  0  0  0  0  0
  -20.9479  -29.8836   21.6834 H   0  0  0  0  0  0
  -26.0140  -38.2829   24.1469 H   0  0  0  0  0  0
  -26.3148  -22.7507   19.2503 H   0  0  0  0  0  0
  -27.6168  -18.0871   19.6138 H   0  0  0  0  0  0
  -24.2102  -22.0423   18.4953 H   0  0  0  0  0  0
  -23.6948  -20.4691   19.1062 H   0  0  0  0  0  0
  -24.3812  -20.6080   17.4891 H   0  0  0  0  0  0
  -30.6314  -22.2544   19.2728 H   0  0  0  0  0  0
  -30.5627  -24.0135   19.2913 H   0  0  0  0  0  0
  -29.6368  -23.1048   18.0944 H   0  0  0  0  0  0
  -30.4503  -19.8462   20.6718 H   0  0  0  0  0  0
  -30.2225  -19.0329   19.1768 H   0  0  0  0  0  0
  -27.0203  -24.3882   20.5913 H   0  0  0  0  0  0
  -27.5372  -24.5171   18.9304 H   0  0  0  0  0  0
  -31.9821  -17.9735   21.3547 H   0  0  0  0  0  0
  -31.2907  -16.6873   22.3244 H   0  0  0  0  0  0
  -29.1703  -23.0077   21.1068 H   0  0  0  0  0  0
  -29.0005  -17.6733   21.6298 H   0  0  0  0  0  0
  -28.7374  -15.9151   20.2836 H   0  0  0  0  0  0
  -30.7203  -19.4049   22.6712 H   0  0  0  0  0  0
  1 25  1  0  0  0
  1 30  2  0  0  0
  1 84  1  0  0  0
  2  3  1  0  0  0
  2 25  1  0  0  0
  2 86  1  0  0  0
  2 87  1  0  0  0
  3  4  1  0  0  0
  3 88  1  0  0  0
  3 89  1  0  0  0
  4  5  1  0  0  0
  4 90  1  0  0  0
  4 91  1  0  0  0
  5  6  1  0  0  0
  5 26  1  0  0  0
  5 92  1  0  0  0
  6 25  1  0  0  0
  6 93  1  0  0  0
  6 94  1  0  0  0
  7  8  2  0  0  0
  7 26  1  0  0  0
  7 29  1  0  0  0
  8  9  1  0  0  0
  8 22  1  0  0  0
  9 10  1  0  0  0
  9 27  2  0  0  0
 10 11  2  0  0  0
 10 15  1  0  0  0
 11 12  1  0  0  0
 11 95  1  0  0  0
 12 13  2  0  0  0
 12 96  1  0  0  0
 13 14  1  0  0  0
 13 31  1  0  0  0
 14 15  2  0  0  0
 14 97  1  0  0  0
 15 98  1  0  0  0
 16 17  2  0  0  0
 16 21  1  0  0  0
 16 31  1  0  0  0
 17 18  1  0  0  0
 17 99  1  0  0  0
 18 19  2  0  0  0
 18100  1  0  0  0
 19 20  1  0  0  0
 19 24  1  0  0  0
 20 21  2  0  0  0
 20101  1  0  0  0
 21 23  1  0  0  0
 22 28  1  0  0  0
 22 32  2  0  0  0
 26 27  1  0  0  0
 28102  1  0  0  0
 28103  1  0  0  0
 29104  1  0  0  0
 29105  1  0  0  0
 33 34  1  0  0  0
 33 66  1  0  0  0
 33 70  2  0  0  0
 34 36  1  0  0  0
 34 59  1  0  0  0
 34106  1  0  0  0
 35 44  2  0  0  0
 35 45  1  0  0  0
 35 68  1  0  0  0
 36 56  1  0  0  0
 36107  1  0  0  0
 37 39  1  0  0  0
 37 47  1  0  0  0
 37 66  1  0  0  0
 37108  1  0  0  0
 38 43  2  0  0  0
 38 46  1  0  0  0
 38 47  1  0  0  0
 39 64  1  0  0  0
 39 67  2  0  0  0
 40 52  1  0  0  0
 40 53  2  0  0  0
 40 58  1  0  0  0
 41109  1  0  0  0
 41110  1  0  0  0
 41111  1  0  0  0
 41 48  1  0  0  0
 42 43  1  0  0  0
 42 66  1  0  0  0
 42112  1  0  0  0
 42113  1  0  0  0
 43 44  1  0  0  0
 44114  1  0  0  0
 45 46  2  0  0  0
 45115  1  0  0  0
 46116  1  0  0  0
 47117  1  0  0  0
 47118  1  0  0  0
 48 56  1  0  0  0
 48 65  1  0  0  0
 48119  1  0  0  0
 49 50  1  0  0  0
 49 53  1  0  0  0
 49 64  1  0  0  0
 49120  1  0  0  0
 50 51  1  0  0  0
 50121  1  0  0  0
 50122  1  0  0  0
 51 52  1  0  0  0
 51123  1  0  0  0
 51124  1  0  0  0
 52125  1  0  0  0
 52126  1  0  0  0
 53 54  1  0  0  0
 54 55  2  0  0  0
 54127  1  0  0  0
 55 57  1  0  0  0
 55128  1  0  0  0
 56 69  2  0  0  0
 57 58  2  0  0  0
 57129  1  0  0  0
 58130  1  0  0  0
 59 60  1  0  0  0
 59 61  1  0  0  0
 59 62  1  0  0  0
 60131  1  0  0  0
 60132  1  0  0  0
 60133  1  0  0  0
 61134  1  0  0  0
 61135  1  0  0  0
 61136  1  0  0  0
 62137  1  0  0  0
 62138  1  0  0  0
 62139  1  0  0  0
 63 65  1  0  0  0
 63140  1  0  0  0
 63141  1  0  0  0
 63142  1  0  0  0
 64143  1  0  0  0
 65144  1  0  0  0
 68 79  1  0  0  0
 71 73  2  0  0  0
 71 75  1  0  0  0
 71145  1  0  0  0
 72 74  2  0  0  0
 72 83  1  0  0  0
 72146  1  0  0  0
 73 74  1  0  0  0
 73 81  1  0  0  0
 74 78  1  0  0  0
 75 76  1  0  0  0
 75 83  2  0  0  0
 76147  1  0  0  0
 76148  1  0  0  0
 76149  1  0  0  0
 77150  1  0  0  0
 77151  1  0  0  0
 77152  1  0  0  0
 77 81  1  0  0  0
 78153  1  0  0  0
 78154  1  0  0  0
 78 82  1  0  0  0
 79 81  1  0  0  0
 79155  1  0  0  0
 79156  1  0  0  0
 80 82  1  0  0  0
 80 85  1  0  0  0
 80157  1  0  0  0
 80158  1  0  0  0
 81159  1  0  0  0
 82 84  1  0  0  0
 82160  1  0  0  0
 84161  1  0  0  0
 85162  1  0  0  0
M  ISO  4   1 100  68 101  79 101  84 100
M  END
> <chiral flag>
0

> <version>
0

> <s_m_source_file>
/data/baiqing/PycharmProjects/Reinvent-master-3.2/result/LINK_invent/BTK/process_docking_weight1_custom_sum_contain_oxygen_bond_distance_aromatic_linkinvent_7_9_3/rearranged_h_0113.sdf

> <i_m_source_file_index>
84

> <r_mmod_Potential_Energy-OPLS-2005>
507.103546142578

> <r_mmod_Stretch_Energy-OPLS-2005>
335.498352050781

> <r_mmod_Bend_Energy-OPLS-2005>
381.852508544922

> <r_mmod_Torsional_Energy-OPLS-2005>
231.804122924805

> <r_mmod_Improper_Torsional_Energy-OPLS-2005>
6.10922622680664

> <r_mmod_Van_der_Waal_Energy-OPLS-2005>
140.528579711914

> <r_mmod_Electrostatic_Energy-OPLS-2005>
-582.355346679688

> <r_mmod_Solvation_Energy-OPLS-2005>
-236.824920654297

> <b_mmod_Minimization_Converged-OPLS-2005>
0

> <r_mmod_RMS_Derivative-OPLS-2005>
3.81354069709778

$$$$
86
                    3D
 Structure written by MMmdl.
162170  0  0  1  0            999 V2000
  -30.5178  -14.9913   20.4201 C   0  0  0  0  0  0
  -30.4498  -12.6215   19.4852 C   0  0  0  0  0  0
  -29.5265  -12.5384   18.2478 C   0  0  0  0  0  0
  -28.0598  -12.3141   18.6689 C   0  0  0  0  0  0
  -27.6288  -13.2478   19.8301 C   0  0  2  0  0  0
  -28.6761  -13.2866   20.9619 C   0  0  0  0  0  0
  -25.2461  -13.8205   20.5673 C   0  0  0  0  0  0
  -24.1785  -13.0435   20.9231 C   0  0  0  0  0  0
  -24.6396  -11.6922   20.8765 C   0  0  0  0  0  0
  -23.9075  -10.4292   21.0409 C   0  0  0  0  0  0
  -24.3623   -9.4207   21.9177 C   0  0  0  0  0  0
  -23.6296   -8.2242   22.0748 C   0  0  0  0  0  0
  -22.4281   -8.0281   21.3541 C   0  0  0  0  0  0
  -21.9919   -9.0254   20.4647 C   0  0  0  0  0  0
  -22.7251  -10.2131   20.3051 C   0  0  0  0  0  0
  -21.6852   -6.0732   22.5276 C   0  0  0  0  0  0
  -21.4011   -6.5629   23.8214 C   0  0  0  0  0  0
  -21.3660   -5.6786   24.9173 C   0  0  0  0  0  0
  -21.6052   -4.3049   24.7227 C   0  0  0  0  0  0
  -21.8818   -3.8137   23.4345 C   0  0  0  0  0  0
  -21.9189   -4.6953   22.3406 C   0  0  0  0  0  0
  -22.7803  -13.5209   21.1880 C   0  0  0  0  0  0
  -22.1658   -4.2133   21.0984 F   0  0  0  0  0  0
  -21.5632   -3.4542   25.7741 F   0  0  0  0  0  0
  -29.9417  -13.7202   20.3539 N   0  0  0  0  0  0
  -26.2888  -12.9437   20.3203 N   0  0  0  0  0  0
  -25.9326  -11.6568   20.5711 N   0  0  0  0  0  0
  -22.0429  -12.8225   22.0439 N   0  0  0  0  0  0
  -25.4103  -15.1936   20.4040 N   0  0  0  0  0  0
  -31.7386  -15.0550   20.2417 O   0  0  0  0  0  0
  -21.6642   -6.8877   21.4240 O   0  0  0  0  0  0
  -22.3497  -14.5500   20.6693 O   0  0  0  0  0  0
  -24.6476  -31.8416   23.1857 C   0  0  0  0  0  0
  -25.9232  -32.4685   23.8256 C   0  0  1  0  0  0
  -27.2197  -27.1031   20.1446 C   0  0  0  0  0  0
  -25.5969  -33.8492   24.2170 N   0  0  0  0  0  0
  -23.4516  -30.4621   21.5339 C   0  0  2  0  0  0
  -24.8992  -28.8842   20.1130 C   0  0  0  0  0  0
  -22.7583  -29.4546   22.4855 C   0  0  0  0  0  0
  -18.0306  -28.1397   22.8477 C   0  0  0  0  0  0
  -24.1496  -36.7252   23.2640 C   0  0  0  0  0  0
  -26.0120  -30.7061   21.3875 C   0  0  0  0  0  0
  -26.0820  -29.3152   20.7266 C   0  0  0  0  0  0
  -27.2409  -28.4437   20.7210 C   0  0  0  0  0  0
  -25.9925  -26.7748   19.5214 C   0  0  0  0  0  0
  -24.8692  -27.6279   19.4948 C   0  0  0  0  0  0
  -23.6782  -29.7906   20.1546 C   0  0  0  0  0  0
  -25.4127  -36.3029   24.0314 C   0  0  1  0  0  0
  -20.5922  -28.3734   23.1227 C   0  0  2  0  0  0
  -20.6802  -26.9437   22.5400 C   0  0  0  0  0  0
  -19.5771  -26.6379   21.5215 C   0  0  0  0  0  0
  -18.1949  -26.7932   22.1625 C   0  0  0  0  0  0
  -19.1566  -28.8883   23.2846 C   0  0  0  0  0  0
  -18.9480  -30.1473   23.8873 C   0  0  0  0  0  0
  -17.6474  -30.6598   24.0551 C   0  0  0  0  0  0
  -25.9080  -34.9407   23.5054 C   0  0  0  0  0  0
  -16.5364  -29.9090   23.6340 C   0  0  0  0  0  0
  -16.7291  -28.6503   23.0363 C   0  0  0  0  0  0
  -26.4526  -31.6566   25.0717 C   0  0  0  0  0  0
  -25.3694  -31.3777   26.1403 C   0  0  0  0  0  0
  -27.0389  -30.2955   24.6328 C   0  0  0  0  0  0
  -27.6053  -32.4336   25.7514 C   0  0  0  0  0  0
  -27.5583  -37.1775   24.8452 C   0  0  0  0  0  0
  -21.4273  -29.3060   22.3604 N   0  0  0  0  0  0
  -26.4280  -37.3750   23.9416 N   0  0  0  0  0  0
  -24.7245  -31.0240   22.0910 N   0  0  0  0  0  0
  -23.4210  -28.8095   23.3024 O   0  0  0  0  0  0
  -28.2805  -26.1069   20.2084 O   0  0  0  0  0  0
  -26.5674  -34.8906   22.4635 O   0  0  0  0  0  0
  -23.5589  -32.1315   23.7052 O   0  0  0  0  0  0
  -32.2140  -19.0346   18.2978 C   0  0  0  0  0  0
  -31.8684  -20.3188   17.9110 C   0  0  0  0  0  0
  -31.3977  -18.3673   19.2038 C   0  0  0  0  0  0
  -30.7538  -20.9683   18.4663 C   0  0  0  0  0  0
  -30.2594  -18.9354   19.8247 C   0  0  0  0  0  0
  -29.9569  -20.4224   19.5367 C   0  0  0  0  0  0
  -30.4268  -22.2612   17.7464 C   0  0  0  0  0  0
  -30.0918  -17.9681   22.2109 C   0  0  0  0  0  0
  -28.1082  -24.6016   18.2956 C   0  0  0  0  0  0
  -28.8501  -21.5400   20.1054 C   0  0  0  0  0  0
  -29.0682  -23.2468   20.3403 C   0  0  0  0  0  0
  -29.6421  -17.7395   20.7603 C   0  0  2  0  0  0
  -28.1116  -24.5831   19.8343 C   0  0  1  0  0  0
  -29.6777  -16.1510   20.4821 N   0  0  0  0  0  0
  -31.4787  -12.8038   19.1682 H   0  0  0  0  0  0
  -30.4682  -11.6736   20.0258 H   0  0  0  0  0  0
  -29.8566  -11.7390   17.5831 H   0  0  0  0  0  0
  -29.6044  -13.4634   17.6742 H   0  0  0  0  0  0
  -27.9649  -11.2750   18.9831 H   0  0  0  0  0  0
  -27.3952  -12.4369   17.8125 H   0  0  0  0  0  0
  -27.5880  -14.2464   19.3949 H   0  0  0  0  0  0
  -28.7781  -12.3106   21.4392 H   0  0  0  0  0  0
  -28.3698  -13.9832   21.7440 H   0  0  0  0  0  0
  -25.2757   -9.5686   22.4765 H   0  0  0  0  0  0
  -23.9999   -7.4637   22.7479 H   0  0  0  0  0  0
  -21.0839   -8.8776   19.8973 H   0  0  0  0  0  0
  -22.3693  -10.9668   19.6171 H   0  0  0  0  0  0
  -21.1999   -7.6135   23.9712 H   0  0  0  0  0  0
  -21.1490   -6.0513   25.9080 H   0  0  0  0  0  0
  -22.0597   -2.7593   23.2853 H   0  0  0  0  0  0
  -22.4020  -11.9904   22.4880 H   0  0  0  0  0  0
  -21.1031  -13.1262   22.2588 H   0  0  0  0  0  0
  -24.6311  -15.8369   20.4970 H   0  0  0  0  0  0
  -26.2298  -15.6283   20.0017 H   0  0  0  0  0  0
  -26.7294  -32.5275   23.0981 H   0  0  0  0  0  0
  -25.0084  -33.9597   25.0299 H   0  0  0  0  0  0
  -22.7558  -31.2898   21.3782 H   0  0  0  0  0  0
  -23.3778  -35.9561   23.3252 H   0  0  0  0  0  0
  -24.3590  -36.8942   22.2065 H   0  0  0  0  0  0
  -23.7218  -37.6420   23.6712 H   0  0  0  0  0  0
  -26.1705  -31.4594   20.6141 H   0  0  0  0  0  0
  -26.8814  -30.7554   22.0328 H   0  0  0  0  0  0
  -28.1420  -28.7750   21.2178 H   0  0  0  0  0  0
  -25.8446  -25.8062   19.0729 H   0  0  0  0  0  0
  -23.9615  -27.2858   19.0164 H   0  0  0  0  0  0
  -23.8148  -30.5637   19.3975 H   0  0  0  0  0  0
  -22.7915  -29.2337   19.8448 H   0  0  0  0  0  0
  -25.1309  -36.1851   25.0804 H   0  0  0  0  0  0
  -21.0006  -28.3329   24.1354 H   0  0  0  0  0  0
  -20.5711  -26.2345   23.3623 H   0  0  0  0  0  0
  -21.6666  -26.7457   22.1186 H   0  0  0  0  0  0
  -19.6940  -25.6282   21.1268 H   0  0  0  0  0  0
  -19.6707  -27.3170   20.6726 H   0  0  0  0  0  0
  -17.4221  -26.6673   21.4027 H   0  0  0  0  0  0
  -18.0352  -26.0079   22.9028 H   0  0  0  0  0  0
  -19.7954  -30.7293   24.2237 H   0  0  0  0  0  0
  -17.5030  -31.6276   24.5160 H   0  0  0  0  0  0
  -15.5363  -30.2981   23.7677 H   0  0  0  0  0  0
  -15.8687  -28.0805   22.7104 H   0  0  0  0  0  0
  -24.5861  -30.7143   25.7714 H   0  0  0  0  0  0
  -24.8892  -32.2968   26.4773 H   0  0  0  0  0  0
  -25.7949  -30.8972   27.0221 H   0  0  0  0  0  0
  -26.3007  -29.6677   24.1320 H   0  0  0  0  0  0
  -27.3966  -29.7263   25.4918 H   0  0  0  0  0  0
  -27.8934  -30.4175   23.9670 H   0  0  0  0  0  0
  -27.2638  -33.3654   26.2036 H   0  0  0  0  0  0
  -28.3895  -32.6871   25.0368 H   0  0  0  0  0  0
  -28.0684  -31.8498   26.5480 H   0  0  0  0  0  0
  -28.2556  -38.0116   24.7554 H   0  0  0  0  0  0
  -28.1123  -36.2648   24.6204 H   0  0  0  0  0  0
  -27.2309  -37.1326   25.8854 H   0  0  0  0  0  0
  -20.9497  -29.8753   21.6760 H   0  0  0  0  0  0
  -26.0146  -38.2814   24.1448 H   0  0  0  0  0  0
  -33.0705  -18.5406   17.8605 H   0  0  0  0  0  0
  -32.4608  -20.8004   17.1440 H   0  0  0  0  0  0
  -31.6917  -17.3571   19.4301 H   0  0  0  0  0  0
  -30.7642  -22.2298   16.7092 H   0  0  0  0  0  0
  -30.9151  -23.1205   18.2013 H   0  0  0  0  0  0
  -29.3543  -22.3944   17.6847 H   0  0  0  0  0  0
  -29.8722  -18.9872   22.5315 H   0  0  0  0  0  0
  -31.1648  -17.8113   22.3241 H   0  0  0  0  0  0
  -29.5796  -17.2947   22.8988 H   0  0  0  0  0  0
  -27.6545  -23.6953   17.8977 H   0  0  0  0  0  0
  -29.1214  -24.6934   17.9071 H   0  0  0  0  0  0
  -27.5584  -25.4343   17.8659 H   0  0  0  0  0  0
  -28.4999  -21.1371   21.0564 H   0  0  0  0  0  0
  -27.9857  -21.4333   19.4499 H   0  0  0  0  0  0
  -30.1011  -23.4881   20.1086 H   0  0  0  0  0  0
  -29.0756  -23.3487   21.4259 H   0  0  0  0  0  0
  -28.5746  -17.9611   20.7506 H   0  0  0  0  0  0
  -27.1062  -24.3275   20.1695 H   0  0  0  0  0  0
  -28.7252  -15.8226   20.4541 H   0  0  0  0  0  0
  1 25  1  0  0  0
  1 30  2  0  0  0
  1 84  1  0  0  0
  2  3  1  0  0  0
  2 25  1  0  0  0
  2 85  1  0  0  0
  2 86  1  0  0  0
  3  4  1  0  0  0
  3 87  1  0  0  0
  3 88  1  0  0  0
  4  5  1  0  0  0
  4 89  1  0  0  0
  4 90  1  0  0  0
  5  6  1  0  0  0
  5 26  1  0  0  0
  5 91  1  0  0  0
  6 25  1  0  0  0
  6 92  1  0  0  0
  6 93  1  0  0  0
  7  8  2  0  0  0
  7 26  1  0  0  0
  7 29  1  0  0  0
  8  9  1  0  0  0
  8 22  1  0  0  0
  9 10  1  0  0  0
  9 27  2  0  0  0
 10 11  2  0  0  0
 10 15  1  0  0  0
 11 12  1  0  0  0
 11 94  1  0  0  0
 12 13  2  0  0  0
 12 95  1  0  0  0
 13 14  1  0  0  0
 13 31  1  0  0  0
 14 15  2  0  0  0
 14 96  1  0  0  0
 15 97  1  0  0  0
 16 17  2  0  0  0
 16 21  1  0  0  0
 16 31  1  0  0  0
 17 18  1  0  0  0
 17 98  1  0  0  0
 18 19  2  0  0  0
 18 99  1  0  0  0
 19 20  1  0  0  0
 19 24  1  0  0  0
 20 21  2  0  0  0
 20100  1  0  0  0
 21 23  1  0  0  0
 22 28  1  0  0  0
 22 32  2  0  0  0
 26 27  1  0  0  0
 28101  1  0  0  0
 28102  1  0  0  0
 29103  1  0  0  0
 29104  1  0  0  0
 33 34  1  0  0  0
 33 66  1  0  0  0
 33 70  2  0  0  0
 34 36  1  0  0  0
 34 59  1  0  0  0
 34105  1  0  0  0
 35 44  2  0  0  0
 35 45  1  0  0  0
 35 68  1  0  0  0
 36 56  1  0  0  0
 36106  1  0  0  0
 37 39  1  0  0  0
 37 47  1  0  0  0
 37 66  1  0  0  0
 37107  1  0  0  0
 38 43  2  0  0  0
 38 46  1  0  0  0
 38 47  1  0  0  0
 39 64  1  0  0  0
 39 67  2  0  0  0
 40 52  1  0  0  0
 40 53  2  0  0  0
 40 58  1  0  0  0
 41108  1  0  0  0
 41109  1  0  0  0
 41110  1  0  0  0
 41 48  1  0  0  0
 42 43  1  0  0  0
 42 66  1  0  0  0
 42111  1  0  0  0
 42112  1  0  0  0
 43 44  1  0  0  0
 44113  1  0  0  0
 45 46  2  0  0  0
 45114  1  0  0  0
 46115  1  0  0  0
 47116  1  0  0  0
 47117  1  0  0  0
 48 56  1  0  0  0
 48 65  1  0  0  0
 48118  1  0  0  0
 49 50  1  0  0  0
 49 53  1  0  0  0
 49 64  1  0  0  0
 49119  1  0  0  0
 50 51  1  0  0  0
 50120  1  0  0  0
 50121  1  0  0  0
 51 52  1  0  0  0
 51122  1  0  0  0
 51123  1  0  0  0
 52124  1  0  0  0
 52125  1  0  0  0
 53 54  1  0  0  0
 54 55  2  0  0  0
 54126  1  0  0  0
 55 57  1  0  0  0
 55127  1  0  0  0
 56 69  2  0  0  0
 57 58  2  0  0  0
 57128  1  0  0  0
 58129  1  0  0  0
 59 60  1  0  0  0
 59 61  1  0  0  0
 59 62  1  0  0  0
 60130  1  0  0  0
 60131  1  0  0  0
 60132  1  0  0  0
 61133  1  0  0  0
 61134  1  0  0  0
 61135  1  0  0  0
 62136  1  0  0  0
 62137  1  0  0  0
 62138  1  0  0  0
 63 65  1  0  0  0
 63139  1  0  0  0
 63140  1  0  0  0
 63141  1  0  0  0
 64142  1  0  0  0
 65143  1  0  0  0
 68 83  1  0  0  0
 71 72  2  0  0  0
 71 73  1  0  0  0
 71144  1  0  0  0
 72 74  1  0  0  0
 72145  1  0  0  0
 73 75  2  0  0  0
 73146  1  0  0  0
 74 76  2  0  0  0
 74 77  1  0  0  0
 75 76  1  0  0  0
 75 82  1  0  0  0
 76 80  1  0  0  0
 77147  1  0  0  0
 77148  1  0  0  0
 77149  1  0  0  0
 78150  1  0  0  0
 78151  1  0  0  0
 78152  1  0  0  0
 78 82  1  0  0  0
 79153  1  0  0  0
 79154  1  0  0  0
 79155  1  0  0  0
 79 83  1  0  0  0
 80 81  1  0  0  0
 80156  1  0  0  0
 80157  1  0  0  0
 81 83  1  0  0  0
 81158  1  0  0  0
 81159  1  0  0  0
 82 84  1  0  0  0
 82160  1  0  0  0
 83161  1  0  0  0
 84162  1  0  0  0
M  ISO  4   1 100  68 101  83 101  84 100
M  END
> <chiral flag>
0

> <version>
0

> <s_m_source_file>
/data/baiqing/PycharmProjects/Reinvent-master-3.2/result/LINK_invent/BTK/process_docking_weight1_custom_sum_contain_oxygen_bond_distance_aromatic_linkinvent_7_9_3/rearranged_h_0113.sdf

> <i_m_source_file_index>
85

> <r_mmod_Potential_Energy-OPLS-2005>
712.810668945312

> <r_mmod_Stretch_Energy-OPLS-2005>
357.308685302734

> <r_mmod_Bend_Energy-OPLS-2005>
382.800598144531

> <r_mmod_Torsional_Energy-OPLS-2005>
220.009292602539

> <r_mmod_Improper_Torsional_Energy-OPLS-2005>
5.46483325958252

> <r_mmod_Van_der_Waal_Energy-OPLS-2005>
146.483261108398

> <r_mmod_Electrostatic_Energy-OPLS-2005>
-414.499847412109

> <r_mmod_Solvation_Energy-OPLS-2005>
-208.17333984375

> <b_mmod_Minimization_Converged-OPLS-2005>
0

> <r_mmod_RMS_Derivative-OPLS-2005>
1.74421977996826

$$$$
87
                    3D
 Structure written by MMmdl.
174182  0  0  1  0            999 V2000
  -30.6847  -14.4905   20.5726 C   0  0  0  0  0  0
  -30.4290  -12.3261   19.4125 C   0  0  0  0  0  0
  -29.4939  -12.5141   18.2005 C   0  0  0  0  0  0
  -28.0164  -12.3670   18.6159 C   0  0  0  0  0  0
  -27.6598  -13.2075   19.8706 C   0  0  2  0  0  0
  -28.7031  -12.9910   20.9892 C   0  0  0  0  0  0
  -25.2576  -13.8167   20.5666 C   0  0  0  0  0  0
  -24.1833  -13.0432   20.9188 C   0  0  0  0  0  0
  -24.6399  -11.6905   20.8751 C   0  0  0  0  0  0
  -23.9066  -10.4284   21.0410 C   0  0  0  0  0  0
  -24.3617   -9.4203   21.9187 C   0  0  0  0  0  0
  -23.6285   -8.2241   22.0760 C   0  0  0  0  0  0
  -22.4271   -8.0280   21.3545 C   0  0  0  0  0  0
  -21.9911   -9.0253   20.4647 C   0  0  0  0  0  0
  -22.7241  -10.2129   20.3053 C   0  0  0  0  0  0
  -21.6845   -6.0733   22.5279 C   0  0  0  0  0  0
  -21.4006   -6.5640   23.8215 C   0  0  0  0  0  0
  -21.3665   -5.6797   24.9183 C   0  0  0  0  0  0
  -21.6044   -4.3059   24.7233 C   0  0  0  0  0  0
  -21.8820   -3.8147   23.4356 C   0  0  0  0  0  0
  -21.9193   -4.6968   22.3409 C   0  0  0  0  0  0
  -22.7858  -13.5234   21.1850 C   0  0  0  0  0  0
  -22.1659   -4.2149   21.0987 F   0  0  0  0  0  0
  -21.5636   -3.4542   25.7748 F   0  0  0  0  0  0
  -30.0300  -13.3067   20.4329 N   0  0  0  0  0  0
  -26.3011  -12.9333   20.3334 N   0  0  0  0  0  0
  -25.9320  -11.6502   20.5760 N   0  0  0  0  0  0
  -22.0499  -12.8209   22.0405 N   0  0  0  0  0  0
  -25.4292  -15.1883   20.4091 N   0  0  0  0  0  0
  -31.8179  -14.6887   20.1308 O   0  0  0  0  0  0
  -21.6638   -6.8876   21.4239 O   0  0  0  0  0  0
  -22.3550  -14.5545   20.6719 O   0  0  0  0  0  0
  -24.6147  -31.8649   23.2087 C   0  0  0  0  0  0
  -25.9044  -32.4794   23.8373 C   0  0  1  0  0  0
  -27.2328  -27.4187   20.1098 C   0  0  0  0  0  0
  -25.5899  -33.8591   24.2316 N   0  0  0  0  0  0
  -23.4022  -30.4873   21.5486 C   0  0  2  0  0  0
  -24.8520  -28.9498   20.1141 C   0  0  0  0  0  0
  -22.7404  -29.4642   22.4989 C   0  0  0  0  0  0
  -18.0265  -28.1343   22.8472 C   0  0  0  0  0  0
  -24.1496  -36.7323   23.2635 C   0  0  0  0  0  0
  -25.9318  -30.8269   21.3642 C   0  0  0  0  0  0
  -26.0102  -29.4592   20.7148 C   0  0  0  0  0  0
  -27.2052  -28.7023   20.7057 C   0  0  0  0  0  0
  -26.0691  -26.9418   19.4712 C   0  0  0  0  0  0
  -24.8777  -27.6921   19.4851 C   0  0  0  0  0  0
  -23.6115  -29.8132   20.1650 C   0  0  0  0  0  0
  -25.4114  -36.3095   24.0330 C   0  0  1  0  0  0
  -20.5850  -28.3652   23.1301 C   0  0  2  0  0  0
  -20.6755  -26.9382   22.5398 C   0  0  0  0  0  0
  -19.5747  -26.6351   21.5176 C   0  0  0  0  0  0
  -18.1923  -26.7891   22.1589 C   0  0  0  0  0  0
  -19.1509  -28.8814   23.2875 C   0  0  0  0  0  0
  -18.9440  -30.1416   23.8890 C   0  0  0  0  0  0
  -17.6445  -30.6559   24.0551 C   0  0  0  0  0  0
  -25.9035  -34.9451   23.5126 C   0  0  0  0  0  0
  -16.5334  -29.9060   23.6315 C   0  0  0  0  0  0
  -16.7255  -28.6470   23.0350 C   0  0  0  0  0  0
  -26.4469  -31.6577   25.0706 C   0  0  0  0  0  0
  -25.3728  -31.3666   26.1450 C   0  0  0  0  0  0
  -27.0317  -30.3022   24.6090 C   0  0  0  0  0  0
  -27.6046  -32.4286   25.7481 C   0  0  0  0  0  0
  -27.5588  -37.1810   24.8453 C   0  0  0  0  0  0
  -21.4131  -29.3026   22.3730 N   0  0  0  0  0  0
  -26.4303  -37.3772   23.9398 N   0  0  0  0  0  0
  -24.6675  -31.0742   22.0986 N   0  0  0  0  0  0
  -23.4180  -28.8183   23.3022 O   0  0  0  0  0  0
  -28.4070  -26.6943   20.0821 O   0  0  0  0  0  0
  -26.5595  -34.8908   22.4686 O   0  0  0  0  0  0
  -23.5339  -32.1400   23.7483 O   0  0  0  0  0  0
  -28.9293  -24.2710   19.7164 C   0  0  0  0  0  0
  -27.2974  -24.7351   21.4215 C   0  0  0  0  0  0
  -28.4881  -25.3781   20.6898 C   0  0  1  0  0  0
  -28.3992  -22.9253   20.2936 C   0  0  1  0  0  0
  -30.4624  -18.0709   16.2999 C   0  0  0  0  0  0
  -28.3141  -17.6121   17.4807 C   0  0  0  0  0  0
  -31.9877  -18.1064   18.8475 C   0  0  0  0  0  0
  -29.4866  -21.8229   20.5441 C   0  0  0  0  0  0
  -30.3382  -16.8963   21.3355 C   0  0  0  0  0  0
  -28.9993  -20.3386   20.4652 C   0  0  0  0  0  0
  -29.7112  -18.2481   17.6362 C   0  0  0  0  0  0
  -30.4990  -17.6754   18.8565 C   0  0  2  0  0  0
  -29.8419  -17.9258   20.2603 C   0  0  2  0  0  0
  -29.9477  -15.4915   21.0937 N   0  0  0  0  0  0
  -27.6404  -23.2978   21.5137 N   0  3  0  0  0  0
  -30.0821  -19.3328   20.7134 N   0  3  0  0  0  0
  -31.4701  -12.4432   19.1066 H   0  0  0  0  0  0
  -30.3445  -11.3147   19.8123 H   0  0  0  0  0  0
  -29.7366  -11.7912   17.4201 H   0  0  0  0  0  0
  -29.6535  -13.5020   17.7632 H   0  0  0  0  0  0
  -27.8315  -11.3110   18.8145 H   0  0  0  0  0  0
  -27.3634  -12.6385   17.7861 H   0  0  0  0  0  0
  -27.7024  -14.2547   19.5716 H   0  0  0  0  0  0
  -28.6872  -11.9550   21.3304 H   0  0  0  0  0  0
  -28.4643  -13.5913   21.8683 H   0  0  0  0  0  0
  -25.2756   -9.5681   22.4766 H   0  0  0  0  0  0
  -23.9997   -7.4637   22.7475 H   0  0  0  0  0  0
  -21.0845   -8.8778   19.8946 H   0  0  0  0  0  0
  -22.3708  -10.9673   19.6165 H   0  0  0  0  0  0
  -21.1995   -7.6145   23.9717 H   0  0  0  0  0  0
  -21.1481   -6.0527   25.9082 H   0  0  0  0  0  0
  -22.0598   -2.7608   23.2863 H   0  0  0  0  0  0
  -22.4103  -11.9846   22.4757 H   0  0  0  0  0  0
  -21.1115  -13.1229   22.2627 H   0  0  0  0  0  0
  -24.6575  -15.8389   20.5069 H   0  0  0  0  0  0
  -26.2736  -15.6256   20.0647 H   0  0  0  0  0  0
  -26.7129  -32.5509   23.1149 H   0  0  0  0  0  0
  -25.0092  -33.9733   25.0493 H   0  0  0  0  0  0
  -22.6905  -31.3043   21.4064 H   0  0  0  0  0  0
  -23.3742  -35.9669   23.3279 H   0  0  0  0  0  0
  -24.3603  -36.8952   22.2054 H   0  0  0  0  0  0
  -23.7259  -37.6528   23.6672 H   0  0  0  0  0  0
  -26.0444  -31.5909   20.5933 H   0  0  0  0  0  0
  -26.8207  -30.8832   21.9818 H   0  0  0  0  0  0
  -28.1049  -29.0955   21.1604 H   0  0  0  0  0  0
  -26.0859  -25.9942   18.9510 H   0  0  0  0  0  0
  -23.9949  -27.3037   18.9965 H   0  0  0  0  0  0
  -23.7134  -30.5843   19.3996 H   0  0  0  0  0  0
  -22.7364  -29.2262   19.8784 H   0  0  0  0  0  0
  -25.1276  -36.1972   25.0815 H   0  0  0  0  0  0
  -20.9919  -28.3219   24.1430 H   0  0  0  0  0  0
  -20.5617  -26.2253   23.3584 H   0  0  0  0  0  0
  -21.6640  -26.7406   22.1218 H   0  0  0  0  0  0
  -19.6913  -25.6260   21.1205 H   0  0  0  0  0  0
  -19.6693  -27.3159   20.6706 H   0  0  0  0  0  0
  -17.4181  -26.6627   21.3998 H   0  0  0  0  0  0
  -18.0336  -26.0016   22.8970 H   0  0  0  0  0  0
  -19.7921  -30.7202   24.2277 H   0  0  0  0  0  0
  -17.5011  -31.6245   24.5149 H   0  0  0  0  0  0
  -15.5339  -30.2965   23.7627 H   0  0  0  0  0  0
  -15.8653  -28.0774   22.7095 H   0  0  0  0  0  0
  -24.5933  -30.6980   25.7782 H   0  0  0  0  0  0
  -24.8880  -32.2805   26.4891 H   0  0  0  0  0  0
  -25.8068  -30.8843   27.0219 H   0  0  0  0  0  0
  -26.2868  -29.6765   24.1162 H   0  0  0  0  0  0
  -27.4111  -29.7276   25.4550 H   0  0  0  0  0  0
  -27.8691  -30.4345   23.9233 H   0  0  0  0  0  0
  -27.2687  -33.3596   26.2068 H   0  0  0  0  0  0
  -28.3869  -32.6815   25.0310 H   0  0  0  0  0  0
  -28.0715  -31.8389   26.5386 H   0  0  0  0  0  0
  -28.2573  -38.0142   24.7536 H   0  0  0  0  0  0
  -28.1111  -36.2664   24.6233 H   0  0  0  0  0  0
  -27.2307  -37.1411   25.8856 H   0  0  0  0  0  0
  -20.9297  -29.8762   21.6967 H   0  0  0  0  0  0
  -26.0187  -38.2848   24.1395 H   0  0  0  0  0  0
  -30.0096  -24.2826   19.5765 H   0  0  0  0  0  0
  -28.4849  -24.4452   18.7366 H   0  0  0  0  0  0
  -26.3712  -24.8000   20.8538 H   0  0  0  0  0  0
  -27.1212  -25.1727   22.4044 H   0  0  0  0  0  0
  -29.2775  -25.4716   21.4368 H   0  0  0  0  0  0
  -27.6784  -22.5409   19.5697 H   0  0  0  0  0  0
  -29.8656  -18.4327   15.4620 H   0  0  0  0  0  0
  -30.6935  -17.0229   16.1075 H   0  0  0  0  0  0
  -31.3944  -18.6354   16.2735 H   0  0  0  0  0  0
  -27.8054  -18.0041   16.5988 H   0  0  0  0  0  0
  -27.6570  -17.8132   18.3255 H   0  0  0  0  0  0
  -28.3809  -16.5297   17.3590 H   0  0  0  0  0  0
  -32.5175  -17.6941   17.9881 H   0  0  0  0  0  0
  -32.5318  -17.7372   19.7151 H   0  0  0  0  0  0
  -32.1085  -19.1905   18.8153 H   0  0  0  0  0  0
  -29.9827  -22.0070   21.4981 H   0  0  0  0  0  0
  -30.2652  -21.9425   19.7886 H   0  0  0  0  0  0
  -29.9116  -17.1630   22.3034 H   0  0  0  0  0  0
  -31.4179  -16.9593   21.4770 H   0  0  0  0  0  0
  -28.5534  -20.1712   19.4865 H   0  0  0  0  0  0
  -28.1993  -20.1689   21.1877 H   0  0  0  0  0  0
  -29.5838  -19.3223   17.7634 H   0  0  0  0  0  0
  -30.5038  -16.5991   18.6953 H   0  0  0  0  0  0
  -28.7636  -17.7807   20.2022 H   0  0  0  0  0  0
  -29.0150  -15.2342   21.3809 H   0  0  0  0  0  0
  -26.8104  -22.7360   21.6302 H   0  0  0  0  0  0
  -28.2204  -23.1653   22.3277 H   0  0  0  0  0  0
  -30.2434  -19.3085   21.7083 H   0  0  0  0  0  0
  -30.9406  -19.6389   20.2834 H   0  0  0  0  0  0
  1 25  1  0  0  0
  1 30  2  0  0  0
  1 84  1  0  0  0
  2  3  1  0  0  0
  2 25  1  0  0  0
  2 87  1  0  0  0
  2 88  1  0  0  0
  3  4  1  0  0  0
  3 89  1  0  0  0
  3 90  1  0  0  0
  4  5  1  0  0  0
  4 91  1  0  0  0
  4 92  1  0  0  0
  5  6  1  0  0  0
  5 26  1  0  0  0
  5 93  1  0  0  0
  6 25  1  0  0  0
  6 94  1  0  0  0
  6 95  1  0  0  0
  7  8  2  0  0  0
  7 26  1  0  0  0
  7 29  1  0  0  0
  8  9  1  0  0  0
  8 22  1  0  0  0
  9 10  1  0  0  0
  9 27  2  0  0  0
 10 11  2  0  0  0
 10 15  1  0  0  0
 11 12  1  0  0  0
 11 96  1  0  0  0
 12 13  2  0  0  0
 12 97  1  0  0  0
 13 14  1  0  0  0
 13 31  1  0  0  0
 14 15  2  0  0  0
 14 98  1  0  0  0
 15 99  1  0  0  0
 16 17  2  0  0  0
 16 21  1  0  0  0
 16 31  1  0  0  0
 17 18  1  0  0  0
 17100  1  0  0  0
 18 19  2  0  0  0
 18101  1  0  0  0
 19 20  1  0  0  0
 19 24  1  0  0  0
 20 21  2  0  0  0
 20102  1  0  0  0
 21 23  1  0  0  0
 22 28  1  0  0  0
 22 32  2  0  0  0
 26 27  1  0  0  0
 28103  1  0  0  0
 28104  1  0  0  0
 29105  1  0  0  0
 29106  1  0  0  0
 33 34  1  0  0  0
 33 66  1  0  0  0
 33 70  2  0  0  0
 34 36  1  0  0  0
 34 59  1  0  0  0
 34107  1  0  0  0
 35 44  2  0  0  0
 35 45  1  0  0  0
 35 68  1  0  0  0
 36 56  1  0  0  0
 36108  1  0  0  0
 37 39  1  0  0  0
 37 47  1  0  0  0
 37 66  1  0  0  0
 37109  1  0  0  0
 38 43  2  0  0  0
 38 46  1  0  0  0
 38 47  1  0  0  0
 39 64  1  0  0  0
 39 67  2  0  0  0
 40 52  1  0  0  0
 40 53  2  0  0  0
 40 58  1  0  0  0
 41110  1  0  0  0
 41111  1  0  0  0
 41112  1  0  0  0
 41 48  1  0  0  0
 42 43  1  0  0  0
 42 66  1  0  0  0
 42113  1  0  0  0
 42114  1  0  0  0
 43 44  1  0  0  0
 44115  1  0  0  0
 45 46  2  0  0  0
 45116  1  0  0  0
 46117  1  0  0  0
 47118  1  0  0  0
 47119  1  0  0  0
 48 56  1  0  0  0
 48 65  1  0  0  0
 48120  1  0  0  0
 49 50  1  0  0  0
 49 53  1  0  0  0
 49 64  1  0  0  0
 49121  1  0  0  0
 50 51  1  0  0  0
 50122  1  0  0  0
 50123  1  0  0  0
 51 52  1  0  0  0
 51124  1  0  0  0
 51125  1  0  0  0
 52126  1  0  0  0
 52127  1  0  0  0
 53 54  1  0  0  0
 54 55  2  0  0  0
 54128  1  0  0  0
 55 57  1  0  0  0
 55129  1  0  0  0
 56 69  2  0  0  0
 57 58  2  0  0  0
 57130  1  0  0  0
 58131  1  0  0  0
 59 60  1  0  0  0
 59 61  1  0  0  0
 59 62  1  0  0  0
 60132  1  0  0  0
 60133  1  0  0  0
 60134  1  0  0  0
 61135  1  0  0  0
 61136  1  0  0  0
 61137  1  0  0  0
 62138  1  0  0  0
 62139  1  0  0  0
 62140  1  0  0  0
 63 65  1  0  0  0
 63141  1  0  0  0
 63142  1  0  0  0
 63143  1  0  0  0
 64144  1  0  0  0
 65145  1  0  0  0
 68 73  1  0  0  0
 71 73  1  0  0  0
 71 74  1  0  0  0
 71146  1  0  0  0
 71147  1  0  0  0
 72 73  1  0  0  0
 72 85  1  0  0  0
 72148  1  0  0  0
 72149  1  0  0  0
 73150  1  0  0  0
 74 78  1  0  0  0
 74 85  1  0  0  0
 74151  1  0  0  0
 75152  1  0  0  0
 75153  1  0  0  0
 75154  1  0  0  0
 75 81  1  0  0  0
 76 81  1  0  0  0
 76155  1  0  0  0
 76156  1  0  0  0
 76157  1  0  0  0
 77158  1  0  0  0
 77159  1  0  0  0
 77160  1  0  0  0
 77 82  1  0  0  0
 78 80  1  0  0  0
 78161  1  0  0  0
 78162  1  0  0  0
 79 84  1  0  0  0
 79163  1  0  0  0
 79164  1  0  0  0
 79 83  1  0  0  0
 80 86  1  0  0  0
 80165  1  0  0  0
 80166  1  0  0  0
 81 82  1  0  0  0
 81167  1  0  0  0
 82 83  1  0  0  0
 82168  1  0  0  0
 83 86  1  0  0  0
 83169  1  0  0  0
 84170  1  0  0  0
 85171  1  0  0  0
 85172  1  0  0  0
 86173  1  0  0  0
 86174  1  0  0  0
M  CHG  2  85   1  86   1
M  ISO  4   1 100  68 101  73 101  84 100
M  END
> <chiral flag>
0

> <version>
0

> <s_m_source_file>
/data/baiqing/PycharmProjects/Reinvent-master-3.2/result/LINK_invent/BTK/process_docking_weight1_custom_sum_contain_oxygen_bond_distance_aromatic_linkinvent_7_9_3/rearranged_h_0113.sdf

> <i_m_source_file_index>
86

> <r_mmod_Potential_Energy-OPLS-2005>
-255.57502746582

> <r_mmod_Stretch_Energy-OPLS-2005>
46.2593078613281

> <r_mmod_Bend_Energy-OPLS-2005>
148.815353393555

> <r_mmod_Torsional_Energy-OPLS-2005>
330.683410644531

> <r_mmod_Improper_Torsional_Energy-OPLS-2005>
3.58347153663635

> <r_mmod_Van_der_Waal_Energy-OPLS-2005>
123.085418701172

> <r_mmod_Electrostatic_Energy-OPLS-2005>
58.8176727294922

> <r_mmod_Solvation_Energy-OPLS-2005>
-980.838500976562

> <b_mmod_Minimization_Converged-OPLS-2005>
0

> <r_mmod_RMS_Derivative-OPLS-2005>
2.08190774917603

$$$$
88
                    3D
 Structure written by MMmdl.
167175  0  0  1  0            999 V2000
  -30.6646  -14.5095   20.5519 C   0  0  0  0  0  0
  -30.4338  -12.3262   19.4230 C   0  0  0  0  0  0
  -29.5006  -12.5031   18.2066 C   0  0  0  0  0  0
  -28.0210  -12.3600   18.6188 C   0  0  0  0  0  0
  -27.6619  -13.2038   19.8717 C   0  0  2  0  0  0
  -28.7049  -12.9915   20.9931 C   0  0  0  0  0  0
  -25.2605  -13.8139   20.5683 C   0  0  0  0  0  0
  -24.1862  -13.0427   20.9208 C   0  0  0  0  0  0
  -24.6402  -11.6895   20.8747 C   0  0  0  0  0  0
  -23.9066  -10.4285   21.0403 C   0  0  0  0  0  0
  -24.3612   -9.4208   21.9188 C   0  0  0  0  0  0
  -23.6286   -8.2244   22.0763 C   0  0  0  0  0  0
  -22.4277   -8.0278   21.3547 C   0  0  0  0  0  0
  -21.9911   -9.0255   20.4655 C   0  0  0  0  0  0
  -22.7235  -10.2130   20.3060 C   0  0  0  0  0  0
  -21.6855   -6.0740   22.5277 C   0  0  0  0  0  0
  -21.4018   -6.5639   23.8213 C   0  0  0  0  0  0
  -21.3661   -5.6791   24.9169 C   0  0  0  0  0  0
  -21.6037   -4.3049   24.7223 C   0  0  0  0  0  0
  -21.8819   -3.8150   23.4346 C   0  0  0  0  0  0
  -21.9192   -4.6972   22.3402 C   0  0  0  0  0  0
  -22.7882  -13.5238   21.1834 C   0  0  0  0  0  0
  -22.1649   -4.2149   21.0980 F   0  0  0  0  0  0
  -21.5630   -3.4535   25.7742 F   0  0  0  0  0  0
  -30.0312  -13.3102   20.4395 N   0  0  0  0  0  0
  -26.3028  -12.9302   20.3338 N   0  0  0  0  0  0
  -25.9330  -11.6471   20.5774 N   0  0  0  0  0  0
  -22.0496  -12.8256   22.0383 N   0  0  0  0  0  0
  -25.4300  -15.1859   20.4056 N   0  0  0  0  0  0
  -31.7983  -14.7167   20.1130 O   0  0  0  0  0  0
  -21.6627   -6.8884   21.4243 O   0  0  0  0  0  0
  -22.3584  -14.5542   20.6653 O   0  0  0  0  0  0
  -24.6171  -31.8660   23.2073 C   0  0  0  0  0  0
  -25.9055  -32.4805   23.8380 C   0  0  1  0  0  0
  -27.2320  -27.4129   20.1093 C   0  0  0  0  0  0
  -25.5915  -33.8607   24.2313 N   0  0  0  0  0  0
  -23.4054  -30.4888   21.5476 C   0  0  2  0  0  0
  -24.8511  -28.9443   20.1209 C   0  0  0  0  0  0
  -22.7423  -29.4657   22.4979 C   0  0  0  0  0  0
  -18.0274  -28.1384   22.8488 C   0  0  0  0  0  0
  -24.1486  -36.7314   23.2638 C   0  0  0  0  0  0
  -25.9354  -30.8254   21.3618 C   0  0  0  0  0  0
  -26.0117  -29.4548   20.7164 C   0  0  0  0  0  0
  -27.2069  -28.6976   20.7037 C   0  0  0  0  0  0
  -26.0562  -26.9180   19.5081 C   0  0  0  0  0  0
  -24.8687  -27.6765   19.5131 C   0  0  0  0  0  0
  -23.6154  -29.8162   20.1642 C   0  0  0  0  0  0
  -25.4105  -36.3101   24.0333 C   0  0  1  0  0  0
  -20.5869  -28.3675   23.1314 C   0  0  2  0  0  0
  -20.6767  -26.9410   22.5418 C   0  0  0  0  0  0
  -19.5747  -26.6388   21.5217 C   0  0  0  0  0  0
  -18.1923  -26.7931   22.1621 C   0  0  0  0  0  0
  -19.1522  -28.8844   23.2900 C   0  0  0  0  0  0
  -18.9452  -30.1451   23.8909 C   0  0  0  0  0  0
  -17.6449  -30.6585   24.0572 C   0  0  0  0  0  0
  -25.9039  -34.9466   23.5117 C   0  0  0  0  0  0
  -16.5347  -29.9090   23.6327 C   0  0  0  0  0  0
  -16.7263  -28.6513   23.0338 C   0  0  0  0  0  0
  -26.4487  -31.6587   25.0712 C   0  0  0  0  0  0
  -25.3767  -31.3690   26.1467 C   0  0  0  0  0  0
  -27.0310  -30.3028   24.6088 C   0  0  0  0  0  0
  -27.6050  -32.4314   25.7485 C   0  0  0  0  0  0
  -27.5575  -37.1811   24.8465 C   0  0  0  0  0  0
  -21.4146  -29.3042   22.3719 N   0  0  0  0  0  0
  -26.4286  -37.3786   23.9410 N   0  0  0  0  0  0
  -24.6710  -31.0746   22.0974 N   0  0  0  0  0  0
  -23.4181  -28.8203   23.3030 O   0  0  0  0  0  0
  -28.3953  -26.6734   20.0653 O   0  0  0  0  0  0
  -26.5589  -34.8923   22.4673 O   0  0  0  0  0  0
  -23.5360  -32.1406   23.7467 O   0  0  0  0  0  0
  -28.0493  -20.6169   22.8362 C   0  0  0  0  0  0
  -27.7657  -19.4694   23.8190 C   0  0  0  0  0  0
  -28.1526  -17.5342   22.4728 C   0  0  0  0  0  0
  -27.9976  -20.2514   21.3324 C   0  0  1  0  0  0
  -28.8859  -17.8619   21.1451 C   0  0  2  0  0  0
  -28.1253  -21.1874   18.9218 C   0  0  0  0  0  0
  -30.1638  -16.9713   20.9498 C   0  0  0  0  0  0
  -28.1371  -24.1389   20.0826 C   0  0  0  0  0  0
  -28.5676  -22.8464   20.8495 C   0  0  0  0  0  0
  -28.4355  -25.4623   20.8471 C   0  0  0  0  0  0
  -27.8589  -21.5209   20.4026 C   0  0  2  0  0  0
  -28.6448  -18.3235   23.6024 N   0  0  0  0  0  0
  -29.8868  -15.5160   21.0024 N   0  0  0  0  0  0
  -29.1338  -19.3369   20.9898 N   0  3  0  0  0  0
  -31.4753  -12.4473   19.1204 H   0  0  0  0  0  0
  -30.3527  -11.3157   19.8259 H   0  0  0  0  0  0
  -29.7444  -11.7693   17.4361 H   0  0  0  0  0  0
  -29.6620  -13.4845   17.7579 H   0  0  0  0  0  0
  -27.8369  -11.3045   18.8230 H   0  0  0  0  0  0
  -27.3683  -12.6245   17.7864 H   0  0  0  0  0  0
  -27.7007  -14.2501   19.5677 H   0  0  0  0  0  0
  -28.6919  -11.9551   21.3324 H   0  0  0  0  0  0
  -28.4667  -13.5870   21.8763 H   0  0  0  0  0  0
  -25.2765   -9.5680   22.4747 H   0  0  0  0  0  0
  -23.9999   -7.4641   22.7488 H   0  0  0  0  0  0
  -21.0843   -8.8783   19.8959 H   0  0  0  0  0  0
  -22.3708  -10.9670   19.6166 H   0  0  0  0  0  0
  -21.2003   -7.6147   23.9718 H   0  0  0  0  0  0
  -21.1480   -6.0515   25.9068 H   0  0  0  0  0  0
  -22.0598   -2.7616   23.2839 H   0  0  0  0  0  0
  -22.4086  -11.9934   22.4821 H   0  0  0  0  0  0
  -21.1101  -13.1285   22.2521 H   0  0  0  0  0  0
  -24.6406  -15.8181   20.4803 H   0  0  0  0  0  0
  -26.2296  -15.6019   19.9468 H   0  0  0  0  0  0
  -26.7129  -32.5504   23.1143 H   0  0  0  0  0  0
  -25.0086  -33.9774   25.0477 H   0  0  0  0  0  0
  -22.6957  -31.3061   21.4045 H   0  0  0  0  0  0
  -23.3735  -35.9660   23.3309 H   0  0  0  0  0  0
  -24.3584  -36.8922   22.2054 H   0  0  0  0  0  0
  -23.7252  -37.6528   23.6648 H   0  0  0  0  0  0
  -26.0473  -31.5864   20.5883 H   0  0  0  0  0  0
  -26.8252  -30.8837   21.9768 H   0  0  0  0  0  0
  -28.1068  -29.0921   21.1555 H   0  0  0  0  0  0
  -26.0603  -25.9546   19.0204 H   0  0  0  0  0  0
  -23.9783  -27.2798   19.0449 H   0  0  0  0  0  0
  -23.7280  -30.5877   19.4014 H   0  0  0  0  0  0
  -22.7390  -29.2377   19.8676 H   0  0  0  0  0  0
  -25.1283  -36.1958   25.0823 H   0  0  0  0  0  0
  -20.9966  -28.3240   24.1432 H   0  0  0  0  0  0
  -20.5672  -26.2288   23.3607 H   0  0  0  0  0  0
  -21.6635  -26.7445   22.1209 H   0  0  0  0  0  0
  -19.6906  -25.6303   21.1234 H   0  0  0  0  0  0
  -19.6684  -27.3209   20.6758 H   0  0  0  0  0  0
  -17.4197  -26.6684   21.4020 H   0  0  0  0  0  0
  -18.0314  -26.0072   22.9015 H   0  0  0  0  0  0
  -19.7926  -30.7265   24.2281 H   0  0  0  0  0  0
  -17.5007  -31.6264   24.5177 H   0  0  0  0  0  0
  -15.5348  -30.2998   23.7642 H   0  0  0  0  0  0
  -15.8664  -28.0844   22.7032 H   0  0  0  0  0  0
  -24.5944  -30.7021   25.7826 H   0  0  0  0  0  0
  -24.8954  -32.2840   26.4925 H   0  0  0  0  0  0
  -25.8144  -30.8868   27.0215 H   0  0  0  0  0  0
  -26.2843  -29.6793   24.1149 H   0  0  0  0  0  0
  -27.4092  -29.7256   25.4537 H   0  0  0  0  0  0
  -27.8679  -30.4346   23.9222 H   0  0  0  0  0  0
  -27.2650  -33.3598   26.2083 H   0  0  0  0  0  0
  -28.3855  -32.6896   25.0320 H   0  0  0  0  0  0
  -28.0721  -31.8427   26.5390 H   0  0  0  0  0  0
  -28.2596  -38.0105   24.7496 H   0  0  0  0  0  0
  -28.1062  -36.2633   24.6298 H   0  0  0  0  0  0
  -27.2295  -37.1476   25.8870 H   0  0  0  0  0  0
  -20.9308  -29.8777   21.6953 H   0  0  0  0  0  0
  -26.0169  -38.2862   24.1403 H   0  0  0  0  0  0
  -29.0141  -21.0654   23.0781 H   0  0  0  0  0  0
  -27.3057  -21.3900   23.0394 H   0  0  0  0  0  0
  -26.7132  -19.1761   23.7912 H   0  0  0  0  0  0
  -27.9377  -19.8383   24.8325 H   0  0  0  0  0  0
  -28.2880  -16.4801   22.7170 H   0  0  0  0  0  0
  -27.0737  -17.6442   22.3485 H   0  0  0  0  0  0
  -27.0791  -19.6868   21.1595 H   0  0  0  0  0  0
  -28.2004  -17.5858   20.3423 H   0  0  0  0  0  0
  -27.5709  -20.3022   18.6060 H   0  0  0  0  0  0
  -29.1830  -21.0125   18.7251 H   0  0  0  0  0  0
  -27.8045  -22.0008   18.2704 H   0  0  0  0  0  0
  -30.9023  -17.2138   21.7158 H   0  0  0  0  0  0
  -30.6264  -17.2026   19.9899 H   0  0  0  0  0  0
  -27.0690  -24.0965   19.8713 H   0  0  0  0  0  0
  -28.6375  -24.1571   19.1143 H   0  0  0  0  0  0
  -28.3536  -23.0317   21.9010 H   0  0  0  0  0  0
  -29.6497  -22.7304   20.7867 H   0  0  0  0  0  0
  -29.4470  -25.4028   21.2507 H   0  0  0  0  0  0
  -27.7811  -25.5466   21.7172 H   0  0  0  0  0  0
  -26.7958  -21.7642   20.4577 H   0  0  0  0  0  0
  -28.5708  -17.7387   24.4337 H   0  0  0  0  0  0
  -28.9706  -15.2335   21.3138 H   0  0  0  0  0  0
  -29.8978  -19.5784   21.5995 H   0  0  0  0  0  0
  -29.4123  -19.5193   20.0394 H   0  0  0  0  0  0
  1 25  1  0  0  0
  1 30  2  0  0  0
  1 83  1  0  0  0
  2  3  1  0  0  0
  2 25  1  0  0  0
  2 85  1  0  0  0
  2 86  1  0  0  0
  3  4  1  0  0  0
  3 87  1  0  0  0
  3 88  1  0  0  0
  4  5  1  0  0  0
  4 89  1  0  0  0
  4 90  1  0  0  0
  5  6  1  0  0  0
  5 26  1  0  0  0
  5 91  1  0  0  0
  6 25  1  0  0  0
  6 92  1  0  0  0
  6 93  1  0  0  0
  7  8  2  0  0  0
  7 26  1  0  0  0
  7 29  1  0  0  0
  8  9  1  0  0  0
  8 22  1  0  0  0
  9 10  1  0  0  0
  9 27  2  0  0  0
 10 11  2  0  0  0
 10 15  1  0  0  0
 11 12  1  0  0  0
 11 94  1  0  0  0
 12 13  2  0  0  0
 12 95  1  0  0  0
 13 14  1  0  0  0
 13 31  1  0  0  0
 14 15  2  0  0  0
 14 96  1  0  0  0
 15 97  1  0  0  0
 16 17  2  0  0  0
 16 21  1  0  0  0
 16 31  1  0  0  0
 17 18  1  0  0  0
 17 98  1  0  0  0
 18 19  2  0  0  0
 18 99  1  0  0  0
 19 20  1  0  0  0
 19 24  1  0  0  0
 20 21  2  0  0  0
 20100  1  0  0  0
 21 23  1  0  0  0
 22 28  1  0  0  0
 22 32  2  0  0  0
 26 27  1  0  0  0
 28101  1  0  0  0
 28102  1  0  0  0
 29103  1  0  0  0
 29104  1  0  0  0
 33 34  1  0  0  0
 33 66  1  0  0  0
 33 70  2  0  0  0
 34 36  1  0  0  0
 34 59  1  0  0  0
 34105  1  0  0  0
 35 44  2  0  0  0
 35 45  1  0  0  0
 35 68  1  0  0  0
 36 56  1  0  0  0
 36106  1  0  0  0
 37 39  1  0  0  0
 37 47  1  0  0  0
 37 66  1  0  0  0
 37107  1  0  0  0
 38 43  2  0  0  0
 38 46  1  0  0  0
 38 47  1  0  0  0
 39 64  1  0  0  0
 39 67  2  0  0  0
 40 52  1  0  0  0
 40 53  2  0  0  0
 40 58  1  0  0  0
 41108  1  0  0  0
 41109  1  0  0  0
 41110  1  0  0  0
 41 48  1  0  0  0
 42 43  1  0  0  0
 42 66  1  0  0  0
 42111  1  0  0  0
 42112  1  0  0  0
 43 44  1  0  0  0
 44113  1  0  0  0
 45 46  2  0  0  0
 45114  1  0  0  0
 46115  1  0  0  0
 47116  1  0  0  0
 47117  1  0  0  0
 48 56  1  0  0  0
 48 65  1  0  0  0
 48118  1  0  0  0
 49 50  1  0  0  0
 49 53  1  0  0  0
 49 64  1  0  0  0
 49119  1  0  0  0
 50 51  1  0  0  0
 50120  1  0  0  0
 50121  1  0  0  0
 51 52  1  0  0  0
 51122  1  0  0  0
 51123  1  0  0  0
 52124  1  0  0  0
 52125  1  0  0  0
 53 54  1  0  0  0
 54 55  2  0  0  0
 54126  1  0  0  0
 55 57  1  0  0  0
 55127  1  0  0  0
 56 69  2  0  0  0
 57 58  2  0  0  0
 57128  1  0  0  0
 58129  1  0  0  0
 59 60  1  0  0  0
 59 61  1  0  0  0
 59 62  1  0  0  0
 60130  1  0  0  0
 60131  1  0  0  0
 60132  1  0  0  0
 61133  1  0  0  0
 61134  1  0  0  0
 61135  1  0  0  0
 62136  1  0  0  0
 62137  1  0  0  0
 62138  1  0  0  0
 63 65  1  0  0  0
 63139  1  0  0  0
 63140  1  0  0  0
 63141  1  0  0  0
 64142  1  0  0  0
 65143  1  0  0  0
 68 80  1  0  0  0
 71 72  1  0  0  0
 71144  1  0  0  0
 71145  1  0  0  0
 71 74  1  0  0  0
 72 82  1  0  0  0
 72146  1  0  0  0
 72147  1  0  0  0
 73 75  1  0  0  0
 73 82  1  0  0  0
 73148  1  0  0  0
 73149  1  0  0  0
 74 81  1  0  0  0
 74 84  1  0  0  0
 74150  1  0  0  0
 75 77  1  0  0  0
 75 84  1  0  0  0
 75151  1  0  0  0
 76152  1  0  0  0
 76153  1  0  0  0
 76154  1  0  0  0
 76 81  1  0  0  0
 77 83  1  0  0  0
 77155  1  0  0  0
 77156  1  0  0  0
 78 79  1  0  0  0
 78 80  1  0  0  0
 78157  1  0  0  0
 78158  1  0  0  0
 79 81  1  0  0  0
 79159  1  0  0  0
 79160  1  0  0  0
 80161  1  0  0  0
 80162  1  0  0  0
 81163  1  0  0  0
 82164  1  0  0  0
 83165  1  0  0  0
 84166  1  0  0  0
 84167  1  0  0  0
M  CHG  1  84   1
M  ISO  4   1 100  68 101  80 101  83 100
M  END
> <chiral flag>
0

> <version>
0

> <s_m_source_file>
/data/baiqing/PycharmProjects/Reinvent-master-3.2/result/LINK_invent/BTK/process_docking_weight1_custom_sum_contain_oxygen_bond_distance_aromatic_linkinvent_7_9_3/rearranged_h_0113.sdf

> <i_m_source_file_index>
87

> <r_mmod_Potential_Energy-OPLS-2005>
-119.904167175293

> <r_mmod_Stretch_Energy-OPLS-2005>
46.8012199401855

> <r_mmod_Bend_Energy-OPLS-2005>
113.828987121582

> <r_mmod_Torsional_Energy-OPLS-2005>
305.507385253906

> <r_mmod_Improper_Torsional_Energy-OPLS-2005>
5.30088472366333

> <r_mmod_Van_der_Waal_Energy-OPLS-2005>
136.927978515625

> <r_mmod_Electrostatic_Energy-OPLS-2005>
-291.367706298828

> <r_mmod_Solvation_Energy-OPLS-2005>
-452.771759033203

> <b_mmod_Minimization_Converged-OPLS-2005>
0

> <r_mmod_RMS_Derivative-OPLS-2005>
1.78706693649292

$$$$
89
                    3D
 Structure written by MMmdl.
171178  0  0  1  0            999 V2000
  -30.7972  -14.3383   20.7584 C   0  0  0  0  0  0
  -30.4440  -12.3199   19.3767 C   0  0  0  0  0  0
  -29.4916  -12.5076   18.1826 C   0  0  0  0  0  0
  -28.0160  -12.3793   18.6025 C   0  0  0  0  0  0
  -27.6742  -13.1987   19.8754 C   0  0  2  0  0  0
  -28.7127  -12.9318   20.9845 C   0  0  0  0  0  0
  -25.2675  -13.8110   20.5694 C   0  0  0  0  0  0
  -24.1928  -13.0413   20.9229 C   0  0  0  0  0  0
  -24.6444  -11.6879   20.8726 C   0  0  0  0  0  0
  -23.9086  -10.4284   21.0395 C   0  0  0  0  0  0
  -24.3632   -9.4184   21.9176 C   0  0  0  0  0  0
  -23.6298   -8.2200   22.0735 C   0  0  0  0  0  0
  -22.4272   -8.0267   21.3528 C   0  0  0  0  0  0
  -21.9930   -9.0244   20.4621 C   0  0  0  0  0  0
  -22.7251  -10.2135   20.3036 C   0  0  0  0  0  0
  -21.6850   -6.0721   22.5278 C   0  0  0  0  0  0
  -21.4006   -6.5637   23.8210 C   0  0  0  0  0  0
  -21.3653   -5.6807   24.9181 C   0  0  0  0  0  0
  -21.6034   -4.3053   24.7239 C   0  0  0  0  0  0
  -21.8830   -3.8137   23.4367 C   0  0  0  0  0  0
  -21.9197   -4.6950   22.3418 C   0  0  0  0  0  0
  -22.7923  -13.5213   21.1821 C   0  0  0  0  0  0
  -22.1659   -4.2134   21.0998 F   0  0  0  0  0  0
  -21.5613   -3.4541   25.7762 F   0  0  0  0  0  0
  -30.0600  -13.2390   20.4594 N   0  0  0  0  0  0
  -26.3122  -12.9281   20.3344 N   0  0  0  0  0  0
  -25.9381  -11.6444   20.5738 N   0  0  0  0  0  0
  -22.0522  -12.8234   22.0349 N   0  0  0  0  0  0
  -25.4383  -15.1842   20.4107 N   0  0  0  0  0  0
  -31.7761  -14.7012   20.0984 O   0  0  0  0  0  0
  -21.6636   -6.8859   21.4237 O   0  0  0  0  0  0
  -22.3587  -14.5466   20.6595 O   0  0  0  0  0  0
  -24.6150  -31.8672   23.2127 C   0  0  0  0  0  0
  -25.9055  -32.4812   23.8407 C   0  0  1  0  0  0
  -27.2274  -27.4567   20.0734 C   0  0  0  0  0  0
  -25.5911  -33.8610   24.2343 N   0  0  0  0  0  0
  -23.3999  -30.4932   21.5528 C   0  0  2  0  0  0
  -24.8416  -28.9653   20.1134 C   0  0  0  0  0  0
  -22.7402  -29.4647   22.4991 C   0  0  0  0  0  0
  -18.0261  -28.1374   22.8488 C   0  0  0  0  0  0
  -24.1472  -36.7309   23.2637 C   0  0  0  0  0  0
  -25.9280  -30.8400   21.3614 C   0  0  0  0  0  0
  -26.0043  -29.4791   20.7029 C   0  0  0  0  0  0
  -27.2032  -28.7336   20.6747 C   0  0  0  0  0  0
  -26.0448  -26.9494   19.4897 C   0  0  0  0  0  0
  -24.8560  -27.6987   19.5060 C   0  0  0  0  0  0
  -23.6049  -29.8303   20.1656 C   0  0  0  0  0  0
  -25.4089  -36.3101   24.0338 C   0  0  1  0  0  0
  -20.5856  -28.3643   23.1318 C   0  0  2  0  0  0
  -20.6739  -26.9377   22.5415 C   0  0  0  0  0  0
  -19.5723  -26.6381   21.5198 C   0  0  0  0  0  0
  -18.1901  -26.7924   22.1612 C   0  0  0  0  0  0
  -19.1516  -28.8822   23.2897 C   0  0  0  0  0  0
  -18.9446  -30.1432   23.8903 C   0  0  0  0  0  0
  -17.6451  -30.6575   24.0564 C   0  0  0  0  0  0
  -25.9031  -34.9468   23.5137 C   0  0  0  0  0  0
  -16.5339  -29.9080   23.6329 C   0  0  0  0  0  0
  -16.7250  -28.6502   23.0341 C   0  0  0  0  0  0
  -26.4494  -31.6583   25.0728 C   0  0  0  0  0  0
  -25.3792  -31.3670   26.1498 C   0  0  0  0  0  0
  -27.0303  -30.3022   24.6084 C   0  0  0  0  0  0
  -27.6083  -32.4285   25.7486 C   0  0  0  0  0  0
  -27.5572  -37.1796   24.8457 C   0  0  0  0  0  0
  -21.4131  -29.3026   22.3747 N   0  0  0  0  0  0
  -26.4265  -37.3796   23.9439 N   0  0  0  0  0  0
  -24.6663  -31.0795   22.1013 N   0  0  0  0  0  0
  -23.4180  -28.8182   23.3020 O   0  0  0  0  0  0
  -28.3918  -26.7225   20.0641 O   0  0  0  0  0  0
  -26.5577  -34.8921   22.4689 O   0  0  0  0  0  0
  -23.5351  -32.1414   23.7537 O   0  0  0  0  0  0
  -29.8453  -19.4417   19.6807 C   0  0  0  0  0  0
  -31.9603  -18.4381   20.6273 C   0  0  0  0  0  0
  -26.2367  -20.8850   19.6254 C   0  0  0  0  0  0
  -28.6141  -17.2616   21.1344 C   0  0  0  0  0  0
  -28.1860  -24.2952   19.5329 C   0  0  0  0  0  0
  -27.4476  -23.0579   20.0805 C   0  0  0  0  0  0
  -31.1827  -16.0069   22.6031 C   0  0  0  0  0  0
  -28.5377  -21.2561   18.5864 C   0  0  0  0  0  0
  -30.3730  -17.3008   22.9341 C   0  0  0  0  0  0
  -28.2697  -25.4041   20.6025 C   0  0  0  0  0  0
  -30.5429  -18.9556   20.9740 C   0  0  2  0  0  0
  -27.2266  -21.9221   19.0600 C   0  0  1  0  0  0
  -29.2809  -20.6555   19.6940 N   0  0  0  0  0  0
  -30.4422  -14.9526   21.8992 N   0  0  0  0  0  0
  -29.6981  -18.0231   21.8111 N   0  3  1  0  0  0
  -29.8067  -18.7066   18.6910 O   0  0  0  0  0  0
  -31.4734  -12.4784   19.0488 H   0  0  0  0  0  0
  -30.4072  -11.2948   19.7424 H   0  0  0  0  0  0
  -29.7246  -11.7616   17.4199 H   0  0  0  0  0  0
  -29.6661  -13.4778   17.7156 H   0  0  0  0  0  0
  -27.8115  -11.3222   18.7684 H   0  0  0  0  0  0
  -27.3705  -12.6786   17.7768 H   0  0  0  0  0  0
  -27.7332  -14.2563   19.6174 H   0  0  0  0  0  0
  -28.6847  -11.8800   21.2686 H   0  0  0  0  0  0
  -28.4455  -13.4829   21.8847 H   0  0  0  0  0  0
  -25.2795   -9.5642   22.4753 H   0  0  0  0  0  0
  -24.0035   -7.4558   22.7418 H   0  0  0  0  0  0
  -21.0878   -8.8739   19.8912 H   0  0  0  0  0  0
  -22.3701  -10.9670   19.6135 H   0  0  0  0  0  0
  -21.1977   -7.6143   23.9708 H   0  0  0  0  0  0
  -21.1468   -6.0535   25.9093 H   0  0  0  0  0  0
  -22.0621   -2.7592   23.2877 H   0  0  0  0  0  0
  -22.4217  -12.0113   22.5050 H   0  0  0  0  0  0
  -21.1032  -13.1114   22.2259 H   0  0  0  0  0  0
  -24.6557  -15.8236   20.5043 H   0  0  0  0  0  0
  -26.2653  -15.6116   20.0163 H   0  0  0  0  0  0
  -26.7125  -32.5515   23.1170 H   0  0  0  0  0  0
  -25.0107  -33.9778   25.0514 H   0  0  0  0  0  0
  -22.6882  -31.3101   21.4173 H   0  0  0  0  0  0
  -23.3735  -35.9639   23.3278 H   0  0  0  0  0  0
  -24.3578  -36.8945   22.2059 H   0  0  0  0  0  0
  -23.7216  -37.6501   23.6665 H   0  0  0  0  0  0
  -26.0385  -31.6075   20.5943 H   0  0  0  0  0  0
  -26.8180  -30.8896   21.9761 H   0  0  0  0  0  0
  -28.1054  -29.1257   21.1227 H   0  0  0  0  0  0
  -26.0268  -25.9805   19.0141 H   0  0  0  0  0  0
  -23.9618  -27.2983   19.0458 H   0  0  0  0  0  0
  -23.7138  -30.6080   19.4092 H   0  0  0  0  0  0
  -22.7289  -29.2520   19.8674 H   0  0  0  0  0  0
  -25.1258  -36.1954   25.0826 H   0  0  0  0  0  0
  -20.9934  -28.3198   24.1438 H   0  0  0  0  0  0
  -20.5599  -26.2256   23.3602 H   0  0  0  0  0  0
  -21.6617  -26.7391   22.1236 H   0  0  0  0  0  0
  -19.6884  -25.6295   21.1214 H   0  0  0  0  0  0
  -19.6681  -27.3204   20.6740 H   0  0  0  0  0  0
  -17.4178  -26.6667   21.4009 H   0  0  0  0  0  0
  -18.0306  -26.0052   22.8994 H   0  0  0  0  0  0
  -19.7920  -30.7242   24.2277 H   0  0  0  0  0  0
  -17.5002  -31.6257   24.5161 H   0  0  0  0  0  0
  -15.5341  -30.2982   23.7646 H   0  0  0  0  0  0
  -15.8649  -28.0824   22.7047 H   0  0  0  0  0  0
  -24.5994  -30.6963   25.7872 H   0  0  0  0  0  0
  -24.8953  -32.2808   26.4955 H   0  0  0  0  0  0
  -25.8197  -30.8872   27.0250 H   0  0  0  0  0  0
  -26.2819  -29.6782   24.1183 H   0  0  0  0  0  0
  -27.4118  -29.7256   25.4523 H   0  0  0  0  0  0
  -27.8643  -30.4329   23.9185 H   0  0  0  0  0  0
  -27.2733  -33.3606   26.2047 H   0  0  0  0  0  0
  -28.3915  -32.6796   25.0321 H   0  0  0  0  0  0
  -28.0718  -31.8404   26.5417 H   0  0  0  0  0  0
  -28.2561  -38.0121   24.7542 H   0  0  0  0  0  0
  -28.1091  -36.2656   24.6214 H   0  0  0  0  0  0
  -27.2310  -37.1367   25.8862 H   0  0  0  0  0  0
  -20.9282  -29.8783   21.7004 H   0  0  0  0  0  0
  -26.0141  -38.2855   24.1492 H   0  0  0  0  0  0
  -32.4778  -19.1287   19.9556 H   0  0  0  0  0  0
  -31.9384  -17.4708   20.1220 H   0  0  0  0  0  0
  -32.5848  -18.3590   21.5162 H   0  0  0  0  0  0
  -25.2742  -21.3432   19.8650 H   0  0  0  0  0  0
  -26.6121  -20.4256   20.5399 H   0  0  0  0  0  0
  -26.0398  -20.0877   18.9083 H   0  0  0  0  0  0
  -28.0690  -16.6351   21.8421 H   0  0  0  0  0  0
  -28.9961  -16.6299   20.3343 H   0  0  0  0  0  0
  -27.8677  -17.9348   20.7056 H   0  0  0  0  0  0
  -27.6762  -24.6496   18.6379 H   0  0  0  0  0  0
  -29.1949  -24.0326   19.2084 H   0  0  0  0  0  0
  -26.4682  -23.3876   20.4329 H   0  0  0  0  0  0
  -27.9596  -22.6794   20.9660 H   0  0  0  0  0  0
  -32.1127  -16.2417   22.0853 H   0  0  0  0  0  0
  -31.5139  -15.5787   23.5529 H   0  0  0  0  0  0
  -29.1828  -21.9878   18.0997 H   0  0  0  0  0  0
  -28.2994  -20.5180   17.8174 H   0  0  0  0  0  0
  -31.0182  -18.0036   23.4633 H   0  0  0  0  0  0
  -29.6015  -17.0431   23.6619 H   0  0  0  0  0  0
  -29.1340  -25.2150   21.2381 H   0  0  0  0  0  0
  -27.4081  -25.3480   21.2709 H   0  0  0  0  0  0
  -30.6920  -19.8354   21.6027 H   0  0  0  0  0  0
  -26.7488  -22.3572   18.1806 H   0  0  0  0  0  0
  -29.3836  -21.2167   20.5291 H   0  0  0  0  0  0
  -29.6654  -14.5366   22.3907 H   0  0  0  0  0  0
  -29.1395  -18.6944   22.3200 H   0  0  0  0  0  0
  1 25  1  0  0  0
  1 30  2  0  0  0
  1 84  1  0  0  0
  2  3  1  0  0  0
  2 25  1  0  0  0
  2 87  1  0  0  0
  2 88  1  0  0  0
  3  4  1  0  0  0
  3 89  1  0  0  0
  3 90  1  0  0  0
  4  5  1  0  0  0
  4 91  1  0  0  0
  4 92  1  0  0  0
  5  6  1  0  0  0
  5 26  1  0  0  0
  5 93  1  0  0  0
  6 25  1  0  0  0
  6 94  1  0  0  0
  6 95  1  0  0  0
  7  8  2  0  0  0
  7 26  1  0  0  0
  7 29  1  0  0  0
  8  9  1  0  0  0
  8 22  1  0  0  0
  9 10  1  0  0  0
  9 27  2  0  0  0
 10 11  2  0  0  0
 10 15  1  0  0  0
 11 12  1  0  0  0
 11 96  1  0  0  0
 12 13  2  0  0  0
 12 97  1  0  0  0
 13 14  1  0  0  0
 13 31  1  0  0  0
 14 15  2  0  0  0
 14 98  1  0  0  0
 15 99  1  0  0  0
 16 17  2  0  0  0
 16 21  1  0  0  0
 16 31  1  0  0  0
 17 18  1  0  0  0
 17100  1  0  0  0
 18 19  2  0  0  0
 18101  1  0  0  0
 19 20  1  0  0  0
 19 24  1  0  0  0
 20 21  2  0  0  0
 20102  1  0  0  0
 21 23  1  0  0  0
 22 28  1  0  0  0
 22 32  2  0  0  0
 26 27  1  0  0  0
 28103  1  0  0  0
 28104  1  0  0  0
 29105  1  0  0  0
 29106  1  0  0  0
 33 34  1  0  0  0
 33 66  1  0  0  0
 33 70  2  0  0  0
 34 36  1  0  0  0
 34 59  1  0  0  0
 34107  1  0  0  0
 35 44  2  0  0  0
 35 45  1  0  0  0
 35 68  1  0  0  0
 36 56  1  0  0  0
 36108  1  0  0  0
 37 39  1  0  0  0
 37 47  1  0  0  0
 37 66  1  0  0  0
 37109  1  0  0  0
 38 43  2  0  0  0
 38 46  1  0  0  0
 38 47  1  0  0  0
 39 64  1  0  0  0
 39 67  2  0  0  0
 40 52  1  0  0  0
 40 53  2  0  0  0
 40 58  1  0  0  0
 41110  1  0  0  0
 41111  1  0  0  0
 41112  1  0  0  0
 41 48  1  0  0  0
 42 43  1  0  0  0
 42 66  1  0  0  0
 42113  1  0  0  0
 42114  1  0  0  0
 43 44  1  0  0  0
 44115  1  0  0  0
 45 46  2  0  0  0
 45116  1  0  0  0
 46117  1  0  0  0
 47118  1  0  0  0
 47119  1  0  0  0
 48 56  1  0  0  0
 48 65  1  0  0  0
 48120  1  0  0  0
 49 50  1  0  0  0
 49 53  1  0  0  0
 49 64  1  0  0  0
 49121  1  0  0  0
 50 51  1  0  0  0
 50122  1  0  0  0
 50123  1  0  0  0
 51 52  1  0  0  0
 51124  1  0  0  0
 51125  1  0  0  0
 52126  1  0  0  0
 52127  1  0  0  0
 53 54  1  0  0  0
 54 55  2  0  0  0
 54128  1  0  0  0
 55 57  1  0  0  0
 55129  1  0  0  0
 56 69  2  0  0  0
 57 58  2  0  0  0
 57130  1  0  0  0
 58131  1  0  0  0
 59 60  1  0  0  0
 59 61  1  0  0  0
 59 62  1  0  0  0
 60132  1  0  0  0
 60133  1  0  0  0
 60134  1  0  0  0
 61135  1  0  0  0
 61136  1  0  0  0
 61137  1  0  0  0
 62138  1  0  0  0
 62139  1  0  0  0
 62140  1  0  0  0
 63 65  1  0  0  0
 63141  1  0  0  0
 63142  1  0  0  0
 63143  1  0  0  0
 64144  1  0  0  0
 65145  1  0  0  0
 68 80  1  0  0  0
 71 81  1  0  0  0
 71 83  1  0  0  0
 71 86  2  0  0  0
 72146  1  0  0  0
 72147  1  0  0  0
 72148  1  0  0  0
 72 81  1  0  0  0
 73149  1  0  0  0
 73150  1  0  0  0
 73151  1  0  0  0
 73 82  1  0  0  0
 74152  1  0  0  0
 74153  1  0  0  0
 74154  1  0  0  0
 74 85  1  0  0  0
 75 76  1  0  0  0
 75 80  1  0  0  0
 75155  1  0  0  0
 75156  1  0  0  0
 76 82  1  0  0  0
 76157  1  0  0  0
 76158  1  0  0  0
 77 79  1  0  0  0
 77 84  1  0  0  0
 77159  1  0  0  0
 77160  1  0  0  0
 78 82  1  0  0  0
 78 83  1  0  0  0
 78161  1  0  0  0
 78162  1  0  0  0
 79 85  1  0  0  0
 79163  1  0  0  0
 79164  1  0  0  0
 80165  1  0  0  0
 80166  1  0  0  0
 81 85  1  0  0  0
 81167  1  0  0  0
 82168  1  0  0  0
 83169  1  0  0  0
 84170  1  0  0  0
 85171  1  0  0  0
M  CHG  1  85   1
M  ISO  4   1 100  68 101  80 101  84 100
M  END
> <chiral flag>
0

> <version>
0

> <s_m_source_file>
/data/baiqing/PycharmProjects/Reinvent-master-3.2/result/LINK_invent/BTK/process_docking_weight1_custom_sum_contain_oxygen_bond_distance_aromatic_linkinvent_7_9_3/rearranged_h_0113.sdf

> <i_m_source_file_index>
88

> <r_mmod_Potential_Energy-OPLS-2005>
-245.842514038086

> <r_mmod_Stretch_Energy-OPLS-2005>
38.3791084289551

> <r_mmod_Bend_Energy-OPLS-2005>
119.89444732666

> <r_mmod_Torsional_Energy-OPLS-2005>
291.625915527344

> <r_mmod_Improper_Torsional_Energy-OPLS-2005>
2.79157996177673

> <r_mmod_Van_der_Waal_Energy-OPLS-2005>
138.678268432617

> <r_mmod_Electrostatic_Energy-OPLS-2005>
-375.371917724609

> <r_mmod_Solvation_Energy-OPLS-2005>
-471.291076660156

> <b_mmod_Minimization_Converged-OPLS-2005>
0

> <r_mmod_RMS_Derivative-OPLS-2005>
4.21877145767212

$$$$
90
                    3D
 Structure written by MMmdl.
170178  0  0  1  0            999 V2000
  -30.7108  -14.5956   20.5969 C   0  0  0  0  0  0
  -30.4144  -12.3992   19.4545 C   0  0  0  0  0  0
  -29.4924  -12.5138   18.2226 C   0  0  0  0  0  0
  -28.0186  -12.3447   18.6322 C   0  0  0  0  0  0
  -27.6496  -13.2143   19.8620 C   0  0  2  0  0  0
  -28.6895  -13.0565   20.9923 C   0  0  0  0  0  0
  -25.2574  -13.8195   20.5740 C   0  0  0  0  0  0
  -24.1844  -13.0464   20.9273 C   0  0  0  0  0  0
  -24.6386  -11.6931   20.8773 C   0  0  0  0  0  0
  -23.9079  -10.4299   21.0404 C   0  0  0  0  0  0
  -24.3634   -9.4218   21.9174 C   0  0  0  0  0  0
  -23.6308   -8.2252   22.0749 C   0  0  0  0  0  0
  -22.4279   -8.0290   21.3551 C   0  0  0  0  0  0
  -21.9923   -9.0267   20.4650 C   0  0  0  0  0  0
  -22.7255  -10.2144   20.3053 C   0  0  0  0  0  0
  -21.6861   -6.0736   22.5275 C   0  0  0  0  0  0
  -21.4009   -6.5647   23.8203 C   0  0  0  0  0  0
  -21.3654   -5.6805   24.9171 C   0  0  0  0  0  0
  -21.6038   -4.3065   24.7225 C   0  0  0  0  0  0
  -21.8826   -3.8154   23.4350 C   0  0  0  0  0  0
  -21.9200   -4.6968   22.3402 C   0  0  0  0  0  0
  -22.7870  -13.5273   21.1898 C   0  0  0  0  0  0
  -22.1666   -4.2151   21.0980 F   0  0  0  0  0  0
  -21.5633   -3.4550   25.7736 F   0  0  0  0  0  0
  -30.0067  -13.4208   20.4502 N   0  0  0  0  0  0
  -26.2964  -12.9346   20.3300 N   0  0  0  0  0  0
  -25.9292  -11.6511   20.5741 N   0  0  0  0  0  0
  -22.0492  -12.8231   22.0416 N   0  0  0  0  0  0
  -25.4348  -15.1907   20.4077 N   0  0  0  0  0  0
  -31.8083  -14.7166   20.0399 O   0  0  0  0  0  0
  -21.6661   -6.8872   21.4228 O   0  0  0  0  0  0
  -22.3593  -14.5584   20.6721 O   0  0  0  0  0  0
  -24.6255  -31.8593   23.2006 C   0  0  0  0  0  0
  -25.9089  -32.4768   23.8344 C   0  0  1  0  0  0
  -27.2367  -27.3365   20.0921 C   0  0  0  0  0  0
  -25.5899  -33.8569   24.2267 N   0  0  0  0  0  0
  -23.4181  -30.4811   21.5418 C   0  0  2  0  0  0
  -24.8608  -28.9253   20.1170 C   0  0  0  0  0  0
  -22.7466  -29.4634   22.4936 C   0  0  0  0  0  0
  -18.0297  -28.1352   22.8486 C   0  0  0  0  0  0
  -24.1492  -36.7301   23.2647 C   0  0  0  0  0  0
  -25.9573  -30.7899   21.3690 C   0  0  0  0  0  0
  -26.0283  -29.4192   20.7100 C   0  0  0  0  0  0
  -27.2147  -28.6353   20.6857 C   0  0  0  0  0  0
  -26.0317  -26.8637   19.5274 C   0  0  0  0  0  0
  -24.8615  -27.6514   19.5255 C   0  0  0  0  0  0
  -23.6301  -29.8071   20.1614 C   0  0  0  0  0  0
  -25.4112  -36.3080   24.0335 C   0  0  1  0  0  0
  -20.5890  -28.3697   23.1287 C   0  0  2  0  0  0
  -20.6789  -26.9414   22.5432 C   0  0  0  0  0  0
  -19.5787  -26.6340   21.5234 C   0  0  0  0  0  0
  -18.1952  -26.7892   22.1625 C   0  0  0  0  0  0
  -19.1544  -28.8850   23.2873 C   0  0  0  0  0  0
  -18.9456  -30.1446   23.8892 C   0  0  0  0  0  0
  -17.6454  -30.6570   24.0534 C   0  0  0  0  0  0
  -25.9045  -34.9443   23.5099 C   0  0  0  0  0  0
  -16.5350  -29.9049   23.6299 C   0  0  0  0  0  0
  -16.7282  -28.6456   23.0344 C   0  0  0  0  0  0
  -26.4484  -31.6599   25.0729 C   0  0  0  0  0  0
  -25.3738  -31.3733   26.1476 C   0  0  0  0  0  0
  -27.0346  -30.3032   24.6192 C   0  0  0  0  0  0
  -27.6038  -32.4363   25.7490 C   0  0  0  0  0  0
  -27.5583  -37.1806   24.8464 C   0  0  0  0  0  0
  -21.4176  -29.3063   22.3680 N   0  0  0  0  0  0
  -26.4299  -37.3770   23.9402 N   0  0  0  0  0  0
  -24.6854  -31.0621   22.0932 N   0  0  0  0  0  0
  -23.4199  -28.8181   23.3013 O   0  0  0  0  0  0
  -28.4178  -26.5890   20.1210 O   0  0  0  0  0  0
  -26.5620  -34.8916   22.4672 O   0  0  0  0  0  0
  -23.5422  -32.1368   23.7349 O   0  0  0  0  0  0
  -29.2436  -18.6565   20.4283 C   0  0  0  0  0  0
  -30.4890  -16.1086   23.8324 C   0  0  0  0  0  0
  -29.0411  -15.9093   23.3775 C   0  0  0  0  0  0
  -31.3177  -15.8943   22.5616 C   0  0  0  0  0  0
  -29.0642  -16.2514   21.8669 C   0  0  1  0  0  0
  -28.3463  -25.2188   18.0059 C   0  0  0  0  0  0
  -27.2914  -19.0896   23.2572 C   0  0  0  0  0  0
  -28.5222  -20.0106   20.0084 C   0  0  0  0  0  0
  -28.8430  -21.4208   20.6801 C   0  0  0  0  0  0
  -28.2241  -23.9497   20.3228 C   0  0  0  0  0  0
  -28.8853  -17.8633   21.7545 C   0  0  2  0  0  0
  -28.6446  -25.2586   19.5189 C   0  0  2  0  0  0
  -30.3483  -15.5626   21.5116 N   0  0  0  0  0  0
  -27.4775  -18.1909   22.0958 N   0  3  0  0  0  0
  -28.7436  -22.6308   19.7642 N   0  3  0  0  0  0
  -30.1041  -18.2166   19.6604 O   0  0  0  0  0  0
  -31.4570  -12.4945   19.1493 H   0  0  0  0  0  0
  -30.3363  -11.4023   19.8917 H   0  0  0  0  0  0
  -29.7582  -11.7615   17.4778 H   0  0  0  0  0  0
  -29.6353  -13.4842   17.7441 H   0  0  0  0  0  0
  -27.8638  -11.2886   18.8631 H   0  0  0  0  0  0
  -27.3581  -12.5701   17.7939 H   0  0  0  0  0  0
  -27.6743  -14.2518   19.5277 H   0  0  0  0  0  0
  -28.7073  -12.0266   21.3479 H   0  0  0  0  0  0
  -28.4084  -13.6414   21.8577 H   0  0  0  0  0  0
  -25.2783   -9.5699   22.4751 H   0  0  0  0  0  0
  -24.0024   -7.4663   22.7483 H   0  0  0  0  0  0
  -21.0845   -8.8803   19.8973 H   0  0  0  0  0  0
  -22.3728  -10.9690   19.6170 H   0  0  0  0  0  0
  -21.1981   -7.6153   23.9703 H   0  0  0  0  0  0
  -21.1469   -6.0533   25.9077 H   0  0  0  0  0  0
  -22.0607   -2.7616   23.2855 H   0  0  0  0  0  0
  -22.4108  -11.9881   22.4768 H   0  0  0  0  0  0
  -21.1094  -13.1229   22.2588 H   0  0  0  0  0  0
  -24.6018  -15.7666   20.3515 H   0  0  0  0  0  0
  -26.1593  -15.5087   19.7778 H   0  0  0  0  0  0
  -26.7145  -32.5422   23.1087 H   0  0  0  0  0  0
  -25.0046  -33.9710   25.0409 H   0  0  0  0  0  0
  -22.7136  -31.3021   21.3944 H   0  0  0  0  0  0
  -23.3745  -35.9647   23.3312 H   0  0  0  0  0  0
  -24.3593  -36.8915   22.2065 H   0  0  0  0  0  0
  -23.7252  -37.6508   23.6665 H   0  0  0  0  0  0
  -26.0951  -31.5550   20.6043 H   0  0  0  0  0  0
  -26.8355  -30.8320   22.0032 H   0  0  0  0  0  0
  -28.1177  -29.0169   21.1410 H   0  0  0  0  0  0
  -25.9545  -25.8724   19.1116 H   0  0  0  0  0  0
  -23.9565  -27.2538   19.0886 H   0  0  0  0  0  0
  -23.7533  -30.5770   19.3997 H   0  0  0  0  0  0
  -22.7501  -29.2360   19.8631 H   0  0  0  0  0  0
  -25.1300  -36.1939   25.0833 H   0  0  0  0  0  0
  -20.9983  -28.3296   24.1412 H   0  0  0  0  0  0
  -21.6649  -26.7460   22.1201 H   0  0  0  0  0  0
  -20.5689  -26.2311   23.3647 H   0  0  0  0  0  0
  -19.6972  -25.6225   21.1305 H   0  0  0  0  0  0
  -19.6745  -27.3113   20.6733 H   0  0  0  0  0  0
  -17.4238  -26.6611   21.4007 H   0  0  0  0  0  0
  -18.0355  -26.0024   22.9005 H   0  0  0  0  0  0
  -19.7910  -30.7275   24.2249 H   0  0  0  0  0  0
  -17.4993  -31.6251   24.5146 H   0  0  0  0  0  0
  -15.5335  -30.2942   23.7613 H   0  0  0  0  0  0
  -15.8700  -28.0739   22.7064 H   0  0  0  0  0  0
  -24.5863  -30.7135   25.7808 H   0  0  0  0  0  0
  -24.8993  -32.2913   26.4972 H   0  0  0  0  0  0
  -25.8089  -30.8850   27.0203 H   0  0  0  0  0  0
  -26.2913  -29.6747   24.1267 H   0  0  0  0  0  0
  -27.4101  -29.7334   25.4696 H   0  0  0  0  0  0
  -27.8758  -30.4337   23.9377 H   0  0  0  0  0  0
  -27.2611  -33.3626   26.2118 H   0  0  0  0  0  0
  -28.3811  -32.6993   25.0303 H   0  0  0  0  0  0
  -28.0751  -31.8472   26.5367 H   0  0  0  0  0  0
  -28.2602  -38.0104   24.7494 H   0  0  0  0  0  0
  -28.1079  -36.2624   24.6303 H   0  0  0  0  0  0
  -27.2306  -37.1474   25.8874 H   0  0  0  0  0  0
  -20.9326  -29.8785   21.6912 H   0  0  0  0  0  0
  -26.0180  -38.2859   24.1367 H   0  0  0  0  0  0
  -30.7553  -15.4038   24.6223 H   0  0  0  0  0  0
  -30.6525  -17.1147   24.2226 H   0  0  0  0  0  0
  -28.7757  -14.8664   23.5455 H   0  0  0  0  0  0
  -28.3427  -16.4889   23.9779 H   0  0  0  0  0  0
  -32.0448  -15.0950   22.7184 H   0  0  0  0  0  0
  -31.8780  -16.7899   22.2857 H   0  0  0  0  0  0
  -28.2362  -15.7773   21.3423 H   0  0  0  0  0  0
  -28.9084  -24.4246   17.5164 H   0  0  0  0  0  0
  -28.6476  -26.1546   17.5333 H   0  0  0  0  0  0
  -27.3002  -25.0429   17.7705 H   0  0  0  0  0  0
  -27.7512  -18.6848   24.1597 H   0  0  0  0  0  0
  -26.2271  -19.2192   23.4582 H   0  0  0  0  0  0
  -27.7160  -20.0773   23.0894 H   0  0  0  0  0  0
  -27.4444  -19.8542   20.0181 H   0  0  0  0  0  0
  -28.7684  -20.1086   18.9508 H   0  0  0  0  0  0
  -29.8361  -21.4148   21.1312 H   0  0  0  0  0  0
  -28.1450  -21.5804   21.5010 H   0  0  0  0  0  0
  -27.1386  -23.8930   20.4003 H   0  0  0  0  0  0
  -28.5951  -24.0573   21.3426 H   0  0  0  0  0  0
  -29.5233  -18.3028   22.5207 H   0  0  0  0  0  0
  -29.7344  -25.2293   19.5523 H   0  0  0  0  0  0
  -27.0250  -18.5838   21.2859 H   0  0  0  0  0  0
  -26.9947  -17.3306   22.3027 H   0  0  0  0  0  0
  -28.1674  -22.3873   18.9731 H   0  0  0  0  0  0
  -29.6721  -22.7927   19.4023 H   0  0  0  0  0  0
  1 25  1  0  0  0
  1 30  2  0  0  0
  1 83  1  0  0  0
  2  3  1  0  0  0
  2 25  1  0  0  0
  2 87  1  0  0  0
  2 88  1  0  0  0
  3  4  1  0  0  0
  3 89  1  0  0  0
  3 90  1  0  0  0
  4  5  1  0  0  0
  4 91  1  0  0  0
  4 92  1  0  0  0
  5  6  1  0  0  0
  5 26  1  0  0  0
  5 93  1  0  0  0
  6 25  1  0  0  0
  6 94  1  0  0  0
  6 95  1  0  0  0
  7  8  2  0  0  0
  7 26  1  0  0  0
  7 29  1  0  0  0
  8  9  1  0  0  0
  8 22  1  0  0  0
  9 10  1  0  0  0
  9 27  2  0  0  0
 10 11  2  0  0  0
 10 15  1  0  0  0
 11 12  1  0  0  0
 11 96  1  0  0  0
 12 13  2  0  0  0
 12 97  1  0  0  0
 13 14  1  0  0  0
 13 31  1  0  0  0
 14 15  2  0  0  0
 14 98  1  0  0  0
 15 99  1  0  0  0
 16 17  2  0  0  0
 16 21  1  0  0  0
 16 31  1  0  0  0
 17 18  1  0  0  0
 17100  1  0  0  0
 18 19  2  0  0  0
 18101  1  0  0  0
 19 20  1  0  0  0
 19 24  1  0  0  0
 20 21  2  0  0  0
 20102  1  0  0  0
 21 23  1  0  0  0
 22 28  1  0  0  0
 22 32  2  0  0  0
 26 27  1  0  0  0
 28103  1  0  0  0
 28104  1  0  0  0
 29105  1  0  0  0
 29106  1  0  0  0
 33 34  1  0  0  0
 33 66  1  0  0  0
 33 70  2  0  0  0
 34 36  1  0  0  0
 34 59  1  0  0  0
 34107  1  0  0  0
 35 44  2  0  0  0
 35 45  1  0  0  0
 35 68  1  0  0  0
 36 56  1  0  0  0
 36108  1  0  0  0
 37 39  1  0  0  0
 37 47  1  0  0  0
 37 66  1  0  0  0
 37109  1  0  0  0
 38 43  2  0  0  0
 38 46  1  0  0  0
 38 47  1  0  0  0
 39 64  1  0  0  0
 39 67  2  0  0  0
 40 52  1  0  0  0
 40 53  2  0  0  0
 40 58  1  0  0  0
 41110  1  0  0  0
 41111  1  0  0  0
 41112  1  0  0  0
 41 48  1  0  0  0
 42 43  1  0  0  0
 42 66  1  0  0  0
 42113  1  0  0  0
 42114  1  0  0  0
 43 44  1  0  0  0
 44115  1  0  0  0
 45 46  2  0  0  0
 45116  1  0  0  0
 46117  1  0  0  0
 47118  1  0  0  0
 47119  1  0  0  0
 48 56  1  0  0  0
 48 65  1  0  0  0
 48120  1  0  0  0
 49 50  1  0  0  0
 49 53  1  0  0  0
 49 64  1  0  0  0
 49121  1  0  0  0
 50 51  1  0  0  0
 50122  1  0  0  0
 50123  1  0  0  0
 51 52  1  0  0  0
 51124  1  0  0  0
 51125  1  0  0  0
 52126  1  0  0  0
 52127  1  0  0  0
 53 54  1  0  0  0
 54 55  2  0  0  0
 54128  1  0  0  0
 55 57  1  0  0  0
 55129  1  0  0  0
 56 69  2  0  0  0
 57 58  2  0  0  0
 57130  1  0  0  0
 58131  1  0  0  0
 59 60  1  0  0  0
 59 61  1  0  0  0
 59 62  1  0  0  0
 60132  1  0  0  0
 60133  1  0  0  0
 60134  1  0  0  0
 61135  1  0  0  0
 61136  1  0  0  0
 61137  1  0  0  0
 62138  1  0  0  0
 62139  1  0  0  0
 62140  1  0  0  0
 63 65  1  0  0  0
 63141  1  0  0  0
 63142  1  0  0  0
 63143  1  0  0  0
 64144  1  0  0  0
 65145  1  0  0  0
 68 82  1  0  0  0
 71 78  1  0  0  0
 71 81  1  0  0  0
 71 86  2  0  0  0
 72 73  1  0  0  0
 72 74  1  0  0  0
 72146  1  0  0  0
 72147  1  0  0  0
 73148  1  0  0  0
 73149  1  0  0  0
 73 75  1  0  0  0
 74 83  1  0  0  0
 74150  1  0  0  0
 74151  1  0  0  0
 75 81  1  0  0  0
 75 83  1  0  0  0
 75152  1  0  0  0
 76153  1  0  0  0
 76154  1  0  0  0
 76155  1  0  0  0
 76 82  1  0  0  0
 77 84  1  0  0  0
 77156  1  0  0  0
 77157  1  0  0  0
 77158  1  0  0  0
 78 79  1  0  0  0
 78159  1  0  0  0
 78160  1  0  0  0
 79 85  1  0  0  0
 79161  1  0  0  0
 79162  1  0  0  0
 80 82  1  0  0  0
 80 85  1  0  0  0
 80163  1  0  0  0
 80164  1  0  0  0
 81 84  1  0  0  0
 81165  1  0  0  0
 82166  1  0  0  0
 84167  1  0  0  0
 84168  1  0  0  0
 85169  1  0  0  0
 85170  1  0  0  0
M  CHG  2  84   1  85   1
M  ISO  4   1 100  68 101  82 101  83 100
M  END
> <chiral flag>
0

> <version>
0

> <s_m_source_file>
/data/baiqing/PycharmProjects/Reinvent-master-3.2/result/LINK_invent/BTK/process_docking_weight1_custom_sum_contain_oxygen_bond_distance_aromatic_linkinvent_7_9_3/rearranged_h_0113.sdf

> <i_m_source_file_index>
89

> <r_mmod_Potential_Energy-OPLS-2005>
-10.2244892120361

> <r_mmod_Stretch_Energy-OPLS-2005>
91.6335067749023

> <r_mmod_Bend_Energy-OPLS-2005>
249.034561157227

> <r_mmod_Torsional_Energy-OPLS-2005>
361.135375976562

> <r_mmod_Improper_Torsional_Energy-OPLS-2005>
8.45851135253906

> <r_mmod_Van_der_Waal_Energy-OPLS-2005>
113.678909301758

> <r_mmod_Electrostatic_Energy-OPLS-2005>
127.262062072754

> <r_mmod_Solvation_Energy-OPLS-2005>
-995.239379882812

> <b_mmod_Minimization_Converged-OPLS-2005>
0

> <r_mmod_RMS_Derivative-OPLS-2005>
3.18678689002991

$$$$
91
                    3D
 Structure written by MMmdl.
165173  0  0  1  0            999 V2000
  -30.6406  -14.8052   20.4243 C   0  0  0  0  0  0
  -30.4211  -12.4948   19.4710 C   0  0  0  0  0  0
  -29.5012  -12.5108   18.2323 C   0  0  0  0  0  0
  -28.0320  -12.3273   18.6574 C   0  0  0  0  0  0
  -27.6339  -13.2453   19.8437 C   0  0  2  0  0  0
  -28.6855  -13.2359   20.9742 C   0  0  0  0  0  0
  -25.2470  -13.8227   20.5719 C   0  0  0  0  0  0
  -24.1778  -13.0447   20.9231 C   0  0  0  0  0  0
  -24.6392  -11.6934   20.8768 C   0  0  0  0  0  0
  -23.9071  -10.4298   21.0408 C   0  0  0  0  0  0
  -24.3614   -9.4215   21.9192 C   0  0  0  0  0  0
  -23.6288   -8.2252   22.0763 C   0  0  0  0  0  0
  -22.4276   -8.0284   21.3543 C   0  0  0  0  0  0
  -21.9906   -9.0259   20.4652 C   0  0  0  0  0  0
  -22.7236  -10.2140   20.3064 C   0  0  0  0  0  0
  -21.6849   -6.0733   22.5267 C   0  0  0  0  0  0
  -21.4016   -6.5638   23.8198 C   0  0  0  0  0  0
  -21.3660   -5.6800   24.9166 C   0  0  0  0  0  0
  -21.6047   -4.3057   24.7224 C   0  0  0  0  0  0
  -21.8821   -3.8141   23.4342 C   0  0  0  0  0  0
  -21.9196   -4.6961   22.3395 C   0  0  0  0  0  0
  -22.7796  -13.5224   21.1875 C   0  0  0  0  0  0
  -22.1662   -4.2141   21.0977 F   0  0  0  0  0  0
  -21.5635   -3.4544   25.7737 F   0  0  0  0  0  0
  -29.9698  -13.5957   20.3626 N   0  0  0  0  0  0
  -26.2912  -12.9464   20.3310 N   0  0  0  0  0  0
  -25.9333  -11.6589   20.5788 N   0  0  0  0  0  0
  -22.0446  -12.8213   22.0433 N   0  0  0  0  0  0
  -25.4117  -15.1948   20.4101 N   0  0  0  0  0  0
  -31.8478  -14.7981   20.1657 O   0  0  0  0  0  0
  -21.6647   -6.8876   21.4227 O   0  0  0  0  0  0
  -22.3487  -14.5520   20.6711 O   0  0  0  0  0  0
  -24.6380  -31.8528   23.1967 C   0  0  0  0  0  0
  -25.9167  -32.4750   23.8353 C   0  0  1  0  0  0
  -27.2125  -27.1982   20.1392 C   0  0  0  0  0  0
  -25.5935  -33.8559   24.2265 N   0  0  0  0  0  0
  -23.4402  -30.4731   21.5422 C   0  0  2  0  0  0
  -24.8873  -28.9143   20.1140 C   0  0  0  0  0  0
  -22.7552  -29.4582   22.4906 C   0  0  0  0  0  0
  -18.0288  -28.1380   22.8470 C   0  0  0  0  0  0
  -24.1478  -36.7262   23.2644 C   0  0  0  0  0  0
  -25.9921  -30.7424   21.3925 C   0  0  0  0  0  0
  -26.0631  -29.3611   20.7306 C   0  0  0  0  0  0
  -27.2291  -28.5164   20.7304 C   0  0  0  0  0  0
  -26.0113  -26.8431   19.4844 C   0  0  0  0  0  0
  -24.8696  -27.6666   19.4784 C   0  0  0  0  0  0
  -23.6641  -29.8102   20.1588 C   0  0  0  0  0  0
  -25.4118  -36.3081   24.0329 C   0  0  1  0  0  0
  -20.5901  -28.3707   23.1228 C   0  0  2  0  0  0
  -20.6785  -26.9416   22.5396 C   0  0  0  0  0  0
  -19.5760  -26.6375   21.5195 C   0  0  0  0  0  0
  -18.1935  -26.7922   22.1606 C   0  0  0  0  0  0
  -19.1549  -28.8862   23.2835 C   0  0  0  0  0  0
  -18.9473  -30.1452   23.8868 C   0  0  0  0  0  0
  -17.6478  -30.6586   24.0547 C   0  0  0  0  0  0
  -25.9067  -34.9444   23.5112 C   0  0  0  0  0  0
  -16.5360  -29.9083   23.6327 C   0  0  0  0  0  0
  -16.7281  -28.6494   23.0361 C   0  0  0  0  0  0
  -26.4514  -31.6612   25.0777 C   0  0  0  0  0  0
  -25.3697  -31.3731   26.1463 C   0  0  0  0  0  0
  -27.0404  -30.3025   24.6334 C   0  0  0  0  0  0
  -27.6082  -32.4374   25.7523 C   0  0  0  0  0  0
  -27.5581  -37.1784   24.8468 C   0  0  0  0  0  0
  -21.4252  -29.3045   22.3620 N   0  0  0  0  0  0
  -26.4294  -37.3781   23.9414 N   0  0  0  0  0  0
  -24.7093  -31.0432   22.0991 N   0  0  0  0  0  0
  -23.4232  -28.8112   23.3023 O   0  0  0  0  0  0
  -28.2814  -26.2504   20.1919 O   0  0  0  0  0  0
  -26.5663  -34.8926   22.4690 O   0  0  0  0  0  0
  -23.5498  -32.1391   23.7201 O   0  0  0  0  0  0
  -29.2296  -18.3240   21.4398 C   0  0  0  0  0  0
  -30.5241  -18.4637   19.4025 C   0  0  0  0  0  0
  -29.0269  -16.7409   21.1973 C   0  0  0  0  0  0
  -30.2177  -16.9402   19.0983 C   0  0  0  0  0  0
  -29.4292  -19.2754   20.1863 C   0  0  0  0  0  0
  -30.5752  -21.4764   22.7249 C   0  0  0  0  0  0
  -32.0381  -21.8827   20.6572 C   0  0  0  0  0  0
  -29.0876  -23.5407   20.2863 C   0  0  0  0  0  0
  -28.6954  -21.9279   20.4382 C   0  0  0  0  0  0
  -27.9737  -24.7501   20.2247 C   0  0  0  0  0  0
  -30.9532  -21.0069   21.3077 C   0  0  0  0  0  0
  -29.9484  -16.0262   20.2543 N   0  0  0  0  0  0
  -29.7851  -20.7993   20.3927 N   0  3  1  0  0  0
  -31.4607  -12.6020   19.1585 H   0  0  0  0  0  0
  -30.3652  -11.5328   19.9825 H   0  0  0  0  0  0
  -29.7885  -11.7242   17.5332 H   0  0  0  0  0  0
  -29.6163  -13.4550   17.6966 H   0  0  0  0  0  0
  -27.9044  -11.2819   18.9435 H   0  0  0  0  0  0
  -27.3671  -12.4942   17.8089 H   0  0  0  0  0  0
  -27.6103  -14.2581   19.4407 H   0  0  0  0  0  0
  -28.7420  -12.2576   21.4531 H   0  0  0  0  0  0
  -28.4190  -13.9480   21.7557 H   0  0  0  0  0  0
  -25.2750   -9.5707   22.4780 H   0  0  0  0  0  0
  -23.9995   -7.4655   22.7491 H   0  0  0  0  0  0
  -21.0838   -8.8778   19.8961 H   0  0  0  0  0  0
  -22.3678  -10.9685   19.6189 H   0  0  0  0  0  0
  -21.2001   -7.6145   23.9692 H   0  0  0  0  0  0
  -21.1485   -6.0534   25.9071 H   0  0  0  0  0  0
  -22.0598   -2.7600   23.2848 H   0  0  0  0  0  0
  -22.4053  -11.9880   22.4834 H   0  0  0  0  0  0
  -21.1070  -13.1245   22.2641 H   0  0  0  0  0  0
  -24.6362  -15.8417   20.5059 H   0  0  0  0  0  0
  -26.2558  -15.6321   20.0647 H   0  0  0  0  0  0
  -26.7241  -32.5387   23.1099 H   0  0  0  0  0  0
  -25.0037  -33.9679   25.0384 H   0  0  0  0  0  0
  -22.7398  -31.2973   21.3935 H   0  0  0  0  0  0
  -23.3778  -35.9553   23.3316 H   0  0  0  0  0  0
  -24.3537  -36.8893   22.2052 H   0  0  0  0  0  0
  -23.7198  -37.6440   23.6677 H   0  0  0  0  0  0
  -26.1483  -31.5019   20.6261 H   0  0  0  0  0  0
  -26.8605  -30.7855   22.0377 H   0  0  0  0  0  0
  -28.1260  -28.8482   21.2358 H   0  0  0  0  0  0
  -25.9119  -25.9001   18.9723 H   0  0  0  0  0  0
  -23.9708  -27.3228   18.9845 H   0  0  0  0  0  0
  -23.8013  -30.5884   19.4069 H   0  0  0  0  0  0
  -22.7802  -29.2492   19.8487 H   0  0  0  0  0  0
  -25.1299  -36.1940   25.0826 H   0  0  0  0  0  0
  -20.9959  -28.3315   24.1365 H   0  0  0  0  0  0
  -20.5660  -26.2342   23.3624 H   0  0  0  0  0  0
  -21.6661  -26.7434   22.1203 H   0  0  0  0  0  0
  -19.6927  -25.6277   21.1249 H   0  0  0  0  0  0
  -19.6689  -27.3173   20.6708 H   0  0  0  0  0  0
  -17.4205  -26.6650   21.4003 H   0  0  0  0  0  0
  -18.0325  -26.0060   22.8995 H   0  0  0  0  0  0
  -19.7957  -30.7232   24.2275 H   0  0  0  0  0  0
  -17.5048  -31.6267   24.5146 H   0  0  0  0  0  0
  -15.5366  -30.2979   23.7675 H   0  0  0  0  0  0
  -15.8674  -28.0797   22.7125 H   0  0  0  0  0  0
  -24.5906  -30.7067   25.7730 H   0  0  0  0  0  0
  -24.8824  -32.2862   26.4884 H   0  0  0  0  0  0
  -25.7962  -30.8886   27.0260 H   0  0  0  0  0  0
  -26.3026  -29.6718   24.1342 H   0  0  0  0  0  0
  -27.4048  -29.7348   25.4909 H   0  0  0  0  0  0
  -27.8929  -30.4305   23.9657 H   0  0  0  0  0  0
  -27.2742  -33.3717   26.2054 H   0  0  0  0  0  0
  -28.3881  -32.6872   25.0315 H   0  0  0  0  0  0
  -28.0781  -31.8540   26.5453 H   0  0  0  0  0  0
  -28.2609  -38.0078   24.7552 H   0  0  0  0  0  0
  -28.1079  -36.2612   24.6279 H   0  0  0  0  0  0
  -27.2283  -37.1414   25.8866 H   0  0  0  0  0  0
  -20.9486  -29.8782   21.6797 H   0  0  0  0  0  0
  -26.0185  -38.2854   24.1447 H   0  0  0  0  0  0
  -30.0820  -18.4244   22.1088 H   0  0  0  0  0  0
  -28.3787  -18.6923   22.0136 H   0  0  0  0  0  0
  -30.7346  -18.9650   18.4568 H   0  0  0  0  0  0
  -31.4651  -18.4837   19.9523 H   0  0  0  0  0  0
  -28.0175  -16.5815   20.8165 H   0  0  0  0  0  0
  -29.0559  -16.2359   22.1645 H   0  0  0  0  0  0
  -31.0315  -16.5416   18.4896 H   0  0  0  0  0  0
  -29.3428  -16.8940   18.4492 H   0  0  0  0  0  0
  -28.5167  -19.2516   19.5892 H   0  0  0  0  0  0
  -31.4581  -21.4875   23.3652 H   0  0  0  0  0  0
  -29.8478  -20.8075   23.1831 H   0  0  0  0  0  0
  -30.1601  -22.4813   22.7512 H   0  0  0  0  0  0
  -32.9124  -21.9546   21.3046 H   0  0  0  0  0  0
  -31.7090  -22.8996   20.4548 H   0  0  0  0  0  0
  -32.3814  -21.4527   19.7153 H   0  0  0  0  0  0
  -29.6882  -23.6398   19.3825 H   0  0  0  0  0  0
  -29.7572  -23.8140   21.0978 H   0  0  0  0  0  0
  -27.9795  -21.6907   19.6509 H   0  0  0  0  0  0
  -28.1372  -21.7953   21.3664 H   0  0  0  0  0  0
  -27.3085  -24.6104   21.0779 H   0  0  0  0  0  0
  -27.3786  -24.5017   19.3485 H   0  0  0  0  0  0
  -31.4488  -20.0507   21.4556 H   0  0  0  0  0  0
  -30.1886  -20.9875   19.4870 H   0  0  0  0  0  0
  1 25  1  0  0  0
  1 30  2  0  0  0
  1 82  1  0  0  0
  2  3  1  0  0  0
  2 25  1  0  0  0
  2 84  1  0  0  0
  2 85  1  0  0  0
  3  4  1  0  0  0
  3 86  1  0  0  0
  3 87  1  0  0  0
  4  5  1  0  0  0
  4 88  1  0  0  0
  4 89  1  0  0  0
  5  6  1  0  0  0
  5 26  1  0  0  0
  5 90  1  0  0  0
  6 25  1  0  0  0
  6 91  1  0  0  0
  6 92  1  0  0  0
  7  8  2  0  0  0
  7 26  1  0  0  0
  7 29  1  0  0  0
  8  9  1  0  0  0
  8 22  1  0  0  0
  9 10  1  0  0  0
  9 27  2  0  0  0
 10 11  2  0  0  0
 10 15  1  0  0  0
 11 12  1  0  0  0
 11 93  1  0  0  0
 12 13  2  0  0  0
 12 94  1  0  0  0
 13 14  1  0  0  0
 13 31  1  0  0  0
 14 15  2  0  0  0
 14 95  1  0  0  0
 15 96  1  0  0  0
 16 17  2  0  0  0
 16 21  1  0  0  0
 16 31  1  0  0  0
 17 18  1  0  0  0
 17 97  1  0  0  0
 18 19  2  0  0  0
 18 98  1  0  0  0
 19 20  1  0  0  0
 19 24  1  0  0  0
 20 21  2  0  0  0
 20 99  1  0  0  0
 21 23  1  0  0  0
 22 28  1  0  0  0
 22 32  2  0  0  0
 26 27  1  0  0  0
 28100  1  0  0  0
 28101  1  0  0  0
 29102  1  0  0  0
 29103  1  0  0  0
 33 34  1  0  0  0
 33 66  1  0  0  0
 33 70  2  0  0  0
 34 36  1  0  0  0
 34 59  1  0  0  0
 34104  1  0  0  0
 35 44  2  0  0  0
 35 45  1  0  0  0
 35 68  1  0  0  0
 36 56  1  0  0  0
 36105  1  0  0  0
 37 39  1  0  0  0
 37 47  1  0  0  0
 37 66  1  0  0  0
 37106  1  0  0  0
 38 43  2  0  0  0
 38 46  1  0  0  0
 38 47  1  0  0  0
 39 64  1  0  0  0
 39 67  2  0  0  0
 40 52  1  0  0  0
 40 53  2  0  0  0
 40 58  1  0  0  0
 41107  1  0  0  0
 41108  1  0  0  0
 41109  1  0  0  0
 41 48  1  0  0  0
 42 43  1  0  0  0
 42 66  1  0  0  0
 42110  1  0  0  0
 42111  1  0  0  0
 43 44  1  0  0  0
 44112  1  0  0  0
 45 46  2  0  0  0
 45113  1  0  0  0
 46114  1  0  0  0
 47115  1  0  0  0
 47116  1  0  0  0
 48 56  1  0  0  0
 48 65  1  0  0  0
 48117  1  0  0  0
 49 50  1  0  0  0
 49 53  1  0  0  0
 49 64  1  0  0  0
 49118  1  0  0  0
 50 51  1  0  0  0
 50119  1  0  0  0
 50120  1  0  0  0
 51 52  1  0  0  0
 51121  1  0  0  0
 51122  1  0  0  0
 52123  1  0  0  0
 52124  1  0  0  0
 53 54  1  0  0  0
 54 55  2  0  0  0
 54125  1  0  0  0
 55 57  1  0  0  0
 55126  1  0  0  0
 56 69  2  0  0  0
 57 58  2  0  0  0
 57127  1  0  0  0
 58128  1  0  0  0
 59 60  1  0  0  0
 59 61  1  0  0  0
 59 62  1  0  0  0
 60129  1  0  0  0
 60130  1  0  0  0
 60131  1  0  0  0
 61132  1  0  0  0
 61133  1  0  0  0
 61134  1  0  0  0
 62135  1  0  0  0
 62136  1  0  0  0
 62137  1  0  0  0
 63 65  1  0  0  0
 63138  1  0  0  0
 63139  1  0  0  0
 63140  1  0  0  0
 64141  1  0  0  0
 65142  1  0  0  0
 68 80  1  0  0  0
 71 73  1  0  0  0
 71143  1  0  0  0
 71144  1  0  0  0
 71 75  1  0  0  0
 72 74  1  0  0  0
 72 75  1  0  0  0
 72145  1  0  0  0
 72146  1  0  0  0
 73 82  1  0  0  0
 73147  1  0  0  0
 73148  1  0  0  0
 74 82  1  0  0  0
 74149  1  0  0  0
 74150  1  0  0  0
 75 83  1  0  0  0
 75151  1  0  0  0
 76152  1  0  0  0
 76153  1  0  0  0
 76154  1  0  0  0
 76 81  1  0  0  0
 77 81  1  0  0  0
 77155  1  0  0  0
 77156  1  0  0  0
 77157  1  0  0  0
 78 79  1  0  0  0
 78 80  1  0  0  0
 78158  1  0  0  0
 78159  1  0  0  0
 79160  1  0  0  0
 79161  1  0  0  0
 79 83  1  0  0  0
 80162  1  0  0  0
 80163  1  0  0  0
 81 83  1  0  0  0
 81164  1  0  0  0
 83165  1  0  0  0
M  CHG  1  83   1
M  ISO  4   1 100  68 101  80 101  82 100
M  END
> <chiral flag>
0

> <version>
0

> <s_m_source_file>
/data/baiqing/PycharmProjects/Reinvent-master-3.2/result/LINK_invent/BTK/process_docking_weight1_custom_sum_contain_oxygen_bond_distance_aromatic_linkinvent_7_9_3/rearranged_h_0113.sdf

> <i_m_source_file_index>
90

> <r_mmod_Potential_Energy-OPLS-2005>
479.209381103516

> <r_mmod_Stretch_Energy-OPLS-2005>
178.518615722656

> <r_mmod_Bend_Energy-OPLS-2005>
239.755783081055

> <r_mmod_Torsional_Energy-OPLS-2005>
349.058319091797

> <r_mmod_Improper_Torsional_Energy-OPLS-2005>
17.007230758667

> <r_mmod_Van_der_Waal_Energy-OPLS-2005>
121.904479980469

> <r_mmod_Electrostatic_Energy-OPLS-2005>
-123.737808227539

> <r_mmod_Solvation_Energy-OPLS-2005>
-426.640686035156

> <b_mmod_Minimization_Converged-OPLS-2005>
0

> <r_mmod_RMS_Derivative-OPLS-2005>
2.54967188835144

$$$$
92
                    3D
 Structure written by MMmdl.
170178  0  0  1  0            999 V2000
  -30.7083  -14.5777   20.5320 C   0  0  0  0  0  0
  -30.4026  -12.3520   19.5009 C   0  0  0  0  0  0
  -29.5048  -12.4580   18.2522 C   0  0  0  0  0  0
  -28.0199  -12.3145   18.6352 C   0  0  0  0  0  0
  -27.6248  -13.2057   19.8386 C   0  0  2  0  0  0
  -28.6540  -13.1342   20.9781 C   0  0  0  0  0  0
  -25.2444  -13.8166   20.5649 C   0  0  0  0  0  0
  -24.1735  -13.0422   20.9218 C   0  0  0  0  0  0
  -24.6302  -11.6916   20.8774 C   0  0  0  0  0  0
  -23.9004  -10.4291   21.0463 C   0  0  0  0  0  0
  -24.3586   -9.4190   21.9202 C   0  0  0  0  0  0
  -23.6251   -8.2231   22.0738 C   0  0  0  0  0  0
  -22.4234   -8.0286   21.3533 C   0  0  0  0  0  0
  -21.9892   -9.0254   20.4635 C   0  0  0  0  0  0
  -22.7220  -10.2127   20.3070 C   0  0  0  0  0  0
  -21.6844   -6.0755   22.5294 C   0  0  0  0  0  0
  -21.4020   -6.5641   23.8240 C   0  0  0  0  0  0
  -21.3663   -5.6775   24.9183 C   0  0  0  0  0  0
  -21.6029   -4.3036   24.7213 C   0  0  0  0  0  0
  -21.8835   -3.8157   23.4326 C   0  0  0  0  0  0
  -21.9189   -4.6988   22.3394 C   0  0  0  0  0  0
  -22.7775  -13.5224   21.1915 C   0  0  0  0  0  0
  -22.1657   -4.2198   21.0958 F   0  0  0  0  0  0
  -21.5606   -3.4498   25.7706 F   0  0  0  0  0  0
  -29.9860  -13.4174   20.4397 N   0  0  0  0  0  0
  -26.2794  -12.9275   20.3182 N   0  0  0  0  0  0
  -25.9193  -11.6458   20.5737 N   0  0  0  0  0  0
  -22.0372  -12.8230   22.0478 N   0  0  0  0  0  0
  -25.4177  -15.1871   20.4036 N   0  0  0  0  0  0
  -31.9073  -14.5294   20.2555 O   0  0  0  0  0  0
  -21.6583   -6.8895   21.4268 O   0  0  0  0  0  0
  -22.3467  -14.5480   20.6693 O   0  0  0  0  0  0
  -24.6178  -31.8687   23.2078 C   0  0  0  0  0  0
  -25.9071  -32.4828   23.8375 C   0  0  1  0  0  0
  -27.2209  -27.4087   20.1000 C   0  0  0  0  0  0
  -25.5938  -33.8622   24.2340 N   0  0  0  0  0  0
  -23.4063  -30.4907   21.5530 C   0  0  2  0  0  0
  -24.8496  -28.9512   20.1125 C   0  0  0  0  0  0
  -22.7406  -29.4693   22.5028 C   0  0  0  0  0  0
  -18.0237  -28.1353   22.8535 C   0  0  0  0  0  0
  -24.1484  -36.7308   23.2648 C   0  0  0  0  0  0
  -25.9342  -30.8243   21.3618 C   0  0  0  0  0  0
  -26.0105  -29.4531   20.7146 C   0  0  0  0  0  0
  -27.2048  -28.6897   20.7018 C   0  0  0  0  0  0
  -26.0478  -26.9271   19.4834 C   0  0  0  0  0  0
  -24.8642  -27.6902   19.4872 C   0  0  0  0  0  0
  -23.6158  -29.8231   20.1674 C   0  0  0  0  0  0
  -25.4104  -36.3091   24.0354 C   0  0  1  0  0  0
  -20.5828  -28.3676   23.1348 C   0  0  2  0  0  0
  -20.6752  -26.9420   22.5440 C   0  0  0  0  0  0
  -19.5737  -26.6412   21.5229 C   0  0  0  0  0  0
  -18.1901  -26.7929   22.1624 C   0  0  0  0  0  0
  -19.1477  -28.8812   23.2941 C   0  0  0  0  0  0
  -18.9399  -30.1419   23.8953 C   0  0  0  0  0  0
  -17.6409  -30.6590   24.0579 C   0  0  0  0  0  0
  -25.9050  -34.9466   23.5131 C   0  0  0  0  0  0
  -16.5302  -29.9105   23.6302 C   0  0  0  0  0  0
  -16.7225  -28.6474   23.0413 C   0  0  0  0  0  0
  -26.4484  -31.6578   25.0699 C   0  0  0  0  0  0
  -25.3744  -31.3691   26.1449 C   0  0  0  0  0  0
  -27.0316  -30.3022   24.6051 C   0  0  0  0  0  0
  -27.6072  -32.4301   25.7460 C   0  0  0  0  0  0
  -27.5564  -37.1804   24.8475 C   0  0  0  0  0  0
  -21.4122  -29.3080   22.3764 N   0  0  0  0  0  0
  -26.4285  -37.3773   23.9423 N   0  0  0  0  0  0
  -24.6713  -31.0773   22.0992 N   0  0  0  0  0  0
  -23.4135  -28.8250   23.3111 O   0  0  0  0  0  0
  -28.3378  -26.5979   20.1292 O   0  0  0  0  0  0
  -26.5593  -34.8913   22.4676 O   0  0  0  0  0  0
  -23.5355  -32.1467   23.7416 O   0  0  0  0  0  0
  -27.9494  -20.3922   21.6922 C   0  0  0  0  0  0
  -28.6899  -18.1026   23.6567 C   0  0  0  0  0  0
  -29.1671  -18.0823   22.1991 C   0  0  1  0  0  0
  -29.3568  -16.5199   21.9791 C   0  0  2  0  0  0
  -29.9926  -16.1151   23.3513 C   0  0  2  0  0  0
  -29.6953  -14.6982   23.8699 C   0  0  0  0  0  0
  -31.2759  -17.0533   20.3940 C   0  0  0  0  0  0
  -29.1472  -16.2839   19.4276 C   0  0  0  0  0  0
  -28.3193  -18.9602   21.1986 C   0  0  0  0  0  0
  -28.3495  -24.0301   20.4183 C   0  0  0  0  0  0
  -28.0662  -22.8903   21.4584 C   0  0  0  0  0  0
  -28.2141  -25.4656   21.0274 C   0  0  0  0  0  0
  -30.0952  -16.0556   20.6401 C   0  0  0  0  0  0
  -28.3557  -21.4994   21.0197 N   0  0  0  0  0  0
  -29.5106  -17.0984   24.3452 N   0  3  0  0  0  0
  -27.2458  -20.5016   22.6955 O   0  0  0  0  0  0
  -31.4506  -12.4164   19.2032 H   0  0  0  0  0  0
  -30.2988  -11.3746   19.9720 H   0  0  0  0  0  0
  -29.7750  -11.6827   17.5345 H   0  0  0  0  0  0
  -29.6741  -13.4115   17.7538 H   0  0  0  0  0  0
  -27.8502  -11.2656   18.8810 H   0  0  0  0  0  0
  -27.3794  -12.5309   17.7761 H   0  0  0  0  0  0
  -27.6075  -14.2192   19.4604 H   0  0  0  0  0  0
  -28.6441  -12.1509   21.4511 H   0  0  0  0  0  0
  -28.3734  -13.8400   21.7497 H   0  0  0  0  0  0
  -25.2746   -9.5616   22.4769 H   0  0  0  0  0  0
  -23.9972   -7.4594   22.7402 H   0  0  0  0  0  0
  -21.0853   -8.8780   19.8890 H   0  0  0  0  0  0
  -22.3725  -10.9668   19.6164 H   0  0  0  0  0  0
  -21.2025   -7.6154   23.9780 H   0  0  0  0  0  0
  -21.1460   -6.0468   25.9098 H   0  0  0  0  0  0
  -22.0608   -2.7630   23.2768 H   0  0  0  0  0  0
  -22.3911  -11.9892   22.4914 H   0  0  0  0  0  0
  -21.0997  -13.1327   22.2652 H   0  0  0  0  0  0
  -24.6533  -15.8483   20.4911 H   0  0  0  0  0  0
  -26.2595  -15.6039   20.0282 H   0  0  0  0  0  0
  -26.7175  -32.5555   23.1166 H   0  0  0  0  0  0
  -25.0128  -33.9767   25.0515 H   0  0  0  0  0  0
  -22.6928  -31.3043   21.4082 H   0  0  0  0  0  0
  -23.3728  -35.9647   23.3328 H   0  0  0  0  0  0
  -24.3584  -36.8900   22.2049 H   0  0  0  0  0  0
  -23.7219  -37.6532   23.6635 H   0  0  0  0  0  0
  -26.0306  -31.5833   20.5837 H   0  0  0  0  0  0
  -26.8305  -30.8904   21.9667 H   0  0  0  0  0  0
  -28.0972  -29.0716   21.1765 H   0  0  0  0  0  0
  -26.0440  -25.9580   19.0048 H   0  0  0  0  0  0
  -23.9760  -27.3000   19.0069 H   0  0  0  0  0  0
  -23.7252  -30.5985   19.4100 H   0  0  0  0  0  0
  -22.7363  -29.2503   19.8706 H   0  0  0  0  0  0
  -25.1236  -36.1963   25.0843 H   0  0  0  0  0  0
  -20.9855  -28.3275   24.1494 H   0  0  0  0  0  0
  -20.5640  -26.2275   23.3622 H   0  0  0  0  0  0
  -21.6634  -26.7532   22.1219 H   0  0  0  0  0  0
  -19.6912  -25.6337   21.1234 H   0  0  0  0  0  0
  -19.6641  -27.3247   20.6772 H   0  0  0  0  0  0
  -17.4169  -26.6764   21.4015 H   0  0  0  0  0  0
  -18.0290  -26.0020   22.8985 H   0  0  0  0  0  0
  -19.7874  -30.7198   24.2366 H   0  0  0  0  0  0
  -17.4952  -31.6279   24.5161 H   0  0  0  0  0  0
  -15.5280  -30.2996   23.7564 H   0  0  0  0  0  0
  -15.8633  -28.0813   22.7084 H   0  0  0  0  0  0
  -24.5928  -30.7021   25.7789 H   0  0  0  0  0  0
  -24.8936  -32.2867   26.4864 H   0  0  0  0  0  0
  -25.8090  -30.8885   27.0230 H   0  0  0  0  0  0
  -26.2864  -29.6791   24.1115 H   0  0  0  0  0  0
  -27.4131  -29.7200   25.4453 H   0  0  0  0  0  0
  -27.8649  -30.4369   23.9150 H   0  0  0  0  0  0
  -27.2705  -33.3618   26.2034 H   0  0  0  0  0  0
  -28.3869  -32.6866   25.0269 H   0  0  0  0  0  0
  -28.0788  -31.8459   26.5390 H   0  0  0  0  0  0
  -28.2583  -38.0095   24.7477 H   0  0  0  0  0  0
  -28.1041  -36.2612   24.6324 H   0  0  0  0  0  0
  -27.2296  -37.1483   25.8886 H   0  0  0  0  0  0
  -20.9260  -29.8824   21.7005 H   0  0  0  0  0  0
  -26.0165  -38.2852   24.1413 H   0  0  0  0  0  0
  -27.6376  -17.8217   23.7183 H   0  0  0  0  0  0
  -28.8054  -19.0738   24.1420 H   0  0  0  0  0  0
  -30.1504  -18.5511   22.2347 H   0  0  0  0  0  0
  -28.3531  -16.0861   21.9691 H   0  0  0  0  0  0
  -31.0732  -16.2483   23.2993 H   0  0  0  0  0  0
  -28.6243  -14.5018   23.9232 H   0  0  0  0  0  0
  -30.0946  -14.5610   24.8757 H   0  0  0  0  0  0
  -30.1536  -13.9277   23.2562 H   0  0  0  0  0  0
  -30.9492  -18.0811   20.2527 H   0  0  0  0  0  0
  -31.8187  -16.8331   19.4727 H   0  0  0  0  0  0
  -31.9986  -17.0485   21.2097 H   0  0  0  0  0  0
  -28.1025  -16.3675   19.7249 H   0  0  0  0  0  0
  -29.2194  -15.5002   18.6760 H   0  0  0  0  0  0
  -29.3744  -17.2008   18.8845 H   0  0  0  0  0  0
  -28.8463  -19.0556   20.2516 H   0  0  0  0  0  0
  -27.3810  -18.4512   20.9720 H   0  0  0  0  0  0
  -27.6613  -23.9227   19.5776 H   0  0  0  0  0  0
  -29.3523  -23.9095   20.0088 H   0  0  0  0  0  0
  -28.6416  -23.0742   22.3678 H   0  0  0  0  0  0
  -27.0207  -22.9532   21.7618 H   0  0  0  0  0  0
  -27.2795  -25.5253   21.5875 H   0  0  0  0  0  0
  -28.9935  -25.5889   21.7794 H   0  0  0  0  0  0
  -28.9377  -21.3810   20.2000 H   0  0  0  0  0  0
  -28.9805  -16.6677   25.0863 H   0  0  0  0  0  0
  -30.3050  -17.5599   24.7634 H   0  0  0  0  0  0
  1 25  1  0  0  0
  1 30  2  0  0  0
  1 83  1  0  0  0
  2  3  1  0  0  0
  2 25  1  0  0  0
  2 87  1  0  0  0
  2 88  1  0  0  0
  3  4  1  0  0  0
  3 89  1  0  0  0
  3 90  1  0  0  0
  4  5  1  0  0  0
  4 91  1  0  0  0
  4 92  1  0  0  0
  5  6  1  0  0  0
  5 26  1  0  0  0
  5 93  1  0  0  0
  6 25  1  0  0  0
  6 94  1  0  0  0
  6 95  1  0  0  0
  7  8  2  0  0  0
  7 26  1  0  0  0
  7 29  1  0  0  0
  8  9  1  0  0  0
  8 22  1  0  0  0
  9 10  1  0  0  0
  9 27  2  0  0  0
 10 11  2  0  0  0
 10 15  1  0  0  0
 11 12  1  0  0  0
 11 96  1  0  0  0
 12 13  2  0  0  0
 12 97  1  0  0  0
 13 14  1  0  0  0
 13 31  1  0  0  0
 14 15  2  0  0  0
 14 98  1  0  0  0
 15 99  1  0  0  0
 16 17  2  0  0  0
 16 21  1  0  0  0
 16 31  1  0  0  0
 17 18  1  0  0  0
 17100  1  0  0  0
 18 19  2  0  0  0
 18101  1  0  0  0
 19 20  1  0  0  0
 19 24  1  0  0  0
 20 21  2  0  0  0
 20102  1  0  0  0
 21 23  1  0  0  0
 22 28  1  0  0  0
 22 32  2  0  0  0
 26 27  1  0  0  0
 28103  1  0  0  0
 28104  1  0  0  0
 29105  1  0  0  0
 29106  1  0  0  0
 33 34  1  0  0  0
 33 66  1  0  0  0
 33 70  2  0  0  0
 34 36  1  0  0  0
 34 59  1  0  0  0
 34107  1  0  0  0
 35 44  2  0  0  0
 35 45  1  0  0  0
 35 68  1  0  0  0
 36 56  1  0  0  0
 36108  1  0  0  0
 37 39  1  0  0  0
 37 47  1  0  0  0
 37 66  1  0  0  0
 37109  1  0  0  0
 38 43  2  0  0  0
 38 46  1  0  0  0
 38 47  1  0  0  0
 39 64  1  0  0  0
 39 67  2  0  0  0
 40 52  1  0  0  0
 40 53  2  0  0  0
 40 58  1  0  0  0
 41110  1  0  0  0
 41111  1  0  0  0
 41112  1  0  0  0
 41 48  1  0  0  0
 42 43  1  0  0  0
 42 66  1  0  0  0
 42113  1  0  0  0
 42114  1  0  0  0
 43 44  1  0  0  0
 44115  1  0  0  0
 45 46  2  0  0  0
 45116  1  0  0  0
 46117  1  0  0  0
 47118  1  0  0  0
 47119  1  0  0  0
 48 56  1  0  0  0
 48 65  1  0  0  0
 48120  1  0  0  0
 49 50  1  0  0  0
 49 53  1  0  0  0
 49 64  1  0  0  0
 49121  1  0  0  0
 50 51  1  0  0  0
 50122  1  0  0  0
 50123  1  0  0  0
 51 52  1  0  0  0
 51124  1  0  0  0
 51125  1  0  0  0
 52126  1  0  0  0
 52127  1  0  0  0
 53 54  1  0  0  0
 54 55  2  0  0  0
 54128  1  0  0  0
 55 57  1  0  0  0
 55129  1  0  0  0
 56 69  2  0  0  0
 57 58  2  0  0  0
 57130  1  0  0  0
 58131  1  0  0  0
 59 60  1  0  0  0
 59 61  1  0  0  0
 59 62  1  0  0  0
 60132  1  0  0  0
 60133  1  0  0  0
 60134  1  0  0  0
 61135  1  0  0  0
 61136  1  0  0  0
 61137  1  0  0  0
 62138  1  0  0  0
 62139  1  0  0  0
 62140  1  0  0  0
 63 65  1  0  0  0
 63141  1  0  0  0
 63142  1  0  0  0
 63143  1  0  0  0
 64144  1  0  0  0
 65145  1  0  0  0
 68 82  1  0  0  0
 71 79  1  0  0  0
 71 84  1  0  0  0
 71 86  2  0  0  0
 72 73  1  0  0  0
 72 85  1  0  0  0
 72146  1  0  0  0
 72147  1  0  0  0
 73 74  1  0  0  0
 73 79  1  0  0  0
 73148  1  0  0  0
 74 75  1  0  0  0
 74 83  1  0  0  0
 74149  1  0  0  0
 75 76  1  0  0  0
 75 85  1  0  0  0
 75150  1  0  0  0
 76151  1  0  0  0
 76152  1  0  0  0
 76153  1  0  0  0
 77154  1  0  0  0
 77155  1  0  0  0
 77156  1  0  0  0
 77 83  1  0  0  0
 78 83  1  0  0  0
 78157  1  0  0  0
 78158  1  0  0  0
 78159  1  0  0  0
 79160  1  0  0  0
 79161  1  0  0  0
 80 81  1  0  0  0
 80 82  1  0  0  0
 80162  1  0  0  0
 80163  1  0  0  0
 81 84  1  0  0  0
 81164  1  0  0  0
 81165  1  0  0  0
 82166  1  0  0  0
 82167  1  0  0  0
 84168  1  0  0  0
 85169  1  0  0  0
 85170  1  0  0  0
M  CHG  1  85   1
M  ISO  4   1 100  68 101  82 101  83 100
M  END
> <chiral flag>
0

> <version>
0

> <s_m_source_file>
/data/baiqing/PycharmProjects/Reinvent-master-3.2/result/LINK_invent/BTK/process_docking_weight1_custom_sum_contain_oxygen_bond_distance_aromatic_linkinvent_7_9_3/rearranged_h_0113.sdf

> <i_m_source_file_index>
91

> <r_mmod_Potential_Energy-OPLS-2005>
-40.7734451293945

> <r_mmod_Stretch_Energy-OPLS-2005>
65.7741088867188

> <r_mmod_Bend_Energy-OPLS-2005>
178.258209228516

> <r_mmod_Torsional_Energy-OPLS-2005>
288.290802001953

> <r_mmod_Improper_Torsional_Energy-OPLS-2005>
7.48582983016968

> <r_mmod_Van_der_Waal_Energy-OPLS-2005>
139.982055664062

> <r_mmod_Electrostatic_Energy-OPLS-2005>
-303.624755859375

> <r_mmod_Solvation_Energy-OPLS-2005>
-456.589172363281

> <b_mmod_Minimization_Converged-OPLS-2005>
0

> <r_mmod_RMS_Derivative-OPLS-2005>
5.78346586227417

$$$$
93
                    3D
 Structure written by MMmdl.
162170  0  0  1  0            999 V2000
  -30.5453  -14.9390   20.4712 C   0  0  0  0  0  0
  -30.4312  -12.5886   19.5064 C   0  0  0  0  0  0
  -29.5254  -12.5467   18.2545 C   0  0  0  0  0  0
  -28.0576  -12.3155   18.6609 C   0  0  0  0  0  0
  -27.6286  -13.2394   19.8308 C   0  0  2  0  0  0
  -28.6593  -13.2510   20.9757 C   0  0  0  0  0  0
  -25.2487  -13.8171   20.5663 C   0  0  0  0  0  0
  -24.1788  -13.0408   20.9161 C   0  0  0  0  0  0
  -24.6375  -11.6889   20.8684 C   0  0  0  0  0  0
  -23.9050  -10.4266   21.0378 C   0  0  0  0  0  0
  -24.3611   -9.4196   21.9173 C   0  0  0  0  0  0
  -23.6286   -8.2233   22.0760 C   0  0  0  0  0  0
  -22.4277   -8.0241   21.3541 C   0  0  0  0  0  0
  -21.9891   -9.0204   20.4644 C   0  0  0  0  0  0
  -22.7210  -10.2095   20.3034 C   0  0  0  0  0  0
  -21.6866   -6.0697   22.5262 C   0  0  0  0  0  0
  -21.4021   -6.5612   23.8188 C   0  0  0  0  0  0
  -21.3678   -5.6775   24.9162 C   0  0  0  0  0  0
  -21.6057   -4.3032   24.7225 C   0  0  0  0  0  0
  -21.8827   -3.8111   23.4351 C   0  0  0  0  0  0
  -21.9206   -4.6923   22.3401 C   0  0  0  0  0  0
  -22.7830  -13.5210   21.1830 C   0  0  0  0  0  0
  -22.1663   -4.2101   21.0981 F   0  0  0  0  0  0
  -21.5649   -3.4518   25.7745 F   0  0  0  0  0  0
  -29.9438  -13.6781   20.4073 N   0  0  0  0  0  0
  -26.2874  -12.9384   20.3140 N   0  0  0  0  0  0
  -25.9310  -11.6527   20.5654 N   0  0  0  0  0  0
  -22.0469  -12.8222   22.0399 N   0  0  0  0  0  0
  -25.4196  -15.1900   20.4154 N   0  0  0  0  0  0
  -31.7018  -15.0156   20.0390 O   0  0  0  0  0  0
  -21.6651   -6.8832   21.4224 O   0  0  0  0  0  0
  -22.3518  -14.5506   20.6650 O   0  0  0  0  0  0
  -24.6442  -31.8415   23.1868 C   0  0  0  0  0  0
  -25.9223  -32.4668   23.8260 C   0  0  1  0  0  0
  -27.2094  -27.1166   20.1554 C   0  0  0  0  0  0
  -25.5986  -33.8481   24.2192 N   0  0  0  0  0  0
  -23.4470  -30.4605   21.5293 C   0  0  2  0  0  0
  -24.8937  -28.8851   20.1035 C   0  0  0  0  0  0
  -22.7567  -29.4523   22.4825 C   0  0  0  0  0  0
  -18.0313  -28.1412   22.8460 C   0  0  0  0  0  0
  -24.1493  -36.7234   23.2647 C   0  0  0  0  0  0
  -26.0029  -30.7075   21.3904 C   0  0  0  0  0  0
  -26.0682  -29.3178   20.7313 C   0  0  0  0  0  0
  -27.2190  -28.4462   20.7446 C   0  0  0  0  0  0
  -26.0114  -26.7879   19.4815 C   0  0  0  0  0  0
  -24.8818  -27.6368   19.4624 C   0  0  0  0  0  0
  -23.6743  -29.7931   20.1459 C   0  0  0  0  0  0
  -25.4120  -36.2997   24.0313 C   0  0  1  0  0  0
  -20.5927  -28.3726   23.1223 C   0  0  2  0  0  0
  -20.6787  -26.9422   22.5392 C   0  0  0  0  0  0
  -19.5769  -26.6384   21.5200 C   0  0  0  0  0  0
  -18.1947  -26.7951   22.1598 C   0  0  0  0  0  0
  -19.1562  -28.8880   23.2838 C   0  0  0  0  0  0
  -18.9482  -30.1487   23.8853 C   0  0  0  0  0  0
  -17.6475  -30.6597   24.0559 C   0  0  0  0  0  0
  -25.9075  -34.9383   23.5042 C   0  0  0  0  0  0
  -16.5375  -29.9084   23.6354 C   0  0  0  0  0  0
  -16.7288  -28.6515   23.0345 C   0  0  0  0  0  0
  -26.4556  -31.6554   25.0715 C   0  0  0  0  0  0
  -25.3762  -31.3731   26.1420 C   0  0  0  0  0  0
  -27.0462  -30.2965   24.6332 C   0  0  0  0  0  0
  -27.6079  -32.4341   25.7492 C   0  0  0  0  0  0
  -27.5566  -37.1765   24.8468 C   0  0  0  0  0  0
  -21.4243  -29.3056   22.3581 N   0  0  0  0  0  0
  -26.4270  -37.3722   23.9413 N   0  0  0  0  0  0
  -24.7169  -31.0259   22.0901 N   0  0  0  0  0  0
  -23.4220  -28.8076   23.2969 O   0  0  0  0  0  0
  -28.2800  -26.1538   20.2736 O   0  0  0  0  0  0
  -26.5629  -34.8871   22.4613 O   0  0  0  0  0  0
  -23.5558  -32.1281   23.7093 O   0  0  0  0  0  0
  -30.1071  -18.2944   19.4147 C   0  0  0  0  0  0
  -29.5840  -19.0392   20.6332 C   0  0  2  0  0  0
  -29.3109  -17.4024   20.3449 C   0  0  2  0  0  0
  -28.9682  -16.2619   23.3280 C   0  0  0  0  0  0
  -27.2742  -19.9870   19.8309 C   0  0  0  0  0  0
  -27.0591  -23.0504   21.4405 C   0  0  0  0  0  0
  -30.2032  -16.3817   22.4192 C   0  0  0  0  0  0
  -28.3042  -24.6611   19.7968 C   0  0  0  0  0  0
  -28.5656  -20.3760   20.5709 C   0  0  2  0  0  0
  -28.4062  -23.2412   20.7188 C   0  0  2  0  0  0
  -29.9010  -16.1072   21.0024 N   0  0  0  0  0  0
  -28.9935  -21.8576   20.1479 N   0  3  0  0  0  0
  -31.4703  -12.7361   19.2071 H   0  0  0  0  0  0
  -30.4101  -11.6290   20.0235 H   0  0  0  0  0  0
  -29.8557  -11.7592   17.5743 H   0  0  0  0  0  0
  -29.6134  -13.4876   17.7083 H   0  0  0  0  0  0
  -27.9615  -11.2698   18.9591 H   0  0  0  0  0  0
  -27.3976  -12.4435   17.8017 H   0  0  0  0  0  0
  -27.5952  -14.2450   19.4091 H   0  0  0  0  0  0
  -28.7440  -12.2667   21.4388 H   0  0  0  0  0  0
  -28.3272  -13.9307   21.7534 H   0  0  0  0  0  0
  -25.2765   -9.5694   22.4746 H   0  0  0  0  0  0
  -23.9974   -7.4656   22.7522 H   0  0  0  0  0  0
  -21.0804   -8.8708   19.8982 H   0  0  0  0  0  0
  -22.3636  -10.9614   19.6125 H   0  0  0  0  0  0
  -21.1981   -7.6117   23.9672 H   0  0  0  0  0  0
  -21.1520   -6.0512   25.9067 H   0  0  0  0  0  0
  -22.0599   -2.7567   23.2868 H   0  0  0  0  0  0
  -22.4066  -11.9887   22.4817 H   0  0  0  0  0  0
  -21.1091  -13.1267   22.2566 H   0  0  0  0  0  0
  -24.6561  -15.8444   20.5437 H   0  0  0  0  0  0
  -26.2793  -15.6348   20.1210 H   0  0  0  0  0  0
  -26.7277  -32.5238   23.0963 H   0  0  0  0  0  0
  -25.0191  -33.9626   25.0376 H   0  0  0  0  0  0
  -22.7517  -31.2870   21.3748 H   0  0  0  0  0  0
  -23.3756  -35.9567   23.3275 H   0  0  0  0  0  0
  -24.3575  -36.8896   22.2068 H   0  0  0  0  0  0
  -23.7243  -37.6419   23.6699 H   0  0  0  0  0  0
  -26.1679  -31.4634   20.6222 H   0  0  0  0  0  0
  -26.8725  -30.7501   22.0346 H   0  0  0  0  0  0
  -28.1069  -28.7682   21.2695 H   0  0  0  0  0  0
  -25.8985  -25.8390   18.9829 H   0  0  0  0  0  0
  -23.9888  -27.3061   18.9510 H   0  0  0  0  0  0
  -23.8136  -30.5713   19.3925 H   0  0  0  0  0  0
  -22.7885  -29.2386   19.8299 H   0  0  0  0  0  0
  -25.1313  -36.1791   25.0802 H   0  0  0  0  0  0
  -21.0018  -28.3292   24.1346 H   0  0  0  0  0  0
  -20.5672  -26.2332   23.3610 H   0  0  0  0  0  0
  -21.6650  -26.7414   22.1191 H   0  0  0  0  0  0
  -19.6923  -25.6287   21.1257 H   0  0  0  0  0  0
  -19.6718  -27.3157   20.6703 H   0  0  0  0  0  0
  -17.4215  -26.6696   21.4001 H   0  0  0  0  0  0
  -18.0330  -26.0113   22.9009 H   0  0  0  0  0  0
  -19.7961  -30.7321   24.2182 H   0  0  0  0  0  0
  -17.5033  -31.6268   24.5173 H   0  0  0  0  0  0
  -15.5370  -30.2967   23.7725 H   0  0  0  0  0  0
  -15.8689  -28.0834   22.7075 H   0  0  0  0  0  0
  -24.5953  -30.7059   25.7744 H   0  0  0  0  0  0
  -24.8948  -32.2914   26.4801 H   0  0  0  0  0  0
  -25.8080  -30.8932   27.0219 H   0  0  0  0  0  0
  -26.3106  -29.6642   24.1348 H   0  0  0  0  0  0
  -27.4098  -29.7293   25.4915 H   0  0  0  0  0  0
  -27.8991  -30.4225   23.9657 H   0  0  0  0  0  0
  -27.2670  -33.3662   26.2010 H   0  0  0  0  0  0
  -28.3918  -32.6874   25.0342 H   0  0  0  0  0  0
  -28.0727  -31.8515   26.5455 H   0  0  0  0  0  0
  -28.2560  -38.0092   24.7507 H   0  0  0  0  0  0
  -28.1080  -36.2599   24.6276 H   0  0  0  0  0  0
  -27.2283  -37.1398   25.8880 H   0  0  0  0  0  0
  -20.9438  -29.8771   21.6773 H   0  0  0  0  0  0
  -26.0111  -38.2776   24.1446 H   0  0  0  0  0  0
  -31.1796  -18.1245   19.3653 H   0  0  0  0  0  0
  -29.6506  -18.5356   18.4583 H   0  0  0  0  0  0
  -30.3577  -19.2292   21.3721 H   0  0  0  0  0  0
  -28.2997  -17.2066   19.9891 H   0  0  0  0  0  0
  -29.2151  -16.5628   24.3480 H   0  0  0  0  0  0
  -28.6003  -15.2407   23.3972 H   0  0  0  0  0  0
  -28.1453  -16.8921   22.9869 H   0  0  0  0  0  0
  -26.8363  -19.0834   20.2593 H   0  0  0  0  0  0
  -27.4619  -19.8003   18.7746 H   0  0  0  0  0  0
  -26.5129  -20.7610   19.8983 H   0  0  0  0  0  0
  -26.7688  -23.9699   21.9527 H   0  0  0  0  0  0
  -27.0936  -22.2698   22.1985 H   0  0  0  0  0  0
  -26.2621  -22.8109   20.7394 H   0  0  0  0  0  0
  -30.9775  -15.7101   22.7962 H   0  0  0  0  0  0
  -30.6314  -17.3774   22.5270 H   0  0  0  0  0  0
  -27.5027  -24.5066   19.0788 H   0  0  0  0  0  0
  -29.1939  -24.6387   19.1661 H   0  0  0  0  0  0
  -28.2847  -20.4897   21.6169 H   0  0  0  0  0  0
  -29.1209  -23.4876   21.5037 H   0  0  0  0  0  0
  -28.8981  -21.8906   19.1450 H   0  0  0  0  0  0
  -29.9881  -21.9097   20.3121 H   0  0  0  0  0  0
  1 25  1  0  0  0
  1 30  2  0  0  0
  1 81  1  0  0  0
  2  3  1  0  0  0
  2 25  1  0  0  0
  2 83  1  0  0  0
  2 84  1  0  0  0
  3  4  1  0  0  0
  3 85  1  0  0  0
  3 86  1  0  0  0
  4  5  1  0  0  0
  4 87  1  0  0  0
  4 88  1  0  0  0
  5  6  1  0  0  0
  5 26  1  0  0  0
  5 89  1  0  0  0
  6 25  1  0  0  0
  6 90  1  0  0  0
  6 91  1  0  0  0
  7  8  2  0  0  0
  7 26  1  0  0  0
  7 29  1  0  0  0
  8  9  1  0  0  0
  8 22  1  0  0  0
  9 10  1  0  0  0
  9 27  2  0  0  0
 10 11  2  0  0  0
 10 15  1  0  0  0
 11 12  1  0  0  0
 11 92  1  0  0  0
 12 13  2  0  0  0
 12 93  1  0  0  0
 13 14  1  0  0  0
 13 31  1  0  0  0
 14 15  2  0  0  0
 14 94  1  0  0  0
 15 95  1  0  0  0
 16 17  2  0  0  0
 16 21  1  0  0  0
 16 31  1  0  0  0
 17 18  1  0  0  0
 17 96  1  0  0  0
 18 19  2  0  0  0
 18 97  1  0  0  0
 19 20  1  0  0  0
 19 24  1  0  0  0
 20 21  2  0  0  0
 20 98  1  0  0  0
 21 23  1  0  0  0
 22 28  1  0  0  0
 22 32  2  0  0  0
 26 27  1  0  0  0
 28 99  1  0  0  0
 28100  1  0  0  0
 29101  1  0  0  0
 29102  1  0  0  0
 33 34  1  0  0  0
 33 66  1  0  0  0
 33 70  2  0  0  0
 34 36  1  0  0  0
 34 59  1  0  0  0
 34103  1  0  0  0
 35 44  2  0  0  0
 35 45  1  0  0  0
 35 68  1  0  0  0
 36 56  1  0  0  0
 36104  1  0  0  0
 37 39  1  0  0  0
 37 47  1  0  0  0
 37 66  1  0  0  0
 37105  1  0  0  0
 38 43  2  0  0  0
 38 46  1  0  0  0
 38 47  1  0  0  0
 39 64  1  0  0  0
 39 67  2  0  0  0
 40 52  1  0  0  0
 40 53  2  0  0  0
 40 58  1  0  0  0
 41106  1  0  0  0
 41107  1  0  0  0
 41108  1  0  0  0
 41 48  1  0  0  0
 42 43  1  0  0  0
 42 66  1  0  0  0
 42109  1  0  0  0
 42110  1  0  0  0
 43 44  1  0  0  0
 44111  1  0  0  0
 45 46  2  0  0  0
 45112  1  0  0  0
 46113  1  0  0  0
 47114  1  0  0  0
 47115  1  0  0  0
 48 56  1  0  0  0
 48 65  1  0  0  0
 48116  1  0  0  0
 49 50  1  0  0  0
 49 53  1  0  0  0
 49 64  1  0  0  0
 49117  1  0  0  0
 50 51  1  0  0  0
 50118  1  0  0  0
 50119  1  0  0  0
 51 52  1  0  0  0
 51120  1  0  0  0
 51121  1  0  0  0
 52122  1  0  0  0
 52123  1  0  0  0
 53 54  1  0  0  0
 54 55  2  0  0  0
 54124  1  0  0  0
 55 57  1  0  0  0
 55125  1  0  0  0
 56 69  2  0  0  0
 57 58  2  0  0  0
 57126  1  0  0  0
 58127  1  0  0  0
 59 60  1  0  0  0
 59 61  1  0  0  0
 59 62  1  0  0  0
 60128  1  0  0  0
 60129  1  0  0  0
 60130  1  0  0  0
 61131  1  0  0  0
 61132  1  0  0  0
 61133  1  0  0  0
 62134  1  0  0  0
 62135  1  0  0  0
 62136  1  0  0  0
 63 65  1  0  0  0
 63137  1  0  0  0
 63138  1  0  0  0
 63139  1  0  0  0
 64140  1  0  0  0
 65141  1  0  0  0
 68 78  1  0  0  0
 71 73  1  0  0  0
 71142  1  0  0  0
 71143  1  0  0  0
 71 72  1  0  0  0
 72 73  1  0  0  0
 72 79  1  0  0  0
 72144  1  0  0  0
 73 81  1  0  0  0
 73145  1  0  0  0
 74 77  1  0  0  0
 74146  1  0  0  0
 74147  1  0  0  0
 74148  1  0  0  0
 75149  1  0  0  0
 75150  1  0  0  0
 75151  1  0  0  0
 75 79  1  0  0  0
 76152  1  0  0  0
 76153  1  0  0  0
 76154  1  0  0  0
 76 80  1  0  0  0
 77 81  1  0  0  0
 77155  1  0  0  0
 77156  1  0  0  0
 78 80  1  0  0  0
 78157  1  0  0  0
 78158  1  0  0  0
 79 82  1  0  0  0
 79159  1  0  0  0
 80 82  1  0  0  0
 80160  1  0  0  0
 82161  1  0  0  0
 82162  1  0  0  0
M  CHG  1  82   1
M  ISO  4   1 100  68 101  78 101  81 100
M  END
> <chiral flag>
0

> <version>
0

> <s_m_source_file>
/data/baiqing/PycharmProjects/Reinvent-master-3.2/result/LINK_invent/BTK/process_docking_weight1_custom_sum_contain_oxygen_bond_distance_aromatic_linkinvent_7_9_3/rearranged_h_0113.sdf

> <i_m_source_file_index>
92

> <r_mmod_Potential_Energy-OPLS-2005>
761.708068847656

> <r_mmod_Stretch_Energy-OPLS-2005>
302.576354980469

> <r_mmod_Bend_Energy-OPLS-2005>
305.407257080078

> <r_mmod_Torsional_Energy-OPLS-2005>
424.953765869141

> <r_mmod_Improper_Torsional_Energy-OPLS-2005>
2.77843236923218

> <r_mmod_Van_der_Waal_Energy-OPLS-2005>
108.481796264648

> <r_mmod_Electrostatic_Energy-OPLS-2005>
-139.307968139648

> <r_mmod_Solvation_Energy-OPLS-2005>
-436.224487304688

> <b_mmod_Minimization_Converged-OPLS-2005>
0

> <r_mmod_RMS_Derivative-OPLS-2005>
3.31201267242432

$$$$
94
                    3D
 Structure written by MMmdl.
179187  0  0  1  0            999 V2000
  -30.8066  -14.3512   20.7057 C   0  0  0  0  0  0
  -30.3946  -12.2851   19.4152 C   0  0  0  0  0  0
  -29.4880  -12.5383   18.1957 C   0  0  0  0  0  0
  -28.0075  -12.3924   18.5894 C   0  0  0  0  0  0
  -27.6549  -13.2112   19.8573 C   0  0  2  0  0  0
  -28.6778  -12.9754   20.9846 C   0  0  0  0  0  0
  -25.2544  -13.8181   20.5605 C   0  0  0  0  0  0
  -24.1810  -13.0458   20.9158 C   0  0  0  0  0  0
  -24.6369  -11.6931   20.8720 C   0  0  0  0  0  0
  -23.9027  -10.4308   21.0426 C   0  0  0  0  0  0
  -24.3595   -9.4225   21.9197 C   0  0  0  0  0  0
  -23.6294   -8.2242   22.0746 C   0  0  0  0  0  0
  -22.4280   -8.0262   21.3527 C   0  0  0  0  0  0
  -21.9900   -9.0243   20.4651 C   0  0  0  0  0  0
  -22.7214  -10.2127   20.3060 C   0  0  0  0  0  0
  -21.6845   -6.0728   22.5283 C   0  0  0  0  0  0
  -21.4010   -6.5617   23.8224 C   0  0  0  0  0  0
  -21.3674   -5.6771   24.9185 C   0  0  0  0  0  0
  -21.6055   -4.3035   24.7234 C   0  0  0  0  0  0
  -21.8830   -3.8126   23.4351 C   0  0  0  0  0  0
  -21.9190   -4.6954   22.3402 C   0  0  0  0  0  0
  -22.7842  -13.5272   21.1856 C   0  0  0  0  0  0
  -22.1665   -4.2143   21.0990 F   0  0  0  0  0  0
  -21.5647   -3.4518   25.7740 F   0  0  0  0  0  0
  -30.0362  -13.2458   20.4774 N   0  0  0  0  0  0
  -26.2953  -12.9354   20.3180 N   0  0  0  0  0  0
  -25.9276  -11.6508   20.5642 N   0  0  0  0  0  0
  -22.0445  -12.8270   22.0399 N   0  0  0  0  0  0
  -25.4293  -15.1900   20.4068 N   0  0  0  0  0  0
  -31.7880  -14.5993   19.9955 O   0  0  0  0  0  0
  -21.6640   -6.8860   21.4238 O   0  0  0  0  0  0
  -22.3558  -14.5598   20.6731 O   0  0  0  0  0  0
  -24.6151  -31.8717   23.2171 C   0  0  0  0  0  0
  -25.9061  -32.4851   23.8448 C   0  0  1  0  0  0
  -27.2142  -27.4454   20.0743 C   0  0  0  0  0  0
  -25.5938  -33.8650   24.2378 N   0  0  0  0  0  0
  -23.3989  -30.5022   21.5595 C   0  0  2  0  0  0
  -24.8332  -28.9760   20.1154 C   0  0  0  0  0  0
  -22.7409  -29.4690   22.5021 C   0  0  0  0  0  0
  -18.0271  -28.1396   22.8474 C   0  0  0  0  0  0
  -24.1490  -36.7325   23.2631 C   0  0  0  0  0  0
  -25.9275  -30.8382   21.3675 C   0  0  0  0  0  0
  -25.9969  -29.4755   20.7111 C   0  0  0  0  0  0
  -27.1870  -28.7167   20.6897 C   0  0  0  0  0  0
  -26.0290  -26.9649   19.4631 C   0  0  0  0  0  0
  -24.8434  -27.7181   19.4930 C   0  0  0  0  0  0
  -23.6029  -29.8494   20.1688 C   0  0  0  0  0  0
  -25.4106  -36.3129   24.0341 C   0  0  1  0  0  0
  -20.5853  -28.3675   23.1320 C   0  0  2  0  0  0
  -20.6768  -26.9420   22.5407 C   0  0  0  0  0  0
  -19.5753  -26.6396   21.5198 C   0  0  0  0  0  0
  -18.1927  -26.7943   22.1602 C   0  0  0  0  0  0
  -19.1515  -28.8854   23.2891 C   0  0  0  0  0  0
  -18.9444  -30.1459   23.8912 C   0  0  0  0  0  0
  -17.6449  -30.6596   24.0576 C   0  0  0  0  0  0
  -25.9041  -34.9497   23.5150 C   0  0  0  0  0  0
  -16.5343  -29.9107   23.6323 C   0  0  0  0  0  0
  -16.7258  -28.6523   23.0331 C   0  0  0  0  0  0
  -26.4479  -31.6620   25.0773 C   0  0  0  0  0  0
  -25.3757  -31.3716   26.1531 C   0  0  0  0  0  0
  -27.0286  -30.3069   24.6119 C   0  0  0  0  0  0
  -27.6086  -32.4312   25.7533 C   0  0  0  0  0  0
  -27.5584  -37.1828   24.8468 C   0  0  0  0  0  0
  -21.4138  -29.3056   22.3748 N   0  0  0  0  0  0
  -26.4293  -37.3810   23.9411 N   0  0  0  0  0  0
  -24.6663  -31.0825   22.1074 N   0  0  0  0  0  0
  -23.4188  -28.8202   23.3032 O   0  0  0  0  0  0
  -28.4052  -26.7490   20.0948 O   0  0  0  0  0  0
  -26.5562  -34.8931   22.4689 O   0  0  0  0  0  0
  -23.5352  -32.1468   23.7578 O   0  0  0  0  0  0
  -33.0633  -25.8402   18.9835 C   0  0  0  0  0  0
  -33.4081  -24.8009   19.8657 C   0  0  0  0  0  0
  -31.7305  -25.9416   18.5496 C   0  0  0  0  0  0
  -32.4096  -23.9011   20.2789 C   0  0  0  0  0  0
  -30.7916  -24.9986   19.0073 C   0  0  0  0  0  0
  -29.6423  -23.6478   16.4540 C   0  0  0  0  0  0
  -30.6971  -22.5734   23.7916 C   0  0  0  0  0  0
  -30.2102  -14.7435   23.0704 C   0  0  0  0  0  0
  -32.7129  -22.8020   21.2880 C   0  0  0  0  0  0
  -28.8793  -23.8305   17.7751 C   0  0  0  0  0  0
  -31.0367  -19.0130   22.1957 C   0  0  0  0  0  0
  -30.2531  -17.6902   22.3331 C   0  0  0  0  0  0
  -30.3896  -20.2251   22.8872 C   0  0  0  0  0  0
  -31.0591  -16.5614   21.6649 C   0  0  0  0  0  0
  -28.4214  -25.3460   19.8066 C   0  0  0  0  0  0
  -29.3250  -25.0664   18.5882 C   0  0  1  0  0  0
  -31.2917  -21.4823   22.8817 C   0  0  1  0  0  0
  -31.1281  -23.9931   19.8500 N   0  0  0  0  0  0
  -30.4526  -15.2147   21.6993 N   0  0  0  0  0  0
  -31.5060  -21.9846   21.5047 N   0  3  0  0  0  0
  -31.4446  -12.3495   19.1209 H   0  0  0  0  0  0
  -30.2589  -11.2652   19.7832 H   0  0  0  0  0  0
  -29.7324  -11.8443   17.3890 H   0  0  0  0  0  0
  -29.6730  -13.5418   17.8027 H   0  0  0  0  0  0
  -27.8057  -11.3346   18.7522 H   0  0  0  0  0  0
  -27.3669  -12.6975   17.7598 H   0  0  0  0  0  0
  -27.7064  -14.2645   19.5787 H   0  0  0  0  0  0
  -28.6259  -11.9439   21.3410 H   0  0  0  0  0  0
  -28.3799  -13.5892   21.8285 H   0  0  0  0  0  0
  -25.2737   -9.5713   22.4771 H   0  0  0  0  0  0
  -24.0020   -7.4630   22.7458 H   0  0  0  0  0  0
  -21.0828   -8.8773   19.8956 H   0  0  0  0  0  0
  -22.3690  -10.9667   19.6170 H   0  0  0  0  0  0
  -21.1991   -7.6125   23.9725 H   0  0  0  0  0  0
  -21.1495   -6.0496   25.9090 H   0  0  0  0  0  0
  -22.0592   -2.7591   23.2854 H   0  0  0  0  0  0
  -22.3998  -11.9934   22.4852 H   0  0  0  0  0  0
  -21.1065  -13.1326   22.2568 H   0  0  0  0  0  0
  -24.6696  -15.8502   20.5330 H   0  0  0  0  0  0
  -26.2939  -15.6267   20.1117 H   0  0  0  0  0  0
  -26.7138  -32.5546   23.1214 H   0  0  0  0  0  0
  -25.0191  -33.9832   25.0592 H   0  0  0  0  0  0
  -22.6880  -31.3207   21.4320 H   0  0  0  0  0  0
  -23.3751  -35.9664   23.3316 H   0  0  0  0  0  0
  -24.3587  -36.8905   22.2043 H   0  0  0  0  0  0
  -23.7241  -37.6544   23.6612 H   0  0  0  0  0  0
  -26.0362  -31.6046   20.5988 H   0  0  0  0  0  0
  -26.8197  -30.8893   21.9807 H   0  0  0  0  0  0
  -28.0875  -29.1015   21.1467 H   0  0  0  0  0  0
  -25.9745  -26.0276   18.9326 H   0  0  0  0  0  0
  -23.9497  -27.3326   19.0205 H   0  0  0  0  0  0
  -23.7290  -30.6358   19.4236 H   0  0  0  0  0  0
  -22.7205  -29.2880   19.8573 H   0  0  0  0  0  0
  -25.1276  -36.2019   25.0832 H   0  0  0  0  0  0
  -20.9922  -28.3231   24.1447 H   0  0  0  0  0  0
  -20.5669  -26.2287   23.3586 H   0  0  0  0  0  0
  -21.6646  -26.7483   22.1205 H   0  0  0  0  0  0
  -19.6924  -25.6300   21.1246 H   0  0  0  0  0  0
  -19.6713  -27.3189   20.6711 H   0  0  0  0  0  0
  -17.4199  -26.6673   21.4006 H   0  0  0  0  0  0
  -18.0347  -26.0094   22.9006 H   0  0  0  0  0  0
  -19.7921  -30.7260   24.2298 H   0  0  0  0  0  0
  -17.5010  -31.6273   24.5178 H   0  0  0  0  0  0
  -15.5345  -30.3016   23.7653 H   0  0  0  0  0  0
  -15.8649  -28.0862   22.7030 H   0  0  0  0  0  0
  -24.5960  -30.7012   25.7888 H   0  0  0  0  0  0
  -24.8901  -32.2854   26.4968 H   0  0  0  0  0  0
  -25.8131  -30.8927   27.0298 H   0  0  0  0  0  0
  -26.2809  -29.6880   24.1140 H   0  0  0  0  0  0
  -27.4025  -29.7265   25.4559 H   0  0  0  0  0  0
  -27.8665  -30.4403   23.9276 H   0  0  0  0  0  0
  -27.2749  -33.3618   26.2135 H   0  0  0  0  0  0
  -28.3895  -32.6848   25.0355 H   0  0  0  0  0  0
  -28.0747  -31.8408   26.5431 H   0  0  0  0  0  0
  -28.2618  -38.0114   24.7505 H   0  0  0  0  0  0
  -28.1067  -36.2645   24.6304 H   0  0  0  0  0  0
  -27.2305  -37.1497   25.8875 H   0  0  0  0  0  0
  -20.9297  -29.8830   21.7018 H   0  0  0  0  0  0
  -26.0198  -38.2897   24.1402 H   0  0  0  0  0  0
  -33.8056  -26.5557   18.6577 H   0  0  0  0  0  0
  -34.4218  -24.7054   20.2331 H   0  0  0  0  0  0
  -31.4373  -26.7404   17.8822 H   0  0  0  0  0  0
  -29.2822  -22.7720   15.9140 H   0  0  0  0  0  0
  -30.7115  -23.5155   16.6229 H   0  0  0  0  0  0
  -29.5118  -24.5136   15.8038 H   0  0  0  0  0  0
  -30.6255  -22.2165   24.8192 H   0  0  0  0  0  0
  -29.6933  -22.8601   23.4746 H   0  0  0  0  0  0
  -31.3088  -23.4762   23.8087 H   0  0  0  0  0  0
  -30.2822  -13.6590   23.1665 H   0  0  0  0  0  0
  -29.2131  -15.0416   23.3983 H   0  0  0  0  0  0
  -30.9289  -15.1667   23.7718 H   0  0  0  0  0  0
  -33.0410  -23.2757   22.2137 H   0  0  0  0  0  0
  -33.5322  -22.1763   20.9358 H   0  0  0  0  0  0
  -28.9773  -22.9318   18.3845 H   0  0  0  0  0  0
  -27.8173  -23.9223   17.5428 H   0  0  0  0  0  0
  -31.1791  -19.2300   21.1353 H   0  0  0  0  0  0
  -32.0356  -18.8678   22.6107 H   0  0  0  0  0  0
  -29.2669  -17.7777   21.8753 H   0  0  0  0  0  0
  -30.0865  -17.4707   23.3886 H   0  0  0  0  0  0
  -30.1845  -19.9529   23.9232 H   0  0  0  0  0  0
  -29.4208  -20.4459   22.4358 H   0  0  0  0  0  0
  -32.0551  -16.4987   22.1105 H   0  0  0  0  0  0
  -31.2136  -16.8738   20.6297 H   0  0  0  0  0  0
  -28.7990  -24.8307   20.6887 H   0  0  0  0  0  0
  -27.4477  -24.8902   19.6684 H   0  0  0  0  0  0
  -29.2121  -25.9181   17.9166 H   0  0  0  0  0  0
  -32.2618  -21.1934   23.2910 H   0  0  0  0  0  0
  -31.5433  -21.2278   20.8450 H   0  0  0  0  0  0
  -30.7648  -22.6022   21.1974 H   0  0  0  0  0  0
  1 25  1  0  0  0
  1 30  2  0  0  0
  1 89  1  0  0  0
  2  3  1  0  0  0
  2 25  1  0  0  0
  2 91  1  0  0  0
  2 92  1  0  0  0
  3  4  1  0  0  0
  3 93  1  0  0  0
  3 94  1  0  0  0
  4  5  1  0  0  0
  4 95  1  0  0  0
  4 96  1  0  0  0
  5  6  1  0  0  0
  5 26  1  0  0  0
  5 97  1  0  0  0
  6 25  1  0  0  0
  6 98  1  0  0  0
  6 99  1  0  0  0
  7  8  2  0  0  0
  7 26  1  0  0  0
  7 29  1  0  0  0
  8  9  1  0  0  0
  8 22  1  0  0  0
  9 10  1  0  0  0
  9 27  2  0  0  0
 10 11  2  0  0  0
 10 15  1  0  0  0
 11 12  1  0  0  0
 11100  1  0  0  0
 12 13  2  0  0  0
 12101  1  0  0  0
 13 14  1  0  0  0
 13 31  1  0  0  0
 14 15  2  0  0  0
 14102  1  0  0  0
 15103  1  0  0  0
 16 17  2  0  0  0
 16 21  1  0  0  0
 16 31  1  0  0  0
 17 18  1  0  0  0
 17104  1  0  0  0
 18 19  2  0  0  0
 18105  1  0  0  0
 19 20  1  0  0  0
 19 24  1  0  0  0
 20 21  2  0  0  0
 20106  1  0  0  0
 21 23  1  0  0  0
 22 28  1  0  0  0
 22 32  2  0  0  0
 26 27  1  0  0  0
 28107  1  0  0  0
 28108  1  0  0  0
 29109  1  0  0  0
 29110  1  0  0  0
 33 34  1  0  0  0
 33 66  1  0  0  0
 33 70  2  0  0  0
 34 36  1  0  0  0
 34 59  1  0  0  0
 34111  1  0  0  0
 35 44  2  0  0  0
 35 45  1  0  0  0
 35 68  1  0  0  0
 36 56  1  0  0  0
 36112  1  0  0  0
 37 39  1  0  0  0
 37 47  1  0  0  0
 37 66  1  0  0  0
 37113  1  0  0  0
 38 43  2  0  0  0
 38 46  1  0  0  0
 38 47  1  0  0  0
 39 64  1  0  0  0
 39 67  2  0  0  0
 40 52  1  0  0  0
 40 53  2  0  0  0
 40 58  1  0  0  0
 41114  1  0  0  0
 41115  1  0  0  0
 41116  1  0  0  0
 41 48  1  0  0  0
 42 43  1  0  0  0
 42 66  1  0  0  0
 42117  1  0  0  0
 42118  1  0  0  0
 43 44  1  0  0  0
 44119  1  0  0  0
 45 46  2  0  0  0
 45120  1  0  0  0
 46121  1  0  0  0
 47122  1  0  0  0
 47123  1  0  0  0
 48 56  1  0  0  0
 48 65  1  0  0  0
 48124  1  0  0  0
 49 50  1  0  0  0
 49 53  1  0  0  0
 49 64  1  0  0  0
 49125  1  0  0  0
 50 51  1  0  0  0
 50126  1  0  0  0
 50127  1  0  0  0
 51 52  1  0  0  0
 51128  1  0  0  0
 51129  1  0  0  0
 52130  1  0  0  0
 52131  1  0  0  0
 53 54  1  0  0  0
 54 55  2  0  0  0
 54132  1  0  0  0
 55 57  1  0  0  0
 55133  1  0  0  0
 56 69  2  0  0  0
 57 58  2  0  0  0
 57134  1  0  0  0
 58135  1  0  0  0
 59 60  1  0  0  0
 59 61  1  0  0  0
 59 62  1  0  0  0
 60136  1  0  0  0
 60137  1  0  0  0
 60138  1  0  0  0
 61139  1  0  0  0
 61140  1  0  0  0
 61141  1  0  0  0
 62142  1  0  0  0
 62143  1  0  0  0
 62144  1  0  0  0
 63 65  1  0  0  0
 63145  1  0  0  0
 63146  1  0  0  0
 63147  1  0  0  0
 64148  1  0  0  0
 65149  1  0  0  0
 68 85  1  0  0  0
 71 72  2  0  0  0
 71 73  1  0  0  0
 71150  1  0  0  0
 72 74  1  0  0  0
 72151  1  0  0  0
 73 75  2  0  0  0
 73152  1  0  0  0
 74 79  1  0  0  0
 74 88  2  0  0  0
 75 86  1  0  0  0
 75 88  1  0  0  0
 76 80  1  0  0  0
 76153  1  0  0  0
 76154  1  0  0  0
 76155  1  0  0  0
 77156  1  0  0  0
 77157  1  0  0  0
 77158  1  0  0  0
 77 87  1  0  0  0
 78 89  1  0  0  0
 78159  1  0  0  0
 78160  1  0  0  0
 78161  1  0  0  0
 79 90  1  0  0  0
 79162  1  0  0  0
 79163  1  0  0  0
 80164  1  0  0  0
 80165  1  0  0  0
 80 86  1  0  0  0
 81 82  1  0  0  0
 81 83  1  0  0  0
 81166  1  0  0  0
 81167  1  0  0  0
 82 84  1  0  0  0
 82168  1  0  0  0
 82169  1  0  0  0
 83 87  1  0  0  0
 83170  1  0  0  0
 83171  1  0  0  0
 84 89  1  0  0  0
 84172  1  0  0  0
 84173  1  0  0  0
 85 86  1  0  0  0
 85174  1  0  0  0
 85175  1  0  0  0
 86176  1  0  0  0
 87 90  1  0  0  0
 87177  1  0  0  0
 90178  1  0  0  0
 90179  1  0  0  0
M  CHG  1  90   1
M  ISO  4   1 100  68 101  85 101  89 100
M  END
> <chiral flag>
0

> <version>
0

> <s_m_source_file>
/data/baiqing/PycharmProjects/Reinvent-master-3.2/result/LINK_invent/BTK/process_docking_weight1_custom_sum_contain_oxygen_bond_distance_aromatic_linkinvent_7_9_3/rearranged_h_0113.sdf

> <i_m_source_file_index>
93

> <r_mmod_Potential_Energy-OPLS-2005>
-245.675933837891

> <r_mmod_Stretch_Energy-OPLS-2005>
38.0060119628906

> <r_mmod_Bend_Energy-OPLS-2005>
120.64444732666

> <r_mmod_Torsional_Energy-OPLS-2005>
267.111511230469

> <r_mmod_Improper_Torsional_Energy-OPLS-2005>
4.65901803970337

> <r_mmod_Van_der_Waal_Energy-OPLS-2005>
182.656219482422

> <r_mmod_Electrostatic_Energy-OPLS-2005>
-450.841094970703

> <r_mmod_Solvation_Energy-OPLS-2005>
-418.7900390625

> <b_mmod_Minimization_Converged-OPLS-2005>
0

> <r_mmod_RMS_Derivative-OPLS-2005>
3.14726734161377

$$$$
95
                    3D
 Structure written by MMmdl.
163171  0  0  1  0            999 V2000
  -30.4751  -15.2983   20.3482 C   0  0  0  0  0  0
  -30.4540  -12.8463   19.4810 C   0  0  0  0  0  0
  -29.5360  -12.5795   18.2615 C   0  0  0  0  0  0
  -28.0887  -12.3106   18.7073 C   0  0  0  0  0  0
  -27.6211  -13.2839   19.8140 C   0  0  2  0  0  0
  -28.6729  -13.4973   20.9263 C   0  0  0  0  0  0
  -25.2504  -13.8238   20.5863 C   0  0  0  0  0  0
  -24.1817  -13.0432   20.9303 C   0  0  0  0  0  0
  -24.6499  -11.6933   20.8769 C   0  0  0  0  0  0
  -23.9174  -10.4273   21.0395 C   0  0  0  0  0  0
  -24.3672   -9.4177   21.9189 C   0  0  0  0  0  0
  -23.6316   -8.2220   22.0727 C   0  0  0  0  0  0
  -22.4314   -8.0282   21.3504 C   0  0  0  0  0  0
  -21.9991   -9.0294   20.4628 C   0  0  0  0  0  0
  -22.7347  -10.2155   20.3055 C   0  0  0  0  0  0
  -21.6861   -6.0770   22.5268 C   0  0  0  0  0  0
  -21.4010   -6.5653   23.8212 C   0  0  0  0  0  0
  -21.3673   -5.6783   24.9156 C   0  0  0  0  0  0
  -21.6038   -4.3035   24.7196 C   0  0  0  0  0  0
  -21.8813   -3.8171   23.4302 C   0  0  0  0  0  0
  -21.9192   -4.6997   22.3372 C   0  0  0  0  0  0
  -22.7820  -13.5168   21.1926 C   0  0  0  0  0  0
  -22.1654   -4.2189   21.0942 F   0  0  0  0  0  0
  -21.5653   -3.4515   25.7703 F   0  0  0  0  0  0
  -29.8891  -14.0038   20.2589 N   0  0  0  0  0  0
  -26.2939  -12.9547   20.3255 N   0  0  0  0  0  0
  -25.9445  -11.6648   20.5696 N   0  0  0  0  0  0
  -22.0427  -12.8158   22.0449 N   0  0  0  0  0  0
  -25.4061  -15.1986   20.4408 N   0  0  0  0  0  0
  -31.7141  -15.2733   20.2785 O   0  0  0  0  0  0
  -21.6608   -6.8917   21.4247 O   0  0  0  0  0  0
  -22.3483  -14.5508   20.6795 O   0  0  0  0  0  0
  -24.6703  -31.8163   23.1644 C   0  0  0  0  0  0
  -25.9353  -32.4553   23.8169 C   0  0  1  0  0  0
  -27.2494  -26.8910   20.1632 C   0  0  0  0  0  0
  -25.6005  -33.8375   24.2076 N   0  0  0  0  0  0
  -23.4911  -30.4206   21.5122 C   0  0  2  0  0  0
  -24.9494  -28.7973   20.1099 C   0  0  0  0  0  0
  -22.7729  -29.4349   22.4736 C   0  0  0  0  0  0
  -18.0324  -28.1370   22.8431 C   0  0  0  0  0  0
  -24.1475  -36.7171   23.2628 C   0  0  0  0  0  0
  -26.0606  -30.6049   21.4032 C   0  0  0  0  0  0
  -26.1305  -29.1884   20.7509 C   0  0  0  0  0  0
  -27.2660  -28.2537   20.7579 C   0  0  0  0  0  0
  -26.0331  -26.6618   19.4708 C   0  0  0  0  0  0
  -24.9282  -27.5554   19.4555 C   0  0  0  0  0  0
  -23.7378  -29.7284   20.1420 C   0  0  0  0  0  0
  -25.4108  -36.2950   24.0304 C   0  0  1  0  0  0
  -20.5958  -28.3726   23.1152 C   0  0  2  0  0  0
  -20.6761  -26.9385   22.5377 C   0  0  0  0  0  0
  -19.5740  -26.6347   21.5166 C   0  0  0  0  0  0
  -18.1939  -26.7899   22.1590 C   0  0  0  0  0  0
  -19.1591  -28.8873   23.2782 C   0  0  0  0  0  0
  -18.9488  -30.1456   23.8816 C   0  0  0  0  0  0
  -17.6481  -30.6558   24.0531 C   0  0  0  0  0  0
  -25.9073  -34.9343   23.5011 C   0  0  0  0  0  0
  -16.5370  -29.9040   23.6333 C   0  0  0  0  0  0
  -16.7315  -28.6465   23.0356 C   0  0  0  0  0  0
  -26.4610  -31.6515   25.0706 C   0  0  0  0  0  0
  -25.3724  -31.3800   26.1354 C   0  0  0  0  0  0
  -27.0506  -30.2889   24.6456 C   0  0  0  0  0  0
  -27.6153  -32.4310   25.7480 C   0  0  0  0  0  0
  -27.5587  -37.1711   24.8437 C   0  0  0  0  0  0
  -21.4388  -29.3004   22.3504 N   0  0  0  0  0  0
  -26.4233  -37.3729   23.9454 N   0  0  0  0  0  0
  -24.7619  -30.9785   22.0796 N   0  0  0  0  0  0
  -23.4226  -28.7908   23.3004 O   0  0  0  0  0  0
  -28.2660  -25.7868   20.2713 O   0  0  0  0  0  0
  -26.5709  -34.8896   22.4597 O   0  0  0  0  0  0
  -23.5772  -32.1123   23.6727 O   0  0  0  0  0  0
  -29.9813  -21.4300   18.4131 C   0  0  0  0  0  0
  -30.4395  -19.2593   18.5900 C   0  0  0  0  0  0
  -30.6356  -20.3331   17.7803 C   0  0  0  0  0  0
  -29.4234  -21.1191   19.6352 C   0  0  0  0  0  0
  -29.6712  -22.8329   21.6563 C   0  0  0  0  0  0
  -32.8985  -19.8688   16.7505 C   0  0  0  0  0  0
  -31.4494  -21.6855   15.7881 C   0  0  0  0  0  0
  -30.8089  -19.2986   15.4965 C   0  0  0  0  0  0
  -28.2533  -24.1791   19.7994 C   0  0  0  0  0  0
  -29.7624  -18.1989   20.7015 C   0  0  0  0  0  0
  -28.7779  -22.5377   20.4467 C   0  0  1  0  0  0
  -31.4397  -20.3075   16.4731 C   0  0  0  0  0  0
  -29.7470  -19.5667   19.7530 N   0  0  0  0  0  0
  -29.7183  -16.5720   20.2764 N   0  0  0  0  0  0
  -31.4591  -13.0560   19.1175 H   0  0  0  0  0  0
  -30.5428  -11.9582   20.1105 H   0  0  0  0  0  0
  -29.9164  -11.7327   17.6924 H   0  0  0  0  0  0
  -29.5534  -13.4340   17.5841 H   0  0  0  0  0  0
  -28.0521  -11.2892   19.0802 H   0  0  0  0  0  0
  -27.4087  -12.3524   17.8561 H   0  0  0  0  0  0
  -27.5233  -14.2427   19.3069 H   0  0  0  0  0  0
  -28.8710  -12.5837   21.4914 H   0  0  0  0  0  0
  -28.3165  -14.2369   21.6423 H   0  0  0  0  0  0
  -25.2809   -9.5618   22.4816 H   0  0  0  0  0  0
  -24.0003   -7.4589   22.7452 H   0  0  0  0  0  0
  -21.0917   -8.8887   19.8935 H   0  0  0  0  0  0
  -22.3839  -10.9736   19.6188 H   0  0  0  0  0  0
  -21.1990   -7.6156   23.9734 H   0  0  0  0  0  0
  -21.1531   -6.0485   25.9055 H   0  0  0  0  0  0
  -22.0615   -2.7661   23.2757 H   0  0  0  0  0  0
  -22.3973  -11.9829   22.4872 H   0  0  0  0  0  0
  -21.1048  -13.1225   22.2592 H   0  0  0  0  0  0
  -24.6466  -15.8455   20.6217 H   0  0  0  0  0  0
  -26.2552  -15.6653   20.1559 H   0  0  0  0  0  0
  -26.7397  -32.5098   23.0868 H   0  0  0  0  0  0
  -25.0182  -33.9412   25.0272 H   0  0  0  0  0  0
  -22.8070  -31.2529   21.3345 H   0  0  0  0  0  0
  -23.3804  -35.9428   23.3165 H   0  0  0  0  0  0
  -24.3578  -36.8938   22.2068 H   0  0  0  0  0  0
  -23.7133  -37.6284   23.6755 H   0  0  0  0  0  0
  -26.2397  -31.3380   20.6148 H   0  0  0  0  0  0
  -26.9189  -30.6682   22.0597 H   0  0  0  0  0  0
  -28.1552  -28.5467   21.2995 H   0  0  0  0  0  0
  -25.9016  -25.7211   18.9561 H   0  0  0  0  0  0
  -24.0311  -27.2539   18.9302 H   0  0  0  0  0  0
  -23.9062  -30.4912   19.3807 H   0  0  0  0  0  0
  -22.8475  -29.1866   19.8239 H   0  0  0  0  0  0
  -25.1288  -36.1731   25.0801 H   0  0  0  0  0  0
  -21.0039  -28.3282   24.1290 H   0  0  0  0  0  0
  -20.5524  -26.2342   23.3626 H   0  0  0  0  0  0
  -21.6640  -26.7261   22.1266 H   0  0  0  0  0  0
  -19.6876  -25.6249   21.1233 H   0  0  0  0  0  0
  -19.6683  -27.3123   20.6673 H   0  0  0  0  0  0
  -17.4205  -26.6642   21.4009 H   0  0  0  0  0  0
  -18.0333  -26.0059   22.9011 H   0  0  0  0  0  0
  -19.7975  -30.7280   24.2163 H   0  0  0  0  0  0
  -17.5036  -31.6224   24.5142 H   0  0  0  0  0  0
  -15.5357  -30.2911   23.7673 H   0  0  0  0  0  0
  -15.8728  -28.0749   22.7100 H   0  0  0  0  0  0
  -24.5895  -30.7148   25.7673 H   0  0  0  0  0  0
  -24.8889  -32.3000   26.4667 H   0  0  0  0  0  0
  -25.7910  -30.9046   27.0224 H   0  0  0  0  0  0
  -26.3186  -29.6560   24.1397 H   0  0  0  0  0  0
  -27.3972  -29.7271   25.5137 H   0  0  0  0  0  0
  -27.9171  -30.4095   23.9936 H   0  0  0  0  0  0
  -27.2798  -33.3679   26.1961 H   0  0  0  0  0  0
  -28.4016  -32.6730   25.0309 H   0  0  0  0  0  0
  -28.0768  -31.8461   26.5456 H   0  0  0  0  0  0
  -28.2487  -38.0131   24.7688 H   0  0  0  0  0  0
  -28.1200  -36.2679   24.5994 H   0  0  0  0  0  0
  -27.2346  -37.1041   25.8841 H   0  0  0  0  0  0
  -20.9640  -29.8794   21.6728 H   0  0  0  0  0  0
  -26.0068  -38.2751   24.1620 H   0  0  0  0  0  0
  -29.9762  -22.4317   18.0070 H   0  0  0  0  0  0
  -30.8092  -18.2486   18.4528 H   0  0  0  0  0  0
  -29.7953  -21.9479   22.2830 H   0  0  0  0  0  0
  -29.2479  -23.6304   22.2744 H   0  0  0  0  0  0
  -30.6609  -23.1544   21.3356 H   0  0  0  0  0  0
  -33.4134  -20.5445   17.4354 H   0  0  0  0  0  0
  -33.4973  -19.8367   15.8378 H   0  0  0  0  0  0
  -32.9454  -18.8703   17.1861 H   0  0  0  0  0  0
  -31.8813  -22.4563   16.4263 H   0  0  0  0  0  0
  -30.4419  -21.9989   15.5128 H   0  0  0  0  0  0
  -32.0391  -21.6679   14.8704 H   0  0  0  0  0  0
  -30.7955  -18.2903   15.9116 H   0  0  0  0  0  0
  -31.3652  -19.2564   14.5566 H   0  0  0  0  0  0
  -29.7835  -19.5759   15.2507 H   0  0  0  0  0  0
  -27.2168  -24.0000   19.5262 H   0  0  0  0  0  0
  -28.7506  -24.2457   18.8334 H   0  0  0  0  0  0
  -28.9335  -18.3270   21.3976 H   0  0  0  0  0  0
  -30.6578  -18.2902   21.3201 H   0  0  0  0  0  0
  -27.8533  -22.1630   20.8892 H   0  0  0  0  0  0
  -28.7733  -16.3324   20.0215 H   0  0  0  0  0  0
  1 25  1  0  0  0
  1 30  2  0  0  0
  1 84  1  0  0  0
  2  3  1  0  0  0
  2 25  1  0  0  0
  2 85  1  0  0  0
  2 86  1  0  0  0
  3  4  1  0  0  0
  3 87  1  0  0  0
  3 88  1  0  0  0
  4  5  1  0  0  0
  4 89  1  0  0  0
  4 90  1  0  0  0
  5  6  1  0  0  0
  5 26  1  0  0  0
  5 91  1  0  0  0
  6 25  1  0  0  0
  6 92  1  0  0  0
  6 93  1  0  0  0
  7  8  2  0  0  0
  7 26  1  0  0  0
  7 29  1  0  0  0
  8  9  1  0  0  0
  8 22  1  0  0  0
  9 10  1  0  0  0
  9 27  2  0  0  0
 10 11  2  0  0  0
 10 15  1  0  0  0
 11 12  1  0  0  0
 11 94  1  0  0  0
 12 13  2  0  0  0
 12 95  1  0  0  0
 13 14  1  0  0  0
 13 31  1  0  0  0
 14 15  2  0  0  0
 14 96  1  0  0  0
 15 97  1  0  0  0
 16 17  2  0  0  0
 16 21  1  0  0  0
 16 31  1  0  0  0
 17 18  1  0  0  0
 17 98  1  0  0  0
 18 19  2  0  0  0
 18 99  1  0  0  0
 19 20  1  0  0  0
 19 24  1  0  0  0
 20 21  2  0  0  0
 20100  1  0  0  0
 21 23  1  0  0  0
 22 28  1  0  0  0
 22 32  2  0  0  0
 26 27  1  0  0  0
 28101  1  0  0  0
 28102  1  0  0  0
 29103  1  0  0  0
 29104  1  0  0  0
 33 34  1  0  0  0
 33 66  1  0  0  0
 33 70  2  0  0  0
 34 36  1  0  0  0
 34 59  1  0  0  0
 34105  1  0  0  0
 35 44  2  0  0  0
 35 45  1  0  0  0
 35 68  1  0  0  0
 36 56  1  0  0  0
 36106  1  0  0  0
 37 39  1  0  0  0
 37 47  1  0  0  0
 37 66  1  0  0  0
 37107  1  0  0  0
 38 43  2  0  0  0
 38 46  1  0  0  0
 38 47  1  0  0  0
 39 64  1  0  0  0
 39 67  2  0  0  0
 40 52  1  0  0  0
 40 53  2  0  0  0
 40 58  1  0  0  0
 41108  1  0  0  0
 41109  1  0  0  0
 41110  1  0  0  0
 41 48  1  0  0  0
 42 43  1  0  0  0
 42 66  1  0  0  0
 42111  1  0  0  0
 42112  1  0  0  0
 43 44  1  0  0  0
 44113  1  0  0  0
 45 46  2  0  0  0
 45114  1  0  0  0
 46115  1  0  0  0
 47116  1  0  0  0
 47117  1  0  0  0
 48 56  1  0  0  0
 48 65  1  0  0  0
 48118  1  0  0  0
 49 50  1  0  0  0
 49 53  1  0  0  0
 49 64  1  0  0  0
 49119  1  0  0  0
 50 51  1  0  0  0
 50120  1  0  0  0
 50121  1  0  0  0
 51 52  1  0  0  0
 51122  1  0  0  0
 51123  1  0  0  0
 52124  1  0  0  0
 52125  1  0  0  0
 53 54  1  0  0  0
 54 55  2  0  0  0
 54126  1  0  0  0
 55 57  1  0  0  0
 55127  1  0  0  0
 56 69  2  0  0  0
 57 58  2  0  0  0
 57128  1  0  0  0
 58129  1  0  0  0
 59 60  1  0  0  0
 59 61  1  0  0  0
 59 62  1  0  0  0
 60130  1  0  0  0
 60131  1  0  0  0
 60132  1  0  0  0
 61133  1  0  0  0
 61134  1  0  0  0
 61135  1  0  0  0
 62136  1  0  0  0
 62137  1  0  0  0
 62138  1  0  0  0
 63 65  1  0  0  0
 63139  1  0  0  0
 63140  1  0  0  0
 63141  1  0  0  0
 64142  1  0  0  0
 65143  1  0  0  0
 68 79  1  0  0  0
 71 73  1  0  0  0
 71 74  2  0  0  0
 71144  1  0  0  0
 72 73  2  0  0  0
 72 83  1  0  0  0
 72145  1  0  0  0
 73 82  1  0  0  0
 74 81  1  0  0  0
 74 83  1  0  0  0
 75146  1  0  0  0
 75147  1  0  0  0
 75148  1  0  0  0
 75 81  1  0  0  0
 76149  1  0  0  0
 76150  1  0  0  0
 76151  1  0  0  0
 76 82  1  0  0  0
 77 82  1  0  0  0
 77152  1  0  0  0
 77153  1  0  0  0
 77154  1  0  0  0
 78 82  1  0  0  0
 78155  1  0  0  0
 78156  1  0  0  0
 78157  1  0  0  0
 79 81  1  0  0  0
 79158  1  0  0  0
 79159  1  0  0  0
 80 83  1  0  0  0
 80 84  1  0  0  0
 80160  1  0  0  0
 80161  1  0  0  0
 81162  1  0  0  0
 84163  1  0  0  0
M  ISO  4   1 100  68 101  79 101  84 100
M  END
> <chiral flag>
0

> <version>
0

> <s_m_source_file>
/data/baiqing/PycharmProjects/Reinvent-master-3.2/result/LINK_invent/BTK/process_docking_weight1_custom_sum_contain_oxygen_bond_distance_aromatic_linkinvent_7_9_3/rearranged_h_0113.sdf

> <i_m_source_file_index>
94

> <r_mmod_Potential_Energy-OPLS-2005>
1445.37353515625

> <r_mmod_Stretch_Energy-OPLS-2005>
682.5830078125

> <r_mmod_Bend_Energy-OPLS-2005>
565.04638671875

> <r_mmod_Torsional_Energy-OPLS-2005>
248.705322265625

> <r_mmod_Improper_Torsional_Energy-OPLS-2005>
7.17732858657837

> <r_mmod_Van_der_Waal_Energy-OPLS-2005>
103.073722839355

> <r_mmod_Electrostatic_Energy-OPLS-2005>
-455.627838134766

> <r_mmod_Solvation_Energy-OPLS-2005>
-213.469421386719

> <b_mmod_Minimization_Converged-OPLS-2005>
0

> <r_mmod_RMS_Derivative-OPLS-2005>
6.75799131393433

$$$$
96
                    3D
 Structure written by MMmdl.
155163  0  0  1  0            999 V2000
  -30.6164  -14.7263   20.4631 C   0  0  0  0  0  0
  -30.4411  -12.4463   19.4549 C   0  0  0  0  0  0
  -29.5011  -12.4750   18.2286 C   0  0  0  0  0  0
  -28.0368  -12.2847   18.6679 C   0  0  0  0  0  0
  -27.6420  -13.2149   19.8443 C   0  0  2  0  0  0
  -28.6917  -13.1546   20.9748 C   0  0  0  0  0  0
  -25.2546  -13.8170   20.5712 C   0  0  0  0  0  0
  -24.1808  -13.0431   20.9219 C   0  0  0  0  0  0
  -24.6372  -11.6908   20.8769 C   0  0  0  0  0  0
  -23.9052  -10.4292   21.0431 C   0  0  0  0  0  0
  -24.3595   -9.4206   21.9210 C   0  0  0  0  0  0
  -23.6277   -8.2238   22.0776 C   0  0  0  0  0  0
  -22.4267   -8.0280   21.3550 C   0  0  0  0  0  0
  -21.9912   -9.0251   20.4652 C   0  0  0  0  0  0
  -22.7237  -10.2128   20.3069 C   0  0  0  0  0  0
  -21.6838   -6.0733   22.5282 C   0  0  0  0  0  0
  -21.4005   -6.5640   23.8211 C   0  0  0  0  0  0
  -21.3654   -5.6798   24.9183 C   0  0  0  0  0  0
  -21.6035   -4.3060   24.7236 C   0  0  0  0  0  0
  -21.8819   -3.8149   23.4358 C   0  0  0  0  0  0
  -21.9192   -4.6961   22.3411 C   0  0  0  0  0  0
  -22.7837  -13.5237   21.1861 C   0  0  0  0  0  0
  -22.1659   -4.2146   21.0986 F   0  0  0  0  0  0
  -21.5629   -3.4540   25.7752 F   0  0  0  0  0  0
  -29.9902  -13.5049   20.3845 N   0  0  0  0  0  0
  -26.2943  -12.9332   20.3289 N   0  0  0  0  0  0
  -25.9296  -11.6496   20.5785 N   0  0  0  0  0  0
  -22.0445  -12.8223   22.0381 N   0  0  0  0  0  0
  -25.4286  -15.1887   20.4111 N   0  0  0  0  0  0
  -31.8133  -14.8310   20.1841 O   0  0  0  0  0  0
  -21.6626   -6.8873   21.4243 O   0  0  0  0  0  0
  -22.3549  -14.5558   20.6726 O   0  0  0  0  0  0
  -24.6294  -31.8518   23.1971 C   0  0  0  0  0  0
  -25.9102  -32.4746   23.8340 C   0  0  1  0  0  0
  -27.2366  -27.2737   20.1325 C   0  0  0  0  0  0
  -25.5894  -33.8549   24.2245 N   0  0  0  0  0  0
  -23.4292  -30.4710   21.5405 C   0  0  2  0  0  0
  -24.8814  -28.9129   20.1188 C   0  0  0  0  0  0
  -22.7501  -29.4558   22.4911 C   0  0  0  0  0  0
  -18.0299  -28.1372   22.8488 C   0  0  0  0  0  0
  -24.1471  -36.7262   23.2632 C   0  0  0  0  0  0
  -25.9731  -30.7695   21.3740 C   0  0  0  0  0  0
  -26.0521  -29.3915   20.7213 C   0  0  0  0  0  0
  -27.2362  -28.5863   20.7095 C   0  0  0  0  0  0
  -26.0420  -26.8527   19.5114 C   0  0  0  0  0  0
  -24.8794  -27.6502   19.5055 C   0  0  0  0  0  0
  -23.6507  -29.7976   20.1616 C   0  0  0  0  0  0
  -25.4095  -36.3060   24.0315 C   0  0  1  0  0  0
  -20.5900  -28.3666   23.1259 C   0  0  2  0  0  0
  -20.6762  -26.9384   22.5387 C   0  0  0  0  0  0
  -19.5745  -26.6389   21.5174 C   0  0  0  0  0  0
  -18.1927  -26.7930   22.1605 C   0  0  0  0  0  0
  -19.1555  -28.8840   23.2864 C   0  0  0  0  0  0
  -18.9482  -30.1448   23.8873 C   0  0  0  0  0  0
  -17.6480  -30.6572   24.0567 C   0  0  0  0  0  0
  -25.9051  -34.9427   23.5088 C   0  0  0  0  0  0
  -16.5368  -29.9067   23.6341 C   0  0  0  0  0  0
  -16.7289  -28.6493   23.0348 C   0  0  0  0  0  0
  -26.4506  -31.6583   25.0721 C   0  0  0  0  0  0
  -25.3747  -31.3623   26.1437 C   0  0  0  0  0  0
  -27.0412  -30.3042   24.6165 C   0  0  0  0  0  0
  -27.6058  -32.4348   25.7498 C   0  0  0  0  0  0
  -27.5581  -37.1743   24.8432 C   0  0  0  0  0  0
  -21.4209  -29.3008   22.3647 N   0  0  0  0  0  0
  -26.4248  -37.3783   23.9454 N   0  0  0  0  0  0
  -24.6964  -31.0475   22.0959 N   0  0  0  0  0  0
  -23.4194  -28.8081   23.2997 O   0  0  0  0  0  0
  -28.3473  -26.4019   20.1281 O   0  0  0  0  0  0
  -26.5652  -34.8890   22.4676 O   0  0  0  0  0  0
  -23.5435  -32.1368   23.7243 O   0  0  0  0  0  0
  -28.3017  -22.2560   20.6538 C   0  0  0  0  0  0
  -30.4151  -22.0163   19.5519 C   0  0  0  0  0  0
  -29.1991  -21.1354   19.9742 C   0  0  1  0  0  0
  -28.6940  -23.6549   20.0131 C   0  0  1  0  0  0
  -28.2018  -25.0315   20.7259 C   0  0  0  0  0  0
  -30.2233  -17.3001   20.9203 C   0  0  0  0  0  0
  -29.4446  -18.5153   20.1889 C   0  0  0  0  0  0
  -29.8330  -15.8476   20.6651 N   0  0  0  0  0  0
  -29.6006  -19.9063   20.7701 N   0  0  0  0  0  0
  -30.1570  -23.4424   19.9304 N   0  3  0  0  0  0
  -31.4745  -12.5894   19.1325 H   0  0  0  0  0  0
  -30.4138  -11.4715   19.9457 H   0  0  0  0  0  0
  -29.7797  -11.6887   17.5249 H   0  0  0  0  0  0
  -29.6081  -13.4211   17.6964 H   0  0  0  0  0  0
  -27.9321  -11.2451   18.9837 H   0  0  0  0  0  0
  -27.3587  -12.4169   17.8244 H   0  0  0  0  0  0
  -27.6380  -14.2276   19.4421 H   0  0  0  0  0  0
  -28.7287  -12.1576   21.4161 H   0  0  0  0  0  0
  -28.4309  -13.8363   21.7859 H   0  0  0  0  0  0
  -25.2721   -9.5675   22.4818 H   0  0  0  0  0  0
  -23.9968   -7.4633   22.7509 H   0  0  0  0  0  0
  -21.0851   -8.8771   19.8958 H   0  0  0  0  0  0
  -22.3705  -10.9667   19.6190 H   0  0  0  0  0  0
  -21.1990   -7.6148   23.9718 H   0  0  0  0  0  0
  -21.1473   -6.0529   25.9083 H   0  0  0  0  0  0
  -22.0601   -2.7611   23.2867 H   0  0  0  0  0  0
  -22.4011  -11.9825   22.4711 H   0  0  0  0  0  0
  -21.1074  -13.1270   22.2590 H   0  0  0  0  0  0
  -24.6647  -15.8467   20.5286 H   0  0  0  0  0  0
  -26.2751  -15.6221   20.0655 H   0  0  0  0  0  0
  -26.7156  -32.5397   23.1069 H   0  0  0  0  0  0
  -24.9980  -33.9696   25.0351 H   0  0  0  0  0  0
  -22.7259  -31.2913   21.3858 H   0  0  0  0  0  0
  -23.3777  -35.9543   23.3207 H   0  0  0  0  0  0
  -24.3583  -36.9025   22.2071 H   0  0  0  0  0  0
  -23.7168  -37.6391   23.6752 H   0  0  0  0  0  0
  -26.0965  -31.5272   20.5990 H   0  0  0  0  0  0
  -26.8558  -30.8313   21.9998 H   0  0  0  0  0  0
  -28.1400  -28.9556   21.1722 H   0  0  0  0  0  0
  -26.0005  -25.8842   19.0316 H   0  0  0  0  0  0
  -23.9795  -27.2814   19.0329 H   0  0  0  0  0  0
  -23.7753  -30.5684   19.4013 H   0  0  0  0  0  0
  -22.7735  -29.2249   19.8570 H   0  0  0  0  0  0
  -25.1257  -36.1884   25.0794 H   0  0  0  0  0  0
  -20.9989  -28.3248   24.1379 H   0  0  0  0  0  0
  -20.5645  -26.2256   23.3575 H   0  0  0  0  0  0
  -21.6623  -26.7387   22.1187 H   0  0  0  0  0  0
  -19.6890  -25.6314   21.1182 H   0  0  0  0  0  0
  -19.6691  -27.3213   20.6714 H   0  0  0  0  0  0
  -17.4186  -26.6690   21.4011 H   0  0  0  0  0  0
  -18.0338  -26.0050   22.8981 H   0  0  0  0  0  0
  -19.7949  -30.7270   24.2233 H   0  0  0  0  0  0
  -17.5029  -31.6253   24.5166 H   0  0  0  0  0  0
  -15.5368  -30.2951   23.7690 H   0  0  0  0  0  0
  -15.8690  -28.0820   22.7049 H   0  0  0  0  0  0
  -24.5928  -30.6999   25.7705 H   0  0  0  0  0  0
  -24.8906  -32.2729   26.4965 H   0  0  0  0  0  0
  -25.8081  -30.8706   27.0161 H   0  0  0  0  0  0
  -26.3012  -29.6726   24.1237 H   0  0  0  0  0  0
  -27.4236  -29.7340   25.4644 H   0  0  0  0  0  0
  -27.8804  -30.4404   23.9337 H   0  0  0  0  0  0
  -27.2708  -33.3702   26.1991 H   0  0  0  0  0  0
  -28.3905  -32.6843   25.0338 H   0  0  0  0  0  0
  -28.0683  -31.8525   26.5480 H   0  0  0  0  0  0
  -28.2439  -38.0186   24.7715 H   0  0  0  0  0  0
  -28.1253  -36.2745   24.6002 H   0  0  0  0  0  0
  -27.2331  -37.1065   25.8825 H   0  0  0  0  0  0
  -20.9390  -29.8775   21.6893 H   0  0  0  0  0  0
  -26.0108  -38.2811   24.1641 H   0  0  0  0  0  0
  -28.5112  -22.2945   21.7265 H   0  0  0  0  0  0
  -27.2364  -22.0480   20.5491 H   0  0  0  0  0  0
  -30.5541  -21.9563   18.4714 H   0  0  0  0  0  0
  -31.3448  -21.6774   20.0107 H   0  0  0  0  0  0
  -28.6895  -20.8033   19.0659 H   0  0  0  0  0  0
  -28.3143  -23.6699   18.9896 H   0  0  0  0  0  0
  -28.6796  -25.0873   21.7039 H   0  0  0  0  0  0
  -27.1484  -24.8806   20.9592 H   0  0  0  0  0  0
  -30.1059  -17.4382   21.9956 H   0  0  0  0  0  0
  -31.2925  -17.4143   20.7363 H   0  0  0  0  0  0
  -28.3775  -18.2888   20.1669 H   0  0  0  0  0  0
  -29.7635  -18.5378   19.1449 H   0  0  0  0  0  0
  -28.8494  -15.6481   20.7692 H   0  0  0  0  0  0
  -29.1907  -19.9332   21.7011 H   0  0  0  0  0  0
  -30.6097  -24.0756   19.2893 H   0  0  0  0  0  0
  -30.5607  -23.5808   20.8439 H   0  0  0  0  0  0
  1 25  1  0  0  0
  1 30  2  0  0  0
  1 78  1  0  0  0
  2  3  1  0  0  0
  2 25  1  0  0  0
  2 81  1  0  0  0
  2 82  1  0  0  0
  3  4  1  0  0  0
  3 83  1  0  0  0
  3 84  1  0  0  0
  4  5  1  0  0  0
  4 85  1  0  0  0
  4 86  1  0  0  0
  5  6  1  0  0  0
  5 26  1  0  0  0
  5 87  1  0  0  0
  6 25  1  0  0  0
  6 88  1  0  0  0
  6 89  1  0  0  0
  7  8  2  0  0  0
  7 26  1  0  0  0
  7 29  1  0  0  0
  8  9  1  0  0  0
  8 22  1  0  0  0
  9 10  1  0  0  0
  9 27  2  0  0  0
 10 11  2  0  0  0
 10 15  1  0  0  0
 11 12  1  0  0  0
 11 90  1  0  0  0
 12 13  2  0  0  0
 12 91  1  0  0  0
 13 14  1  0  0  0
 13 31  1  0  0  0
 14 15  2  0  0  0
 14 92  1  0  0  0
 15 93  1  0  0  0
 16 17  2  0  0  0
 16 21  1  0  0  0
 16 31  1  0  0  0
 17 18  1  0  0  0
 17 94  1  0  0  0
 18 19  2  0  0  0
 18 95  1  0  0  0
 19 20  1  0  0  0
 19 24  1  0  0  0
 20 21  2  0  0  0
 20 96  1  0  0  0
 21 23  1  0  0  0
 22 28  1  0  0  0
 22 32  2  0  0  0
 26 27  1  0  0  0
 28 97  1  0  0  0
 28 98  1  0  0  0
 29 99  1  0  0  0
 29100  1  0  0  0
 33 34  1  0  0  0
 33 66  1  0  0  0
 33 70  2  0  0  0
 34 36  1  0  0  0
 34 59  1  0  0  0
 34101  1  0  0  0
 35 44  2  0  0  0
 35 45  1  0  0  0
 35 68  1  0  0  0
 36 56  1  0  0  0
 36102  1  0  0  0
 37 39  1  0  0  0
 37 47  1  0  0  0
 37 66  1  0  0  0
 37103  1  0  0  0
 38 43  2  0  0  0
 38 46  1  0  0  0
 38 47  1  0  0  0
 39 64  1  0  0  0
 39 67  2  0  0  0
 40 52  1  0  0  0
 40 53  2  0  0  0
 40 58  1  0  0  0
 41104  1  0  0  0
 41105  1  0  0  0
 41106  1  0  0  0
 41 48  1  0  0  0
 42 43  1  0  0  0
 42 66  1  0  0  0
 42107  1  0  0  0
 42108  1  0  0  0
 43 44  1  0  0  0
 44109  1  0  0  0
 45 46  2  0  0  0
 45110  1  0  0  0
 46111  1  0  0  0
 47112  1  0  0  0
 47113  1  0  0  0
 48 56  1  0  0  0
 48 65  1  0  0  0
 48114  1  0  0  0
 49 50  1  0  0  0
 49 53  1  0  0  0
 49 64  1  0  0  0
 49115  1  0  0  0
 50 51  1  0  0  0
 50116  1  0  0  0
 50117  1  0  0  0
 51 52  1  0  0  0
 51118  1  0  0  0
 51119  1  0  0  0
 52120  1  0  0  0
 52121  1  0  0  0
 53 54  1  0  0  0
 54 55  2  0  0  0
 54122  1  0  0  0
 55 57  1  0  0  0
 55123  1  0  0  0
 56 69  2  0  0  0
 57 58  2  0  0  0
 57124  1  0  0  0
 58125  1  0  0  0
 59 60  1  0  0  0
 59 61  1  0  0  0
 59 62  1  0  0  0
 60126  1  0  0  0
 60127  1  0  0  0
 60128  1  0  0  0
 61129  1  0  0  0
 61130  1  0  0  0
 61131  1  0  0  0
 62132  1  0  0  0
 62133  1  0  0  0
 62134  1  0  0  0
 63 65  1  0  0  0
 63135  1  0  0  0
 63136  1  0  0  0
 63137  1  0  0  0
 64138  1  0  0  0
 65139  1  0  0  0
 68 75  1  0  0  0
 71 73  1  0  0  0
 71 74  1  0  0  0
 71140  1  0  0  0
 71141  1  0  0  0
 72 73  1  0  0  0
 72 80  1  0  0  0
 72142  1  0  0  0
 72143  1  0  0  0
 73 79  1  0  0  0
 73144  1  0  0  0
 74 75  1  0  0  0
 74 80  1  0  0  0
 74145  1  0  0  0
 75146  1  0  0  0
 75147  1  0  0  0
 76 77  1  0  0  0
 76 78  1  0  0  0
 76148  1  0  0  0
 76149  1  0  0  0
 77 79  1  0  0  0
 77150  1  0  0  0
 77151  1  0  0  0
 78152  1  0  0  0
 79153  1  0  0  0
 80154  1  0  0  0
 80155  1  0  0  0
M  CHG  1  80   1
M  ISO  4   1 100  68 101  75 101  78 100
M  END
> <chiral flag>
0

> <version>
0

> <s_m_source_file>
/data/baiqing/PycharmProjects/Reinvent-master-3.2/result/LINK_invent/BTK/process_docking_weight1_custom_sum_contain_oxygen_bond_distance_aromatic_linkinvent_7_9_3/rearranged_h_0113.sdf

> <i_m_source_file_index>
95

> <r_mmod_Potential_Energy-OPLS-2005>
34.837574005127

> <r_mmod_Stretch_Energy-OPLS-2005>
110.302040100098

> <r_mmod_Bend_Energy-OPLS-2005>
200.179504394531

> <r_mmod_Torsional_Energy-OPLS-2005>
287.640228271484

> <r_mmod_Improper_Torsional_Energy-OPLS-2005>
4.2253623008728

> <r_mmod_Van_der_Waal_Energy-OPLS-2005>
115.168182373047

> <r_mmod_Electrostatic_Energy-OPLS-2005>
-303.889831542969

> <r_mmod_Solvation_Energy-OPLS-2005>
-457.15771484375

> <b_mmod_Minimization_Converged-OPLS-2005>
0

> <r_mmod_RMS_Derivative-OPLS-2005>
2.81109619140625

$$$$
97
                    3D
 Structure written by MMmdl.
165173  0  0  1  0            999 V2000
  -30.5766  -14.7886   20.4468 C   0  0  0  0  0  0
  -30.4346  -12.4887   19.4450 C   0  0  0  0  0  0
  -29.5026  -12.5180   18.2142 C   0  0  0  0  0  0
  -28.0286  -12.3432   18.6289 C   0  0  0  0  0  0
  -27.6326  -13.2347   19.8352 C   0  0  2  0  0  0
  -28.6832  -13.1765   20.9638 C   0  0  0  0  0  0
  -25.2497  -13.8205   20.5685 C   0  0  0  0  0  0
  -24.1822  -13.0432   20.9245 C   0  0  0  0  0  0
  -24.6413  -11.6910   20.8778 C   0  0  0  0  0  0
  -23.9086  -10.4301   21.0429 C   0  0  0  0  0  0
  -24.3632   -9.4226   21.9196 C   0  0  0  0  0  0
  -23.6301   -8.2264   22.0752 C   0  0  0  0  0  0
  -22.4278   -8.0305   21.3556 C   0  0  0  0  0  0
  -21.9929   -9.0267   20.4649 C   0  0  0  0  0  0
  -22.7263  -10.2145   20.3077 C   0  0  0  0  0  0
  -21.6837   -6.0775   22.5283 C   0  0  0  0  0  0
  -21.4008   -6.5663   23.8223 C   0  0  0  0  0  0
  -21.3664   -5.6808   24.9176 C   0  0  0  0  0  0
  -21.6039   -4.3070   24.7228 C   0  0  0  0  0  0
  -21.8818   -3.8177   23.4347 C   0  0  0  0  0  0
  -21.9196   -4.7004   22.3408 C   0  0  0  0  0  0
  -22.7838  -13.5202   21.1899 C   0  0  0  0  0  0
  -22.1678   -4.2193   21.0989 F   0  0  0  0  0  0
  -21.5602   -3.4548   25.7745 F   0  0  0  0  0  0
  -29.9733  -13.5535   20.3670 N   0  0  0  0  0  0
  -26.2895  -12.9402   20.3211 N   0  0  0  0  0  0
  -25.9324  -11.6551   20.5709 N   0  0  0  0  0  0
  -22.0518  -12.8169   22.0454 N   0  0  0  0  0  0
  -25.4124  -15.1944   20.4061 N   0  0  0  0  0  0
  -31.7859  -14.8947   20.2247 O   0  0  0  0  0  0
  -21.6651   -6.8910   21.4242 O   0  0  0  0  0  0
  -22.3504  -14.5510   20.6758 O   0  0  0  0  0  0
  -24.6377  -31.8473   23.1885 C   0  0  0  0  0  0
  -25.9181  -32.4711   23.8266 C   0  0  1  0  0  0
  -27.2428  -27.2268   20.1332 C   0  0  0  0  0  0
  -25.5935  -33.8511   24.2183 N   0  0  0  0  0  0
  -23.4366  -30.4625   21.5334 C   0  0  2  0  0  0
  -24.8872  -28.8916   20.1167 C   0  0  0  0  0  0
  -22.7536  -29.4559   22.4921 C   0  0  0  0  0  0
  -18.0295  -28.1383   22.8500 C   0  0  0  0  0  0
  -24.1505  -36.7261   23.2643 C   0  0  0  0  0  0
  -25.9826  -30.7521   21.3659 C   0  0  0  0  0  0
  -26.0605  -29.3663   20.7163 C   0  0  0  0  0  0
  -27.2412  -28.5521   20.7016 C   0  0  0  0  0  0
  -26.0412  -26.8156   19.5209 C   0  0  0  0  0  0
  -24.8848  -27.6258   19.5066 C   0  0  0  0  0  0
  -23.6549  -29.7774   20.1568 C   0  0  0  0  0  0
  -25.4138  -36.3034   24.0320 C   0  0  1  0  0  0
  -20.5898  -28.3690   23.1273 C   0  0  2  0  0  0
  -20.6766  -26.9390   22.5434 C   0  0  0  0  0  0
  -19.5737  -26.6365   21.5238 C   0  0  0  0  0  0
  -18.1918  -26.7939   22.1630 C   0  0  0  0  0  0
  -19.1554  -28.8872   23.2881 C   0  0  0  0  0  0
  -18.9466  -30.1478   23.8888 C   0  0  0  0  0  0
  -17.6472  -30.6578   24.0576 C   0  0  0  0  0  0
  -25.9088  -34.9409   23.5056 C   0  0  0  0  0  0
  -16.5359  -29.9076   23.6336 C   0  0  0  0  0  0
  -16.7290  -28.6487   23.0366 C   0  0  0  0  0  0
  -26.4525  -31.6560   25.0675 C   0  0  0  0  0  0
  -25.3734  -31.3686   26.1377 C   0  0  0  0  0  0
  -27.0371  -30.2986   24.6163 C   0  0  0  0  0  0
  -27.6081  -32.4311   25.7435 C   0  0  0  0  0  0
  -27.5586  -37.1771   24.8461 C   0  0  0  0  0  0
  -21.4233  -29.3020   22.3650 N   0  0  0  0  0  0
  -26.4291  -37.3756   23.9422 N   0  0  0  0  0  0
  -24.7054  -31.0421   22.0842 N   0  0  0  0  0  0
  -23.4209  -28.8128   23.3070 O   0  0  0  0  0  0
  -28.3612  -26.3503   20.1451 O   0  0  0  0  0  0
  -26.5686  -34.8902   22.4639 O   0  0  0  0  0  0
  -23.5516  -32.1275   23.7171 O   0  0  0  0  0  0
  -28.2287  -22.2848   19.4578 C   0  0  0  0  0  0
  -29.2795  -22.7255   21.6327 C   0  0  0  0  0  0
  -28.3290  -23.8551   19.1291 C   0  0  0  0  0  0
  -29.3604  -24.2746   21.2821 C   0  0  0  0  0  0
  -29.2936  -21.6682   20.4523 C   0  0  1  0  0  0
  -28.2345  -24.8472   20.3561 C   0  0  1  0  0  0
  -27.7403  -19.8516   21.4950 C   0  0  0  0  0  0
  -28.6347  -18.3548   19.0525 C   0  0  0  0  0  0
  -30.9799  -19.0654   19.4137 C   0  0  0  0  0  0
  -29.9979  -17.3642   21.0301 C   0  0  0  0  0  0
  -29.1682  -20.0804   20.9533 C   0  0  1  0  0  0
  -29.6672  -18.7178   20.1397 C   0  0  0  0  0  0
  -29.7553  -15.9104   20.5753 N   0  0  0  0  0  0
  -31.4685  -12.6432   19.1312 H   0  0  0  0  0  0
  -30.3997  -11.5132   19.9326 H   0  0  0  0  0  0
  -29.7778  -11.7393   17.5010 H   0  0  0  0  0  0
  -29.6246  -13.4687   17.6916 H   0  0  0  0  0  0
  -27.8722  -11.2914   18.8714 H   0  0  0  0  0  0
  -27.3772  -12.5517   17.7790 H   0  0  0  0  0  0
  -27.6158  -14.2554   19.4532 H   0  0  0  0  0  0
  -28.7345  -12.1762   21.3988 H   0  0  0  0  0  0
  -28.4100  -13.8536   21.7754 H   0  0  0  0  0  0
  -25.2795   -9.5662   22.4742 H   0  0  0  0  0  0
  -23.9991   -7.4649   22.7457 H   0  0  0  0  0  0
  -21.0867   -8.8790   19.8954 H   0  0  0  0  0  0
  -22.3737  -10.9663   19.6168 H   0  0  0  0  0  0
  -21.2012   -7.6168   23.9719 H   0  0  0  0  0  0
  -21.1452   -6.0562   25.9065 H   0  0  0  0  0  0
  -22.0592   -2.7640   23.2846 H   0  0  0  0  0  0
  -22.4169  -11.9788   22.4746 H   0  0  0  0  0  0
  -21.1138  -13.1166   22.2694 H   0  0  0  0  0  0
  -24.6239  -15.8289   20.4745 H   0  0  0  0  0  0
  -26.2228  -15.6243   19.9801 H   0  0  0  0  0  0
  -26.7255  -32.5341   23.1019 H   0  0  0  0  0  0
  -25.0053  -33.9646   25.0303 H   0  0  0  0  0  0
  -22.7373  -31.2853   21.3740 H   0  0  0  0  0  0
  -23.3774  -35.9579   23.3267 H   0  0  0  0  0  0
  -24.3591  -36.8935   22.2061 H   0  0  0  0  0  0
  -23.7252  -37.6443   23.6708 H   0  0  0  0  0  0
  -26.1219  -31.5074   20.5906 H   0  0  0  0  0  0
  -26.8607  -30.8102   21.9976 H   0  0  0  0  0  0
  -28.1450  -28.9192   21.1696 H   0  0  0  0  0  0
  -25.9857  -25.8409   19.0560 H   0  0  0  0  0  0
  -23.9880  -27.2481   19.0365 H   0  0  0  0  0  0
  -23.7713  -30.5370   19.3834 H   0  0  0  0  0  0
  -22.7775  -29.1985   19.8655 H   0  0  0  0  0  0
  -25.1331  -36.1854   25.0817 H   0  0  0  0  0  0
  -21.0006  -28.3271   24.1392 H   0  0  0  0  0  0
  -20.5633  -26.2312   23.3652 H   0  0  0  0  0  0
  -21.6642  -26.7382   22.1251 H   0  0  0  0  0  0
  -19.6884  -25.6277   21.1259 H   0  0  0  0  0  0
  -19.6685  -27.3196   20.6776 H   0  0  0  0  0  0
  -17.4201  -26.6746   21.4001 H   0  0  0  0  0  0
  -18.0270  -26.0069   22.8998 H   0  0  0  0  0  0
  -19.7948  -30.7305   24.2220 H   0  0  0  0  0  0
  -17.5006  -31.6254   24.5184 H   0  0  0  0  0  0
  -15.5356  -30.2966   23.7638 H   0  0  0  0  0  0
  -15.8695  -28.0790   22.7083 H   0  0  0  0  0  0
  -24.6047  -30.6876   25.7719 H   0  0  0  0  0  0
  -24.8751  -32.2798   26.4680 H   0  0  0  0  0  0
  -25.8062  -30.9005   27.0221 H   0  0  0  0  0  0
  -26.2932  -29.6729   24.1218 H   0  0  0  0  0  0
  -27.4089  -29.7286   25.4686 H   0  0  0  0  0  0
  -27.8794  -30.4297   23.9370 H   0  0  0  0  0  0
  -27.2729  -33.3640   26.1986 H   0  0  0  0  0  0
  -28.3878  -32.6823   25.0232 H   0  0  0  0  0  0
  -28.0762  -31.8438   26.5351 H   0  0  0  0  0  0
  -28.2579  -38.0096   24.7554 H   0  0  0  0  0  0
  -28.1102  -36.2618   24.6227 H   0  0  0  0  0  0
  -27.2297  -37.1360   25.8863 H   0  0  0  0  0  0
  -20.9429  -29.8730   21.6837 H   0  0  0  0  0  0
  -26.0141  -38.2805   24.1467 H   0  0  0  0  0  0
  -28.2751  -21.7302   18.5207 H   0  0  0  0  0  0
  -27.2301  -22.0996   19.8546 H   0  0  0  0  0  0
  -28.3717  -22.5943   22.2199 H   0  0  0  0  0  0
  -30.0972  -22.4943   22.3172 H   0  0  0  0  0  0
  -27.5550  -24.1117   18.4045 H   0  0  0  0  0  0
  -29.2743  -24.0315   18.6130 H   0  0  0  0  0  0
  -30.3295  -24.4799   20.8260 H   0  0  0  0  0  0
  -29.3596  -24.8415   22.2137 H   0  0  0  0  0  0
  -30.2701  -21.7666   19.9776 H   0  0  0  0  0  0
  -27.2805  -24.6689   20.8541 H   0  0  0  0  0  0
  -27.4367  -20.6255   22.1977 H   0  0  0  0  0  0
  -27.6383  -18.8974   22.0100 H   0  0  0  0  0  0
  -27.0084  -19.8564   20.6892 H   0  0  0  0  0  0
  -29.0422  -17.6279   18.3484 H   0  0  0  0  0  0
  -28.3415  -19.2346   18.4754 H   0  0  0  0  0  0
  -27.7331  -17.9153   19.4789 H   0  0  0  0  0  0
  -31.3420  -18.2296   18.8095 H   0  0  0  0  0  0
  -31.7741  -19.3164   20.1189 H   0  0  0  0  0  0
  -30.8499  -19.9127   18.7395 H   0  0  0  0  0  0
  -29.4029  -17.4337   21.9402 H   0  0  0  0  0  0
  -31.0243  -17.4189   21.3902 H   0  0  0  0  0  0
  -29.8133  -20.0642   21.8342 H   0  0  0  0  0  0
  -28.7768  -15.6703   20.5472 H   0  0  0  0  0  0
  1 25  1  0  0  0
  1 30  2  0  0  0
  1 83  1  0  0  0
  2  3  1  0  0  0
  2 25  1  0  0  0
  2 84  1  0  0  0
  2 85  1  0  0  0
  3  4  1  0  0  0
  3 86  1  0  0  0
  3 87  1  0  0  0
  4  5  1  0  0  0
  4 88  1  0  0  0
  4 89  1  0  0  0
  5  6  1  0  0  0
  5 26  1  0  0  0
  5 90  1  0  0  0
  6 25  1  0  0  0
  6 91  1  0  0  0
  6 92  1  0  0  0
  7  8  2  0  0  0
  7 26  1  0  0  0
  7 29  1  0  0  0
  8  9  1  0  0  0
  8 22  1  0  0  0
  9 10  1  0  0  0
  9 27  2  0  0  0
 10 11  2  0  0  0
 10 15  1  0  0  0
 11 12  1  0  0  0
 11 93  1  0  0  0
 12 13  2  0  0  0
 12 94  1  0  0  0
 13 14  1  0  0  0
 13 31  1  0  0  0
 14 15  2  0  0  0
 14 95  1  0  0  0
 15 96  1  0  0  0
 16 17  2  0  0  0
 16 21  1  0  0  0
 16 31  1  0  0  0
 17 18  1  0  0  0
 17 97  1  0  0  0
 18 19  2  0  0  0
 18 98  1  0  0  0
 19 20  1  0  0  0
 19 24  1  0  0  0
 20 21  2  0  0  0
 20 99  1  0  0  0
 21 23  1  0  0  0
 22 28  1  0  0  0
 22 32  2  0  0  0
 26 27  1  0  0  0
 28100  1  0  0  0
 28101  1  0  0  0
 29102  1  0  0  0
 29103  1  0  0  0
 33 34  1  0  0  0
 33 66  1  0  0  0
 33 70  2  0  0  0
 34 36  1  0  0  0
 34 59  1  0  0  0
 34104  1  0  0  0
 35 44  2  0  0  0
 35 45  1  0  0  0
 35 68  1  0  0  0
 36 56  1  0  0  0
 36105  1  0  0  0
 37 39  1  0  0  0
 37 47  1  0  0  0
 37 66  1  0  0  0
 37106  1  0  0  0
 38 43  2  0  0  0
 38 46  1  0  0  0
 38 47  1  0  0  0
 39 64  1  0  0  0
 39 67  2  0  0  0
 40 52  1  0  0  0
 40 53  2  0  0  0
 40 58  1  0  0  0
 41107  1  0  0  0
 41108  1  0  0  0
 41109  1  0  0  0
 41 48  1  0  0  0
 42 43  1  0  0  0
 42 66  1  0  0  0
 42110  1  0  0  0
 42111  1  0  0  0
 43 44  1  0  0  0
 44112  1  0  0  0
 45 46  2  0  0  0
 45113  1  0  0  0
 46114  1  0  0  0
 47115  1  0  0  0
 47116  1  0  0  0
 48 56  1  0  0  0
 48 65  1  0  0  0
 48117  1  0  0  0
 49 50  1  0  0  0
 49 53  1  0  0  0
 49 64  1  0  0  0
 49118  1  0  0  0
 50 51  1  0  0  0
 50119  1  0  0  0
 50120  1  0  0  0
 51 52  1  0  0  0
 51121  1  0  0  0
 51122  1  0  0  0
 52123  1  0  0  0
 52124  1  0  0  0
 53 54  1  0  0  0
 54 55  2  0  0  0
 54125  1  0  0  0
 55 57  1  0  0  0
 55126  1  0  0  0
 56 69  2  0  0  0
 57 58  2  0  0  0
 57127  1  0  0  0
 58128  1  0  0  0
 59 60  1  0  0  0
 59 61  1  0  0  0
 59 62  1  0  0  0
 60129  1  0  0  0
 60130  1  0  0  0
 60131  1  0  0  0
 61132  1  0  0  0
 61133  1  0  0  0
 61134  1  0  0  0
 62135  1  0  0  0
 62136  1  0  0  0
 62137  1  0  0  0
 63 65  1  0  0  0
 63138  1  0  0  0
 63139  1  0  0  0
 63140  1  0  0  0
 64141  1  0  0  0
 65142  1  0  0  0
 68 76  1  0  0  0
 71 73  1  0  0  0
 71143  1  0  0  0
 71144  1  0  0  0
 71 75  1  0  0  0
 72 74  1  0  0  0
 72 75  1  0  0  0
 72145  1  0  0  0
 72146  1  0  0  0
 73 76  1  0  0  0
 73147  1  0  0  0
 73148  1  0  0  0
 74 76  1  0  0  0
 74149  1  0  0  0
 74150  1  0  0  0
 75 81  1  0  0  0
 75151  1  0  0  0
 76152  1  0  0  0
 77153  1  0  0  0
 77154  1  0  0  0
 77155  1  0  0  0
 77 81  1  0  0  0
 78156  1  0  0  0
 78157  1  0  0  0
 78158  1  0  0  0
 78 82  1  0  0  0
 79 82  1  0  0  0
 79159  1  0  0  0
 79160  1  0  0  0
 79161  1  0  0  0
 80 82  1  0  0  0
 80 83  1  0  0  0
 80162  1  0  0  0
 80163  1  0  0  0
 81 82  1  0  0  0
 81164  1  0  0  0
 83165  1  0  0  0
M  ISO  4   1 100  68 101  76 101  83 100
M  END
> <chiral flag>
0

> <version>
0

> <s_m_source_file>
/data/baiqing/PycharmProjects/Reinvent-master-3.2/result/LINK_invent/BTK/process_docking_weight1_custom_sum_contain_oxygen_bond_distance_aromatic_linkinvent_7_9_3/rearranged_h_0113.sdf

> <i_m_source_file_index>
96

> <r_mmod_Potential_Energy-OPLS-2005>
282.761962890625

> <r_mmod_Stretch_Energy-OPLS-2005>
166.259719848633

> <r_mmod_Bend_Energy-OPLS-2005>
226.2275390625

> <r_mmod_Torsional_Energy-OPLS-2005>
282.526428222656

> <r_mmod_Improper_Torsional_Energy-OPLS-2005>
5.39974927902222

> <r_mmod_Van_der_Waal_Energy-OPLS-2005>
113.644805908203

> <r_mmod_Electrostatic_Energy-OPLS-2005>
-425.608642578125

> <r_mmod_Solvation_Energy-OPLS-2005>
-190.90495300293

> <b_mmod_Minimization_Converged-OPLS-2005>
0

> <r_mmod_RMS_Derivative-OPLS-2005>
4.09098815917969

$$$$
98
                    3D
 Structure written by MMmdl.
164172  0  0  1  0            999 V2000
  -30.7766  -14.3518   20.6316 C   0  0  0  0  0  0
  -30.4058  -12.2611   19.3835 C   0  0  0  0  0  0
  -29.4820  -12.5021   18.1763 C   0  0  0  0  0  0
  -28.0026  -12.3703   18.5880 C   0  0  0  0  0  0
  -27.6609  -13.1926   19.8621 C   0  0  2  0  0  0
  -28.6988  -12.9456   20.9752 C   0  0  0  0  0  0
  -25.2611  -13.8094   20.5623 C   0  0  0  0  0  0
  -24.1846  -13.0401   20.9178 C   0  0  0  0  0  0
  -24.6374  -11.6862   20.8710 C   0  0  0  0  0  0
  -23.9022  -10.4265   21.0396 C   0  0  0  0  0  0
  -24.3577   -9.4179   21.9172 C   0  0  0  0  0  0
  -23.6263   -8.2205   22.0731 C   0  0  0  0  0  0
  -22.4242   -8.0257   21.3521 C   0  0  0  0  0  0
  -21.9878   -9.0218   20.4617 C   0  0  0  0  0  0
  -22.7194  -10.2108   20.3036 C   0  0  0  0  0  0
  -21.6819   -6.0734   22.5287 C   0  0  0  0  0  0
  -21.3994   -6.5642   23.8227 C   0  0  0  0  0  0
  -21.3659   -5.6793   24.9188 C   0  0  0  0  0  0
  -21.6047   -4.3058   24.7230 C   0  0  0  0  0  0
  -21.8801   -3.8146   23.4349 C   0  0  0  0  0  0
  -21.9171   -4.6963   22.3402 C   0  0  0  0  0  0
  -22.7876  -13.5229   21.1844 C   0  0  0  0  0  0
  -22.1632   -4.2148   21.0986 F   0  0  0  0  0  0
  -21.5641   -3.4542   25.7743 F   0  0  0  0  0  0
  -30.0397  -13.2263   20.4314 N   0  0  0  0  0  0
  -26.3026  -12.9246   20.3286 N   0  0  0  0  0  0
  -25.9294  -11.6416   20.5700 N   0  0  0  0  0  0
  -22.0479  -12.8265   22.0417 N   0  0  0  0  0  0
  -25.4328  -15.1809   20.3997 N   0  0  0  0  0  0
  -31.8734  -14.5349   20.0907 O   0  0  0  0  0  0
  -21.6598   -6.8862   21.4239 O   0  0  0  0  0  0
  -22.3573  -14.5519   20.6659 O   0  0  0  0  0  0
  -24.6064  -31.8711   23.2138 C   0  0  0  0  0  0
  -25.8977  -32.4847   23.8406 C   0  0  1  0  0  0
  -27.2364  -27.4869   20.0768 C   0  0  0  0  0  0
  -25.5864  -33.8647   24.2332 N   0  0  0  0  0  0
  -23.3894  -30.4932   21.5568 C   0  0  2  0  0  0
  -24.8309  -28.9557   20.1266 C   0  0  0  0  0  0
  -22.7347  -29.4664   22.5066 C   0  0  0  0  0  0
  -18.0253  -28.1361   22.8513 C   0  0  0  0  0  0
  -24.1480  -36.7314   23.2641 C   0  0  0  0  0  0
  -25.9104  -30.8506   21.3561 C   0  0  0  0  0  0
  -25.9868  -29.4859   20.7094 C   0  0  0  0  0  0
  -27.1891  -28.7552   20.6855 C   0  0  0  0  0  0
  -26.0585  -26.9443   19.5141 C   0  0  0  0  0  0
  -24.8570  -27.6778   19.5385 C   0  0  0  0  0  0
  -23.5909  -29.8168   20.1741 C   0  0  0  0  0  0
  -25.4104  -36.3124   24.0342 C   0  0  1  0  0  0
  -20.5834  -28.3632   23.1369 C   0  0  2  0  0  0
  -20.6748  -26.9381   22.5439 C   0  0  0  0  0  0
  -19.5723  -26.6382   21.5231 C   0  0  0  0  0  0
  -18.1900  -26.7914   22.1639 C   0  0  0  0  0  0
  -19.1501  -28.8815   23.2938 C   0  0  0  0  0  0
  -18.9433  -30.1432   23.8926 C   0  0  0  0  0  0
  -17.6438  -30.6580   24.0567 C   0  0  0  0  0  0
  -25.9028  -34.9490   23.5135 C   0  0  0  0  0  0
  -16.5328  -29.9086   23.6323 C   0  0  0  0  0  0
  -16.7245  -28.6497   23.0356 C   0  0  0  0  0  0
  -26.4445  -31.6623   25.0709 C   0  0  0  0  0  0
  -25.3759  -31.3709   26.1504 C   0  0  0  0  0  0
  -27.0245  -30.3072   24.6025 C   0  0  0  0  0  0
  -27.6020  -32.4360   25.7453 C   0  0  0  0  0  0
  -27.5579  -37.1805   24.8471 C   0  0  0  0  0  0
  -21.4093  -29.3006   22.3781 N   0  0  0  0  0  0
  -26.4291  -37.3806   23.9414 N   0  0  0  0  0  0
  -24.6534  -31.0854   22.1014 N   0  0  0  0  0  0
  -23.4159  -28.8215   23.3083 O   0  0  0  0  0  0
  -28.4606  -26.8705   20.0450 O   0  0  0  0  0  0
  -26.5596  -34.8935   22.4696 O   0  0  0  0  0  0
  -23.5273  -32.1443   23.7580 O   0  0  0  0  0  0
  -29.8252  -18.0706   18.8508 C   0  0  0  0  0  0
  -29.7181  -16.8135   19.4668 C   0  0  0  0  0  0
  -30.6288  -18.9206   20.9623 C   0  0  0  0  0  0
  -30.3333  -19.1387   19.6052 C   0  0  0  0  0  0
  -30.1396  -16.6433   20.8099 C   0  0  0  0  0  0
  -31.8607  -23.5230   20.2737 C   0  0  0  0  0  0
  -30.3409  -15.2012   22.8256 C   0  0  0  0  0  0
  -30.6378  -20.4839   18.9713 C   0  0  0  0  0  0
  -30.0476  -25.1782   19.7614 C   0  0  0  0  0  0
  -29.4904  -21.4990   19.0980 C   0  0  0  0  0  0
  -28.5491  -25.5015   19.7101 C   0  0  0  0  0  0
  -30.3607  -23.6884   19.9586 C   0  0  1  0  0  0
  -30.5250  -17.7127   21.5477 N   0  0  0  0  0  0
  -30.2055  -15.3278   21.3686 N   0  0  0  0  0  0
  -29.9194  -22.8827   18.7877 N   0  3  0  0  0  0
  -31.4511  -12.3336   19.0787 H   0  0  0  0  0  0
  -30.2828  -11.2413   19.7558 H   0  0  0  0  0  0
  -29.7127  -11.7931   17.3797 H   0  0  0  0  0  0
  -29.6593  -13.4918   17.7523 H   0  0  0  0  0  0
  -27.7911  -11.3114   18.7479 H   0  0  0  0  0  0
  -27.3628  -12.6779   17.7595 H   0  0  0  0  0  0
  -27.7133  -14.2453   19.5863 H   0  0  0  0  0  0
  -28.6568  -11.9044   21.2956 H   0  0  0  0  0  0
  -28.4491  -13.5309   21.8602 H   0  0  0  0  0  0
  -25.2712   -9.5674   22.4750 H   0  0  0  0  0  0
  -23.9972   -7.4601   22.7437 H   0  0  0  0  0  0
  -21.0818   -8.8725   19.8916 H   0  0  0  0  0  0
  -22.3634  -10.9647   19.6149 H   0  0  0  0  0  0
  -21.1959   -7.6147   23.9733 H   0  0  0  0  0  0
  -21.1513   -6.0528   25.9102 H   0  0  0  0  0  0
  -22.0570   -2.7608   23.2844 H   0  0  0  0  0  0
  -22.4053  -11.9972   22.4927 H   0  0  0  0  0  0
  -21.1040  -13.1229   22.2443 H   0  0  0  0  0  0
  -24.6606  -15.8311   20.4951 H   0  0  0  0  0  0
  -26.2918  -15.6249   20.0983 H   0  0  0  0  0  0
  -26.7037  -32.5572   23.1167 H   0  0  0  0  0  0
  -25.0018  -33.9828   25.0480 H   0  0  0  0  0  0
  -22.6755  -31.3073   21.4183 H   0  0  0  0  0  0
  -23.3752  -35.9642   23.3323 H   0  0  0  0  0  0
  -24.3567  -36.8909   22.2051 H   0  0  0  0  0  0
  -23.7228  -37.6522   23.6644 H   0  0  0  0  0  0
  -26.0078  -31.6143   20.5838 H   0  0  0  0  0  0
  -26.8037  -30.9114   21.9648 H   0  0  0  0  0  0
  -28.0865  -29.1671   21.1264 H   0  0  0  0  0  0
  -26.0505  -25.9713   19.0460 H   0  0  0  0  0  0
  -23.9596  -27.2550   19.1083 H   0  0  0  0  0  0
  -23.6925  -30.5870   19.4092 H   0  0  0  0  0  0
  -22.7166  -29.2312   19.8855 H   0  0  0  0  0  0
  -25.1283  -36.1990   25.0839 H   0  0  0  0  0  0
  -20.9924  -28.3180   24.1492 H   0  0  0  0  0  0
  -20.5670  -26.2229   23.3610 H   0  0  0  0  0  0
  -21.6617  -26.7442   22.1211 H   0  0  0  0  0  0
  -19.6888  -25.6305   21.1229 H   0  0  0  0  0  0
  -19.6669  -27.3225   20.6787 H   0  0  0  0  0  0
  -17.4182  -26.6687   21.4027 H   0  0  0  0  0  0
  -18.0282  -26.0036   22.9008 H   0  0  0  0  0  0
  -19.7917  -30.7239   24.2303 H   0  0  0  0  0  0
  -17.4999  -31.6271   24.5152 H   0  0  0  0  0  0
  -15.5333  -30.2999   23.7627 H   0  0  0  0  0  0
  -15.8648  -28.0825   22.7058 H   0  0  0  0  0  0
  -24.5905  -30.7076   25.7875 H   0  0  0  0  0  0
  -24.8992  -32.2863   26.5022 H   0  0  0  0  0  0
  -25.8170  -30.8846   27.0215 H   0  0  0  0  0  0
  -26.2731  -29.6856   24.1143 H   0  0  0  0  0  0
  -27.4100  -29.7289   25.4429 H   0  0  0  0  0  0
  -27.8537  -30.4405   23.9072 H   0  0  0  0  0  0
  -27.2619  -33.3645   26.2058 H   0  0  0  0  0  0
  -28.3800  -32.6970   25.0262 H   0  0  0  0  0  0
  -28.0727  -31.8490   26.5348 H   0  0  0  0  0  0
  -28.2623  -38.0080   24.7511 H   0  0  0  0  0  0
  -28.1046  -36.2613   24.6308 H   0  0  0  0  0  0
  -27.2293  -37.1477   25.8875 H   0  0  0  0  0  0
  -20.9238  -29.8708   21.6998 H   0  0  0  0  0  0
  -26.0183  -38.2883   24.1436 H   0  0  0  0  0  0
  -29.5694  -18.1949   17.8084 H   0  0  0  0  0  0
  -29.3837  -15.9759   18.8712 H   0  0  0  0  0  0
  -31.0003  -19.7214   21.5857 H   0  0  0  0  0  0
  -32.1515  -24.1868   21.0884 H   0  0  0  0  0  0
  -32.4919  -23.7717   19.4208 H   0  0  0  0  0  0
  -32.1116  -22.5202   20.6105 H   0  0  0  0  0  0
  -31.3126  -15.5852   23.1399 H   0  0  0  0  0  0
  -30.2666  -14.1662   23.1688 H   0  0  0  0  0  0
  -29.5693  -15.7759   23.3363 H   0  0  0  0  0  0
  -30.8849  -20.3356   17.9191 H   0  0  0  0  0  0
  -31.5524  -20.8509   19.4290 H   0  0  0  0  0  0
  -30.4710  -25.7204   20.6084 H   0  0  0  0  0  0
  -30.5515  -25.5747   18.8791 H   0  0  0  0  0  0
  -29.0339  -21.4582   20.0872 H   0  0  0  0  0  0
  -28.7005  -21.2240   18.3973 H   0  0  0  0  0  0
  -27.9880  -24.9173   20.4410 H   0  0  0  0  0  0
  -28.1535  -25.2940   18.7150 H   0  0  0  0  0  0
  -29.8017  -23.3744   20.8425 H   0  0  0  0  0  0
  -29.1006  -23.3338   18.4149 H   0  0  0  0  0  0
  -30.6059  -22.8935   18.0503 H   0  0  0  0  0  0
  1 25  1  0  0  0
  1 30  2  0  0  0
  1 84  1  0  0  0
  2  3  1  0  0  0
  2 25  1  0  0  0
  2 86  1  0  0  0
  2 87  1  0  0  0
  3  4  1  0  0  0
  3 88  1  0  0  0
  3 89  1  0  0  0
  4  5  1  0  0  0
  4 90  1  0  0  0
  4 91  1  0  0  0
  5  6  1  0  0  0
  5 26  1  0  0  0
  5 92  1  0  0  0
  6 25  1  0  0  0
  6 93  1  0  0  0
  6 94  1  0  0  0
  7  8  2  0  0  0
  7 26  1  0  0  0
  7 29  1  0  0  0
  8  9  1  0  0  0
  8 22  1  0  0  0
  9 10  1  0  0  0
  9 27  2  0  0  0
 10 11  2  0  0  0
 10 15  1  0  0  0
 11 12  1  0  0  0
 11 95  1  0  0  0
 12 13  2  0  0  0
 12 96  1  0  0  0
 13 14  1  0  0  0
 13 31  1  0  0  0
 14 15  2  0  0  0
 14 97  1  0  0  0
 15 98  1  0  0  0
 16 17  2  0  0  0
 16 21  1  0  0  0
 16 31  1  0  0  0
 17 18  1  0  0  0
 17 99  1  0  0  0
 18 19  2  0  0  0
 18100  1  0  0  0
 19 20  1  0  0  0
 19 24  1  0  0  0
 20 21  2  0  0  0
 20101  1  0  0  0
 21 23  1  0  0  0
 22 28  1  0  0  0
 22 32  2  0  0  0
 26 27  1  0  0  0
 28102  1  0  0  0
 28103  1  0  0  0
 29104  1  0  0  0
 29105  1  0  0  0
 33 34  1  0  0  0
 33 66  1  0  0  0
 33 70  2  0  0  0
 34 36  1  0  0  0
 34 59  1  0  0  0
 34106  1  0  0  0
 35 44  2  0  0  0
 35 45  1  0  0  0
 35 68  1  0  0  0
 36 56  1  0  0  0
 36107  1  0  0  0
 37 39  1  0  0  0
 37 47  1  0  0  0
 37 66  1  0  0  0
 37108  1  0  0  0
 38 43  2  0  0  0
 38 46  1  0  0  0
 38 47  1  0  0  0
 39 64  1  0  0  0
 39 67  2  0  0  0
 40 52  1  0  0  0
 40 53  2  0  0  0
 40 58  1  0  0  0
 41109  1  0  0  0
 41110  1  0  0  0
 41111  1  0  0  0
 41 48  1  0  0  0
 42 43  1  0  0  0
 42 66  1  0  0  0
 42112  1  0  0  0
 42113  1  0  0  0
 43 44  1  0  0  0
 44114  1  0  0  0
 45 46  2  0  0  0
 45115  1  0  0  0
 46116  1  0  0  0
 47117  1  0  0  0
 47118  1  0  0  0
 48 56  1  0  0  0
 48 65  1  0  0  0
 48119  1  0  0  0
 49 50  1  0  0  0
 49 53  1  0  0  0
 49 64  1  0  0  0
 49120  1  0  0  0
 50 51  1  0  0  0
 50121  1  0  0  0
 50122  1  0  0  0
 51 52  1  0  0  0
 51123  1  0  0  0
 51124  1  0  0  0
 52125  1  0  0  0
 52126  1  0  0  0
 53 54  1  0  0  0
 54 55  2  0  0  0
 54127  1  0  0  0
 55 57  1  0  0  0
 55128  1  0  0  0
 56 69  2  0  0  0
 57 58  2  0  0  0
 57129  1  0  0  0
 58130  1  0  0  0
 59 60  1  0  0  0
 59 61  1  0  0  0
 59 62  1  0  0  0
 60131  1  0  0  0
 60132  1  0  0  0
 60133  1  0  0  0
 61134  1  0  0  0
 61135  1  0  0  0
 61136  1  0  0  0
 62137  1  0  0  0
 62138  1  0  0  0
 62139  1  0  0  0
 63 65  1  0  0  0
 63140  1  0  0  0
 63141  1  0  0  0
 63142  1  0  0  0
 64143  1  0  0  0
 65144  1  0  0  0
 68 81  1  0  0  0
 71 72  2  0  0  0
 71 74  1  0  0  0
 71145  1  0  0  0
 72 75  1  0  0  0
 72146  1  0  0  0
 73 74  2  0  0  0
 73 83  1  0  0  0
 73147  1  0  0  0
 74 78  1  0  0  0
 75 83  2  0  0  0
 75 84  1  0  0  0
 76148  1  0  0  0
 76149  1  0  0  0
 76150  1  0  0  0
 76 82  1  0  0  0
 77 84  1  0  0  0
 77151  1  0  0  0
 77152  1  0  0  0
 77153  1  0  0  0
 78 80  1  0  0  0
 78154  1  0  0  0
 78155  1  0  0  0
 79 81  1  0  0  0
 79 82  1  0  0  0
 79156  1  0  0  0
 79157  1  0  0  0
 80 85  1  0  0  0
 80158  1  0  0  0
 80159  1  0  0  0
 81160  1  0  0  0
 81161  1  0  0  0
 82 85  1  0  0  0
 82162  1  0  0  0
 85163  1  0  0  0
 85164  1  0  0  0
M  CHG  1  85   1
M  ISO  4   1 100  68 101  81 101  84 100
M  END
> <chiral flag>
0

> <version>
0

> <s_m_source_file>
/data/baiqing/PycharmProjects/Reinvent-master-3.2/result/LINK_invent/BTK/process_docking_weight1_custom_sum_contain_oxygen_bond_distance_aromatic_linkinvent_7_9_3/rearranged_h_0113.sdf

> <i_m_source_file_index>
97

> <r_mmod_Potential_Energy-OPLS-2005>
-189.640411376953

> <r_mmod_Stretch_Energy-OPLS-2005>
32.6987991333008

> <r_mmod_Bend_Energy-OPLS-2005>
107.65315246582

> <r_mmod_Torsional_Energy-OPLS-2005>
292.78759765625

> <r_mmod_Improper_Torsional_Energy-OPLS-2005>
4.96683502197266

> <r_mmod_Van_der_Waal_Energy-OPLS-2005>
165.520706176758

> <r_mmod_Electrostatic_Energy-OPLS-2005>
-332.982177734375

> <r_mmod_Solvation_Energy-OPLS-2005>
-472.143829345703

> <b_mmod_Minimization_Converged-OPLS-2005>
0

> <r_mmod_RMS_Derivative-OPLS-2005>
3.02775263786316

$$$$
