0
                    3D
 Structure written by MMmdl.
174182  0  0  1  0            999 V2000
  -30.6873  -14.5100   20.5440 C   0  0  0  0  0  0
  -30.4352  -12.3282   19.4338 C   0  0  0  0  0  0
  -29.5028  -12.4909   18.2161 C   0  0  0  0  0  0
  -28.0272  -12.3398   18.6360 C   0  0  0  0  0  0
  -27.6565  -13.2107   19.8661 C   0  0  2  0  0  0
  -28.6976  -13.0297   20.9925 C   0  0  0  0  0  0
  -25.2536  -13.8156   20.5652 C   0  0  0  0  0  0
  -24.1808  -13.0446   20.9175 C   0  0  0  0  0  0
  -24.6364  -11.6901   20.8727 C   0  0  0  0  0  0
  -23.9025  -10.4289   21.0399 C   0  0  0  0  0  0
  -24.3574   -9.4213   21.9186 C   0  0  0  0  0  0
  -23.6268   -8.2243   22.0759 C   0  0  0  0  0  0
  -22.4258   -8.0255   21.3551 C   0  0  0  0  0  0
  -21.9877   -9.0222   20.4649 C   0  0  0  0  0  0
  -22.7186  -10.2116   20.3058 C   0  0  0  0  0  0
  -21.6848   -6.0703   22.5268 C   0  0  0  0  0  0
  -21.4010   -6.5616   23.8194 C   0  0  0  0  0  0
  -21.3675   -5.6781   24.9168 C   0  0  0  0  0  0
  -21.6045   -4.3038   24.7228 C   0  0  0  0  0  0
  -21.8825   -3.8121   23.4352 C   0  0  0  0  0  0
  -21.9193   -4.6931   22.3402 C   0  0  0  0  0  0
  -22.7823  -13.5234   21.1858 C   0  0  0  0  0  0
  -22.1662   -4.2114   21.0985 F   0  0  0  0  0  0
  -21.5642   -3.4527   25.7750 F   0  0  0  0  0  0
  -30.0273  -13.3271   20.4311 N   0  0  0  0  0  0
  -26.2990  -12.9349   20.3317 N   0  0  0  0  0  0
  -25.9294  -11.6507   20.5745 N   0  0  0  0  0  0
  -22.0451  -12.8254   22.0408 N   0  0  0  0  0  0
  -25.4240  -15.1883   20.4027 N   0  0  0  0  0  0
  -31.8341  -14.6839   20.1220 O   0  0  0  0  0  0
  -21.6639   -6.8849   21.4239 O   0  0  0  0  0  0
  -22.3534  -14.5556   20.6698 O   0  0  0  0  0  0
  -24.6218  -31.8655   23.2118 C   0  0  0  0  0  0
  -25.9080  -32.4807   23.8411 C   0  0  1  0  0  0
  -27.2420  -27.4129   20.0834 C   0  0  0  0  0  0
  -25.5905  -33.8596   24.2312 N   0  0  0  0  0  0
  -23.4101  -30.4888   21.5589 C   0  0  2  0  0  0
  -24.8513  -28.9436   20.1310 C   0  0  0  0  0  0
  -22.7428  -29.4681   22.5075 C   0  0  0  0  0  0
  -18.0278  -28.1397   22.8517 C   0  0  0  0  0  0
  -24.1481  -36.7315   23.2629 C   0  0  0  0  0  0
  -25.9421  -30.8161   21.3739 C   0  0  0  0  0  0
  -26.0142  -29.4445   20.7306 C   0  0  0  0  0  0
  -27.2093  -28.6819   20.7121 C   0  0  0  0  0  0
  -26.0665  -26.9522   19.4500 C   0  0  0  0  0  0
  -24.8684  -27.6907   19.4970 C   0  0  0  0  0  0
  -23.6166  -29.8188   20.1764 C   0  0  0  0  0  0
  -25.4094  -36.3090   24.0324 C   0  0  1  0  0  0
  -20.5877  -28.3709   23.1314 C   0  0  2  0  0  0
  -20.6781  -26.9447   22.5426 C   0  0  0  0  0  0
  -19.5754  -26.6413   21.5232 C   0  0  0  0  0  0
  -18.1929  -26.7940   22.1638 C   0  0  0  0  0  0
  -19.1530  -28.8872   23.2903 C   0  0  0  0  0  0
  -18.9441  -30.1484   23.8928 C   0  0  0  0  0  0
  -17.6449  -30.6601   24.0584 C   0  0  0  0  0  0
  -25.9046  -34.9465   23.5121 C   0  0  0  0  0  0
  -16.5339  -29.9107   23.6328 C   0  0  0  0  0  0
  -16.7278  -28.6510   23.0349 C   0  0  0  0  0  0
  -26.4480  -31.6621   25.0772 C   0  0  0  0  0  0
  -25.3727  -31.3764   26.1523 C   0  0  0  0  0  0
  -27.0304  -30.3048   24.6178 C   0  0  0  0  0  0
  -27.6055  -32.4380   25.7502 C   0  0  0  0  0  0
  -27.5572  -37.1806   24.8451 C   0  0  0  0  0  0
  -21.4169  -29.3040   22.3701 N   0  0  0  0  0  0
  -26.4280  -37.3783   23.9404 N   0  0  0  0  0  0
  -24.6780  -31.0720   22.1057 N   0  0  0  0  0  0
  -23.4130  -28.8242   23.3169 O   0  0  0  0  0  0
  -28.4203  -26.7100   19.9178 O   0  0  0  0  0  0
  -26.5614  -34.8951   22.4692 O   0  0  0  0  0  0
  -23.5394  -32.1444   23.7457 O   0  0  0  0  0  0
  -30.0354  -23.2459   22.1587 C   0  0  0  0  0  0
  -28.9181  -21.6931   20.6772 C   0  0  0  0  0  0
  -29.1178  -23.0347   21.1122 C   0  0  0  0  0  0
  -30.7081  -22.1718   22.7757 C   0  0  0  0  0  0
  -29.5758  -20.5735   21.2799 C   0  0  0  0  0  0
  -30.4880  -20.8307   22.3500 C   0  0  0  0  0  0
  -32.5607  -19.3068   22.6724 C   0  0  0  0  0  0
  -31.8158  -22.7631   26.4619 C   0  0  0  0  0  0
  -26.8370  -24.0548   21.0919 C   0  0  0  0  0  0
  -31.6030  -22.5182   23.9606 C   0  0  0  0  0  0
  -29.1145  -19.1414   20.8659 C   0  0  0  0  0  0
  -31.1426  -19.6949   23.1402 C   0  0  0  0  0  0
  -30.8383  -22.5750   25.2970 C   0  0  0  0  0  0
  -30.1459  -18.0532   20.3994 C   0  0  0  0  0  0
  -30.4386  -16.8759   21.3966 C   0  0  0  0  0  0
  -28.8083  -25.6606   20.8330 C   0  0  0  0  0  0
  -28.2677  -24.2102   20.5472 C   0  0  1  0  0  0
  -29.9559  -15.5349   21.0244 N   0  0  0  0  0  0
  -31.4759  -12.4466   19.1248 H   0  0  0  0  0  0
  -30.3648  -11.3254   19.8585 H   0  0  0  0  0  0
  -29.7584  -11.7500   17.4569 H   0  0  0  0  0  0
  -29.6633  -13.4687   17.7569 H   0  0  0  0  0  0
  -27.8698  -11.2893   18.8800 H   0  0  0  0  0  0
  -27.3704  -12.5644   17.7958 H   0  0  0  0  0  0
  -27.6883  -14.2508   19.5403 H   0  0  0  0  0  0
  -28.6750  -12.0089   21.3758 H   0  0  0  0  0  0
  -28.4505  -13.6656   21.8447 H   0  0  0  0  0  0
  -25.2705   -9.5711   22.4761 H   0  0  0  0  0  0
  -23.9962   -7.4656   22.7492 H   0  0  0  0  0  0
  -21.0797   -8.8734   19.8960 H   0  0  0  0  0  0
  -22.3618  -10.9654   19.6164 H   0  0  0  0  0  0
  -21.1995   -7.6121   23.9696 H   0  0  0  0  0  0
  -21.1503   -6.0509   25.9076 H   0  0  0  0  0  0
  -22.0593   -2.7579   23.2867 H   0  0  0  0  0  0
  -22.4015  -11.9886   22.4798 H   0  0  0  0  0  0
  -21.1082  -13.1328   22.2614 H   0  0  0  0  0  0
  -24.6508  -15.8383   20.4870 H   0  0  0  0  0  0
  -26.2679  -15.6232   20.0551 H   0  0  0  0  0  0
  -26.7155  -32.5512   23.1168 H   0  0  0  0  0  0
  -24.9992  -33.9735   25.0413 H   0  0  0  0  0  0
  -22.7072  -31.3125   21.4200 H   0  0  0  0  0  0
  -23.3733  -35.9667   23.3312 H   0  0  0  0  0  0
  -24.3562  -36.8903   22.2047 H   0  0  0  0  0  0
  -23.7284  -37.6542   23.6640 H   0  0  0  0  0  0
  -26.0616  -31.5809   20.6058 H   0  0  0  0  0  0
  -26.8301  -30.8705   21.9935 H   0  0  0  0  0  0
  -28.1180  -29.0810   21.1435 H   0  0  0  0  0  0
  -26.0752  -26.0210   18.9005 H   0  0  0  0  0  0
  -23.9772  -27.3030   19.0197 H   0  0  0  0  0  0
  -23.7188  -30.5950   19.4150 H   0  0  0  0  0  0
  -22.7409  -29.2340   19.8952 H   0  0  0  0  0  0
  -25.1286  -36.1947   25.0817 H   0  0  0  0  0  0
  -20.9969  -28.3292   24.1428 H   0  0  0  0  0  0
  -20.5693  -26.2339   23.3616 H   0  0  0  0  0  0
  -21.6651  -26.7478   22.1211 H   0  0  0  0  0  0
  -19.6915  -25.6325   21.1247 H   0  0  0  0  0  0
  -19.6684  -27.3252   20.6776 H   0  0  0  0  0  0
  -17.4196  -26.6743   21.4022 H   0  0  0  0  0  0
  -18.0311  -26.0081   22.9029 H   0  0  0  0  0  0
  -19.7923  -30.7296   24.2309 H   0  0  0  0  0  0
  -17.4991  -31.6290   24.5182 H   0  0  0  0  0  0
  -15.5338  -30.3001   23.7627 H   0  0  0  0  0  0
  -15.8677  -28.0821   22.7039 H   0  0  0  0  0  0
  -24.5913  -30.7062   25.7905 H   0  0  0  0  0  0
  -24.8899  -32.2934   26.4934 H   0  0  0  0  0  0
  -25.8082  -30.8999   27.0313 H   0  0  0  0  0  0
  -26.2888  -29.6849   24.1118 H   0  0  0  0  0  0
  -27.3950  -29.7247   25.4670 H   0  0  0  0  0  0
  -27.8781  -30.4370   23.9441 H   0  0  0  0  0  0
  -27.2651  -33.3677   26.2070 H   0  0  0  0  0  0
  -28.3823  -32.6947   25.0285 H   0  0  0  0  0  0
  -28.0774  -31.8533   26.5407 H   0  0  0  0  0  0
  -28.2582  -38.0106   24.7481 H   0  0  0  0  0  0
  -28.1070  -36.2642   24.6283 H   0  0  0  0  0  0
  -27.2295  -37.1473   25.8852 H   0  0  0  0  0  0
  -20.9383  -29.8647   21.6790 H   0  0  0  0  0  0
  -26.0159  -38.2850   24.1407 H   0  0  0  0  0  0
  -30.2001  -24.2408   22.5447 H   0  0  0  0  0  0
  -28.1814  -21.5161   19.9049 H   0  0  0  0  0  0
  -33.2454  -20.1531   22.7070 H   0  0  0  0  0  0
  -32.5855  -18.9158   21.6578 H   0  0  0  0  0  0
  -32.9771  -18.5375   23.3243 H   0  0  0  0  0  0
  -31.3102  -22.7466   27.4286 H   0  0  0  0  0  0
  -32.3407  -23.7153   26.3688 H   0  0  0  0  0  0
  -32.5608  -21.9671   26.4663 H   0  0  0  0  0  0
  -26.1749  -24.8600   20.7900 H   0  0  0  0  0  0
  -26.8432  -24.0572   22.1818 H   0  0  0  0  0  0
  -26.3742  -23.1296   20.7497 H   0  0  0  0  0  0
  -32.0756  -23.4837   23.7813 H   0  0  0  0  0  0
  -32.4355  -21.8220   24.0335 H   0  0  0  0  0  0
  -28.4153  -19.2706   20.0392 H   0  0  0  0  0  0
  -28.4890  -18.7356   21.6594 H   0  0  0  0  0  0
  -30.4767  -18.8488   23.1514 H   0  0  0  0  0  0
  -31.1854  -19.9476   24.1960 H   0  0  0  0  0  0
  -30.1046  -23.3853   25.2798 H   0  0  0  0  0  0
  -30.2696  -21.6560   25.4498 H   0  0  0  0  0  0
  -31.0744  -18.5337   20.0872 H   0  0  0  0  0  0
  -29.7622  -17.6121   19.4763 H   0  0  0  0  0  0
  -29.9611  -17.0599   22.3564 H   0  0  0  0  0  0
  -31.5134  -16.8205   21.5906 H   0  0  0  0  0  0
  -29.8905  -25.6247   20.6911 H   0  0  0  0  0  0
  -28.6546  -25.9733   21.8657 H   0  0  0  0  0  0
  -28.2402  -24.0884   19.4632 H   0  0  0  0  0  0
  -29.0161  -15.3007   21.3083 H   0  0  0  0  0  0
  1 25  1  0  0  0
  1 30  2  0  0  0
  1 88  1  0  0  0
  2  3  1  0  0  0
  2 25  1  0  0  0
  2 89  1  0  0  0
  2 90  1  0  0  0
  3  4  1  0  0  0
  3 91  1  0  0  0
  3 92  1  0  0  0
  4  5  1  0  0  0
  4 93  1  0  0  0
  4 94  1  0  0  0
  5  6  1  0  0  0
  5 26  1  0  0  0
  5 95  1  0  0  0
  6 25  1  0  0  0
  6 96  1  0  0  0
  6 97  1  0  0  0
  7  8  2  0  0  0
  7 26  1  0  0  0
  7 29  1  0  0  0
  8  9  1  0  0  0
  8 22  1  0  0  0
  9 10  1  0  0  0
  9 27  2  0  0  0
 10 11  2  0  0  0
 10 15  1  0  0  0
 11 12  1  0  0  0
 11 98  1  0  0  0
 12 13  2  0  0  0
 12 99  1  0  0  0
 13 14  1  0  0  0
 13 31  1  0  0  0
 14 15  2  0  0  0
 14100  1  0  0  0
 15101  1  0  0  0
 16 17  2  0  0  0
 16 21  1  0  0  0
 16 31  1  0  0  0
 17 18  1  0  0  0
 17102  1  0  0  0
 18 19  2  0  0  0
 18103  1  0  0  0
 19 20  1  0  0  0
 19 24  1  0  0  0
 20 21  2  0  0  0
 20104  1  0  0  0
 21 23  1  0  0  0
 22 28  1  0  0  0
 22 32  2  0  0  0
 26 27  1  0  0  0
 28105  1  0  0  0
 28106  1  0  0  0
 29107  1  0  0  0
 29108  1  0  0  0
 33 34  1  0  0  0
 33 66  1  0  0  0
 33 70  2  0  0  0
 34 36  1  0  0  0
 34 59  1  0  0  0
 34109  1  0  0  0
 35 44  2  0  0  0
 35 45  1  0  0  0
 35 68  1  0  0  0
 36 56  1  0  0  0
 36110  1  0  0  0
 37 39  1  0  0  0
 37 47  1  0  0  0
 37 66  1  0  0  0
 37111  1  0  0  0
 38 43  2  0  0  0
 38 46  1  0  0  0
 38 47  1  0  0  0
 39 64  1  0  0  0
 39 67  2  0  0  0
 40 52  1  0  0  0
 40 53  2  0  0  0
 40 58  1  0  0  0
 41112  1  0  0  0
 41113  1  0  0  0
 41114  1  0  0  0
 41 48  1  0  0  0
 42 43  1  0  0  0
 42 66  1  0  0  0
 42115  1  0  0  0
 42116  1  0  0  0
 43 44  1  0  0  0
 44117  1  0  0  0
 45 46  2  0  0  0
 45118  1  0  0  0
 46119  1  0  0  0
 47120  1  0  0  0
 47121  1  0  0  0
 48 56  1  0  0  0
 48 65  1  0  0  0
 48122  1  0  0  0
 49 50  1  0  0  0
 49 53  1  0  0  0
 49 64  1  0  0  0
 49123  1  0  0  0
 50 51  1  0  0  0
 50124  1  0  0  0
 50125  1  0  0  0
 51 52  1  0  0  0
 51126  1  0  0  0
 51127  1  0  0  0
 52128  1  0  0  0
 52129  1  0  0  0
 53 54  1  0  0  0
 54 55  2  0  0  0
 54130  1  0  0  0
 55 57  1  0  0  0
 55131  1  0  0  0
 56 69  2  0  0  0
 57 58  2  0  0  0
 57132  1  0  0  0
 58133  1  0  0  0
 59 60  1  0  0  0
 59 61  1  0  0  0
 59 62  1  0  0  0
 60134  1  0  0  0
 60135  1  0  0  0
 60136  1  0  0  0
 61137  1  0  0  0
 61138  1  0  0  0
 61139  1  0  0  0
 62140  1  0  0  0
 62141  1  0  0  0
 62142  1  0  0  0
 63 65  1  0  0  0
 63143  1  0  0  0
 63144  1  0  0  0
 63145  1  0  0  0
 64146  1  0  0  0
 65147  1  0  0  0
 68 86  1  0  0  0
 71 73  2  0  0  0
 71 74  1  0  0  0
 71148  1  0  0  0
 72 73  1  0  0  0
 72 75  2  0  0  0
 72149  1  0  0  0
 73 87  1  0  0  0
 74 76  2  0  0  0
 74 80  1  0  0  0
 75 76  1  0  0  0
 75 81  1  0  0  0
 76 82  1  0  0  0
 77 82  1  0  0  0
 77150  1  0  0  0
 77151  1  0  0  0
 77152  1  0  0  0
 78 83  1  0  0  0
 78153  1  0  0  0
 78154  1  0  0  0
 78155  1  0  0  0
 79156  1  0  0  0
 79157  1  0  0  0
 79158  1  0  0  0
 79 87  1  0  0  0
 80 83  1  0  0  0
 80159  1  0  0  0
 80160  1  0  0  0
 81 84  1  0  0  0
 81161  1  0  0  0
 81162  1  0  0  0
 82163  1  0  0  0
 82164  1  0  0  0
 83165  1  0  0  0
 83166  1  0  0  0
 84 85  1  0  0  0
 84167  1  0  0  0
 84168  1  0  0  0
 85 88  1  0  0  0
 85169  1  0  0  0
 85170  1  0  0  0
 86 87  1  0  0  0
 86171  1  0  0  0
 86172  1  0  0  0
 87173  1  0  0  0
 88174  1  0  0  0
M  ISO  4   1 100  68 101  86 101  88 100
M  END
> <chiral flag>
0

> <version>
0

> <s_m_source_file>
/data/baiqing/PycharmProjects/Reinvent-master-3.2/result/LINK_invent/BTK/process_docking_weight1_custom_sum_contain_oxygen_bond_distance_aromatic_linkinvent_7_9_3/rearranged_h_0091.sdf

> <i_m_source_file_index>
1

> <r_mmod_Potential_Energy-OPLS-2005>
37.5773048400879

> <r_mmod_Stretch_Energy-OPLS-2005>
52.7051963806152

> <r_mmod_Bend_Energy-OPLS-2005>
132.564331054688

> <r_mmod_Torsional_Energy-OPLS-2005>
256.534912109375

> <r_mmod_Improper_Torsional_Energy-OPLS-2005>
5.99913358688354

> <r_mmod_Van_der_Waal_Energy-OPLS-2005>
155.43391418457

> <r_mmod_Electrostatic_Energy-OPLS-2005>
-387.038879394531

> <r_mmod_Solvation_Energy-OPLS-2005>
-197.313446044922

> <b_mmod_Minimization_Converged-OPLS-2005>
0

> <r_mmod_RMS_Derivative-OPLS-2005>
5.33169984817505

$$$$
1
                    3D
 Structure written by MMmdl.
169177  0  0  1  0            999 V2000
  -30.6878  -14.5169   20.5272 C   0  0  0  0  0  0
  -30.4122  -12.3198   19.4357 C   0  0  0  0  0  0
  -29.4881  -12.4798   18.2114 C   0  0  0  0  0  0
  -28.0087  -12.3509   18.6224 C   0  0  0  0  0  0
  -27.6511  -13.2130   19.8652 C   0  0  2  0  0  0
  -28.6927  -13.0353   20.9895 C   0  0  0  0  0  0
  -25.2540  -13.8183   20.5698 C   0  0  0  0  0  0
  -24.1798  -13.0458   20.9179 C   0  0  0  0  0  0
  -24.6361  -11.6928   20.8723 C   0  0  0  0  0  0
  -23.9044  -10.4303   21.0377 C   0  0  0  0  0  0
  -24.3600   -9.4210   21.9147 C   0  0  0  0  0  0
  -23.6278   -8.2248   22.0738 C   0  0  0  0  0  0
  -22.4256   -8.0269   21.3537 C   0  0  0  0  0  0
  -21.9887   -9.0250   20.4643 C   0  0  0  0  0  0
  -22.7217  -10.2124   20.3035 C   0  0  0  0  0  0
  -21.6854   -6.0717   22.5264 C   0  0  0  0  0  0
  -21.4033   -6.5628   23.8197 C   0  0  0  0  0  0
  -21.3671   -5.6778   24.9165 C   0  0  0  0  0  0
  -21.6039   -4.3038   24.7214 C   0  0  0  0  0  0
  -21.8825   -3.8130   23.4336 C   0  0  0  0  0  0
  -21.9189   -4.6948   22.3386 C   0  0  0  0  0  0
  -22.7810  -13.5233   21.1833 C   0  0  0  0  0  0
  -22.1647   -4.2127   21.0967 F   0  0  0  0  0  0
  -21.5624   -3.4523   25.7738 F   0  0  0  0  0  0
  -30.0155  -13.3366   20.4256 N   0  0  0  0  0  0
  -26.2966  -12.9358   20.3350 N   0  0  0  0  0  0
  -25.9284  -11.6518   20.5756 N   0  0  0  0  0  0
  -22.0467  -12.8242   22.0412 N   0  0  0  0  0  0
  -25.4270  -15.1905   20.4094 N   0  0  0  0  0  0
  -31.8559  -14.6324   20.1477 O   0  0  0  0  0  0
  -21.6632   -6.8853   21.4223 O   0  0  0  0  0  0
  -22.3488  -14.5520   20.6643 O   0  0  0  0  0  0
  -24.6212  -31.8654   23.2093 C   0  0  0  0  0  0
  -25.9109  -32.4800   23.8380 C   0  0  1  0  0  0
  -27.2177  -27.3778   20.0959 C   0  0  0  0  0  0
  -25.5941  -33.8592   24.2314 N   0  0  0  0  0  0
  -23.4085  -30.4942   21.5505 C   0  0  2  0  0  0
  -24.8534  -28.9679   20.1057 C   0  0  0  0  0  0
  -22.7438  -29.4650   22.4951 C   0  0  0  0  0  0
  -18.0291  -28.1370   22.8475 C   0  0  0  0  0  0
  -24.1481  -36.7300   23.2634 C   0  0  0  0  0  0
  -25.9473  -30.8146   21.3748 C   0  0  0  0  0  0
  -26.0194  -29.4507   20.7123 C   0  0  0  0  0  0
  -27.2028  -28.6630   20.7073 C   0  0  0  0  0  0
  -26.0394  -26.9602   19.4311 C   0  0  0  0  0  0
  -24.8630  -27.7246   19.4600 C   0  0  0  0  0  0
  -23.6176  -29.8381   20.1619 C   0  0  0  0  0  0
  -25.4100  -36.3078   24.0335 C   0  0  1  0  0  0
  -20.5876  -28.3662   23.1288 C   0  0  2  0  0  0
  -20.6759  -26.9382   22.5408 C   0  0  0  0  0  0
  -19.5736  -26.6366   21.5195 C   0  0  0  0  0  0
  -18.1922  -26.7909   22.1619 C   0  0  0  0  0  0
  -19.1539  -28.8831   23.2875 C   0  0  0  0  0  0
  -18.9462  -30.1434   23.8880 C   0  0  0  0  0  0
  -17.6464  -30.6564   24.0556 C   0  0  0  0  0  0
  -25.9050  -34.9461   23.5120 C   0  0  0  0  0  0
  -16.5352  -29.9061   23.6338 C   0  0  0  0  0  0
  -16.7281  -28.6488   23.0341 C   0  0  0  0  0  0
  -26.4512  -31.6577   25.0719 C   0  0  0  0  0  0
  -25.3738  -31.3730   26.1438 C   0  0  0  0  0  0
  -27.0358  -30.2999   24.6149 C   0  0  0  0  0  0
  -27.6083  -32.4294   25.7498 C   0  0  0  0  0  0
  -27.5575  -37.1801   24.8465 C   0  0  0  0  0  0
  -21.4154  -29.3035   22.3703 N   0  0  0  0  0  0
  -26.4278  -37.3775   23.9419 N   0  0  0  0  0  0
  -24.6768  -31.0734   22.1019 N   0  0  0  0  0  0
  -23.4198  -28.8157   23.2987 O   0  0  0  0  0  0
  -28.3380  -26.5466   20.1722 O   0  0  0  0  0  0
  -26.5594  -34.8920   22.4672 O   0  0  0  0  0  0
  -23.5403  -32.1429   23.7469 O   0  0  0  0  0  0
  -32.4149  -24.1205   19.9680 C   0  0  0  0  0  0
  -32.6951  -22.7921   19.5693 C   0  0  0  0  0  0
  -30.2171  -23.5366   20.4307 C   0  0  0  0  0  0
  -30.5205  -22.1585   20.1267 C   0  0  0  0  0  0
  -34.7274  -21.3320   19.9893 C   0  0  0  0  0  0
  -35.0161  -23.4758   18.6744 C   0  0  0  0  0  0
  -28.5101  -17.9908   19.5877 C   0  0  0  0  0  0
  -28.8651  -24.0796   20.9136 C   0  0  0  0  0  0
  -29.5768  -20.9326   20.2838 C   0  0  0  0  0  0
  -30.3246  -19.5560   20.5046 C   0  0  0  0  0  0
  -30.5269  -17.0010   20.8277 C   0  0  0  0  0  0
  -28.1147  -25.1062   19.9981 C   0  0  0  0  0  0
  -34.0520  -22.3316   19.0320 C   0  0  0  0  0  0
  -29.5308  -18.2123   20.7145 C   0  0  1  0  0  0
  -31.1802  -24.4913   20.3727 N   0  0  0  0  0  0
  -31.7428  -21.8345   19.6361 N   0  0  0  0  0  0
  -29.9737  -15.6176   20.8694 N   0  0  0  0  0  0
  -31.4556  -12.4133   19.1273 H   0  0  0  0  0  0
  -30.3193  -11.3190   19.8638 H   0  0  0  0  0  0
  -29.7281  -11.7267   17.4595 H   0  0  0  0  0  0
  -29.6542  -13.4514   17.7434 H   0  0  0  0  0  0
  -27.8156  -11.2982   18.8365 H   0  0  0  0  0  0
  -27.3599  -12.6082   17.7837 H   0  0  0  0  0  0
  -27.6856  -14.2532   19.5432 H   0  0  0  0  0  0
  -28.6749  -12.0078   21.3575 H   0  0  0  0  0  0
  -28.4641  -13.6638   21.8510 H   0  0  0  0  0  0
  -25.2744   -9.5669   22.4733 H   0  0  0  0  0  0
  -23.9973   -7.4632   22.7463 H   0  0  0  0  0  0
  -21.0813   -8.8772   19.8956 H   0  0  0  0  0  0
  -22.3665  -10.9660   19.6149 H   0  0  0  0  0  0
  -21.2047   -7.6141   23.9697 H   0  0  0  0  0  0
  -21.1479   -6.0507   25.9059 H   0  0  0  0  0  0
  -22.0593   -2.7596   23.2837 H   0  0  0  0  0  0
  -22.4109  -11.9960   22.4881 H   0  0  0  0  0  0
  -21.1071  -13.1239   22.2599 H   0  0  0  0  0  0
  -24.6707  -15.8530   20.5402 H   0  0  0  0  0  0
  -26.2737  -15.6215   20.0642 H   0  0  0  0  0  0
  -26.7177  -32.5501   23.1138 H   0  0  0  0  0  0
  -25.0072  -33.9734   25.0444 H   0  0  0  0  0  0
  -22.6991  -31.3138   21.4168 H   0  0  0  0  0  0
  -23.3735  -35.9646   23.3295 H   0  0  0  0  0  0
  -24.3563  -36.8906   22.2045 H   0  0  0  0  0  0
  -23.7250  -37.6513   23.6652 H   0  0  0  0  0  0
  -26.0732  -31.5819   20.6092 H   0  0  0  0  0  0
  -26.8338  -30.8592   21.9978 H   0  0  0  0  0  0
  -28.0931  -29.0238   21.2003 H   0  0  0  0  0  0
  -25.9987  -26.0345   18.8765 H   0  0  0  0  0  0
  -23.9735  -27.3583   18.9678 H   0  0  0  0  0  0
  -23.7326  -30.6213   19.4109 H   0  0  0  0  0  0
  -22.7386  -29.2632   19.8596 H   0  0  0  0  0  0
  -25.1277  -36.1919   25.0827 H   0  0  0  0  0  0
  -20.9987  -28.3220   24.1401 H   0  0  0  0  0  0
  -20.5603  -26.2258   23.3607 H   0  0  0  0  0  0
  -21.6628  -26.7372   22.1221 H   0  0  0  0  0  0
  -19.6870  -25.6275   21.1221 H   0  0  0  0  0  0
  -19.6669  -27.3180   20.6726 H   0  0  0  0  0  0
  -17.4182  -26.6650   21.4042 H   0  0  0  0  0  0
  -18.0327  -26.0060   22.9023 H   0  0  0  0  0  0
  -19.7934  -30.7255   24.2227 H   0  0  0  0  0  0
  -17.5020  -31.6251   24.5144 H   0  0  0  0  0  0
  -15.5347  -30.2954   23.7670 H   0  0  0  0  0  0
  -15.8683  -28.0810   22.7046 H   0  0  0  0  0  0
  -24.5917  -30.7071   25.7771 H   0  0  0  0  0  0
  -24.8931  -32.2907   26.4836 H   0  0  0  0  0  0
  -25.8046  -30.8923   27.0222 H   0  0  0  0  0  0
  -26.2935  -29.6745   24.1165 H   0  0  0  0  0  0
  -27.4056  -29.7255   25.4655 H   0  0  0  0  0  0
  -27.8807  -30.4299   23.9375 H   0  0  0  0  0  0
  -27.2704  -33.3588   26.2098 H   0  0  0  0  0  0
  -28.3903  -32.6839   25.0333 H   0  0  0  0  0  0
  -28.0739  -31.8377   26.5391 H   0  0  0  0  0  0
  -28.2592  -38.0095   24.7508 H   0  0  0  0  0  0
  -28.1059  -36.2626   24.6285 H   0  0  0  0  0  0
  -27.2294  -37.1452   25.8865 H   0  0  0  0  0  0
  -20.9291  -29.8786   21.6966 H   0  0  0  0  0  0
  -26.0150  -38.2849   24.1411 H   0  0  0  0  0  0
  -33.1660  -24.8966   19.9507 H   0  0  0  0  0  0
  -34.1033  -20.4510   20.1438 H   0  0  0  0  0  0
  -34.9161  -21.7810   20.9652 H   0  0  0  0  0  0
  -35.6814  -20.9844   19.5925 H   0  0  0  0  0  0
  -34.5735  -24.1585   17.9491 H   0  0  0  0  0  0
  -35.9341  -23.0876   18.2311 H   0  0  0  0  0  0
  -35.3015  -24.0558   19.5524 H   0  0  0  0  0  0
  -27.8329  -18.8397   19.5026 H   0  0  0  0  0  0
  -27.8914  -17.1110   19.7628 H   0  0  0  0  0  0
  -29.0135  -17.8557   18.6300 H   0  0  0  0  0  0
  -28.9779  -24.4979   21.9124 H   0  0  0  0  0  0
  -28.2033  -23.2238   21.0404 H   0  0  0  0  0  0
  -28.9123  -21.1036   21.1274 H   0  0  0  0  0  0
  -28.9482  -20.8787   19.3940 H   0  0  0  0  0  0
  -31.0015  -19.6844   21.3494 H   0  0  0  0  0  0
  -30.9660  -19.3916   19.6385 H   0  0  0  0  0  0
  -31.2047  -17.0690   19.9752 H   0  0  0  0  0  0
  -31.1574  -17.1290   21.7079 H   0  0  0  0  0  0
  -27.0806  -24.8806   20.2532 H   0  0  0  0  0  0
  -28.2253  -24.8342   18.9477 H   0  0  0  0  0  0
  -33.8401  -21.8007   18.1023 H   0  0  0  0  0  0
  -28.9794  -18.2866   21.6518 H   0  0  0  0  0  0
  -29.0057  -15.4922   21.1253 H   0  0  0  0  0  0
  1 25  1  0  0  0
  1 30  2  0  0  0
  1 87  1  0  0  0
  2  3  1  0  0  0
  2 25  1  0  0  0
  2 88  1  0  0  0
  2 89  1  0  0  0
  3  4  1  0  0  0
  3 90  1  0  0  0
  3 91  1  0  0  0
  4  5  1  0  0  0
  4 92  1  0  0  0
  4 93  1  0  0  0
  5  6  1  0  0  0
  5 26  1  0  0  0
  5 94  1  0  0  0
  6 25  1  0  0  0
  6 95  1  0  0  0
  6 96  1  0  0  0
  7  8  2  0  0  0
  7 26  1  0  0  0
  7 29  1  0  0  0
  8  9  1  0  0  0
  8 22  1  0  0  0
  9 10  1  0  0  0
  9 27  2  0  0  0
 10 11  2  0  0  0
 10 15  1  0  0  0
 11 12  1  0  0  0
 11 97  1  0  0  0
 12 13  2  0  0  0
 12 98  1  0  0  0
 13 14  1  0  0  0
 13 31  1  0  0  0
 14 15  2  0  0  0
 14 99  1  0  0  0
 15100  1  0  0  0
 16 17  2  0  0  0
 16 21  1  0  0  0
 16 31  1  0  0  0
 17 18  1  0  0  0
 17101  1  0  0  0
 18 19  2  0  0  0
 18102  1  0  0  0
 19 20  1  0  0  0
 19 24  1  0  0  0
 20 21  2  0  0  0
 20103  1  0  0  0
 21 23  1  0  0  0
 22 28  1  0  0  0
 22 32  2  0  0  0
 26 27  1  0  0  0
 28104  1  0  0  0
 28105  1  0  0  0
 29106  1  0  0  0
 29107  1  0  0  0
 33 34  1  0  0  0
 33 66  1  0  0  0
 33 70  2  0  0  0
 34 36  1  0  0  0
 34 59  1  0  0  0
 34108  1  0  0  0
 35 44  2  0  0  0
 35 45  1  0  0  0
 35 68  1  0  0  0
 36 56  1  0  0  0
 36109  1  0  0  0
 37 39  1  0  0  0
 37 47  1  0  0  0
 37 66  1  0  0  0
 37110  1  0  0  0
 38 43  2  0  0  0
 38 46  1  0  0  0
 38 47  1  0  0  0
 39 64  1  0  0  0
 39 67  2  0  0  0
 40 52  1  0  0  0
 40 53  2  0  0  0
 40 58  1  0  0  0
 41111  1  0  0  0
 41112  1  0  0  0
 41113  1  0  0  0
 41 48  1  0  0  0
 42 43  1  0  0  0
 42 66  1  0  0  0
 42114  1  0  0  0
 42115  1  0  0  0
 43 44  1  0  0  0
 44116  1  0  0  0
 45 46  2  0  0  0
 45117  1  0  0  0
 46118  1  0  0  0
 47119  1  0  0  0
 47120  1  0  0  0
 48 56  1  0  0  0
 48 65  1  0  0  0
 48121  1  0  0  0
 49 50  1  0  0  0
 49 53  1  0  0  0
 49 64  1  0  0  0
 49122  1  0  0  0
 50 51  1  0  0  0
 50123  1  0  0  0
 50124  1  0  0  0
 51 52  1  0  0  0
 51125  1  0  0  0
 51126  1  0  0  0
 52127  1  0  0  0
 52128  1  0  0  0
 53 54  1  0  0  0
 54 55  2  0  0  0
 54129  1  0  0  0
 55 57  1  0  0  0
 55130  1  0  0  0
 56 69  2  0  0  0
 57 58  2  0  0  0
 57131  1  0  0  0
 58132  1  0  0  0
 59 60  1  0  0  0
 59 61  1  0  0  0
 59 62  1  0  0  0
 60133  1  0  0  0
 60134  1  0  0  0
 60135  1  0  0  0
 61136  1  0  0  0
 61137  1  0  0  0
 61138  1  0  0  0
 62139  1  0  0  0
 62140  1  0  0  0
 62141  1  0  0  0
 63 65  1  0  0  0
 63142  1  0  0  0
 63143  1  0  0  0
 63144  1  0  0  0
 64145  1  0  0  0
 65146  1  0  0  0
 68 82  1  0  0  0
 71 72  2  0  0  0
 71 85  1  0  0  0
 71147  1  0  0  0
 72 83  1  0  0  0
 72 86  1  0  0  0
 73 74  1  0  0  0
 73 78  1  0  0  0
 73 85  2  0  0  0
 74 79  1  0  0  0
 74 86  2  0  0  0
 75148  1  0  0  0
 75149  1  0  0  0
 75150  1  0  0  0
 75 83  1  0  0  0
 76 83  1  0  0  0
 76151  1  0  0  0
 76152  1  0  0  0
 76153  1  0  0  0
 77154  1  0  0  0
 77155  1  0  0  0
 77156  1  0  0  0
 77 84  1  0  0  0
 78 82  1  0  0  0
 78157  1  0  0  0
 78158  1  0  0  0
 79 80  1  0  0  0
 79159  1  0  0  0
 79160  1  0  0  0
 80 84  1  0  0  0
 80161  1  0  0  0
 80162  1  0  0  0
 81 84  1  0  0  0
 81 87  1  0  0  0
 81163  1  0  0  0
 81164  1  0  0  0
 82165  1  0  0  0
 82166  1  0  0  0
 83167  1  0  0  0
 84168  1  0  0  0
 87169  1  0  0  0
M  ISO  4   1 100  68 101  82 101  87 100
M  END
> <chiral flag>
0

> <version>
0

> <s_m_source_file>
/data/baiqing/PycharmProjects/Reinvent-master-3.2/result/LINK_invent/BTK/process_docking_weight1_custom_sum_contain_oxygen_bond_distance_aromatic_linkinvent_7_9_3/rearranged_h_0091.sdf

> <i_m_source_file_index>
2

> <r_mmod_Potential_Energy-OPLS-2005>
38.927303314209

> <r_mmod_Stretch_Energy-OPLS-2005>
60.3464126586914

> <r_mmod_Bend_Energy-OPLS-2005>
138.026641845703

> <r_mmod_Torsional_Energy-OPLS-2005>
204.195083618164

> <r_mmod_Improper_Torsional_Energy-OPLS-2005>
4.46722984313965

> <r_mmod_Van_der_Waal_Energy-OPLS-2005>
165.192855834961

> <r_mmod_Electrostatic_Energy-OPLS-2005>
-339.850372314453

> <r_mmod_Solvation_Energy-OPLS-2005>
-221.467849731445

> <b_mmod_Minimization_Converged-OPLS-2005>
0

> <r_mmod_RMS_Derivative-OPLS-2005>
3.55951118469238

$$$$
2
                    3D
 Structure written by MMmdl.
167175  0  0  1  0            999 V2000
  -30.6777  -14.5010   20.5679 C   0  0  0  0  0  0
  -30.4239  -12.3264   19.4215 C   0  0  0  0  0  0
  -29.4939  -12.5119   18.2044 C   0  0  0  0  0  0
  -28.0154  -12.3675   18.6166 C   0  0  0  0  0  0
  -27.6573  -13.2085   19.8712 C   0  0  2  0  0  0
  -28.6983  -12.9992   20.9929 C   0  0  0  0  0  0
  -25.2571  -13.8159   20.5682 C   0  0  0  0  0  0
  -24.1834  -13.0424   20.9169 C   0  0  0  0  0  0
  -24.6391  -11.6897   20.8721 C   0  0  0  0  0  0
  -23.9056  -10.4286   21.0399 C   0  0  0  0  0  0
  -24.3612   -9.4205   21.9180 C   0  0  0  0  0  0
  -23.6290   -8.2242   22.0751 C   0  0  0  0  0  0
  -22.4275   -8.0279   21.3537 C   0  0  0  0  0  0
  -21.9899   -9.0250   20.4638 C   0  0  0  0  0  0
  -22.7224  -10.2131   20.3051 C   0  0  0  0  0  0
  -21.6862   -6.0730   22.5274 C   0  0  0  0  0  0
  -21.4015   -6.5636   23.8207 C   0  0  0  0  0  0
  -21.3662   -5.6785   24.9172 C   0  0  0  0  0  0
  -21.6047   -4.3049   24.7230 C   0  0  0  0  0  0
  -21.8817   -3.8141   23.4348 C   0  0  0  0  0  0
  -21.9198   -4.6958   22.3402 C   0  0  0  0  0  0
  -22.7856  -13.5216   21.1854 C   0  0  0  0  0  0
  -22.1659   -4.2135   21.0981 F   0  0  0  0  0  0
  -21.5644   -3.4536   25.7752 F   0  0  0  0  0  0
  -30.0244  -13.3147   20.4368 N   0  0  0  0  0  0
  -26.3000  -12.9325   20.3344 N   0  0  0  0  0  0
  -25.9310  -11.6482   20.5721 N   0  0  0  0  0  0
  -22.0521  -12.8199   22.0423 N   0  0  0  0  0  0
  -25.4312  -15.1885   20.4119 N   0  0  0  0  0  0
  -31.8124  -14.6907   20.1216 O   0  0  0  0  0  0
  -21.6638   -6.8879   21.4236 O   0  0  0  0  0  0
  -22.3539  -14.5535   20.6733 O   0  0  0  0  0  0
  -24.6159  -31.8661   23.2076 C   0  0  0  0  0  0
  -25.9045  -32.4813   23.8382 C   0  0  1  0  0  0
  -27.2392  -27.4050   20.0979 C   0  0  0  0  0  0
  -25.5898  -33.8614   24.2308 N   0  0  0  0  0  0
  -23.4052  -30.4871   21.5491 C   0  0  2  0  0  0
  -24.8510  -28.9477   20.1147 C   0  0  0  0  0  0
  -22.7421  -29.4638   22.4988 C   0  0  0  0  0  0
  -18.0277  -28.1375   22.8489 C   0  0  0  0  0  0
  -24.1493  -36.7302   23.2634 C   0  0  0  0  0  0
  -25.9355  -30.8200   21.3669 C   0  0  0  0  0  0
  -26.0102  -29.4521   20.7137 C   0  0  0  0  0  0
  -27.2001  -28.6861   20.7048 C   0  0  0  0  0  0
  -26.0510  -26.9138   19.5080 C   0  0  0  0  0  0
  -24.8673  -27.6784   19.5115 C   0  0  0  0  0  0
  -23.6146  -29.8181   20.1637 C   0  0  0  0  0  0
  -25.4115  -36.3100   24.0330 C   0  0  1  0  0  0
  -20.5864  -28.3656   23.1310 C   0  0  2  0  0  0
  -20.6770  -26.9396   22.5403 C   0  0  0  0  0  0
  -19.5746  -26.6382   21.5206 C   0  0  0  0  0  0
  -18.1928  -26.7919   22.1623 C   0  0  0  0  0  0
  -19.1525  -28.8835   23.2895 C   0  0  0  0  0  0
  -18.9453  -30.1443   23.8902 C   0  0  0  0  0  0
  -17.6455  -30.6584   24.0554 C   0  0  0  0  0  0
  -25.9043  -34.9471   23.5115 C   0  0  0  0  0  0
  -16.5345  -29.9079   23.6328 C   0  0  0  0  0  0
  -16.7265  -28.6495   23.0352 C   0  0  0  0  0  0
  -26.4459  -31.6605   25.0726 C   0  0  0  0  0  0
  -25.3712  -31.3717   26.1464 C   0  0  0  0  0  0
  -27.0285  -30.3045   24.6118 C   0  0  0  0  0  0
  -27.6046  -32.4315   25.7486 C   0  0  0  0  0  0
  -27.5583  -37.1804   24.8460 C   0  0  0  0  0  0
  -21.4150  -29.3019   22.3726 N   0  0  0  0  0  0
  -26.4294  -37.3789   23.9411 N   0  0  0  0  0  0
  -24.6704  -31.0732   22.0993 N   0  0  0  0  0  0
  -23.4183  -28.8187   23.3041 O   0  0  0  0  0  0
  -28.4287  -26.6919   20.1374 O   0  0  0  0  0  0
  -26.5605  -34.8921   22.4678 O   0  0  0  0  0  0
  -23.5343  -32.1424   23.7456 O   0  0  0  0  0  0
  -29.4896  -20.5157   19.9881 C   0  0  0  0  0  0
  -30.0532  -21.8213   19.9526 C   0  0  0  0  0  0
  -31.3928  -21.9623   20.4099 C   0  0  0  0  0  0
  -30.2569  -19.4134   20.4459 C   0  0  0  0  0  0
  -32.0516  -20.8185   20.9242 C   0  0  0  0  0  0
  -33.4484  -20.8818   21.5147 C   0  0  0  0  0  0
  -33.7017  -24.7240   18.8693 C   0  0  0  0  0  0
  -29.2906  -22.9860   19.2817 C   0  0  0  0  0  0
  -32.1560  -23.2858   20.2946 C   0  0  0  0  0  0
  -29.7955  -17.9474   20.2766 C   0  0  0  0  0  0
  -32.9596  -23.3882   18.9874 C   0  0  0  0  0  0
  -28.7898  -24.1745   20.1689 C   0  0  0  0  0  0
  -30.3736  -16.9168   21.3018 C   0  0  0  0  0  0
  -28.6415  -25.4978   19.3532 C   0  0  0  0  0  0
  -31.5088  -19.5853   20.9121 N   0  0  0  0  0  0
  -29.9503  -15.5110   21.0932 N   0  0  0  0  0  0
  -31.4675  -12.4348   19.1207 H   0  0  0  0  0  0
  -30.3322  -11.3164   19.8246 H   0  0  0  0  0  0
  -29.7352  -11.7859   17.4264 H   0  0  0  0  0  0
  -29.6562  -13.4970   17.7634 H   0  0  0  0  0  0
  -27.8287  -11.3114   18.8125 H   0  0  0  0  0  0
  -27.3646  -12.6400   17.7845 H   0  0  0  0  0  0
  -27.6953  -14.2548   19.5671 H   0  0  0  0  0  0
  -28.6830  -11.9641   21.3383 H   0  0  0  0  0  0
  -28.4541  -13.6013   21.8692 H   0  0  0  0  0  0
  -25.2770   -9.5690   22.4732 H   0  0  0  0  0  0
  -24.0010   -7.4635   22.7471 H   0  0  0  0  0  0
  -21.0831   -8.8753   19.8938 H   0  0  0  0  0  0
  -22.3681  -10.9662   19.6151 H   0  0  0  0  0  0
  -21.1987   -7.6142   23.9706 H   0  0  0  0  0  0
  -21.1497   -6.0523   25.9074 H   0  0  0  0  0  0
  -22.0595   -2.7602   23.2857 H   0  0  0  0  0  0
  -22.4145  -11.9833   22.4753 H   0  0  0  0  0  0
  -21.1146  -13.1226   22.2659 H   0  0  0  0  0  0
  -24.6671  -15.8474   20.5204 H   0  0  0  0  0  0
  -26.2856  -15.6249   20.0892 H   0  0  0  0  0  0
  -26.7110  -32.5512   23.1141 H   0  0  0  0  0  0
  -25.0065  -33.9782   25.0464 H   0  0  0  0  0  0
  -22.6941  -31.3036   21.4095 H   0  0  0  0  0  0
  -23.3765  -35.9624   23.3293 H   0  0  0  0  0  0
  -24.3585  -36.8924   22.2048 H   0  0  0  0  0  0
  -23.7236  -37.6499   23.6656 H   0  0  0  0  0  0
  -26.0545  -31.5857   20.5991 H   0  0  0  0  0  0
  -26.8199  -30.8700   21.9905 H   0  0  0  0  0  0
  -28.0943  -29.0722   21.1730 H   0  0  0  0  0  0
  -26.0021  -25.9341   19.0592 H   0  0  0  0  0  0
  -23.9712  -27.2790   19.0569 H   0  0  0  0  0  0
  -23.7242  -30.5924   19.4036 H   0  0  0  0  0  0
  -22.7381  -29.2382   19.8690 H   0  0  0  0  0  0
  -25.1298  -36.1956   25.0824 H   0  0  0  0  0  0
  -20.9952  -28.3216   24.1431 H   0  0  0  0  0  0
  -20.5689  -26.2262   23.3585 H   0  0  0  0  0  0
  -21.6639  -26.7451   22.1183 H   0  0  0  0  0  0
  -19.6909  -25.6298   21.1229 H   0  0  0  0  0  0
  -19.6686  -27.3200   20.6742 H   0  0  0  0  0  0
  -17.4195  -26.6656   21.4031 H   0  0  0  0  0  0
  -18.0340  -26.0062   22.9022 H   0  0  0  0  0  0
  -19.7929  -30.7258   24.2277 H   0  0  0  0  0  0
  -17.5010  -31.6271   24.5142 H   0  0  0  0  0  0
  -15.5347  -30.2980   23.7656 H   0  0  0  0  0  0
  -15.8665  -28.0816   22.7065 H   0  0  0  0  0  0
  -24.5908  -30.7039   25.7795 H   0  0  0  0  0  0
  -24.8873  -32.2868   26.4883 H   0  0  0  0  0  0
  -25.8050  -30.8910   27.0241 H   0  0  0  0  0  0
  -26.2831  -29.6829   24.1142 H   0  0  0  0  0  0
  -27.4011  -29.7261   25.4580 H   0  0  0  0  0  0
  -27.8687  -30.4361   23.9299 H   0  0  0  0  0  0
  -27.2692  -33.3623   26.2067 H   0  0  0  0  0  0
  -28.3853  -32.6853   25.0306 H   0  0  0  0  0  0
  -28.0712  -31.8431   26.5394 H   0  0  0  0  0  0
  -28.2592  -38.0110   24.7532 H   0  0  0  0  0  0
  -28.1090  -36.2645   24.6266 H   0  0  0  0  0  0
  -27.2301  -37.1426   25.8861 H   0  0  0  0  0  0
  -20.9325  -29.8729   21.6935 H   0  0  0  0  0  0
  -26.0181  -38.2863   24.1430 H   0  0  0  0  0  0
  -28.4997  -20.3442   19.5877 H   0  0  0  0  0  0
  -33.4442  -21.4897   22.4200 H   0  0  0  0  0  0
  -34.1573  -21.3130   20.8098 H   0  0  0  0  0  0
  -33.8154  -19.8908   21.7830 H   0  0  0  0  0  0
  -34.2090  -24.8064   17.9078 H   0  0  0  0  0  0
  -34.4535  -24.8277   19.6525 H   0  0  0  0  0  0
  -33.0129  -25.5654   18.9530 H   0  0  0  0  0  0
  -28.4410  -22.5826   18.7294 H   0  0  0  0  0  0
  -29.9529  -23.3755   18.5084 H   0  0  0  0  0  0
  -32.8238  -23.4098   21.1475 H   0  0  0  0  0  0
  -31.4869  -24.1380   20.3555 H   0  0  0  0  0  0
  -30.0646  -17.6366   19.2668 H   0  0  0  0  0  0
  -28.7053  -17.9267   20.3234 H   0  0  0  0  0  0
  -33.6800  -22.5729   18.9165 H   0  0  0  0  0  0
  -32.2934  -23.2742   18.1319 H   0  0  0  0  0  0
  -29.4851  -24.3563   20.9859 H   0  0  0  0  0  0
  -27.8495  -23.9077   20.6528 H   0  0  0  0  0  0
  -30.0763  -17.2128   22.3076 H   0  0  0  0  0  0
  -31.4632  -16.9629   21.2918 H   0  0  0  0  0  0
  -27.9358  -25.3688   18.5354 H   0  0  0  0  0  0
  -29.5923  -25.6764   18.8495 H   0  0  0  0  0  0
  -29.0205  -15.2658   21.3999 H   0  0  0  0  0  0
  1 25  1  0  0  0
  1 30  2  0  0  0
  1 86  1  0  0  0
  2  3  1  0  0  0
  2 25  1  0  0  0
  2 87  1  0  0  0
  2 88  1  0  0  0
  3  4  1  0  0  0
  3 89  1  0  0  0
  3 90  1  0  0  0
  4  5  1  0  0  0
  4 91  1  0  0  0
  4 92  1  0  0  0
  5  6  1  0  0  0
  5 26  1  0  0  0
  5 93  1  0  0  0
  6 25  1  0  0  0
  6 94  1  0  0  0
  6 95  1  0  0  0
  7  8  2  0  0  0
  7 26  1  0  0  0
  7 29  1  0  0  0
  8  9  1  0  0  0
  8 22  1  0  0  0
  9 10  1  0  0  0
  9 27  2  0  0  0
 10 11  2  0  0  0
 10 15  1  0  0  0
 11 12  1  0  0  0
 11 96  1  0  0  0
 12 13  2  0  0  0
 12 97  1  0  0  0
 13 14  1  0  0  0
 13 31  1  0  0  0
 14 15  2  0  0  0
 14 98  1  0  0  0
 15 99  1  0  0  0
 16 17  2  0  0  0
 16 21  1  0  0  0
 16 31  1  0  0  0
 17 18  1  0  0  0
 17100  1  0  0  0
 18 19  2  0  0  0
 18101  1  0  0  0
 19 20  1  0  0  0
 19 24  1  0  0  0
 20 21  2  0  0  0
 20102  1  0  0  0
 21 23  1  0  0  0
 22 28  1  0  0  0
 22 32  2  0  0  0
 26 27  1  0  0  0
 28103  1  0  0  0
 28104  1  0  0  0
 29105  1  0  0  0
 29106  1  0  0  0
 33 34  1  0  0  0
 33 66  1  0  0  0
 33 70  2  0  0  0
 34 36  1  0  0  0
 34 59  1  0  0  0
 34107  1  0  0  0
 35 44  2  0  0  0
 35 45  1  0  0  0
 35 68  1  0  0  0
 36 56  1  0  0  0
 36108  1  0  0  0
 37 39  1  0  0  0
 37 47  1  0  0  0
 37 66  1  0  0  0
 37109  1  0  0  0
 38 43  2  0  0  0
 38 46  1  0  0  0
 38 47  1  0  0  0
 39 64  1  0  0  0
 39 67  2  0  0  0
 40 52  1  0  0  0
 40 53  2  0  0  0
 40 58  1  0  0  0
 41110  1  0  0  0
 41111  1  0  0  0
 41112  1  0  0  0
 41 48  1  0  0  0
 42 43  1  0  0  0
 42 66  1  0  0  0
 42113  1  0  0  0
 42114  1  0  0  0
 43 44  1  0  0  0
 44115  1  0  0  0
 45 46  2  0  0  0
 45116  1  0  0  0
 46117  1  0  0  0
 47118  1  0  0  0
 47119  1  0  0  0
 48 56  1  0  0  0
 48 65  1  0  0  0
 48120  1  0  0  0
 49 50  1  0  0  0
 49 53  1  0  0  0
 49 64  1  0  0  0
 49121  1  0  0  0
 50 51  1  0  0  0
 50122  1  0  0  0
 50123  1  0  0  0
 51 52  1  0  0  0
 51124  1  0  0  0
 51125  1  0  0  0
 52126  1  0  0  0
 52127  1  0  0  0
 53 54  1  0  0  0
 54 55  2  0  0  0
 54128  1  0  0  0
 55 57  1  0  0  0
 55129  1  0  0  0
 56 69  2  0  0  0
 57 58  2  0  0  0
 57130  1  0  0  0
 58131  1  0  0  0
 59 60  1  0  0  0
 59 61  1  0  0  0
 59 62  1  0  0  0
 60132  1  0  0  0
 60133  1  0  0  0
 60134  1  0  0  0
 61135  1  0  0  0
 61136  1  0  0  0
 61137  1  0  0  0
 62138  1  0  0  0
 62139  1  0  0  0
 62140  1  0  0  0
 63 65  1  0  0  0
 63141  1  0  0  0
 63142  1  0  0  0
 63143  1  0  0  0
 64144  1  0  0  0
 65145  1  0  0  0
 68 84  1  0  0  0
 71 72  2  0  0  0
 71 74  1  0  0  0
 71146  1  0  0  0
 72 73  1  0  0  0
 72 78  1  0  0  0
 73 75  2  0  0  0
 73 79  1  0  0  0
 74 80  1  0  0  0
 74 85  2  0  0  0
 75 76  1  0  0  0
 75 85  1  0  0  0
 76147  1  0  0  0
 76148  1  0  0  0
 76149  1  0  0  0
 77 81  1  0  0  0
 77150  1  0  0  0
 77151  1  0  0  0
 77152  1  0  0  0
 78 82  1  0  0  0
 78153  1  0  0  0
 78154  1  0  0  0
 79 81  1  0  0  0
 79155  1  0  0  0
 79156  1  0  0  0
 80 83  1  0  0  0
 80157  1  0  0  0
 80158  1  0  0  0
 81159  1  0  0  0
 81160  1  0  0  0
 82 84  1  0  0  0
 82161  1  0  0  0
 82162  1  0  0  0
 83 86  1  0  0  0
 83163  1  0  0  0
 83164  1  0  0  0
 84165  1  0  0  0
 84166  1  0  0  0
 86167  1  0  0  0
M  ISO  4   1 100  68 101  84 101  86 100
M  END
> <chiral flag>
0

> <version>
0

> <s_m_source_file>
/data/baiqing/PycharmProjects/Reinvent-master-3.2/result/LINK_invent/BTK/process_docking_weight1_custom_sum_contain_oxygen_bond_distance_aromatic_linkinvent_7_9_3/rearranged_h_0091.sdf

> <i_m_source_file_index>
3

> <r_mmod_Potential_Energy-OPLS-2005>
-214.875778198242

> <r_mmod_Stretch_Energy-OPLS-2005>
46.3467330932617

> <r_mmod_Bend_Energy-OPLS-2005>
116.309120178223

> <r_mmod_Torsional_Energy-OPLS-2005>
198.163681030273

> <r_mmod_Improper_Torsional_Energy-OPLS-2005>
4.47167062759399

> <r_mmod_Van_der_Waal_Energy-OPLS-2005>
155.759719848633

> <r_mmod_Electrostatic_Energy-OPLS-2005>
-528.083068847656

> <r_mmod_Solvation_Energy-OPLS-2005>
-224.80810546875

> <b_mmod_Minimization_Converged-OPLS-2005>
0

> <r_mmod_RMS_Derivative-OPLS-2005>
1.5514303445816

$$$$
3
                    3D
 Structure written by MMmdl.
159167  0  0  1  0            999 V2000
  -30.5411  -14.9634   20.4205 C   0  0  0  0  0  0
  -30.4414  -12.5994   19.5009 C   0  0  0  0  0  0
  -29.5241  -12.5336   18.2583 C   0  0  0  0  0  0
  -28.0585  -12.3147   18.6774 C   0  0  0  0  0  0
  -27.6295  -13.2501   19.8373 C   0  0  2  0  0  0
  -28.6711  -13.2884   20.9757 C   0  0  0  0  0  0
  -25.2460  -13.8225   20.5691 C   0  0  0  0  0  0
  -24.1781  -13.0452   20.9220 C   0  0  0  0  0  0
  -24.6398  -11.6939   20.8760 C   0  0  0  0  0  0
  -23.9085  -10.4309   21.0415 C   0  0  0  0  0  0
  -24.3634   -9.4217   21.9188 C   0  0  0  0  0  0
  -23.6306   -8.2252   22.0755 C   0  0  0  0  0  0
  -22.4283   -8.0293   21.3548 C   0  0  0  0  0  0
  -21.9923   -9.0267   20.4647 C   0  0  0  0  0  0
  -22.7258  -10.2147   20.3061 C   0  0  0  0  0  0
  -21.6861   -6.0739   22.5280 C   0  0  0  0  0  0
  -21.4014   -6.5641   23.8211 C   0  0  0  0  0  0
  -21.3658   -5.6791   24.9173 C   0  0  0  0  0  0
  -21.6045   -4.3051   24.7225 C   0  0  0  0  0  0
  -21.8821   -3.8147   23.4346 C   0  0  0  0  0  0
  -21.9194   -4.6966   22.3405 C   0  0  0  0  0  0
  -22.7803  -13.5224   21.1881 C   0  0  0  0  0  0
  -22.1664   -4.2156   21.0981 F   0  0  0  0  0  0
  -21.5631   -3.4536   25.7735 F   0  0  0  0  0  0
  -29.9451  -13.7021   20.3755 N   0  0  0  0  0  0
  -26.2887  -12.9460   20.3231 N   0  0  0  0  0  0
  -25.9328  -11.6589   20.5738 N   0  0  0  0  0  0
  -22.0448  -12.8216   22.0433 N   0  0  0  0  0  0
  -25.4122  -15.1957   20.4079 N   0  0  0  0  0  0
  -31.7465  -15.0194   20.1568 O   0  0  0  0  0  0
  -21.6645   -6.8890   21.4242 O   0  0  0  0  0  0
  -22.3485  -14.5520   20.6708 O   0  0  0  0  0  0
  -24.6449  -31.8429   23.1876 C   0  0  0  0  0  0
  -25.9219  -32.4699   23.8263 C   0  0  1  0  0  0
  -27.2101  -27.1156   20.1493 C   0  0  0  0  0  0
  -25.5956  -33.8502   24.2181 N   0  0  0  0  0  0
  -23.4479  -30.4631   21.5351 C   0  0  2  0  0  0
  -24.8952  -28.8872   20.1116 C   0  0  0  0  0  0
  -22.7568  -29.4546   22.4868 C   0  0  0  0  0  0
  -18.0303  -28.1413   22.8469 C   0  0  0  0  0  0
  -24.1489  -36.7250   23.2639 C   0  0  0  0  0  0
  -26.0063  -30.7101   21.3885 C   0  0  0  0  0  0
  -26.0759  -29.3198   20.7287 C   0  0  0  0  0  0
  -27.2353  -28.4522   20.7276 C   0  0  0  0  0  0
  -26.0012  -26.7897   19.4956 C   0  0  0  0  0  0
  -24.8722  -27.6360   19.4790 C   0  0  0  0  0  0
  -23.6745  -29.7941   20.1545 C   0  0  0  0  0  0
  -25.4125  -36.3034   24.0310 C   0  0  1  0  0  0
  -20.5911  -28.3737   23.1242 C   0  0  2  0  0  0
  -20.6796  -26.9442   22.5411 C   0  0  0  0  0  0
  -19.5774  -26.6393   21.5220 C   0  0  0  0  0  0
  -18.1950  -26.7950   22.1622 C   0  0  0  0  0  0
  -19.1559  -28.8894   23.2844 C   0  0  0  0  0  0
  -18.9476  -30.1486   23.8878 C   0  0  0  0  0  0
  -17.6474  -30.6608   24.0563 C   0  0  0  0  0  0
  -25.9072  -34.9410   23.5053 C   0  0  0  0  0  0
  -16.5363  -29.9101   23.6345 C   0  0  0  0  0  0
  -16.7286  -28.6520   23.0362 C   0  0  0  0  0  0
  -26.4533  -31.6571   25.0709 C   0  0  0  0  0  0
  -25.3704  -31.3769   26.1395 C   0  0  0  0  0  0
  -27.0401  -30.2963   24.6301 C   0  0  0  0  0  0
  -27.6060  -32.4342   25.7502 C   0  0  0  0  0  0
  -27.5577  -37.1785   24.8465 C   0  0  0  0  0  0
  -21.4260  -29.3051   22.3611 N   0  0  0  0  0  0
  -26.4289  -37.3748   23.9409 N   0  0  0  0  0  0
  -24.7205  -31.0265   22.0925 N   0  0  0  0  0  0
  -23.4206  -28.8093   23.3024 O   0  0  0  0  0  0
  -28.2553  -26.1149   20.2122 O   0  0  0  0  0  0
  -26.5663  -34.8910   22.4634 O   0  0  0  0  0  0
  -23.5569  -32.1314   23.7093 O   0  0  0  0  0  0
  -30.8289  -20.9642   20.3204 C   0  0  0  0  0  0
  -31.2722  -22.3046   20.2627 C   0  0  0  0  0  0
  -28.5799  -21.8374   20.3239 C   0  0  0  0  0  0
  -29.4646  -20.6323   20.3620 C   0  0  0  0  0  0
  -30.4134  -23.4414   20.2562 C   0  0  0  0  0  0
  -28.9939  -23.2760   20.2613 C   0  0  0  0  0  0
  -32.2464  -24.7650   22.4758 C   0  0  0  0  0  0
  -29.0661  -19.0194   20.4280 C   0  0  0  0  0  0
  -31.0657  -24.8276   20.1935 C   0  0  0  0  0  0
  -27.9529  -24.5757   20.1220 C   0  0  0  0  0  0
  -32.3911  -25.0000   20.9649 C   0  0  0  0  0  0
  -30.1469  -17.7036   20.4617 C   0  0  0  0  0  0
  -29.7700  -16.1582   20.5531 N   0  0  0  0  0  0
  -31.4738  -12.7628   19.1890 H   0  0  0  0  0  0
  -30.4397  -11.6494   20.0376 H   0  0  0  0  0  0
  -29.8473  -11.7362   17.5877 H   0  0  0  0  0  0
  -29.6087  -13.4635   17.6940 H   0  0  0  0  0  0
  -27.9612  -11.2745   18.9899 H   0  0  0  0  0  0
  -27.3948  -12.4405   17.8211 H   0  0  0  0  0  0
  -27.5907  -14.2503   19.4049 H   0  0  0  0  0  0
  -28.7608  -12.3171   21.4647 H   0  0  0  0  0  0
  -28.3681  -13.9974   21.7482 H   0  0  0  0  0  0
  -25.2783   -9.5694   22.4756 H   0  0  0  0  0  0
  -24.0019   -7.4643   22.7474 H   0  0  0  0  0  0
  -21.0855   -8.8798   19.8950 H   0  0  0  0  0  0
  -22.3726  -10.9689   19.6171 H   0  0  0  0  0  0
  -21.2004   -7.6147   23.9723 H   0  0  0  0  0  0
  -21.1475   -6.0515   25.9078 H   0  0  0  0  0  0
  -22.0598   -2.7609   23.2845 H   0  0  0  0  0  0
  -22.4054  -11.9890   22.4851 H   0  0  0  0  0  0
  -21.1055  -13.1240   22.2610 H   0  0  0  0  0  0
  -24.6406  -15.8464   20.5078 H   0  0  0  0  0  0
  -26.2491  -15.6315   20.0437 H   0  0  0  0  0  0
  -26.7271  -32.5299   23.0980 H   0  0  0  0  0  0
  -25.0095  -33.9612   25.0324 H   0  0  0  0  0  0
  -22.7512  -31.2902   21.3838 H   0  0  0  0  0  0
  -23.3764  -35.9567   23.3293 H   0  0  0  0  0  0
  -24.3561  -36.8893   22.2052 H   0  0  0  0  0  0
  -23.7232  -37.6438   23.6684 H   0  0  0  0  0  0
  -26.1637  -31.4641   20.6163 H   0  0  0  0  0  0
  -26.8759  -30.7610   22.0323 H   0  0  0  0  0  0
  -28.1339  -28.7798   21.2304 H   0  0  0  0  0  0
  -25.8882  -25.8369   19.0022 H   0  0  0  0  0  0
  -23.9714  -27.2991   18.9850 H   0  0  0  0  0  0
  -23.8149  -30.5718   19.4029 H   0  0  0  0  0  0
  -22.7870  -29.2419   19.8406 H   0  0  0  0  0  0
  -25.1317  -36.1856   25.0801 H   0  0  0  0  0  0
  -20.9997  -28.3331   24.1366 H   0  0  0  0  0  0
  -20.5723  -26.2338   23.3623 H   0  0  0  0  0  0
  -21.6661  -26.7476   22.1192 H   0  0  0  0  0  0
  -19.6940  -25.6297   21.1275 H   0  0  0  0  0  0
  -19.6724  -27.3184   20.6736 H   0  0  0  0  0  0
  -17.4220  -26.6687   21.4024 H   0  0  0  0  0  0
  -18.0349  -26.0105   22.9033 H   0  0  0  0  0  0
  -19.7949  -30.7308   24.2243 H   0  0  0  0  0  0
  -17.5029  -31.6290   24.5169 H   0  0  0  0  0  0
  -15.5364  -30.3005   23.7693 H   0  0  0  0  0  0
  -15.8678  -28.0842   22.7101 H   0  0  0  0  0  0
  -24.5889  -30.7115   25.7707 H   0  0  0  0  0  0
  -24.8890  -32.2955   26.4756 H   0  0  0  0  0  0
  -25.7970  -30.8978   27.0215 H   0  0  0  0  0  0
  -26.3018  -29.6687   24.1293 H   0  0  0  0  0  0
  -27.3993  -29.7266   25.4883 H   0  0  0  0  0  0
  -27.8938  -30.4205   23.9635 H   0  0  0  0  0  0
  -27.2648  -33.3663   26.2021 H   0  0  0  0  0  0
  -28.3904  -32.6869   25.0355 H   0  0  0  0  0  0
  -28.0686  -31.8502   26.5468 H   0  0  0  0  0  0
  -28.2593  -38.0086   24.7518 H   0  0  0  0  0  0
  -28.1080  -36.2616   24.6296 H   0  0  0  0  0  0
  -27.2289  -37.1432   25.8867 H   0  0  0  0  0  0
  -20.9471  -29.8732   21.6762 H   0  0  0  0  0  0
  -26.0156  -38.2813   24.1425 H   0  0  0  0  0  0
  -31.5702  -20.1772   20.3305 H   0  0  0  0  0  0
  -32.3420  -22.4422   20.2197 H   0  0  0  0  0  0
  -27.5149  -21.6507   20.3302 H   0  0  0  0  0  0
  -31.9010  -23.7538   22.6928 H   0  0  0  0  0  0
  -31.5304  -25.4617   22.9134 H   0  0  0  0  0  0
  -33.1979  -24.9078   22.9886 H   0  0  0  0  0  0
  -28.3957  -18.8555   19.5833 H   0  0  0  0  0  0
  -28.4271  -18.9226   21.3053 H   0  0  0  0  0  0
  -30.4087  -25.5751   20.6177 H   0  0  0  0  0  0
  -31.2044  -25.0944   19.1449 H   0  0  0  0  0  0
  -27.1544  -24.3849   20.8392 H   0  0  0  0  0  0
  -27.4990  -24.4180   19.1439 H   0  0  0  0  0  0
  -33.1779  -24.3669   20.5578 H   0  0  0  0  0  0
  -32.7462  -26.0196   20.8090 H   0  0  0  0  0  0
  -30.8189  -17.8771   21.3032 H   0  0  0  0  0  0
  -30.7835  -17.7956   19.5807 H   0  0  0  0  0  0
  -28.7919  -15.9821   20.7282 H   0  0  0  0  0  0
  1 25  1  0  0  0
  1 30  2  0  0  0
  1 83  1  0  0  0
  2  3  1  0  0  0
  2 25  1  0  0  0
  2 84  1  0  0  0
  2 85  1  0  0  0
  3  4  1  0  0  0
  3 86  1  0  0  0
  3 87  1  0  0  0
  4  5  1  0  0  0
  4 88  1  0  0  0
  4 89  1  0  0  0
  5  6  1  0  0  0
  5 26  1  0  0  0
  5 90  1  0  0  0
  6 25  1  0  0  0
  6 91  1  0  0  0
  6 92  1  0  0  0
  7  8  2  0  0  0
  7 26  1  0  0  0
  7 29  1  0  0  0
  8  9  1  0  0  0
  8 22  1  0  0  0
  9 10  1  0  0  0
  9 27  2  0  0  0
 10 11  2  0  0  0
 10 15  1  0  0  0
 11 12  1  0  0  0
 11 93  1  0  0  0
 12 13  2  0  0  0
 12 94  1  0  0  0
 13 14  1  0  0  0
 13 31  1  0  0  0
 14 15  2  0  0  0
 14 95  1  0  0  0
 15 96  1  0  0  0
 16 17  2  0  0  0
 16 21  1  0  0  0
 16 31  1  0  0  0
 17 18  1  0  0  0
 17 97  1  0  0  0
 18 19  2  0  0  0
 18 98  1  0  0  0
 19 20  1  0  0  0
 19 24  1  0  0  0
 20 21  2  0  0  0
 20 99  1  0  0  0
 21 23  1  0  0  0
 22 28  1  0  0  0
 22 32  2  0  0  0
 26 27  1  0  0  0
 28100  1  0  0  0
 28101  1  0  0  0
 29102  1  0  0  0
 29103  1  0  0  0
 33 34  1  0  0  0
 33 66  1  0  0  0
 33 70  2  0  0  0
 34 36  1  0  0  0
 34 59  1  0  0  0
 34104  1  0  0  0
 35 44  2  0  0  0
 35 45  1  0  0  0
 35 68  1  0  0  0
 36 56  1  0  0  0
 36105  1  0  0  0
 37 39  1  0  0  0
 37 47  1  0  0  0
 37 66  1  0  0  0
 37106  1  0  0  0
 38 43  2  0  0  0
 38 46  1  0  0  0
 38 47  1  0  0  0
 39 64  1  0  0  0
 39 67  2  0  0  0
 40 52  1  0  0  0
 40 53  2  0  0  0
 40 58  1  0  0  0
 41107  1  0  0  0
 41108  1  0  0  0
 41109  1  0  0  0
 41 48  1  0  0  0
 42 43  1  0  0  0
 42 66  1  0  0  0
 42110  1  0  0  0
 42111  1  0  0  0
 43 44  1  0  0  0
 44112  1  0  0  0
 45 46  2  0  0  0
 45113  1  0  0  0
 46114  1  0  0  0
 47115  1  0  0  0
 47116  1  0  0  0
 48 56  1  0  0  0
 48 65  1  0  0  0
 48117  1  0  0  0
 49 50  1  0  0  0
 49 53  1  0  0  0
 49 64  1  0  0  0
 49118  1  0  0  0
 50 51  1  0  0  0
 50119  1  0  0  0
 50120  1  0  0  0
 51 52  1  0  0  0
 51121  1  0  0  0
 51122  1  0  0  0
 52123  1  0  0  0
 52124  1  0  0  0
 53 54  1  0  0  0
 54 55  2  0  0  0
 54125  1  0  0  0
 55 57  1  0  0  0
 55126  1  0  0  0
 56 69  2  0  0  0
 57 58  2  0  0  0
 57127  1  0  0  0
 58128  1  0  0  0
 59 60  1  0  0  0
 59 61  1  0  0  0
 59 62  1  0  0  0
 60129  1  0  0  0
 60130  1  0  0  0
 60131  1  0  0  0
 61132  1  0  0  0
 61133  1  0  0  0
 61134  1  0  0  0
 62135  1  0  0  0
 62136  1  0  0  0
 62137  1  0  0  0
 63 65  1  0  0  0
 63138  1  0  0  0
 63139  1  0  0  0
 63140  1  0  0  0
 64141  1  0  0  0
 65142  1  0  0  0
 68 80  1  0  0  0
 71 72  2  0  0  0
 71 74  1  0  0  0
 71143  1  0  0  0
 72 75  1  0  0  0
 72144  1  0  0  0
 73 74  2  0  0  0
 73 76  1  0  0  0
 73145  1  0  0  0
 74 78  1  0  0  0
 75 76  2  0  0  0
 75 79  1  0  0  0
 76 80  1  0  0  0
 77 81  1  0  0  0
 77146  1  0  0  0
 77147  1  0  0  0
 77148  1  0  0  0
 78 82  1  0  0  0
 78149  1  0  0  0
 78150  1  0  0  0
 79 81  1  0  0  0
 79151  1  0  0  0
 79152  1  0  0  0
 80153  1  0  0  0
 80154  1  0  0  0
 81155  1  0  0  0
 81156  1  0  0  0
 82 83  1  0  0  0
 82157  1  0  0  0
 82158  1  0  0  0
 83159  1  0  0  0
M  ISO  4   1 100  68 101  80 101  83 100
M  END
> <chiral flag>
0

> <version>
0

> <s_m_source_file>
/data/baiqing/PycharmProjects/Reinvent-master-3.2/result/LINK_invent/BTK/process_docking_weight1_custom_sum_contain_oxygen_bond_distance_aromatic_linkinvent_7_9_3/rearranged_h_0091.sdf

> <i_m_source_file_index>
4

> <r_mmod_Potential_Energy-OPLS-2005>
536.472717285156

> <r_mmod_Stretch_Energy-OPLS-2005>
287.546081542969

> <r_mmod_Bend_Energy-OPLS-2005>
252.701034545898

> <r_mmod_Torsional_Energy-OPLS-2005>
210.62614440918

> <r_mmod_Improper_Torsional_Energy-OPLS-2005>
4.54650735855103

> <r_mmod_Van_der_Waal_Energy-OPLS-2005>
137.180389404297

> <r_mmod_Electrostatic_Energy-OPLS-2005>
-354.642395019531

> <r_mmod_Solvation_Energy-OPLS-2005>
-208.338088989258

> <b_mmod_Minimization_Converged-OPLS-2005>
0

> <r_mmod_RMS_Derivative-OPLS-2005>
1.43898355960846

$$$$
4
                    3D
 Structure written by MMmdl.
173181  0  0  1  0            999 V2000
  -30.5743  -14.7634   20.4658 C   0  0  0  0  0  0
  -30.4466  -12.4715   19.4522 C   0  0  0  0  0  0
  -29.5092  -12.5078   18.2239 C   0  0  0  0  0  0
  -28.0365  -12.3250   18.6448 C   0  0  0  0  0  0
  -27.6424  -13.2229   19.8467 C   0  0  2  0  0  0
  -28.6926  -13.1458   20.9746 C   0  0  0  0  0  0
  -25.2530  -13.8173   20.5688 C   0  0  0  0  0  0
  -24.1819  -13.0428   20.9212 C   0  0  0  0  0  0
  -24.6401  -11.6900   20.8753 C   0  0  0  0  0  0
  -23.9068  -10.4287   21.0416 C   0  0  0  0  0  0
  -24.3618   -9.4202   21.9190 C   0  0  0  0  0  0
  -23.6299   -8.2235   22.0753 C   0  0  0  0  0  0
  -22.4281   -8.0277   21.3541 C   0  0  0  0  0  0
  -21.9916   -9.0250   20.4644 C   0  0  0  0  0  0
  -22.7242  -10.2131   20.3062 C   0  0  0  0  0  0
  -21.6854   -6.0734   22.5276 C   0  0  0  0  0  0
  -21.4013   -6.5639   23.8209 C   0  0  0  0  0  0
  -21.3659   -5.6793   24.9173 C   0  0  0  0  0  0
  -21.6047   -4.3057   24.7225 C   0  0  0  0  0  0
  -21.8821   -3.8144   23.4348 C   0  0  0  0  0  0
  -21.9195   -4.6961   22.3403 C   0  0  0  0  0  0
  -22.7842  -13.5209   21.1879 C   0  0  0  0  0  0
  -22.1664   -4.2145   21.0981 F   0  0  0  0  0  0
  -21.5632   -3.4543   25.7740 F   0  0  0  0  0  0
  -29.9861  -13.5207   20.3869 N   0  0  0  0  0  0
  -26.2946  -12.9358   20.3268 N   0  0  0  0  0  0
  -25.9327  -11.6509   20.5750 N   0  0  0  0  0  0
  -22.0489  -12.8188   22.0433 N   0  0  0  0  0  0
  -25.4201  -15.1898   20.4086 N   0  0  0  0  0  0
  -31.7747  -14.9033   20.2148 O   0  0  0  0  0  0
  -21.6643   -6.8877   21.4237 O   0  0  0  0  0  0
  -22.3519  -14.5518   20.6737 O   0  0  0  0  0  0
  -24.6318  -31.8539   23.1964 C   0  0  0  0  0  0
  -25.9136  -32.4743   23.8321 C   0  0  1  0  0  0
  -27.2230  -27.2587   20.1369 C   0  0  0  0  0  0
  -25.5922  -33.8544   24.2239 N   0  0  0  0  0  0
  -23.4302  -30.4728   21.5411 C   0  0  2  0  0  0
  -24.8780  -28.9132   20.1155 C   0  0  0  0  0  0
  -22.7514  -29.4583   22.4926 C   0  0  0  0  0  0
  -18.0290  -28.1386   22.8477 C   0  0  0  0  0  0
  -24.1492  -36.7287   23.2645 C   0  0  0  0  0  0
  -25.9753  -30.7655   21.3759 C   0  0  0  0  0  0
  -26.0504  -29.3859   20.7217 C   0  0  0  0  0  0
  -27.2299  -28.5725   20.7165 C   0  0  0  0  0  0
  -26.0303  -26.8462   19.5121 C   0  0  0  0  0  0
  -24.8724  -27.6508   19.4999 C   0  0  0  0  0  0
  -23.6486  -29.8017   20.1593 C   0  0  0  0  0  0
  -25.4121  -36.3069   24.0330 C   0  0  1  0  0  0
  -20.5898  -28.3693   23.1279 C   0  0  2  0  0  0
  -20.6779  -26.9411   22.5419 C   0  0  0  0  0  0
  -19.5753  -26.6381   21.5222 C   0  0  0  0  0  0
  -18.1927  -26.7927   22.1627 C   0  0  0  0  0  0
  -19.1544  -28.8857   23.2864 C   0  0  0  0  0  0
  -18.9467  -30.1456   23.8882 C   0  0  0  0  0  0
  -17.6464  -30.6581   24.0561 C   0  0  0  0  0  0
  -25.9065  -34.9436   23.5098 C   0  0  0  0  0  0
  -16.5356  -29.9079   23.6332 C   0  0  0  0  0  0
  -16.7277  -28.6505   23.0344 C   0  0  0  0  0  0
  -26.4496  -31.6567   25.0717 C   0  0  0  0  0  0
  -25.3711  -31.3717   26.1432 C   0  0  0  0  0  0
  -27.0356  -30.2980   24.6219 C   0  0  0  0  0  0
  -27.6046  -32.4315   25.7484 C   0  0  0  0  0  0
  -27.5582  -37.1792   24.8466 C   0  0  0  0  0  0
  -21.4221  -29.3035   22.3669 N   0  0  0  0  0  0
  -26.4296  -37.3768   23.9410 N   0  0  0  0  0  0
  -24.6983  -31.0495   22.0942 N   0  0  0  0  0  0
  -23.4202  -28.8137   23.3046 O   0  0  0  0  0  0
  -28.3121  -26.3601   20.1256 O   0  0  0  0  0  0
  -26.5655  -34.8915   22.4676 O   0  0  0  0  0  0
  -23.5467  -32.1364   23.7255 O   0  0  0  0  0  0
  -28.3321  -22.7363   22.7147 C   0  0  0  0  0  0
  -28.3763  -21.8541   23.8061 C   0  0  0  0  0  0
  -28.7052  -22.3532   21.3996 C   0  0  0  0  0  0
  -28.8262  -20.5467   23.5684 C   0  0  0  0  0  0
  -29.0670  -20.9243   21.2588 C   0  0  0  0  0  0
  -28.9493  -19.5028   24.6626 C   0  0  0  0  0  0
  -28.8428  -25.2598   27.5816 C   0  0  0  0  0  0
  -26.5421  -24.3081   27.1962 C   0  0  0  0  0  0
  -27.8775  -22.3124   25.1781 C   0  0  0  0  0  0
  -28.6480  -23.5537   20.3307 C   0  0  0  0  0  0
  -29.1782  -20.0074   19.9847 C   0  0  0  0  0  0
  -28.4952  -23.6351   25.6740 C   0  0  0  0  0  0
  -29.9138  -18.5291   19.9258 C   0  0  0  0  0  0
  -29.8595  -17.3282   21.0137 C   0  0  0  0  0  0
  -28.1611  -25.0451   20.8363 C   0  0  0  0  0  0
  -28.0534  -24.0348   27.0980 C   0  0  0  0  0  0
  -29.1359  -20.1183   22.3379 N   0  0  0  0  0  0
  -29.7211  -15.8450   20.6330 N   0  0  0  0  0  0
  -31.4810  -12.6293   19.1405 H   0  0  0  0  0  0
  -30.4200  -11.4924   19.9332 H   0  0  0  0  0  0
  -29.7903  -11.7323   17.5101 H   0  0  0  0  0  0
  -29.6243  -13.4588   17.7013 H   0  0  0  0  0  0
  -27.8981  -11.2761   18.9098 H   0  0  0  0  0  0
  -27.3744  -12.5128   17.7987 H   0  0  0  0  0  0
  -27.6352  -14.2441   19.4656 H   0  0  0  0  0  0
  -28.7406  -12.1401   21.3945 H   0  0  0  0  0  0
  -28.4275  -13.8076   21.8010 H   0  0  0  0  0  0
  -25.2760   -9.5679   22.4769 H   0  0  0  0  0  0
  -24.0009   -7.4622   22.7471 H   0  0  0  0  0  0
  -21.0848   -8.8766   19.8948 H   0  0  0  0  0  0
  -22.3697  -10.9671   19.6179 H   0  0  0  0  0  0
  -21.2000   -7.6146   23.9709 H   0  0  0  0  0  0
  -21.1483   -6.0526   25.9075 H   0  0  0  0  0  0
  -22.0602   -2.7606   23.2849 H   0  0  0  0  0  0
  -22.4115  -11.9845   22.4806 H   0  0  0  0  0  0
  -21.1106  -13.1201   22.2654 H   0  0  0  0  0  0
  -24.6454  -15.8361   20.5129 H   0  0  0  0  0  0
  -26.2548  -15.6323   20.0471 H   0  0  0  0  0  0
  -26.7203  -32.5388   23.1060 H   0  0  0  0  0  0
  -25.0013  -33.9674   25.0344 H   0  0  0  0  0  0
  -22.7272  -31.2944   21.3919 H   0  0  0  0  0  0
  -23.3759  -35.9614   23.3305 H   0  0  0  0  0  0
  -24.3583  -36.8924   22.2063 H   0  0  0  0  0  0
  -23.7237  -37.6483   23.6676 H   0  0  0  0  0  0
  -26.1160  -31.5248   20.6055 H   0  0  0  0  0  0
  -26.8515  -30.8146   22.0110 H   0  0  0  0  0  0
  -28.1318  -28.9302   21.1920 H   0  0  0  0  0  0
  -25.9915  -25.8737   19.0412 H   0  0  0  0  0  0
  -23.9750  -27.2831   19.0218 H   0  0  0  0  0  0
  -23.7738  -30.5754   19.4010 H   0  0  0  0  0  0
  -22.7662  -29.2353   19.8557 H   0  0  0  0  0  0
  -25.1297  -36.1926   25.0824 H   0  0  0  0  0  0
  -20.9969  -28.3278   24.1410 H   0  0  0  0  0  0
  -20.5696  -26.2304   23.3627 H   0  0  0  0  0  0
  -21.6643  -26.7447   22.1203 H   0  0  0  0  0  0
  -19.6929  -25.6295   21.1247 H   0  0  0  0  0  0
  -19.6693  -27.3195   20.6754 H   0  0  0  0  0  0
  -17.4203  -26.6672   21.4022 H   0  0  0  0  0  0
  -18.0318  -26.0070   22.9025 H   0  0  0  0  0  0
  -19.7946  -30.7267   24.2249 H   0  0  0  0  0  0
  -17.5024  -31.6261   24.5162 H   0  0  0  0  0  0
  -15.5354  -30.2972   23.7671 H   0  0  0  0  0  0
  -15.8681  -28.0823   22.7059 H   0  0  0  0  0  0
  -24.5872  -30.7092   25.7742 H   0  0  0  0  0  0
  -24.8914  -32.2888   26.4864 H   0  0  0  0  0  0
  -25.8011  -30.8869   27.0205 H   0  0  0  0  0  0
  -26.2950  -29.6704   24.1244 H   0  0  0  0  0  0
  -27.4035  -29.7268   25.4753 H   0  0  0  0  0  0
  -27.8826  -30.4261   23.9475 H   0  0  0  0  0  0
  -27.2658  -33.3628   26.2036 H   0  0  0  0  0  0
  -28.3854  -32.6852   25.0303 H   0  0  0  0  0  0
  -28.0709  -31.8453   26.5413 H   0  0  0  0  0  0
  -28.2589  -38.0095   24.7512 H   0  0  0  0  0  0
  -28.1081  -36.2624   24.6284 H   0  0  0  0  0  0
  -27.2303  -37.1439   25.8868 H   0  0  0  0  0  0
  -20.9424  -29.8750   21.6854 H   0  0  0  0  0  0
  -26.0184  -38.2851   24.1385 H   0  0  0  0  0  0
  -27.9655  -23.7245   22.9269 H   0  0  0  0  0  0
  -29.6457  -19.8389   25.4309 H   0  0  0  0  0  0
  -29.3186  -18.5532   24.2730 H   0  0  0  0  0  0
  -27.9809  -19.3157   25.1259 H   0  0  0  0  0  0
  -28.5678  -25.5302   28.6018 H   0  0  0  0  0  0
  -28.6556  -26.1265   26.9467 H   0  0  0  0  0  0
  -29.9160  -25.0681   27.5739 H   0  0  0  0  0  0
  -26.2683  -24.6299   28.2020 H   0  0  0  0  0  0
  -25.9505  -23.4188   26.9798 H   0  0  0  0  0  0
  -26.2321  -25.0917   26.5035 H   0  0  0  0  0  0
  -28.0492  -21.5489   25.9350 H   0  0  0  0  0  0
  -26.7948  -22.4146   25.1014 H   0  0  0  0  0  0
  -28.0126  -23.2375   19.5030 H   0  0  0  0  0  0
  -29.6508  -23.6469   19.9138 H   0  0  0  0  0  0
  -29.6191  -20.6246   19.2014 H   0  0  0  0  0  0
  -28.1470  -19.8593   19.6626 H   0  0  0  0  0  0
  -28.2566  -24.4503   24.9914 H   0  0  0  0  0  0
  -29.5818  -23.5354   25.6577 H   0  0  0  0  0  0
  -30.9760  -18.7405   19.7980 H   0  0  0  0  0  0
  -29.6211  -18.0950   18.9700 H   0  0  0  0  0  0
  -28.9978  -17.5208   21.6534 H   0  0  0  0  0  0
  -30.7204  -17.4248   21.6765 H   0  0  0  0  0  0
  -28.7357  -25.2580   21.7371 H   0  0  0  0  0  0
  -27.1263  -24.9509   21.1710 H   0  0  0  0  0  0
  -28.2885  -23.2099   27.7732 H   0  0  0  0  0  0
  -28.7634  -15.5320   20.6826 H   0  0  0  0  0  0
  1 25  1  0  0  0
  1 30  2  0  0  0
  1 88  1  0  0  0
  2  3  1  0  0  0
  2 25  1  0  0  0
  2 89  1  0  0  0
  2 90  1  0  0  0
  3  4  1  0  0  0
  3 91  1  0  0  0
  3 92  1  0  0  0
  4  5  1  0  0  0
  4 93  1  0  0  0
  4 94  1  0  0  0
  5  6  1  0  0  0
  5 26  1  0  0  0
  5 95  1  0  0  0
  6 25  1  0  0  0
  6 96  1  0  0  0
  6 97  1  0  0  0
  7  8  2  0  0  0
  7 26  1  0  0  0
  7 29  1  0  0  0
  8  9  1  0  0  0
  8 22  1  0  0  0
  9 10  1  0  0  0
  9 27  2  0  0  0
 10 11  2  0  0  0
 10 15  1  0  0  0
 11 12  1  0  0  0
 11 98  1  0  0  0
 12 13  2  0  0  0
 12 99  1  0  0  0
 13 14  1  0  0  0
 13 31  1  0  0  0
 14 15  2  0  0  0
 14100  1  0  0  0
 15101  1  0  0  0
 16 17  2  0  0  0
 16 21  1  0  0  0
 16 31  1  0  0  0
 17 18  1  0  0  0
 17102  1  0  0  0
 18 19  2  0  0  0
 18103  1  0  0  0
 19 20  1  0  0  0
 19 24  1  0  0  0
 20 21  2  0  0  0
 20104  1  0  0  0
 21 23  1  0  0  0
 22 28  1  0  0  0
 22 32  2  0  0  0
 26 27  1  0  0  0
 28105  1  0  0  0
 28106  1  0  0  0
 29107  1  0  0  0
 29108  1  0  0  0
 33 34  1  0  0  0
 33 66  1  0  0  0
 33 70  2  0  0  0
 34 36  1  0  0  0
 34 59  1  0  0  0
 34109  1  0  0  0
 35 44  2  0  0  0
 35 45  1  0  0  0
 35 68  1  0  0  0
 36 56  1  0  0  0
 36110  1  0  0  0
 37 39  1  0  0  0
 37 47  1  0  0  0
 37 66  1  0  0  0
 37111  1  0  0  0
 38 43  2  0  0  0
 38 46  1  0  0  0
 38 47  1  0  0  0
 39 64  1  0  0  0
 39 67  2  0  0  0
 40 52  1  0  0  0
 40 53  2  0  0  0
 40 58  1  0  0  0
 41112  1  0  0  0
 41113  1  0  0  0
 41114  1  0  0  0
 41 48  1  0  0  0
 42 43  1  0  0  0
 42 66  1  0  0  0
 42115  1  0  0  0
 42116  1  0  0  0
 43 44  1  0  0  0
 44117  1  0  0  0
 45 46  2  0  0  0
 45118  1  0  0  0
 46119  1  0  0  0
 47120  1  0  0  0
 47121  1  0  0  0
 48 56  1  0  0  0
 48 65  1  0  0  0
 48122  1  0  0  0
 49 50  1  0  0  0
 49 53  1  0  0  0
 49 64  1  0  0  0
 49123  1  0  0  0
 50 51  1  0  0  0
 50124  1  0  0  0
 50125  1  0  0  0
 51 52  1  0  0  0
 51126  1  0  0  0
 51127  1  0  0  0
 52128  1  0  0  0
 52129  1  0  0  0
 53 54  1  0  0  0
 54 55  2  0  0  0
 54130  1  0  0  0
 55 57  1  0  0  0
 55131  1  0  0  0
 56 69  2  0  0  0
 57 58  2  0  0  0
 57132  1  0  0  0
 58133  1  0  0  0
 59 60  1  0  0  0
 59 61  1  0  0  0
 59 62  1  0  0  0
 60134  1  0  0  0
 60135  1  0  0  0
 60136  1  0  0  0
 61137  1  0  0  0
 61138  1  0  0  0
 61139  1  0  0  0
 62140  1  0  0  0
 62141  1  0  0  0
 62142  1  0  0  0
 63 65  1  0  0  0
 63143  1  0  0  0
 63144  1  0  0  0
 63145  1  0  0  0
 64146  1  0  0  0
 65147  1  0  0  0
 68 85  1  0  0  0
 71 72  2  0  0  0
 71 73  1  0  0  0
 71148  1  0  0  0
 72 74  1  0  0  0
 72 79  1  0  0  0
 73 75  2  0  0  0
 73 80  1  0  0  0
 74 76  1  0  0  0
 74 87  2  0  0  0
 75 81  1  0  0  0
 75 87  1  0  0  0
 76149  1  0  0  0
 76150  1  0  0  0
 76151  1  0  0  0
 77152  1  0  0  0
 77153  1  0  0  0
 77154  1  0  0  0
 77 86  1  0  0  0
 78 86  1  0  0  0
 78155  1  0  0  0
 78156  1  0  0  0
 78157  1  0  0  0
 79 82  1  0  0  0
 79158  1  0  0  0
 79159  1  0  0  0
 80 85  1  0  0  0
 80160  1  0  0  0
 80161  1  0  0  0
 81 83  1  0  0  0
 81162  1  0  0  0
 81163  1  0  0  0
 82 86  1  0  0  0
 82164  1  0  0  0
 82165  1  0  0  0
 83 84  1  0  0  0
 83166  1  0  0  0
 83167  1  0  0  0
 84 88  1  0  0  0
 84168  1  0  0  0
 84169  1  0  0  0
 85170  1  0  0  0
 85171  1  0  0  0
 86172  1  0  0  0
 88173  1  0  0  0
M  ISO  4   1 100  68 101  85 101  88 100
M  END
> <chiral flag>
0

> <version>
0

> <s_m_source_file>
/data/baiqing/PycharmProjects/Reinvent-master-3.2/result/LINK_invent/BTK/process_docking_weight1_custom_sum_contain_oxygen_bond_distance_aromatic_linkinvent_7_9_3/rearranged_h_0091.sdf

> <i_m_source_file_index>
5

> <r_mmod_Potential_Energy-OPLS-2005>
129.962280273438

> <r_mmod_Stretch_Energy-OPLS-2005>
145.916152954102

> <r_mmod_Bend_Energy-OPLS-2005>
251.420303344727

> <r_mmod_Torsional_Energy-OPLS-2005>
255.695297241211

> <r_mmod_Improper_Torsional_Energy-OPLS-2005>
5.91694927215576

> <r_mmod_Van_der_Waal_Energy-OPLS-2005>
141.004257202148

> <r_mmod_Electrostatic_Energy-OPLS-2005>
-545.6474609375

> <r_mmod_Solvation_Energy-OPLS-2005>
-216.250747680664

> <b_mmod_Minimization_Converged-OPLS-2005>
0

> <r_mmod_RMS_Derivative-OPLS-2005>
1.13940620422363

$$$$
5
                    3D
 Structure written by MMmdl.
175183  0  0  1  0            999 V2000
  -29.6434  -15.4779   20.6751 C   0  0  0  0  0  0
  -30.3311  -13.0492   19.6827 C   0  0  0  0  0  0
  -29.5292  -12.6644   18.3993 C   0  0  0  0  0  0
  -28.0819  -12.2714   18.7450 C   0  0  0  0  0  0
  -27.5252  -13.2138   19.8331 C   0  0  2  0  0  0
  -28.4306  -13.2989   21.0561 C   0  0  0  0  0  0
  -25.1979  -13.8032   20.5696 C   0  0  0  0  0  0
  -24.1386  -13.0269   20.9275 C   0  0  0  0  0  0
  -24.6001  -11.6747   20.8796 C   0  0  0  0  0  0
  -23.8822  -10.4144   21.0491 C   0  0  0  0  0  0
  -24.3476   -9.4090   21.9253 C   0  0  0  0  0  0
  -23.6186   -8.2115   22.0799 C   0  0  0  0  0  0
  -22.4181   -8.0172   21.3567 C   0  0  0  0  0  0
  -21.9764   -9.0119   20.4688 C   0  0  0  0  0  0
  -22.7046  -10.1995   20.3095 C   0  0  0  0  0  0
  -21.6805   -6.0674   22.5302 C   0  0  0  0  0  0
  -21.3980   -6.5614   23.8229 C   0  0  0  0  0  0
  -21.3638   -5.6777   24.9201 C   0  0  0  0  0  0
  -21.6026   -4.3038   24.7259 C   0  0  0  0  0  0
  -21.8819   -3.8119   23.4392 C   0  0  0  0  0  0
  -21.9173   -4.6914   22.3438 C   0  0  0  0  0  0
  -22.7484  -13.5115   21.1945 C   0  0  0  0  0  0
  -22.1651   -4.2117   21.1015 F   0  0  0  0  0  0
  -21.5625   -3.4534   25.7775 F   0  0  0  0  0  0
  -29.5426  -14.0469   20.5538 N   0  0  0  0  0  0
  -26.2067  -12.9099   20.2800 N   0  0  0  0  0  0
  -25.8790  -11.6293   20.5471 N   0  0  0  0  0  0
  -22.0115  -12.8218   22.0553 N   0  0  0  0  0  0
  -25.3833  -15.1783   20.4395 N   0  0  0  0  0  0
  -30.8262  -15.7150   20.2973 O   0  0  0  0  0  0
  -21.6569   -6.8783   21.4247 O   0  0  0  0  0  0
  -22.3249  -14.5425   20.6738 O   0  0  0  0  0  0
  -24.6377  -31.9255   23.2222 C   0  0  0  0  0  0
  -25.9293  -32.5064   23.8593 C   0  0  1  0  0  0
  -27.0934  -27.4861   20.0012 C   0  0  0  0  0  0
  -25.6195  -33.8829   24.2566 N   0  0  0  0  0  0
  -23.4363  -30.5615   21.5735 C   0  0  2  0  0  0
  -24.8710  -29.1407   20.0117 C   0  0  0  0  0  0
  -22.9446  -29.5107   22.5729 C   0  0  0  0  0  0
  -18.2650  -27.6594   22.6791 C   0  0  0  0  0  0
  -24.1508  -36.7369   23.2609 C   0  0  0  0  0  0
  -25.9701  -30.8561   21.4262 C   0  0  0  0  0  0
  -26.0106  -29.5192   20.7311 C   0  0  0  0  0  0
  -27.1330  -28.6549   20.7925 C   0  0  0  0  0  0
  -26.1699  -27.4090   18.9631 C   0  0  0  0  0  0
  -24.9648  -28.1122   19.0791 C   0  0  0  0  0  0
  -23.6076  -29.9446   20.1628 C   0  0  0  0  0  0
  -25.4119  -36.3224   24.0352 C   0  0  1  0  0  0
  -21.1721  -28.1759   23.4720 C   0  0  2  0  0  0
  -22.1666  -26.5523   22.9236 C   0  0  0  0  0  0
  -19.8523  -24.8764   21.3931 C   0  0  0  0  0  0
  -18.2616  -26.0741   21.7639 C   0  0  0  0  0  0
  -19.4289  -28.4768   23.3410 C   0  0  0  0  0  0
  -19.0883  -29.7773   23.8776 C   0  0  0  0  0  0
  -17.7888  -30.3265   23.9339 C   0  0  0  0  0  0
  -25.9092  -34.9601   23.5183 C   0  0  0  0  0  0
  -16.7235  -29.5613   23.4509 C   0  0  0  0  0  0
  -16.9714  -28.2932   22.8502 C   0  0  0  0  0  0
  -26.4549  -31.6672   25.0869 C   0  0  0  0  0  0
  -25.3704  -31.3772   26.1498 C   0  0  0  0  0  0
  -27.0389  -30.3103   24.6273 C   0  0  0  0  0  0
  -27.6135  -32.4280   25.7717 C   0  0  0  0  0  0
  -27.5606  -37.1868   24.8462 C   0  0  0  0  0  0
  -21.6556  -29.2620   22.6327 N   0  0  0  0  0  0
  -26.4300  -37.3905   23.9440 N   0  0  0  0  0  0
  -24.6935  -31.1595   22.1005 N   0  0  0  0  0  0
  -23.7268  -28.9405   23.3326 O   0  0  0  0  0  0
  -27.6836  -26.3025   20.3250 O   0  0  0  0  0  0
  -26.5505  -34.9006   22.4655 O   0  0  0  0  0  0
  -23.5558  -32.1994   23.7616 O   0  0  0  0  0  0
  -20.5329  -26.9327   21.5215 C   0  0  0  0  0  0
  -21.7235  -26.1660   20.6278 C   0  0  0  0  0  0
  -20.1343  -25.8801   23.3070 C   0  0  0  0  0  0
  -22.4927  -24.8095   21.1211 C   0  0  0  0  0  0
  -21.0967  -24.4356   23.4159 C   0  0  0  0  0  0
  -22.2407  -23.8649   22.3501 C   0  0  0  0  0  0
  -19.7722  -22.4844   24.2866 C   0  0  0  0  0  0
  -20.6794  -24.1894   25.9549 C   0  0  0  0  0  0
  -28.2746  -16.5121   22.8646 C   0  0  0  0  0  0
  -23.9015  -24.4069   20.5295 C   0  0  0  0  0  0
  -23.2968  -22.2648   22.5387 C   0  0  0  0  0  0
  -25.0252  -25.4745   20.5034 C   0  0  0  0  0  0
  -24.6441  -21.0827   21.6497 C   0  0  0  0  0  0
  -25.9067  -19.5650   21.9390 C   0  0  0  0  0  0
  -27.1059  -18.2465   21.0351 C   0  0  0  0  0  0
  -26.6467  -25.2046   20.4903 C   0  0  0  0  0  0
  -20.8816  -23.4956   24.5977 C   0  0  0  0  0  0
  -28.4595  -16.8331   21.3814 C   0  0  2  0  0  0
  -31.2964  -13.4653   19.3887 H   0  0  0  0  0  0
  -30.5789  -12.1557   20.2579 H   0  0  0  0  0  0
  -30.0266  -11.8547   17.8633 H   0  0  0  0  0  0
  -29.5091  -13.5238   17.7275 H   0  0  0  0  0  0
  -28.0854  -11.2435   19.1144 H   0  0  0  0  0  0
  -27.4520  -12.2705   17.8551 H   0  0  0  0  0  0
  -27.4590  -14.1945   19.3566 H   0  0  0  0  0  0
  -28.6950  -12.3176   21.4545 H   0  0  0  0  0  0
  -27.9523  -13.8504   21.8682 H   0  0  0  0  0  0
  -25.2593   -9.5610   22.4870 H   0  0  0  0  0  0
  -23.9896   -7.4513   22.7528 H   0  0  0  0  0  0
  -21.0683   -8.8611   19.9031 H   0  0  0  0  0  0
  -22.3478  -10.9556   19.6251 H   0  0  0  0  0  0
  -21.1970   -7.6130   23.9727 H   0  0  0  0  0  0
  -21.1457   -6.0522   25.9103 H   0  0  0  0  0  0
  -22.0618   -2.7590   23.2902 H   0  0  0  0  0  0
  -22.3646  -11.9839   22.4918 H   0  0  0  0  0  0
  -21.0810  -13.1430   22.2873 H   0  0  0  0  0  0
  -24.6281  -15.8355   20.5943 H   0  0  0  0  0  0
  -26.2351  -15.6236   20.1237 H   0  0  0  0  0  0
  -26.7406  -32.5776   23.1408 H   0  0  0  0  0  0
  -25.0497  -34.0013   25.0809 H   0  0  0  0  0  0
  -22.6740  -31.3413   21.5006 H   0  0  0  0  0  0
  -23.3794  -35.9680   23.3268 H   0  0  0  0  0  0
  -24.3627  -36.8962   22.2026 H   0  0  0  0  0  0
  -23.7217  -37.6570   23.6585 H   0  0  0  0  0  0
  -26.1617  -31.6388   20.6910 H   0  0  0  0  0  0
  -26.8321  -30.8450   22.0789 H   0  0  0  0  0  0
  -27.9194  -28.8195   21.5158 H   0  0  0  0  0  0
  -26.2240  -26.6034   18.2427 H   0  0  0  0  0  0
  -24.1467  -27.9002   18.4056 H   0  0  0  0  0  0
  -23.6388  -30.7455   19.4228 H   0  0  0  0  0  0
  -22.7442  -29.3301   19.9036 H   0  0  0  0  0  0
  -25.1264  -36.2111   25.0839 H   0  0  0  0  0  0
  -21.4407  -28.3893   24.5101 H   0  0  0  0  0  0
  -22.5865  -26.1586   23.8582 H   0  0  0  0  0  0
  -23.1016  -26.8067   22.4233 H   0  0  0  0  0  0
  -19.5984  -23.8594   21.7146 H   0  0  0  0  0  0
  -19.9098  -24.7230   20.3054 H   0  0  0  0  0  0
  -17.7972  -26.2847   20.7995 H   0  0  0  0  0  0
  -17.5314  -25.4520   22.2825 H   0  0  0  0  0  0
  -19.8820  -30.3826   24.2903 H   0  0  0  0  0  0
  -17.6191  -31.3072   24.3566 H   0  0  0  0  0  0
  -15.7151  -29.9493   23.5046 H   0  0  0  0  0  0
  -16.1096  -27.7611   22.4672 H   0  0  0  0  0  0
  -24.5843  -30.7252   25.7676 H   0  0  0  0  0  0
  -24.8968  -32.2945   26.4999 H   0  0  0  0  0  0
  -25.7924  -30.8790   27.0230 H   0  0  0  0  0  0
  -26.3019  -29.6927   24.1143 H   0  0  0  0  0  0
  -27.3948  -29.7274   25.4774 H   0  0  0  0  0  0
  -27.8956  -30.4416   23.9665 H   0  0  0  0  0  0
  -27.2800  -33.3541   26.2412 H   0  0  0  0  0  0
  -28.3968  -32.6878   25.0581 H   0  0  0  0  0  0
  -28.0774  -31.8281   26.5557 H   0  0  0  0  0  0
  -28.2586  -38.0208   24.7607 H   0  0  0  0  0  0
  -28.1148  -36.2751   24.6167 H   0  0  0  0  0  0
  -27.2341  -37.1374   25.8865 H   0  0  0  0  0  0
  -21.0003  -29.7465   22.0322 H   0  0  0  0  0  0
  -26.0192  -38.2972   24.1507 H   0  0  0  0  0  0
  -20.0999  -27.8335   21.1058 H   0  0  0  0  0  0
  -22.0851  -26.6567   19.7376 H   0  0  0  0  0  0
  -19.4368  -26.1024   24.1050 H   0  0  0  0  0  0
  -19.9827  -21.9636   23.3524 H   0  0  0  0  0  0
  -18.8047  -22.9724   24.1871 H   0  0  0  0  0  0
  -19.6914  -21.7233   25.0641 H   0  0  0  0  0  0
  -21.5418  -24.7989   26.2211 H   0  0  0  0  0  0
  -20.5667  -23.4474   26.7468 H   0  0  0  0  0  0
  -19.7941  -24.8203   25.9787 H   0  0  0  0  0  0
  -28.3797  -17.4202   23.4610 H   0  0  0  0  0  0
  -29.0234  -15.8088   23.2357 H   0  0  0  0  0  0
  -27.2794  -16.1113   23.0481 H   0  0  0  0  0  0
  -23.7808  -23.8925   19.5759 H   0  0  0  0  0  0
  -24.4128  -23.7038   21.1532 H   0  0  0  0  0  0
  -22.5271  -21.5505   22.8281 H   0  0  0  0  0  0
  -23.7937  -22.4694   23.4862 H   0  0  0  0  0  0
  -24.8083  -26.2534   21.2281 H   0  0  0  0  0  0
  -24.6697  -25.7827   19.5349 H   0  0  0  0  0  0
  -25.3381  -21.8146   21.2457 H   0  0  0  0  0  0
  -24.0987  -20.7389   20.7722 H   0  0  0  0  0  0
  -25.3430  -18.9266   22.6190 H   0  0  0  0  0  0
  -26.6175  -20.0410   22.6162 H   0  0  0  0  0  0
  -27.6822  -18.9025   20.3863 H   0  0  0  0  0  0
  -26.4451  -17.7539   20.3239 H   0  0  0  0  0  0
  -26.8637  -24.4709   19.7151 H   0  0  0  0  0  0
  -26.9007  -24.7092   21.4278 H   0  0  0  0  0  0
  -21.8040  -22.9251   24.7034 H   0  0  0  0  0  0
  -29.2951  -17.5293   21.4278 H   0  0  0  0  0  0
  1 25  1  0  0  0
  1 30  2  0  0  0
  1 88  1  0  0  0
  2  3  1  0  0  0
  2 25  1  0  0  0
  2 89  1  0  0  0
  2 90  1  0  0  0
  3  4  1  0  0  0
  3 91  1  0  0  0
  3 92  1  0  0  0
  4  5  1  0  0  0
  4 93  1  0  0  0
  4 94  1  0  0  0
  5  6  1  0  0  0
  5 26  1  0  0  0
  5 95  1  0  0  0
  6 25  1  0  0  0
  6 96  1  0  0  0
  6 97  1  0  0  0
  7  8  2  0  0  0
  7 26  1  0  0  0
  7 29  1  0  0  0
  8  9  1  0  0  0
  8 22  1  0  0  0
  9 10  1  0  0  0
  9 27  2  0  0  0
 10 11  2  0  0  0
 10 15  1  0  0  0
 11 12  1  0  0  0
 11 98  1  0  0  0
 12 13  2  0  0  0
 12 99  1  0  0  0
 13 14  1  0  0  0
 13 31  1  0  0  0
 14 15  2  0  0  0
 14100  1  0  0  0
 15101  1  0  0  0
 16 17  2  0  0  0
 16 21  1  0  0  0
 16 31  1  0  0  0
 17 18  1  0  0  0
 17102  1  0  0  0
 18 19  2  0  0  0
 18103  1  0  0  0
 19 20  1  0  0  0
 19 24  1  0  0  0
 20 21  2  0  0  0
 20104  1  0  0  0
 21 23  1  0  0  0
 22 28  1  0  0  0
 22 32  2  0  0  0
 26 27  1  0  0  0
 28105  1  0  0  0
 28106  1  0  0  0
 29107  1  0  0  0
 29108  1  0  0  0
 33 34  1  0  0  0
 33 66  1  0  0  0
 33 70  2  0  0  0
 34 36  1  0  0  0
 34 59  1  0  0  0
 34109  1  0  0  0
 35 44  2  0  0  0
 35 45  1  0  0  0
 35 68  1  0  0  0
 36 56  1  0  0  0
 36110  1  0  0  0
 37 39  1  0  0  0
 37 47  1  0  0  0
 37 66  1  0  0  0
 37111  1  0  0  0
 38 43  2  0  0  0
 38 46  1  0  0  0
 38 47  1  0  0  0
 39 64  1  0  0  0
 39 67  2  0  0  0
 40 52  1  0  0  0
 40 53  2  0  0  0
 40 58  1  0  0  0
 41112  1  0  0  0
 41113  1  0  0  0
 41114  1  0  0  0
 41 48  1  0  0  0
 42 43  1  0  0  0
 42 66  1  0  0  0
 42115  1  0  0  0
 42116  1  0  0  0
 43 44  1  0  0  0
 44117  1  0  0  0
 45 46  2  0  0  0
 45118  1  0  0  0
 46119  1  0  0  0
 47120  1  0  0  0
 47121  1  0  0  0
 48 56  1  0  0  0
 48 65  1  0  0  0
 48122  1  0  0  0
 49 50  1  0  0  0
 49 53  1  0  0  0
 49 64  1  0  0  0
 49123  1  0  0  0
 50 51  1  0  0  0
 50124  1  0  0  0
 50125  1  0  0  0
 51 52  1  0  0  0
 51126  1  0  0  0
 51127  1  0  0  0
 52128  1  0  0  0
 52129  1  0  0  0
 53 54  1  0  0  0
 54 55  2  0  0  0
 54130  1  0  0  0
 55 57  1  0  0  0
 55131  1  0  0  0
 56 69  2  0  0  0
 57 58  2  0  0  0
 57132  1  0  0  0
 58133  1  0  0  0
 59 60  1  0  0  0
 59 61  1  0  0  0
 59 62  1  0  0  0
 60134  1  0  0  0
 60135  1  0  0  0
 60136  1  0  0  0
 61137  1  0  0  0
 61138  1  0  0  0
 61139  1  0  0  0
 62140  1  0  0  0
 62141  1  0  0  0
 62142  1  0  0  0
 63 65  1  0  0  0
 63143  1  0  0  0
 63144  1  0  0  0
 63145  1  0  0  0
 64146  1  0  0  0
 65147  1  0  0  0
 68 86  1  0  0  0
 71 72  2  0  0  0
 71 73  1  0  0  0
 71148  1  0  0  0
 72 74  1  0  0  0
 72149  1  0  0  0
 73 75  2  0  0  0
 73150  1  0  0  0
 74 76  2  0  0  0
 74 80  1  0  0  0
 75 76  1  0  0  0
 75 87  1  0  0  0
 76 81  1  0  0  0
 77151  1  0  0  0
 77152  1  0  0  0
 77153  1  0  0  0
 77 87  1  0  0  0
 78 87  1  0  0  0
 78154  1  0  0  0
 78155  1  0  0  0
 78156  1  0  0  0
 79157  1  0  0  0
 79158  1  0  0  0
 79159  1  0  0  0
 79 88  1  0  0  0
 80 82  1  0  0  0
 80160  1  0  0  0
 80161  1  0  0  0
 81 83  1  0  0  0
 81162  1  0  0  0
 81163  1  0  0  0
 82 86  1  0  0  0
 82164  1  0  0  0
 82165  1  0  0  0
 83 84  1  0  0  0
 83166  1  0  0  0
 83167  1  0  0  0
 84 85  1  0  0  0
 84168  1  0  0  0
 84169  1  0  0  0
 85 88  1  0  0  0
 85170  1  0  0  0
 85171  1  0  0  0
 86172  1  0  0  0
 86173  1  0  0  0
 87174  1  0  0  0
 88175  1  0  0  0
M  ISO  4   1 100  68 101  86 101  88 100
M  END
> <chiral flag>
0

> <version>
0

> <s_m_source_file>
/data/baiqing/PycharmProjects/Reinvent-master-3.2/result/LINK_invent/BTK/process_docking_weight1_custom_sum_contain_oxygen_bond_distance_aromatic_linkinvent_7_9_3/rearranged_h_0091.sdf

> <i_m_source_file_index>
6

> <r_mmod_Potential_Energy-OPLS-2005>
12468.8681640625

> <r_mmod_Stretch_Energy-OPLS-2005>
7283.91748046875

> <r_mmod_Bend_Energy-OPLS-2005>
1005.25164794922

> <r_mmod_Torsional_Energy-OPLS-2005>
323.921966552734

> <r_mmod_Improper_Torsional_Energy-OPLS-2005>
8.74010562896729

> <r_mmod_Van_der_Waal_Energy-OPLS-2005>
2641.3642578125

> <r_mmod_Electrostatic_Energy-OPLS-2005>
-337.319610595703

> <r_mmod_Solvation_Energy-OPLS-2005>
-163.127685546875

> <b_mmod_Minimization_Converged-OPLS-2005>
0

> <r_mmod_RMS_Derivative-OPLS-2005>
9.5869665145874

$$$$
6
                    3D
 Structure written by MMmdl.
185193  0  0  1  0            999 V2000
  -30.7417  -14.4502   20.6029 C   0  0  0  0  0  0
  -30.4135  -12.3126   19.4120 C   0  0  0  0  0  0
  -29.4813  -12.4904   18.1991 C   0  0  0  0  0  0
  -28.0098  -12.3145   18.6156 C   0  0  0  0  0  0
  -27.6504  -13.1657   19.8578 C   0  0  2  0  0  0
  -28.6976  -12.9813   20.9844 C   0  0  0  0  0  0
  -25.2568  -13.8032   20.5505 C   0  0  0  0  0  0
  -24.1818  -13.0401   20.9169 C   0  0  0  0  0  0
  -24.6331  -11.6852   20.8792 C   0  0  0  0  0  0
  -23.9005  -10.4274   21.0467 C   0  0  0  0  0  0
  -24.3592   -9.4182   21.9212 C   0  0  0  0  0  0
  -23.6299   -8.2192   22.0764 C   0  0  0  0  0  0
  -22.4271   -8.0259   21.3558 C   0  0  0  0  0  0
  -21.9889   -9.0244   20.4687 C   0  0  0  0  0  0
  -22.7190  -10.2137   20.3093 C   0  0  0  0  0  0
  -21.6822   -6.0725   22.5271 C   0  0  0  0  0  0
  -21.3987   -6.5635   23.8203 C   0  0  0  0  0  0
  -21.3661   -5.6803   24.9180 C   0  0  0  0  0  0
  -21.6051   -4.3068   24.7229 C   0  0  0  0  0  0
  -21.8797   -3.8136   23.4342 C   0  0  0  0  0  0
  -21.9168   -4.6947   22.3397 C   0  0  0  0  0  0
  -22.7879  -13.5275   21.1872 C   0  0  0  0  0  0
  -22.1636   -4.2134   21.0976 F   0  0  0  0  0  0
  -21.5660   -3.4566   25.7759 F   0  0  0  0  0  0
  -30.0247  -13.3004   20.4329 N   0  0  0  0  0  0
  -26.2945  -12.9104   20.3260 N   0  0  0  0  0  0
  -25.9226  -11.6335   20.5805 N   0  0  0  0  0  0
  -22.0529  -12.8311   22.0481 N   0  0  0  0  0  0
  -25.4356  -15.1690   20.3659 N   0  0  0  0  0  0
  -31.8499  -14.6257   20.0988 O   0  0  0  0  0  0
  -21.6609   -6.8867   21.4242 O   0  0  0  0  0  0
  -22.3589  -14.5588   20.6736 O   0  0  0  0  0  0
  -24.6103  -31.8714   23.2128 C   0  0  0  0  0  0
  -25.9022  -32.4851   23.8410 C   0  0  1  0  0  0
  -27.2466  -27.4896   20.0818 C   0  0  0  0  0  0
  -25.5908  -33.8648   24.2360 N   0  0  0  0  0  0
  -23.3969  -30.4950   21.5510 C   0  0  2  0  0  0
  -24.8481  -28.9671   20.1124 C   0  0  0  0  0  0
  -22.7370  -29.4695   22.4994 C   0  0  0  0  0  0
  -18.0261  -28.1388   22.8485 C   0  0  0  0  0  0
  -24.1481  -36.7331   23.2629 C   0  0  0  0  0  0
  -25.9201  -30.8583   21.3537 C   0  0  0  0  0  0
  -26.0040  -29.4941   20.7028 C   0  0  0  0  0  0
  -27.2090  -28.7635   20.6810 C   0  0  0  0  0  0
  -26.0785  -26.9631   19.4912 C   0  0  0  0  0  0
  -24.8764  -27.6980   19.5039 C   0  0  0  0  0  0
  -23.6033  -29.8237   20.1662 C   0  0  0  0  0  0
  -25.4090  -36.3128   24.0344 C   0  0  1  0  0  0
  -20.5848  -28.3680   23.1310 C   0  0  2  0  0  0
  -20.6758  -26.9417   22.5415 C   0  0  0  0  0  0
  -19.5743  -26.6396   21.5206 C   0  0  0  0  0  0
  -18.1915  -26.7934   22.1613 C   0  0  0  0  0  0
  -19.1510  -28.8847   23.2906 C   0  0  0  0  0  0
  -18.9441  -30.1445   23.8936 C   0  0  0  0  0  0
  -17.6447  -30.6603   24.0566 C   0  0  0  0  0  0
  -25.9026  -34.9485   23.5142 C   0  0  0  0  0  0
  -16.5339  -29.9118   23.6309 C   0  0  0  0  0  0
  -16.7248  -28.6533   23.0331 C   0  0  0  0  0  0
  -26.4461  -31.6620   25.0712 C   0  0  0  0  0  0
  -25.3746  -31.3739   26.1480 C   0  0  0  0  0  0
  -27.0284  -30.3074   24.6040 C   0  0  0  0  0  0
  -27.6052  -32.4311   25.7484 C   0  0  0  0  0  0
  -27.5576  -37.1807   24.8456 C   0  0  0  0  0  0
  -21.4108  -29.3062   22.3730 N   0  0  0  0  0  0
  -26.4277  -37.3803   23.9419 N   0  0  0  0  0  0
  -24.6613  -31.0861   22.1003 N   0  0  0  0  0  0
  -23.4154  -28.8229   23.3018 O   0  0  0  0  0  0
  -28.4166  -26.7745   20.0772 O   0  0  0  0  0  0
  -26.5558  -34.8931   22.4690 O   0  0  0  0  0  0
  -23.5308  -32.1439   23.7563 O   0  0  0  0  0  0
  -27.1115  -21.7178   18.7083 C   0  0  0  0  0  0
  -27.5292  -20.8794   20.9365 C   0  0  0  0  0  0
  -27.2881  -21.9700   20.0798 C   0  0  0  0  0  0
  -27.1710  -20.3884   18.2522 C   0  0  0  0  0  0
  -27.5583  -19.5731   20.4023 C   0  0  0  0  0  0
  -23.5127  -18.1454   16.7694 C   0  0  0  0  0  0
  -25.7854  -17.0898   16.5033 C   0  0  0  0  0  0
  -25.2186  -17.2179   23.4121 C   0  0  0  0  0  0
  -25.4700  -19.6317   24.0862 C   0  0  0  0  0  0
  -27.1884  -23.3791   20.6347 C   0  0  0  0  0  0
  -26.9664  -20.0655   16.7802 C   0  0  0  0  0  0
  -28.2654  -24.3269   20.0827 C   0  0  0  0  0  0
  -25.5238  -19.6424   16.4173 C   0  0  0  0  0  0
  -29.1029  -17.6541   21.1528 C   0  0  0  0  0  0
  -27.3193  -18.4940   22.7599 C   0  0  0  0  0  0
  -28.9792  -16.1178   21.1614 C   0  0  0  0  0  0
  -28.3796  -25.6187   20.9105 C   0  0  0  0  0  0
  -27.7084  -18.3144   21.2693 C   0  0  1  0  0  0
  -25.0166  -18.3151   17.0304 C   0  0  0  0  0  0
  -25.7982  -18.5848   23.0124 C   0  0  0  0  0  0
  -27.3993  -19.3446   19.0794 N   0  0  0  0  0  0
  -30.2406  -15.4115   21.3982 N   0  0  0  0  0  0
  -31.4564  -12.4110   19.1043 H   0  0  0  0  0  0
  -30.3217  -11.3048   19.8186 H   0  0  0  0  0  0
  -29.7395  -11.7695   17.4226 H   0  0  0  0  0  0
  -29.6279  -13.4804   17.7649 H   0  0  0  0  0  0
  -27.8422  -11.2574   18.8289 H   0  0  0  0  0  0
  -27.3493  -12.5628   17.7837 H   0  0  0  0  0  0
  -27.6717  -14.1843   19.4969 H   0  0  0  0  0  0
  -28.6927  -11.9470   21.3329 H   0  0  0  0  0  0
  -28.4540  -13.5751   21.8646 H   0  0  0  0  0  0
  -25.2742   -9.5641   22.4775 H   0  0  0  0  0  0
  -24.0035   -7.4567   22.7449 H   0  0  0  0  0  0
  -21.0784   -8.8782   19.9041 H   0  0  0  0  0  0
  -22.3619  -10.9719   19.6258 H   0  0  0  0  0  0
  -21.1943   -7.6148   23.9699 H   0  0  0  0  0  0
  -21.1507   -6.0535   25.9098 H   0  0  0  0  0  0
  -22.0576   -2.7584   23.2845 H   0  0  0  0  0  0
  -22.4089  -11.9881   22.4734 H   0  0  0  0  0  0
  -21.1244  -13.1505   22.2856 H   0  0  0  0  0  0
  -24.6704  -15.8265   20.4566 H   0  0  0  0  0  0
  -26.2659  -15.5833   19.9669 H   0  0  0  0  0  0
  -26.7107  -32.5590   23.1199 H   0  0  0  0  0  0
  -25.0098  -33.9829   25.0527 H   0  0  0  0  0  0
  -22.6836  -31.3111   21.4110 H   0  0  0  0  0  0
  -23.3745  -35.9666   23.3292 H   0  0  0  0  0  0
  -24.3564  -36.8926   22.2038 H   0  0  0  0  0  0
  -23.7232  -37.6535   23.6641 H   0  0  0  0  0  0
  -26.0104  -31.6225   20.5806 H   0  0  0  0  0  0
  -26.8164  -30.9256   21.9602 H   0  0  0  0  0  0
  -28.1077  -29.1678   21.1247 H   0  0  0  0  0  0
  -26.1028  -25.9942   19.0148 H   0  0  0  0  0  0
  -23.9884  -27.2864   19.0429 H   0  0  0  0  0  0
  -23.7034  -30.5980   19.4046 H   0  0  0  0  0  0
  -22.7319  -29.2351   19.8747 H   0  0  0  0  0  0
  -25.1255  -36.1992   25.0834 H   0  0  0  0  0  0
  -20.9940  -28.3272   24.1431 H   0  0  0  0  0  0
  -20.5642  -26.2299   23.3603 H   0  0  0  0  0  0
  -21.6624  -26.7465   22.1209 H   0  0  0  0  0  0
  -19.6909  -25.6308   21.1232 H   0  0  0  0  0  0
  -19.6684  -27.3211   20.6737 H   0  0  0  0  0  0
  -17.4170  -26.6655   21.4034 H   0  0  0  0  0  0
  -18.0342  -26.0080   22.9014 H   0  0  0  0  0  0
  -19.7915  -30.7231   24.2342 H   0  0  0  0  0  0
  -17.5011  -31.6276   24.5168 H   0  0  0  0  0  0
  -15.5341  -30.3039   23.7627 H   0  0  0  0  0  0
  -15.8632  -28.0873   22.7031 H   0  0  0  0  0  0
  -24.5908  -30.7087   25.7851 H   0  0  0  0  0  0
  -24.8948  -32.2901   26.4925 H   0  0  0  0  0  0
  -25.8091  -30.8919   27.0242 H   0  0  0  0  0  0
  -26.2831  -29.6860   24.1061 H   0  0  0  0  0  0
  -27.4058  -29.7271   25.4470 H   0  0  0  0  0  0
  -27.8650  -30.4424   23.9181 H   0  0  0  0  0  0
  -27.2694  -33.3591   26.2118 H   0  0  0  0  0  0
  -28.3846  -32.6883   25.0308 H   0  0  0  0  0  0
  -28.0745  -31.8387   26.5346 H   0  0  0  0  0  0
  -28.2588  -38.0109   24.7501 H   0  0  0  0  0  0
  -28.1066  -36.2635   24.6272 H   0  0  0  0  0  0
  -27.2286  -37.1440   25.8853 H   0  0  0  0  0  0
  -20.9269  -29.8793   21.6956 H   0  0  0  0  0  0
  -26.0173  -38.2880   24.1435 H   0  0  0  0  0  0
  -26.9281  -22.5300   18.0167 H   0  0  0  0  0  0
  -27.6575  -21.0596   21.9929 H   0  0  0  0  0  0
  -23.1270  -17.2515   17.2634 H   0  0  0  0  0  0
  -23.3026  -18.0588   15.7016 H   0  0  0  0  0  0
  -22.9466  -18.9939   17.1552 H   0  0  0  0  0  0
  -25.4379  -16.1740   16.9811 H   0  0  0  0  0  0
  -26.8530  -17.1605   16.7067 H   0  0  0  0  0  0
  -25.6551  -16.9711   15.4264 H   0  0  0  0  0  0
  -24.1343  -17.2546   23.5054 H   0  0  0  0  0  0
  -25.6188  -16.8766   24.3686 H   0  0  0  0  0  0
  -25.4550  -16.4518   22.6769 H   0  0  0  0  0  0
  -24.3930  -19.7204   24.2339 H   0  0  0  0  0  0
  -25.8403  -20.6176   23.8015 H   0  0  0  0  0  0
  -25.9126  -19.3674   25.0469 H   0  0  0  0  0  0
  -27.2448  -23.3374   21.7231 H   0  0  0  0  0  0
  -26.1991  -23.7764   20.4044 H   0  0  0  0  0  0
  -27.6878  -19.3104   16.4707 H   0  0  0  0  0  0
  -27.2217  -20.9571   16.2044 H   0  0  0  0  0  0
  -28.0481  -24.5529   19.0377 H   0  0  0  0  0  0
  -29.2352  -23.8268   20.0863 H   0  0  0  0  0  0
  -25.4425  -19.5820   15.3317 H   0  0  0  0  0  0
  -24.8592  -20.4542   16.7162 H   0  0  0  0  0  0
  -29.5728  -17.9478   20.2125 H   0  0  0  0  0  0
  -29.7586  -18.0189   21.9433 H   0  0  0  0  0  0
  -27.8507  -19.3418   23.1919 H   0  0  0  0  0  0
  -27.7058  -17.6488   23.3281 H   0  0  0  0  0  0
  -28.5794  -15.8560   20.1872 H   0  0  0  0  0  0
  -28.2536  -15.8001   21.9109 H   0  0  0  0  0  0
  -29.2923  -25.5959   21.5077 H   0  0  0  0  0  0
  -27.5642  -25.6881   21.6357 H   0  0  0  0  0  0
  -26.9888  -17.6123   20.8459 H   0  0  0  0  0  0
  -25.1430  -18.3541   18.1116 H   0  0  0  0  0  0
  -25.3082  -18.9088   22.0929 H   0  0  0  0  0  0
  -30.9661  -16.0297   21.7306 H   0  0  0  0  0  0
  1 25  1  0  0  0
  1 30  2  0  0  0
  1 92  1  0  0  0
  2  3  1  0  0  0
  2 25  1  0  0  0
  2 93  1  0  0  0
  2 94  1  0  0  0
  3  4  1  0  0  0
  3 95  1  0  0  0
  3 96  1  0  0  0
  4  5  1  0  0  0
  4 97  1  0  0  0
  4 98  1  0  0  0
  5  6  1  0  0  0
  5 26  1  0  0  0
  5 99  1  0  0  0
  6 25  1  0  0  0
  6100  1  0  0  0
  6101  1  0  0  0
  7  8  2  0  0  0
  7 26  1  0  0  0
  7 29  1  0  0  0
  8  9  1  0  0  0
  8 22  1  0  0  0
  9 10  1  0  0  0
  9 27  2  0  0  0
 10 11  2  0  0  0
 10 15  1  0  0  0
 11 12  1  0  0  0
 11102  1  0  0  0
 12 13  2  0  0  0
 12103  1  0  0  0
 13 14  1  0  0  0
 13 31  1  0  0  0
 14 15  2  0  0  0
 14104  1  0  0  0
 15105  1  0  0  0
 16 17  2  0  0  0
 16 21  1  0  0  0
 16 31  1  0  0  0
 17 18  1  0  0  0
 17106  1  0  0  0
 18 19  2  0  0  0
 18107  1  0  0  0
 19 20  1  0  0  0
 19 24  1  0  0  0
 20 21  2  0  0  0
 20108  1  0  0  0
 21 23  1  0  0  0
 22 28  1  0  0  0
 22 32  2  0  0  0
 26 27  1  0  0  0
 28109  1  0  0  0
 28110  1  0  0  0
 29111  1  0  0  0
 29112  1  0  0  0
 33 34  1  0  0  0
 33 66  1  0  0  0
 33 70  2  0  0  0
 34 36  1  0  0  0
 34 59  1  0  0  0
 34113  1  0  0  0
 35 44  2  0  0  0
 35 45  1  0  0  0
 35 68  1  0  0  0
 36 56  1  0  0  0
 36114  1  0  0  0
 37 39  1  0  0  0
 37 47  1  0  0  0
 37 66  1  0  0  0
 37115  1  0  0  0
 38 43  2  0  0  0
 38 46  1  0  0  0
 38 47  1  0  0  0
 39 64  1  0  0  0
 39 67  2  0  0  0
 40 52  1  0  0  0
 40 53  2  0  0  0
 40 58  1  0  0  0
 41116  1  0  0  0
 41117  1  0  0  0
 41118  1  0  0  0
 41 48  1  0  0  0
 42 43  1  0  0  0
 42 66  1  0  0  0
 42119  1  0  0  0
 42120  1  0  0  0
 43 44  1  0  0  0
 44121  1  0  0  0
 45 46  2  0  0  0
 45122  1  0  0  0
 46123  1  0  0  0
 47124  1  0  0  0
 47125  1  0  0  0
 48 56  1  0  0  0
 48 65  1  0  0  0
 48126  1  0  0  0
 49 50  1  0  0  0
 49 53  1  0  0  0
 49 64  1  0  0  0
 49127  1  0  0  0
 50 51  1  0  0  0
 50128  1  0  0  0
 50129  1  0  0  0
 51 52  1  0  0  0
 51130  1  0  0  0
 51131  1  0  0  0
 52132  1  0  0  0
 52133  1  0  0  0
 53 54  1  0  0  0
 54 55  2  0  0  0
 54134  1  0  0  0
 55 57  1  0  0  0
 55135  1  0  0  0
 56 69  2  0  0  0
 57 58  2  0  0  0
 57136  1  0  0  0
 58137  1  0  0  0
 59 60  1  0  0  0
 59 61  1  0  0  0
 59 62  1  0  0  0
 60138  1  0  0  0
 60139  1  0  0  0
 60140  1  0  0  0
 61141  1  0  0  0
 61142  1  0  0  0
 61143  1  0  0  0
 62144  1  0  0  0
 62145  1  0  0  0
 62146  1  0  0  0
 63 65  1  0  0  0
 63147  1  0  0  0
 63148  1  0  0  0
 63149  1  0  0  0
 64150  1  0  0  0
 65151  1  0  0  0
 68 87  1  0  0  0
 71 73  2  0  0  0
 71 74  1  0  0  0
 71152  1  0  0  0
 72 73  1  0  0  0
 72 75  2  0  0  0
 72153  1  0  0  0
 73 80  1  0  0  0
 74 81  1  0  0  0
 74 91  2  0  0  0
 75 88  1  0  0  0
 75 91  1  0  0  0
 76154  1  0  0  0
 76155  1  0  0  0
 76156  1  0  0  0
 76 89  1  0  0  0
 77 89  1  0  0  0
 77157  1  0  0  0
 77158  1  0  0  0
 77159  1  0  0  0
 78160  1  0  0  0
 78161  1  0  0  0
 78162  1  0  0  0
 78 90  1  0  0  0
 79 90  1  0  0  0
 79163  1  0  0  0
 79164  1  0  0  0
 79165  1  0  0  0
 80 82  1  0  0  0
 80166  1  0  0  0
 80167  1  0  0  0
 81 83  1  0  0  0
 81168  1  0  0  0
 81169  1  0  0  0
 82 87  1  0  0  0
 82170  1  0  0  0
 82171  1  0  0  0
 83 89  1  0  0  0
 83172  1  0  0  0
 83173  1  0  0  0
 84 86  1  0  0  0
 84174  1  0  0  0
 84175  1  0  0  0
 84 88  1  0  0  0
 85 88  1  0  0  0
 85 90  1  0  0  0
 85176  1  0  0  0
 85177  1  0  0  0
 86 92  1  0  0  0
 86178  1  0  0  0
 86179  1  0  0  0
 87180  1  0  0  0
 87181  1  0  0  0
 88182  1  0  0  0
 89183  1  0  0  0
 90184  1  0  0  0
 92185  1  0  0  0
M  ISO  4   1 100  68 101  87 101  92 100
M  END
> <chiral flag>
0

> <version>
0

> <s_m_source_file>
/data/baiqing/PycharmProjects/Reinvent-master-3.2/result/LINK_invent/BTK/process_docking_weight1_custom_sum_contain_oxygen_bond_distance_aromatic_linkinvent_7_9_3/rearranged_h_0091.sdf

> <i_m_source_file_index>
7

> <r_mmod_Potential_Energy-OPLS-2005>
-135.840362548828

> <r_mmod_Stretch_Energy-OPLS-2005>
34.4338111877441

> <r_mmod_Bend_Energy-OPLS-2005>
111.810806274414

> <r_mmod_Torsional_Energy-OPLS-2005>
298.018188476562

> <r_mmod_Improper_Torsional_Energy-OPLS-2005>
5.69388628005981

> <r_mmod_Van_der_Waal_Energy-OPLS-2005>
141.850875854492

> <r_mmod_Electrostatic_Energy-OPLS-2005>
-548.790283203125

> <r_mmod_Solvation_Energy-OPLS-2005>
-190.67057800293

> <b_mmod_Minimization_Converged-OPLS-2005>
0

> <r_mmod_RMS_Derivative-OPLS-2005>
3.55126476287842

$$$$
7
                    3D
 Structure written by MMmdl.
158165  0  0  1  0            999 V2000
  -30.4609  -15.1837   20.3815 C   0  0  0  0  0  0
  -30.4379  -12.7493   19.5147 C   0  0  0  0  0  0
  -29.5289  -12.5604   18.2757 C   0  0  0  0  0  0
  -28.0721  -12.3029   18.7021 C   0  0  0  0  0  0
  -27.6135  -13.2686   19.8241 C   0  0  2  0  0  0
  -28.6527  -13.4073   20.9560 C   0  0  0  0  0  0
  -25.2399  -13.8213   20.5776 C   0  0  0  0  0  0
  -24.1751  -13.0410   20.9269 C   0  0  0  0  0  0
  -24.6394  -11.6905   20.8767 C   0  0  0  0  0  0
  -23.9097  -10.4275   21.0412 C   0  0  0  0  0  0
  -24.3639   -9.4191   21.9190 C   0  0  0  0  0  0
  -23.6309   -8.2237   22.0762 C   0  0  0  0  0  0
  -22.4291   -8.0287   21.3558 C   0  0  0  0  0  0
  -21.9929   -9.0256   20.4654 C   0  0  0  0  0  0
  -22.7264  -10.2130   20.3060 C   0  0  0  0  0  0
  -21.6853   -6.0746   22.5282 C   0  0  0  0  0  0
  -21.4014   -6.5647   23.8218 C   0  0  0  0  0  0
  -21.3654   -5.6802   24.9177 C   0  0  0  0  0  0
  -21.6047   -4.3064   24.7227 C   0  0  0  0  0  0
  -21.8820   -3.8155   23.4349 C   0  0  0  0  0  0
  -21.9189   -4.6974   22.3407 C   0  0  0  0  0  0
  -22.7762  -13.5170   21.1903 C   0  0  0  0  0  0
  -22.1653   -4.2158   21.0983 F   0  0  0  0  0  0
  -21.5629   -3.4546   25.7739 F   0  0  0  0  0  0
  -29.8933  -13.8883   20.3309 N   0  0  0  0  0  0
  -26.2827  -12.9490   20.3226 N   0  0  0  0  0  0
  -25.9333  -11.6597   20.5725 N   0  0  0  0  0  0
  -22.0418  -12.8168   22.0459 N   0  0  0  0  0  0
  -25.4002  -15.1945   20.4244 N   0  0  0  0  0  0
  -31.6846  -15.2036   20.1895 O   0  0  0  0  0  0
  -21.6647   -6.8889   21.4247 O   0  0  0  0  0  0
  -22.3447  -14.5469   20.6730 O   0  0  0  0  0  0
  -24.6576  -31.8291   23.1740 C   0  0  0  0  0  0
  -25.9279  -32.4620   23.8188 C   0  0  1  0  0  0
  -27.2203  -26.9734   20.1930 C   0  0  0  0  0  0
  -25.5964  -33.8433   24.2094 N   0  0  0  0  0  0
  -23.4691  -30.4412   21.5232 C   0  0  2  0  0  0
  -24.9210  -28.8281   20.1229 C   0  0  0  0  0  0
  -22.7635  -29.4473   22.4821 C   0  0  0  0  0  0
  -18.0326  -28.1402   22.8477 C   0  0  0  0  0  0
  -24.1487  -36.7216   23.2646 C   0  0  0  0  0  0
  -26.0348  -30.6518   21.3945 C   0  0  0  0  0  0
  -26.1051  -29.2426   20.7470 C   0  0  0  0  0  0
  -27.2540  -28.3383   20.7509 C   0  0  0  0  0  0
  -26.0054  -26.6931   19.5318 C   0  0  0  0  0  0
  -24.8923  -27.5711   19.4967 C   0  0  0  0  0  0
  -23.7072  -29.7534   20.1512 C   0  0  0  0  0  0
  -25.4127  -36.2986   24.0306 C   0  0  1  0  0  0
  -20.5940  -28.3739   23.1208 C   0  0  2  0  0  0
  -20.6800  -26.9431   22.5401 C   0  0  0  0  0  0
  -19.5766  -26.6376   21.5219 C   0  0  0  0  0  0
  -18.1953  -26.7936   22.1627 C   0  0  0  0  0  0
  -19.1586  -28.8897   23.2833 C   0  0  0  0  0  0
  -18.9491  -30.1491   23.8857 C   0  0  0  0  0  0
  -17.6477  -30.6597   24.0552 C   0  0  0  0  0  0
  -25.9086  -34.9372   23.5016 C   0  0  0  0  0  0
  -16.5374  -29.9085   23.6337 C   0  0  0  0  0  0
  -16.7307  -28.6501   23.0358 C   0  0  0  0  0  0
  -26.4547  -31.6549   25.0698 C   0  0  0  0  0  0
  -25.3677  -31.3788   26.1356 C   0  0  0  0  0  0
  -27.0433  -30.2925   24.6380 C   0  0  0  0  0  0
  -27.6039  -32.4352   25.7494 C   0  0  0  0  0  0
  -27.5566  -37.1767   24.8465 C   0  0  0  0  0  0
  -21.4311  -29.3046   22.3570 N   0  0  0  0  0  0
  -26.4272  -37.3721   23.9413 N   0  0  0  0  0  0
  -24.7417  -31.0003   22.0852 N   0  0  0  0  0  0
  -23.4208  -28.8053   23.3053 O   0  0  0  0  0  0
  -28.2599  -25.9203   20.1867 O   0  0  0  0  0  0
  -26.5695  -34.8901   22.4612 O   0  0  0  0  0  0
  -23.5655  -32.1227   23.6866 O   0  0  0  0  0  0
  -27.0635  -18.6027   21.6014 C   0  0  0  0  0  0
  -27.0574  -18.0134   19.1453 C   0  0  0  0  0  0
  -26.4790  -20.2914   19.8557 C   0  0  0  0  0  0
  -28.7046  -22.7928   19.9264 C   0  0  0  0  0  0
  -29.1034  -21.1959   20.6367 C   0  0  0  0  0  0
  -29.9291  -18.0625   20.5420 C   0  0  0  0  0  0
  -28.1079  -24.3422   20.5773 C   0  0  0  0  0  0
  -28.9344  -19.4917   20.1071 C   0  0  1  0  0  0
  -27.4121  -19.1017   20.1845 C   0  0  0  0  0  0
  -29.6767  -16.4250   20.4494 N   0  0  0  0  0  0
  -31.4627  -12.9388   19.1926 H   0  0  0  0  0  0
  -30.4800  -11.8340   20.1062 H   0  0  0  0  0  0
  -29.8916  -11.7369   17.6584 H   0  0  0  0  0  0
  -29.5726  -13.4548   17.6529 H   0  0  0  0  0  0
  -28.0097  -11.2735   19.0580 H   0  0  0  0  0  0
  -27.4048  -12.3679   17.8415 H   0  0  0  0  0  0
  -27.5360  -14.2443   19.3423 H   0  0  0  0  0  0
  -28.8031  -12.4610   21.4776 H   0  0  0  0  0  0
  -28.3111  -14.1263   21.7026 H   0  0  0  0  0  0
  -25.2777   -9.5671   22.4777 H   0  0  0  0  0  0
  -24.0015   -7.4627   22.7487 H   0  0  0  0  0  0
  -21.0857   -8.8773   19.8970 H   0  0  0  0  0  0
  -22.3709  -10.9674   19.6183 H   0  0  0  0  0  0
  -21.2000   -7.6152   23.9717 H   0  0  0  0  0  0
  -21.1482   -6.0534   25.9083 H   0  0  0  0  0  0
  -22.0602   -2.7614   23.2844 H   0  0  0  0  0  0
  -22.4021  -11.9836   22.4863 H   0  0  0  0  0  0
  -21.1039  -13.1202   22.2651 H   0  0  0  0  0  0
  -24.6259  -15.8373   20.5506 H   0  0  0  0  0  0
  -26.2341  -15.6430   20.0734 H   0  0  0  0  0  0
  -26.7343  -32.5185   23.0906 H   0  0  0  0  0  0
  -25.0075  -33.9515   25.0218 H   0  0  0  0  0  0
  -22.7797  -31.2712   21.3525 H   0  0  0  0  0  0
  -23.3764  -35.9532   23.3281 H   0  0  0  0  0  0
  -24.3553  -36.8884   22.2061 H   0  0  0  0  0  0
  -23.7225  -37.6394   23.6714 H   0  0  0  0  0  0
  -26.2032  -31.3918   20.6106 H   0  0  0  0  0  0
  -26.8996  -30.7119   22.0438 H   0  0  0  0  0  0
  -28.1594  -28.6603   21.2459 H   0  0  0  0  0  0
  -25.9004  -25.7335   19.0464 H   0  0  0  0  0  0
  -23.9919  -27.2453   18.9944 H   0  0  0  0  0  0
  -23.8654  -30.5171   19.3897 H   0  0  0  0  0  0
  -22.8172  -29.2072   19.8342 H   0  0  0  0  0  0
  -25.1326  -36.1779   25.0797 H   0  0  0  0  0  0
  -21.0034  -28.3334   24.1327 H   0  0  0  0  0  0
  -20.5684  -26.2360   23.3637 H   0  0  0  0  0  0
  -21.6665  -26.7419   22.1200 H   0  0  0  0  0  0
  -19.6917  -25.6279   21.1273 H   0  0  0  0  0  0
  -19.6690  -27.3166   20.6735 H   0  0  0  0  0  0
  -17.4218  -26.6694   21.4032 H   0  0  0  0  0  0
  -18.0344  -26.0090   22.9032 H   0  0  0  0  0  0
  -19.7966  -30.7334   24.2188 H   0  0  0  0  0  0
  -17.5029  -31.6269   24.5171 H   0  0  0  0  0  0
  -15.5367  -30.2965   23.7691 H   0  0  0  0  0  0
  -15.8706  -28.0810   22.7083 H   0  0  0  0  0  0
  -24.5877  -30.7119   25.7663 H   0  0  0  0  0  0
  -24.8848  -32.2987   26.4659 H   0  0  0  0  0  0
  -25.7910  -30.9033   27.0208 H   0  0  0  0  0  0
  -26.3086  -29.6616   24.1359 H   0  0  0  0  0  0
  -27.3963  -29.7272   25.5013 H   0  0  0  0  0  0
  -27.9027  -30.4136   23.9783 H   0  0  0  0  0  0
  -27.2614  -33.3697   26.1952 H   0  0  0  0  0  0
  -28.3912  -32.6833   25.0366 H   0  0  0  0  0  0
  -28.0636  -31.8551   26.5505 H   0  0  0  0  0  0
  -28.2571  -38.0077   24.7523 H   0  0  0  0  0  0
  -28.1074  -36.2601   24.6283 H   0  0  0  0  0  0
  -27.2283  -37.1410   25.8870 H   0  0  0  0  0  0
  -20.9565  -29.8738   21.6702 H   0  0  0  0  0  0
  -26.0117  -38.2778   24.1430 H   0  0  0  0  0  0
  -25.9961  -18.4022   21.6993 H   0  0  0  0  0  0
  -27.3263  -19.3400   22.3602 H   0  0  0  0  0  0
  -27.5810  -17.6782   21.8555 H   0  0  0  0  0  0
  -25.9920  -17.7801   19.1700 H   0  0  0  0  0  0
  -27.5723  -17.0728   19.3024 H   0  0  0  0  0  0
  -27.2876  -18.3411   18.1300 H   0  0  0  0  0  0
  -25.4346  -19.9791   19.8052 H   0  0  0  0  0  0
  -26.7207  -20.7306   18.8878 H   0  0  0  0  0  0
  -26.5156  -21.0783   20.6093 H   0  0  0  0  0  0
  -28.0579  -22.5874   19.0753 H   0  0  0  0  0  0
  -29.6404  -23.0744   19.4441 H   0  0  0  0  0  0
  -30.1717  -21.2820   20.8391 H   0  0  0  0  0  0
  -28.6779  -21.2204   21.6396 H   0  0  0  0  0  0
  -30.1731  -18.2063   21.5945 H   0  0  0  0  0  0
  -30.8838  -18.2154   20.0379 H   0  0  0  0  0  0
  -28.4888  -24.3403   21.5994 H   0  0  0  0  0  0
  -27.0372  -24.1929   20.7156 H   0  0  0  0  0  0
  -29.1431  -19.5847   19.0409 H   0  0  0  0  0  0
  -28.6947  -16.2034   20.5165 H   0  0  0  0  0  0
  1 25  1  0  0  0
  1 30  2  0  0  0
  1 80  1  0  0  0
  2  3  1  0  0  0
  2 25  1  0  0  0
  2 81  1  0  0  0
  2 82  1  0  0  0
  3  4  1  0  0  0
  3 83  1  0  0  0
  3 84  1  0  0  0
  4  5  1  0  0  0
  4 85  1  0  0  0
  4 86  1  0  0  0
  5  6  1  0  0  0
  5 26  1  0  0  0
  5 87  1  0  0  0
  6 25  1  0  0  0
  6 88  1  0  0  0
  6 89  1  0  0  0
  7  8  2  0  0  0
  7 26  1  0  0  0
  7 29  1  0  0  0
  8  9  1  0  0  0
  8 22  1  0  0  0
  9 10  1  0  0  0
  9 27  2  0  0  0
 10 11  2  0  0  0
 10 15  1  0  0  0
 11 12  1  0  0  0
 11 90  1  0  0  0
 12 13  2  0  0  0
 12 91  1  0  0  0
 13 14  1  0  0  0
 13 31  1  0  0  0
 14 15  2  0  0  0
 14 92  1  0  0  0
 15 93  1  0  0  0
 16 17  2  0  0  0
 16 21  1  0  0  0
 16 31  1  0  0  0
 17 18  1  0  0  0
 17 94  1  0  0  0
 18 19  2  0  0  0
 18 95  1  0  0  0
 19 20  1  0  0  0
 19 24  1  0  0  0
 20 21  2  0  0  0
 20 96  1  0  0  0
 21 23  1  0  0  0
 22 28  1  0  0  0
 22 32  2  0  0  0
 26 27  1  0  0  0
 28 97  1  0  0  0
 28 98  1  0  0  0
 29 99  1  0  0  0
 29100  1  0  0  0
 33 34  1  0  0  0
 33 66  1  0  0  0
 33 70  2  0  0  0
 34 36  1  0  0  0
 34 59  1  0  0  0
 34101  1  0  0  0
 35 44  2  0  0  0
 35 45  1  0  0  0
 35 68  1  0  0  0
 36 56  1  0  0  0
 36102  1  0  0  0
 37 39  1  0  0  0
 37 47  1  0  0  0
 37 66  1  0  0  0
 37103  1  0  0  0
 38 43  2  0  0  0
 38 46  1  0  0  0
 38 47  1  0  0  0
 39 64  1  0  0  0
 39 67  2  0  0  0
 40 52  1  0  0  0
 40 53  2  0  0  0
 40 58  1  0  0  0
 41104  1  0  0  0
 41105  1  0  0  0
 41106  1  0  0  0
 41 48  1  0  0  0
 42 43  1  0  0  0
 42 66  1  0  0  0
 42107  1  0  0  0
 42108  1  0  0  0
 43 44  1  0  0  0
 44109  1  0  0  0
 45 46  2  0  0  0
 45110  1  0  0  0
 46111  1  0  0  0
 47112  1  0  0  0
 47113  1  0  0  0
 48 56  1  0  0  0
 48 65  1  0  0  0
 48114  1  0  0  0
 49 50  1  0  0  0
 49 53  1  0  0  0
 49 64  1  0  0  0
 49115  1  0  0  0
 50 51  1  0  0  0
 50116  1  0  0  0
 50117  1  0  0  0
 51 52  1  0  0  0
 51118  1  0  0  0
 51119  1  0  0  0
 52120  1  0  0  0
 52121  1  0  0  0
 53 54  1  0  0  0
 54 55  2  0  0  0
 54122  1  0  0  0
 55 57  1  0  0  0
 55123  1  0  0  0
 56 69  2  0  0  0
 57 58  2  0  0  0
 57124  1  0  0  0
 58125  1  0  0  0
 59 60  1  0  0  0
 59 61  1  0  0  0
 59 62  1  0  0  0
 60126  1  0  0  0
 60127  1  0  0  0
 60128  1  0  0  0
 61129  1  0  0  0
 61130  1  0  0  0
 61131  1  0  0  0
 62132  1  0  0  0
 62133  1  0  0  0
 62134  1  0  0  0
 63 65  1  0  0  0
 63135  1  0  0  0
 63136  1  0  0  0
 63137  1  0  0  0
 64138  1  0  0  0
 65139  1  0  0  0
 68 77  1  0  0  0
 71140  1  0  0  0
 71141  1  0  0  0
 71142  1  0  0  0
 71 79  1  0  0  0
 72 79  1  0  0  0
 72143  1  0  0  0
 72144  1  0  0  0
 72145  1  0  0  0
 73 79  1  0  0  0
 73146  1  0  0  0
 73147  1  0  0  0
 73148  1  0  0  0
 74 75  1  0  0  0
 74 77  1  0  0  0
 74149  1  0  0  0
 74150  1  0  0  0
 75151  1  0  0  0
 75152  1  0  0  0
 75 78  1  0  0  0
 76 78  1  0  0  0
 76 80  1  0  0  0
 76153  1  0  0  0
 76154  1  0  0  0
 77155  1  0  0  0
 77156  1  0  0  0
 78 79  1  0  0  0
 78157  1  0  0  0
 80158  1  0  0  0
M  ISO  4   1 100  68 101  77 101  80 100
M  END
> <chiral flag>
0

> <version>
0

> <s_m_source_file>
/data/baiqing/PycharmProjects/Reinvent-master-3.2/result/LINK_invent/BTK/process_docking_weight1_custom_sum_contain_oxygen_bond_distance_aromatic_linkinvent_7_9_3/rearranged_h_0091.sdf

> <i_m_source_file_index>
8

> <r_mmod_Potential_Energy-OPLS-2005>
1188.83215332031

> <r_mmod_Stretch_Energy-OPLS-2005>
572.77294921875

> <r_mmod_Bend_Energy-OPLS-2005>
431.276916503906

> <r_mmod_Torsional_Energy-OPLS-2005>
260.536468505859

> <r_mmod_Improper_Torsional_Energy-OPLS-2005>
3.91936564445496

> <r_mmod_Van_der_Waal_Energy-OPLS-2005>
111.566421508789

> <r_mmod_Electrostatic_Energy-OPLS-2005>
-374.568267822266

> <r_mmod_Solvation_Energy-OPLS-2005>
-194.069931030273

> <b_mmod_Minimization_Converged-OPLS-2005>
0

> <r_mmod_RMS_Derivative-OPLS-2005>
1.74171769618988

$$$$
8
                    3D
 Structure written by MMmdl.
181189  0  0  1  0            999 V2000
  -30.6603  -14.5666   20.5351 C   0  0  0  0  0  0
  -30.4296  -12.3603   19.4291 C   0  0  0  0  0  0
  -29.4959  -12.5001   18.2077 C   0  0  0  0  0  0
  -28.0192  -12.3497   18.6243 C   0  0  0  0  0  0
  -27.6525  -13.2128   19.8608 C   0  0  2  0  0  0
  -28.6975  -13.0425   20.9848 C   0  0  0  0  0  0
  -25.2561  -13.8168   20.5675 C   0  0  0  0  0  0
  -24.1823  -13.0435   20.9180 C   0  0  0  0  0  0
  -24.6383  -11.6905   20.8725 C   0  0  0  0  0  0
  -23.9051  -10.4288   21.0396 C   0  0  0  0  0  0
  -24.3605   -9.4209   21.9179 C   0  0  0  0  0  0
  -23.6284   -8.2242   22.0753 C   0  0  0  0  0  0
  -22.4273   -8.0275   21.3536 C   0  0  0  0  0  0
  -21.9902   -9.0245   20.4641 C   0  0  0  0  0  0
  -22.7221  -10.2125   20.3048 C   0  0  0  0  0  0
  -21.6853   -6.0727   22.5275 C   0  0  0  0  0  0
  -21.4009   -6.5637   23.8206 C   0  0  0  0  0  0
  -21.3659   -5.6790   24.9169 C   0  0  0  0  0  0
  -21.6046   -4.3054   24.7223 C   0  0  0  0  0  0
  -21.8822   -3.8144   23.4347 C   0  0  0  0  0  0
  -21.9192   -4.6956   22.3399 C   0  0  0  0  0  0
  -22.7848  -13.5228   21.1852 C   0  0  0  0  0  0
  -22.1664   -4.2145   21.0979 F   0  0  0  0  0  0
  -21.5630   -3.4542   25.7736 F   0  0  0  0  0  0
  -30.0151  -13.3699   20.4191 N   0  0  0  0  0  0
  -26.2985  -12.9341   20.3306 N   0  0  0  0  0  0
  -25.9308  -11.6498   20.5740 N   0  0  0  0  0  0
  -22.0496  -12.8216   22.0404 N   0  0  0  0  0  0
  -25.4290  -15.1888   20.4118 N   0  0  0  0  0  0
  -31.8221  -14.7266   20.1534 O   0  0  0  0  0  0
  -21.6639   -6.8869   21.4237 O   0  0  0  0  0  0
  -22.3532  -14.5537   20.6705 O   0  0  0  0  0  0
  -24.6220  -31.8611   23.2005 C   0  0  0  0  0  0
  -25.9073  -32.4784   23.8330 C   0  0  1  0  0  0
  -27.2367  -27.3618   20.1054 C   0  0  0  0  0  0
  -25.5884  -33.8580   24.2249 N   0  0  0  0  0  0
  -23.4139  -30.4788   21.5465 C   0  0  2  0  0  0
  -24.8593  -28.9298   20.1176 C   0  0  0  0  0  0
  -22.7444  -29.4620   22.4997 C   0  0  0  0  0  0
  -18.0257  -28.1387   22.8505 C   0  0  0  0  0  0
  -24.1473  -36.7313   23.2641 C   0  0  0  0  0  0
  -25.9472  -30.8055   21.3610 C   0  0  0  0  0  0
  -26.0246  -29.4322   20.7105 C   0  0  0  0  0  0
  -27.2121  -28.6555   20.6975 C   0  0  0  0  0  0
  -26.0477  -26.8855   19.5115 C   0  0  0  0  0  0
  -24.8687  -27.6587   19.5176 C   0  0  0  0  0  0
  -23.6240  -29.8026   20.1656 C   0  0  0  0  0  0
  -25.4102  -36.3090   24.0321 C   0  0  1  0  0  0
  -20.5853  -28.3687   23.1336 C   0  0  2  0  0  0
  -20.6763  -26.9418   22.5451 C   0  0  0  0  0  0
  -19.5743  -26.6392   21.5248 C   0  0  0  0  0  0
  -18.1906  -26.7927   22.1639 C   0  0  0  0  0  0
  -19.1503  -28.8850   23.2905 C   0  0  0  0  0  0
  -18.9440  -30.1449   23.8928 C   0  0  0  0  0  0
  -17.6449  -30.6600   24.0577 C   0  0  0  0  0  0
  -25.9054  -34.9464   23.5098 C   0  0  0  0  0  0
  -16.5339  -29.9115   23.6329 C   0  0  0  0  0  0
  -16.7247  -28.6522   23.0364 C   0  0  0  0  0  0
  -26.4455  -31.6607   25.0713 C   0  0  0  0  0  0
  -25.3679  -31.3785   26.1447 C   0  0  0  0  0  0
  -27.0290  -30.3020   24.6169 C   0  0  0  0  0  0
  -27.5992  -32.4362   25.7491 C   0  0  0  0  0  0
  -27.5565  -37.1795   24.8450 C   0  0  0  0  0  0
  -21.4161  -29.3036   22.3737 N   0  0  0  0  0  0
  -26.4280  -37.3782   23.9405 N   0  0  0  0  0  0
  -24.6803  -31.0636   22.0941 N   0  0  0  0  0  0
  -23.4177  -28.8164   23.3073 O   0  0  0  0  0  0
  -28.4092  -26.6121   20.1433 O   0  0  0  0  0  0
  -26.5646  -34.8925   22.4678 O   0  0  0  0  0  0
  -23.5394  -32.1406   23.7355 O   0  0  0  0  0  0
  -28.5109  -22.1516   18.1117 C   0  0  0  0  0  0
  -28.7002  -21.7223   19.3921 C   0  0  0  0  0  0
  -28.7323  -20.2616   19.3347 C   0  0  0  0  0  0
  -28.3945  -19.9192   18.0397 C   0  0  0  0  0  0
  -26.2844  -16.9645   16.6050 C   0  0  0  0  0  0
  -29.3276  -20.7163   12.8617 C   0  0  0  0  0  0
  -30.5985  -22.8771   13.1840 C   0  0  0  0  0  0
  -28.8843  -22.7065   20.5597 C   0  0  0  0  0  0
  -28.9976  -19.2186   20.4561 C   0  0  0  0  0  0
  -28.0790  -18.5795   17.4239 C   0  0  0  0  0  0
  -26.5944  -18.3938   17.0708 C   0  0  0  0  0  0
  -28.0723  -24.0724   20.5616 C   0  0  0  0  0  0
  -30.1101  -18.1254   20.1825 C   0  0  0  0  0  0
  -29.5155  -21.7677   15.1852 C   0  0  0  0  0  0
  -28.2283  -21.2091   15.8253 C   0  0  0  0  0  0
  -30.3343  -17.0095   21.2703 C   0  0  0  0  0  0
  -28.5114  -25.2521   19.6170 C   0  0  0  0  0  0
  -29.4156  -22.0229   13.6677 C   0  0  0  0  0  0
  -28.3770  -21.0757   17.2715 N   0  0  0  0  0  0
  -29.9034  -15.6184   20.9487 N   0  0  0  0  0  0
  -31.4710  -12.4802   19.1238 H   0  0  0  0  0  0
  -30.3576  -11.3599   19.8577 H   0  0  0  0  0  0
  -29.7476  -11.7514   17.4551 H   0  0  0  0  0  0
  -29.6478  -13.4722   17.7356 H   0  0  0  0  0  0
  -27.8455  -11.2958   18.8457 H   0  0  0  0  0  0
  -27.3648  -12.5942   17.7871 H   0  0  0  0  0  0
  -27.6796  -14.2520   19.5324 H   0  0  0  0  0  0
  -28.6967  -12.0159   21.3532 H   0  0  0  0  0  0
  -28.4534  -13.6660   21.8462 H   0  0  0  0  0  0
  -25.2746   -9.5691   22.4755 H   0  0  0  0  0  0
  -23.9995   -7.4638   22.7474 H   0  0  0  0  0  0
  -21.0833   -8.8753   19.8947 H   0  0  0  0  0  0
  -22.3672  -10.9662   19.6160 H   0  0  0  0  0  0
  -21.2002   -7.6142   23.9702 H   0  0  0  0  0  0
  -21.1482   -6.0525   25.9070 H   0  0  0  0  0  0
  -22.0604   -2.7608   23.2848 H   0  0  0  0  0  0
  -22.4117  -11.9874   22.4787 H   0  0  0  0  0  0
  -21.1114  -13.1230   22.2617 H   0  0  0  0  0  0
  -24.6602  -15.8416   20.5170 H   0  0  0  0  0  0
  -26.2802  -15.6291   20.0901 H   0  0  0  0  0  0
  -26.7153  -32.5462   23.1096 H   0  0  0  0  0  0
  -24.9914  -33.9704   25.0308 H   0  0  0  0  0  0
  -22.7072  -31.2975   21.4001 H   0  0  0  0  0  0
  -23.3727  -35.9653   23.3300 H   0  0  0  0  0  0
  -24.3557  -36.8970   22.2057 H   0  0  0  0  0  0
  -23.7241  -37.6514   23.6688 H   0  0  0  0  0  0
  -26.0618  -31.5642   20.5851 H   0  0  0  0  0  0
  -26.8335  -30.8630   21.9821 H   0  0  0  0  0  0
  -28.1140  -29.0397   21.1536 H   0  0  0  0  0  0
  -26.0053  -25.9095   19.0524 H   0  0  0  0  0  0
  -23.9671  -27.2609   19.0722 H   0  0  0  0  0  0
  -23.7358  -30.5736   19.4022 H   0  0  0  0  0  0
  -22.7483  -29.2205   19.8740 H   0  0  0  0  0  0
  -25.1272  -36.1950   25.0814 H   0  0  0  0  0  0
  -20.9891  -28.3275   24.1483 H   0  0  0  0  0  0
  -20.5723  -26.2275   23.3644 H   0  0  0  0  0  0
  -21.6627  -26.7510   22.1209 H   0  0  0  0  0  0
  -19.6931  -25.6308   21.1271 H   0  0  0  0  0  0
  -19.6699  -27.3218   20.6790 H   0  0  0  0  0  0
  -17.4186  -26.6682   21.4026 H   0  0  0  0  0  0
  -18.0292  -26.0062   22.9021 H   0  0  0  0  0  0
  -19.7921  -30.7233   24.2330 H   0  0  0  0  0  0
  -17.5016  -31.6284   24.5171 H   0  0  0  0  0  0
  -15.5343  -30.3037   23.7635 H   0  0  0  0  0  0
  -15.8634  -28.0863   22.7082 H   0  0  0  0  0  0
  -24.5808  -30.7189   25.7776 H   0  0  0  0  0  0
  -24.8909  -32.2973   26.4867 H   0  0  0  0  0  0
  -25.7957  -30.8952   27.0237 H   0  0  0  0  0  0
  -26.2883  -29.6786   24.1141 H   0  0  0  0  0  0
  -27.3923  -29.7259   25.4688 H   0  0  0  0  0  0
  -27.8758  -30.4284   23.9420 H   0  0  0  0  0  0
  -27.2578  -33.3661   26.2055 H   0  0  0  0  0  0
  -28.3797  -32.6953   25.0324 H   0  0  0  0  0  0
  -28.0663  -31.8518   26.5433 H   0  0  0  0  0  0
  -28.2566  -38.0097   24.7498 H   0  0  0  0  0  0
  -28.1066  -36.2628   24.6264 H   0  0  0  0  0  0
  -27.2284  -37.1451   25.8850 H   0  0  0  0  0  0
  -20.9350  -29.8746   21.6932 H   0  0  0  0  0  0
  -26.0166  -38.2860   24.1409 H   0  0  0  0  0  0
  -28.4717  -23.1507   17.7023 H   0  0  0  0  0  0
  -25.2362  -16.8620   16.3229 H   0  0  0  0  0  0
  -26.4832  -16.2422   17.3977 H   0  0  0  0  0  0
  -26.8906  -16.6889   15.7416 H   0  0  0  0  0  0
  -29.2853  -20.9193   11.7908 H   0  0  0  0  0  0
  -28.4342  -20.1448   13.1134 H   0  0  0  0  0  0
  -30.1903  -20.0745   13.0424 H   0  0  0  0  0  0
  -30.5361  -23.0724   12.1130 H   0  0  0  0  0  0
  -31.5540  -22.3878   13.3771 H   0  0  0  0  0  0
  -30.6184  -23.8450   13.6874 H   0  0  0  0  0  0
  -29.9484  -22.9257   20.6427 H   0  0  0  0  0  0
  -28.6230  -22.1609   21.4680 H   0  0  0  0  0  0
  -28.0506  -18.7170   20.6613 H   0  0  0  0  0  0
  -29.2525  -19.7555   21.3705 H   0  0  0  0  0  0
  -28.3079  -17.7776   18.1166 H   0  0  0  0  0  0
  -28.7103  -18.4060   16.5515 H   0  0  0  0  0  0
  -25.9879  -18.6168   17.9499 H   0  0  0  0  0  0
  -26.2876  -19.1022   16.3027 H   0  0  0  0  0  0
  -28.1664  -24.4626   21.5758 H   0  0  0  0  0  0
  -27.0070  -23.8748   20.4402 H   0  0  0  0  0  0
  -31.0501  -18.6686   20.0815 H   0  0  0  0  0  0
  -30.0058  -17.6354   19.2209 H   0  0  0  0  0  0
  -30.3465  -21.0908   15.3890 H   0  0  0  0  0  0
  -29.7711  -22.7057   15.6805 H   0  0  0  0  0  0
  -27.9801  -20.2492   15.3803 H   0  0  0  0  0  0
  -27.3859  -21.8728   15.6267 H   0  0  0  0  0  0
  -29.8473  -17.3082   22.1997 H   0  0  0  0  0  0
  -31.3976  -16.9816   21.5163 H   0  0  0  0  0  0
  -28.0282  -25.1745   18.6434 H   0  0  0  0  0  0
  -29.5718  -25.1171   19.4053 H   0  0  0  0  0  0
  -28.5067  -22.5956   13.4756 H   0  0  0  0  0  0
  -28.9451  -15.3921   21.1707 H   0  0  0  0  0  0
  1 25  1  0  0  0
  1 30  2  0  0  0
  1 90  1  0  0  0
  2  3  1  0  0  0
  2 25  1  0  0  0
  2 91  1  0  0  0
  2 92  1  0  0  0
  3  4  1  0  0  0
  3 93  1  0  0  0
  3 94  1  0  0  0
  4  5  1  0  0  0
  4 95  1  0  0  0
  4 96  1  0  0  0
  5  6  1  0  0  0
  5 26  1  0  0  0
  5 97  1  0  0  0
  6 25  1  0  0  0
  6 98  1  0  0  0
  6 99  1  0  0  0
  7  8  2  0  0  0
  7 26  1  0  0  0
  7 29  1  0  0  0
  8  9  1  0  0  0
  8 22  1  0  0  0
  9 10  1  0  0  0
  9 27  2  0  0  0
 10 11  2  0  0  0
 10 15  1  0  0  0
 11 12  1  0  0  0
 11100  1  0  0  0
 12 13  2  0  0  0
 12101  1  0  0  0
 13 14  1  0  0  0
 13 31  1  0  0  0
 14 15  2  0  0  0
 14102  1  0  0  0
 15103  1  0  0  0
 16 17  2  0  0  0
 16 21  1  0  0  0
 16 31  1  0  0  0
 17 18  1  0  0  0
 17104  1  0  0  0
 18 19  2  0  0  0
 18105  1  0  0  0
 19 20  1  0  0  0
 19 24  1  0  0  0
 20 21  2  0  0  0
 20106  1  0  0  0
 21 23  1  0  0  0
 22 28  1  0  0  0
 22 32  2  0  0  0
 26 27  1  0  0  0
 28107  1  0  0  0
 28108  1  0  0  0
 29109  1  0  0  0
 29110  1  0  0  0
 33 34  1  0  0  0
 33 66  1  0  0  0
 33 70  2  0  0  0
 34 36  1  0  0  0
 34 59  1  0  0  0
 34111  1  0  0  0
 35 44  2  0  0  0
 35 45  1  0  0  0
 35 68  1  0  0  0
 36 56  1  0  0  0
 36112  1  0  0  0
 37 39  1  0  0  0
 37 47  1  0  0  0
 37 66  1  0  0  0
 37113  1  0  0  0
 38 43  2  0  0  0
 38 46  1  0  0  0
 38 47  1  0  0  0
 39 64  1  0  0  0
 39 67  2  0  0  0
 40 52  1  0  0  0
 40 53  2  0  0  0
 40 58  1  0  0  0
 41114  1  0  0  0
 41115  1  0  0  0
 41116  1  0  0  0
 41 48  1  0  0  0
 42 43  1  0  0  0
 42 66  1  0  0  0
 42117  1  0  0  0
 42118  1  0  0  0
 43 44  1  0  0  0
 44119  1  0  0  0
 45 46  2  0  0  0
 45120  1  0  0  0
 46121  1  0  0  0
 47122  1  0  0  0
 47123  1  0  0  0
 48 56  1  0  0  0
 48 65  1  0  0  0
 48124  1  0  0  0
 49 50  1  0  0  0
 49 53  1  0  0  0
 49 64  1  0  0  0
 49125  1  0  0  0
 50 51  1  0  0  0
 50126  1  0  0  0
 50127  1  0  0  0
 51 52  1  0  0  0
 51128  1  0  0  0
 51129  1  0  0  0
 52130  1  0  0  0
 52131  1  0  0  0
 53 54  1  0  0  0
 54 55  2  0  0  0
 54132  1  0  0  0
 55 57  1  0  0  0
 55133  1  0  0  0
 56 69  2  0  0  0
 57 58  2  0  0  0
 57134  1  0  0  0
 58135  1  0  0  0
 59 60  1  0  0  0
 59 61  1  0  0  0
 59 62  1  0  0  0
 60136  1  0  0  0
 60137  1  0  0  0
 60138  1  0  0  0
 61139  1  0  0  0
 61140  1  0  0  0
 61141  1  0  0  0
 62142  1  0  0  0
 62143  1  0  0  0
 62144  1  0  0  0
 63 65  1  0  0  0
 63145  1  0  0  0
 63146  1  0  0  0
 63147  1  0  0  0
 64148  1  0  0  0
 65149  1  0  0  0
 68 87  1  0  0  0
 71 72  2  0  0  0
 71 89  1  0  0  0
 71150  1  0  0  0
 72 73  1  0  0  0
 72 78  1  0  0  0
 73 74  2  0  0  0
 73 79  1  0  0  0
 74 80  1  0  0  0
 74 89  1  0  0  0
 75 81  1  0  0  0
 75151  1  0  0  0
 75152  1  0  0  0
 75153  1  0  0  0
 76154  1  0  0  0
 76155  1  0  0  0
 76156  1  0  0  0
 76 88  1  0  0  0
 77 88  1  0  0  0
 77157  1  0  0  0
 77158  1  0  0  0
 77159  1  0  0  0
 78 82  1  0  0  0
 78160  1  0  0  0
 78161  1  0  0  0
 79 83  1  0  0  0
 79162  1  0  0  0
 79163  1  0  0  0
 80 81  1  0  0  0
 80164  1  0  0  0
 80165  1  0  0  0
 81166  1  0  0  0
 81167  1  0  0  0
 82 87  1  0  0  0
 82168  1  0  0  0
 82169  1  0  0  0
 83 86  1  0  0  0
 83170  1  0  0  0
 83171  1  0  0  0
 84 85  1  0  0  0
 84 88  1  0  0  0
 84172  1  0  0  0
 84173  1  0  0  0
 85 89  1  0  0  0
 85174  1  0  0  0
 85175  1  0  0  0
 86 90  1  0  0  0
 86176  1  0  0  0
 86177  1  0  0  0
 87178  1  0  0  0
 87179  1  0  0  0
 88180  1  0  0  0
 90181  1  0  0  0
M  ISO  4   1 100  68 101  87 101  90 100
M  END
> <chiral flag>
0

> <version>
0

> <s_m_source_file>
/data/baiqing/PycharmProjects/Reinvent-master-3.2/result/LINK_invent/BTK/process_docking_weight1_custom_sum_contain_oxygen_bond_distance_aromatic_linkinvent_7_9_3/rearranged_h_0091.sdf

> <i_m_source_file_index>
9

> <r_mmod_Potential_Energy-OPLS-2005>
-3.21177792549133

> <r_mmod_Stretch_Energy-OPLS-2005>
62.1193313598633

> <r_mmod_Bend_Energy-OPLS-2005>
149.113037109375

> <r_mmod_Torsional_Energy-OPLS-2005>
236.772827148438

> <r_mmod_Improper_Torsional_Energy-OPLS-2005>
3.6873733997345

> <r_mmod_Van_der_Waal_Energy-OPLS-2005>
113.072654724121

> <r_mmod_Electrostatic_Energy-OPLS-2005>
-395.907409667969

> <r_mmod_Solvation_Energy-OPLS-2005>
-201.205200195312

> <b_mmod_Minimization_Converged-OPLS-2005>
0

> <r_mmod_RMS_Derivative-OPLS-2005>
1.92019772529602

$$$$
9
                    3D
 Structure written by MMmdl.
174182  0  0  1  0            999 V2000
  -31.0801  -14.1539   20.9733 C   0  0  0  0  0  0
  -30.7391  -12.3608   19.2550 C   0  0  0  0  0  0
  -29.9241  -12.9725   18.0996 C   0  0  0  0  0  0
  -28.5213  -13.3590   18.5019 C   0  0  0  0  0  0
  -28.2694  -13.8448   20.1111 C   0  0  2  0  0  0
  -29.1584  -12.8223   20.9498 C   0  0  0  0  0  0
  -25.2324  -14.7867   21.4595 C   0  0  0  0  0  0
  -23.9207  -13.7261   21.3354 C   0  0  0  0  0  0
  -24.2683  -12.2415   20.5721 C   0  0  0  0  0  0
  -23.6443  -10.7697   20.9222 C   0  0  0  0  0  0
  -24.0081   -9.8120   21.9767 C   0  0  0  0  0  0
  -23.4748   -8.4895   22.1008 C   0  0  0  0  0  0
  -22.3944   -8.1136   21.2871 C   0  0  0  0  0  0
  -21.9759   -9.0399   20.3193 C   0  0  0  0  0  0
  -22.5874  -10.3029   20.1298 C   0  0  0  0  0  0
  -21.7030   -6.1069   22.4971 C   0  0  0  0  0  0
  -21.4156   -6.5927   23.7922 C   0  0  0  0  0  0
  -21.3724   -5.7089   24.8930 C   0  0  0  0  0  0
  -21.6035   -4.3311   24.7031 C   0  0  0  0  0  0
  -21.8822   -3.8406   23.4132 C   0  0  0  0  0  0
  -21.9238   -4.7261   22.3182 C   0  0  0  0  0  0
  -22.4902  -13.9256   21.4063 C   0  0  0  0  0  0
  -22.1721   -4.2314   21.0830 F   0  0  0  0  0  0
  -21.5574   -3.4792   25.7557 F   0  0  0  0  0  0
  -30.4843  -13.0414   20.5378 N   0  0  0  0  0  0
  -26.9637  -14.4093   20.7978 N   0  0  0  0  0  0
  -26.9747  -12.9834   20.1482 N   0  0  0  0  0  0
  -21.8136  -12.9741   22.0620 N   0  0  0  0  0  0
  -25.1409  -16.0946   21.6923 N   0  0  0  0  0  0
  -31.8740  -14.7713   20.2581 O   0  0  0  0  0  0
  -21.6949   -6.9208   21.3787 O   0  0  0  0  0  0
  -22.0040  -14.8414   20.7740 O   0  0  0  0  0  0
  -24.7278  -31.7430   23.1236 C   0  0  0  0  0  0
  -25.9676  -32.4105   23.7874 C   0  0  1  0  0  0
  -26.6868  -26.0961   20.1190 C   0  0  0  0  0  0
  -25.6105  -33.7960   24.1696 N   0  0  0  0  0  0
  -23.5381  -30.3778   21.5044 C   0  0  2  0  0  0
  -24.8741  -28.6515   20.0614 C   0  0  0  0  0  0
  -22.7849  -29.4085   22.4592 C   0  0  0  0  0  0
  -18.0356  -28.1415   22.8447 C   0  0  0  0  0  0
  -24.1524  -36.6968   23.2677 C   0  0  0  0  0  0
  -26.1245  -30.2533   21.4513 C   0  0  0  0  0  0
  -26.0762  -28.7789   20.7637 C   0  0  0  0  0  0
  -26.9846  -27.5306   20.7474 C   0  0  0  0  0  0
  -25.5721  -26.3713   19.3046 C   0  0  0  0  0  0
  -24.7110  -27.4924   19.3047 C   0  0  0  0  0  0
  -23.7750  -29.7194   20.1194 C   0  0  0  0  0  0
  -25.4175  -36.2622   24.0248 C   0  0  1  0  0  0
  -20.5987  -28.3761   23.1091 C   0  0  2  0  0  0
  -20.6771  -26.9391   22.5402 C   0  0  0  0  0  0
  -19.5722  -26.6347   21.5213 C   0  0  0  0  0  0
  -18.1944  -26.7949   22.1647 C   0  0  0  0  0  0
  -19.1616  -28.8919   23.2776 C   0  0  0  0  0  0
  -18.9528  -30.1518   23.8810 C   0  0  0  0  0  0
  -17.6505  -30.6590   24.0547 C   0  0  0  0  0  0
  -25.9194  -34.9052   23.4815 C   0  0  0  0  0  0
  -16.5410  -29.9042   23.6339 C   0  0  0  0  0  0
  -16.7351  -28.6468   23.0366 C   0  0  0  0  0  0
  -26.4704  -31.6381   25.0723 C   0  0  0  0  0  0
  -25.3726  -31.3817   26.1323 C   0  0  0  0  0  0
  -27.0689  -30.2674   24.6951 C   0  0  0  0  0  0
  -27.6008  -32.4432   25.7581 C   0  0  0  0  0  0
  -27.5540  -37.1619   24.8453 C   0  0  0  0  0  0
  -21.4459  -29.2939   22.3319 N   0  0  0  0  0  0
  -26.4202  -37.3486   23.9451 N   0  0  0  0  0  0
  -24.8374  -30.8460   22.0712 N   0  0  0  0  0  0
  -23.4179  -28.7630   23.2983 O   0  0  0  0  0  0
  -27.1622  -24.4954   20.0710 O   0  0  0  0  0  0
  -26.5854  -34.8746   22.4451 O   0  0  0  0  0  0
  -23.6253  -32.0677   23.6014 O   0  0  0  0  0  0
  -25.8853  -12.6055   21.8604 C   0  0  0  0  0  0
  -25.2117  -13.7997   19.4181 C   0  0  0  0  0  0
  -25.4991  -12.2173   18.5874 C   0  0  0  0  0  0
  -25.7309  -12.0312   17.0890 C   0  0  0  0  0  0
  -24.6413  -16.2151   17.7917 C   0  0  0  0  0  0
  -27.6354  -13.8363   24.6004 C   0  0  0  0  0  0
  -26.5341  -20.3615   19.5732 C   0  0  0  0  0  0
  -25.7130  -18.2386   19.6006 C   0  0  0  0  0  0
  -27.2514  -10.5510   22.3902 C   0  0  0  0  0  0
  -30.6797  -13.9656   23.5423 C   0  0  0  0  0  0
  -27.5001  -11.2881   23.8821 C   0  0  0  0  0  0
  -29.8551  -12.6681   24.0535 C   0  0  0  0  0  0
  -26.4221  -22.6097   19.9094 C   0  0  0  0  0  0
  -25.5591  -16.0113   18.9906 C   0  0  1  0  0  0
  -26.0160  -10.9213   19.6327 N   0  0  0  0  0  0
  -26.2923  -11.1491   21.3702 N   0  0  0  0  0  0
  -30.6337  -14.6086   22.1769 N   0  0  0  0  0  0
  -28.3401  -12.5669   24.2513 N   0  3  1  0  0  0
  -31.7847  -12.4924   18.9542 H   0  0  0  0  0  0
  -30.5757  -11.2819   19.3291 H   0  0  0  0  0  0
  -29.8906  -12.3465   17.2116 H   0  0  0  0  0  0
  -30.4421  -13.8709   17.7357 H   0  0  0  0  0  0
  -28.0394  -12.4180   18.2492 H   0  0  0  0  0  0
  -28.1245  -14.1390   17.8457 H   0  0  0  0  0  0
  -28.7936  -14.8082   20.1215 H   0  0  0  0  0  0
  -28.9667  -11.7760   20.7235 H   0  0  0  0  0  0
  -28.8801  -12.9155   21.9611 H   0  0  0  0  0  0
  -24.6521  -10.1039   22.7879 H   0  0  0  0  0  0
  -23.8139   -7.7954   22.8554 H   0  0  0  0  0  0
  -21.1526   -8.7742   19.6705 H   0  0  0  0  0  0
  -22.2074  -10.9754   19.3751 H   0  0  0  0  0  0
  -21.2263   -7.6437   23.9485 H   0  0  0  0  0  0
  -21.1579   -6.0853   25.8822 H   0  0  0  0  0  0
  -22.0649   -2.7892   23.2522 H   0  0  0  0  0  0
  -22.2841  -12.1702   22.4591 H   0  0  0  0  0  0
  -20.8046  -13.0246   22.1660 H   0  0  0  0  0  0
  -24.2493  -16.5901   21.6557 H   0  0  0  0  0  0
  -25.9082  -16.7537   21.6164 H   0  0  0  0  0  0
  -26.7738  -32.4318   23.0552 H   0  0  0  0  0  0
  -25.0174  -33.8889   24.9795 H   0  0  0  0  0  0
  -22.8934  -31.2437   21.3397 H   0  0  0  0  0  0
  -23.3800  -35.9272   23.3137 H   0  0  0  0  0  0
  -24.3617  -36.8850   22.2137 H   0  0  0  0  0  0
  -23.7248  -37.6062   23.6914 H   0  0  0  0  0  0
  -26.4250  -30.9570   20.6712 H   0  0  0  0  0  0
  -26.9534  -30.2608   22.1435 H   0  0  0  0  0  0
  -27.8875  -27.6097   21.3365 H   0  0  0  0  0  0
  -25.2445  -25.5607   18.6728 H   0  0  0  0  0  0
  -23.8279  -27.4216   18.6868 H   0  0  0  0  0  0
  -24.0460  -30.4864   19.3954 H   0  0  0  0  0  0
  -22.8409  -29.3050   19.7491 H   0  0  0  0  0  0
  -25.1389  -36.1276   25.0720 H   0  0  0  0  0  0
  -21.0124  -28.3443   24.1201 H   0  0  0  0  0  0
  -20.5594  -26.2412   23.3702 H   0  0  0  0  0  0
  -21.6635  -26.7266   22.1226 H   0  0  0  0  0  0
  -19.6846  -25.6233   21.1260 H   0  0  0  0  0  0
  -19.6652  -27.3159   20.6727 H   0  0  0  0  0  0
  -17.4222  -26.6737   21.4069 H   0  0  0  0  0  0
  -18.0313  -26.0110   22.9045 H   0  0  0  0  0  0
  -19.8026  -30.7349   24.2153 H   0  0  0  0  0  0
  -17.5063  -31.6259   24.5191 H   0  0  0  0  0  0
  -15.5407  -30.2921   23.7665 H   0  0  0  0  0  0
  -15.8782  -28.0747   22.7098 H   0  0  0  0  0  0
  -24.5966  -30.7063   25.7738 H   0  0  0  0  0  0
  -24.8856  -32.3053   26.4444 H   0  0  0  0  0  0
  -25.7894  -30.9257   27.0312 H   0  0  0  0  0  0
  -26.3362  -29.6182   24.2156 H   0  0  0  0  0  0
  -27.4152  -29.7270   25.5776 H   0  0  0  0  0  0
  -27.9396  -30.3724   24.0483 H   0  0  0  0  0  0
  -27.2379  -33.3833   26.1762 H   0  0  0  0  0  0
  -28.4033  -32.6865   25.0612 H   0  0  0  0  0  0
  -28.0462  -31.8897   26.5857 H   0  0  0  0  0  0
  -28.2366  -38.0086   24.7603 H   0  0  0  0  0  0
  -28.1209  -36.2588   24.6114 H   0  0  0  0  0  0
  -27.2291  -37.1078   25.8861 H   0  0  0  0  0  0
  -20.9814  -29.8697   21.6429 H   0  0  0  0  0  0
  -25.9923  -38.2456   24.1586 H   0  0  0  0  0  0
  -26.2215  -13.0019   22.8041 H   0  0  0  0  0  0
  -25.0232  -12.6308   16.5107 H   0  0  0  0  0  0
  -25.6976  -10.9742   16.8036 H   0  0  0  0  0  0
  -26.7013  -12.3974   16.7433 H   0  0  0  0  0  0
  -24.7606  -15.4409   17.0330 H   0  0  0  0  0  0
  -24.8255  -17.1925   17.3462 H   0  0  0  0  0  0
  -23.5937  -16.2230   18.0914 H   0  0  0  0  0  0
  -27.2902  -14.3778   23.7266 H   0  0  0  0  0  0
  -28.3100  -14.5216   25.1263 H   0  0  0  0  0  0
  -26.7968  -13.6878   25.2935 H   0  0  0  0  0  0
  -27.0894  -20.3050   18.6288 H   0  0  0  0  0  0
  -27.3205  -20.2119   20.3128 H   0  0  0  0  0  0
  -24.6748  -18.4812   19.3554 H   0  0  0  0  0  0
  -25.7172  -18.2141   20.6839 H   0  0  0  0  0  0
  -26.7853   -9.6055   22.6554 H   0  0  0  0  0  0
  -28.1965  -10.2766   21.9437 H   0  0  0  0  0  0
  -31.7240  -13.6621   23.6628 H   0  0  0  0  0  0
  -30.6190  -14.7849   24.2524 H   0  0  0  0  0  0
  -27.9823  -10.5380   24.5155 H   0  0  0  0  0  0
  -26.5121  -11.4117   24.3504 H   0  0  0  0  0  0
  -30.2193  -12.5955   25.0836 H   0  0  0  0  0  0
  -30.2433  -11.8022   23.5332 H   0  0  0  0  0  0
  -26.0548  -22.6038   20.9364 H   0  0  0  0  0  0
  -25.5491  -22.8385   19.2958 H   0  0  0  0  0  0
  -26.5712  -15.9313   18.6017 H   0  0  0  0  0  0
  -30.7273  -15.6207   22.1907 H   0  0  0  0  0  0
  -28.4509  -12.3297   25.2360 H   0  0  0  0  0  0
  1 25  1  0  0  0
  1 30  2  0  0  0
  1 87  1  0  0  0
  2  3  1  0  0  0
  2 25  1  0  0  0
  2 89  1  0  0  0
  2 90  1  0  0  0
  3  4  1  0  0  0
  3 91  1  0  0  0
  3 92  1  0  0  0
  4  5  1  0  0  0
  4 93  1  0  0  0
  4 94  1  0  0  0
  5  6  1  0  0  0
  5 26  1  0  0  0
  5 95  1  0  0  0
  6 25  1  0  0  0
  6 96  1  0  0  0
  6 97  1  0  0  0
  7  8  2  0  0  0
  7 26  1  0  0  0
  7 29  1  0  0  0
  8  9  1  0  0  0
  8 22  1  0  0  0
  9 10  1  0  0  0
  9 27  2  0  0  0
 10 11  2  0  0  0
 10 15  1  0  0  0
 11 12  1  0  0  0
 11 98  1  0  0  0
 12 13  2  0  0  0
 12 99  1  0  0  0
 13 14  1  0  0  0
 13 31  1  0  0  0
 14 15  2  0  0  0
 14100  1  0  0  0
 15101  1  0  0  0
 16 17  2  0  0  0
 16 21  1  0  0  0
 16 31  1  0  0  0
 17 18  1  0  0  0
 17102  1  0  0  0
 18 19  2  0  0  0
 18103  1  0  0  0
 19 20  1  0  0  0
 19 24  1  0  0  0
 20 21  2  0  0  0
 20104  1  0  0  0
 21 23  1  0  0  0
 22 28  1  0  0  0
 22 32  2  0  0  0
 26 27  1  0  0  0
 28105  1  0  0  0
 28106  1  0  0  0
 29107  1  0  0  0
 29108  1  0  0  0
 33 34  1  0  0  0
 33 66  1  0  0  0
 33 70  2  0  0  0
 34 36  1  0  0  0
 34 59  1  0  0  0
 34109  1  0  0  0
 35 44  2  0  0  0
 35 45  1  0  0  0
 35 68  1  0  0  0
 36 56  1  0  0  0
 36110  1  0  0  0
 37 39  1  0  0  0
 37 47  1  0  0  0
 37 66  1  0  0  0
 37111  1  0  0  0
 38 43  2  0  0  0
 38 46  1  0  0  0
 38 47  1  0  0  0
 39 64  1  0  0  0
 39 67  2  0  0  0
 40 52  1  0  0  0
 40 53  2  0  0  0
 40 58  1  0  0  0
 41112  1  0  0  0
 41113  1  0  0  0
 41114  1  0  0  0
 41 48  1  0  0  0
 42 43  1  0  0  0
 42 66  1  0  0  0
 42115  1  0  0  0
 42116  1  0  0  0
 43 44  1  0  0  0
 44117  1  0  0  0
 45 46  2  0  0  0
 45118  1  0  0  0
 46119  1  0  0  0
 47120  1  0  0  0
 47121  1  0  0  0
 48 56  1  0  0  0
 48 65  1  0  0  0
 48122  1  0  0  0
 49 50  1  0  0  0
 49 53  1  0  0  0
 49 64  1  0  0  0
 49123  1  0  0  0
 50 51  1  0  0  0
 50124  1  0  0  0
 50125  1  0  0  0
 51 52  1  0  0  0
 51126  1  0  0  0
 51127  1  0  0  0
 52128  1  0  0  0
 52129  1  0  0  0
 53 54  1  0  0  0
 54 55  2  0  0  0
 54130  1  0  0  0
 55 57  1  0  0  0
 55131  1  0  0  0
 56 69  2  0  0  0
 57 58  2  0  0  0
 57132  1  0  0  0
 58133  1  0  0  0
 59 60  1  0  0  0
 59 61  1  0  0  0
 59 62  1  0  0  0
 60134  1  0  0  0
 60135  1  0  0  0
 60136  1  0  0  0
 61137  1  0  0  0
 61138  1  0  0  0
 61139  1  0  0  0
 62140  1  0  0  0
 62141  1  0  0  0
 62142  1  0  0  0
 63 65  1  0  0  0
 63143  1  0  0  0
 63144  1  0  0  0
 63145  1  0  0  0
 64146  1  0  0  0
 65147  1  0  0  0
 68 83  1  0  0  0
 71 72  2  0  0  0
 71 86  1  0  0  0
 71148  1  0  0  0
 72 73  1  0  0  0
 72 84  1  0  0  0
 73 74  1  0  0  0
 73 85  2  0  0  0
 74149  1  0  0  0
 74150  1  0  0  0
 74151  1  0  0  0
 75152  1  0  0  0
 75153  1  0  0  0
 75154  1  0  0  0
 75 84  1  0  0  0
 76155  1  0  0  0
 76156  1  0  0  0
 76157  1  0  0  0
 76 88  1  0  0  0
 77 78  1  0  0  0
 77 83  1  0  0  0
 77158  1  0  0  0
 77159  1  0  0  0
 78 84  1  0  0  0
 78160  1  0  0  0
 78161  1  0  0  0
 79 81  1  0  0  0
 79 86  1  0  0  0
 79162  1  0  0  0
 79163  1  0  0  0
 80 82  1  0  0  0
 80 87  1  0  0  0
 80164  1  0  0  0
 80165  1  0  0  0
 81 88  1  0  0  0
 81166  1  0  0  0
 81167  1  0  0  0
 82 88  1  0  0  0
 82168  1  0  0  0
 82169  1  0  0  0
 83170  1  0  0  0
 83171  1  0  0  0
 84172  1  0  0  0
 85 86  1  0  0  0
 87173  1  0  0  0
 88174  1  0  0  0
M  CHG  1  88   1
M  ISO  4   1 100  68 101  83 101  87 100
M  END
> <chiral flag>
0

> <version>
0

> <s_m_source_file>
/data/baiqing/PycharmProjects/Reinvent-master-3.2/result/LINK_invent/BTK/process_docking_weight1_custom_sum_contain_oxygen_bond_distance_aromatic_linkinvent_7_9_3/rearranged_h_0091.sdf

> <i_m_source_file_index>
10

> <r_mmod_Potential_Energy-OPLS-2005>
23759.306640625

> <r_mmod_Stretch_Energy-OPLS-2005>
14328.1728515625

> <r_mmod_Bend_Energy-OPLS-2005>
2044.12658691406

> <r_mmod_Torsional_Energy-OPLS-2005>
500.391571044922

> <r_mmod_Improper_Torsional_Energy-OPLS-2005>
57.2181510925293

> <r_mmod_Van_der_Waal_Energy-OPLS-2005>
4740.67919921875

> <r_mmod_Electrostatic_Energy-OPLS-2005>
-259.162139892578

> <r_mmod_Solvation_Energy-OPLS-2005>
-521.098083496094

> <b_mmod_Minimization_Converged-OPLS-2005>
0

> <r_mmod_RMS_Derivative-OPLS-2005>
66.069206237793

$$$$
10
                    3D
 Structure written by MMmdl.
188196  0  0  1  0            999 V2000
  -30.6545  -14.5778   20.4176 C   0  0  0  0  0  0
  -30.4389  -12.3177   19.4850 C   0  0  0  0  0  0
  -29.5268  -12.4219   18.2416 C   0  0  0  0  0  0
  -28.0401  -12.2801   18.6341 C   0  0  0  0  0  0
  -27.6462  -13.1849   19.8307 C   0  0  2  0  0  0
  -28.6887  -13.0904   20.9690 C   0  0  0  0  0  0
  -25.2573  -13.8100   20.5594 C   0  0  0  0  0  0
  -24.1807  -13.0386   20.9132 C   0  0  0  0  0  0
  -24.6345  -11.6863   20.8715 C   0  0  0  0  0  0
  -23.8997  -10.4263   21.0417 C   0  0  0  0  0  0
  -24.3561   -9.4199   21.9206 C   0  0  0  0  0  0
  -23.6250   -8.2233   22.0797 C   0  0  0  0  0  0
  -22.4240   -8.0268   21.3568 C   0  0  0  0  0  0
  -21.9875   -9.0236   20.4657 C   0  0  0  0  0  0
  -22.7178  -10.2125   20.3063 C   0  0  0  0  0  0
  -21.6847   -6.0741   22.5317 C   0  0  0  0  0  0
  -21.4014   -6.5663   23.8252 C   0  0  0  0  0  0
  -21.3638   -5.6823   24.9213 C   0  0  0  0  0  0
  -21.6012   -4.3084   24.7287 C   0  0  0  0  0  0
  -21.8786   -3.8153   23.4419 C   0  0  0  0  0  0
  -21.9173   -4.6954   22.3456 C   0  0  0  0  0  0
  -22.7864  -13.5238   21.1798 C   0  0  0  0  0  0
  -22.1633   -4.2117   21.1043 F   0  0  0  0  0  0
  -21.5600   -3.4581   25.7820 F   0  0  0  0  0  0
  -30.0241  -13.3676   20.4276 N   0  0  0  0  0  0
  -26.2940  -12.9195   20.3138 N   0  0  0  0  0  0
  -25.9254  -11.6396   20.5703 N   0  0  0  0  0  0
  -22.0468  -12.8262   22.0359 N   0  0  0  0  0  0
  -25.4308  -15.1825   20.4042 N   0  0  0  0  0  0
  -31.8774  -14.6646   20.2929 O   0  0  0  0  0  0
  -21.6603   -6.8876   21.4280 O   0  0  0  0  0  0
  -22.3560  -14.5546   20.6641 O   0  0  0  0  0  0
  -24.6167  -31.8665   23.2103 C   0  0  0  0  0  0
  -25.9030  -32.4836   23.8423 C   0  0  1  0  0  0
  -27.2455  -27.4130   20.1100 C   0  0  0  0  0  0
  -25.5882  -33.8633   24.2343 N   0  0  0  0  0  0
  -23.4107  -30.4851   21.5511 C   0  0  2  0  0  0
  -24.8642  -28.9478   20.1173 C   0  0  0  0  0  0
  -22.7439  -29.4631   22.5003 C   0  0  0  0  0  0
  -18.0268  -28.1377   22.8497 C   0  0  0  0  0  0
  -24.1473  -36.7323   23.2646 C   0  0  0  0  0  0
  -25.9417  -30.8223   21.3712 C   0  0  0  0  0  0
  -26.0220  -29.4520   20.7262 C   0  0  0  0  0  0
  -27.2169  -28.6890   20.7283 C   0  0  0  0  0  0
  -26.0788  -26.9375   19.4805 C   0  0  0  0  0  0
  -24.8882  -27.6891   19.4913 C   0  0  0  0  0  0
  -23.6245  -29.8149   20.1670 C   0  0  0  0  0  0
  -25.4097  -36.3133   24.0347 C   0  0  1  0  0  0
  -20.5865  -28.3668   23.1324 C   0  0  2  0  0  0
  -20.6758  -26.9401   22.5426 C   0  0  0  0  0  0
  -19.5733  -26.6385   21.5228 C   0  0  0  0  0  0
  -18.1909  -26.7926   22.1628 C   0  0  0  0  0  0
  -19.1519  -28.8840   23.2899 C   0  0  0  0  0  0
  -18.9445  -30.1454   23.8893 C   0  0  0  0  0  0
  -17.6448  -30.6588   24.0573 C   0  0  0  0  0  0
  -25.9032  -34.9489   23.5149 C   0  0  0  0  0  0
  -16.5338  -29.9090   23.6335 C   0  0  0  0  0  0
  -16.7260  -28.6510   23.0348 C   0  0  0  0  0  0
  -26.4449  -31.6609   25.0754 C   0  0  0  0  0  0
  -25.3709  -31.3658   26.1482 C   0  0  0  0  0  0
  -27.0323  -30.3078   24.6120 C   0  0  0  0  0  0
  -27.6013  -32.4340   25.7526 C   0  0  0  0  0  0
  -27.5581  -37.1819   24.8463 C   0  0  0  0  0  0
  -21.4160  -29.3025   22.3730 N   0  0  0  0  0  0
  -26.4291  -37.3817   23.9420 N   0  0  0  0  0  0
  -24.6747  -31.0730   22.1025 N   0  0  0  0  0  0
  -23.4185  -28.8189   23.3078 O   0  0  0  0  0  0
  -28.3597  -26.5953   20.0789 O   0  0  0  0  0  0
  -26.5601  -34.8934   22.4715 O   0  0  0  0  0  0
  -23.5340  -32.1421   23.7459 O   0  0  0  0  0  0
  -29.5969  -21.4690   18.9089 C   0  0  0  0  0  0
  -28.8991  -20.7043   17.9433 C   0  0  0  0  0  0
  -29.6423  -20.7826   20.0808 C   0  0  0  0  0  0
  -28.5999  -19.4941   18.5380 C   0  0  0  0  0  0
  -29.8063  -21.4050   15.7106 C   0  0  0  0  0  0
  -27.7747  -22.5731   16.6608 C   0  0  0  0  0  0
  -28.0034  -17.8585   16.6130 C   0  0  0  0  0  0
  -26.2320  -18.7075   18.1733 C   0  0  0  0  0  0
  -29.9967  -16.0098   18.4979 C   0  0  0  0  0  0
  -27.1496  -24.0228   22.1103 C   0  0  0  0  0  0
  -30.4132  -24.7800   22.7455 C   0  0  0  0  0  0
  -30.0578  -21.3808   21.4027 C   0  0  0  0  0  0
  -28.9431  -22.2438   22.0722 C   0  0  0  0  0  0
  -30.2168  -17.2270   20.7197 C   0  0  0  0  0  0
  -29.1036  -18.3523   20.8094 C   0  0  0  0  0  0
  -28.9406  -26.2676   21.3478 C   0  0  0  0  0  0
  -28.5423  -21.2421   16.5687 C   0  0  0  0  0  0
  -27.7214  -18.3579   18.0431 C   0  0  0  0  0  0
  -29.8356  -15.8618   20.0305 C   0  0  2  0  0  0
  -28.4888  -23.6236   21.4513 C   0  0  2  0  0  0
  -29.5272  -24.8119   21.4819 C   0  0  2  0  0  0
  -29.1588  -19.4825   19.8352 N   0  0  0  0  0  0
  -31.4885  -12.4082   19.2020 H   0  0  0  0  0  0
  -30.3423  -11.3392   19.9584 H   0  0  0  0  0  0
  -29.8002  -11.6518   17.5183 H   0  0  0  0  0  0
  -29.6867  -13.3729   17.7399 H   0  0  0  0  0  0
  -27.8641  -11.2348   18.8914 H   0  0  0  0  0  0
  -27.4064  -12.4837   17.7715 H   0  0  0  0  0  0
  -27.6337  -14.1892   19.4209 H   0  0  0  0  0  0
  -28.6761  -12.0908   21.4076 H   0  0  0  0  0  0
  -28.4524  -13.7783   21.7804 H   0  0  0  0  0  0
  -25.2706   -9.5716   22.4764 H   0  0  0  0  0  0
  -23.9945   -7.4656   22.7562 H   0  0  0  0  0  0
  -21.0800   -8.8749   19.8982 H   0  0  0  0  0  0
  -22.3612  -10.9672   19.6176 H   0  0  0  0  0  0
  -21.2023   -7.6179   23.9764 H   0  0  0  0  0  0
  -21.1469   -6.0566   25.9114 H   0  0  0  0  0  0
  -22.0557   -2.7614   23.2971 H   0  0  0  0  0  0
  -22.4074  -11.9961   22.4813 H   0  0  0  0  0  0
  -21.1080  -13.1339   22.2473 H   0  0  0  0  0  0
  -24.6673  -15.8395   20.5235 H   0  0  0  0  0  0
  -26.2853  -15.6303   20.1013 H   0  0  0  0  0  0
  -26.7118  -32.5561   23.1205 H   0  0  0  0  0  0
  -25.0010  -33.9807   25.0475 H   0  0  0  0  0  0
  -22.6998  -31.3016   21.4089 H   0  0  0  0  0  0
  -23.3754  -35.9636   23.3293 H   0  0  0  0  0  0
  -24.3558  -36.8957   22.2061 H   0  0  0  0  0  0
  -23.7193  -37.6508   23.6670 H   0  0  0  0  0  0
  -26.0505  -31.5812   20.5958 H   0  0  0  0  0  0
  -26.8308  -30.8851   21.9868 H   0  0  0  0  0  0
  -28.1108  -29.0751   21.1967 H   0  0  0  0  0  0
  -26.0905  -25.9690   18.9984 H   0  0  0  0  0  0
  -24.0018  -27.2963   19.0123 H   0  0  0  0  0  0
  -23.7357  -30.5895   19.4080 H   0  0  0  0  0  0
  -22.7489  -29.2344   19.8698 H   0  0  0  0  0  0
  -25.1258  -36.2023   25.0840 H   0  0  0  0  0  0
  -20.9936  -28.3236   24.1456 H   0  0  0  0  0  0
  -20.5684  -26.2264   23.3612 H   0  0  0  0  0  0
  -21.6630  -26.7458   22.1217 H   0  0  0  0  0  0
  -19.6898  -25.6302   21.1238 H   0  0  0  0  0  0
  -19.6671  -27.3211   20.6768 H   0  0  0  0  0  0
  -17.4187  -26.6693   21.4017 H   0  0  0  0  0  0
  -18.0285  -26.0064   22.9015 H   0  0  0  0  0  0
  -19.7920  -30.7275   24.2253 H   0  0  0  0  0  0
  -17.5003  -31.6260   24.5187 H   0  0  0  0  0  0
  -15.5340  -30.2992   23.7662 H   0  0  0  0  0  0
  -15.8659  -28.0852   22.7034 H   0  0  0  0  0  0
  -24.5922  -30.6975   25.7793 H   0  0  0  0  0  0
  -24.8848  -32.2774   26.4958 H   0  0  0  0  0  0
  -25.8067  -30.8812   27.0227 H   0  0  0  0  0  0
  -26.2894  -29.6834   24.1143 H   0  0  0  0  0  0
  -27.4086  -29.7310   25.4581 H   0  0  0  0  0  0
  -27.8719  -30.4449   23.9300 H   0  0  0  0  0  0
  -27.2620  -33.3619   26.2142 H   0  0  0  0  0  0
  -28.3794  -32.6932   25.0335 H   0  0  0  0  0  0
  -28.0711  -31.8444   26.5409 H   0  0  0  0  0  0
  -28.2590  -38.0131   24.7563 H   0  0  0  0  0  0
  -28.1093  -36.2666   24.6240 H   0  0  0  0  0  0
  -27.2300  -37.1409   25.8867 H   0  0  0  0  0  0
  -20.9335  -29.8735   21.6933 H   0  0  0  0  0  0
  -26.0186  -38.2902   24.1429 H   0  0  0  0  0  0
  -29.9378  -22.4890   18.7892 H   0  0  0  0  0  0
  -30.3393  -20.4588   15.6133 H   0  0  0  0  0  0
  -30.4926  -22.1265   16.1557 H   0  0  0  0  0  0
  -29.5659  -21.7589   14.7075 H   0  0  0  0  0  0
  -26.8608  -22.4701   17.2488 H   0  0  0  0  0  0
  -27.4873  -22.9273   15.6702 H   0  0  0  0  0  0
  -28.3749  -23.3587   17.1207 H   0  0  0  0  0  0
  -29.0705  -17.7890   16.4031 H   0  0  0  0  0  0
  -27.5513  -18.4786   15.8436 H   0  0  0  0  0  0
  -27.5793  -16.8629   16.4766 H   0  0  0  0  0  0
  -25.9800  -19.0012   19.1934 H   0  0  0  0  0  0
  -25.6059  -17.8549   17.9113 H   0  0  0  0  0  0
  -25.9598  -19.5319   17.5117 H   0  0  0  0  0  0
  -30.2037  -17.0399   18.2140 H   0  0  0  0  0  0
  -29.1008  -15.6777   17.9761 H   0  0  0  0  0  0
  -30.8244  -15.4334   18.0811 H   0  0  0  0  0  0
  -26.4271  -23.2074   22.0773 H   0  0  0  0  0  0
  -26.6777  -24.8584   21.5939 H   0  0  0  0  0  0
  -27.2798  -24.3060   23.1557 H   0  0  0  0  0  0
  -31.1268  -25.6050   22.7455 H   0  0  0  0  0  0
  -31.0058  -23.8690   22.8119 H   0  0  0  0  0  0
  -29.8172  -24.8663   23.6540 H   0  0  0  0  0  0
  -30.9557  -21.9843   21.2693 H   0  0  0  0  0  0
  -30.3647  -20.5988   22.0978 H   0  0  0  0  0  0
  -29.2179  -22.4068   23.1134 H   0  0  0  0  0  0
  -28.0682  -21.5942   22.1311 H   0  0  0  0  0  0
  -30.5129  -16.9924   21.7424 H   0  0  0  0  0  0
  -31.1174  -17.6452   20.2671 H   0  0  0  0  0  0
  -29.1555  -18.7804   21.8086 H   0  0  0  0  0  0
  -28.1055  -17.9146   20.7847 H   0  0  0  0  0  0
  -29.7411  -26.9918   21.5024 H   0  0  0  0  0  0
  -28.2370  -26.4535   22.1602 H   0  0  0  0  0  0
  -27.8791  -20.5447   16.0686 H   0  0  0  0  0  0
  -27.8729  -17.4942   18.6812 H   0  0  0  0  0  0
  -28.7940  -15.6971   20.2874 H   0  0  0  0  0  0
  -28.2480  -23.4438   20.4032 H   0  0  0  0  0  0
  -30.2019  -24.6579   20.6372 H   0  0  0  0  0  0
  1 25  1  0  0  0
  1 30  2  0  0  0
  1 89  1  0  0  0
  2  3  1  0  0  0
  2 25  1  0  0  0
  2 93  1  0  0  0
  2 94  1  0  0  0
  3  4  1  0  0  0
  3 95  1  0  0  0
  3 96  1  0  0  0
  4  5  1  0  0  0
  4 97  1  0  0  0
  4 98  1  0  0  0
  5  6  1  0  0  0
  5 26  1  0  0  0
  5 99  1  0  0  0
  6 25  1  0  0  0
  6100  1  0  0  0
  6101  1  0  0  0
  7  8  2  0  0  0
  7 26  1  0  0  0
  7 29  1  0  0  0
  8  9  1  0  0  0
  8 22  1  0  0  0
  9 10  1  0  0  0
  9 27  2  0  0  0
 10 11  2  0  0  0
 10 15  1  0  0  0
 11 12  1  0  0  0
 11102  1  0  0  0
 12 13  2  0  0  0
 12103  1  0  0  0
 13 14  1  0  0  0
 13 31  1  0  0  0
 14 15  2  0  0  0
 14104  1  0  0  0
 15105  1  0  0  0
 16 17  2  0  0  0
 16 21  1  0  0  0
 16 31  1  0  0  0
 17 18  1  0  0  0
 17106  1  0  0  0
 18 19  2  0  0  0
 18107  1  0  0  0
 19 20  1  0  0  0
 19 24  1  0  0  0
 20 21  2  0  0  0
 20108  1  0  0  0
 21 23  1  0  0  0
 22 28  1  0  0  0
 22 32  2  0  0  0
 26 27  1  0  0  0
 28109  1  0  0  0
 28110  1  0  0  0
 29111  1  0  0  0
 29112  1  0  0  0
 33 34  1  0  0  0
 33 66  1  0  0  0
 33 70  2  0  0  0
 34 36  1  0  0  0
 34 59  1  0  0  0
 34113  1  0  0  0
 35 44  2  0  0  0
 35 45  1  0  0  0
 35 68  1  0  0  0
 36 56  1  0  0  0
 36114  1  0  0  0
 37 39  1  0  0  0
 37 47  1  0  0  0
 37 66  1  0  0  0
 37115  1  0  0  0
 38 43  2  0  0  0
 38 46  1  0  0  0
 38 47  1  0  0  0
 39 64  1  0  0  0
 39 67  2  0  0  0
 40 52  1  0  0  0
 40 53  2  0  0  0
 40 58  1  0  0  0
 41116  1  0  0  0
 41117  1  0  0  0
 41118  1  0  0  0
 41 48  1  0  0  0
 42 43  1  0  0  0
 42 66  1  0  0  0
 42119  1  0  0  0
 42120  1  0  0  0
 43 44  1  0  0  0
 44121  1  0  0  0
 45 46  2  0  0  0
 45122  1  0  0  0
 46123  1  0  0  0
 47124  1  0  0  0
 47125  1  0  0  0
 48 56  1  0  0  0
 48 65  1  0  0  0
 48126  1  0  0  0
 49 50  1  0  0  0
 49 53  1  0  0  0
 49 64  1  0  0  0
 49127  1  0  0  0
 50 51  1  0  0  0
 50128  1  0  0  0
 50129  1  0  0  0
 51 52  1  0  0  0
 51130  1  0  0  0
 51131  1  0  0  0
 52132  1  0  0  0
 52133  1  0  0  0
 53 54  1  0  0  0
 54 55  2  0  0  0
 54134  1  0  0  0
 55 57  1  0  0  0
 55135  1  0  0  0
 56 69  2  0  0  0
 57 58  2  0  0  0
 57136  1  0  0  0
 58137  1  0  0  0
 59 60  1  0  0  0
 59 61  1  0  0  0
 59 62  1  0  0  0
 60138  1  0  0  0
 60139  1  0  0  0
 60140  1  0  0  0
 61141  1  0  0  0
 61142  1  0  0  0
 61143  1  0  0  0
 62144  1  0  0  0
 62145  1  0  0  0
 62146  1  0  0  0
 63 65  1  0  0  0
 63147  1  0  0  0
 63148  1  0  0  0
 63149  1  0  0  0
 64150  1  0  0  0
 65151  1  0  0  0
 68 86  1  0  0  0
 71 72  1  0  0  0
 71 73  2  0  0  0
 71152  1  0  0  0
 72 74  2  0  0  0
 72 87  1  0  0  0
 73 82  1  0  0  0
 73 92  1  0  0  0
 74 88  1  0  0  0
 74 92  1  0  0  0
 75153  1  0  0  0
 75154  1  0  0  0
 75155  1  0  0  0
 75 87  1  0  0  0
 76 87  1  0  0  0
 76156  1  0  0  0
 76157  1  0  0  0
 76158  1  0  0  0
 77159  1  0  0  0
 77160  1  0  0  0
 77161  1  0  0  0
 77 88  1  0  0  0
 78 88  1  0  0  0
 78162  1  0  0  0
 78163  1  0  0  0
 78164  1  0  0  0
 79165  1  0  0  0
 79166  1  0  0  0
 79167  1  0  0  0
 79 89  1  0  0  0
 80168  1  0  0  0
 80169  1  0  0  0
 80170  1  0  0  0
 80 90  1  0  0  0
 81171  1  0  0  0
 81172  1  0  0  0
 81173  1  0  0  0
 81 91  1  0  0  0
 82 83  1  0  0  0
 82174  1  0  0  0
 82175  1  0  0  0
 83 90  1  0  0  0
 83176  1  0  0  0
 83177  1  0  0  0
 84 85  1  0  0  0
 84 89  1  0  0  0
 84178  1  0  0  0
 84179  1  0  0  0
 85 92  1  0  0  0
 85180  1  0  0  0
 85181  1  0  0  0
 86 91  1  0  0  0
 86182  1  0  0  0
 86183  1  0  0  0
 87184  1  0  0  0
 88185  1  0  0  0
 89186  1  0  0  0
 90 91  1  0  0  0
 90187  1  0  0  0
 91188  1  0  0  0
M  ISO  4   1 100  68 101  86 101  89 100
M  END
> <chiral flag>
0

> <version>
0

> <s_m_source_file>
/data/baiqing/PycharmProjects/Reinvent-master-3.2/result/LINK_invent/BTK/process_docking_weight1_custom_sum_contain_oxygen_bond_distance_aromatic_linkinvent_7_9_3/rearranged_h_0091.sdf

> <i_m_source_file_index>
11

> <r_mmod_Potential_Energy-OPLS-2005>
119.409828186035

> <r_mmod_Stretch_Energy-OPLS-2005>
60.4247703552246

> <r_mmod_Bend_Energy-OPLS-2005>
151.175689697266

> <r_mmod_Torsional_Energy-OPLS-2005>
302.085296630859

> <r_mmod_Improper_Torsional_Energy-OPLS-2005>
15.2467260360718

> <r_mmod_Van_der_Waal_Energy-OPLS-2005>
111.697463989258

> <r_mmod_Electrostatic_Energy-OPLS-2005>
-381.937194824219

> <r_mmod_Solvation_Energy-OPLS-2005>
-178.527206420898

> <b_mmod_Minimization_Converged-OPLS-2005>
0

> <r_mmod_RMS_Derivative-OPLS-2005>
3.65460205078125

$$$$
11
                    3D
 Structure written by MMmdl.
171179  0  0  1  0            999 V2000
  -30.7661  -14.3816   20.6754 C   0  0  0  0  0  0
  -30.4166  -12.2980   19.3948 C   0  0  0  0  0  0
  -29.4828  -12.5259   18.1919 C   0  0  0  0  0  0
  -28.0077  -12.3803   18.6099 C   0  0  0  0  0  0
  -27.6642  -13.2047   19.8775 C   0  0  2  0  0  0
  -28.7041  -12.9577   20.9926 C   0  0  0  0  0  0
  -25.2601  -13.8168   20.5680 C   0  0  0  0  0  0
  -24.1849  -13.0446   20.9171 C   0  0  0  0  0  0
  -24.6398  -11.6909   20.8737 C   0  0  0  0  0  0
  -23.9064  -10.4295   21.0405 C   0  0  0  0  0  0
  -24.3612   -9.4208   21.9183 C   0  0  0  0  0  0
  -23.6285   -8.2244   22.0752 C   0  0  0  0  0  0
  -22.4268   -8.0284   21.3541 C   0  0  0  0  0  0
  -21.9908   -9.0257   20.4642 C   0  0  0  0  0  0
  -22.7238  -10.2136   20.3050 C   0  0  0  0  0  0
  -21.6852   -6.0737   22.5279 C   0  0  0  0  0  0
  -21.4014   -6.5639   23.8213 C   0  0  0  0  0  0
  -21.3658   -5.6793   24.9174 C   0  0  0  0  0  0
  -21.6043   -4.3055   24.7225 C   0  0  0  0  0  0
  -21.8820   -3.8148   23.4347 C   0  0  0  0  0  0
  -21.9191   -4.6965   22.3402 C   0  0  0  0  0  0
  -22.7869  -13.5238   21.1836 C   0  0  0  0  0  0
  -22.1657   -4.2146   21.0982 F   0  0  0  0  0  0
  -21.5629   -3.4540   25.7737 F   0  0  0  0  0  0
  -30.0451  -13.2499   20.4525 N   0  0  0  0  0  0
  -26.3039  -12.9335   20.3379 N   0  0  0  0  0  0
  -25.9322  -11.6494   20.5760 N   0  0  0  0  0  0
  -22.0508  -12.8223   22.0390 N   0  0  0  0  0  0
  -25.4328  -15.1884   20.4087 N   0  0  0  0  0  0
  -31.8129  -14.6456   20.0741 O   0  0  0  0  0  0
  -21.6635   -6.8879   21.4240 O   0  0  0  0  0  0
  -22.3548  -14.5545   20.6687 O   0  0  0  0  0  0
  -24.6136  -31.8691   23.2130 C   0  0  0  0  0  0
  -25.9040  -32.4828   23.8412 C   0  0  1  0  0  0
  -27.2338  -27.4417   20.0961 C   0  0  0  0  0  0
  -25.5897  -33.8628   24.2341 N   0  0  0  0  0  0
  -23.4004  -30.4926   21.5537 C   0  0  2  0  0  0
  -24.8456  -28.9551   20.1221 C   0  0  0  0  0  0
  -22.7396  -29.4672   22.5023 C   0  0  0  0  0  0
  -18.0256  -28.1381   22.8489 C   0  0  0  0  0  0
  -24.1480  -36.7325   23.2644 C   0  0  0  0  0  0
  -25.9274  -30.8351   21.3658 C   0  0  0  0  0  0
  -26.0049  -29.4681   20.7177 C   0  0  0  0  0  0
  -27.2021  -28.7174   20.7031 C   0  0  0  0  0  0
  -26.0609  -26.9480   19.4857 C   0  0  0  0  0  0
  -24.8671  -27.6927   19.5055 C   0  0  0  0  0  0
  -23.6089  -29.8234   20.1690 C   0  0  0  0  0  0
  -25.4100  -36.3118   24.0337 C   0  0  1  0  0  0
  -20.5847  -28.3671   23.1325 C   0  0  2  0  0  0
  -20.6755  -26.9413   22.5422 C   0  0  0  0  0  0
  -19.5738  -26.6395   21.5214 C   0  0  0  0  0  0
  -18.1914  -26.7928   22.1619 C   0  0  0  0  0  0
  -19.1504  -28.8840   23.2903 C   0  0  0  0  0  0
  -18.9441  -30.1441   23.8923 C   0  0  0  0  0  0
  -17.6447  -30.6592   24.0568 C   0  0  0  0  0  0
  -25.9031  -34.9482   23.5138 C   0  0  0  0  0  0
  -16.5339  -29.9097   23.6328 C   0  0  0  0  0  0
  -16.7245  -28.6509   23.0352 C   0  0  0  0  0  0
  -26.4473  -31.6599   25.0735 C   0  0  0  0  0  0
  -25.3744  -31.3675   26.1481 C   0  0  0  0  0  0
  -27.0331  -30.3056   24.6105 C   0  0  0  0  0  0
  -27.6046  -32.4320   25.7494 C   0  0  0  0  0  0
  -27.5575  -37.1816   24.8464 C   0  0  0  0  0  0
  -21.4126  -29.3040   22.3740 N   0  0  0  0  0  0
  -26.4290  -37.3800   23.9408 N   0  0  0  0  0  0
  -24.6656  -31.0788   22.1035 N   0  0  0  0  0  0
  -23.4164  -28.8222   23.3075 O   0  0  0  0  0  0
  -28.4171  -26.7411   20.0334 O   0  0  0  0  0  0
  -26.5592  -34.8931   22.4698 O   0  0  0  0  0  0
  -23.5332  -32.1443   23.7525 O   0  0  0  0  0  0
  -29.1997  -19.8525   20.6285 C   0  0  0  0  0  0
  -28.3271  -20.4044   19.7245 C   0  0  0  0  0  0
  -28.1828  -19.3824   18.7346 C   0  0  0  0  0  0
  -26.2658  -21.5540   20.4963 C   0  0  0  0  0  0
  -26.1936  -18.3140   17.6262 C   0  0  0  0  0  0
  -28.1407  -19.1797   16.2206 C   0  0  0  0  0  0
  -31.0504  -15.2651   22.9150 C   0  0  0  0  0  0
  -27.9243  -24.2883   19.9146 C   0  0  0  0  0  0
  -28.4352  -22.8975   20.3655 C   0  0  0  0  0  0
  -30.3529  -17.5601   20.7879 C   0  0  0  0  0  0
  -29.5128  -16.3787   21.3324 C   0  0  0  0  0  0
  -28.4870  -25.4816   20.7164 C   0  0  0  0  0  0
  -27.6043  -21.7384   19.7601 C   0  0  1  0  0  0
  -27.3086  -19.3653   17.5003 C   0  0  0  0  0  0
  -28.9059  -18.3082   19.0146 N   0  0  0  0  0  0
  -29.5122  -18.5822   20.1849 N   0  0  0  0  0  0
  -30.3084  -15.1856   21.6579 N   0  0  0  0  0  0
  -31.4586  -12.4005   19.0860 H   0  0  0  0  0  0
  -30.3189  -11.2767   19.7659 H   0  0  0  0  0  0
  -29.7153  -11.8191   17.3938 H   0  0  0  0  0  0
  -29.6514  -13.5217   17.7789 H   0  0  0  0  0  0
  -27.8143  -11.3222   18.7912 H   0  0  0  0  0  0
  -27.3539  -12.6714   17.7867 H   0  0  0  0  0  0
  -27.7161  -14.2560   19.5951 H   0  0  0  0  0  0
  -28.6698  -11.9177   21.3202 H   0  0  0  0  0  0
  -28.4551  -13.5463   21.8760 H   0  0  0  0  0  0
  -25.2750   -9.5685   22.4768 H   0  0  0  0  0  0
  -23.9989   -7.4636   22.7473 H   0  0  0  0  0  0
  -21.0841   -8.8779   19.8946 H   0  0  0  0  0  0
  -22.3694  -10.9676   19.6164 H   0  0  0  0  0  0
  -21.2010   -7.6148   23.9713 H   0  0  0  0  0  0
  -21.1478   -6.0524   25.9077 H   0  0  0  0  0  0
  -22.0603   -2.7612   23.2847 H   0  0  0  0  0  0
  -22.4108  -11.9869   22.4766 H   0  0  0  0  0  0
  -21.1129  -13.1253   22.2599 H   0  0  0  0  0  0
  -24.6697  -15.8465   20.5199 H   0  0  0  0  0  0
  -26.2919  -15.6272   20.1025 H   0  0  0  0  0  0
  -26.7111  -32.5551   23.1180 H   0  0  0  0  0  0
  -25.0033  -33.9780   25.0477 H   0  0  0  0  0  0
  -22.6896  -31.3099   21.4156 H   0  0  0  0  0  0
  -23.3743  -35.9658   23.3304 H   0  0  0  0  0  0
  -24.3575  -36.8950   22.2059 H   0  0  0  0  0  0
  -23.7233  -37.6526   23.6668 H   0  0  0  0  0  0
  -26.0353  -31.5995   20.5955 H   0  0  0  0  0  0
  -26.8169  -30.8923   21.9808 H   0  0  0  0  0  0
  -28.1020  -29.1139   21.1521 H   0  0  0  0  0  0
  -26.0658  -26.0071   18.9589 H   0  0  0  0  0  0
  -23.9797  -27.2986   19.0291 H   0  0  0  0  0  0
  -23.7204  -30.5974   19.4087 H   0  0  0  0  0  0
  -22.7314  -29.2441   19.8747 H   0  0  0  0  0  0
  -25.1277  -36.1983   25.0829 H   0  0  0  0  0  0
  -20.9917  -28.3244   24.1454 H   0  0  0  0  0  0
  -20.5679  -26.2281   23.3608 H   0  0  0  0  0  0
  -21.6629  -26.7485   22.1209 H   0  0  0  0  0  0
  -19.6912  -25.6313   21.1232 H   0  0  0  0  0  0
  -19.6670  -27.3211   20.6747 H   0  0  0  0  0  0
  -17.4190  -26.6673   21.4016 H   0  0  0  0  0  0
  -18.0303  -26.0063   22.9007 H   0  0  0  0  0  0
  -19.7926  -30.7234   24.2313 H   0  0  0  0  0  0
  -17.5021  -31.6274   24.5166 H   0  0  0  0  0  0
  -15.5344  -30.3013   23.7650 H   0  0  0  0  0  0
  -15.8638  -28.0837   22.7066 H   0  0  0  0  0  0
  -24.5921  -30.7021   25.7804 H   0  0  0  0  0  0
  -24.8926  -32.2816   26.4961 H   0  0  0  0  0  0
  -25.8103  -30.8820   27.0224 H   0  0  0  0  0  0
  -26.2887  -29.6782   24.1187 H   0  0  0  0  0  0
  -27.4153  -29.7314   25.4555 H   0  0  0  0  0  0
  -27.8690  -30.4394   23.9233 H   0  0  0  0  0  0
  -27.2678  -33.3629   26.2062 H   0  0  0  0  0  0
  -28.3855  -32.6855   25.0314 H   0  0  0  0  0  0
  -28.0716  -31.8453   26.5414 H   0  0  0  0  0  0
  -28.2592  -38.0115   24.7524 H   0  0  0  0  0  0
  -28.1071  -36.2649   24.6282 H   0  0  0  0  0  0
  -27.2295  -37.1450   25.8868 H   0  0  0  0  0  0
  -20.9302  -29.8754   21.6946 H   0  0  0  0  0  0
  -26.0183  -38.2880   24.1414 H   0  0  0  0  0  0
  -29.5969  -20.2418   21.5555 H   0  0  0  0  0  0
  -25.6593  -20.7859   20.0160 H   0  0  0  0  0  0
  -25.6712  -22.4663   20.5111 H   0  0  0  0  0  0
  -26.4207  -21.2469   21.5312 H   0  0  0  0  0  0
  -25.5886  -18.4951   18.5160 H   0  0  0  0  0  0
  -26.6025  -17.3065   17.7072 H   0  0  0  0  0  0
  -25.5282  -18.3346   16.7632 H   0  0  0  0  0  0
  -28.8916  -19.9655   16.1280 H   0  0  0  0  0  0
  -27.5121  -19.2152   15.3309 H   0  0  0  0  0  0
  -28.6622  -18.2220   16.2200 H   0  0  0  0  0  0
  -30.5094  -15.8341   23.6717 H   0  0  0  0  0  0
  -32.0202  -15.7409   22.7605 H   0  0  0  0  0  0
  -31.2257  -14.2669   23.3197 H   0  0  0  0  0  0
  -26.8398  -24.3064   19.9933 H   0  0  0  0  0  0
  -28.1614  -24.4188   18.8585 H   0  0  0  0  0  0
  -28.4463  -22.8220   21.4536 H   0  0  0  0  0  0
  -29.4744  -22.8087   20.0462 H   0  0  0  0  0  0
  -31.0595  -17.2259   20.0272 H   0  0  0  0  0  0
  -30.9459  -18.0098   21.5851 H   0  0  0  0  0  0
  -28.7641  -16.0955   20.5917 H   0  0  0  0  0  0
  -28.9436  -16.7015   22.2047 H   0  0  0  0  0  0
  -29.5441  -25.3024   20.9149 H   0  0  0  0  0  0
  -28.0069  -25.5461   21.6942 H   0  0  0  0  0  0
  -27.3742  -22.0346   18.7363 H   0  0  0  0  0  0
  -26.8101  -20.3291   17.4077 H   0  0  0  0  0  0
  1 25  1  0  0  0
  1 30  2  0  0  0
  1 87  1  0  0  0
  2  3  1  0  0  0
  2 25  1  0  0  0
  2 88  1  0  0  0
  2 89  1  0  0  0
  3  4  1  0  0  0
  3 90  1  0  0  0
  3 91  1  0  0  0
  4  5  1  0  0  0
  4 92  1  0  0  0
  4 93  1  0  0  0
  5  6  1  0  0  0
  5 26  1  0  0  0
  5 94  1  0  0  0
  6 25  1  0  0  0
  6 95  1  0  0  0
  6 96  1  0  0  0
  7  8  2  0  0  0
  7 26  1  0  0  0
  7 29  1  0  0  0
  8  9  1  0  0  0
  8 22  1  0  0  0
  9 10  1  0  0  0
  9 27  2  0  0  0
 10 11  2  0  0  0
 10 15  1  0  0  0
 11 12  1  0  0  0
 11 97  1  0  0  0
 12 13  2  0  0  0
 12 98  1  0  0  0
 13 14  1  0  0  0
 13 31  1  0  0  0
 14 15  2  0  0  0
 14 99  1  0  0  0
 15100  1  0  0  0
 16 17  2  0  0  0
 16 21  1  0  0  0
 16 31  1  0  0  0
 17 18  1  0  0  0
 17101  1  0  0  0
 18 19  2  0  0  0
 18102  1  0  0  0
 19 20  1  0  0  0
 19 24  1  0  0  0
 20 21  2  0  0  0
 20103  1  0  0  0
 21 23  1  0  0  0
 22 28  1  0  0  0
 22 32  2  0  0  0
 26 27  1  0  0  0
 28104  1  0  0  0
 28105  1  0  0  0
 29106  1  0  0  0
 29107  1  0  0  0
 33 34  1  0  0  0
 33 66  1  0  0  0
 33 70  2  0  0  0
 34 36  1  0  0  0
 34 59  1  0  0  0
 34108  1  0  0  0
 35 44  2  0  0  0
 35 45  1  0  0  0
 35 68  1  0  0  0
 36 56  1  0  0  0
 36109  1  0  0  0
 37 39  1  0  0  0
 37 47  1  0  0  0
 37 66  1  0  0  0
 37110  1  0  0  0
 38 43  2  0  0  0
 38 46  1  0  0  0
 38 47  1  0  0  0
 39 64  1  0  0  0
 39 67  2  0  0  0
 40 52  1  0  0  0
 40 53  2  0  0  0
 40 58  1  0  0  0
 41111  1  0  0  0
 41112  1  0  0  0
 41113  1  0  0  0
 41 48  1  0  0  0
 42 43  1  0  0  0
 42 66  1  0  0  0
 42114  1  0  0  0
 42115  1  0  0  0
 43 44  1  0  0  0
 44116  1  0  0  0
 45 46  2  0  0  0
 45117  1  0  0  0
 46118  1  0  0  0
 47119  1  0  0  0
 47120  1  0  0  0
 48 56  1  0  0  0
 48 65  1  0  0  0
 48121  1  0  0  0
 49 50  1  0  0  0
 49 53  1  0  0  0
 49 64  1  0  0  0
 49122  1  0  0  0
 50 51  1  0  0  0
 50123  1  0  0  0
 50124  1  0  0  0
 51 52  1  0  0  0
 51125  1  0  0  0
 51126  1  0  0  0
 52127  1  0  0  0
 52128  1  0  0  0
 53 54  1  0  0  0
 54 55  2  0  0  0
 54129  1  0  0  0
 55 57  1  0  0  0
 55130  1  0  0  0
 56 69  2  0  0  0
 57 58  2  0  0  0
 57131  1  0  0  0
 58132  1  0  0  0
 59 60  1  0  0  0
 59 61  1  0  0  0
 59 62  1  0  0  0
 60133  1  0  0  0
 60134  1  0  0  0
 60135  1  0  0  0
 61136  1  0  0  0
 61137  1  0  0  0
 61138  1  0  0  0
 62139  1  0  0  0
 62140  1  0  0  0
 62141  1  0  0  0
 63 65  1  0  0  0
 63142  1  0  0  0
 63143  1  0  0  0
 63144  1  0  0  0
 64145  1  0  0  0
 65146  1  0  0  0
 68 82  1  0  0  0
 71 72  2  0  0  0
 71 86  1  0  0  0
 71147  1  0  0  0
 72 73  1  0  0  0
 72 83  1  0  0  0
 73 84  1  0  0  0
 73 85  2  0  0  0
 74148  1  0  0  0
 74149  1  0  0  0
 74150  1  0  0  0
 74 83  1  0  0  0
 75151  1  0  0  0
 75152  1  0  0  0
 75153  1  0  0  0
 75 84  1  0  0  0
 76 84  1  0  0  0
 76154  1  0  0  0
 76155  1  0  0  0
 76156  1  0  0  0
 77 87  1  0  0  0
 77157  1  0  0  0
 77158  1  0  0  0
 77159  1  0  0  0
 78 79  1  0  0  0
 78 82  1  0  0  0
 78160  1  0  0  0
 78161  1  0  0  0
 79 83  1  0  0  0
 79162  1  0  0  0
 79163  1  0  0  0
 80 81  1  0  0  0
 80 86  1  0  0  0
 80164  1  0  0  0
 80165  1  0  0  0
 81 87  1  0  0  0
 81166  1  0  0  0
 81167  1  0  0  0
 82168  1  0  0  0
 82169  1  0  0  0
 83170  1  0  0  0
 84171  1  0  0  0
 85 86  1  0  0  0
M  ISO  4   1 100  68 101  82 101  87 100
M  END
> <chiral flag>
0

> <version>
0

> <s_m_source_file>
/data/baiqing/PycharmProjects/Reinvent-master-3.2/result/LINK_invent/BTK/process_docking_weight1_custom_sum_contain_oxygen_bond_distance_aromatic_linkinvent_7_9_3/rearranged_h_0091.sdf

> <i_m_source_file_index>
12

> <r_mmod_Potential_Energy-OPLS-2005>
27.1857166290283

> <r_mmod_Stretch_Energy-OPLS-2005>
34.03369140625

> <r_mmod_Bend_Energy-OPLS-2005>
95.9348373413086

> <r_mmod_Torsional_Energy-OPLS-2005>
306.309692382812

> <r_mmod_Improper_Torsional_Energy-OPLS-2005>
4.12689399719238

> <r_mmod_Van_der_Waal_Energy-OPLS-2005>
116.528854370117

> <r_mmod_Electrostatic_Energy-OPLS-2005>
-347.633666992188

> <r_mmod_Solvation_Energy-OPLS-2005>
-189.419372558594

> <b_mmod_Minimization_Converged-OPLS-2005>
0

> <r_mmod_RMS_Derivative-OPLS-2005>
1.15204095840454

$$$$
12
                    3D
 Structure written by MMmdl.
179188  0  0  1  0            999 V2000
  -30.5859  -14.8753   20.4247 C   0  0  0  0  0  0
  -30.4312  -12.5399   19.4994 C   0  0  0  0  0  0
  -29.5140  -12.5228   18.2565 C   0  0  0  0  0  0
  -28.0439  -12.3269   18.6713 C   0  0  0  0  0  0
  -27.6330  -13.2484   19.8512 C   0  0  2  0  0  0
  -28.6775  -13.2561   20.9879 C   0  0  0  0  0  0
  -25.2463  -13.8227   20.5755 C   0  0  0  0  0  0
  -24.1771  -13.0444   20.9252 C   0  0  0  0  0  0
  -24.6394  -11.6933   20.8784 C   0  0  0  0  0  0
  -23.9084  -10.4294   21.0423 C   0  0  0  0  0  0
  -24.3618   -9.4198   21.9195 C   0  0  0  0  0  0
  -23.6283   -8.2236   22.0753 C   0  0  0  0  0  0
  -22.4259   -8.0280   21.3545 C   0  0  0  0  0  0
  -21.9915   -9.0249   20.4644 C   0  0  0  0  0  0
  -22.7250  -10.2133   20.3064 C   0  0  0  0  0  0
  -21.6855   -6.0732   22.5273 C   0  0  0  0  0  0
  -21.4013   -6.5642   23.8196 C   0  0  0  0  0  0
  -21.3658   -5.6792   24.9167 C   0  0  0  0  0  0
  -21.6040   -4.3051   24.7228 C   0  0  0  0  0  0
  -21.8810   -3.8146   23.4349 C   0  0  0  0  0  0
  -21.9187   -4.6960   22.3403 C   0  0  0  0  0  0
  -22.7779  -13.5203   21.1878 C   0  0  0  0  0  0
  -22.1646   -4.2141   21.0978 F   0  0  0  0  0  0
  -21.5640   -3.4538   25.7743 F   0  0  0  0  0  0
  -29.9611  -13.6373   20.3884 N   0  0  0  0  0  0
  -26.2900  -12.9466   20.3340 N   0  0  0  0  0  0
  -25.9329  -11.6595   20.5802 N   0  0  0  0  0  0
  -22.0436  -12.8195   22.0442 N   0  0  0  0  0  0
  -25.4141  -15.1949   20.4113 N   0  0  0  0  0  0
  -31.7854  -14.9206   20.1338 O   0  0  0  0  0  0
  -21.6638   -6.8869   21.4229 O   0  0  0  0  0  0
  -22.3455  -14.5477   20.6669 O   0  0  0  0  0  0
  -24.6405  -31.8453   23.1939 C   0  0  0  0  0  0
  -25.9195  -32.4697   23.8299 C   0  0  1  0  0  0
  -27.2101  -27.1708   20.1379 C   0  0  0  0  0  0
  -25.5960  -33.8506   24.2213 N   0  0  0  0  0  0
  -23.4402  -30.4690   21.5380 C   0  0  2  0  0  0
  -24.8863  -28.9039   20.1113 C   0  0  0  0  0  0
  -22.7536  -29.4561   22.4878 C   0  0  0  0  0  0
  -18.0300  -28.1387   22.8474 C   0  0  0  0  0  0
  -24.1492  -36.7262   23.2644 C   0  0  0  0  0  0
  -25.9953  -30.7318   21.3877 C   0  0  0  0  0  0
  -26.0644  -29.3476   20.7250 C   0  0  0  0  0  0
  -27.2287  -28.4974   20.7197 C   0  0  0  0  0  0
  -26.0041  -26.8170   19.4948 C   0  0  0  0  0  0
  -24.8677  -27.6508   19.4818 C   0  0  0  0  0  0
  -23.6625  -29.8032   20.1555 C   0  0  0  0  0  0
  -25.4123  -36.3031   24.0315 C   0  0  1  0  0  0
  -20.5903  -28.3701   23.1240 C   0  0  2  0  0  0
  -20.6785  -26.9411   22.5401 C   0  0  0  0  0  0
  -19.5771  -26.6373   21.5199 C   0  0  0  0  0  0
  -18.1944  -26.7928   22.1607 C   0  0  0  0  0  0
  -19.1553  -28.8864   23.2847 C   0  0  0  0  0  0
  -18.9476  -30.1462   23.8870 C   0  0  0  0  0  0
  -17.6475  -30.6585   24.0552 C   0  0  0  0  0  0
  -25.9067  -34.9400   23.5063 C   0  0  0  0  0  0
  -16.5363  -29.9075   23.6346 C   0  0  0  0  0  0
  -16.7282  -28.6496   23.0357 C   0  0  0  0  0  0
  -26.4522  -31.6562   25.0734 C   0  0  0  0  0  0
  -25.3734  -31.3744   26.1449 C   0  0  0  0  0  0
  -27.0396  -30.2961   24.6331 C   0  0  0  0  0  0
  -27.6046  -32.4337   25.7526 C   0  0  0  0  0  0
  -27.5584  -37.1781   24.8456 C   0  0  0  0  0  0
  -21.4232  -29.3034   22.3622 N   0  0  0  0  0  0
  -26.4284  -37.3747   23.9410 N   0  0  0  0  0  0
  -24.7116  -31.0357   22.0949 N   0  0  0  0  0  0
  -23.4196  -28.8109   23.3010 O   0  0  0  0  0  0
  -28.2839  -26.2209   20.1792 O   0  0  0  0  0  0
  -26.5646  -34.8895   22.4638 O   0  0  0  0  0  0
  -23.5535  -32.1313   23.7192 O   0  0  0  0  0  0
  -32.5522  -20.2291   23.5002 C   0  0  0  0  0  0
  -33.9523  -19.2193   21.8080 C   0  0  0  0  0  0
  -29.7069  -19.7851   21.5366 C   0  0  0  0  0  0
  -29.0229  -21.0171   19.2246 C   0  0  0  0  0  0
  -33.3839  -19.1711   23.0948 C   0  0  0  0  0  0
  -29.5219  -21.2219   21.5160 C   0  0  0  0  0  0
  -29.1719  -21.9394   20.3170 C   0  0  0  0  0  0
  -32.3098  -21.2845   22.6033 C   0  0  0  0  0  0
  -33.6712  -20.3241   20.9827 C   0  0  0  0  0  0
  -29.6411  -18.9708   20.3715 C   0  0  0  0  0  0
  -33.6275  -17.9908   24.0089 C   0  0  0  0  0  0
  -33.7348  -20.1587   17.0691 C   0  0  0  0  0  0
  -30.1305  -23.8900   18.9147 C   0  0  0  0  0  0
  -29.8346  -21.9755   22.8052 C   0  0  0  0  0  0
  -31.3201  -22.3846   22.9592 C   0  0  0  0  0  0
  -34.2348  -20.4128   19.5724 C   0  0  0  0  0  0
  -30.3723  -17.5108   20.2457 C   0  0  0  0  0  0
  -33.1821  -20.0812   18.4996 C   0  0  0  0  0  0
  -28.0361  -24.6933   20.1653 C   0  0  0  0  0  0
  -29.2664  -23.5827   20.1497 C   0  0  1  0  0  0
  -29.2565  -19.6452   19.2410 N   0  0  0  0  0  0
  -32.8755  -21.3420   21.3765 N   0  0  0  0  0  0
  -29.8560  -16.0731   20.5547 N   0  0  0  0  0  0
  -31.4691  -12.6757   19.1905 H   0  0  0  0  0  0
  -30.4033  -11.5831   20.0229 H   0  0  0  0  0  0
  -29.8199  -11.7319   17.5703 H   0  0  0  0  0  0
  -29.6208  -13.4624   17.7108 H   0  0  0  0  0  0
  -27.9238  -11.2814   18.9569 H   0  0  0  0  0  0
  -27.3809  -12.4854   17.8208 H   0  0  0  0  0  0
  -27.6039  -14.2581   19.4402 H   0  0  0  0  0  0
  -28.7474  -12.2796   21.4685 H   0  0  0  0  0  0
  -28.3951  -13.9636   21.7696 H   0  0  0  0  0  0
  -25.2753   -9.5664   22.4774 H   0  0  0  0  0  0
  -23.9974   -7.4619   22.7465 H   0  0  0  0  0  0
  -21.0846   -8.8768   19.8942 H   0  0  0  0  0  0
  -22.3701  -10.9662   19.6165 H   0  0  0  0  0  0
  -21.2001   -7.6153   23.9704 H   0  0  0  0  0  0
  -21.1494   -6.0537   25.9062 H   0  0  0  0  0  0
  -22.0594   -2.7619   23.2862 H   0  0  0  0  0  0
  -22.4057  -11.9856   22.4824 H   0  0  0  0  0  0
  -21.1042  -13.1198   22.2621 H   0  0  0  0  0  0
  -24.6472  -15.8512   20.5100 H   0  0  0  0  0  0
  -26.2560  -15.6282   20.0549 H   0  0  0  0  0  0
  -26.7263  -32.5301   23.1028 H   0  0  0  0  0  0
  -25.0078  -33.9599   25.0344 H   0  0  0  0  0  0
  -22.7419  -31.2954   21.3889 H   0  0  0  0  0  0
  -23.3754  -35.9588   23.3263 H   0  0  0  0  0  0
  -24.3597  -36.8938   22.2068 H   0  0  0  0  0  0
  -23.7231  -37.6443   23.6707 H   0  0  0  0  0  0
  -26.1535  -31.4941   20.6236 H   0  0  0  0  0  0
  -26.8632  -30.7722   22.0342 H   0  0  0  0  0  0
  -28.1288  -28.8350   21.2132 H   0  0  0  0  0  0
  -25.9026  -25.8646   18.9997 H   0  0  0  0  0  0
  -23.9672  -27.3062   18.9916 H   0  0  0  0  0  0
  -23.7978  -30.5791   19.4011 H   0  0  0  0  0  0
  -22.7777  -29.2440   19.8457 H   0  0  0  0  0  0
  -25.1311  -36.1855   25.0807 H   0  0  0  0  0  0
  -20.9995  -28.3289   24.1357 H   0  0  0  0  0  0
  -20.5668  -26.2312   23.3609 H   0  0  0  0  0  0
  -21.6651  -26.7415   22.1205 H   0  0  0  0  0  0
  -19.6926  -25.6276   21.1245 H   0  0  0  0  0  0
  -19.6715  -27.3167   20.6716 H   0  0  0  0  0  0
  -17.4211  -26.6662   21.4007 H   0  0  0  0  0  0
  -18.0352  -26.0066   22.9005 H   0  0  0  0  0  0
  -19.7947  -30.7286   24.2217 H   0  0  0  0  0  0
  -17.5024  -31.6263   24.5155 H   0  0  0  0  0  0
  -15.5360  -30.2966   23.7685 H   0  0  0  0  0  0
  -15.8679  -28.0803   22.7092 H   0  0  0  0  0  0
  -24.5897  -30.7109   25.7786 H   0  0  0  0  0  0
  -24.8946  -32.2919   26.4876 H   0  0  0  0  0  0
  -25.8035  -30.8920   27.0233 H   0  0  0  0  0  0
  -26.3019  -29.6677   24.1337 H   0  0  0  0  0  0
  -27.3990  -29.7279   25.4919 H   0  0  0  0  0  0
  -27.8931  -30.4188   23.9664 H   0  0  0  0  0  0
  -27.2627  -33.3650   26.2063 H   0  0  0  0  0  0
  -28.3891  -32.6886   25.0385 H   0  0  0  0  0  0
  -28.0688  -31.8501   26.5490 H   0  0  0  0  0  0
  -28.2560  -38.0121   24.7541 H   0  0  0  0  0  0
  -28.1118  -36.2642   24.6223 H   0  0  0  0  0  0
  -27.2307  -37.1366   25.8862 H   0  0  0  0  0  0
  -20.9440  -29.8762   21.6816 H   0  0  0  0  0  0
  -26.0142  -38.2807   24.1438 H   0  0  0  0  0  0
  -32.0696  -20.2134   24.4690 H   0  0  0  0  0  0
  -34.5886  -18.4176   21.4558 H   0  0  0  0  0  0
  -30.0597  -19.3227   22.4493 H   0  0  0  0  0  0
  -28.8012  -21.4074   18.2419 H   0  0  0  0  0  0
  -33.8405  -18.3257   25.0231 H   0  0  0  0  0  0
  -34.4699  -17.3901   23.6659 H   0  0  0  0  0  0
  -32.7467  -17.3488   24.0394 H   0  0  0  0  0  0
  -32.9607  -19.9204   16.3390 H   0  0  0  0  0  0
  -34.5537  -19.4546   16.9260 H   0  0  0  0  0  0
  -34.1064  -21.1584   16.8389 H   0  0  0  0  0  0
  -31.0871  -23.3688   18.9609 H   0  0  0  0  0  0
  -30.3484  -24.9563   18.8374 H   0  0  0  0  0  0
  -29.6321  -23.5971   17.9908 H   0  0  0  0  0  0
  -29.5712  -21.3251   23.6392 H   0  0  0  0  0  0
  -29.1901  -22.8486   22.9111 H   0  0  0  0  0  0
  -31.5316  -23.2410   22.3204 H   0  0  0  0  0  0
  -31.5063  -22.7284   23.9770 H   0  0  0  0  0  0
  -35.0819  -19.7320   19.4797 H   0  0  0  0  0  0
  -34.6317  -21.4159   19.4123 H   0  0  0  0  0  0
  -31.2879  -17.6205   20.8304 H   0  0  0  0  0  0
  -30.7335  -17.4607   19.2176 H   0  0  0  0  0  0
  -32.7789  -19.0844   18.6830 H   0  0  0  0  0  0
  -32.3436  -20.7716   18.5959 H   0  0  0  0  0  0
  -27.4145  -24.4781   21.0340 H   0  0  0  0  0  0
  -27.4197  -24.4505   19.3031 H   0  0  0  0  0  0
  -29.8767  -23.9035   20.9894 H   0  0  0  0  0  0
  -28.8775  -15.9913   20.7823 H   0  0  0  0  0  0
  1 25  1  0  0  0
  1 30  2  0  0  0
  1 93  1  0  0  0
  2  3  1  0  0  0
  2 25  1  0  0  0
  2 94  1  0  0  0
  2 95  1  0  0  0
  3  4  1  0  0  0
  3 96  1  0  0  0
  3 97  1  0  0  0
  4  5  1  0  0  0
  4 98  1  0  0  0
  4 99  1  0  0  0
  5  6  1  0  0  0
  5 26  1  0  0  0
  5100  1  0  0  0
  6 25  1  0  0  0
  6101  1  0  0  0
  6102  1  0  0  0
  7  8  2  0  0  0
  7 26  1  0  0  0
  7 29  1  0  0  0
  8  9  1  0  0  0
  8 22  1  0  0  0
  9 10  1  0  0  0
  9 27  2  0  0  0
 10 11  2  0  0  0
 10 15  1  0  0  0
 11 12  1  0  0  0
 11103  1  0  0  0
 12 13  2  0  0  0
 12104  1  0  0  0
 13 14  1  0  0  0
 13 31  1  0  0  0
 14 15  2  0  0  0
 14105  1  0  0  0
 15106  1  0  0  0
 16 17  2  0  0  0
 16 21  1  0  0  0
 16 31  1  0  0  0
 17 18  1  0  0  0
 17107  1  0  0  0
 18 19  2  0  0  0
 18108  1  0  0  0
 19 20  1  0  0  0
 19 24  1  0  0  0
 20 21  2  0  0  0
 20109  1  0  0  0
 21 23  1  0  0  0
 22 28  1  0  0  0
 22 32  2  0  0  0
 26 27  1  0  0  0
 28110  1  0  0  0
 28111  1  0  0  0
 29112  1  0  0  0
 29113  1  0  0  0
 33 34  1  0  0  0
 33 66  1  0  0  0
 33 70  2  0  0  0
 34 36  1  0  0  0
 34 59  1  0  0  0
 34114  1  0  0  0
 35 44  2  0  0  0
 35 45  1  0  0  0
 35 68  1  0  0  0
 36 56  1  0  0  0
 36115  1  0  0  0
 37 39  1  0  0  0
 37 47  1  0  0  0
 37 66  1  0  0  0
 37116  1  0  0  0
 38 43  2  0  0  0
 38 46  1  0  0  0
 38 47  1  0  0  0
 39 64  1  0  0  0
 39 67  2  0  0  0
 40 52  1  0  0  0
 40 53  2  0  0  0
 40 58  1  0  0  0
 41117  1  0  0  0
 41118  1  0  0  0
 41119  1  0  0  0
 41 48  1  0  0  0
 42 43  1  0  0  0
 42 66  1  0  0  0
 42120  1  0  0  0
 42121  1  0  0  0
 43 44  1  0  0  0
 44122  1  0  0  0
 45 46  2  0  0  0
 45123  1  0  0  0
 46124  1  0  0  0
 47125  1  0  0  0
 47126  1  0  0  0
 48 56  1  0  0  0
 48 65  1  0  0  0
 48127  1  0  0  0
 49 50  1  0  0  0
 49 53  1  0  0  0
 49 64  1  0  0  0
 49128  1  0  0  0
 50 51  1  0  0  0
 50129  1  0  0  0
 50130  1  0  0  0
 51 52  1  0  0  0
 51131  1  0  0  0
 51132  1  0  0  0
 52133  1  0  0  0
 52134  1  0  0  0
 53 54  1  0  0  0
 54 55  2  0  0  0
 54135  1  0  0  0
 55 57  1  0  0  0
 55136  1  0  0  0
 56 69  2  0  0  0
 57 58  2  0  0  0
 57137  1  0  0  0
 58138  1  0  0  0
 59 60  1  0  0  0
 59 61  1  0  0  0
 59 62  1  0  0  0
 60139  1  0  0  0
 60140  1  0  0  0
 60141  1  0  0  0
 61142  1  0  0  0
 61143  1  0  0  0
 61144  1  0  0  0
 62145  1  0  0  0
 62146  1  0  0  0
 62147  1  0  0  0
 63 65  1  0  0  0
 63148  1  0  0  0
 63149  1  0  0  0
 63150  1  0  0  0
 64151  1  0  0  0
 65152  1  0  0  0
 68 89  1  0  0  0
 71 75  2  0  0  0
 71 78  1  0  0  0
 71153  1  0  0  0
 72 75  1  0  0  0
 72 79  2  0  0  0
 72154  1  0  0  0
 73 76  2  0  0  0
 73 80  1  0  0  0
 73155  1  0  0  0
 74 77  2  0  0  0
 74 91  1  0  0  0
 74156  1  0  0  0
 75 81  1  0  0  0
 76 77  1  0  0  0
 76 84  1  0  0  0
 77 90  1  0  0  0
 78 85  1  0  0  0
 78 92  2  0  0  0
 79 86  1  0  0  0
 79 92  1  0  0  0
 80 87  1  0  0  0
 80 91  2  0  0  0
 81157  1  0  0  0
 81158  1  0  0  0
 81159  1  0  0  0
 82 88  1  0  0  0
 82160  1  0  0  0
 82161  1  0  0  0
 82162  1  0  0  0
 83163  1  0  0  0
 83164  1  0  0  0
 83165  1  0  0  0
 83 90  1  0  0  0
 84 85  1  0  0  0
 84166  1  0  0  0
 84167  1  0  0  0
 85168  1  0  0  0
 85169  1  0  0  0
 86 88  1  0  0  0
 86170  1  0  0  0
 86171  1  0  0  0
 87 93  1  0  0  0
 87172  1  0  0  0
 87173  1  0  0  0
 88174  1  0  0  0
 88175  1  0  0  0
 89 90  1  0  0  0
 89176  1  0  0  0
 89177  1  0  0  0
 90178  1  0  0  0
 93179  1  0  0  0
M  ISO  4   1 100  68 101  89 101  93 100
M  END
> <chiral flag>
0

> <version>
0

> <s_m_source_file>
/data/baiqing/PycharmProjects/Reinvent-master-3.2/result/LINK_invent/BTK/process_docking_weight1_custom_sum_contain_oxygen_bond_distance_aromatic_linkinvent_7_9_3/rearranged_h_0091.sdf

> <i_m_source_file_index>
13

> <r_mmod_Potential_Energy-OPLS-2005>
-51.088680267334

> <r_mmod_Stretch_Energy-OPLS-2005>
197.734848022461

> <r_mmod_Bend_Energy-OPLS-2005>
239.885589599609

> <r_mmod_Torsional_Energy-OPLS-2005>
220.346176147461

> <r_mmod_Improper_Torsional_Energy-OPLS-2005>
10.8855295181274

> <r_mmod_Van_der_Waal_Energy-OPLS-2005>
139.191467285156

> <r_mmod_Electrostatic_Energy-OPLS-2005>
-776.099304199219

> <r_mmod_Solvation_Energy-OPLS-2005>
-233.348068237305

> <b_mmod_Minimization_Converged-OPLS-2005>
0

> <r_mmod_RMS_Derivative-OPLS-2005>
2.61451530456543

$$$$
13
                    3D
 Structure written by MMmdl.
161169  0  0  1  0            999 V2000
  -30.5944  -14.7102   20.4215 C   0  0  0  0  0  0
  -30.4262  -12.4281   19.4760 C   0  0  0  0  0  0
  -29.5103  -12.4995   18.2365 C   0  0  0  0  0  0
  -28.0400  -12.2970   18.6567 C   0  0  0  0  0  0
  -27.6255  -13.2236   19.8286 C   0  0  2  0  0  0
  -28.6647  -13.1639   20.9697 C   0  0  0  0  0  0
  -25.2422  -13.8175   20.5661 C   0  0  0  0  0  0
  -24.1730  -13.0434   20.9181 C   0  0  0  0  0  0
  -24.6306  -11.6884   20.8723 C   0  0  0  0  0  0
  -23.9004  -10.4283   21.0441 C   0  0  0  0  0  0
  -24.3597   -9.4203   21.9211 C   0  0  0  0  0  0
  -23.6309   -8.2219   22.0748 C   0  0  0  0  0  0
  -22.4295   -8.0228   21.3536 C   0  0  0  0  0  0
  -21.9904   -9.0209   20.4663 C   0  0  0  0  0  0
  -22.7192  -10.2112   20.3093 C   0  0  0  0  0  0
  -21.6829   -6.0709   22.5307 C   0  0  0  0  0  0
  -21.4009   -6.5634   23.8235 C   0  0  0  0  0  0
  -21.3673   -5.6784   24.9198 C   0  0  0  0  0  0
  -21.6037   -4.3039   24.7249 C   0  0  0  0  0  0
  -21.8806   -3.8137   23.4372 C   0  0  0  0  0  0
  -21.9196   -4.6953   22.3431 C   0  0  0  0  0  0
  -22.7761  -13.5214   21.1927 C   0  0  0  0  0  0
  -22.1644   -4.2133   21.1003 F   0  0  0  0  0  0
  -21.5663   -3.4523   25.7765 F   0  0  0  0  0  0
  -29.9744  -13.4885   20.3923 N   0  0  0  0  0  0
  -26.2813  -12.9366   20.3138 N   0  0  0  0  0  0
  -25.9220  -11.6516   20.5677 N   0  0  0  0  0  0
  -22.0467  -12.8226   22.0518 N   0  0  0  0  0  0
  -25.4109  -15.1916   20.4118 N   0  0  0  0  0  0
  -31.7911  -14.8190   20.1552 O   0  0  0  0  0  0
  -21.6635   -6.8856   21.4253 O   0  0  0  0  0  0
  -22.3430  -14.5534   20.6798 O   0  0  0  0  0  0
  -24.6313  -31.8581   23.2066 C   0  0  0  0  0  0
  -25.9200  -32.4723   23.8346 C   0  0  1  0  0  0
  -27.2188  -27.2866   20.1073 C   0  0  0  0  0  0
  -25.6068  -33.8544   24.2258 N   0  0  0  0  0  0
  -23.4224  -30.4959   21.5486 C   0  0  2  0  0  0
  -24.8636  -28.9512   20.1208 C   0  0  0  0  0  0
  -22.7427  -29.4724   22.4873 C   0  0  0  0  0  0
  -18.0304  -28.1395   22.8506 C   0  0  0  0  0  0
  -24.1529  -36.7241   23.2631 C   0  0  0  0  0  0
  -25.9710  -30.7835   21.3847 C   0  0  0  0  0  0
  -26.0426  -29.4122   20.7192 C   0  0  0  0  0  0
  -27.2179  -28.5946   20.7065 C   0  0  0  0  0  0
  -25.9943  -26.8839   19.5229 C   0  0  0  0  0  0
  -24.8428  -27.6864   19.5242 C   0  0  0  0  0  0
  -23.6409  -29.8466   20.1608 C   0  0  0  0  0  0
  -25.4148  -36.3001   24.0291 C   0  0  1  0  0  0
  -20.5899  -28.3858   23.1263 C   0  0  2  0  0  0
  -20.6981  -26.9625   22.5325 C   0  0  0  0  0  0
  -19.5878  -26.6415   21.5259 C   0  0  0  0  0  0
  -18.2068  -26.7902   22.1733 C   0  0  0  0  0  0
  -19.1534  -28.8930   23.2838 C   0  0  0  0  0  0
  -18.9416  -30.1538   23.8797 C   0  0  0  0  0  0
  -17.6410  -30.6620   24.0508 C   0  0  0  0  0  0
  -25.9110  -34.9398   23.5026 C   0  0  0  0  0  0
  -16.5314  -29.9095   23.6319 C   0  0  0  0  0  0
  -16.7267  -28.6523   23.0315 C   0  0  0  0  0  0
  -26.4619  -31.6532   25.0722 C   0  0  0  0  0  0
  -25.3866  -31.3718   26.1438 C   0  0  0  0  0  0
  -27.0480  -30.2937   24.6219 C   0  0  0  0  0  0
  -27.6137  -32.4251   25.7535 C   0  0  0  0  0  0
  -27.5564  -37.1777   24.8460 C   0  0  0  0  0  0
  -21.4131  -29.3250   22.3627 N   0  0  0  0  0  0
  -26.4284  -37.3720   23.9407 N   0  0  0  0  0  0
  -24.6937  -31.0600   22.1025 N   0  0  0  0  0  0
  -23.4106  -28.8173   23.2923 O   0  0  0  0  0  0
  -28.3360  -26.4123   20.1196 O   0  0  0  0  0  0
  -26.5613  -34.8865   22.4561 O   0  0  0  0  0  0
  -23.5482  -32.1381   23.7388 O   0  0  0  0  0  0
  -29.1222  -21.1332   19.9393 C   0  0  0  0  0  0
  -28.7368  -22.3392   21.9893 C   0  0  0  0  0  0
  -28.9965  -22.4169   20.6160 C   0  0  0  0  0  0
  -29.0465  -19.8666   20.6684 C   0  0  0  0  0  0
  -28.7695  -20.0037   22.0551 C   0  0  0  0  0  0
  -28.6097  -18.8244   23.0039 C   0  0  0  0  0  0
  -29.1509  -18.4217   18.5077 C   0  0  0  0  0  0
  -28.1718  -25.0109   18.1251 C   0  0  0  0  0  0
  -29.3196  -23.8832   20.0766 C   0  0  0  0  0  0
  -30.1707  -17.2856   20.5847 C   0  0  0  0  0  0
  -29.1074  -18.3879   20.0458 C   0  0  1  0  0  0
  -28.2012  -24.9794   19.6716 C   0  0  1  0  0  0
  -28.6172  -21.1910   22.6749 N   0  0  0  0  0  0
  -29.7866  -15.8205   20.5337 N   0  0  0  0  0  0
  -31.4715  -12.5518   19.1939 H   0  0  0  0  0  0
  -30.3519  -11.4525   19.9610 H   0  0  0  0  0  0
  -29.8110  -11.7434   17.5132 H   0  0  0  0  0  0
  -29.6228  -13.4660   17.7395 H   0  0  0  0  0  0
  -27.9367  -11.2563   18.9657 H   0  0  0  0  0  0
  -27.3708  -12.4249   17.8061 H   0  0  0  0  0  0
  -27.6102  -14.2352   19.4187 H   0  0  0  0  0  0
  -28.6831  -12.1704   21.4190 H   0  0  0  0  0  0
  -28.3997  -13.8540   21.7714 H   0  0  0  0  0  0
  -25.2743   -9.5656   22.4782 H   0  0  0  0  0  0
  -24.0012   -7.4594   22.7428 H   0  0  0  0  0  0
  -21.0850   -8.8711   19.8951 H   0  0  0  0  0  0
  -22.3653  -10.9646   19.6205 H   0  0  0  0  0  0
  -21.1971   -7.6143   23.9746 H   0  0  0  0  0  0
  -21.1525   -6.0512   25.9105 H   0  0  0  0  0  0
  -22.0577   -2.7597   23.2874 H   0  0  0  0  0  0
  -22.4061  -11.9821   22.4786 H   0  0  0  0  0  0
  -21.1113  -13.1234   22.2829 H   0  0  0  0  0  0
  -24.6331  -15.8336   20.5250 H   0  0  0  0  0  0
  -26.2578  -15.6404   20.0906 H   0  0  0  0  0  0
  -26.7239  -32.5379   23.1075 H   0  0  0  0  0  0
  -25.0425  -33.9761   25.0514 H   0  0  0  0  0  0
  -22.7270  -31.3265   21.4139 H   0  0  0  0  0  0
  -23.3763  -35.9604   23.3281 H   0  0  0  0  0  0
  -24.3614  -36.8865   22.2047 H   0  0  0  0  0  0
  -23.7320  -37.6453   23.6675 H   0  0  0  0  0  0
  -26.1205  -31.5564   20.6284 H   0  0  0  0  0  0
  -26.8432  -30.8145   22.0274 H   0  0  0  0  0  0
  -28.1131  -28.9549   21.1930 H   0  0  0  0  0  0
  -25.8680  -25.9158   19.0698 H   0  0  0  0  0  0
  -23.9330  -27.3105   19.0796 H   0  0  0  0  0  0
  -23.7903  -30.6391   19.4247 H   0  0  0  0  0  0
  -22.7488  -29.3119   19.8321 H   0  0  0  0  0  0
  -25.1330  -36.1803   25.0772 H   0  0  0  0  0  0
  -20.9953  -28.3608   24.1416 H   0  0  0  0  0  0
  -20.6256  -26.2425   23.3492 H   0  0  0  0  0  0
  -21.6814  -26.7909   22.0904 H   0  0  0  0  0  0
  -19.6776  -27.3138   20.6700 H   0  0  0  0  0  0
  -19.7121  -25.6294   21.1430 H   0  0  0  0  0  0
  -17.4289  -26.6446   21.4210 H   0  0  0  0  0  0
  -18.0675  -26.0082   22.9190 H   0  0  0  0  0  0
  -19.7871  -30.7410   24.2133 H   0  0  0  0  0  0
  -17.4936  -31.6327   24.5044 H   0  0  0  0  0  0
  -15.5305  -30.3011   23.7588 H   0  0  0  0  0  0
  -15.8670  -28.0854   22.7028 H   0  0  0  0  0  0
  -24.6025  -30.7081   25.7803 H   0  0  0  0  0  0
  -24.9156  -32.2958   26.4815 H   0  0  0  0  0  0
  -25.8218  -30.8930   27.0218 H   0  0  0  0  0  0
  -26.3094  -29.6617   24.1294 H   0  0  0  0  0  0
  -27.4244  -29.7235   25.4726 H   0  0  0  0  0  0
  -27.8927  -30.4189   23.9418 H   0  0  0  0  0  0
  -27.2712  -33.3528   26.2122 H   0  0  0  0  0  0
  -28.4021  -32.6813   25.0448 H   0  0  0  0  0  0
  -28.0750  -31.8371   26.5481 H   0  0  0  0  0  0
  -28.2543  -38.0101   24.7435 H   0  0  0  0  0  0
  -28.1065  -36.2598   24.6326 H   0  0  0  0  0  0
  -27.2269  -37.1449   25.8861 H   0  0  0  0  0  0
  -20.9253  -29.8911   21.6821 H   0  0  0  0  0  0
  -26.0094  -38.2759   24.1441 H   0  0  0  0  0  0
  -29.2779  -21.1290   18.8679 H   0  0  0  0  0  0
  -28.6650  -23.2368   22.5867 H   0  0  0  0  0  0
  -29.5893  -18.4282   23.2648 H   0  0  0  0  0  0
  -27.9948  -18.0253   22.5933 H   0  0  0  0  0  0
  -28.1409  -19.1320   23.9385 H   0  0  0  0  0  0
  -28.3323  -19.0023   18.0814 H   0  0  0  0  0  0
  -29.0820  -17.4119   18.0914 H   0  0  0  0  0  0
  -30.0881  -18.8645   18.1657 H   0  0  0  0  0  0
  -27.5084  -25.7635   17.7047 H   0  0  0  0  0  0
  -27.8701  -24.0396   17.7282 H   0  0  0  0  0  0
  -29.1596  -25.2402   17.7221 H   0  0  0  0  0  0
  -30.0668  -23.7942   19.2865 H   0  0  0  0  0  0
  -29.8850  -24.3454   20.8880 H   0  0  0  0  0  0
  -30.4202  -17.4445   21.6253 H   0  0  0  0  0  0
  -31.1245  -17.4134   20.0696 H   0  0  0  0  0  0
  -28.1310  -17.9674   20.2995 H   0  0  0  0  0  0
  -27.2598  -24.6088   20.0685 H   0  0  0  0  0  0
  -28.8071  -15.6196   20.6642 H   0  0  0  0  0  0
  1 25  1  0  0  0
  1 30  2  0  0  0
  1 84  1  0  0  0
  2  3  1  0  0  0
  2 25  1  0  0  0
  2 85  1  0  0  0
  2 86  1  0  0  0
  3  4  1  0  0  0
  3 87  1  0  0  0
  3 88  1  0  0  0
  4  5  1  0  0  0
  4 89  1  0  0  0
  4 90  1  0  0  0
  5  6  1  0  0  0
  5 26  1  0  0  0
  5 91  1  0  0  0
  6 25  1  0  0  0
  6 92  1  0  0  0
  6 93  1  0  0  0
  7  8  2  0  0  0
  7 26  1  0  0  0
  7 29  1  0  0  0
  8  9  1  0  0  0
  8 22  1  0  0  0
  9 10  1  0  0  0
  9 27  2  0  0  0
 10 11  2  0  0  0
 10 15  1  0  0  0
 11 12  1  0  0  0
 11 94  1  0  0  0
 12 13  2  0  0  0
 12 95  1  0  0  0
 13 14  1  0  0  0
 13 31  1  0  0  0
 14 15  2  0  0  0
 14 96  1  0  0  0
 15 97  1  0  0  0
 16 17  2  0  0  0
 16 21  1  0  0  0
 16 31  1  0  0  0
 17 18  1  0  0  0
 17 98  1  0  0  0
 18 19  2  0  0  0
 18 99  1  0  0  0
 19 20  1  0  0  0
 19 24  1  0  0  0
 20 21  2  0  0  0
 20100  1  0  0  0
 21 23  1  0  0  0
 22 28  1  0  0  0
 22 32  2  0  0  0
 26 27  1  0  0  0
 28101  1  0  0  0
 28102  1  0  0  0
 29103  1  0  0  0
 29104  1  0  0  0
 33 34  1  0  0  0
 33 66  1  0  0  0
 33 70  2  0  0  0
 34 36  1  0  0  0
 34 59  1  0  0  0
 34105  1  0  0  0
 35 44  2  0  0  0
 35 45  1  0  0  0
 35 68  1  0  0  0
 36 56  1  0  0  0
 36106  1  0  0  0
 37 39  1  0  0  0
 37 47  1  0  0  0
 37 66  1  0  0  0
 37107  1  0  0  0
 38 43  2  0  0  0
 38 46  1  0  0  0
 38 47  1  0  0  0
 39 64  1  0  0  0
 39 67  2  0  0  0
 40 52  1  0  0  0
 40 53  2  0  0  0
 40 58  1  0  0  0
 41108  1  0  0  0
 41109  1  0  0  0
 41110  1  0  0  0
 41 48  1  0  0  0
 42 43  1  0  0  0
 42 66  1  0  0  0
 42111  1  0  0  0
 42112  1  0  0  0
 43 44  1  0  0  0
 44113  1  0  0  0
 45 46  2  0  0  0
 45114  1  0  0  0
 46115  1  0  0  0
 47116  1  0  0  0
 47117  1  0  0  0
 48 56  1  0  0  0
 48 65  1  0  0  0
 48118  1  0  0  0
 49 50  1  0  0  0
 49 53  1  0  0  0
 49 64  1  0  0  0
 49119  1  0  0  0
 50 51  1  0  0  0
 50120  1  0  0  0
 50121  1  0  0  0
 51 52  1  0  0  0
 51122  1  0  0  0
 51123  1  0  0  0
 52124  1  0  0  0
 52125  1  0  0  0
 53 54  1  0  0  0
 54 55  2  0  0  0
 54126  1  0  0  0
 55 57  1  0  0  0
 55127  1  0  0  0
 56 69  2  0  0  0
 57 58  2  0  0  0
 57128  1  0  0  0
 58129  1  0  0  0
 59 60  1  0  0  0
 59 61  1  0  0  0
 59 62  1  0  0  0
 60130  1  0  0  0
 60131  1  0  0  0
 60132  1  0  0  0
 61133  1  0  0  0
 61134  1  0  0  0
 61135  1  0  0  0
 62136  1  0  0  0
 62137  1  0  0  0
 62138  1  0  0  0
 63 65  1  0  0  0
 63139  1  0  0  0
 63140  1  0  0  0
 63141  1  0  0  0
 64142  1  0  0  0
 65143  1  0  0  0
 68 82  1  0  0  0
 71 73  2  0  0  0
 71 74  1  0  0  0
 71144  1  0  0  0
 72 73  1  0  0  0
 72 83  2  0  0  0
 72145  1  0  0  0
 73 79  1  0  0  0
 74 75  2  0  0  0
 74 81  1  0  0  0
 75 76  1  0  0  0
 75 83  1  0  0  0
 76146  1  0  0  0
 76147  1  0  0  0
 76148  1  0  0  0
 77149  1  0  0  0
 77150  1  0  0  0
 77151  1  0  0  0
 77 81  1  0  0  0
 78152  1  0  0  0
 78153  1  0  0  0
 78154  1  0  0  0
 78 82  1  0  0  0
 79 82  1  0  0  0
 79155  1  0  0  0
 79156  1  0  0  0
 80 81  1  0  0  0
 80 84  1  0  0  0
 80157  1  0  0  0
 80158  1  0  0  0
 81159  1  0  0  0
 82160  1  0  0  0
 84161  1  0  0  0
M  ISO  4   1 100  68 101  82 101  84 100
M  END
> <chiral flag>
0

> <version>
0

> <s_m_source_file>
/data/baiqing/PycharmProjects/Reinvent-master-3.2/result/LINK_invent/BTK/process_docking_weight1_custom_sum_contain_oxygen_bond_distance_aromatic_linkinvent_7_9_3/rearranged_h_0091.sdf

> <i_m_source_file_index>
14

> <r_mmod_Potential_Energy-OPLS-2005>
-55.4462814331055

> <r_mmod_Stretch_Energy-OPLS-2005>
119.770240783691

> <r_mmod_Bend_Energy-OPLS-2005>
177.288146972656

> <r_mmod_Torsional_Energy-OPLS-2005>
220.770217895508

> <r_mmod_Improper_Torsional_Energy-OPLS-2005>
6.33177328109741

> <r_mmod_Van_der_Waal_Energy-OPLS-2005>
154.943939208984

> <r_mmod_Electrostatic_Energy-OPLS-2005>
-588.148864746094

> <r_mmod_Solvation_Energy-OPLS-2005>
-222.169860839844

> <b_mmod_Minimization_Converged-OPLS-2005>
0

> <r_mmod_RMS_Derivative-OPLS-2005>
7.40524244308472

$$$$
14
                    3D
 Structure written by MMmdl.
170178  0  0  1  0            999 V2000
  -30.5979  -14.7312   20.4679 C   0  0  0  0  0  0
  -30.4479  -12.4559   19.4387 C   0  0  0  0  0  0
  -29.5031  -12.5043   18.2169 C   0  0  0  0  0  0
  -28.0314  -12.3256   18.6418 C   0  0  0  0  0  0
  -27.6454  -13.2209   19.8494 C   0  0  2  0  0  0
  -28.7010  -13.1315   20.9738 C   0  0  0  0  0  0
  -25.2549  -13.8178   20.5683 C   0  0  0  0  0  0
  -24.1823  -13.0438   20.9197 C   0  0  0  0  0  0
  -24.6402  -11.6917   20.8740 C   0  0  0  0  0  0
  -23.9054  -10.4299   21.0407 C   0  0  0  0  0  0
  -24.3604   -9.4215   21.9197 C   0  0  0  0  0  0
  -23.6284   -8.2246   22.0758 C   0  0  0  0  0  0
  -22.4266   -8.0271   21.3555 C   0  0  0  0  0  0
  -21.9896   -9.0240   20.4659 C   0  0  0  0  0  0
  -22.7209  -10.2128   20.3068 C   0  0  0  0  0  0
  -21.6848   -6.0717   22.5272 C   0  0  0  0  0  0
  -21.4011   -6.5637   23.8193 C   0  0  0  0  0  0
  -21.3660   -5.6798   24.9174 C   0  0  0  0  0  0
  -21.6039   -4.3060   24.7229 C   0  0  0  0  0  0
  -21.8822   -3.8136   23.4363 C   0  0  0  0  0  0
  -21.9198   -4.6949   22.3405 C   0  0  0  0  0  0
  -22.7851  -13.5239   21.1843 C   0  0  0  0  0  0
  -22.1667   -4.2139   21.0986 F   0  0  0  0  0  0
  -21.5626   -3.4548   25.7749 F   0  0  0  0  0  0
  -29.9952  -13.4983   20.3845 N   0  0  0  0  0  0
  -26.2973  -12.9370   20.3306 N   0  0  0  0  0  0
  -25.9337  -11.6534   20.5767 N   0  0  0  0  0  0
  -22.0490  -12.8236   22.0407 N   0  0  0  0  0  0
  -25.4246  -15.1893   20.4060 N   0  0  0  0  0  0
  -31.7895  -14.8723   20.1935 O   0  0  0  0  0  0
  -21.6643   -6.8868   21.4231 O   0  0  0  0  0  0
  -22.3547  -14.5540   20.6676 O   0  0  0  0  0  0
  -24.6322  -31.8566   23.2052 C   0  0  0  0  0  0
  -25.9143  -32.4754   23.8378 C   0  0  1  0  0  0
  -27.2216  -27.2735   20.1183 C   0  0  0  0  0  0
  -25.5932  -33.8553   24.2259 N   0  0  0  0  0  0
  -23.4306  -30.4828   21.5477 C   0  0  2  0  0  0
  -24.8780  -28.9384   20.1183 C   0  0  0  0  0  0
  -22.7525  -29.4599   22.4898 C   0  0  0  0  0  0
  -18.0280  -28.1394   22.8417 C   0  0  0  0  0  0
  -24.1490  -36.7275   23.2656 C   0  0  0  0  0  0
  -25.9780  -30.7764   21.3904 C   0  0  0  0  0  0
  -26.0509  -29.4032   20.7251 C   0  0  0  0  0  0
  -27.2212  -28.5796   20.7171 C   0  0  0  0  0  0
  -26.0211  -26.8863   19.4749 C   0  0  0  0  0  0
  -24.8656  -27.6856   19.4957 C   0  0  0  0  0  0
  -23.6536  -29.8279   20.1619 C   0  0  0  0  0  0
  -25.4120  -36.3057   24.0346 C   0  0  1  0  0  0
  -20.5898  -28.3695   23.1235 C   0  0  2  0  0  0
  -20.6765  -26.9380   22.5430 C   0  0  0  0  0  0
  -19.5739  -26.6352   21.5221 C   0  0  0  0  0  0
  -18.1899  -26.7909   22.1592 C   0  0  0  0  0  0
  -19.1544  -28.8838   23.2795 C   0  0  0  0  0  0
  -18.9474  -30.1418   23.8828 C   0  0  0  0  0  0
  -17.6487  -30.6566   24.0524 C   0  0  0  0  0  0
  -25.9073  -34.9434   23.5101 C   0  0  0  0  0  0
  -16.5358  -29.9094   23.6321 C   0  0  0  0  0  0
  -16.7272  -28.6537   23.0286 C   0  0  0  0  0  0
  -26.4483  -31.6603   25.0779 C   0  0  0  0  0  0
  -25.3679  -31.3783   26.1484 C   0  0  0  0  0  0
  -27.0382  -30.3013   24.6353 C   0  0  0  0  0  0
  -27.6000  -32.4403   25.7523 C   0  0  0  0  0  0
  -27.5578  -37.1784   24.8463 C   0  0  0  0  0  0
  -21.4244  -29.3031   22.3625 N   0  0  0  0  0  0
  -26.4271  -37.3773   23.9432 N   0  0  0  0  0  0
  -24.6983  -31.0555   22.1034 N   0  0  0  0  0  0
  -23.4199  -28.8088   23.2941 O   0  0  0  0  0  0
  -28.3327  -26.3963   20.1936 O   0  0  0  0  0  0
  -26.5652  -34.8910   22.4680 O   0  0  0  0  0  0
  -23.5461  -32.1375   23.7357 O   0  0  0  0  0  0
  -29.3764  -21.1570   20.3216 C   0  0  0  0  0  0
  -28.4582  -22.2432   20.6183 C   0  0  0  0  0  0
  -27.1279  -21.8181   20.9365 C   0  0  0  0  0  0
  -28.9531  -19.7727   20.3114 C   0  0  0  0  0  0
  -26.7630  -20.4585   20.7110 C   0  0  0  0  0  0
  -25.3420  -19.9113   20.6675 C   0  0  0  0  0  0
  -26.0138  -20.6433   23.9989 C   0  0  0  0  0  0
  -26.4713  -22.5158   25.5602 C   0  0  0  0  0  0
  -28.9009  -23.7853   20.7194 C   0  0  0  0  0  0
  -26.1376  -22.7821   21.6087 C   0  0  0  0  0  0
  -29.7883  -18.4763   19.9416 C   0  0  0  0  0  0
  -26.4839  -23.0474   23.0980 C   0  0  0  0  0  0
  -29.9987  -17.2914   21.0213 C   0  0  0  0  0  0
  -28.2492  -24.9436   19.7999 C   0  0  0  0  0  0
  -25.8551  -22.1578   24.1993 C   0  0  0  0  0  0
  -27.6538  -19.4894   20.4485 N   0  0  0  0  0  0
  -29.7680  -15.8168   20.6815 N   0  0  0  0  0  0
  -31.4820  -12.6078   19.1205 H   0  0  0  0  0  0
  -30.4173  -11.4748   19.9155 H   0  0  0  0  0  0
  -29.7778  -11.7354   17.4945 H   0  0  0  0  0  0
  -29.6164  -13.4609   17.7031 H   0  0  0  0  0  0
  -27.8846  -11.2751   18.8992 H   0  0  0  0  0  0
  -27.3652  -12.5250   17.8019 H   0  0  0  0  0  0
  -27.6447  -14.2444   19.4756 H   0  0  0  0  0  0
  -28.7490  -12.1215   21.3842 H   0  0  0  0  0  0
  -28.4477  -13.7854   21.8098 H   0  0  0  0  0  0
  -25.2745   -9.5696   22.4788 H   0  0  0  0  0  0
  -23.9977   -7.4650   22.7494 H   0  0  0  0  0  0
  -21.0818   -8.8755   19.8990 H   0  0  0  0  0  0
  -22.3639  -10.9669   19.6187 H   0  0  0  0  0  0
  -21.1993   -7.6146   23.9691 H   0  0  0  0  0  0
  -21.1479   -6.0542   25.9072 H   0  0  0  0  0  0
  -22.0601   -2.7602   23.2868 H   0  0  0  0  0  0
  -22.4075  -11.9872   22.4778 H   0  0  0  0  0  0
  -21.1129  -13.1293   22.2656 H   0  0  0  0  0  0
  -24.6531  -15.8388   20.5084 H   0  0  0  0  0  0
  -26.2690  -15.6317   20.0661 H   0  0  0  0  0  0
  -26.7221  -32.5396   23.1136 H   0  0  0  0  0  0
  -24.9920  -33.9669   25.0296 H   0  0  0  0  0  0
  -22.7210  -31.3010   21.4031 H   0  0  0  0  0  0
  -23.3747  -35.9609   23.3310 H   0  0  0  0  0  0
  -24.3551  -36.8924   22.2064 H   0  0  0  0  0  0
  -23.7244  -37.6479   23.6691 H   0  0  0  0  0  0
  -26.1282  -31.5561   20.6404 H   0  0  0  0  0  0
  -26.8476  -30.8119   22.0351 H   0  0  0  0  0  0
  -28.1205  -28.9292   21.2063 H   0  0  0  0  0  0
  -25.9115  -25.9483   18.9597 H   0  0  0  0  0  0
  -23.9601  -27.3228   19.0293 H   0  0  0  0  0  0
  -23.7919  -30.6104   19.4141 H   0  0  0  0  0  0
  -22.7725  -29.2707   19.8434 H   0  0  0  0  0  0
  -25.1286  -36.1915   25.0840 H   0  0  0  0  0  0
  -20.9887  -28.3320   24.1400 H   0  0  0  0  0  0
  -20.5671  -26.2280   23.3655 H   0  0  0  0  0  0
  -21.6619  -26.7404   22.1175 H   0  0  0  0  0  0
  -19.6900  -25.6274   21.1227 H   0  0  0  0  0  0
  -19.6706  -27.3170   20.6751 H   0  0  0  0  0  0
  -17.4166  -26.6610   21.4007 H   0  0  0  0  0  0
  -18.0257  -26.0116   22.9046 H   0  0  0  0  0  0
  -19.7984  -30.7181   24.2184 H   0  0  0  0  0  0
  -17.5092  -31.6263   24.5122 H   0  0  0  0  0  0
  -15.5357  -30.2943   23.7757 H   0  0  0  0  0  0
  -15.8662  -28.0867   22.6987 H   0  0  0  0  0  0
  -24.5824  -30.7178   25.7789 H   0  0  0  0  0  0
  -24.8867  -32.2968   26.4859 H   0  0  0  0  0  0
  -25.7929  -30.8960   27.0293 H   0  0  0  0  0  0
  -26.3030  -29.6682   24.1349 H   0  0  0  0  0  0
  -27.4002  -29.7355   25.4942 H   0  0  0  0  0  0
  -27.8942  -30.4232   23.9690 H   0  0  0  0  0  0
  -27.2566  -33.3731   26.2029 H   0  0  0  0  0  0
  -28.3812  -32.6964   25.0338 H   0  0  0  0  0  0
  -28.0697  -31.8613   26.5487 H   0  0  0  0  0  0
  -28.2551  -38.0102   24.7494 H   0  0  0  0  0  0
  -28.1097  -36.2619   24.6282 H   0  0  0  0  0  0
  -27.2282  -37.1429   25.8856 H   0  0  0  0  0  0
  -20.9442  -29.8853   21.6918 H   0  0  0  0  0  0
  -26.0163  -38.2852   24.1444 H   0  0  0  0  0  0
  -30.4119  -21.3854   20.1096 H   0  0  0  0  0  0
  -24.5604  -20.5734   21.0216 H   0  0  0  0  0  0
  -25.2724  -18.9881   21.2465 H   0  0  0  0  0  0
  -25.0997  -19.6467   19.6363 H   0  0  0  0  0  0
  -25.7091  -20.1038   24.8960 H   0  0  0  0  0  0
  -27.0451  -20.3656   23.7733 H   0  0  0  0  0  0
  -25.3750  -20.2760   23.2040 H   0  0  0  0  0  0
  -25.9777  -21.9752   26.3710 H   0  0  0  0  0  0
  -26.3946  -23.5818   25.7802 H   0  0  0  0  0  0
  -27.5285  -22.2405   25.5851 H   0  0  0  0  0  0
  -29.9795  -23.8235   20.5674 H   0  0  0  0  0  0
  -28.7639  -24.0959   21.7534 H   0  0  0  0  0  0
  -25.0959  -22.4957   21.4942 H   0  0  0  0  0  0
  -26.1734  -23.7345   21.0962 H   0  0  0  0  0  0
  -30.7600  -18.8116   19.5786 H   0  0  0  0  0  0
  -29.2992  -18.0502   19.0671 H   0  0  0  0  0  0
  -26.1611  -24.0698   23.3053 H   0  0  0  0  0  0
  -27.5641  -23.0708   23.2301 H   0  0  0  0  0  0
  -29.2954  -17.4929   21.8309 H   0  0  0  0  0  0
  -30.9754  -17.4128   21.4894 H   0  0  0  0  0  0
  -27.2362  -24.6305   19.6017 H   0  0  0  0  0  0
  -28.7192  -24.8789   18.8180 H   0  0  0  0  0  0
  -24.7868  -22.3764   24.2444 H   0  0  0  0  0  0
  -28.8080  -15.5329   20.7947 H   0  0  0  0  0  0
  1 25  1  0  0  0
  1 30  2  0  0  0
  1 87  1  0  0  0
  2  3  1  0  0  0
  2 25  1  0  0  0
  2 88  1  0  0  0
  2 89  1  0  0  0
  3  4  1  0  0  0
  3 90  1  0  0  0
  3 91  1  0  0  0
  4  5  1  0  0  0
  4 92  1  0  0  0
  4 93  1  0  0  0
  5  6  1  0  0  0
  5 26  1  0  0  0
  5 94  1  0  0  0
  6 25  1  0  0  0
  6 95  1  0  0  0
  6 96  1  0  0  0
  7  8  2  0  0  0
  7 26  1  0  0  0
  7 29  1  0  0  0
  8  9  1  0  0  0
  8 22  1  0  0  0
  9 10  1  0  0  0
  9 27  2  0  0  0
 10 11  2  0  0  0
 10 15  1  0  0  0
 11 12  1  0  0  0
 11 97  1  0  0  0
 12 13  2  0  0  0
 12 98  1  0  0  0
 13 14  1  0  0  0
 13 31  1  0  0  0
 14 15  2  0  0  0
 14 99  1  0  0  0
 15100  1  0  0  0
 16 17  2  0  0  0
 16 21  1  0  0  0
 16 31  1  0  0  0
 17 18  1  0  0  0
 17101  1  0  0  0
 18 19  2  0  0  0
 18102  1  0  0  0
 19 20  1  0  0  0
 19 24  1  0  0  0
 20 21  2  0  0  0
 20103  1  0  0  0
 21 23  1  0  0  0
 22 28  1  0  0  0
 22 32  2  0  0  0
 26 27  1  0  0  0
 28104  1  0  0  0
 28105  1  0  0  0
 29106  1  0  0  0
 29107  1  0  0  0
 33 34  1  0  0  0
 33 66  1  0  0  0
 33 70  2  0  0  0
 34 36  1  0  0  0
 34 59  1  0  0  0
 34108  1  0  0  0
 35 44  2  0  0  0
 35 45  1  0  0  0
 35 68  1  0  0  0
 36 56  1  0  0  0
 36109  1  0  0  0
 37 39  1  0  0  0
 37 47  1  0  0  0
 37 66  1  0  0  0
 37110  1  0  0  0
 38 43  2  0  0  0
 38 46  1  0  0  0
 38 47  1  0  0  0
 39 64  1  0  0  0
 39 67  2  0  0  0
 40 52  1  0  0  0
 40 53  2  0  0  0
 40 58  1  0  0  0
 41111  1  0  0  0
 41112  1  0  0  0
 41113  1  0  0  0
 41 48  1  0  0  0
 42 43  1  0  0  0
 42 66  1  0  0  0
 42114  1  0  0  0
 42115  1  0  0  0
 43 44  1  0  0  0
 44116  1  0  0  0
 45 46  2  0  0  0
 45117  1  0  0  0
 46118  1  0  0  0
 47119  1  0  0  0
 47120  1  0  0  0
 48 56  1  0  0  0
 48 65  1  0  0  0
 48121  1  0  0  0
 49 50  1  0  0  0
 49 53  1  0  0  0
 49 64  1  0  0  0
 49122  1  0  0  0
 50 51  1  0  0  0
 50123  1  0  0  0
 50124  1  0  0  0
 51 52  1  0  0  0
 51125  1  0  0  0
 51126  1  0  0  0
 52127  1  0  0  0
 52128  1  0  0  0
 53 54  1  0  0  0
 54 55  2  0  0  0
 54129  1  0  0  0
 55 57  1  0  0  0
 55130  1  0  0  0
 56 69  2  0  0  0
 57 58  2  0  0  0
 57131  1  0  0  0
 58132  1  0  0  0
 59 60  1  0  0  0
 59 61  1  0  0  0
 59 62  1  0  0  0
 60133  1  0  0  0
 60134  1  0  0  0
 60135  1  0  0  0
 61136  1  0  0  0
 61137  1  0  0  0
 61138  1  0  0  0
 62139  1  0  0  0
 62140  1  0  0  0
 62141  1  0  0  0
 63 65  1  0  0  0
 63142  1  0  0  0
 63143  1  0  0  0
 63144  1  0  0  0
 64145  1  0  0  0
 65146  1  0  0  0
 68 84  1  0  0  0
 71 72  2  0  0  0
 71 74  1  0  0  0
 71147  1  0  0  0
 72 73  1  0  0  0
 72 79  1  0  0  0
 73 75  2  0  0  0
 73 80  1  0  0  0
 74 81  1  0  0  0
 74 86  2  0  0  0
 75 76  1  0  0  0
 75 86  1  0  0  0
 76148  1  0  0  0
 76149  1  0  0  0
 76150  1  0  0  0
 77151  1  0  0  0
 77152  1  0  0  0
 77153  1  0  0  0
 77 85  1  0  0  0
 78 85  1  0  0  0
 78154  1  0  0  0
 78155  1  0  0  0
 78156  1  0  0  0
 79 84  1  0  0  0
 79157  1  0  0  0
 79158  1  0  0  0
 80 82  1  0  0  0
 80159  1  0  0  0
 80160  1  0  0  0
 81 83  1  0  0  0
 81161  1  0  0  0
 81162  1  0  0  0
 82 85  1  0  0  0
 82163  1  0  0  0
 82164  1  0  0  0
 83 87  1  0  0  0
 83165  1  0  0  0
 83166  1  0  0  0
 84167  1  0  0  0
 84168  1  0  0  0
 85169  1  0  0  0
 87170  1  0  0  0
M  ISO  4   1 100  68 101  84 101  87 100
M  END
> <chiral flag>
0

> <version>
0

> <s_m_source_file>
/data/baiqing/PycharmProjects/Reinvent-master-3.2/result/LINK_invent/BTK/process_docking_weight1_custom_sum_contain_oxygen_bond_distance_aromatic_linkinvent_7_9_3/rearranged_h_0091.sdf

> <i_m_source_file_index>
15

> <r_mmod_Potential_Energy-OPLS-2005>
90.6452407836914

> <r_mmod_Stretch_Energy-OPLS-2005>
121.914009094238

> <r_mmod_Bend_Energy-OPLS-2005>
198.665878295898

> <r_mmod_Torsional_Energy-OPLS-2005>
242.320831298828

> <r_mmod_Improper_Torsional_Energy-OPLS-2005>
5.78998231887817

> <r_mmod_Van_der_Waal_Energy-OPLS-2005>
147.290832519531

> <r_mmod_Electrostatic_Energy-OPLS-2005>
-495.356414794922

> <r_mmod_Solvation_Energy-OPLS-2005>
-210.547103881836

> <b_mmod_Minimization_Converged-OPLS-2005>
0

> <r_mmod_RMS_Derivative-OPLS-2005>
5.08656311035156

$$$$
15
                    3D
 Structure written by MMmdl.
175183  0  0  1  0            999 V2000
  -30.6539  -14.5622   20.4981 C   0  0  0  0  0  0
  -30.4185  -12.3396   19.4660 C   0  0  0  0  0  0
  -29.5015  -12.4871   18.2305 C   0  0  0  0  0  0
  -28.0206  -12.3439   18.6344 C   0  0  0  0  0  0
  -27.6458  -13.2054   19.8692 C   0  0  2  0  0  0
  -28.6838  -13.0736   21.0060 C   0  0  0  0  0  0
  -25.2592  -13.8116   20.5824 C   0  0  0  0  0  0
  -24.1825  -13.0400   20.9190 C   0  0  0  0  0  0
  -24.6359  -11.6846   20.8713 C   0  0  0  0  0  0
  -23.9016  -10.4251   21.0368 C   0  0  0  0  0  0
  -24.3561   -9.4171   21.9167 C   0  0  0  0  0  0
  -23.6245   -8.2216   22.0734 C   0  0  0  0  0  0
  -22.4236   -8.0234   21.3524 C   0  0  0  0  0  0
  -21.9854   -9.0205   20.4648 C   0  0  0  0  0  0
  -22.7174  -10.2090   20.3030 C   0  0  0  0  0  0
  -21.6837   -6.0700   22.5276 C   0  0  0  0  0  0
  -21.4012   -6.5620   23.8202 C   0  0  0  0  0  0
  -21.3664   -5.6777   24.9172 C   0  0  0  0  0  0
  -21.6035   -4.3037   24.7234 C   0  0  0  0  0  0
  -21.8823   -3.8126   23.4358 C   0  0  0  0  0  0
  -21.9184   -4.6934   22.3407 C   0  0  0  0  0  0
  -22.7869  -13.5222   21.1855 C   0  0  0  0  0  0
  -22.1668   -4.2115   21.0991 F   0  0  0  0  0  0
  -21.5622   -3.4514   25.7750 F   0  0  0  0  0  0
  -30.0120  -13.3618   20.4468 N   0  0  0  0  0  0
  -26.2945  -12.9272   20.3366 N   0  0  0  0  0  0
  -25.9286  -11.6447   20.5747 N   0  0  0  0  0  0
  -22.0471  -12.8234   22.0378 N   0  0  0  0  0  0
  -25.4516  -15.1882   20.4532 N   0  0  0  0  0  0
  -31.8185  -14.7002   20.1196 O   0  0  0  0  0  0
  -21.6605   -6.8822   21.4225 O   0  0  0  0  0  0
  -22.3686  -14.5606   20.6721 O   0  0  0  0  0  0
  -24.6197  -31.8651   23.2094 C   0  0  0  0  0  0
  -25.9089  -32.4799   23.8372 C   0  0  1  0  0  0
  -27.2361  -27.3970   20.1289 C   0  0  0  0  0  0
  -25.5945  -33.8595   24.2325 N   0  0  0  0  0  0
  -23.4080  -30.4848   21.5509 C   0  0  2  0  0  0
  -24.8572  -28.9409   20.1197 C   0  0  0  0  0  0
  -22.7427  -29.4650   22.5017 C   0  0  0  0  0  0
  -18.0274  -28.1405   22.8523 C   0  0  0  0  0  0
  -24.1463  -36.7243   23.2636 C   0  0  0  0  0  0
  -25.9364  -30.8189   21.3641 C   0  0  0  0  0  0
  -26.0173  -29.4477   20.7198 C   0  0  0  0  0  0
  -27.2118  -28.6852   20.7175 C   0  0  0  0  0  0
  -26.0601  -26.9130   19.5150 C   0  0  0  0  0  0
  -24.8753  -27.6744   19.5096 C   0  0  0  0  0  0
  -23.6213  -29.8128   20.1668 C   0  0  0  0  0  0
  -25.4093  -36.3082   24.0338 C   0  0  1  0  0  0
  -20.5868  -28.3673   23.1342 C   0  0  2  0  0  0
  -20.6761  -26.9416   22.5434 C   0  0  0  0  0  0
  -19.5733  -26.6422   21.5230 C   0  0  0  0  0  0
  -18.1911  -26.7958   22.1643 C   0  0  0  0  0  0
  -19.1528  -28.8857   23.2929 C   0  0  0  0  0  0
  -18.9447  -30.1462   23.8936 C   0  0  0  0  0  0
  -17.6449  -30.6611   24.0582 C   0  0  0  0  0  0
  -25.9038  -34.9460   23.5122 C   0  0  0  0  0  0
  -16.5343  -29.9115   23.6342 C   0  0  0  0  0  0
  -16.7265  -28.6530   23.0383 C   0  0  0  0  0  0
  -26.4524  -31.6569   25.0683 C   0  0  0  0  0  0
  -25.3786  -31.3662   26.1422 C   0  0  0  0  0  0
  -27.0339  -30.3006   24.6033 C   0  0  0  0  0  0
  -27.6113  -32.4268   25.7463 C   0  0  0  0  0  0
  -27.5557  -37.1775   24.8492 C   0  0  0  0  0  0
  -21.4149  -29.3026   22.3727 N   0  0  0  0  0  0
  -26.4266  -37.3778   23.9443 N   0  0  0  0  0  0
  -24.6717  -31.0723   22.1008 N   0  0  0  0  0  0
  -23.4185  -28.8219   23.3102 O   0  0  0  0  0  0
  -28.3947  -26.6380   20.1344 O   0  0  0  0  0  0
  -26.5587  -34.8923   22.4672 O   0  0  0  0  0  0
  -23.5396  -32.1430   23.7484 O   0  0  0  0  0  0
  -29.7204  -19.4547   19.7600 C   0  0  0  0  0  0
  -30.0423  -18.2281   20.3148 C   0  0  0  0  0  0
  -30.9292  -19.8776   21.5651 C   0  0  0  0  0  0
  -31.9438  -22.1062   24.6041 C   0  0  0  0  0  0
  -33.2501  -20.6984   22.0344 C   0  0  0  0  0  0
  -28.9632  -24.2295   18.4504 C   0  0  0  0  0  0
  -31.2826  -21.7807   23.2570 C   0  0  0  0  0  0
  -29.2424  -22.8387   20.5802 C   0  0  0  0  0  0
  -30.3909  -21.8888   20.1019 C   0  0  0  0  0  0
  -28.7357  -16.7347   18.7086 C   0  0  0  0  0  0
  -28.2968  -25.2880   20.6566 C   0  0  0  0  0  0
  -29.8895  -16.8143   19.7432 C   0  0  1  0  0  0
  -31.8343  -20.5007   22.6009 C   0  0  1  0  0  0
  -29.2662  -24.2829   19.9592 C   0  0  2  0  0  0
  -30.3108  -20.4490   20.5081 N   0  0  0  0  0  0
  -30.7383  -18.5491   21.4552 N   0  3  0  0  0  0
  -29.8499  -15.6454   20.6668 N   0  0  0  0  0  0
  -27.3914  -17.0027   19.2654 N   0  3  0  0  0  0
  -31.4664  -12.4348   19.1781 H   0  0  0  0  0  0
  -30.3151  -11.3454   19.9006 H   0  0  0  0  0  0
  -29.7553  -11.7323   17.4844 H   0  0  0  0  0  0
  -29.6667  -13.4530   17.7532 H   0  0  0  0  0  0
  -27.8429  -11.2896   18.8501 H   0  0  0  0  0  0
  -27.3693  -12.5921   17.7937 H   0  0  0  0  0  0
  -27.6498  -14.2349   19.5272 H   0  0  0  0  0  0
  -28.6700  -12.0675   21.4261 H   0  0  0  0  0  0
  -28.4351  -13.7471   21.8294 H   0  0  0  0  0  0
  -25.2710   -9.5630   22.4738 H   0  0  0  0  0  0
  -23.9934   -7.4587   22.7436 H   0  0  0  0  0  0
  -21.0779   -8.8694   19.8973 H   0  0  0  0  0  0
  -22.3603  -10.9601   19.6113 H   0  0  0  0  0  0
  -21.2025   -7.6133   23.9690 H   0  0  0  0  0  0
  -21.1496   -6.0529   25.9062 H   0  0  0  0  0  0
  -22.0610   -2.7583   23.2866 H   0  0  0  0  0  0
  -22.4024  -11.9880   22.4811 H   0  0  0  0  0  0
  -21.1093  -13.1293   22.2530 H   0  0  0  0  0  0
  -24.5344  -15.5264   20.1696 H   0  0  0  0  0  0
  -25.4966  -15.5168   21.4134 H   0  0  0  0  0  0
  -26.7154  -32.5527   23.1133 H   0  0  0  0  0  0
  -25.0190  -33.9750   25.0538 H   0  0  0  0  0  0
  -22.6975  -31.2999   21.4083 H   0  0  0  0  0  0
  -23.3747  -35.9554   23.3345 H   0  0  0  0  0  0
  -24.3537  -36.8801   22.2039 H   0  0  0  0  0  0
  -23.7180  -37.6444   23.6612 H   0  0  0  0  0  0
  -26.0385  -31.5728   20.5841 H   0  0  0  0  0  0
  -26.8293  -30.8866   21.9738 H   0  0  0  0  0  0
  -28.1050  -29.0686   21.1921 H   0  0  0  0  0  0
  -26.0529  -25.9401   19.0438 H   0  0  0  0  0  0
  -23.9847  -27.2774   19.0406 H   0  0  0  0  0  0
  -23.7377  -30.5842   19.4046 H   0  0  0  0  0  0
  -22.7409  -29.2371   19.8743 H   0  0  0  0  0  0
  -25.1265  -36.1928   25.0822 H   0  0  0  0  0  0
  -20.9947  -28.3242   24.1471 H   0  0  0  0  0  0
  -20.5687  -26.2270   23.3608 H   0  0  0  0  0  0
  -21.6622  -26.7489   22.1201 H   0  0  0  0  0  0
  -19.6880  -25.6345   21.1224 H   0  0  0  0  0  0
  -19.6675  -27.3254   20.6776 H   0  0  0  0  0  0
  -17.4186  -26.6744   21.4040 H   0  0  0  0  0  0
  -18.0306  -26.0083   22.9021 H   0  0  0  0  0  0
  -19.7922  -30.7283   24.2319 H   0  0  0  0  0  0
  -17.5014  -31.6305   24.5165 H   0  0  0  0  0  0
  -15.5351  -30.3051   23.7637 H   0  0  0  0  0  0
  -15.8659  -28.0861   22.7105 H   0  0  0  0  0  0
  -24.5984  -30.6971   25.7759 H   0  0  0  0  0  0
  -24.8947  -32.2809   26.4851 H   0  0  0  0  0  0
  -25.8152  -30.8856   27.0180 H   0  0  0  0  0  0
  -26.2839  -29.6750   24.1159 H   0  0  0  0  0  0
  -27.4187  -29.7259   25.4469 H   0  0  0  0  0  0
  -27.8665  -30.4327   23.9108 H   0  0  0  0  0  0
  -27.2744  -33.3563   26.2067 H   0  0  0  0  0  0
  -28.3939  -32.6810   25.0296 H   0  0  0  0  0  0
  -28.0754  -31.8339   26.5361 H   0  0  0  0  0  0
  -28.2621  -38.0036   24.7534 H   0  0  0  0  0  0
  -28.1001  -36.2570   24.6337 H   0  0  0  0  0  0
  -27.2272  -37.1454   25.8896 H   0  0  0  0  0  0
  -20.9315  -29.8670   21.6875 H   0  0  0  0  0  0
  -26.0145  -38.2828   24.1526 H   0  0  0  0  0  0
  -29.2129  -19.6947   18.8351 H   0  0  0  0  0  0
  -31.5397  -23.0256   25.0312 H   0  0  0  0  0  0
  -33.0177  -22.2573   24.5029 H   0  0  0  0  0  0
  -31.7853  -21.3062   25.3286 H   0  0  0  0  0  0
  -33.6925  -19.7445   21.7436 H   0  0  0  0  0  0
  -33.9201  -21.1528   22.7597 H   0  0  0  0  0  0
  -33.2464  -21.3437   21.1561 H   0  0  0  0  0  0
  -29.7080  -23.6554   17.9028 H   0  0  0  0  0  0
  -28.9602  -25.2279   18.0084 H   0  0  0  0  0  0
  -27.9890  -23.7744   18.2620 H   0  0  0  0  0  0
  -31.4049  -22.6337   22.5917 H   0  0  0  0  0  0
  -30.2131  -21.6583   23.4273 H   0  0  0  0  0  0
  -29.2769  -22.9248   21.6648 H   0  0  0  0  0  0
  -28.2821  -22.3707   20.3648 H   0  0  0  0  0  0
  -31.3627  -22.2842   20.3900 H   0  0  0  0  0  0
  -30.4192  -21.8783   19.0127 H   0  0  0  0  0  0
  -28.7337  -15.7592   18.2220 H   0  0  0  0  0  0
  -28.9210  -17.4439   17.9005 H   0  0  0  0  0  0
  -28.5539  -25.3402   21.7167 H   0  0  0  0  0  0
  -27.2809  -24.8928   20.6236 H   0  0  0  0  0  0
  -30.7841  -16.6955   19.1286 H   0  0  0  0  0  0
  -31.8854  -19.7476   23.3883 H   0  0  0  0  0  0
  -30.2711  -24.6922   20.0905 H   0  0  0  0  0  0
  -31.1314  -17.8703   22.1002 H   0  0  0  0  0  0
  -28.9593  -15.4493   21.0941 H   0  0  0  0  0  0
  -26.9849  -16.2289   19.7770 H   0  0  0  0  0  0
  -26.7623  -17.1705   18.5009 H   0  0  0  0  0  0
  -27.3776  -17.8171   19.8510 H   0  0  0  0  0  0
  1 25  1  0  0  0
  1 30  2  0  0  0
  1 87  1  0  0  0
  2  3  1  0  0  0
  2 25  1  0  0  0
  2 89  1  0  0  0
  2 90  1  0  0  0
  3  4  1  0  0  0
  3 91  1  0  0  0
  3 92  1  0  0  0
  4  5  1  0  0  0
  4 93  1  0  0  0
  4 94  1  0  0  0
  5  6  1  0  0  0
  5 26  1  0  0  0
  5 95  1  0  0  0
  6 25  1  0  0  0
  6 96  1  0  0  0
  6 97  1  0  0  0
  7  8  2  0  0  0
  7 26  1  0  0  0
  7 29  1  0  0  0
  8  9  1  0  0  0
  8 22  1  0  0  0
  9 10  1  0  0  0
  9 27  2  0  0  0
 10 11  2  0  0  0
 10 15  1  0  0  0
 11 12  1  0  0  0
 11 98  1  0  0  0
 12 13  2  0  0  0
 12 99  1  0  0  0
 13 14  1  0  0  0
 13 31  1  0  0  0
 14 15  2  0  0  0
 14100  1  0  0  0
 15101  1  0  0  0
 16 17  2  0  0  0
 16 21  1  0  0  0
 16 31  1  0  0  0
 17 18  1  0  0  0
 17102  1  0  0  0
 18 19  2  0  0  0
 18103  1  0  0  0
 19 20  1  0  0  0
 19 24  1  0  0  0
 20 21  2  0  0  0
 20104  1  0  0  0
 21 23  1  0  0  0
 22 28  1  0  0  0
 22 32  2  0  0  0
 26 27  1  0  0  0
 28105  1  0  0  0
 28106  1  0  0  0
 29107  1  0  0  0
 29108  1  0  0  0
 33 34  1  0  0  0
 33 66  1  0  0  0
 33 70  2  0  0  0
 34 36  1  0  0  0
 34 59  1  0  0  0
 34109  1  0  0  0
 35 44  2  0  0  0
 35 45  1  0  0  0
 35 68  1  0  0  0
 36 56  1  0  0  0
 36110  1  0  0  0
 37 39  1  0  0  0
 37 47  1  0  0  0
 37 66  1  0  0  0
 37111  1  0  0  0
 38 43  2  0  0  0
 38 46  1  0  0  0
 38 47  1  0  0  0
 39 64  1  0  0  0
 39 67  2  0  0  0
 40 52  1  0  0  0
 40 53  2  0  0  0
 40 58  1  0  0  0
 41112  1  0  0  0
 41113  1  0  0  0
 41114  1  0  0  0
 41 48  1  0  0  0
 42 43  1  0  0  0
 42 66  1  0  0  0
 42115  1  0  0  0
 42116  1  0  0  0
 43 44  1  0  0  0
 44117  1  0  0  0
 45 46  2  0  0  0
 45118  1  0  0  0
 46119  1  0  0  0
 47120  1  0  0  0
 47121  1  0  0  0
 48 56  1  0  0  0
 48 65  1  0  0  0
 48122  1  0  0  0
 49 50  1  0  0  0
 49 53  1  0  0  0
 49 64  1  0  0  0
 49123  1  0  0  0
 50 51  1  0  0  0
 50124  1  0  0  0
 50125  1  0  0  0
 51 52  1  0  0  0
 51126  1  0  0  0
 51127  1  0  0  0
 52128  1  0  0  0
 52129  1  0  0  0
 53 54  1  0  0  0
 54 55  2  0  0  0
 54130  1  0  0  0
 55 57  1  0  0  0
 55131  1  0  0  0
 56 69  2  0  0  0
 57 58  2  0  0  0
 57132  1  0  0  0
 58133  1  0  0  0
 59 60  1  0  0  0
 59 61  1  0  0  0
 59 62  1  0  0  0
 60134  1  0  0  0
 60135  1  0  0  0
 60136  1  0  0  0
 61137  1  0  0  0
 61138  1  0  0  0
 61139  1  0  0  0
 62140  1  0  0  0
 62141  1  0  0  0
 62142  1  0  0  0
 63 65  1  0  0  0
 63143  1  0  0  0
 63144  1  0  0  0
 63145  1  0  0  0
 64146  1  0  0  0
 65147  1  0  0  0
 68 81  1  0  0  0
 71 72  2  0  0  0
 71 85  1  0  0  0
 71148  1  0  0  0
 72 82  1  0  0  0
 72 86  1  0  0  0
 73 83  1  0  0  0
 73 85  1  0  0  0
 73 86  2  0  0  0
 74 77  1  0  0  0
 74149  1  0  0  0
 74150  1  0  0  0
 74151  1  0  0  0
 75152  1  0  0  0
 75153  1  0  0  0
 75154  1  0  0  0
 75 83  1  0  0  0
 76155  1  0  0  0
 76156  1  0  0  0
 76157  1  0  0  0
 76 84  1  0  0  0
 77 83  1  0  0  0
 77158  1  0  0  0
 77159  1  0  0  0
 78 79  1  0  0  0
 78 84  1  0  0  0
 78160  1  0  0  0
 78161  1  0  0  0
 79 85  1  0  0  0
 79162  1  0  0  0
 79163  1  0  0  0
 80 88  1  0  0  0
 80164  1  0  0  0
 80165  1  0  0  0
 80 82  1  0  0  0
 81 84  1  0  0  0
 81166  1  0  0  0
 81167  1  0  0  0
 82 87  1  0  0  0
 82168  1  0  0  0
 83169  1  0  0  0
 84170  1  0  0  0
 86171  1  0  0  0
 87172  1  0  0  0
 88173  1  0  0  0
 88174  1  0  0  0
 88175  1  0  0  0
M  CHG  2  86   1  88   1
M  ISO  4   1 100  68 101  81 101  87 100
M  END
> <chiral flag>
0

> <version>
0

> <s_m_source_file>
/data/baiqing/PycharmProjects/Reinvent-master-3.2/result/LINK_invent/BTK/process_docking_weight1_custom_sum_contain_oxygen_bond_distance_aromatic_linkinvent_7_9_3/rearranged_h_0091.sdf

> <i_m_source_file_index>
16

> <r_mmod_Potential_Energy-OPLS-2005>
-363.41796875

> <r_mmod_Stretch_Energy-OPLS-2005>
48.951545715332

> <r_mmod_Bend_Energy-OPLS-2005>
120.360015869141

> <r_mmod_Torsional_Energy-OPLS-2005>
353.497528076172

> <r_mmod_Improper_Torsional_Energy-OPLS-2005>
20.420560836792

> <r_mmod_Van_der_Waal_Energy-OPLS-2005>
123.669334411621

> <r_mmod_Electrostatic_Energy-OPLS-2005>
-84.5880584716797

> <r_mmod_Solvation_Energy-OPLS-2005>
-972.052124023438

> <b_mmod_Minimization_Converged-OPLS-2005>
0

> <r_mmod_RMS_Derivative-OPLS-2005>
4.26237726211548

$$$$
16
                    3D
 Structure written by MMmdl.
166174  0  0  1  0            999 V2000
  -30.6466  -14.7592   20.5035 C   0  0  0  0  0  0
  -30.4417  -12.4831   19.4854 C   0  0  0  0  0  0
  -29.5140  -12.5112   18.2520 C   0  0  0  0  0  0
  -28.0410  -12.3378   18.6604 C   0  0  0  0  0  0
  -27.6445  -13.2438   19.8571 C   0  0  2  0  0  0
  -28.6877  -13.2007   20.9963 C   0  0  0  0  0  0
  -25.2483  -13.8226   20.5664 C   0  0  0  0  0  0
  -24.1786  -13.0477   20.9258 C   0  0  0  0  0  0
  -24.6386  -11.6959   20.8778 C   0  0  0  0  0  0
  -23.9066  -10.4302   21.0399 C   0  0  0  0  0  0
  -24.3600   -9.4225   21.9161 C   0  0  0  0  0  0
  -23.6285   -8.2242   22.0718 C   0  0  0  0  0  0
  -22.4274   -8.0254   21.3506 C   0  0  0  0  0  0
  -21.9917   -9.0253   20.4629 C   0  0  0  0  0  0
  -22.7230  -10.2148   20.3057 C   0  0  0  0  0  0
  -21.6862   -6.0709   22.5246 C   0  0  0  0  0  0
  -21.4007   -6.5609   23.8177 C   0  0  0  0  0  0
  -21.3670   -5.6765   24.9138 C   0  0  0  0  0  0
  -21.6057   -4.3017   24.7186 C   0  0  0  0  0  0
  -21.8839   -3.8128   23.4301 C   0  0  0  0  0  0
  -21.9183   -4.6948   22.3362 C   0  0  0  0  0  0
  -22.7779  -13.5241   21.1850 C   0  0  0  0  0  0
  -22.1645   -4.2133   21.0933 F   0  0  0  0  0  0
  -21.5670   -3.4511   25.7705 F   0  0  0  0  0  0
  -29.9961  -13.5448   20.4226 N   0  0  0  0  0  0
  -26.2969  -12.9468   20.3372 N   0  0  0  0  0  0
  -25.9335  -11.6610   20.5840 N   0  0  0  0  0  0
  -22.0397  -12.8283   22.0445 N   0  0  0  0  0  0
  -25.4183  -15.1870   20.3818 N   0  0  0  0  0  0
  -31.8105  -14.8511   20.1095 O   0  0  0  0  0  0
  -21.6627   -6.8853   21.4209 O   0  0  0  0  0  0
  -22.3482  -14.5470   20.6592 O   0  0  0  0  0  0
  -24.6337  -31.8536   23.1934 C   0  0  0  0  0  0
  -25.9157  -32.4760   23.8287 C   0  0  1  0  0  0
  -27.2288  -27.2601   20.1519 C   0  0  0  0  0  0
  -25.5945  -33.8550   24.2219 N   0  0  0  0  0  0
  -23.4298  -30.4745   21.5335 C   0  0  2  0  0  0
  -24.8815  -28.9170   20.1111 C   0  0  0  0  0  0
  -22.7526  -29.4613   22.4876 C   0  0  0  0  0  0
  -18.0313  -28.1442   22.8481 C   0  0  0  0  0  0
  -24.1495  -36.7288   23.2625 C   0  0  0  0  0  0
  -25.9720  -30.7742   21.3671 C   0  0  0  0  0  0
  -26.0518  -29.3928   20.7157 C   0  0  0  0  0  0
  -27.2289  -28.5801   20.7174 C   0  0  0  0  0  0
  -26.0318  -26.8489   19.5187 C   0  0  0  0  0  0
  -24.8789  -27.6566   19.4961 C   0  0  0  0  0  0
  -23.6520  -29.8028   20.1531 C   0  0  0  0  0  0
  -25.4116  -36.3042   24.0306 C   0  0  1  0  0  0
  -20.5922  -28.3755   23.1268 C   0  0  2  0  0  0
  -20.6807  -26.9470   22.5420 C   0  0  0  0  0  0
  -19.5774  -26.6427   21.5233 C   0  0  0  0  0  0
  -18.1950  -26.7988   22.1637 C   0  0  0  0  0  0
  -19.1563  -28.8919   23.2871 C   0  0  0  0  0  0
  -18.9477  -30.1521   23.8901 C   0  0  0  0  0  0
  -17.6471  -30.6627   24.0597 C   0  0  0  0  0  0
  -25.9059  -34.9429   23.5056 C   0  0  0  0  0  0
  -16.5364  -29.9140   23.6333 C   0  0  0  0  0  0
  -16.7297  -28.6565   23.0327 C   0  0  0  0  0  0
  -26.4515  -31.6565   25.0676 C   0  0  0  0  0  0
  -25.3731  -31.3749   26.1401 C   0  0  0  0  0  0
  -27.0349  -30.2970   24.6147 C   0  0  0  0  0  0
  -27.6077  -32.4312   25.7459 C   0  0  0  0  0  0
  -27.5572  -37.1780   24.8454 C   0  0  0  0  0  0
  -21.4232  -29.3083   22.3626 N   0  0  0  0  0  0
  -26.4283  -37.3749   23.9401 N   0  0  0  0  0  0
  -24.6961  -31.0526   22.0886 N   0  0  0  0  0  0
  -23.4210  -28.8158   23.2984 O   0  0  0  0  0  0
  -28.3346  -26.3825   20.2328 O   0  0  0  0  0  0
  -26.5632  -34.8905   22.4633 O   0  0  0  0  0  0
  -23.5501  -32.1372   23.7216 O   0  0  0  0  0  0
  -27.8475  -21.6237   20.2486 C   0  0  0  0  0  0
  -29.8901  -21.2097   20.9353 C   0  0  0  0  0  0
  -29.0606  -22.2875   20.5823 C   0  0  0  0  0  0
  -27.9408  -20.2634   20.4487 C   0  0  0  0  0  0
  -25.0046  -19.4053   22.0532 C   0  0  0  0  0  0
  -30.4864  -24.1741   19.5790 C   0  0  0  0  0  0
  -27.1016  -18.2646   19.1293 C   0  0  0  0  0  0
  -26.2272  -18.6524   21.5126 C   0  0  0  0  0  0
  -29.7439  -18.5828   21.4224 C   0  0  0  0  0  0
  -30.2554  -17.3680   20.4822 C   0  0  0  0  0  0
  -28.1154  -24.8933   20.2222 C   0  0  0  0  0  0
  -29.3302  -23.8681   20.5444 C   0  0  1  0  0  0
  -26.8142  -19.2882   20.2307 C   0  0  1  0  0  0
  -29.2329  -19.9441   20.8974 N   0  0  0  0  0  0
  -29.9280  -15.9020   20.8208 N   0  0  0  0  0  0
  -31.4788  -12.6069   19.1649 H   0  0  0  0  0  0
  -30.4076  -11.5178   19.9855 H   0  0  0  0  0  0
  -29.7940  -11.7234   17.5535 H   0  0  0  0  0  0
  -29.6415  -13.4562   17.7191 H   0  0  0  0  0  0
  -27.8942  -11.2907   18.9239 H   0  0  0  0  0  0
  -27.3875  -12.5236   17.8069 H   0  0  0  0  0  0
  -27.6334  -14.2621   19.4667 H   0  0  0  0  0  0
  -28.7296  -12.2168   21.4632 H   0  0  0  0  0  0
  -28.4153  -13.8999   21.7871 H   0  0  0  0  0  0
  -25.2728   -9.5730   22.4776 H   0  0  0  0  0  0
  -23.9995   -7.4658   22.7483 H   0  0  0  0  0  0
  -21.0826   -8.8823   19.8952 H   0  0  0  0  0  0
  -22.3685  -10.9705   19.6202 H   0  0  0  0  0  0
  -21.1995   -7.6108   23.9693 H   0  0  0  0  0  0
  -21.1480   -6.0458   25.9046 H   0  0  0  0  0  0
  -22.0604   -2.7581   23.2813 H   0  0  0  0  0  0
  -22.3949  -11.9984   22.4936 H   0  0  0  0  0  0
  -21.1008  -13.1391   22.2548 H   0  0  0  0  0  0
  -24.6343  -15.8273   20.4389 H   0  0  0  0  0  0
  -26.2321  -15.5940   19.9390 H   0  0  0  0  0  0
  -26.7225  -32.5408   23.1028 H   0  0  0  0  0  0
  -25.0079  -33.9660   25.0353 H   0  0  0  0  0  0
  -22.7287  -31.2959   21.3805 H   0  0  0  0  0  0
  -23.3730  -35.9651   23.3287 H   0  0  0  0  0  0
  -24.3578  -36.8920   22.2039 H   0  0  0  0  0  0
  -23.7281  -37.6490   23.6680 H   0  0  0  0  0  0
  -26.1006  -31.5285   20.5900 H   0  0  0  0  0  0
  -26.8580  -30.8386   21.9894 H   0  0  0  0  0  0
  -28.1268  -28.9421   21.1981 H   0  0  0  0  0  0
  -25.9599  -25.8798   19.0482 H   0  0  0  0  0  0
  -23.9802  -27.2878   19.0192 H   0  0  0  0  0  0
  -23.7804  -30.5738   19.3934 H   0  0  0  0  0  0
  -22.7755  -29.2308   19.8442 H   0  0  0  0  0  0
  -25.1298  -36.1848   25.0799 H   0  0  0  0  0  0
  -21.0024  -28.3372   24.1388 H   0  0  0  0  0  0
  -20.5744  -26.2379   23.3626 H   0  0  0  0  0  0
  -21.6665  -26.7527   22.1179 H   0  0  0  0  0  0
  -19.6930  -25.6331   21.1276 H   0  0  0  0  0  0
  -19.6704  -27.3232   20.6749 H   0  0  0  0  0  0
  -17.4215  -26.6749   21.4042 H   0  0  0  0  0  0
  -18.0354  -26.0156   22.9063 H   0  0  0  0  0  0
  -19.7943  -30.7360   24.2257 H   0  0  0  0  0  0
  -17.5011  -31.6285   24.5239 H   0  0  0  0  0  0
  -15.5366  -30.3034   23.7648 H   0  0  0  0  0  0
  -15.8705  -28.0896   22.7002 H   0  0  0  0  0  0
  -24.5874  -30.7159   25.7683 H   0  0  0  0  0  0
  -24.9001  -32.2968   26.4804 H   0  0  0  0  0  0
  -25.8044  -30.8885   27.0162 H   0  0  0  0  0  0
  -26.2918  -29.6714   24.1215 H   0  0  0  0  0  0
  -27.4049  -29.7242   25.4644 H   0  0  0  0  0  0
  -27.8789  -30.4199   23.9374 H   0  0  0  0  0  0
  -27.2671  -33.3612   26.2020 H   0  0  0  0  0  0
  -28.3913  -32.6864   25.0317 H   0  0  0  0  0  0
  -28.0730  -31.8450   26.5379 H   0  0  0  0  0  0
  -28.2561  -38.0089   24.7494 H   0  0  0  0  0  0
  -28.1087  -36.2619   24.6299 H   0  0  0  0  0  0
  -27.2302  -37.1455   25.8855 H   0  0  0  0  0  0
  -20.9434  -29.8769   21.6777 H   0  0  0  0  0  0
  -26.0140  -38.2811   24.1424 H   0  0  0  0  0  0
  -26.9428  -22.1182   19.9135 H   0  0  0  0  0  0
  -30.9243  -21.2334   21.2578 H   0  0  0  0  0  0
  -24.6220  -18.9160   22.9499 H   0  0  0  0  0  0
  -24.2002  -19.4216   21.3184 H   0  0  0  0  0  0
  -25.2537  -20.4362   22.3042 H   0  0  0  0  0  0
  -31.3679  -23.5634   19.7764 H   0  0  0  0  0  0
  -30.7938  -25.2164   19.6522 H   0  0  0  0  0  0
  -30.1860  -23.9851   18.5478 H   0  0  0  0  0  0
  -27.5191  -18.7532   18.2491 H   0  0  0  0  0  0
  -26.1854  -17.7625   18.8209 H   0  0  0  0  0  0
  -27.7880  -17.4933   19.4525 H   0  0  0  0  0  0
  -25.9091  -17.6352   21.2919 H   0  0  0  0  0  0
  -26.9627  -18.5588   22.3084 H   0  0  0  0  0  0
  -30.5626  -18.8087   22.1096 H   0  0  0  0  0  0
  -28.9841  -18.1857   22.0870 H   0  0  0  0  0  0
  -31.3410  -17.4533   20.4327 H   0  0  0  0  0  0
  -29.9265  -17.5599   19.4651 H   0  0  0  0  0  0
  -27.3042  -24.6798   20.9211 H   0  0  0  0  0  0
  -27.7406  -24.6183   19.2372 H   0  0  0  0  0  0
  -29.6746  -24.1190   21.5494 H   0  0  0  0  0  0
  -26.0033  -19.8812   19.8079 H   0  0  0  0  0  0
  -28.9868  -15.7306   21.1423 H   0  0  0  0  0  0
  1 25  1  0  0  0
  1 30  2  0  0  0
  1 85  1  0  0  0
  2  3  1  0  0  0
  2 25  1  0  0  0
  2 86  1  0  0  0
  2 87  1  0  0  0
  3  4  1  0  0  0
  3 88  1  0  0  0
  3 89  1  0  0  0
  4  5  1  0  0  0
  4 90  1  0  0  0
  4 91  1  0  0  0
  5  6  1  0  0  0
  5 26  1  0  0  0
  5 92  1  0  0  0
  6 25  1  0  0  0
  6 93  1  0  0  0
  6 94  1  0  0  0
  7  8  2  0  0  0
  7 26  1  0  0  0
  7 29  1  0  0  0
  8  9  1  0  0  0
  8 22  1  0  0  0
  9 10  1  0  0  0
  9 27  2  0  0  0
 10 11  2  0  0  0
 10 15  1  0  0  0
 11 12  1  0  0  0
 11 95  1  0  0  0
 12 13  2  0  0  0
 12 96  1  0  0  0
 13 14  1  0  0  0
 13 31  1  0  0  0
 14 15  2  0  0  0
 14 97  1  0  0  0
 15 98  1  0  0  0
 16 17  2  0  0  0
 16 21  1  0  0  0
 16 31  1  0  0  0
 17 18  1  0  0  0
 17 99  1  0  0  0
 18 19  2  0  0  0
 18100  1  0  0  0
 19 20  1  0  0  0
 19 24  1  0  0  0
 20 21  2  0  0  0
 20101  1  0  0  0
 21 23  1  0  0  0
 22 28  1  0  0  0
 22 32  2  0  0  0
 26 27  1  0  0  0
 28102  1  0  0  0
 28103  1  0  0  0
 29104  1  0  0  0
 29105  1  0  0  0
 33 34  1  0  0  0
 33 66  1  0  0  0
 33 70  2  0  0  0
 34 36  1  0  0  0
 34 59  1  0  0  0
 34106  1  0  0  0
 35 44  2  0  0  0
 35 45  1  0  0  0
 35 68  1  0  0  0
 36 56  1  0  0  0
 36107  1  0  0  0
 37 39  1  0  0  0
 37 47  1  0  0  0
 37 66  1  0  0  0
 37108  1  0  0  0
 38 43  2  0  0  0
 38 46  1  0  0  0
 38 47  1  0  0  0
 39 64  1  0  0  0
 39 67  2  0  0  0
 40 52  1  0  0  0
 40 53  2  0  0  0
 40 58  1  0  0  0
 41109  1  0  0  0
 41110  1  0  0  0
 41111  1  0  0  0
 41 48  1  0  0  0
 42 43  1  0  0  0
 42 66  1  0  0  0
 42112  1  0  0  0
 42113  1  0  0  0
 43 44  1  0  0  0
 44114  1  0  0  0
 45 46  2  0  0  0
 45115  1  0  0  0
 46116  1  0  0  0
 47117  1  0  0  0
 47118  1  0  0  0
 48 56  1  0  0  0
 48 65  1  0  0  0
 48119  1  0  0  0
 49 50  1  0  0  0
 49 53  1  0  0  0
 49 64  1  0  0  0
 49120  1  0  0  0
 50 51  1  0  0  0
 50121  1  0  0  0
 50122  1  0  0  0
 51 52  1  0  0  0
 51123  1  0  0  0
 51124  1  0  0  0
 52125  1  0  0  0
 52126  1  0  0  0
 53 54  1  0  0  0
 54 55  2  0  0  0
 54127  1  0  0  0
 55 57  1  0  0  0
 55128  1  0  0  0
 56 69  2  0  0  0
 57 58  2  0  0  0
 57129  1  0  0  0
 58130  1  0  0  0
 59 60  1  0  0  0
 59 61  1  0  0  0
 59 62  1  0  0  0
 60131  1  0  0  0
 60132  1  0  0  0
 60133  1  0  0  0
 61134  1  0  0  0
 61135  1  0  0  0
 61136  1  0  0  0
 62137  1  0  0  0
 62138  1  0  0  0
 62139  1  0  0  0
 63 65  1  0  0  0
 63140  1  0  0  0
 63141  1  0  0  0
 63142  1  0  0  0
 64143  1  0  0  0
 65144  1  0  0  0
 68 81  1  0  0  0
 71 73  1  0  0  0
 71 74  2  0  0  0
 71145  1  0  0  0
 72 73  2  0  0  0
 72 84  1  0  0  0
 72146  1  0  0  0
 73 82  1  0  0  0
 74 83  1  0  0  0
 74 84  1  0  0  0
 75 78  1  0  0  0
 75147  1  0  0  0
 75148  1  0  0  0
 75149  1  0  0  0
 76150  1  0  0  0
 76151  1  0  0  0
 76152  1  0  0  0
 76 82  1  0  0  0
 77153  1  0  0  0
 77154  1  0  0  0
 77155  1  0  0  0
 77 83  1  0  0  0
 78 83  1  0  0  0
 78156  1  0  0  0
 78157  1  0  0  0
 79 80  1  0  0  0
 79 84  1  0  0  0
 79158  1  0  0  0
 79159  1  0  0  0
 80 85  1  0  0  0
 80160  1  0  0  0
 80161  1  0  0  0
 81 82  1  0  0  0
 81162  1  0  0  0
 81163  1  0  0  0
 82164  1  0  0  0
 83165  1  0  0  0
 85166  1  0  0  0
M  ISO  4   1 100  68 101  81 101  85 100
M  END
> <chiral flag>
0

> <version>
0

> <s_m_source_file>
/data/baiqing/PycharmProjects/Reinvent-master-3.2/result/LINK_invent/BTK/process_docking_weight1_custom_sum_contain_oxygen_bond_distance_aromatic_linkinvent_7_9_3/rearranged_h_0091.sdf

> <i_m_source_file_index>
17

> <r_mmod_Potential_Energy-OPLS-2005>
160.243499755859

> <r_mmod_Stretch_Energy-OPLS-2005>
127.374504089355

> <r_mmod_Bend_Energy-OPLS-2005>
180.704528808594

> <r_mmod_Torsional_Energy-OPLS-2005>
249.11897277832

> <r_mmod_Improper_Torsional_Energy-OPLS-2005>
6.90351390838623

> <r_mmod_Van_der_Waal_Energy-OPLS-2005>
109.656890869141

> <r_mmod_Electrostatic_Energy-OPLS-2005>
-399.641662597656

> <r_mmod_Solvation_Energy-OPLS-2005>
-203.547576904297

> <b_mmod_Minimization_Converged-OPLS-2005>
0

> <r_mmod_RMS_Derivative-OPLS-2005>
5.37709617614746

$$$$
17
                    3D
 Structure written by MMmdl.
176184  0  0  1  0            999 V2000
  -30.6612  -14.6130   20.4854 C   0  0  0  0  0  0
  -30.4255  -12.3763   19.4344 C   0  0  0  0  0  0
  -29.4973  -12.4950   18.2116 C   0  0  0  0  0  0
  -28.0263  -12.3271   18.6365 C   0  0  0  0  0  0
  -27.6480  -13.2178   19.8488 C   0  0  2  0  0  0
  -28.6965  -13.1034   20.9750 C   0  0  0  0  0  0
  -25.2594  -13.8159   20.5719 C   0  0  0  0  0  0
  -24.1831  -13.0448   20.9190 C   0  0  0  0  0  0
  -24.6395  -11.6916   20.8747 C   0  0  0  0  0  0
  -23.9057  -10.4293   21.0409 C   0  0  0  0  0  0
  -24.3599   -9.4208   21.9205 C   0  0  0  0  0  0
  -23.6281   -8.2240   22.0756 C   0  0  0  0  0  0
  -22.4269   -8.0281   21.3544 C   0  0  0  0  0  0
  -21.9903   -9.0250   20.4637 C   0  0  0  0  0  0
  -22.7222  -10.2144   20.3050 C   0  0  0  0  0  0
  -21.6861   -6.0724   22.5273 C   0  0  0  0  0  0
  -21.3999   -6.5622   23.8200 C   0  0  0  0  0  0
  -21.3663   -5.6789   24.9166 C   0  0  0  0  0  0
  -21.6041   -4.3051   24.7233 C   0  0  0  0  0  0
  -21.8814   -3.8132   23.4354 C   0  0  0  0  0  0
  -21.9189   -4.6944   22.3399 C   0  0  0  0  0  0
  -22.7855  -13.5253   21.1850 C   0  0  0  0  0  0
  -22.1666   -4.2123   21.0987 F   0  0  0  0  0  0
  -21.5635   -3.4538   25.7753 F   0  0  0  0  0  0
  -30.0102  -13.4151   20.3938 N   0  0  0  0  0  0
  -26.2984  -12.9335   20.3296 N   0  0  0  0  0  0
  -25.9324  -11.6497   20.5752 N   0  0  0  0  0  0
  -22.0459  -12.8268   22.0398 N   0  0  0  0  0  0
  -25.4397  -15.1850   20.4118 N   0  0  0  0  0  0
  -31.8454  -14.7337   20.1649 O   0  0  0  0  0  0
  -21.6634   -6.8883   21.4248 O   0  0  0  0  0  0
  -22.3554  -14.5558   20.6683 O   0  0  0  0  0  0
  -24.6231  -31.8631   23.2022 C   0  0  0  0  0  0
  -25.9102  -32.4799   23.8313 C   0  0  1  0  0  0
  -27.2207  -27.3495   20.0807 C   0  0  0  0  0  0
  -25.5887  -33.8581   24.2265 N   0  0  0  0  0  0
  -23.4132  -30.4901   21.5438 C   0  0  2  0  0  0
  -24.8545  -28.9442   20.1073 C   0  0  0  0  0  0
  -22.7458  -29.4652   22.4908 C   0  0  0  0  0  0
  -18.0324  -28.1429   22.8512 C   0  0  0  0  0  0
  -24.1492  -36.7310   23.2635 C   0  0  0  0  0  0
  -25.9459  -30.8047   21.3585 C   0  0  0  0  0  0
  -26.0219  -29.4293   20.7099 C   0  0  0  0  0  0
  -27.2041  -28.6354   20.7013 C   0  0  0  0  0  0
  -26.0220  -26.9008   19.4837 C   0  0  0  0  0  0
  -24.8526  -27.6831   19.4947 C   0  0  0  0  0  0
  -23.6260  -29.8278   20.1563 C   0  0  0  0  0  0
  -25.4118  -36.3087   24.0317 C   0  0  1  0  0  0
  -20.5922  -28.3740   23.1276 C   0  0  2  0  0  0
  -20.6812  -26.9480   22.5395 C   0  0  0  0  0  0
  -19.5754  -26.6442   21.5227 C   0  0  0  0  0  0
  -18.1947  -26.7984   22.1653 C   0  0  0  0  0  0
  -19.1569  -28.8892   23.2909 C   0  0  0  0  0  0
  -18.9510  -30.1502   23.8935 C   0  0  0  0  0  0
  -17.6503  -30.6636   24.0578 C   0  0  0  0  0  0
  -25.9048  -34.9449   23.5085 C   0  0  0  0  0  0
  -16.5398  -29.9164   23.6299 C   0  0  0  0  0  0
  -16.7314  -28.6567   23.0353 C   0  0  0  0  0  0
  -26.4480  -31.6542   25.0630 C   0  0  0  0  0  0
  -25.3687  -31.3670   26.1325 C   0  0  0  0  0  0
  -27.0321  -30.2999   24.5958 C   0  0  0  0  0  0
  -27.6061  -32.4230   25.7408 C   0  0  0  0  0  0
  -27.5578  -37.1825   24.8476 C   0  0  0  0  0  0
  -21.4186  -29.3103   22.3652 N   0  0  0  0  0  0
  -26.4297  -37.3782   23.9397 N   0  0  0  0  0  0
  -24.6821  -31.0658   22.0965 N   0  0  0  0  0  0
  -23.4224  -28.8193   23.2944 O   0  0  0  0  0  0
  -28.3682  -26.5500   20.1260 O   0  0  0  0  0  0
  -26.5643  -34.8925   22.4680 O   0  0  0  0  0  0
  -23.5407  -32.1384   23.7391 O   0  0  0  0  0  0
  -28.9376  -20.6520   20.2127 C   0  0  0  0  0  0
  -27.7594  -21.4692   20.2731 C   0  0  0  0  0  0
  -26.5193  -20.7660   20.2122 C   0  0  0  0  0  0
  -28.8383  -19.2253   20.0619 C   0  0  0  0  0  0
  -26.5204  -19.3726   19.9587 C   0  0  0  0  0  0
  -25.2452  -18.5778   19.7090 C   0  0  0  0  0  0
  -20.7354  -23.3292   19.2742 C   0  0  0  0  0  0
  -22.2745  -23.0780   17.2921 C   0  0  0  0  0  0
  -27.7270  -23.0366   20.4257 C   0  0  0  0  0  0
  -25.1835  -21.4537   20.5097 C   0  0  0  0  0  0
  -30.0315  -18.2393   19.8788 C   0  0  0  0  0  0
  -28.8926  -23.9500   19.9261 C   0  0  0  0  0  0
  -24.4479  -22.0429   19.2917 C   0  0  0  0  0  0
  -22.9373  -22.1491   19.5788 C   0  0  0  0  0  0
  -30.3440  -17.1326   20.9740 C   0  0  0  0  0  0
  -28.5301  -25.3580   19.2867 C   0  0  0  0  0  0
  -22.1995  -23.2627   18.8145 C   0  0  0  0  0  0
  -27.6393  -18.6318   19.9039 N   0  0  0  0  0  0
  -29.8982  -15.7144   20.7524 N   0  0  0  0  0  0
  -31.4689  -12.4823   19.1295 H   0  0  0  0  0  0
  -30.3458  -11.3857   19.8829 H   0  0  0  0  0  0
  -29.7585  -11.7455   17.4615 H   0  0  0  0  0  0
  -29.6352  -13.4703   17.7399 H   0  0  0  0  0  0
  -27.8897  -11.2784   18.9027 H   0  0  0  0  0  0
  -27.3558  -12.5139   17.7976 H   0  0  0  0  0  0
  -27.6586  -14.2462   19.4876 H   0  0  0  0  0  0
  -28.7025  -12.0980   21.3931 H   0  0  0  0  0  0
  -28.4522  -13.7774   21.7986 H   0  0  0  0  0  0
  -25.2742   -9.5691   22.4786 H   0  0  0  0  0  0
  -23.9983   -7.4627   22.7473 H   0  0  0  0  0  0
  -21.0836   -8.8755   19.8943 H   0  0  0  0  0  0
  -22.3674  -10.9678   19.6141 H   0  0  0  0  0  0
  -21.1978   -7.6129   23.9692 H   0  0  0  0  0  0
  -21.1504   -6.0527   25.9078 H   0  0  0  0  0  0
  -22.0596   -2.7596   23.2853 H   0  0  0  0  0  0
  -22.4027  -11.9931   22.4826 H   0  0  0  0  0  0
  -21.1056  -13.1295   22.2510 H   0  0  0  0  0  0
  -24.6843  -15.8504   20.5153 H   0  0  0  0  0  0
  -26.3042  -15.6174   20.1133 H   0  0  0  0  0  0
  -26.7164  -32.5526   23.1058 H   0  0  0  0  0  0
  -24.9943  -33.9626   25.0354 H   0  0  0  0  0  0
  -22.7090  -31.3133   21.4082 H   0  0  0  0  0  0
  -23.3731  -35.9667   23.3335 H   0  0  0  0  0  0
  -24.3606  -36.8938   22.2054 H   0  0  0  0  0  0
  -23.7261  -37.6519   23.6657 H   0  0  0  0  0  0
  -26.0492  -31.5684   20.5856 H   0  0  0  0  0  0
  -26.8375  -30.8768   21.9692 H   0  0  0  0  0  0
  -28.1012  -28.9941   21.1889 H   0  0  0  0  0  0
  -25.9357  -25.9306   19.0269 H   0  0  0  0  0  0
  -23.9504  -27.2976   19.0362 H   0  0  0  0  0  0
  -23.7480  -30.6071   19.3998 H   0  0  0  0  0  0
  -22.7440  -29.2601   19.8507 H   0  0  0  0  0  0
  -25.1309  -36.1924   25.0803 H   0  0  0  0  0  0
  -21.0054  -28.3344   24.1374 H   0  0  0  0  0  0
  -20.5793  -26.2363   23.3600 H   0  0  0  0  0  0
  -21.6656  -26.7568   22.1089 H   0  0  0  0  0  0
  -19.6955  -25.6357   21.1277 H   0  0  0  0  0  0
  -19.6692  -27.3252   20.6746 H   0  0  0  0  0  0
  -17.4223  -26.6793   21.4063 H   0  0  0  0  0  0
  -18.0352  -26.0109   22.9029 H   0  0  0  0  0  0
  -19.7980  -30.7312   24.2332 H   0  0  0  0  0  0
  -17.5069  -31.6311   24.5199 H   0  0  0  0  0  0
  -15.5404  -30.3101   23.7522 H   0  0  0  0  0  0
  -15.8728  -28.0882   22.7046 H   0  0  0  0  0  0
  -24.5862  -30.7029   25.7601 H   0  0  0  0  0  0
  -24.8853  -32.2853   26.4664 H   0  0  0  0  0  0
  -25.7946  -30.8854   27.0133 H   0  0  0  0  0  0
  -26.2863  -29.6761   24.1015 H   0  0  0  0  0  0
  -27.4162  -29.7194   25.4360 H   0  0  0  0  0  0
  -27.8637  -30.4363   23.9046 H   0  0  0  0  0  0
  -27.2694  -33.3528   26.1970 H   0  0  0  0  0  0
  -28.3854  -32.6780   25.0224 H   0  0  0  0  0  0
  -28.0712  -31.8344   26.5312 H   0  0  0  0  0  0
  -28.2604  -38.0105   24.7479 H   0  0  0  0  0  0
  -28.1040  -36.2634   24.6350 H   0  0  0  0  0  0
  -27.2288  -37.1555   25.8872 H   0  0  0  0  0  0
  -20.9344  -29.8862   21.6904 H   0  0  0  0  0  0
  -26.0175  -38.2841   24.1432 H   0  0  0  0  0  0
  -29.9095  -21.1235   20.2749 H   0  0  0  0  0  0
  -24.8122  -18.2228   20.6439 H   0  0  0  0  0  0
  -25.4502  -17.7108   19.0811 H   0  0  0  0  0  0
  -24.4982  -19.1716   19.1828 H   0  0  0  0  0  0
  -20.2163  -24.1806   18.8323 H   0  0  0  0  0  0
  -20.6629  -23.4307   20.3571 H   0  0  0  0  0  0
  -20.1948  -22.4242   18.9932 H   0  0  0  0  0  0
  -21.7495  -23.8808   16.7725 H   0  0  0  0  0  0
  -21.8230  -22.1325   16.9893 H   0  0  0  0  0  0
  -23.3041  -23.0849   16.9381 H   0  0  0  0  0  0
  -27.5079  -23.2826   21.4648 H   0  0  0  0  0  0
  -26.8626  -23.3797   19.8639 H   0  0  0  0  0  0
  -25.3083  -22.2200   21.2744 H   0  0  0  0  0  0
  -24.5388  -20.7176   20.9929 H   0  0  0  0  0  0
  -30.9195  -18.8633   19.7741 H   0  0  0  0  0  0
  -29.9357  -17.7543   18.9086 H   0  0  0  0  0  0
  -29.3938  -23.3899   19.1356 H   0  0  0  0  0  0
  -29.6420  -24.0642   20.7097 H   0  0  0  0  0  0
  -24.5925  -21.4103   18.4139 H   0  0  0  0  0  0
  -24.8608  -23.0183   19.0358 H   0  0  0  0  0  0
  -22.7989  -22.3346   20.6459 H   0  0  0  0  0  0
  -22.4721  -21.1818   19.3836 H   0  0  0  0  0  0
  -29.9951  -17.4690   21.9510 H   0  0  0  0  0  0
  -31.4319  -17.1065   21.0659 H   0  0  0  0  0  0
  -27.7651  -25.2289   18.5257 H   0  0  0  0  0  0
  -29.4008  -25.6196   18.6826 H   0  0  0  0  0  0
  -22.6680  -24.2162   19.0668 H   0  0  0  0  0  0
  -28.9123  -15.5428   20.8828 H   0  0  0  0  0  0
  1 25  1  0  0  0
  1 30  2  0  0  0
  1 89  1  0  0  0
  2  3  1  0  0  0
  2 25  1  0  0  0
  2 90  1  0  0  0
  2 91  1  0  0  0
  3  4  1  0  0  0
  3 92  1  0  0  0
  3 93  1  0  0  0
  4  5  1  0  0  0
  4 94  1  0  0  0
  4 95  1  0  0  0
  5  6  1  0  0  0
  5 26  1  0  0  0
  5 96  1  0  0  0
  6 25  1  0  0  0
  6 97  1  0  0  0
  6 98  1  0  0  0
  7  8  2  0  0  0
  7 26  1  0  0  0
  7 29  1  0  0  0
  8  9  1  0  0  0
  8 22  1  0  0  0
  9 10  1  0  0  0
  9 27  2  0  0  0
 10 11  2  0  0  0
 10 15  1  0  0  0
 11 12  1  0  0  0
 11 99  1  0  0  0
 12 13  2  0  0  0
 12100  1  0  0  0
 13 14  1  0  0  0
 13 31  1  0  0  0
 14 15  2  0  0  0
 14101  1  0  0  0
 15102  1  0  0  0
 16 17  2  0  0  0
 16 21  1  0  0  0
 16 31  1  0  0  0
 17 18  1  0  0  0
 17103  1  0  0  0
 18 19  2  0  0  0
 18104  1  0  0  0
 19 20  1  0  0  0
 19 24  1  0  0  0
 20 21  2  0  0  0
 20105  1  0  0  0
 21 23  1  0  0  0
 22 28  1  0  0  0
 22 32  2  0  0  0
 26 27  1  0  0  0
 28106  1  0  0  0
 28107  1  0  0  0
 29108  1  0  0  0
 29109  1  0  0  0
 33 34  1  0  0  0
 33 66  1  0  0  0
 33 70  2  0  0  0
 34 36  1  0  0  0
 34 59  1  0  0  0
 34110  1  0  0  0
 35 44  2  0  0  0
 35 45  1  0  0  0
 35 68  1  0  0  0
 36 56  1  0  0  0
 36111  1  0  0  0
 37 39  1  0  0  0
 37 47  1  0  0  0
 37 66  1  0  0  0
 37112  1  0  0  0
 38 43  2  0  0  0
 38 46  1  0  0  0
 38 47  1  0  0  0
 39 64  1  0  0  0
 39 67  2  0  0  0
 40 52  1  0  0  0
 40 53  2  0  0  0
 40 58  1  0  0  0
 41113  1  0  0  0
 41114  1  0  0  0
 41115  1  0  0  0
 41 48  1  0  0  0
 42 43  1  0  0  0
 42 66  1  0  0  0
 42116  1  0  0  0
 42117  1  0  0  0
 43 44  1  0  0  0
 44118  1  0  0  0
 45 46  2  0  0  0
 45119  1  0  0  0
 46120  1  0  0  0
 47121  1  0  0  0
 47122  1  0  0  0
 48 56  1  0  0  0
 48 65  1  0  0  0
 48123  1  0  0  0
 49 50  1  0  0  0
 49 53  1  0  0  0
 49 64  1  0  0  0
 49124  1  0  0  0
 50 51  1  0  0  0
 50125  1  0  0  0
 50126  1  0  0  0
 51 52  1  0  0  0
 51127  1  0  0  0
 51128  1  0  0  0
 52129  1  0  0  0
 52130  1  0  0  0
 53 54  1  0  0  0
 54 55  2  0  0  0
 54131  1  0  0  0
 55 57  1  0  0  0
 55132  1  0  0  0
 56 69  2  0  0  0
 57 58  2  0  0  0
 57133  1  0  0  0
 58134  1  0  0  0
 59 60  1  0  0  0
 59 61  1  0  0  0
 59 62  1  0  0  0
 60135  1  0  0  0
 60136  1  0  0  0
 60137  1  0  0  0
 61138  1  0  0  0
 61139  1  0  0  0
 61140  1  0  0  0
 62141  1  0  0  0
 62142  1  0  0  0
 62143  1  0  0  0
 63 65  1  0  0  0
 63144  1  0  0  0
 63145  1  0  0  0
 63146  1  0  0  0
 64147  1  0  0  0
 65148  1  0  0  0
 68 86  1  0  0  0
 71 72  2  0  0  0
 71 74  1  0  0  0
 71149  1  0  0  0
 72 73  1  0  0  0
 72 79  1  0  0  0
 73 75  2  0  0  0
 73 80  1  0  0  0
 74 81  1  0  0  0
 74 88  2  0  0  0
 75 76  1  0  0  0
 75 88  1  0  0  0
 76150  1  0  0  0
 76151  1  0  0  0
 76152  1  0  0  0
 77153  1  0  0  0
 77154  1  0  0  0
 77155  1  0  0  0
 77 87  1  0  0  0
 78 87  1  0  0  0
 78156  1  0  0  0
 78157  1  0  0  0
 78158  1  0  0  0
 79 82  1  0  0  0
 79159  1  0  0  0
 79160  1  0  0  0
 80 83  1  0  0  0
 80161  1  0  0  0
 80162  1  0  0  0
 81 85  1  0  0  0
 81163  1  0  0  0
 81164  1  0  0  0
 82 86  1  0  0  0
 82165  1  0  0  0
 82166  1  0  0  0
 83 84  1  0  0  0
 83167  1  0  0  0
 83168  1  0  0  0
 84 87  1  0  0  0
 84169  1  0  0  0
 84170  1  0  0  0
 85 89  1  0  0  0
 85171  1  0  0  0
 85172  1  0  0  0
 86173  1  0  0  0
 86174  1  0  0  0
 87175  1  0  0  0
 89176  1  0  0  0
M  ISO  4   1 100  68 101  86 101  89 100
M  END
> <chiral flag>
0

> <version>
0

> <s_m_source_file>
/data/baiqing/PycharmProjects/Reinvent-master-3.2/result/LINK_invent/BTK/process_docking_weight1_custom_sum_contain_oxygen_bond_distance_aromatic_linkinvent_7_9_3/rearranged_h_0091.sdf

> <i_m_source_file_index>
18

> <r_mmod_Potential_Energy-OPLS-2005>
-89.3421096801758

> <r_mmod_Stretch_Energy-OPLS-2005>
71.5106201171875

> <r_mmod_Bend_Energy-OPLS-2005>
167.077911376953

> <r_mmod_Torsional_Energy-OPLS-2005>
233.263366699219

> <r_mmod_Improper_Torsional_Energy-OPLS-2005>
4.97388792037964

> <r_mmod_Van_der_Waal_Energy-OPLS-2005>
141.858642578125

> <r_mmod_Electrostatic_Energy-OPLS-2005>
-541.515747070312

> <r_mmod_Solvation_Energy-OPLS-2005>
-207.065643310547

> <b_mmod_Minimization_Converged-OPLS-2005>
0

> <r_mmod_RMS_Derivative-OPLS-2005>
5.19828271865845

$$$$
18
                    3D
 Structure written by MMmdl.
171179  0  0  1  0            999 V2000
  -30.5252  -14.9747   20.4172 C   0  0  0  0  0  0
  -30.4432  -12.6109   19.4858 C   0  0  0  0  0  0
  -29.5186  -12.5300   18.2494 C   0  0  0  0  0  0
  -28.0548  -12.3099   18.6762 C   0  0  0  0  0  0
  -27.6279  -13.2473   19.8360 C   0  0  2  0  0  0
  -28.6750  -13.2873   20.9679 C   0  0  0  0  0  0
  -25.2463  -13.8220   20.5721 C   0  0  0  0  0  0
  -24.1778  -13.0445   20.9237 C   0  0  0  0  0  0
  -24.6389  -11.6930   20.8765 C   0  0  0  0  0  0
  -23.9074  -10.4289   21.0403 C   0  0  0  0  0  0
  -24.3621   -9.4206   21.9181 C   0  0  0  0  0  0
  -23.6288   -8.2250   22.0764 C   0  0  0  0  0  0
  -22.4276   -8.0282   21.3550 C   0  0  0  0  0  0
  -21.9908   -9.0260   20.4661 C   0  0  0  0  0  0
  -22.7244  -10.2131   20.3061 C   0  0  0  0  0  0
  -21.6855   -6.0724   22.5268 C   0  0  0  0  0  0
  -21.4013   -6.5635   23.8199 C   0  0  0  0  0  0
  -21.3659   -5.6792   24.9168 C   0  0  0  0  0  0
  -21.6041   -4.3051   24.7227 C   0  0  0  0  0  0
  -21.8825   -3.8140   23.4349 C   0  0  0  0  0  0
  -21.9194   -4.6949   22.3398 C   0  0  0  0  0  0
  -22.7798  -13.5215   21.1879 C   0  0  0  0  0  0
  -22.1662   -4.2127   21.0975 F   0  0  0  0  0  0
  -21.5630   -3.4545   25.7748 F   0  0  0  0  0  0
  -29.9390  -13.7113   20.3550 N   0  0  0  0  0  0
  -26.2883  -12.9442   20.3261 N   0  0  0  0  0  0
  -25.9326  -11.6570   20.5755 N   0  0  0  0  0  0
  -22.0454  -12.8202   22.0434 N   0  0  0  0  0  0
  -25.4110  -15.1952   20.4128 N   0  0  0  0  0  0
  -31.7415  -15.0365   20.2052 O   0  0  0  0  0  0
  -21.6650   -6.8873   21.4232 O   0  0  0  0  0  0
  -22.3487  -14.5518   20.6718 O   0  0  0  0  0  0
  -24.6461  -31.8387   23.1884 C   0  0  0  0  0  0
  -25.9195  -32.4681   23.8302 C   0  0  1  0  0  0
  -27.2117  -27.1016   20.1593 C   0  0  0  0  0  0
  -25.5893  -33.8493   24.2187 N   0  0  0  0  0  0
  -23.4520  -30.4595   21.5349 C   0  0  2  0  0  0
  -24.9035  -28.8813   20.1145 C   0  0  0  0  0  0
  -22.7587  -29.4504   22.4850 C   0  0  0  0  0  0
  -18.0285  -28.1399   22.8465 C   0  0  0  0  0  0
  -24.1475  -36.7287   23.2643 C   0  0  0  0  0  0
  -26.0125  -30.7050   21.3894 C   0  0  0  0  0  0
  -26.0856  -29.3109   20.7346 C   0  0  0  0  0  0
  -27.2442  -28.4396   20.7336 C   0  0  0  0  0  0
  -26.0108  -26.7880   19.4893 C   0  0  0  0  0  0
  -24.8814  -27.6345   19.4772 C   0  0  0  0  0  0
  -23.6835  -29.7881   20.1562 C   0  0  0  0  0  0
  -25.4101  -36.3034   24.0319 C   0  0  1  0  0  0
  -20.5902  -28.3715   23.1226 C   0  0  2  0  0  0
  -20.6767  -26.9405   22.5407 C   0  0  0  0  0  0
  -19.5747  -26.6363   21.5209 C   0  0  0  0  0  0
  -18.1928  -26.7926   22.1619 C   0  0  0  0  0  0
  -19.1550  -28.8866   23.2837 C   0  0  0  0  0  0
  -18.9467  -30.1450   23.8871 C   0  0  0  0  0  0
  -17.6471  -30.6591   24.0545 C   0  0  0  0  0  0
  -25.9047  -34.9407   23.5086 C   0  0  0  0  0  0
  -16.5350  -29.9084   23.6342 C   0  0  0  0  0  0
  -16.7271  -28.6506   23.0353 C   0  0  0  0  0  0
  -26.4500  -31.6565   25.0752 C   0  0  0  0  0  0
  -25.3654  -31.3756   26.1441 C   0  0  0  0  0  0
  -27.0366  -30.2953   24.6359 C   0  0  0  0  0  0
  -27.6038  -32.4352   25.7520 C   0  0  0  0  0  0
  -27.5578  -37.1782   24.8448 C   0  0  0  0  0  0
  -21.4267  -29.3047   22.3605 N   0  0  0  0  0  0
  -26.4274  -37.3742   23.9410 N   0  0  0  0  0  0
  -24.7240  -31.0228   22.0925 N   0  0  0  0  0  0
  -23.4227  -28.8027   23.2979 O   0  0  0  0  0  0
  -28.2396  -26.0798   20.1911 O   0  0  0  0  0  0
  -26.5684  -34.8893   22.4688 O   0  0  0  0  0  0
  -23.5567  -32.1286   23.7086 O   0  0  0  0  0  0
  -27.6206  -19.3163   21.8208 C   0  0  0  0  0  0
  -26.9858  -21.9935   21.8681 C   0  0  0  0  0  0
  -26.5918  -19.7514   22.6654 C   0  0  0  0  0  0
  -28.0647  -21.6484   21.0012 C   0  0  0  0  0  0
  -28.3981  -20.1471   20.9731 C   0  0  0  0  0  0
  -26.2507  -21.1112   22.6824 C   0  0  0  0  0  0
  -25.8448  -18.7259   23.5028 C   0  0  0  0  0  0
  -23.2042  -20.8232   21.9547 C   0  0  0  0  0  0
  -25.5067  -22.8039   24.4481 C   0  0  0  0  0  0
  -30.4024  -19.8993   19.3359 C   0  0  0  0  0  0
  -28.6038  -23.0460   20.2721 C   0  0  0  0  0  0
  -23.8557  -22.0163   22.6717 C   0  0  0  0  0  0
  -30.0516  -17.6922   20.7941 C   0  0  0  0  0  0
  -27.8994  -24.5928   20.5807 C   0  0  0  0  0  0
  -25.0825  -21.6418   23.5318 C   0  0  1  0  0  0
  -29.3492  -19.1086   20.1217 C   0  0  1  0  0  0
  -29.7301  -16.1581   20.5199 N   0  0  0  0  0  0
  -31.4717  -12.7860   19.1662 H   0  0  0  0  0  0
  -30.4541  -11.6647   20.0280 H   0  0  0  0  0  0
  -29.8406  -11.7270   17.5841 H   0  0  0  0  0  0
  -29.5953  -13.4548   17.6735 H   0  0  0  0  0  0
  -27.9612  -11.2701   18.9947 H   0  0  0  0  0  0
  -27.3859  -12.4293   17.8231 H   0  0  0  0  0  0
  -27.5864  -14.2459   19.4006 H   0  0  0  0  0  0
  -28.7781  -12.3162   21.4536 H   0  0  0  0  0  0
  -28.3776  -13.9939   21.7439 H   0  0  0  0  0  0
  -25.2764   -9.5686   22.4755 H   0  0  0  0  0  0
  -23.9989   -7.4651   22.7502 H   0  0  0  0  0  0
  -21.0831   -8.8787   19.8982 H   0  0  0  0  0  0
  -22.3695  -10.9673   19.6177 H   0  0  0  0  0  0
  -21.2003   -7.6146   23.9693 H   0  0  0  0  0  0
  -21.1473   -6.0528   25.9064 H   0  0  0  0  0  0
  -22.0602   -2.7601   23.2866 H   0  0  0  0  0  0
  -22.4075  -11.9863   22.4810 H   0  0  0  0  0  0
  -21.1079  -13.1232   22.2657 H   0  0  0  0  0  0
  -24.6384  -15.8421   20.5237 H   0  0  0  0  0  0
  -26.2415  -15.6372   20.0431 H   0  0  0  0  0  0
  -26.7249  -32.5285   23.1033 H   0  0  0  0  0  0
  -24.9880  -33.9613   25.0218 H   0  0  0  0  0  0
  -22.7543  -31.2847   21.3772 H   0  0  0  0  0  0
  -23.3731  -35.9622   23.3263 H   0  0  0  0  0  0
  -24.3537  -36.8988   22.2057 H   0  0  0  0  0  0
  -23.7269  -37.6483   23.6731 H   0  0  0  0  0  0
  -26.1589  -31.4474   20.6042 H   0  0  0  0  0  0
  -26.8868  -30.7688   22.0267 H   0  0  0  0  0  0
  -28.1462  -28.7674   21.2304 H   0  0  0  0  0  0
  -25.9158  -25.8413   18.9778 H   0  0  0  0  0  0
  -23.9822  -27.3008   18.9776 H   0  0  0  0  0  0
  -23.8241  -30.5637   19.4026 H   0  0  0  0  0  0
  -22.7983  -29.2302   19.8413 H   0  0  0  0  0  0
  -25.1275  -36.1877   25.0813 H   0  0  0  0  0  0
  -20.9964  -28.3308   24.1364 H   0  0  0  0  0  0
  -20.5633  -26.2319   23.3621 H   0  0  0  0  0  0
  -21.6643  -26.7393   22.1219 H   0  0  0  0  0  0
  -19.6905  -25.6258   21.1262 H   0  0  0  0  0  0
  -19.6719  -27.3147   20.6700 H   0  0  0  0  0  0
  -17.4196  -26.6656   21.4013 H   0  0  0  0  0  0
  -18.0330  -26.0079   22.9015 H   0  0  0  0  0  0
  -19.7936  -30.7254   24.2284 H   0  0  0  0  0  0
  -17.5018  -31.6276   24.5134 H   0  0  0  0  0  0
  -15.5353  -30.2974   23.7684 H   0  0  0  0  0  0
  -15.8659  -28.0808   22.7101 H   0  0  0  0  0  0
  -24.5868  -30.7062   25.7747 H   0  0  0  0  0  0
  -24.8773  -32.2906   26.4788 H   0  0  0  0  0  0
  -25.7894  -30.8989   27.0289 H   0  0  0  0  0  0
  -26.2976  -29.6669   24.1374 H   0  0  0  0  0  0
  -27.3933  -29.7280   25.4967 H   0  0  0  0  0  0
  -27.8901  -30.4142   23.9697 H   0  0  0  0  0  0
  -27.2650  -33.3703   26.2016 H   0  0  0  0  0  0
  -28.3885  -32.6863   25.0354 H   0  0  0  0  0  0
  -28.0681  -31.8542   26.5512 H   0  0  0  0  0  0
  -28.2551  -38.0110   24.7523 H   0  0  0  0  0  0
  -28.1137  -36.2654   24.6247 H   0  0  0  0  0  0
  -27.2313  -37.1395   25.8852 H   0  0  0  0  0  0
  -20.9486  -29.8800   21.6813 H   0  0  0  0  0  0
  -26.0157  -38.2813   24.1424 H   0  0  0  0  0  0
  -27.7848  -18.2489   21.8048 H   0  0  0  0  0  0
  -26.6439  -23.0079   21.9348 H   0  0  0  0  0  0
  -26.2258  -17.7155   23.3528 H   0  0  0  0  0  0
  -24.7885  -18.7227   23.2333 H   0  0  0  0  0  0
  -25.9324  -18.9590   24.5647 H   0  0  0  0  0  0
  -22.3625  -21.1529   21.3445 H   0  0  0  0  0  0
  -22.8216  -20.0926   22.6679 H   0  0  0  0  0  0
  -23.9068  -20.3103   21.2982 H   0  0  0  0  0  0
  -26.3422  -22.5115   25.0842 H   0  0  0  0  0  0
  -24.6885  -23.1036   25.1047 H   0  0  0  0  0  0
  -25.8056  -23.6890   23.8893 H   0  0  0  0  0  0
  -29.9330  -20.6620   18.7130 H   0  0  0  0  0  0
  -30.9630  -19.2414   18.6720 H   0  0  0  0  0  0
  -31.1149  -20.3947   19.9980 H   0  0  0  0  0  0
  -28.5525  -22.8638   19.1993 H   0  0  0  0  0  0
  -29.6657  -23.1107   20.5038 H   0  0  0  0  0  0
  -23.0959  -22.4670   23.3130 H   0  0  0  0  0  0
  -24.1244  -22.7795   21.9419 H   0  0  0  0  0  0
  -29.9925  -17.7976   21.8777 H   0  0  0  0  0  0
  -31.1252  -17.7709   20.6147 H   0  0  0  0  0  0
  -27.9317  -24.6849   21.6654 H   0  0  0  0  0  0
  -26.8478  -24.4580   20.3413 H   0  0  0  0  0  0
  -24.7440  -20.8674   24.2157 H   0  0  0  0  0  0
  -28.6658  -18.7267   19.3612 H   0  0  0  0  0  0
  -28.7444  -15.9498   20.5579 H   0  0  0  0  0  0
  1 25  1  0  0  0
  1 30  2  0  0  0
  1 87  1  0  0  0
  2  3  1  0  0  0
  2 25  1  0  0  0
  2 88  1  0  0  0
  2 89  1  0  0  0
  3  4  1  0  0  0
  3 90  1  0  0  0
  3 91  1  0  0  0
  4  5  1  0  0  0
  4 92  1  0  0  0
  4 93  1  0  0  0
  5  6  1  0  0  0
  5 26  1  0  0  0
  5 94  1  0  0  0
  6 25  1  0  0  0
  6 95  1  0  0  0
  6 96  1  0  0  0
  7  8  2  0  0  0
  7 26  1  0  0  0
  7 29  1  0  0  0
  8  9  1  0  0  0
  8 22  1  0  0  0
  9 10  1  0  0  0
  9 27  2  0  0  0
 10 11  2  0  0  0
 10 15  1  0  0  0
 11 12  1  0  0  0
 11 97  1  0  0  0
 12 13  2  0  0  0
 12 98  1  0  0  0
 13 14  1  0  0  0
 13 31  1  0  0  0
 14 15  2  0  0  0
 14 99  1  0  0  0
 15100  1  0  0  0
 16 17  2  0  0  0
 16 21  1  0  0  0
 16 31  1  0  0  0
 17 18  1  0  0  0
 17101  1  0  0  0
 18 19  2  0  0  0
 18102  1  0  0  0
 19 20  1  0  0  0
 19 24  1  0  0  0
 20 21  2  0  0  0
 20103  1  0  0  0
 21 23  1  0  0  0
 22 28  1  0  0  0
 22 32  2  0  0  0
 26 27  1  0  0  0
 28104  1  0  0  0
 28105  1  0  0  0
 29106  1  0  0  0
 29107  1  0  0  0
 33 34  1  0  0  0
 33 66  1  0  0  0
 33 70  2  0  0  0
 34 36  1  0  0  0
 34 59  1  0  0  0
 34108  1  0  0  0
 35 44  2  0  0  0
 35 45  1  0  0  0
 35 68  1  0  0  0
 36 56  1  0  0  0
 36109  1  0  0  0
 37 39  1  0  0  0
 37 47  1  0  0  0
 37 66  1  0  0  0
 37110  1  0  0  0
 38 43  2  0  0  0
 38 46  1  0  0  0
 38 47  1  0  0  0
 39 64  1  0  0  0
 39 67  2  0  0  0
 40 52  1  0  0  0
 40 53  2  0  0  0
 40 58  1  0  0  0
 41111  1  0  0  0
 41112  1  0  0  0
 41113  1  0  0  0
 41 48  1  0  0  0
 42 43  1  0  0  0
 42 66  1  0  0  0
 42114  1  0  0  0
 42115  1  0  0  0
 43 44  1  0  0  0
 44116  1  0  0  0
 45 46  2  0  0  0
 45117  1  0  0  0
 46118  1  0  0  0
 47119  1  0  0  0
 47120  1  0  0  0
 48 56  1  0  0  0
 48 65  1  0  0  0
 48121  1  0  0  0
 49 50  1  0  0  0
 49 53  1  0  0  0
 49 64  1  0  0  0
 49122  1  0  0  0
 50 51  1  0  0  0
 50123  1  0  0  0
 50124  1  0  0  0
 51 52  1  0  0  0
 51125  1  0  0  0
 51126  1  0  0  0
 52127  1  0  0  0
 52128  1  0  0  0
 53 54  1  0  0  0
 54 55  2  0  0  0
 54129  1  0  0  0
 55 57  1  0  0  0
 55130  1  0  0  0
 56 69  2  0  0  0
 57 58  2  0  0  0
 57131  1  0  0  0
 58132  1  0  0  0
 59 60  1  0  0  0
 59 61  1  0  0  0
 59 62  1  0  0  0
 60133  1  0  0  0
 60134  1  0  0  0
 60135  1  0  0  0
 61136  1  0  0  0
 61137  1  0  0  0
 61138  1  0  0  0
 62139  1  0  0  0
 62140  1  0  0  0
 62141  1  0  0  0
 63 65  1  0  0  0
 63142  1  0  0  0
 63143  1  0  0  0
 63144  1  0  0  0
 64145  1  0  0  0
 65146  1  0  0  0
 68 84  1  0  0  0
 71 73  2  0  0  0
 71 75  1  0  0  0
 71147  1  0  0  0
 72 74  1  0  0  0
 72 76  2  0  0  0
 72148  1  0  0  0
 73 76  1  0  0  0
 73 77  1  0  0  0
 74 75  2  0  0  0
 74 81  1  0  0  0
 75 86  1  0  0  0
 76 85  1  0  0  0
 77149  1  0  0  0
 77150  1  0  0  0
 77151  1  0  0  0
 78 82  1  0  0  0
 78152  1  0  0  0
 78153  1  0  0  0
 78154  1  0  0  0
 79155  1  0  0  0
 79156  1  0  0  0
 79157  1  0  0  0
 79 85  1  0  0  0
 80158  1  0  0  0
 80159  1  0  0  0
 80160  1  0  0  0
 80 86  1  0  0  0
 81 84  1  0  0  0
 81161  1  0  0  0
 81162  1  0  0  0
 82 85  1  0  0  0
 82163  1  0  0  0
 82164  1  0  0  0
 83 86  1  0  0  0
 83 87  1  0  0  0
 83165  1  0  0  0
 83166  1  0  0  0
 84167  1  0  0  0
 84168  1  0  0  0
 85169  1  0  0  0
 86170  1  0  0  0
 87171  1  0  0  0
M  ISO  4   1 100  68 101  84 101  87 100
M  END
> <chiral flag>
0

> <version>
0

> <s_m_source_file>
/data/baiqing/PycharmProjects/Reinvent-master-3.2/result/LINK_invent/BTK/process_docking_weight1_custom_sum_contain_oxygen_bond_distance_aromatic_linkinvent_7_9_3/rearranged_h_0091.sdf

> <i_m_source_file_index>
19

> <r_mmod_Potential_Energy-OPLS-2005>
698.8203125

> <r_mmod_Stretch_Energy-OPLS-2005>
331.098876953125

> <r_mmod_Bend_Energy-OPLS-2005>
366.672698974609

> <r_mmod_Torsional_Energy-OPLS-2005>
250.983047485352

> <r_mmod_Improper_Torsional_Energy-OPLS-2005>
4.86308097839355

> <r_mmod_Van_der_Waal_Energy-OPLS-2005>
138.710205078125

> <r_mmod_Electrostatic_Energy-OPLS-2005>
-413.323638916016

> <r_mmod_Solvation_Energy-OPLS-2005>
-200.950439453125

> <b_mmod_Minimization_Converged-OPLS-2005>
0

> <r_mmod_RMS_Derivative-OPLS-2005>
3.37037491798401

$$$$
19
                    3D
 Structure written by MMmdl.
170178  0  0  1  0            999 V2000
  -30.7266  -14.4944   20.6271 C   0  0  0  0  0  0
  -30.4109  -12.3490   19.4207 C   0  0  0  0  0  0
  -29.4887  -12.5331   18.2015 C   0  0  0  0  0  0
  -28.0128  -12.3731   18.6128 C   0  0  0  0  0  0
  -27.6496  -13.2177   19.8640 C   0  0  2  0  0  0
  -28.6919  -13.0296   20.9872 C   0  0  0  0  0  0
  -25.2505  -13.8185   20.5670 C   0  0  0  0  0  0
  -24.1786  -13.0427   20.9174 C   0  0  0  0  0  0
  -24.6361  -11.6902   20.8732 C   0  0  0  0  0  0
  -23.9033  -10.4288   21.0406 C   0  0  0  0  0  0
  -24.3597   -9.4212   21.9175 C   0  0  0  0  0  0
  -23.6290   -8.2239   22.0745 C   0  0  0  0  0  0
  -22.4272   -8.0271   21.3534 C   0  0  0  0  0  0
  -21.9890   -9.0243   20.4635 C   0  0  0  0  0  0
  -22.7210  -10.2123   20.3049 C   0  0  0  0  0  0
  -21.6852   -6.0730   22.5278 C   0  0  0  0  0  0
  -21.4021   -6.5637   23.8214 C   0  0  0  0  0  0
  -21.3672   -5.6782   24.9177 C   0  0  0  0  0  0
  -21.6053   -4.3047   24.7220 C   0  0  0  0  0  0
  -21.8814   -3.8141   23.4342 C   0  0  0  0  0  0
  -21.9190   -4.6957   22.3403 C   0  0  0  0  0  0
  -22.7810  -13.5225   21.1867 C   0  0  0  0  0  0
  -22.1657   -4.2142   21.0976 F   0  0  0  0  0  0
  -21.5630   -3.4532   25.7736 F   0  0  0  0  0  0
  -30.0139  -13.3491   20.4252 N   0  0  0  0  0  0
  -26.2946  -12.9369   20.3297 N   0  0  0  0  0  0
  -25.9292  -11.6511   20.5714 N   0  0  0  0  0  0
  -22.0458  -12.8223   22.0425 N   0  0  0  0  0  0
  -25.4197  -15.1913   20.4115 N   0  0  0  0  0  0
  -31.8766  -14.6216   20.2091 O   0  0  0  0  0  0
  -21.6639   -6.8873   21.4237 O   0  0  0  0  0  0
  -22.3505  -14.5537   20.6715 O   0  0  0  0  0  0
  -24.6204  -31.8677   23.2083 C   0  0  0  0  0  0
  -25.9097  -32.4796   23.8381 C   0  0  1  0  0  0
  -27.2154  -27.3873   20.0887 C   0  0  0  0  0  0
  -25.5938  -33.8597   24.2311 N   0  0  0  0  0  0
  -23.4064  -30.4960   21.5511 C   0  0  2  0  0  0
  -24.8492  -28.9708   20.1044 C   0  0  0  0  0  0
  -22.7437  -29.4664   22.4957 C   0  0  0  0  0  0
  -18.0281  -28.1365   22.8500 C   0  0  0  0  0  0
  -24.1484  -36.7307   23.2628 C   0  0  0  0  0  0
  -25.9428  -30.8170   21.3706 C   0  0  0  0  0  0
  -26.0157  -29.4510   20.7140 C   0  0  0  0  0  0
  -27.1996  -28.6671   20.7079 C   0  0  0  0  0  0
  -26.0312  -26.9636   19.4352 C   0  0  0  0  0  0
  -24.8552  -27.7303   19.4576 C   0  0  0  0  0  0
  -23.6140  -29.8412   20.1613 C   0  0  0  0  0  0
  -25.4102  -36.3097   24.0338 C   0  0  1  0  0  0
  -20.5878  -28.3667   23.1311 C   0  0  2  0  0  0
  -20.6770  -26.9402   22.5416 C   0  0  0  0  0  0
  -19.5729  -26.6382   21.5227 C   0  0  0  0  0  0
  -18.1918  -26.7912   22.1648 C   0  0  0  0  0  0
  -19.1533  -28.8835   23.2904 C   0  0  0  0  0  0
  -18.9453  -30.1448   23.8897 C   0  0  0  0  0  0
  -17.6448  -30.6577   24.0574 C   0  0  0  0  0  0
  -25.9032  -34.9464   23.5118 C   0  0  0  0  0  0
  -16.5340  -29.9073   23.6326 C   0  0  0  0  0  0
  -16.7270  -28.6494   23.0345 C   0  0  0  0  0  0
  -26.4487  -31.6565   25.0714 C   0  0  0  0  0  0
  -25.3745  -31.3711   26.1456 C   0  0  0  0  0  0
  -27.0292  -30.2987   24.6107 C   0  0  0  0  0  0
  -27.6061  -32.4269   25.7487 C   0  0  0  0  0  0
  -27.5577  -37.1808   24.8459 C   0  0  0  0  0  0
  -21.4163  -29.3041   22.3729 N   0  0  0  0  0  0
  -26.4274  -37.3791   23.9416 N   0  0  0  0  0  0
  -24.6751  -31.0758   22.1002 N   0  0  0  0  0  0
  -23.4203  -28.8207   23.2998 O   0  0  0  0  0  0
  -28.3433  -26.5672   20.1506 O   0  0  0  0  0  0
  -26.5601  -34.8920   22.4675 O   0  0  0  0  0  0
  -23.5398  -32.1436   23.7485 O   0  0  0  0  0  0
  -29.2120  -21.0789   22.0322 C   0  0  0  0  0  0
  -30.4385  -19.4399   20.2484 C   0  0  0  0  0  0
  -29.8173  -19.8959   22.5312 C   0  0  0  0  0  0
  -30.4897  -19.0139   21.6066 C   0  0  0  0  0  0
  -29.2792  -21.4135   20.6735 C   0  0  0  0  0  0
  -27.9310  -18.9525   25.7467 C   0  0  0  0  0  0
  -32.2325  -18.0600   23.2281 C   0  0  0  0  0  0
  -32.4422  -17.4876   20.8794 C   0  0  0  0  0  0
  -29.7007  -19.7291   24.0534 C   0  0  0  0  0  0
  -28.5489  -22.6422   20.1029 C   0  0  0  0  0  0
  -28.7900  -18.5819   24.5260 C   0  0  0  0  0  0
  -29.0936  -24.0759   20.4216 C   0  0  0  0  0  0
  -30.6248  -16.4023   22.2905 C   0  0  0  0  0  0
  -28.1202  -25.1569   19.8618 C   0  0  0  0  0  0
  -31.3793  -17.7557   21.9720 C   0  0  0  0  0  0
  -29.8855  -20.5923   19.7977 N   0  0  0  0  0  0
  -30.0773  -15.5126   21.2388 N   0  0  0  0  0  0
  -31.4563  -12.4414   19.1228 H   0  0  0  0  0  0
  -30.3063  -11.3438   19.8290 H   0  0  0  0  0  0
  -29.7426  -11.8157   17.4205 H   0  0  0  0  0  0
  -29.6429  -13.5250   17.7727 H   0  0  0  0  0  0
  -27.8373  -11.3169   18.8157 H   0  0  0  0  0  0
  -27.3612  -12.6333   17.7773 H   0  0  0  0  0  0
  -27.6790  -14.2631   19.5578 H   0  0  0  0  0  0
  -28.6797  -12.0004   21.3489 H   0  0  0  0  0  0
  -28.4439  -13.6450   21.8529 H   0  0  0  0  0  0
  -25.2743   -9.5710   22.4737 H   0  0  0  0  0  0
  -24.0020   -7.4634   22.7459 H   0  0  0  0  0  0
  -21.0824   -8.8748   19.8945 H   0  0  0  0  0  0
  -22.3664  -10.9656   19.6158 H   0  0  0  0  0  0
  -21.2016   -7.6144   23.9721 H   0  0  0  0  0  0
  -21.1505   -6.0510   25.9077 H   0  0  0  0  0  0
  -22.0586   -2.7598   23.2836 H   0  0  0  0  0  0
  -22.4080  -11.9901   22.4854 H   0  0  0  0  0  0
  -21.1075  -13.1263   22.2621 H   0  0  0  0  0  0
  -24.6459  -15.8416   20.5106 H   0  0  0  0  0  0
  -26.2725  -15.6369   20.0960 H   0  0  0  0  0  0
  -26.7169  -32.5504   23.1150 H   0  0  0  0  0  0
  -25.0113  -33.9733   25.0469 H   0  0  0  0  0  0
  -22.6943  -31.3137   21.4202 H   0  0  0  0  0  0
  -23.3732  -35.9651   23.3280 H   0  0  0  0  0  0
  -24.3587  -36.8912   22.2036 H   0  0  0  0  0  0
  -23.7249  -37.6524   23.6633 H   0  0  0  0  0  0
  -26.0654  -31.5826   20.6015 H   0  0  0  0  0  0
  -26.8285  -30.8645   21.9919 H   0  0  0  0  0  0
  -28.0908  -29.0282   21.2034 H   0  0  0  0  0  0
  -25.9757  -26.0327   18.8915 H   0  0  0  0  0  0
  -23.9684  -27.3645   18.9582 H   0  0  0  0  0  0
  -23.7231  -30.6217   19.4060 H   0  0  0  0  0  0
  -22.7344  -29.2650   19.8642 H   0  0  0  0  0  0
  -25.1272  -36.1939   25.0834 H   0  0  0  0  0  0
  -20.9988  -28.3230   24.1422 H   0  0  0  0  0  0
  -20.5678  -26.2276   23.3600 H   0  0  0  0  0  0
  -21.6637  -26.7433   22.1209 H   0  0  0  0  0  0
  -19.6876  -25.6301   21.1226 H   0  0  0  0  0  0
  -19.6651  -27.3224   20.6777 H   0  0  0  0  0  0
  -17.4195  -26.6684   21.4044 H   0  0  0  0  0  0
  -18.0308  -26.0036   22.9019 H   0  0  0  0  0  0
  -19.7922  -30.7294   24.2237 H   0  0  0  0  0  0
  -17.4988  -31.6247   24.5198 H   0  0  0  0  0  0
  -15.5335  -30.2981   23.7630 H   0  0  0  0  0  0
  -15.8675  -28.0831   22.7024 H   0  0  0  0  0  0
  -24.5950  -30.6996   25.7825 H   0  0  0  0  0  0
  -24.8913  -32.2885   26.4823 H   0  0  0  0  0  0
  -25.8105  -30.8968   27.0257 H   0  0  0  0  0  0
  -26.2845  -29.6763   24.1129 H   0  0  0  0  0  0
  -27.3992  -29.7188   25.4569 H   0  0  0  0  0  0
  -27.8710  -30.4236   23.9298 H   0  0  0  0  0  0
  -27.2675  -33.3580   26.2042 H   0  0  0  0  0  0
  -28.3897  -32.6788   25.0330 H   0  0  0  0  0  0
  -28.0684  -31.8391   26.5423 H   0  0  0  0  0  0
  -28.2588  -38.0116   24.7537 H   0  0  0  0  0  0
  -28.1084  -36.2649   24.6237 H   0  0  0  0  0  0
  -27.2312  -37.1404   25.8870 H   0  0  0  0  0  0
  -20.9309  -29.8792   21.6996 H   0  0  0  0  0  0
  -26.0148  -38.2861   24.1438 H   0  0  0  0  0  0
  -28.6837  -21.7504   22.6963 H   0  0  0  0  0  0
  -30.8963  -18.8732   19.4541 H   0  0  0  0  0  0
  -27.2988  -18.1149   26.0439 H   0  0  0  0  0  0
  -27.2735  -19.7954   25.5264 H   0  0  0  0  0  0
  -28.5474  -19.2256   26.6045 H   0  0  0  0  0  0
  -32.6579  -19.0648   23.2041 H   0  0  0  0  0  0
  -33.0671  -17.3663   23.3331 H   0  0  0  0  0  0
  -31.6726  -17.9296   24.1512 H   0  0  0  0  0  0
  -33.0547  -18.3662   20.6759 H   0  0  0  0  0  0
  -32.0023  -17.1599   19.9394 H   0  0  0  0  0  0
  -33.1269  -16.6953   21.1844 H   0  0  0  0  0  0
  -29.2765  -20.6529   24.4497 H   0  0  0  0  0  0
  -30.6722  -19.7159   24.5412 H   0  0  0  0  0  0
  -27.5172  -22.5692   20.4494 H   0  0  0  0  0  0
  -28.4906  -22.5291   19.0196 H   0  0  0  0  0  0
  -28.1217  -18.2815   23.7174 H   0  0  0  0  0  0
  -29.3978  -17.7145   24.7763 H   0  0  0  0  0  0
  -30.0924  -24.2074   20.0032 H   0  0  0  0  0  0
  -29.1795  -24.1985   21.5012 H   0  0  0  0  0  0
  -29.8054  -16.5878   22.9791 H   0  0  0  0  0  0
  -31.3086  -15.7686   22.8596 H   0  0  0  0  0  0
  -27.1520  -24.8657   20.2695 H   0  0  0  0  0  0
  -28.0601  -25.0434   18.7780 H   0  0  0  0  0  0
  -29.0813  -15.3716   21.3080 H   0  0  0  0  0  0
  1 25  1  0  0  0
  1 30  2  0  0  0
  1 87  1  0  0  0
  2  3  1  0  0  0
  2 25  1  0  0  0
  2 88  1  0  0  0
  2 89  1  0  0  0
  3  4  1  0  0  0
  3 90  1  0  0  0
  3 91  1  0  0  0
  4  5  1  0  0  0
  4 92  1  0  0  0
  4 93  1  0  0  0
  5  6  1  0  0  0
  5 26  1  0  0  0
  5 94  1  0  0  0
  6 25  1  0  0  0
  6 95  1  0  0  0
  6 96  1  0  0  0
  7  8  2  0  0  0
  7 26  1  0  0  0
  7 29  1  0  0  0
  8  9  1  0  0  0
  8 22  1  0  0  0
  9 10  1  0  0  0
  9 27  2  0  0  0
 10 11  2  0  0  0
 10 15  1  0  0  0
 11 12  1  0  0  0
 11 97  1  0  0  0
 12 13  2  0  0  0
 12 98  1  0  0  0
 13 14  1  0  0  0
 13 31  1  0  0  0
 14 15  2  0  0  0
 14 99  1  0  0  0
 15100  1  0  0  0
 16 17  2  0  0  0
 16 21  1  0  0  0
 16 31  1  0  0  0
 17 18  1  0  0  0
 17101  1  0  0  0
 18 19  2  0  0  0
 18102  1  0  0  0
 19 20  1  0  0  0
 19 24  1  0  0  0
 20 21  2  0  0  0
 20103  1  0  0  0
 21 23  1  0  0  0
 22 28  1  0  0  0
 22 32  2  0  0  0
 26 27  1  0  0  0
 28104  1  0  0  0
 28105  1  0  0  0
 29106  1  0  0  0
 29107  1  0  0  0
 33 34  1  0  0  0
 33 66  1  0  0  0
 33 70  2  0  0  0
 34 36  1  0  0  0
 34 59  1  0  0  0
 34108  1  0  0  0
 35 44  2  0  0  0
 35 45  1  0  0  0
 35 68  1  0  0  0
 36 56  1  0  0  0
 36109  1  0  0  0
 37 39  1  0  0  0
 37 47  1  0  0  0
 37 66  1  0  0  0
 37110  1  0  0  0
 38 43  2  0  0  0
 38 46  1  0  0  0
 38 47  1  0  0  0
 39 64  1  0  0  0
 39 67  2  0  0  0
 40 52  1  0  0  0
 40 53  2  0  0  0
 40 58  1  0  0  0
 41111  1  0  0  0
 41112  1  0  0  0
 41113  1  0  0  0
 41 48  1  0  0  0
 42 43  1  0  0  0
 42 66  1  0  0  0
 42114  1  0  0  0
 42115  1  0  0  0
 43 44  1  0  0  0
 44116  1  0  0  0
 45 46  2  0  0  0
 45117  1  0  0  0
 46118  1  0  0  0
 47119  1  0  0  0
 47120  1  0  0  0
 48 56  1  0  0  0
 48 65  1  0  0  0
 48121  1  0  0  0
 49 50  1  0  0  0
 49 53  1  0  0  0
 49 64  1  0  0  0
 49122  1  0  0  0
 50 51  1  0  0  0
 50123  1  0  0  0
 50124  1  0  0  0
 51 52  1  0  0  0
 51125  1  0  0  0
 51126  1  0  0  0
 52127  1  0  0  0
 52128  1  0  0  0
 53 54  1  0  0  0
 54 55  2  0  0  0
 54129  1  0  0  0
 55 57  1  0  0  0
 55130  1  0  0  0
 56 69  2  0  0  0
 57 58  2  0  0  0
 57131  1  0  0  0
 58132  1  0  0  0
 59 60  1  0  0  0
 59 61  1  0  0  0
 59 62  1  0  0  0
 60133  1  0  0  0
 60134  1  0  0  0
 60135  1  0  0  0
 61136  1  0  0  0
 61137  1  0  0  0
 61138  1  0  0  0
 62139  1  0  0  0
 62140  1  0  0  0
 62141  1  0  0  0
 63 65  1  0  0  0
 63142  1  0  0  0
 63143  1  0  0  0
 63144  1  0  0  0
 64145  1  0  0  0
 65146  1  0  0  0
 68 84  1  0  0  0
 71 73  2  0  0  0
 71 75  1  0  0  0
 71147  1  0  0  0
 72 74  2  0  0  0
 72 86  1  0  0  0
 72148  1  0  0  0
 73 74  1  0  0  0
 73 79  1  0  0  0
 74 85  1  0  0  0
 75 80  1  0  0  0
 75 86  2  0  0  0
 76 81  1  0  0  0
 76149  1  0  0  0
 76150  1  0  0  0
 76151  1  0  0  0
 77152  1  0  0  0
 77153  1  0  0  0
 77154  1  0  0  0
 77 85  1  0  0  0
 78 85  1  0  0  0
 78155  1  0  0  0
 78156  1  0  0  0
 78157  1  0  0  0
 79 81  1  0  0  0
 79158  1  0  0  0
 79159  1  0  0  0
 80 82  1  0  0  0
 80160  1  0  0  0
 80161  1  0  0  0
 81162  1  0  0  0
 81163  1  0  0  0
 82 84  1  0  0  0
 82164  1  0  0  0
 82165  1  0  0  0
 83 85  1  0  0  0
 83 87  1  0  0  0
 83166  1  0  0  0
 83167  1  0  0  0
 84168  1  0  0  0
 84169  1  0  0  0
 87170  1  0  0  0
M  ISO  4   1 100  68 101  84 101  87 100
M  END
> <chiral flag>
0

> <version>
0

> <s_m_source_file>
/data/baiqing/PycharmProjects/Reinvent-master-3.2/result/LINK_invent/BTK/process_docking_weight1_custom_sum_contain_oxygen_bond_distance_aromatic_linkinvent_7_9_3/rearranged_h_0091.sdf

> <i_m_source_file_index>
20

> <r_mmod_Potential_Energy-OPLS-2005>
-136.906188964844

> <r_mmod_Stretch_Energy-OPLS-2005>
60.081226348877

> <r_mmod_Bend_Energy-OPLS-2005>
159.588241577148

> <r_mmod_Torsional_Energy-OPLS-2005>
240.747253417969

> <r_mmod_Improper_Torsional_Energy-OPLS-2005>
4.91084241867065

> <r_mmod_Van_der_Waal_Energy-OPLS-2005>
179.294769287109

> <r_mmod_Electrostatic_Energy-OPLS-2005>
-594.150512695312

> <r_mmod_Solvation_Energy-OPLS-2005>
-213.000778198242

> <b_mmod_Minimization_Converged-OPLS-2005>
0

> <r_mmod_RMS_Derivative-OPLS-2005>
3.14028692245483

$$$$
21
                    3D
 Structure written by MMmdl.
161169  0  0  1  0            999 V2000
  -30.6393  -14.6831   20.4818 C   0  0  0  0  0  0
  -30.4276  -12.4218   19.4679 C   0  0  0  0  0  0
  -29.5092  -12.5091   18.2309 C   0  0  0  0  0  0
  -28.0330  -12.3457   18.6406 C   0  0  0  0  0  0
  -27.6444  -13.2320   19.8553 C   0  0  2  0  0  0
  -28.6848  -13.1421   20.9921 C   0  0  0  0  0  0
  -25.2504  -13.8196   20.5701 C   0  0  0  0  0  0
  -24.1793  -13.0449   20.9202 C   0  0  0  0  0  0
  -24.6383  -11.6924   20.8740 C   0  0  0  0  0  0
  -23.9057  -10.4303   21.0396 C   0  0  0  0  0  0
  -24.3611   -9.4217   21.9171 C   0  0  0  0  0  0
  -23.6293   -8.2248   22.0735 C   0  0  0  0  0  0
  -22.4280   -8.0270   21.3520 C   0  0  0  0  0  0
  -21.9915   -9.0246   20.4623 C   0  0  0  0  0  0
  -22.7236  -10.2130   20.3036 C   0  0  0  0  0  0
  -21.6850   -6.0726   22.5271 C   0  0  0  0  0  0
  -21.4017   -6.5631   23.8205 C   0  0  0  0  0  0
  -21.3668   -5.6785   24.9170 C   0  0  0  0  0  0
  -21.6041   -4.3044   24.7227 C   0  0  0  0  0  0
  -21.8819   -3.8136   23.4348 C   0  0  0  0  0  0
  -21.9202   -4.6953   22.3403 C   0  0  0  0  0  0
  -22.7811  -13.5216   21.1879 C   0  0  0  0  0  0
  -22.1663   -4.2133   21.0980 F   0  0  0  0  0  0
  -21.5644   -3.4534   25.7743 F   0  0  0  0  0  0
  -29.9936  -13.4727   20.4170 N   0  0  0  0  0  0
  -26.2938  -12.9411   20.3296 N   0  0  0  0  0  0
  -25.9312  -11.6546   20.5745 N   0  0  0  0  0  0
  -22.0468  -12.8186   22.0415 N   0  0  0  0  0  0
  -25.4217  -15.1938   20.4145 N   0  0  0  0  0  0
  -31.8169  -14.7788   20.1308 O   0  0  0  0  0  0
  -21.6634   -6.8872   21.4228 O   0  0  0  0  0  0
  -22.3484  -14.5520   20.6718 O   0  0  0  0  0  0
  -24.6293  -31.8598   23.1976 C   0  0  0  0  0  0
  -25.9113  -32.4788   23.8334 C   0  0  1  0  0  0
  -27.2250  -27.2703   20.1193 C   0  0  0  0  0  0
  -25.5926  -33.8585   24.2282 N   0  0  0  0  0  0
  -23.4238  -30.4783   21.5462 C   0  0  2  0  0  0
  -24.8682  -28.9241   20.1112 C   0  0  0  0  0  0
  -22.7502  -29.4595   22.4983 C   0  0  0  0  0  0
  -18.0300  -28.1362   22.8553 C   0  0  0  0  0  0
  -24.1483  -36.7285   23.2642 C   0  0  0  0  0  0
  -25.9679  -30.7705   21.3756 C   0  0  0  0  0  0
  -26.0395  -29.3930   20.7190 C   0  0  0  0  0  0
  -27.2140  -28.5771   20.7160 C   0  0  0  0  0  0
  -26.0230  -26.8666   19.4885 C   0  0  0  0  0  0
  -24.8655  -27.6675   19.4899 C   0  0  0  0  0  0
  -23.6369  -29.8085   20.1630 C   0  0  0  0  0  0
  -25.4123  -36.3102   24.0334 C   0  0  1  0  0  0
  -20.5908  -28.3660   23.1299 C   0  0  2  0  0  0
  -20.6768  -26.9434   22.5264 C   0  0  0  0  0  0
  -19.5693  -26.6473   21.5123 C   0  0  0  0  0  0
  -18.1927  -26.7906   22.1677 C   0  0  0  0  0  0
  -19.1568  -28.8828   23.2929 C   0  0  0  0  0  0
  -18.9523  -30.1444   23.8916 C   0  0  0  0  0  0
  -17.6548  -30.6603   24.0592 C   0  0  0  0  0  0
  -25.9062  -34.9464   23.5120 C   0  0  0  0  0  0
  -16.5427  -29.9111   23.6396 C   0  0  0  0  0  0
  -16.7298  -28.6509   23.0436 C   0  0  0  0  0  0
  -26.4473  -31.6591   25.0718 C   0  0  0  0  0  0
  -25.3686  -31.3694   26.1424 C   0  0  0  0  0  0
  -27.0346  -30.3025   24.6191 C   0  0  0  0  0  0
  -27.6032  -32.4322   25.7500 C   0  0  0  0  0  0
  -27.5581  -37.1811   24.8475 C   0  0  0  0  0  0
  -21.4201  -29.3102   22.3811 N   0  0  0  0  0  0
  -26.4311  -37.3794   23.9390 N   0  0  0  0  0  0
  -24.6930  -31.0554   22.0953 N   0  0  0  0  0  0
  -23.4239  -28.8056   23.2995 O   0  0  0  0  0  0
  -28.3552  -26.4214   20.2013 O   0  0  0  0  0  0
  -26.5650  -34.8936   22.4696 O   0  0  0  0  0  0
  -23.5443  -32.1422   23.7271 O   0  0  0  0  0  0
  -29.6512  -19.8195   20.2966 C   0  0  0  0  0  0
  -27.2749  -19.0857   21.3722 C   0  0  0  0  0  0
  -28.6661  -20.8707   20.4274 C   0  0  0  0  0  0
  -27.4261  -20.4412   20.9820 C   0  0  0  0  0  0
  -29.3853  -18.4505   20.6760 C   0  0  0  0  0  0
  -25.5979  -21.3987   22.4934 C   0  0  0  0  0  0
  -25.1356  -20.9438   20.0437 C   0  0  0  0  0  0
  -28.8358  -22.3118   19.7656 C   0  0  0  0  0  0
  -30.3706  -17.2404   20.4592 C   0  0  0  0  0  0
  -28.7555  -23.7257   20.5500 C   0  0  0  0  0  0
  -28.4051  -25.0249   19.6542 C   0  0  0  0  0  0
  -26.1953  -21.3505   21.0763 C   0  0  0  0  0  0
  -28.2030  -18.1178   21.2216 N   0  0  0  0  0  0
  -29.9052  -15.8200   20.7134 N   0  0  0  0  0  0
  -31.4695  -12.5373   19.1633 H   0  0  0  0  0  0
  -30.3549  -11.4382   19.9342 H   0  0  0  0  0  0
  -29.7852  -11.7469   17.5005 H   0  0  0  0  0  0
  -29.6505  -13.4714   17.7359 H   0  0  0  0  0  0
  -27.8767  -11.2954   18.8881 H   0  0  0  0  0  0
  -27.3799  -12.5580   17.7933 H   0  0  0  0  0  0
  -27.6468  -14.2617   19.4933 H   0  0  0  0  0  0
  -28.6988  -12.1428   21.4296 H   0  0  0  0  0  0
  -28.4269  -13.8258   21.8025 H   0  0  0  0  0  0
  -25.2763   -9.5705   22.4732 H   0  0  0  0  0  0
  -24.0010   -7.4641   22.7448 H   0  0  0  0  0  0
  -21.0853   -8.8752   19.8920 H   0  0  0  0  0  0
  -22.3692  -10.9656   19.6132 H   0  0  0  0  0  0
  -21.1980   -7.6136   23.9712 H   0  0  0  0  0  0
  -21.1499   -6.0508   25.9076 H   0  0  0  0  0  0
  -22.0595   -2.7596   23.2852 H   0  0  0  0  0  0
  -22.4105  -11.9860   22.4816 H   0  0  0  0  0  0
  -21.1056  -13.1130   22.2584 H   0  0  0  0  0  0
  -24.6583  -15.8526   20.5223 H   0  0  0  0  0  0
  -26.2852  -15.6378   20.1289 H   0  0  0  0  0  0
  -26.7160  -32.5422   23.1058 H   0  0  0  0  0  0
  -25.0038  -33.9734   25.0403 H   0  0  0  0  0  0
  -22.7161  -31.2982   21.4016 H   0  0  0  0  0  0
  -23.3775  -35.9594   23.3334 H   0  0  0  0  0  0
  -24.3553  -36.8878   22.2045 H   0  0  0  0  0  0
  -23.7209  -37.6485   23.6645 H   0  0  0  0  0  0
  -26.1061  -31.5287   20.6039 H   0  0  0  0  0  0
  -26.8470  -30.8197   22.0074 H   0  0  0  0  0  0
  -28.1090  -28.9324   21.2082 H   0  0  0  0  0  0
  -25.9134  -25.9123   19.0038 H   0  0  0  0  0  0
  -23.9656  -27.2957   19.0201 H   0  0  0  0  0  0
  -23.7528  -30.5818   19.4027 H   0  0  0  0  0  0
  -22.7551  -29.2397   19.8689 H   0  0  0  0  0  0
  -25.1301  -36.1979   25.0836 H   0  0  0  0  0  0
  -20.9985  -28.3105   24.1416 H   0  0  0  0  0  0
  -20.5758  -26.2235   23.3387 H   0  0  0  0  0  0
  -21.6597  -26.7503   22.0936 H   0  0  0  0  0  0
  -19.6870  -25.6445   21.0974 H   0  0  0  0  0  0
  -19.6511  -27.3430   20.6766 H   0  0  0  0  0  0
  -17.4095  -26.6601   21.4183 H   0  0  0  0  0  0
  -18.0518  -26.0032   22.9103 H   0  0  0  0  0  0
  -19.8011  -30.7265   24.2259 H   0  0  0  0  0  0
  -17.5143  -31.6316   24.5147 H   0  0  0  0  0  0
  -15.5456  -30.3070   23.7756 H   0  0  0  0  0  0
  -15.8658  -28.0849   22.7197 H   0  0  0  0  0  0
  -24.5878  -30.7053   25.7693 H   0  0  0  0  0  0
  -24.8864  -32.2846   26.4867 H   0  0  0  0  0  0
  -25.7991  -30.8824   27.0188 H   0  0  0  0  0  0
  -26.2954  -29.6761   24.1202 H   0  0  0  0  0  0
  -27.4016  -29.7292   25.4709 H   0  0  0  0  0  0
  -27.8817  -30.4315   23.9463 H   0  0  0  0  0  0
  -27.2661  -33.3638   26.2060 H   0  0  0  0  0  0
  -28.3864  -32.6852   25.0342 H   0  0  0  0  0  0
  -28.0690  -31.8461   26.5432 H   0  0  0  0  0  0
  -28.2625  -38.0084   24.7548 H   0  0  0  0  0  0
  -28.1069  -36.2629   24.6321 H   0  0  0  0  0  0
  -27.2295  -37.1478   25.8878 H   0  0  0  0  0  0
  -20.9319  -29.9096   21.7289 H   0  0  0  0  0  0
  -26.0210  -38.2889   24.1360 H   0  0  0  0  0  0
  -30.6055  -20.0482   19.8380 H   0  0  0  0  0  0
  -26.3343  -18.7387   21.7724 H   0  0  0  0  0  0
  -26.3323  -21.7239   23.2316 H   0  0  0  0  0  0
  -25.2130  -20.4293   22.8088 H   0  0  0  0  0  0
  -24.7620  -22.0980   22.5379 H   0  0  0  0  0  0
  -25.5282  -21.0144   19.0288 H   0  0  0  0  0  0
  -24.2642  -21.5972   20.1028 H   0  0  0  0  0  0
  -24.7898  -19.9216   20.1990 H   0  0  0  0  0  0
  -28.0623  -22.3386   18.9965 H   0  0  0  0  0  0
  -29.7673  -22.3016   19.1989 H   0  0  0  0  0  0
  -31.2598  -17.4155   21.0636 H   0  0  0  0  0  0
  -30.7067  -17.2969   19.4225 H   0  0  0  0  0  0
  -29.7091  -23.8801   21.0573 H   0  0  0  0  0  0
  -28.0294  -23.6739   21.3564 H   0  0  0  0  0  0
  -27.5259  -24.7668   19.0795 H   0  0  0  0  0  0
  -29.1830  -25.0757   18.8933 H   0  0  0  0  0  0
  -26.4611  -22.3710   20.8271 H   0  0  0  0  0  0
  -28.9367  -15.7289   20.9804 H   0  0  0  0  0  0
  1 25  1  0  0  0
  1 30  2  0  0  0
  1 84  1  0  0  0
  2  3  1  0  0  0
  2 25  1  0  0  0
  2 85  1  0  0  0
  2 86  1  0  0  0
  3  4  1  0  0  0
  3 87  1  0  0  0
  3 88  1  0  0  0
  4  5  1  0  0  0
  4 89  1  0  0  0
  4 90  1  0  0  0
  5  6  1  0  0  0
  5 26  1  0  0  0
  5 91  1  0  0  0
  6 25  1  0  0  0
  6 92  1  0  0  0
  6 93  1  0  0  0
  7  8  2  0  0  0
  7 26  1  0  0  0
  7 29  1  0  0  0
  8  9  1  0  0  0
  8 22  1  0  0  0
  9 10  1  0  0  0
  9 27  2  0  0  0
 10 11  2  0  0  0
 10 15  1  0  0  0
 11 12  1  0  0  0
 11 94  1  0  0  0
 12 13  2  0  0  0
 12 95  1  0  0  0
 13 14  1  0  0  0
 13 31  1  0  0  0
 14 15  2  0  0  0
 14 96  1  0  0  0
 15 97  1  0  0  0
 16 17  2  0  0  0
 16 21  1  0  0  0
 16 31  1  0  0  0
 17 18  1  0  0  0
 17 98  1  0  0  0
 18 19  2  0  0  0
 18 99  1  0  0  0
 19 20  1  0  0  0
 19 24  1  0  0  0
 20 21  2  0  0  0
 20100  1  0  0  0
 21 23  1  0  0  0
 22 28  1  0  0  0
 22 32  2  0  0  0
 26 27  1  0  0  0
 28101  1  0  0  0
 28102  1  0  0  0
 29103  1  0  0  0
 29104  1  0  0  0
 33 34  1  0  0  0
 33 66  1  0  0  0
 33 70  2  0  0  0
 34 36  1  0  0  0
 34 59  1  0  0  0
 34105  1  0  0  0
 35 44  2  0  0  0
 35 45  1  0  0  0
 35 68  1  0  0  0
 36 56  1  0  0  0
 36106  1  0  0  0
 37 39  1  0  0  0
 37 47  1  0  0  0
 37 66  1  0  0  0
 37107  1  0  0  0
 38 43  2  0  0  0
 38 46  1  0  0  0
 38 47  1  0  0  0
 39 64  1  0  0  0
 39 67  2  0  0  0
 40 52  1  0  0  0
 40 53  2  0  0  0
 40 58  1  0  0  0
 41108  1  0  0  0
 41109  1  0  0  0
 41110  1  0  0  0
 41 48  1  0  0  0
 42 43  1  0  0  0
 42 66  1  0  0  0
 42111  1  0  0  0
 42112  1  0  0  0
 43 44  1  0  0  0
 44113  1  0  0  0
 45 46  2  0  0  0
 45114  1  0  0  0
 46115  1  0  0  0
 47116  1  0  0  0
 47117  1  0  0  0
 48 56  1  0  0  0
 48 65  1  0  0  0
 48118  1  0  0  0
 49 50  1  0  0  0
 49 53  1  0  0  0
 49 64  1  0  0  0
 49119  1  0  0  0
 50 51  1  0  0  0
 50120  1  0  0  0
 50121  1  0  0  0
 51 52  1  0  0  0
 51122  1  0  0  0
 51123  1  0  0  0
 52124  1  0  0  0
 52125  1  0  0  0
 53 54  1  0  0  0
 54 55  2  0  0  0
 54126  1  0  0  0
 55 57  1  0  0  0
 55127  1  0  0  0
 56 69  2  0  0  0
 57 58  2  0  0  0
 57128  1  0  0  0
 58129  1  0  0  0
 59 60  1  0  0  0
 59 61  1  0  0  0
 59 62  1  0  0  0
 60130  1  0  0  0
 60131  1  0  0  0
 60132  1  0  0  0
 61133  1  0  0  0
 61134  1  0  0  0
 61135  1  0  0  0
 62136  1  0  0  0
 62137  1  0  0  0
 62138  1  0  0  0
 63 65  1  0  0  0
 63139  1  0  0  0
 63140  1  0  0  0
 63141  1  0  0  0
 64142  1  0  0  0
 65143  1  0  0  0
 68 81  1  0  0  0
 71 73  2  0  0  0
 71 75  1  0  0  0
 71144  1  0  0  0
 72 74  2  0  0  0
 72 83  1  0  0  0
 72145  1  0  0  0
 73 74  1  0  0  0
 73 78  1  0  0  0
 74 82  1  0  0  0
 75 79  1  0  0  0
 75 83  2  0  0  0
 76146  1  0  0  0
 76147  1  0  0  0
 76148  1  0  0  0
 76 82  1  0  0  0
 77 82  1  0  0  0
 77149  1  0  0  0
 77150  1  0  0  0
 77151  1  0  0  0
 78 80  1  0  0  0
 78152  1  0  0  0
 78153  1  0  0  0
 79 84  1  0  0  0
 79154  1  0  0  0
 79155  1  0  0  0
 80 81  1  0  0  0
 80156  1  0  0  0
 80157  1  0  0  0
 81158  1  0  0  0
 81159  1  0  0  0
 82160  1  0  0  0
 84161  1  0  0  0
M  ISO  4   1 100  68 101  81 101  84 100
M  END
> <chiral flag>
0

> <version>
0

> <s_m_source_file>
/data/baiqing/PycharmProjects/Reinvent-master-3.2/result/LINK_invent/BTK/process_docking_weight1_custom_sum_contain_oxygen_bond_distance_aromatic_linkinvent_7_9_3/rearranged_h_0091.sdf

> <i_m_source_file_index>
21

> <r_mmod_Potential_Energy-OPLS-2005>
-151.361831665039

> <r_mmod_Stretch_Energy-OPLS-2005>
106.928573608398

> <r_mmod_Bend_Energy-OPLS-2005>
167.749816894531

> <r_mmod_Torsional_Energy-OPLS-2005>
203.412246704102

> <r_mmod_Improper_Torsional_Energy-OPLS-2005>
6.9816837310791

> <r_mmod_Van_der_Waal_Energy-OPLS-2005>
145.544250488281

> <r_mmod_Electrostatic_Energy-OPLS-2005>
-640.696838378906

> <r_mmod_Solvation_Energy-OPLS-2005>
-208.380966186523

> <b_mmod_Minimization_Converged-OPLS-2005>
0

> <r_mmod_RMS_Derivative-OPLS-2005>
3.39718890190125

$$$$
22
                    3D
 Structure written by MMmdl.
186194  0  0  1  0            999 V2000
  -30.5985  -14.6163   20.5067 C   0  0  0  0  0  0
  -30.3834  -12.3650   19.4639 C   0  0  0  0  0  0
  -29.4844  -12.5094   18.2162 C   0  0  0  0  0  0
  -28.0001  -12.3864   18.6124 C   0  0  0  0  0  0
  -27.6262  -13.2194   19.8694 C   0  0  2  0  0  0
  -28.6675  -13.0360   20.9987 C   0  0  0  0  0  0
  -25.2298  -13.7853   20.5526 C   0  0  0  0  0  0
  -24.1596  -13.0146   20.9166 C   0  0  0  0  0  0
  -24.6300  -11.6752   20.8797 C   0  0  0  0  0  0
  -23.9009  -10.4119   21.0526 C   0  0  0  0  0  0
  -24.3565   -9.3958   21.9201 C   0  0  0  0  0  0
  -23.6159   -8.2032   22.0756 C   0  0  0  0  0  0
  -22.4147   -8.0113   21.3543 C   0  0  0  0  0  0
  -21.9840   -9.0113   20.4668 C   0  0  0  0  0  0
  -22.7253  -10.1953   20.3089 C   0  0  0  0  0  0
  -21.6742   -6.0645   22.5297 C   0  0  0  0  0  0
  -21.3948   -6.5565   23.8242 C   0  0  0  0  0  0
  -21.3609   -5.6721   24.9200 C   0  0  0  0  0  0
  -21.6103   -4.3006   24.7260 C   0  0  0  0  0  0
  -21.8789   -3.8079   23.4365 C   0  0  0  0  0  0
  -21.9175   -4.6896   22.3429 C   0  0  0  0  0  0
  -22.7674  -13.5006   21.1836 C   0  0  0  0  0  0
  -22.1624   -4.2067   21.1016 F   0  0  0  0  0  0
  -21.5649   -3.4508   25.7788 F   0  0  0  0  0  0
  -29.9626  -13.4063   20.4259 N   0  0  0  0  0  0
  -26.2802  -12.9169   20.3281 N   0  0  0  0  0  0
  -25.9283  -11.6345   20.5953 N   0  0  0  0  0  0
  -22.0328  -12.8017   22.0489 N   0  0  0  0  0  0
  -25.3559  -15.1362   20.3603 N   0  0  0  0  0  0
  -31.8129  -14.6462   20.2778 O   0  0  0  0  0  0
  -21.6487   -6.8724   21.4219 O   0  0  0  0  0  0
  -22.3423  -14.5356   20.6812 O   0  0  0  0  0  0
  -24.6590  -31.8779   23.2241 C   0  0  0  0  0  0
  -25.9346  -32.4833   23.8602 C   0  0  1  0  0  0
  -27.0080  -27.2638   20.0491 C   0  0  0  0  0  0
  -25.6168  -33.8645   24.2476 N   0  0  0  0  0  0
  -23.4304  -30.6087   21.5082 C   0  0  2  0  0  0
  -24.8243  -29.0724   20.0711 C   0  0  0  0  0  0
  -22.7575  -29.5466   22.4135 C   0  0  0  0  0  0
  -18.0483  -28.1422   22.9115 C   0  0  0  0  0  0
  -24.1456  -36.7335   23.2627 C   0  0  0  0  0  0
  -25.9987  -30.8288   21.3500 C   0  0  0  0  0  0
  -26.0321  -29.4599   20.6695 C   0  0  0  0  0  0
  -27.1567  -28.5669   20.6334 C   0  0  0  0  0  0
  -25.7238  -26.9118   19.6261 C   0  0  0  0  0  0
  -24.6823  -27.7921   19.5555 C   0  0  0  0  0  0
  -23.6499  -30.0062   20.1053 C   0  0  0  0  0  0
  -25.4098  -36.3199   24.0338 C   0  0  1  0  0  0
  -20.6276  -28.4298   23.0770 C   0  0  2  0  0  0
  -20.7138  -27.0100   22.4887 C   0  0  0  0  0  0
  -19.5016  -26.6261   21.5840 C   0  0  0  0  0  0
  -18.2241  -26.7323   22.4152 C   0  0  0  0  0  0
  -19.1676  -28.9405   23.2714 C   0  0  0  0  0  0
  -18.9342  -30.2215   23.8205 C   0  0  0  0  0  0
  -17.6276  -30.6895   24.0136 C   0  0  0  0  0  0
  -25.9131  -34.9513   23.5219 C   0  0  0  0  0  0
  -16.5130  -29.9114   23.6015 C   0  0  0  0  0  0
  -16.7376  -28.6346   23.0453 C   0  0  0  0  0  0
  -26.4678  -31.6596   25.0864 C   0  0  0  0  0  0
  -25.3938  -31.3648   26.1556 C   0  0  0  0  0  0
  -27.0398  -30.3073   24.6106 C   0  0  0  0  0  0
  -27.6337  -32.4262   25.7585 C   0  0  0  0  0  0
  -27.5604  -37.1841   24.8489 C   0  0  0  0  0  0
  -21.4307  -29.3651   22.2678 N   0  0  0  0  0  0
  -26.4333  -37.3888   23.9433 N   0  0  0  0  0  0
  -24.7237  -31.1138   22.1019 N   0  0  0  0  0  0
  -23.4025  -28.9236   23.2663 O   0  0  0  0  0  0
  -27.9866  -26.2867   19.9243 O   0  0  0  0  0  0
  -26.5569  -34.9033   22.4734 O   0  0  0  0  0  0
  -23.5624  -32.1716   23.7544 O   0  0  0  0  0  0
  -24.9310  -20.9992   22.4157 C   0  0  0  0  0  0
  -25.7581  -21.5188   21.3303 C   0  0  0  0  0  0
  -25.5992  -19.8566   22.7774 C   0  0  0  0  0  0
  -25.2250  -18.8689   23.8539 C   0  0  0  0  0  0
  -24.1744  -23.7236   26.5744 C   0  0  0  0  0  0
  -22.2662  -25.3608   26.3056 C   0  0  0  0  0  0
  -27.0654  -17.6971   20.0316 C   0  0  0  0  0  0
  -30.2349  -16.5129   19.0378 C   0  0  0  0  0  0
  -23.7129  -21.6494   23.1622 C   0  0  0  0  0  0
  -25.6187  -22.8466   20.5739 C   0  0  0  0  0  0
  -23.7673  -23.1868   23.3513 C   0  0  0  0  0  0
  -26.1238  -22.9049   19.0989 C   0  0  0  0  0  0
  -26.5933  -24.2581   18.4250 C   0  0  0  0  0  0
  -22.7932  -23.7462   24.4189 C   0  0  0  0  0  0
  -27.8661  -18.7097   22.1639 C   0  0  0  0  0  0
  -29.0283  -16.4974   21.2702 C   0  0  0  0  0  0
  -27.8428  -25.1873   18.9046 C   0  0  0  0  0  0
  -23.3768  -24.5765   25.5710 C   0  0  0  0  0  0
  -28.3209  -17.8879   20.8955 C   0  0  1  0  0  0
  -26.8480  -20.7678   21.1466 N   0  0  0  0  0  0
  -26.7673  -19.7342   22.0134 N   0  0  0  0  0  0
  -29.8422  -15.7319   20.2416 N   0  0  0  0  0  0
  -31.4492  -12.4307   19.2114 H   0  0  0  0  0  0
  -30.2474  -11.3708   19.9048 H   0  0  0  0  0  0
  -29.7541  -11.7497   17.4803 H   0  0  0  0  0  0
  -29.6670  -13.4659   17.7389 H   0  0  0  0  0  0
  -27.7859  -11.3247   18.7681 H   0  0  0  0  0  0
  -27.3726  -12.6871   17.7760 H   0  0  0  0  0  0
  -27.6432  -14.2628   19.5631 H   0  0  0  0  0  0
  -28.6972  -11.9958   21.3538 H   0  0  0  0  0  0
  -28.4341  -13.6390   21.8793 H   0  0  0  0  0  0
  -25.2698   -9.5313   22.4789 H   0  0  0  0  0  0
  -23.9827   -7.4374   22.7420 H   0  0  0  0  0  0
  -21.0798   -8.8643   19.8955 H   0  0  0  0  0  0
  -22.3741  -10.9464   19.6171 H   0  0  0  0  0  0
  -21.1872   -7.6066   23.9704 H   0  0  0  0  0  0
  -21.1491   -6.0475   25.9113 H   0  0  0  0  0  0
  -22.0647   -2.7538   23.2940 H   0  0  0  0  0  0
  -22.3935  -11.9691   22.4826 H   0  0  0  0  0  0
  -21.0991  -13.1161   22.2754 H   0  0  0  0  0  0
  -24.5868  -15.7762   20.5301 H   0  0  0  0  0  0
  -26.2352  -15.6037   20.1749 H   0  0  0  0  0  0
  -26.7542  -32.5580   23.1466 H   0  0  0  0  0  0
  -25.0258  -33.9740   25.0560 H   0  0  0  0  0  0
  -22.7478  -31.4619   21.3695 H   0  0  0  0  0  0
  -23.3781  -35.9627   23.3343 H   0  0  0  0  0  0
  -24.3589  -36.8921   22.2077 H   0  0  0  0  0  0
  -23.7144  -37.6538   23.6619 H   0  0  0  0  0  0
  -26.1309  -31.6056   20.5876 H   0  0  0  0  0  0
  -26.8766  -30.8666   21.9716 H   0  0  0  0  0  0
  -28.1135  -28.8255   21.0715 H   0  0  0  0  0  0
  -25.3935  -25.9036   19.5190 H   0  0  0  0  0  0
  -23.7087  -27.4839   19.2121 H   0  0  0  0  0  0
  -23.8052  -30.8072   19.3738 H   0  0  0  0  0  0
  -22.7496  -29.4853   19.7708 H   0  0  0  0  0  0
  -25.1257  -36.2135   25.0840 H   0  0  0  0  0  0
  -21.0839  -28.4074   24.0771 H   0  0  0  0  0  0
  -20.7826  -26.3343   23.3451 H   0  0  0  0  0  0
  -21.6520  -26.8905   21.9143 H   0  0  0  0  0  0
  -19.6003  -25.6154   21.1913 H   0  0  0  0  0  0
  -19.4487  -27.2935   20.7207 H   0  0  0  0  0  0
  -17.3235  -26.3874   21.9196 H   0  0  0  0  0  0
  -18.3217  -26.1308   23.3322 H   0  0  0  0  0  0
  -19.7962  -30.8273   24.0856 H   0  0  0  0  0  0
  -17.4772  -31.6719   24.4243 H   0  0  0  0  0  0
  -15.5075  -30.2863   23.7009 H   0  0  0  0  0  0
  -15.9106  -28.0164   22.6983 H   0  0  0  0  0  0
  -24.6146  -30.6916   25.7887 H   0  0  0  0  0  0
  -24.9073  -32.2795   26.5097 H   0  0  0  0  0  0
  -25.8298  -30.8842   27.0321 H   0  0  0  0  0  0
  -26.2836  -29.6803   24.1360 H   0  0  0  0  0  0
  -27.4512  -29.7268   25.4360 H   0  0  0  0  0  0
  -27.8608  -30.4423   23.9016 H   0  0  0  0  0  0
  -27.3069  -33.3583   26.2246 H   0  0  0  0  0  0
  -28.4131  -32.6785   25.0345 H   0  0  0  0  0  0
  -28.1103  -31.8341   26.5440 H   0  0  0  0  0  0
  -28.2619  -38.0112   24.7565 H   0  0  0  0  0  0
  -28.1009  -36.2671   24.6235 H   0  0  0  0  0  0
  -27.2304  -37.1490   25.8859 H   0  0  0  0  0  0
  -20.9527  -29.8623   21.5237 H   0  0  0  0  0  0
  -26.0193  -38.2962   24.1461 H   0  0  0  0  0  0
  -25.3984  -17.8289   23.5795 H   0  0  0  0  0  0
  -24.1754  -19.0216   24.1314 H   0  0  0  0  0  0
  -25.7791  -19.0848   24.7656 H   0  0  0  0  0  0
  -24.7995  -24.3492   27.2163 H   0  0  0  0  0  0
  -24.8371  -23.0008   26.0686 H   0  0  0  0  0  0
  -23.5205  -23.1408   27.2326 H   0  0  0  0  0  0
  -22.6531  -25.9319   27.1393 H   0  0  0  0  0  0
  -21.5083  -24.6775   26.7037 H   0  0  0  0  0  0
  -21.7476  -26.0366   25.6191 H   0  0  0  0  0  0
  -26.6423  -18.6182   19.6072 H   0  0  0  0  0  0
  -26.3027  -17.3149   20.7060 H   0  0  0  0  0  0
  -27.2640  -16.9573   19.2518 H   0  0  0  0  0  0
  -29.5492  -16.3666   18.1975 H   0  0  0  0  0  0
  -31.2198  -16.2465   18.6527 H   0  0  0  0  0  0
  -30.3420  -17.5844   19.2175 H   0  0  0  0  0  0
  -23.7602  -21.3910   24.2154 H   0  0  0  0  0  0
  -22.7011  -21.2757   22.8990 H   0  0  0  0  0  0
  -26.1207  -23.6458   21.0928 H   0  0  0  0  0  0
  -24.5530  -23.1209   20.5206 H   0  0  0  0  0  0
  -23.5063  -23.6567   22.4027 H   0  0  0  0  0  0
  -24.7724  -23.5048   23.6880 H   0  0  0  0  0  0
  -25.2830  -22.5334   18.5038 H   0  0  0  0  0  0
  -26.9309  -22.1780   18.9855 H   0  0  0  0  0  0
  -25.7726  -24.8180   17.9956 H   0  0  0  0  0  0
  -26.8840  -23.8441   17.4694 H   0  0  0  0  0  0
  -22.1852  -22.9611   24.8454 H   0  0  0  0  0  0
  -22.0697  -24.3668   23.9058 H   0  0  0  0  0  0
  -28.6931  -19.1403   22.7014 H   0  0  0  0  0  0
  -27.4984  -17.9507   22.8547 H   0  0  0  0  0  0
  -28.1982  -15.8644   21.5662 H   0  0  0  0  0  0
  -29.6045  -16.6259   22.1961 H   0  0  0  0  0  0
  -28.2455  -25.6284   18.0001 H   0  0  0  0  0  0
  -28.5840  -24.4538   19.2020 H   0  0  0  0  0  0
  -24.0569  -25.3113   25.1628 H   0  0  0  0  0  0
  -28.9818  -18.5394   20.3247 H   0  0  0  0  0  0
  1 25  1  0  0  0
  1 30  2  0  0  0
  1 92  1  0  0  0
  2  3  1  0  0  0
  2 25  1  0  0  0
  2 93  1  0  0  0
  2 94  1  0  0  0
  3  4  1  0  0  0
  3 95  1  0  0  0
  3 96  1  0  0  0
  4  5  1  0  0  0
  4 97  1  0  0  0
  4 98  1  0  0  0
  5  6  1  0  0  0
  5 26  1  0  0  0
  5 99  1  0  0  0
  6 25  1  0  0  0
  6100  1  0  0  0
  6101  1  0  0  0
  7  8  2  0  0  0
  7 26  1  0  0  0
  7 29  1  0  0  0
  8  9  1  0  0  0
  8 22  1  0  0  0
  9 10  1  0  0  0
  9 27  2  0  0  0
 10 11  2  0  0  0
 10 15  1  0  0  0
 11 12  1  0  0  0
 11102  1  0  0  0
 12 13  2  0  0  0
 12103  1  0  0  0
 13 14  1  0  0  0
 13 31  1  0  0  0
 14 15  2  0  0  0
 14104  1  0  0  0
 15105  1  0  0  0
 16 17  2  0  0  0
 16 21  1  0  0  0
 16 31  1  0  0  0
 17 18  1  0  0  0
 17106  1  0  0  0
 18 19  2  0  0  0
 18107  1  0  0  0
 19 20  1  0  0  0
 19 24  1  0  0  0
 20 21  2  0  0  0
 20108  1  0  0  0
 21 23  1  0  0  0
 22 28  1  0  0  0
 22 32  2  0  0  0
 26 27  1  0  0  0
 28109  1  0  0  0
 28110  1  0  0  0
 29111  1  0  0  0
 29112  1  0  0  0
 33 34  1  0  0  0
 33 66  1  0  0  0
 33 70  2  0  0  0
 34 36  1  0  0  0
 34 59  1  0  0  0
 34113  1  0  0  0
 35 44  2  0  0  0
 35 45  1  0  0  0
 35 68  1  0  0  0
 36 56  1  0  0  0
 36114  1  0  0  0
 37 39  1  0  0  0
 37 47  1  0  0  0
 37 66  1  0  0  0
 37115  1  0  0  0
 38 43  2  0  0  0
 38 46  1  0  0  0
 38 47  1  0  0  0
 39 64  1  0  0  0
 39 67  2  0  0  0
 40 52  1  0  0  0
 40 53  2  0  0  0
 40 58  1  0  0  0
 41116  1  0  0  0
 41117  1  0  0  0
 41118  1  0  0  0
 41 48  1  0  0  0
 42 43  1  0  0  0
 42 66  1  0  0  0
 42119  1  0  0  0
 42120  1  0  0  0
 43 44  1  0  0  0
 44121  1  0  0  0
 45 46  2  0  0  0
 45122  1  0  0  0
 46123  1  0  0  0
 47124  1  0  0  0
 47125  1  0  0  0
 48 56  1  0  0  0
 48 65  1  0  0  0
 48126  1  0  0  0
 49 50  1  0  0  0
 49 53  1  0  0  0
 49 64  1  0  0  0
 49127  1  0  0  0
 50 51  1  0  0  0
 50128  1  0  0  0
 50129  1  0  0  0
 51 52  1  0  0  0
 51130  1  0  0  0
 51131  1  0  0  0
 52132  1  0  0  0
 52133  1  0  0  0
 53 54  1  0  0  0
 54 55  2  0  0  0
 54134  1  0  0  0
 55 57  1  0  0  0
 55135  1  0  0  0
 56 69  2  0  0  0
 57 58  2  0  0  0
 57136  1  0  0  0
 58137  1  0  0  0
 59 60  1  0  0  0
 59 61  1  0  0  0
 59 62  1  0  0  0
 60138  1  0  0  0
 60139  1  0  0  0
 60140  1  0  0  0
 61141  1  0  0  0
 61142  1  0  0  0
 61143  1  0  0  0
 62144  1  0  0  0
 62145  1  0  0  0
 62146  1  0  0  0
 63 65  1  0  0  0
 63147  1  0  0  0
 63148  1  0  0  0
 63149  1  0  0  0
 64150  1  0  0  0
 65151  1  0  0  0
 68 87  1  0  0  0
 71 72  1  0  0  0
 71 73  2  0  0  0
 71 79  1  0  0  0
 72 80  1  0  0  0
 72 90  2  0  0  0
 73 74  1  0  0  0
 73 91  1  0  0  0
 74152  1  0  0  0
 74153  1  0  0  0
 74154  1  0  0  0
 75155  1  0  0  0
 75156  1  0  0  0
 75157  1  0  0  0
 75 88  1  0  0  0
 76 88  1  0  0  0
 76158  1  0  0  0
 76159  1  0  0  0
 76160  1  0  0  0
 77161  1  0  0  0
 77162  1  0  0  0
 77163  1  0  0  0
 77 89  1  0  0  0
 78 92  1  0  0  0
 78164  1  0  0  0
 78165  1  0  0  0
 78166  1  0  0  0
 79 81  1  0  0  0
 79167  1  0  0  0
 79168  1  0  0  0
 80 82  1  0  0  0
 80169  1  0  0  0
 80170  1  0  0  0
 81 84  1  0  0  0
 81171  1  0  0  0
 81172  1  0  0  0
 82 83  1  0  0  0
 82173  1  0  0  0
 82174  1  0  0  0
 83 87  1  0  0  0
 83175  1  0  0  0
 83176  1  0  0  0
 84 88  1  0  0  0
 84177  1  0  0  0
 84178  1  0  0  0
 85 89  1  0  0  0
 85 91  1  0  0  0
 85179  1  0  0  0
 85180  1  0  0  0
 86 89  1  0  0  0
 86 92  1  0  0  0
 86181  1  0  0  0
 86182  1  0  0  0
 87183  1  0  0  0
 87184  1  0  0  0
 88185  1  0  0  0
 89186  1  0  0  0
 90 91  1  0  0  0
M  ISO  4   1 100  68 101  87 101  92 100
M  END
> <chiral flag>
0

> <version>
0

> <s_m_source_file>
/data/baiqing/PycharmProjects/Reinvent-master-3.2/result/LINK_invent/BTK/process_docking_weight1_custom_sum_contain_oxygen_bond_distance_aromatic_linkinvent_7_9_3/rearranged_h_0091.sdf

> <i_m_source_file_index>
22

> <r_mmod_Potential_Energy-OPLS-2005>
555.480346679688

> <r_mmod_Stretch_Energy-OPLS-2005>
121.72151184082

> <r_mmod_Bend_Energy-OPLS-2005>
275.044830322266

> <r_mmod_Torsional_Energy-OPLS-2005>
357.048126220703

> <r_mmod_Improper_Torsional_Energy-OPLS-2005>
27.0762042999268

> <r_mmod_Van_der_Waal_Energy-OPLS-2005>
155.378112792969

> <r_mmod_Electrostatic_Energy-OPLS-2005>
-320.231262207031

> <r_mmod_Solvation_Energy-OPLS-2005>
-195.741317749023

> <b_mmod_Minimization_Converged-OPLS-2005>
0

> <r_mmod_RMS_Derivative-OPLS-2005>
40.8885726928711

$$$$
23
                    3D
 Structure written by MMmdl.
187195  0  0  1  0            999 V2000
  -30.6920  -14.5623   20.5658 C   0  0  0  0  0  0
  -30.4307  -12.3681   19.4335 C   0  0  0  0  0  0
  -29.4980  -12.4953   18.2115 C   0  0  0  0  0  0
  -28.0208  -12.3519   18.6282 C   0  0  0  0  0  0
  -27.6541  -13.2181   19.8619 C   0  0  2  0  0  0
  -28.6996  -13.0585   20.9862 C   0  0  0  0  0  0
  -25.2577  -13.8176   20.5701 C   0  0  0  0  0  0
  -24.1838  -13.0454   20.9206 C   0  0  0  0  0  0
  -24.6393  -11.6918   20.8735 C   0  0  0  0  0  0
  -23.9058  -10.4299   21.0404 C   0  0  0  0  0  0
  -24.3608   -9.4219   21.9189 C   0  0  0  0  0  0
  -23.6285   -8.2247   22.0754 C   0  0  0  0  0  0
  -22.4262   -8.0293   21.3537 C   0  0  0  0  0  0
  -21.9912   -9.0265   20.4641 C   0  0  0  0  0  0
  -22.7236  -10.2144   20.3061 C   0  0  0  0  0  0
  -21.6870   -6.0739   22.5275 C   0  0  0  0  0  0
  -21.4001   -6.5637   23.8210 C   0  0  0  0  0  0
  -21.3655   -5.6789   24.9185 C   0  0  0  0  0  0
  -21.6047   -4.3052   24.7230 C   0  0  0  0  0  0
  -21.8825   -3.8149   23.4353 C   0  0  0  0  0  0
  -21.9181   -4.6965   22.3405 C   0  0  0  0  0  0
  -22.7856  -13.5238   21.1868 C   0  0  0  0  0  0
  -22.1667   -4.2155   21.0985 F   0  0  0  0  0  0
  -21.5632   -3.4538   25.7745 F   0  0  0  0  0  0
  -30.0171  -13.3842   20.4186 N   0  0  0  0  0  0
  -26.3002  -12.9352   20.3329 N   0  0  0  0  0  0
  -25.9317  -11.6513   20.5769 N   0  0  0  0  0  0
  -22.0491  -12.8235   22.0407 N   0  0  0  0  0  0
  -25.4309  -15.1900   20.4160 N   0  0  0  0  0  0
  -31.8544  -14.6945   20.1916 O   0  0  0  0  0  0
  -21.6637   -6.8880   21.4234 O   0  0  0  0  0  0
  -22.3559  -14.5561   20.6732 O   0  0  0  0  0  0
  -24.6151  -31.8625   23.2065 C   0  0  0  0  0  0
  -25.9007  -32.4803   23.8369 C   0  0  1  0  0  0
  -27.2346  -27.3676   20.1056 C   0  0  0  0  0  0
  -25.5810  -33.8603   24.2254 N   0  0  0  0  0  0
  -23.4093  -30.4797   21.5512 C   0  0  2  0  0  0
  -24.8649  -28.9482   20.1081 C   0  0  0  0  0  0
  -22.7443  -29.4574   22.5027 C   0  0  0  0  0  0
  -18.0251  -28.1347   22.8474 C   0  0  0  0  0  0
  -24.1479  -36.7343   23.2630 C   0  0  0  0  0  0
  -25.9465  -30.8006   21.3809 C   0  0  0  0  0  0
  -26.0264  -29.4313   20.7260 C   0  0  0  0  0  0
  -27.2142  -28.6482   20.7263 C   0  0  0  0  0  0
  -26.0628  -26.9357   19.4447 C   0  0  0  0  0  0
  -24.8843  -27.7050   19.4559 C   0  0  0  0  0  0
  -23.6228  -29.8143   20.1669 C   0  0  0  0  0  0
  -25.4104  -36.3101   24.0297 C   0  0  1  0  0  0
  -20.5852  -28.3618   23.1355 C   0  0  2  0  0  0
  -20.6757  -26.9361   22.5451 C   0  0  0  0  0  0
  -19.5742  -26.6357   21.5236 C   0  0  0  0  0  0
  -18.1905  -26.7880   22.1631 C   0  0  0  0  0  0
  -19.1494  -28.8807   23.2889 C   0  0  0  0  0  0
  -18.9434  -30.1422   23.8875 C   0  0  0  0  0  0
  -17.6442  -30.6561   24.0556 C   0  0  0  0  0  0
  -25.9026  -34.9460   23.5096 C   0  0  0  0  0  0
  -16.5334  -29.9056   23.6347 C   0  0  0  0  0  0
  -16.7255  -28.6496   23.0322 C   0  0  0  0  0  0
  -26.4431  -31.6594   25.0720 C   0  0  0  0  0  0
  -25.3685  -31.3668   26.1464 C   0  0  0  0  0  0
  -27.0261  -30.3012   24.6144 C   0  0  0  0  0  0
  -27.5982  -32.4342   25.7494 C   0  0  0  0  0  0
  -27.5579  -37.1804   24.8439 C   0  0  0  0  0  0
  -21.4165  -29.2965   22.3768 N   0  0  0  0  0  0
  -26.4294  -37.3781   23.9382 N   0  0  0  0  0  0
  -24.6741  -31.0634   22.1031 N   0  0  0  0  0  0
  -23.4201  -28.8140   23.3083 O   0  0  0  0  0  0
  -28.3573  -26.5424   20.1328 O   0  0  0  0  0  0
  -26.5655  -34.8916   22.4705 O   0  0  0  0  0  0
  -23.5328  -32.1440   23.7403 O   0  0  0  0  0  0
  -30.1135  -20.3743   21.0096 C   0  0  0  0  0  0
  -29.3039  -21.3222   20.4205 C   0  0  0  0  0  0
  -28.8436  -20.7166   19.2059 C   0  0  0  0  0  0
  -29.2986  -19.4135   19.1669 C   0  0  0  0  0  0
  -28.7517  -21.9037   16.9699 C   0  0  0  0  0  0
  -34.8740  -18.0833   21.4001 C   0  0  0  0  0  0
  -33.8968  -17.0442   19.3434 C   0  0  0  0  0  0
  -30.9130  -16.8174   15.1002 C   0  0  0  0  0  0
  -28.4329  -16.7706   15.5464 C   0  0  0  0  0  0
  -28.8644  -22.6868   21.0180 C   0  0  0  0  0  0
  -27.9572  -21.3776   18.1741 C   0  0  0  0  0  0
  -28.9876  -18.3082   18.1929 C   0  0  0  0  0  0
  -29.1812  -24.0521   20.2963 C   0  0  0  0  0  0
  -29.9956  -18.1702   17.0347 C   0  0  0  0  0  0
  -32.4292  -18.5006   20.8799 C   0  0  0  0  0  0
  -30.4406  -16.9539   21.5130 C   0  0  0  0  0  0
  -28.1332  -25.1816   20.6302 C   0  0  0  0  0  0
  -33.5953  -17.4895   20.7854 C   0  0  0  0  0  0
  -31.0126  -17.9973   20.4793 C   0  0  1  0  0  0
  -29.8265  -16.8935   16.1825 C   0  0  0  0  0  0
  -30.1636  -19.2071   20.2373 N   0  0  0  0  0  0
  -29.9763  -15.6184   21.0314 N   0  0  0  0  0  0
  -30.0012  -15.8401   16.9788 F   0  0  0  0  0  0
  -31.4708  -12.4885   19.1227 H   0  0  0  0  0  0
  -30.3626  -11.3706   19.8700 H   0  0  0  0  0  0
  -29.7471  -11.7417   17.4634 H   0  0  0  0  0  0
  -29.6505  -13.4633   17.7333 H   0  0  0  0  0  0
  -27.8427  -11.2990   18.8518 H   0  0  0  0  0  0
  -27.3672  -12.5969   17.7900 H   0  0  0  0  0  0
  -27.6790  -14.2559   19.5281 H   0  0  0  0  0  0
  -28.7023  -12.0360   21.3642 H   0  0  0  0  0  0
  -28.4563  -13.6900   21.8423 H   0  0  0  0  0  0
  -25.2740   -9.5711   22.4791 H   0  0  0  0  0  0
  -23.9997   -7.4644   22.7474 H   0  0  0  0  0  0
  -21.0849   -8.8786   19.8945 H   0  0  0  0  0  0
  -22.3679  -10.9701   19.6190 H   0  0  0  0  0  0
  -21.1991   -7.6140   23.9724 H   0  0  0  0  0  0
  -21.1474   -6.0518   25.9088 H   0  0  0  0  0  0
  -22.0598   -2.7612   23.2856 H   0  0  0  0  0  0
  -22.4062  -11.9872   22.4781 H   0  0  0  0  0  0
  -21.1120  -13.1293   22.2633 H   0  0  0  0  0  0
  -24.6652  -15.8470   20.5274 H   0  0  0  0  0  0
  -26.2866  -15.6284   20.1009 H   0  0  0  0  0  0
  -26.7075  -32.5515   23.1130 H   0  0  0  0  0  0
  -24.9789  -33.9766   25.0281 H   0  0  0  0  0  0
  -22.6952  -31.2937   21.4101 H   0  0  0  0  0  0
  -23.3710  -35.9705   23.3293 H   0  0  0  0  0  0
  -24.3554  -36.9020   22.2041 H   0  0  0  0  0  0
  -23.7301  -37.6550   23.6729 H   0  0  0  0  0  0
  -26.0666  -31.5646   20.6124 H   0  0  0  0  0  0
  -26.8293  -30.8537   22.0074 H   0  0  0  0  0  0
  -28.1031  -29.0005   21.2309 H   0  0  0  0  0  0
  -26.0568  -26.0033   18.8976 H   0  0  0  0  0  0
  -24.0044  -27.3442   18.9404 H   0  0  0  0  0  0
  -23.7145  -30.5894   19.4049 H   0  0  0  0  0  0
  -22.7492  -29.2240   19.8819 H   0  0  0  0  0  0
  -25.1295  -36.1940   25.0793 H   0  0  0  0  0  0
  -20.9897  -28.3181   24.1496 H   0  0  0  0  0  0
  -20.5700  -26.2188   23.3608 H   0  0  0  0  0  0
  -21.6617  -26.7432   22.1214 H   0  0  0  0  0  0
  -19.6907  -25.6283   21.1223 H   0  0  0  0  0  0
  -19.6703  -27.3207   20.6791 H   0  0  0  0  0  0
  -17.4186  -26.6603   21.4033 H   0  0  0  0  0  0
  -18.0298  -26.0046   22.9049 H   0  0  0  0  0  0
  -19.7922  -30.7211   24.2258 H   0  0  0  0  0  0
  -17.5004  -31.6258   24.5106 H   0  0  0  0  0  0
  -15.5318  -30.2915   23.7723 H   0  0  0  0  0  0
  -15.8661  -28.0843   22.6976 H   0  0  0  0  0  0
  -24.5883  -30.6996   25.7787 H   0  0  0  0  0  0
  -24.8832  -32.2776   26.4977 H   0  0  0  0  0  0
  -25.8012  -30.8801   27.0213 H   0  0  0  0  0  0
  -26.2802  -29.6764   24.1210 H   0  0  0  0  0  0
  -27.3975  -29.7272   25.4642 H   0  0  0  0  0  0
  -27.8680  -30.4255   23.9327 H   0  0  0  0  0  0
  -27.2590  -33.3665   26.2041 H   0  0  0  0  0  0
  -28.3804  -32.6891   25.0326 H   0  0  0  0  0  0
  -28.0641  -31.8487   26.5447 H   0  0  0  0  0  0
  -28.2557  -38.0129   24.7532 H   0  0  0  0  0  0
  -28.1129  -36.2668   24.6245 H   0  0  0  0  0  0
  -27.2296  -37.1423   25.8838 H   0  0  0  0  0  0
  -20.9322  -29.8670   21.7001 H   0  0  0  0  0  0
  -26.0173  -38.2865   24.1395 H   0  0  0  0  0  0
  -30.6661  -20.4279   21.9395 H   0  0  0  0  0  0
  -28.0901  -22.3518   16.2299 H   0  0  0  0  0  0
  -29.2982  -21.1108   16.4672 H   0  0  0  0  0  0
  -29.4821  -22.6580   17.2638 H   0  0  0  0  0  0
  -35.6862  -17.3563   21.3880 H   0  0  0  0  0  0
  -34.7270  -18.3845   22.4371 H   0  0  0  0  0  0
  -35.2116  -18.9575   20.8422 H   0  0  0  0  0  0
  -34.7429  -16.3568   19.3272 H   0  0  0  0  0  0
  -34.1461  -17.8915   18.7043 H   0  0  0  0  0  0
  -33.0596  -16.5199   18.8860 H   0  0  0  0  0  0
  -30.8301  -17.6483   14.3981 H   0  0  0  0  0  0
  -30.8367  -15.8915   14.5292 H   0  0  0  0  0  0
  -31.9111  -16.8506   15.5386 H   0  0  0  0  0  0
  -28.2216  -17.6159   14.8908 H   0  0  0  0  0  0
  -27.6441  -16.7263   16.2970 H   0  0  0  0  0  0
  -28.3493  -15.8610   14.9510 H   0  0  0  0  0  0
  -29.2368  -22.7414   22.0415 H   0  0  0  0  0  0
  -27.7819  -22.6028   21.1251 H   0  0  0  0  0  0
  -27.4089  -22.1960   18.6385 H   0  0  0  0  0  0
  -27.2031  -20.6679   17.8325 H   0  0  0  0  0  0
  -27.9886  -18.4601   17.7864 H   0  0  0  0  0  0
  -28.9205  -17.3621   18.7328 H   0  0  0  0  0  0
  -29.2070  -23.9050   19.2177 H   0  0  0  0  0  0
  -30.1823  -24.3810   20.5764 H   0  0  0  0  0  0
  -31.0093  -18.1829   17.4370 H   0  0  0  0  0  0
  -29.9323  -19.0415   16.3867 H   0  0  0  0  0  0
  -32.6874  -19.3653   20.2645 H   0  0  0  0  0  0
  -32.3799  -18.8800   21.9031 H   0  0  0  0  0  0
  -29.6093  -17.4161   22.0476 H   0  0  0  0  0  0
  -31.1855  -16.7666   22.2876 H   0  0  0  0  0  0
  -28.0460  -25.2562   21.7175 H   0  0  0  0  0  0
  -27.1674  -24.7976   20.3056 H   0  0  0  0  0  0
  -33.3335  -16.6076   21.3721 H   0  0  0  0  0  0
  -31.1246  -17.4874   19.5275 H   0  0  0  0  0  0
  -29.0039  -15.4182   21.2115 H   0  0  0  0  0  0
  1 25  1  0  0  0
  1 30  2  0  0  0
  1 92  1  0  0  0
  2  3  1  0  0  0
  2 25  1  0  0  0
  2 94  1  0  0  0
  2 95  1  0  0  0
  3  4  1  0  0  0
  3 96  1  0  0  0
  3 97  1  0  0  0
  4  5  1  0  0  0
  4 98  1  0  0  0
  4 99  1  0  0  0
  5  6  1  0  0  0
  5 26  1  0  0  0
  5100  1  0  0  0
  6 25  1  0  0  0
  6101  1  0  0  0
  6102  1  0  0  0
  7  8  2  0  0  0
  7 26  1  0  0  0
  7 29  1  0  0  0
  8  9  1  0  0  0
  8 22  1  0  0  0
  9 10  1  0  0  0
  9 27  2  0  0  0
 10 11  2  0  0  0
 10 15  1  0  0  0
 11 12  1  0  0  0
 11103  1  0  0  0
 12 13  2  0  0  0
 12104  1  0  0  0
 13 14  1  0  0  0
 13 31  1  0  0  0
 14 15  2  0  0  0
 14105  1  0  0  0
 15106  1  0  0  0
 16 17  2  0  0  0
 16 21  1  0  0  0
 16 31  1  0  0  0
 17 18  1  0  0  0
 17107  1  0  0  0
 18 19  2  0  0  0
 18108  1  0  0  0
 19 20  1  0  0  0
 19 24  1  0  0  0
 20 21  2  0  0  0
 20109  1  0  0  0
 21 23  1  0  0  0
 22 28  1  0  0  0
 22 32  2  0  0  0
 26 27  1  0  0  0
 28110  1  0  0  0
 28111  1  0  0  0
 29112  1  0  0  0
 29113  1  0  0  0
 33 34  1  0  0  0
 33 66  1  0  0  0
 33 70  2  0  0  0
 34 36  1  0  0  0
 34 59  1  0  0  0
 34114  1  0  0  0
 35 44  2  0  0  0
 35 45  1  0  0  0
 35 68  1  0  0  0
 36 56  1  0  0  0
 36115  1  0  0  0
 37 39  1  0  0  0
 37 47  1  0  0  0
 37 66  1  0  0  0
 37116  1  0  0  0
 38 43  2  0  0  0
 38 46  1  0  0  0
 38 47  1  0  0  0
 39 64  1  0  0  0
 39 67  2  0  0  0
 40 52  1  0  0  0
 40 53  2  0  0  0
 40 58  1  0  0  0
 41117  1  0  0  0
 41118  1  0  0  0
 41119  1  0  0  0
 41 48  1  0  0  0
 42 43  1  0  0  0
 42 66  1  0  0  0
 42120  1  0  0  0
 42121  1  0  0  0
 43 44  1  0  0  0
 44122  1  0  0  0
 45 46  2  0  0  0
 45123  1  0  0  0
 46124  1  0  0  0
 47125  1  0  0  0
 47126  1  0  0  0
 48 56  1  0  0  0
 48 65  1  0  0  0
 48127  1  0  0  0
 49 50  1  0  0  0
 49 53  1  0  0  0
 49 64  1  0  0  0
 49128  1  0  0  0
 50 51  1  0  0  0
 50129  1  0  0  0
 50130  1  0  0  0
 51 52  1  0  0  0
 51131  1  0  0  0
 51132  1  0  0  0
 52133  1  0  0  0
 52134  1  0  0  0
 53 54  1  0  0  0
 54 55  2  0  0  0
 54135  1  0  0  0
 55 57  1  0  0  0
 55136  1  0  0  0
 56 69  2  0  0  0
 57 58  2  0  0  0
 57137  1  0  0  0
 58138  1  0  0  0
 59 60  1  0  0  0
 59 61  1  0  0  0
 59 62  1  0  0  0
 60139  1  0  0  0
 60140  1  0  0  0
 60141  1  0  0  0
 61142  1  0  0  0
 61143  1  0  0  0
 61144  1  0  0  0
 62145  1  0  0  0
 62146  1  0  0  0
 62147  1  0  0  0
 63 65  1  0  0  0
 63148  1  0  0  0
 63149  1  0  0  0
 63150  1  0  0  0
 64151  1  0  0  0
 65152  1  0  0  0
 68 87  1  0  0  0
 71 72  2  0  0  0
 71 91  1  0  0  0
 71153  1  0  0  0
 72 73  1  0  0  0
 72 80  1  0  0  0
 73 74  2  0  0  0
 73 81  1  0  0  0
 74 82  1  0  0  0
 74 91  1  0  0  0
 75 81  1  0  0  0
 75154  1  0  0  0
 75155  1  0  0  0
 75156  1  0  0  0
 76157  1  0  0  0
 76158  1  0  0  0
 76159  1  0  0  0
 76 88  1  0  0  0
 77 88  1  0  0  0
 77160  1  0  0  0
 77161  1  0  0  0
 77162  1  0  0  0
 78163  1  0  0  0
 78164  1  0  0  0
 78165  1  0  0  0
 78 90  1  0  0  0
 79 90  1  0  0  0
 79166  1  0  0  0
 79167  1  0  0  0
 79168  1  0  0  0
 80 83  1  0  0  0
 80169  1  0  0  0
 80170  1  0  0  0
 81171  1  0  0  0
 81172  1  0  0  0
 82 84  1  0  0  0
 82173  1  0  0  0
 82174  1  0  0  0
 83 87  1  0  0  0
 83175  1  0  0  0
 83176  1  0  0  0
 84 90  1  0  0  0
 84177  1  0  0  0
 84178  1  0  0  0
 85 88  1  0  0  0
 85179  1  0  0  0
 85180  1  0  0  0
 85 89  1  0  0  0
 86 89  1  0  0  0
 86 92  1  0  0  0
 86181  1  0  0  0
 86182  1  0  0  0
 87183  1  0  0  0
 87184  1  0  0  0
 88185  1  0  0  0
 89 91  1  0  0  0
 89186  1  0  0  0
 90 93  1  0  0  0
 92187  1  0  0  0
M  ISO  4   1 100  68 101  87 101  92 100
M  END
> <chiral flag>
0

> <version>
0

> <s_m_source_file>
/data/baiqing/PycharmProjects/Reinvent-master-3.2/result/LINK_invent/BTK/process_docking_weight1_custom_sum_contain_oxygen_bond_distance_aromatic_linkinvent_7_9_3/rearranged_h_0091.sdf

> <i_m_source_file_index>
23

> <r_mmod_Potential_Energy-OPLS-2005>
-34.1882553100586

> <r_mmod_Stretch_Energy-OPLS-2005>
60.352123260498

> <r_mmod_Bend_Energy-OPLS-2005>
138.230026245117

> <r_mmod_Torsional_Energy-OPLS-2005>
281.343719482422

> <r_mmod_Improper_Torsional_Energy-OPLS-2005>
3.56029391288757

> <r_mmod_Van_der_Waal_Energy-OPLS-2005>
104.278930664062

> <r_mmod_Electrostatic_Energy-OPLS-2005>
-463.292449951172

> <r_mmod_Solvation_Energy-OPLS-2005>
-190.235473632812

> <b_mmod_Minimization_Converged-OPLS-2005>
0

> <r_mmod_RMS_Derivative-OPLS-2005>
4.09923791885376

$$$$
24
                    3D
 Structure written by MMmdl.
165173  0  0  1  0            999 V2000
  -30.6920  -14.4551   20.5396 C   0  0  0  0  0  0
  -30.4329  -12.2872   19.4083 C   0  0  0  0  0  0
  -29.4906  -12.4687   18.1996 C   0  0  0  0  0  0
  -28.0072  -12.3522   18.6185 C   0  0  0  0  0  0
  -27.6635  -13.1974   19.8742 C   0  0  2  0  0  0
  -28.7100  -12.9665   20.9887 C   0  0  0  0  0  0
  -25.2629  -13.8162   20.5731 C   0  0  0  0  0  0
  -24.1845  -13.0441   20.9164 C   0  0  0  0  0  0
  -24.6383  -11.6911   20.8700 C   0  0  0  0  0  0
  -23.9030  -10.4314   21.0407 C   0  0  0  0  0  0
  -24.3601   -9.4251   21.9204 C   0  0  0  0  0  0
  -23.6276   -8.2277   22.0779 C   0  0  0  0  0  0
  -22.4255   -8.0286   21.3563 C   0  0  0  0  0  0
  -21.9884   -9.0235   20.4647 C   0  0  0  0  0  0
  -22.7196  -10.2124   20.3065 C   0  0  0  0  0  0
  -21.6867   -6.0721   22.5269 C   0  0  0  0  0  0
  -21.4019   -6.5643   23.8204 C   0  0  0  0  0  0
  -21.3660   -5.6795   24.9168 C   0  0  0  0  0  0
  -21.6074   -4.3064   24.7224 C   0  0  0  0  0  0
  -21.8846   -3.8140   23.4348 C   0  0  0  0  0  0
  -21.9195   -4.6955   22.3399 C   0  0  0  0  0  0
  -22.7867  -13.5240   21.1766 C   0  0  0  0  0  0
  -22.1667   -4.2139   21.0981 F   0  0  0  0  0  0
  -21.5632   -3.4546   25.7728 F   0  0  0  0  0  0
  -30.0383  -13.2690   20.4282 N   0  0  0  0  0  0
  -26.3048  -12.9299   20.3419 N   0  0  0  0  0  0
  -25.9301  -11.6466   20.5754 N   0  0  0  0  0  0
  -22.0541  -12.8268   22.0399 N   0  0  0  0  0  0
  -25.4342  -15.1870   20.4219 N   0  0  0  0  0  0
  -31.8336  -14.6462   20.1174 O   0  0  0  0  0  0
  -21.6653   -6.8849   21.4230 O   0  0  0  0  0  0
  -22.3507  -14.5479   20.6537 O   0  0  0  0  0  0
  -24.6112  -31.8710   23.2143 C   0  0  0  0  0  0
  -25.9023  -32.4836   23.8424 C   0  0  1  0  0  0
  -27.2295  -27.4638   20.0873 C   0  0  0  0  0  0
  -25.5901  -33.8640   24.2350 N   0  0  0  0  0  0
  -23.3977  -30.4969   21.5533 C   0  0  2  0  0  0
  -24.8428  -28.9678   20.1117 C   0  0  0  0  0  0
  -22.7394  -29.4693   22.5017 C   0  0  0  0  0  0
  -18.0269  -28.1379   22.8497 C   0  0  0  0  0  0
  -24.1484  -36.7318   23.2640 C   0  0  0  0  0  0
  -25.9240  -30.8452   21.3626 C   0  0  0  0  0  0
  -26.0022  -29.4836   20.7064 C   0  0  0  0  0  0
  -27.2019  -28.7399   20.6918 C   0  0  0  0  0  0
  -26.0578  -26.9539   19.4918 C   0  0  0  0  0  0
  -24.8652  -27.7018   19.5005 C   0  0  0  0  0  0
  -23.6011  -29.8303   20.1665 C   0  0  0  0  0  0
  -25.4102  -36.3124   24.0346 C   0  0  1  0  0  0
  -20.5863  -28.3671   23.1334 C   0  0  2  0  0  0
  -20.6765  -26.9411   22.5426 C   0  0  0  0  0  0
  -19.5739  -26.6390   21.5230 C   0  0  0  0  0  0
  -18.1914  -26.7928   22.1629 C   0  0  0  0  0  0
  -19.1517  -28.8840   23.2908 C   0  0  0  0  0  0
  -18.9448  -30.1452   23.8912 C   0  0  0  0  0  0
  -17.6451  -30.6585   24.0578 C   0  0  0  0  0  0
  -25.9034  -34.9486   23.5136 C   0  0  0  0  0  0
  -16.5343  -29.9093   23.6326 C   0  0  0  0  0  0
  -16.7260  -28.6510   23.0344 C   0  0  0  0  0  0
  -26.4458  -31.6614   25.0741 C   0  0  0  0  0  0
  -25.3729  -31.3743   26.1496 C   0  0  0  0  0  0
  -27.0259  -30.3042   24.6115 C   0  0  0  0  0  0
  -27.6036  -32.4345   25.7491 C   0  0  0  0  0  0
  -27.5586  -37.1810   24.8461 C   0  0  0  0  0  0
  -21.4134  -29.3037   22.3742 N   0  0  0  0  0  0
  -26.4290  -37.3803   23.9423 N   0  0  0  0  0  0
  -24.6627  -31.0850   22.1011 N   0  0  0  0  0  0
  -23.4181  -28.8230   23.3059 O   0  0  0  0  0  0
  -28.3740  -26.7062   20.1063 O   0  0  0  0  0  0
  -26.5588  -34.8937   22.4701 O   0  0  0  0  0  0
  -23.5318  -32.1459   23.7555 O   0  0  0  0  0  0
  -29.5145  -20.4120   17.7697 C   0  0  0  0  0  0
  -29.0937  -19.3908   18.6370 C   0  0  0  0  0  0
  -29.6357  -21.7278   18.2407 C   0  0  0  0  0  0
  -28.8164  -19.6613   19.9942 C   0  0  0  0  0  0
  -29.3730  -22.0312   19.5921 C   0  0  0  0  0  0
  -28.9996  -20.9895   20.4947 C   0  0  0  0  0  0
  -30.1623  -21.3821   22.7435 C   0  0  0  0  0  0
  -28.2960  -18.4956   20.8474 C   0  0  0  0  0  0
  -29.5136  -23.4914   20.0271 C   0  0  0  0  0  0
  -28.8242  -21.3122   21.9832 C   0  0  0  0  0  0
  -29.3770  -17.7978   21.7018 C   0  0  0  0  0  0
  -28.1680  -24.2335   20.1169 C   0  0  0  0  0  0
  -30.3502  -16.8846   20.9282 C   0  0  0  0  0  0
  -28.2576  -25.5414   20.9291 C   0  0  0  0  0  0
  -29.9384  -15.4797   20.9625 N   0  0  0  0  0  0
  -31.4758  -12.3940   19.0955 H   0  0  0  0  0  0
  -30.3474  -11.2777   19.8082 H   0  0  0  0  0  0
  -29.7127  -11.7170   17.4425 H   0  0  0  0  0  0
  -29.6717  -13.4345   17.7242 H   0  0  0  0  0  0
  -27.8068  -11.2983   18.8190 H   0  0  0  0  0  0
  -27.3583  -12.6238   17.7840 H   0  0  0  0  0  0
  -27.7102  -14.2449   19.5750 H   0  0  0  0  0  0
  -28.6794  -11.9254   21.3198 H   0  0  0  0  0  0
  -28.4848  -13.5650   21.8729 H   0  0  0  0  0  0
  -25.2773   -9.5736   22.4759 H   0  0  0  0  0  0
  -24.0006   -7.4697   22.7500 H   0  0  0  0  0  0
  -21.0820   -8.8733   19.8942 H   0  0  0  0  0  0
  -22.3661  -10.9657   19.6167 H   0  0  0  0  0  0
  -21.2027   -7.6153   23.9707 H   0  0  0  0  0  0
  -21.1425   -6.0514   25.9069 H   0  0  0  0  0  0
  -22.0620   -2.7600   23.2836 H   0  0  0  0  0  0
  -22.4142  -11.9940   22.4830 H   0  0  0  0  0  0
  -21.1178  -13.1367   22.2479 H   0  0  0  0  0  0
  -24.6635  -15.8354   20.5343 H   0  0  0  0  0  0
  -26.2735  -15.6307   20.0733 H   0  0  0  0  0  0
  -26.7108  -32.5538   23.1206 H   0  0  0  0  0  0
  -25.0063  -33.9829   25.0501 H   0  0  0  0  0  0
  -22.6834  -31.3119   21.4204 H   0  0  0  0  0  0
  -23.3744  -35.9654   23.3309 H   0  0  0  0  0  0
  -24.3579  -36.8916   22.2054 H   0  0  0  0  0  0
  -23.7232  -37.6532   23.6632 H   0  0  0  0  0  0
  -26.0395  -31.6160   20.5996 H   0  0  0  0  0  0
  -26.8101  -30.8907   21.9829 H   0  0  0  0  0  0
  -28.0932  -29.1330   21.1615 H   0  0  0  0  0  0
  -26.0638  -25.9791   19.0262 H   0  0  0  0  0  0
  -23.9751  -27.3006   19.0351 H   0  0  0  0  0  0
  -23.7007  -30.6068   19.4073 H   0  0  0  0  0  0
  -22.7231  -29.2491   19.8756 H   0  0  0  0  0  0
  -25.1273  -36.2006   25.0836 H   0  0  0  0  0  0
  -20.9952  -28.3241   24.1461 H   0  0  0  0  0  0
  -20.5701  -26.2279   23.3608 H   0  0  0  0  0  0
  -21.6633  -26.7468   22.1207 H   0  0  0  0  0  0
  -19.6904  -25.6310   21.1238 H   0  0  0  0  0  0
  -19.6677  -27.3220   20.6779 H   0  0  0  0  0  0
  -17.4192  -26.6701   21.4016 H   0  0  0  0  0  0
  -18.0287  -26.0059   22.9009 H   0  0  0  0  0  0
  -19.7926  -30.7266   24.2279 H   0  0  0  0  0  0
  -17.5006  -31.6265   24.5180 H   0  0  0  0  0  0
  -15.5345  -30.3002   23.7641 H   0  0  0  0  0  0
  -15.8657  -28.0845   22.7038 H   0  0  0  0  0  0
  -24.5910  -30.7063   25.7876 H   0  0  0  0  0  0
  -24.8895  -32.2890   26.4929 H   0  0  0  0  0  0
  -25.8084  -30.8957   27.0268 H   0  0  0  0  0  0
  -26.2792  -29.6855   24.1106 H   0  0  0  0  0  0
  -27.3943  -29.7250   25.4597 H   0  0  0  0  0  0
  -27.8681  -30.4362   23.9313 H   0  0  0  0  0  0
  -27.2645  -33.3638   26.2094 H   0  0  0  0  0  0
  -28.3804  -32.6927   25.0280 H   0  0  0  0  0  0
  -28.0730  -31.8449   26.5377 H   0  0  0  0  0  0
  -28.2605  -38.0108   24.7515 H   0  0  0  0  0  0
  -28.1077  -36.2639   24.6258 H   0  0  0  0  0  0
  -27.2306  -37.1435   25.8864 H   0  0  0  0  0  0
  -20.9293  -29.8750   21.6949 H   0  0  0  0  0  0
  -26.0181  -38.2889   24.1418 H   0  0  0  0  0  0
  -29.7314  -20.1839   16.7348 H   0  0  0  0  0  0
  -28.9735  -18.3903   18.2433 H   0  0  0  0  0  0
  -29.9461  -22.5096   17.5585 H   0  0  0  0  0  0
  -29.9970  -21.6632   23.7828 H   0  0  0  0  0  0
  -30.8469  -22.1114   22.3161 H   0  0  0  0  0  0
  -30.7039  -20.4406   22.7435 H   0  0  0  0  0  0
  -27.8185  -17.7546   20.2035 H   0  0  0  0  0  0
  -27.4782  -18.8440   21.4788 H   0  0  0  0  0  0
  -30.1813  -24.0255   19.3488 H   0  0  0  0  0  0
  -30.0181  -23.5396   20.9854 H   0  0  0  0  0  0
  -28.1643  -20.6008   22.4716 H   0  0  0  0  0  0
  -28.3109  -22.2627   22.1058 H   0  0  0  0  0  0
  -28.9026  -17.2254   22.4993 H   0  0  0  0  0  0
  -29.9639  -18.5542   22.2096 H   0  0  0  0  0  0
  -27.4329  -23.5897   20.6034 H   0  0  0  0  0  0
  -27.7683  -24.4164   19.1212 H   0  0  0  0  0  0
  -30.4568  -17.2215   19.8937 H   0  0  0  0  0  0
  -31.3437  -16.9581   21.3794 H   0  0  0  0  0  0
  -29.1153  -25.5225   21.6008 H   0  0  0  0  0  0
  -27.3917  -25.6099   21.5912 H   0  0  0  0  0  0
  -28.9892  -15.2708   21.2308 H   0  0  0  0  0  0
  1 25  1  0  0  0
  1 30  2  0  0  0
  1 85  1  0  0  0
  2  3  1  0  0  0
  2 25  1  0  0  0
  2 86  1  0  0  0
  2 87  1  0  0  0
  3  4  1  0  0  0
  3 88  1  0  0  0
  3 89  1  0  0  0
  4  5  1  0  0  0
  4 90  1  0  0  0
  4 91  1  0  0  0
  5  6  1  0  0  0
  5 26  1  0  0  0
  5 92  1  0  0  0
  6 25  1  0  0  0
  6 93  1  0  0  0
  6 94  1  0  0  0
  7  8  2  0  0  0
  7 26  1  0  0  0
  7 29  1  0  0  0
  8  9  1  0  0  0
  8 22  1  0  0  0
  9 10  1  0  0  0
  9 27  2  0  0  0
 10 11  2  0  0  0
 10 15  1  0  0  0
 11 12  1  0  0  0
 11 95  1  0  0  0
 12 13  2  0  0  0
 12 96  1  0  0  0
 13 14  1  0  0  0
 13 31  1  0  0  0
 14 15  2  0  0  0
 14 97  1  0  0  0
 15 98  1  0  0  0
 16 17  2  0  0  0
 16 21  1  0  0  0
 16 31  1  0  0  0
 17 18  1  0  0  0
 17 99  1  0  0  0
 18 19  2  0  0  0
 18100  1  0  0  0
 19 20  1  0  0  0
 19 24  1  0  0  0
 20 21  2  0  0  0
 20101  1  0  0  0
 21 23  1  0  0  0
 22 28  1  0  0  0
 22 32  2  0  0  0
 26 27  1  0  0  0
 28102  1  0  0  0
 28103  1  0  0  0
 29104  1  0  0  0
 29105  1  0  0  0
 33 34  1  0  0  0
 33 66  1  0  0  0
 33 70  2  0  0  0
 34 36  1  0  0  0
 34 59  1  0  0  0
 34106  1  0  0  0
 35 44  2  0  0  0
 35 45  1  0  0  0
 35 68  1  0  0  0
 36 56  1  0  0  0
 36107  1  0  0  0
 37 39  1  0  0  0
 37 47  1  0  0  0
 37 66  1  0  0  0
 37108  1  0  0  0
 38 43  2  0  0  0
 38 46  1  0  0  0
 38 47  1  0  0  0
 39 64  1  0  0  0
 39 67  2  0  0  0
 40 52  1  0  0  0
 40 53  2  0  0  0
 40 58  1  0  0  0
 41109  1  0  0  0
 41110  1  0  0  0
 41111  1  0  0  0
 41 48  1  0  0  0
 42 43  1  0  0  0
 42 66  1  0  0  0
 42112  1  0  0  0
 42113  1  0  0  0
 43 44  1  0  0  0
 44114  1  0  0  0
 45 46  2  0  0  0
 45115  1  0  0  0
 46116  1  0  0  0
 47117  1  0  0  0
 47118  1  0  0  0
 48 56  1  0  0  0
 48 65  1  0  0  0
 48119  1  0  0  0
 49 50  1  0  0  0
 49 53  1  0  0  0
 49 64  1  0  0  0
 49120  1  0  0  0
 50 51  1  0  0  0
 50121  1  0  0  0
 50122  1  0  0  0
 51 52  1  0  0  0
 51123  1  0  0  0
 51124  1  0  0  0
 52125  1  0  0  0
 52126  1  0  0  0
 53 54  1  0  0  0
 54 55  2  0  0  0
 54127  1  0  0  0
 55 57  1  0  0  0
 55128  1  0  0  0
 56 69  2  0  0  0
 57 58  2  0  0  0
 57129  1  0  0  0
 58130  1  0  0  0
 59 60  1  0  0  0
 59 61  1  0  0  0
 59 62  1  0  0  0
 60131  1  0  0  0
 60132  1  0  0  0
 60133  1  0  0  0
 61134  1  0  0  0
 61135  1  0  0  0
 61136  1  0  0  0
 62137  1  0  0  0
 62138  1  0  0  0
 62139  1  0  0  0
 63 65  1  0  0  0
 63140  1  0  0  0
 63141  1  0  0  0
 63142  1  0  0  0
 64143  1  0  0  0
 65144  1  0  0  0
 68 84  1  0  0  0
 71 72  2  0  0  0
 71 73  1  0  0  0
 71145  1  0  0  0
 72 74  1  0  0  0
 72146  1  0  0  0
 73 75  2  0  0  0
 73147  1  0  0  0
 74 76  2  0  0  0
 74 78  1  0  0  0
 75 76  1  0  0  0
 75 79  1  0  0  0
 76 80  1  0  0  0
 77 80  1  0  0  0
 77148  1  0  0  0
 77149  1  0  0  0
 77150  1  0  0  0
 78 81  1  0  0  0
 78151  1  0  0  0
 78152  1  0  0  0
 79 82  1  0  0  0
 79153  1  0  0  0
 79154  1  0  0  0
 80155  1  0  0  0
 80156  1  0  0  0
 81 83  1  0  0  0
 81157  1  0  0  0
 81158  1  0  0  0
 82 84  1  0  0  0
 82159  1  0  0  0
 82160  1  0  0  0
 83 85  1  0  0  0
 83161  1  0  0  0
 83162  1  0  0  0
 84163  1  0  0  0
 84164  1  0  0  0
 85165  1  0  0  0
M  ISO  4   1 100  68 101  84 101  85 100
M  END
> <chiral flag>
0

> <version>
0

> <s_m_source_file>
/data/baiqing/PycharmProjects/Reinvent-master-3.2/result/LINK_invent/BTK/process_docking_weight1_custom_sum_contain_oxygen_bond_distance_aromatic_linkinvent_7_9_3/rearranged_h_0091.sdf

> <i_m_source_file_index>
24

> <r_mmod_Potential_Energy-OPLS-2005>
-49.6872138977051

> <r_mmod_Stretch_Energy-OPLS-2005>
36.8529281616211

> <r_mmod_Bend_Energy-OPLS-2005>
88.9751739501953

> <r_mmod_Torsional_Energy-OPLS-2005>
249.246734619141

> <r_mmod_Improper_Torsional_Energy-OPLS-2005>
4.63734769821167

> <r_mmod_Van_der_Waal_Energy-OPLS-2005>
155.672805786133

> <r_mmod_Electrostatic_Energy-OPLS-2005>
-395.912902832031

> <r_mmod_Solvation_Energy-OPLS-2005>
-201.677886962891

> <b_mmod_Minimization_Converged-OPLS-2005>
0

> <r_mmod_RMS_Derivative-OPLS-2005>
4.38879060745239

$$$$
25
                    3D
 Structure written by MMmdl.
175183  0  0  1  0            999 V2000
  -30.6978  -14.4947   20.5593 C   0  0  0  0  0  0
  -30.4244  -12.3126   19.4239 C   0  0  0  0  0  0
  -29.4952  -12.5052   18.2061 C   0  0  0  0  0  0
  -28.0166  -12.3694   18.6178 C   0  0  0  0  0  0
  -27.6635  -13.2087   19.8738 C   0  0  2  0  0  0
  -28.7074  -13.0018   20.9955 C   0  0  0  0  0  0
  -25.2619  -13.8157   20.5687 C   0  0  0  0  0  0
  -24.1857  -13.0437   20.9160 C   0  0  0  0  0  0
  -24.6411  -11.6899   20.8689 C   0  0  0  0  0  0
  -23.9076  -10.4297   21.0371 C   0  0  0  0  0  0
  -24.3625   -9.4235   21.9178 C   0  0  0  0  0  0
  -23.6303   -8.2264   22.0748 C   0  0  0  0  0  0
  -22.4293   -8.0282   21.3540 C   0  0  0  0  0  0
  -21.9924   -9.0250   20.4646 C   0  0  0  0  0  0
  -22.7231  -10.2139   20.3050 C   0  0  0  0  0  0
  -21.6857   -6.0746   22.5291 C   0  0  0  0  0  0
  -21.4015   -6.5659   23.8223 C   0  0  0  0  0  0
  -21.3654   -5.6810   24.9189 C   0  0  0  0  0  0
  -21.6027   -4.3067   24.7236 C   0  0  0  0  0  0
  -21.8820   -3.8161   23.4363 C   0  0  0  0  0  0
  -21.9196   -4.6978   22.3407 C   0  0  0  0  0  0
  -22.7884  -13.5216   21.1840 C   0  0  0  0  0  0
  -22.1672   -4.2169   21.0986 F   0  0  0  0  0  0
  -21.5620   -3.4535   25.7741 F   0  0  0  0  0  0
  -30.0367  -13.3071   20.4417 N   0  0  0  0  0  0
  -26.3046  -12.9338   20.3349 N   0  0  0  0  0  0
  -25.9334  -11.6495   20.5718 N   0  0  0  0  0  0
  -22.0518  -12.8211   22.0402 N   0  0  0  0  0  0
  -25.4338  -15.1870   20.4100 N   0  0  0  0  0  0
  -31.8193  -14.6776   20.0848 O   0  0  0  0  0  0
  -21.6650   -6.8884   21.4248 O   0  0  0  0  0  0
  -22.3554  -14.5529   20.6686 O   0  0  0  0  0  0
  -24.6214  -31.8665   23.2090 C   0  0  0  0  0  0
  -25.9097  -32.4804   23.8381 C   0  0  1  0  0  0
  -27.2195  -27.3814   20.0957 C   0  0  0  0  0  0
  -25.5940  -33.8601   24.2308 N   0  0  0  0  0  0
  -23.4091  -30.4990   21.5488 C   0  0  2  0  0  0
  -24.8526  -28.9689   20.1113 C   0  0  0  0  0  0
  -22.7438  -29.4693   22.4927 C   0  0  0  0  0  0
  -18.0288  -28.1370   22.8487 C   0  0  0  0  0  0
  -24.1493  -36.7309   23.2633 C   0  0  0  0  0  0
  -25.9467  -30.8222   21.3673 C   0  0  0  0  0  0
  -26.0220  -29.4545   20.7086 C   0  0  0  0  0  0
  -27.2096  -28.6727   20.6930 C   0  0  0  0  0  0
  -26.0193  -26.9384   19.4844 C   0  0  0  0  0  0
  -24.8491  -27.7117   19.4970 C   0  0  0  0  0  0
  -23.6187  -29.8421   20.1609 C   0  0  0  0  0  0
  -25.4110  -36.3087   24.0328 C   0  0  1  0  0  0
  -20.5888  -28.3684   23.1281 C   0  0  2  0  0  0
  -20.6771  -26.9408   22.5401 C   0  0  0  0  0  0
  -19.5742  -26.6381   21.5205 C   0  0  0  0  0  0
  -18.1926  -26.7918   22.1623 C   0  0  0  0  0  0
  -19.1537  -28.8838   23.2888 C   0  0  0  0  0  0
  -18.9464  -30.1444   23.8900 C   0  0  0  0  0  0
  -17.6468  -30.6575   24.0564 C   0  0  0  0  0  0
  -25.9047  -34.9460   23.5106 C   0  0  0  0  0  0
  -16.5361  -29.9081   23.6315 C   0  0  0  0  0  0
  -16.7276  -28.6496   23.0342 C   0  0  0  0  0  0
  -26.4494  -31.6589   25.0722 C   0  0  0  0  0  0
  -25.3747  -31.3729   26.1461 C   0  0  0  0  0  0
  -27.0331  -30.3020   24.6136 C   0  0  0  0  0  0
  -27.6046  -32.4315   25.7510 C   0  0  0  0  0  0
  -27.5580  -37.1800   24.8448 C   0  0  0  0  0  0
  -21.4157  -29.3069   22.3681 N   0  0  0  0  0  0
  -26.4279  -37.3787   23.9415 N   0  0  0  0  0  0
  -24.6778  -31.0775   22.0988 N   0  0  0  0  0  0
  -23.4194  -28.8198   23.2952 O   0  0  0  0  0  0
  -28.3546  -26.5678   20.1325 O   0  0  0  0  0  0
  -26.5608  -34.8924   22.4666 O   0  0  0  0  0  0
  -23.5402  -32.1419   23.7483 O   0  0  0  0  0  0
  -29.2283  -20.1655   20.2629 C   0  0  0  0  0  0
  -29.5601  -21.3788   19.7070 C   0  0  0  0  0  0
  -30.6834  -21.1101   18.8464 C   0  0  0  0  0  0
  -30.8239  -19.7335   18.7572 C   0  0  0  0  0  0
  -29.7496  -22.5025   16.2225 C   0  0  0  0  0  0
  -32.9957  -22.1209   18.4206 C   0  0  0  0  0  0
  -30.8904  -18.3471   16.6127 C   0  0  0  0  0  0
  -32.6221  -17.9195   18.4356 C   0  0  0  0  0  0
  -28.6955  -22.6551   19.8688 C   0  0  0  0  0  0
  -31.2120  -22.1768   16.5601 C   0  0  0  0  0  0
  -29.2485  -24.0976   20.1752 C   0  0  0  0  0  0
  -29.6389  -17.6973   19.8628 C   0  0  0  0  0  0
  -30.3347  -16.9612   21.0504 C   0  0  0  0  0  0
  -28.1087  -25.1410   19.9581 C   0  0  0  0  0  0
  -31.4934  -22.1535   18.0785 C   0  0  1  0  0  0
  -31.6850  -18.9451   17.7883 C   0  0  0  0  0  0
  -29.9386  -19.1376   19.6615 N   0  0  0  0  0  0
  -29.9898  -15.5175   21.0860 N   0  0  0  0  0  0
  -31.4715  -12.3989   19.1278 H   0  0  0  0  0  0
  -30.3137  -11.3022   19.8208 H   0  0  0  0  0  0
  -29.7266  -11.7768   17.4275 H   0  0  0  0  0  0
  -29.6680  -13.4864   17.7626 H   0  0  0  0  0  0
  -27.8171  -11.3129   18.8070 H   0  0  0  0  0  0
  -27.3697  -12.6537   17.7880 H   0  0  0  0  0  0
  -27.7035  -14.2549   19.5713 H   0  0  0  0  0  0
  -28.6865  -11.9697   21.3468 H   0  0  0  0  0  0
  -28.4701  -13.6082   21.8697 H   0  0  0  0  0  0
  -25.2757   -9.5702   22.4778 H   0  0  0  0  0  0
  -23.9991   -7.4644   22.7456 H   0  0  0  0  0  0
  -21.0863   -8.8754   19.8958 H   0  0  0  0  0  0
  -22.3657  -10.9678   19.6178 H   0  0  0  0  0  0
  -21.2026   -7.6168   23.9732 H   0  0  0  0  0  0
  -21.1460   -6.0547   25.9086 H   0  0  0  0  0  0
  -22.0599   -2.7624   23.2857 H   0  0  0  0  0  0
  -22.4104  -11.9848   22.4786 H   0  0  0  0  0  0
  -21.1130  -13.1237   22.2593 H   0  0  0  0  0  0
  -24.6609  -15.8334   20.5216 H   0  0  0  0  0  0
  -26.2805  -15.6361   20.0830 H   0  0  0  0  0  0
  -26.7176  -32.5499   23.1151 H   0  0  0  0  0  0
  -25.0059  -33.9745   25.0429 H   0  0  0  0  0  0
  -22.7005  -31.3187   21.4125 H   0  0  0  0  0  0
  -23.3746  -35.9649   23.3266 H   0  0  0  0  0  0
  -24.3586  -36.8955   22.2051 H   0  0  0  0  0  0
  -23.7258  -37.6510   23.6673 H   0  0  0  0  0  0
  -26.0685  -31.5929   20.6042 H   0  0  0  0  0  0
  -26.8302  -30.8715   21.9914 H   0  0  0  0  0  0
  -28.1092  -29.0433   21.1638 H   0  0  0  0  0  0
  -25.9336  -25.9841   18.9900 H   0  0  0  0  0  0
  -23.9507  -27.3323   19.0311 H   0  0  0  0  0  0
  -23.7308  -30.6214   19.4062 H   0  0  0  0  0  0
  -22.7394  -29.2709   19.8570 H   0  0  0  0  0  0
  -25.1292  -36.1921   25.0821 H   0  0  0  0  0  0
  -21.0011  -28.3257   24.1393 H   0  0  0  0  0  0
  -20.5659  -26.2294   23.3600 H   0  0  0  0  0  0
  -21.6641  -26.7413   22.1205 H   0  0  0  0  0  0
  -19.6899  -25.6293   21.1228 H   0  0  0  0  0  0
  -19.6680  -27.3195   20.6739 H   0  0  0  0  0  0
  -17.4196  -26.6671   21.4032 H   0  0  0  0  0  0
  -18.0330  -26.0054   22.9010 H   0  0  0  0  0  0
  -19.7948  -30.7260   24.2266 H   0  0  0  0  0  0
  -17.5025  -31.6261   24.5166 H   0  0  0  0  0  0
  -15.5360  -30.2988   23.7637 H   0  0  0  0  0  0
  -15.8680  -28.0828   22.7040 H   0  0  0  0  0  0
  -24.5903  -30.7095   25.7805 H   0  0  0  0  0  0
  -24.8970  -32.2908   26.4901 H   0  0  0  0  0  0
  -25.8088  -30.8897   27.0222 H   0  0  0  0  0  0
  -26.2898  -29.6781   24.1159 H   0  0  0  0  0  0
  -27.4042  -29.7262   25.4623 H   0  0  0  0  0  0
  -27.8761  -30.4307   23.9341 H   0  0  0  0  0  0
  -27.2630  -33.3592   26.2121 H   0  0  0  0  0  0
  -28.3867  -32.6912   25.0362 H   0  0  0  0  0  0
  -28.0707  -31.8414   26.5414 H   0  0  0  0  0  0
  -28.2563  -38.0130   24.7538 H   0  0  0  0  0  0
  -28.1112  -36.2662   24.6216 H   0  0  0  0  0  0
  -27.2302  -37.1382   25.8850 H   0  0  0  0  0  0
  -20.9290  -29.8848   21.6970 H   0  0  0  0  0  0
  -26.0149  -38.2853   24.1446 H   0  0  0  0  0  0
  -28.4382  -19.9203   20.9608 H   0  0  0  0  0  0
  -29.6160  -22.6006   15.1456 H   0  0  0  0  0  0
  -29.4351  -23.4411   16.6815 H   0  0  0  0  0  0
  -29.0760  -21.7196   16.5717 H   0  0  0  0  0  0
  -33.1521  -22.1537   19.4992 H   0  0  0  0  0  0
  -33.5030  -22.9906   18.0010 H   0  0  0  0  0  0
  -33.5175  -21.2445   18.0447 H   0  0  0  0  0  0
  -30.2837  -19.1079   16.1191 H   0  0  0  0  0  0
  -30.2181  -17.5459   16.9082 H   0  0  0  0  0  0
  -31.5673  -17.9388   15.8615 H   0  0  0  0  0  0
  -33.2131  -18.3755   19.2298 H   0  0  0  0  0  0
  -33.3211  -17.5224   17.6995 H   0  0  0  0  0  0
  -32.0868  -17.0689   18.8440 H   0  0  0  0  0  0
  -27.9408  -22.4310   20.6252 H   0  0  0  0  0  0
  -28.1367  -22.7091   18.9331 H   0  0  0  0  0  0
  -31.8454  -22.9312   16.0926 H   0  0  0  0  0  0
  -31.4919  -21.2379   16.0853 H   0  0  0  0  0  0
  -30.0519  -24.3936   19.5118 H   0  0  0  0  0  0
  -29.6359  -24.1528   21.1929 H   0  0  0  0  0  0
  -28.5588  -17.6113   19.9817 H   0  0  0  0  0  0
  -29.8462  -17.1592   18.9449 H   0  0  0  0  0  0
  -31.4163  -17.0924   21.0158 H   0  0  0  0  0  0
  -30.0170  -17.4078   21.9938 H   0  0  0  0  0  0
  -27.2806  -24.8500   20.6089 H   0  0  0  0  0  0
  -27.7783  -24.9873   18.9307 H   0  0  0  0  0  0
  -31.1860  -23.1239   18.4361 H   0  0  0  0  0  0
  -32.3628  -19.6399   17.3063 H   0  0  0  0  0  0
  -29.0801  -15.2863   21.4552 H   0  0  0  0  0  0
  1 25  1  0  0  0
  1 30  2  0  0  0
  1 88  1  0  0  0
  2  3  1  0  0  0
  2 25  1  0  0  0
  2 89  1  0  0  0
  2 90  1  0  0  0
  3  4  1  0  0  0
  3 91  1  0  0  0
  3 92  1  0  0  0
  4  5  1  0  0  0
  4 93  1  0  0  0
  4 94  1  0  0  0
  5  6  1  0  0  0
  5 26  1  0  0  0
  5 95  1  0  0  0
  6 25  1  0  0  0
  6 96  1  0  0  0
  6 97  1  0  0  0
  7  8  2  0  0  0
  7 26  1  0  0  0
  7 29  1  0  0  0
  8  9  1  0  0  0
  8 22  1  0  0  0
  9 10  1  0  0  0
  9 27  2  0  0  0
 10 11  2  0  0  0
 10 15  1  0  0  0
 11 12  1  0  0  0
 11 98  1  0  0  0
 12 13  2  0  0  0
 12 99  1  0  0  0
 13 14  1  0  0  0
 13 31  1  0  0  0
 14 15  2  0  0  0
 14100  1  0  0  0
 15101  1  0  0  0
 16 17  2  0  0  0
 16 21  1  0  0  0
 16 31  1  0  0  0
 17 18  1  0  0  0
 17102  1  0  0  0
 18 19  2  0  0  0
 18103  1  0  0  0
 19 20  1  0  0  0
 19 24  1  0  0  0
 20 21  2  0  0  0
 20104  1  0  0  0
 21 23  1  0  0  0
 22 28  1  0  0  0
 22 32  2  0  0  0
 26 27  1  0  0  0
 28105  1  0  0  0
 28106  1  0  0  0
 29107  1  0  0  0
 29108  1  0  0  0
 33 34  1  0  0  0
 33 66  1  0  0  0
 33 70  2  0  0  0
 34 36  1  0  0  0
 34 59  1  0  0  0
 34109  1  0  0  0
 35 44  2  0  0  0
 35 45  1  0  0  0
 35 68  1  0  0  0
 36 56  1  0  0  0
 36110  1  0  0  0
 37 39  1  0  0  0
 37 47  1  0  0  0
 37 66  1  0  0  0
 37111  1  0  0  0
 38 43  2  0  0  0
 38 46  1  0  0  0
 38 47  1  0  0  0
 39 64  1  0  0  0
 39 67  2  0  0  0
 40 52  1  0  0  0
 40 53  2  0  0  0
 40 58  1  0  0  0
 41112  1  0  0  0
 41113  1  0  0  0
 41114  1  0  0  0
 41 48  1  0  0  0
 42 43  1  0  0  0
 42 66  1  0  0  0
 42115  1  0  0  0
 42116  1  0  0  0
 43 44  1  0  0  0
 44117  1  0  0  0
 45 46  2  0  0  0
 45118  1  0  0  0
 46119  1  0  0  0
 47120  1  0  0  0
 47121  1  0  0  0
 48 56  1  0  0  0
 48 65  1  0  0  0
 48122  1  0  0  0
 49 50  1  0  0  0
 49 53  1  0  0  0
 49 64  1  0  0  0
 49123  1  0  0  0
 50 51  1  0  0  0
 50124  1  0  0  0
 50125  1  0  0  0
 51 52  1  0  0  0
 51126  1  0  0  0
 51127  1  0  0  0
 52128  1  0  0  0
 52129  1  0  0  0
 53 54  1  0  0  0
 54 55  2  0  0  0
 54130  1  0  0  0
 55 57  1  0  0  0
 55131  1  0  0  0
 56 69  2  0  0  0
 57 58  2  0  0  0
 57132  1  0  0  0
 58133  1  0  0  0
 59 60  1  0  0  0
 59 61  1  0  0  0
 59 62  1  0  0  0
 60134  1  0  0  0
 60135  1  0  0  0
 60136  1  0  0  0
 61137  1  0  0  0
 61138  1  0  0  0
 61139  1  0  0  0
 62140  1  0  0  0
 62141  1  0  0  0
 62142  1  0  0  0
 63 65  1  0  0  0
 63143  1  0  0  0
 63144  1  0  0  0
 63145  1  0  0  0
 64146  1  0  0  0
 65147  1  0  0  0
 68 84  1  0  0  0
 71 72  2  0  0  0
 71 87  1  0  0  0
 71148  1  0  0  0
 72 73  1  0  0  0
 72 79  1  0  0  0
 73 74  2  0  0  0
 73 85  1  0  0  0
 74 86  1  0  0  0
 74 87  1  0  0  0
 75 80  1  0  0  0
 75149  1  0  0  0
 75150  1  0  0  0
 75151  1  0  0  0
 76152  1  0  0  0
 76153  1  0  0  0
 76154  1  0  0  0
 76 85  1  0  0  0
 77155  1  0  0  0
 77156  1  0  0  0
 77157  1  0  0  0
 77 86  1  0  0  0
 78 86  1  0  0  0
 78158  1  0  0  0
 78159  1  0  0  0
 78160  1  0  0  0
 79 81  1  0  0  0
 79161  1  0  0  0
 79162  1  0  0  0
 80 85  1  0  0  0
 80163  1  0  0  0
 80164  1  0  0  0
 81 84  1  0  0  0
 81165  1  0  0  0
 81166  1  0  0  0
 82 83  1  0  0  0
 82 87  1  0  0  0
 82167  1  0  0  0
 82168  1  0  0  0
 83 88  1  0  0  0
 83169  1  0  0  0
 83170  1  0  0  0
 84171  1  0  0  0
 84172  1  0  0  0
 85173  1  0  0  0
 86174  1  0  0  0
 88175  1  0  0  0
M  ISO  4   1 100  68 101  84 101  88 100
M  END
> <chiral flag>
0

> <version>
0

> <s_m_source_file>
/data/baiqing/PycharmProjects/Reinvent-master-3.2/result/LINK_invent/BTK/process_docking_weight1_custom_sum_contain_oxygen_bond_distance_aromatic_linkinvent_7_9_3/rearranged_h_0091.sdf

> <i_m_source_file_index>
25

> <r_mmod_Potential_Energy-OPLS-2005>
-61.2723655700684

> <r_mmod_Stretch_Energy-OPLS-2005>
53.5570030212402

> <r_mmod_Bend_Energy-OPLS-2005>
146.914474487305

> <r_mmod_Torsional_Energy-OPLS-2005>
230.417373657227

> <r_mmod_Improper_Torsional_Energy-OPLS-2005>
6.34671545028687

> <r_mmod_Van_der_Waal_Energy-OPLS-2005>
128.136611938477

> <r_mmod_Electrostatic_Energy-OPLS-2005>
-441.625305175781

> <r_mmod_Solvation_Energy-OPLS-2005>
-205.364059448242

> <b_mmod_Minimization_Converged-OPLS-2005>
0

> <r_mmod_RMS_Derivative-OPLS-2005>
2.91180944442749

$$$$
26
                    3D
 Structure written by MMmdl.
163171  0  0  1  0            999 V2000
  -30.7159  -14.3501   20.6050 C   0  0  0  0  0  0
  -30.4334  -12.2302   19.4139 C   0  0  0  0  0  0
  -29.5034  -12.4825   18.2083 C   0  0  0  0  0  0
  -28.0223  -12.3552   18.6201 C   0  0  0  0  0  0
  -27.6774  -13.1775   19.8903 C   0  0  2  0  0  0
  -28.7109  -12.8878   21.0042 C   0  0  0  0  0  0
  -25.2693  -13.8103   20.5690 C   0  0  0  0  0  0
  -24.1883  -13.0434   20.9140 C   0  0  0  0  0  0
  -24.6394  -11.6887   20.8750 C   0  0  0  0  0  0
  -23.9052  -10.4287   21.0416 C   0  0  0  0  0  0
  -24.3611   -9.4199   21.9185 C   0  0  0  0  0  0
  -23.6287   -8.2230   22.0747 C   0  0  0  0  0  0
  -22.4251   -8.0280   21.3558 C   0  0  0  0  0  0
  -21.9903   -9.0253   20.4637 C   0  0  0  0  0  0
  -22.7237  -10.2136   20.3053 C   0  0  0  0  0  0
  -21.6838   -6.0733   22.5279 C   0  0  0  0  0  0
  -21.4020   -6.5639   23.8221 C   0  0  0  0  0  0
  -21.3645   -5.6780   24.9182 C   0  0  0  0  0  0
  -21.6055   -4.3045   24.7233 C   0  0  0  0  0  0
  -21.8815   -3.8149   23.4347 C   0  0  0  0  0  0
  -21.9202   -4.6968   22.3413 C   0  0  0  0  0  0
  -22.7921  -13.5264   21.1830 C   0  0  0  0  0  0
  -22.1666   -4.2144   21.0991 F   0  0  0  0  0  0
  -21.5616   -3.4536   25.7747 F   0  0  0  0  0  0
  -30.0635  -13.1724   20.4751 N   0  0  0  0  0  0
  -26.3117  -12.9221   20.3448 N   0  0  0  0  0  0
  -25.9315  -11.6407   20.5798 N   0  0  0  0  0  0
  -22.0566  -12.8241   22.0366 N   0  0  0  0  0  0
  -25.4487  -15.1829   20.4111 N   0  0  0  0  0  0
  -31.7959  -14.6185   20.0698 O   0  0  0  0  0  0
  -21.6624   -6.8878   21.4235 O   0  0  0  0  0  0
  -22.3601  -14.5565   20.6662 O   0  0  0  0  0  0
  -24.6096  -31.8702   23.2121 C   0  0  0  0  0  0
  -25.9011  -32.4838   23.8419 C   0  0  1  0  0  0
  -27.2523  -27.4822   20.1029 C   0  0  0  0  0  0
  -25.5867  -33.8645   24.2345 N   0  0  0  0  0  0
  -23.3975  -30.4904   21.5508 C   0  0  2  0  0  0
  -24.8470  -28.9511   20.1252 C   0  0  0  0  0  0
  -22.7380  -29.4696   22.5028 C   0  0  0  0  0  0
  -18.0249  -28.1345   22.8550 C   0  0  0  0  0  0
  -24.1476  -36.7322   23.2646 C   0  0  0  0  0  0
  -25.9213  -30.8504   21.3600 C   0  0  0  0  0  0
  -25.9994  -29.4865   20.7075 C   0  0  0  0  0  0
  -27.2082  -28.7610   20.6848 C   0  0  0  0  0  0
  -26.0803  -26.9329   19.5367 C   0  0  0  0  0  0
  -24.8783  -27.6691   19.5390 C   0  0  0  0  0  0
  -23.6050  -29.8121   20.1690 C   0  0  0  0  0  0
  -25.4105  -36.3131   24.0342 C   0  0  1  0  0  0
  -20.5847  -28.3659   23.1289 C   0  0  2  0  0  0
  -20.6781  -26.9418   22.5357 C   0  0  0  0  0  0
  -19.5646  -26.6246   21.5316 C   0  0  0  0  0  0
  -18.1906  -26.7781   22.1886 C   0  0  0  0  0  0
  -19.1505  -28.8815   23.2890 C   0  0  0  0  0  0
  -18.9444  -30.1422   23.8916 C   0  0  0  0  0  0
  -17.6463  -30.6550   24.0613 C   0  0  0  0  0  0
  -25.9026  -34.9488   23.5146 C   0  0  0  0  0  0
  -16.5348  -29.9089   23.6337 C   0  0  0  0  0  0
  -16.7234  -28.6487   23.0412 C   0  0  0  0  0  0
  -26.4465  -31.6626   25.0747 C   0  0  0  0  0  0
  -25.3751  -31.3721   26.1515 C   0  0  0  0  0  0
  -27.0332  -30.3081   24.6118 C   0  0  0  0  0  0
  -27.6028  -32.4391   25.7491 C   0  0  0  0  0  0
  -27.5578  -37.1816   24.8475 C   0  0  0  0  0  0
  -21.4115  -29.3068   22.3742 N   0  0  0  0  0  0
  -26.4305  -37.3794   23.9391 N   0  0  0  0  0  0
  -24.6596  -31.0844   22.0989 N   0  0  0  0  0  0
  -23.4158  -28.8271   23.3106 O   0  0  0  0  0  0
  -28.4607  -26.8359   20.0550 O   0  0  0  0  0  0
  -26.5591  -34.8926   22.4710 O   0  0  0  0  0  0
  -23.5298  -32.1474   23.7514 O   0  0  0  0  0  0
  -27.7919  -19.3223   21.4523 C   0  0  0  0  0  0
  -29.4850  -19.8463   20.0891 C   0  0  0  0  0  0
  -29.0901  -18.9265   21.0221 C   0  0  0  0  0  0
  -27.4670  -20.5025   20.8521 C   0  0  0  0  0  0
  -26.2679  -21.3824   21.0341 C   0  0  0  0  0  0
  -31.3210  -18.0472   21.8216 C   0  0  0  0  0  0
  -29.2477  -23.1567   20.0579 C   0  0  0  0  0  0
  -28.9823  -24.5645   19.5081 C   0  0  0  0  0  0
  -28.6224  -22.0390   19.2098 C   0  0  0  0  0  0
  -29.7108  -16.5671   20.5428 C   0  0  0  0  0  0
  -28.5151  -25.5297   20.6009 C   0  0  0  0  0  0
  -29.8481  -17.7261   21.5281 C   0  0  1  0  0  0
  -28.5177  -20.8300   20.0049 N   0  0  0  0  0  0
  -29.9683  -15.2833   21.1789 N   0  0  0  0  0  0
  -31.4820  -12.3207   19.1234 H   0  0  0  0  0  0
  -30.3209  -11.2094   19.7854 H   0  0  0  0  0  0
  -29.7297  -11.7762   17.4100 H   0  0  0  0  0  0
  -29.6873  -13.4775   17.7997 H   0  0  0  0  0  0
  -27.8248  -11.2999   18.8057 H   0  0  0  0  0  0
  -27.3700  -12.6442   17.7944 H   0  0  0  0  0  0
  -27.7483  -14.2334   19.6259 H   0  0  0  0  0  0
  -28.6605  -11.8377   21.3004 H   0  0  0  0  0  0
  -28.4808  -13.4417   21.9138 H   0  0  0  0  0  0
  -25.2764   -9.5646   22.4759 H   0  0  0  0  0  0
  -23.9986   -7.4610   22.7465 H   0  0  0  0  0  0
  -21.0836   -8.8789   19.8938 H   0  0  0  0  0  0
  -22.3721  -10.9680   19.6155 H   0  0  0  0  0  0
  -21.2002   -7.6144   23.9726 H   0  0  0  0  0  0
  -21.1470   -6.0515   25.9085 H   0  0  0  0  0  0
  -22.0612   -2.7605   23.2862 H   0  0  0  0  0  0
  -22.4179  -11.9869   22.4696 H   0  0  0  0  0  0
  -21.1209  -13.1277   22.2654 H   0  0  0  0  0  0
  -24.6864  -15.8465   20.4966 H   0  0  0  0  0  0
  -26.3148  -15.6117   20.1079 H   0  0  0  0  0  0
  -26.7101  -32.5569   23.1207 H   0  0  0  0  0  0
  -25.0052  -33.9811   25.0515 H   0  0  0  0  0  0
  -22.6851  -31.3059   21.4067 H   0  0  0  0  0  0
  -23.3731  -35.9659   23.3339 H   0  0  0  0  0  0
  -24.3557  -36.8912   22.2050 H   0  0  0  0  0  0
  -23.7236  -37.6538   23.6653 H   0  0  0  0  0  0
  -26.0353  -31.6182   20.5944 H   0  0  0  0  0  0
  -26.8081  -30.8968   21.9810 H   0  0  0  0  0  0
  -28.1086  -29.1799   21.1151 H   0  0  0  0  0  0
  -26.1010  -25.9521   19.0857 H   0  0  0  0  0  0
  -23.9874  -27.2465   19.0972 H   0  0  0  0  0  0
  -23.7135  -30.5829   19.4058 H   0  0  0  0  0  0
  -22.7318  -29.2272   19.8786 H   0  0  0  0  0  0
  -25.1282  -36.2005   25.0837 H   0  0  0  0  0  0
  -20.9915  -28.3192   24.1423 H   0  0  0  0  0  0
  -20.5901  -26.2274   23.3557 H   0  0  0  0  0  0
  -21.6615  -26.7563   22.1002 H   0  0  0  0  0  0
  -19.6387  -27.2955   20.6745 H   0  0  0  0  0  0
  -19.6817  -25.6110   21.1464 H   0  0  0  0  0  0
  -17.4029  -26.6265   21.4494 H   0  0  0  0  0  0
  -18.0547  -26.0069   22.9486 H   0  0  0  0  0  0
  -19.7939  -30.7202   24.2307 H   0  0  0  0  0  0
  -17.5027  -31.6217   24.5246 H   0  0  0  0  0  0
  -15.5358  -30.2977   23.7725 H   0  0  0  0  0  0
  -15.8618  -28.0768   22.7214 H   0  0  0  0  0  0
  -24.5816  -30.7204   25.7829 H   0  0  0  0  0  0
  -24.9081  -32.2897   26.5111 H   0  0  0  0  0  0
  -25.8096  -30.8740   27.0189 H   0  0  0  0  0  0
  -26.2873  -29.6787   24.1242 H   0  0  0  0  0  0
  -27.4204  -29.7364   25.4562 H   0  0  0  0  0  0
  -27.8656  -30.4430   23.9204 H   0  0  0  0  0  0
  -27.2590  -33.3632   26.2152 H   0  0  0  0  0  0
  -28.3759  -32.7077   25.0281 H   0  0  0  0  0  0
  -28.0804  -31.8517   26.5340 H   0  0  0  0  0  0
  -28.2649  -38.0066   24.7470 H   0  0  0  0  0  0
  -28.1030  -36.2596   24.6379 H   0  0  0  0  0  0
  -27.2289  -37.1556   25.8883 H   0  0  0  0  0  0
  -20.9291  -29.8801   21.6968 H   0  0  0  0  0  0
  -26.0210  -38.2884   24.1359 H   0  0  0  0  0  0
  -27.1777  -18.8019   22.1737 H   0  0  0  0  0  0
  -30.3946  -19.9065   19.5086 H   0  0  0  0  0  0
  -25.5676  -20.9465   21.7470 H   0  0  0  0  0  0
  -25.7308  -21.5396   20.0977 H   0  0  0  0  0  0
  -26.5576  -22.3595   21.4226 H   0  0  0  0  0  0
  -31.8306  -17.2107   22.3008 H   0  0  0  0  0  0
  -31.8561  -18.2765   20.9002 H   0  0  0  0  0  0
  -31.4137  -18.9062   22.4819 H   0  0  0  0  0  0
  -30.3226  -22.9844   20.1403 H   0  0  0  0  0  0
  -28.8682  -23.0895   21.0810 H   0  0  0  0  0  0
  -28.2265  -24.5440   18.7239 H   0  0  0  0  0  0
  -29.8930  -24.9416   19.0431 H   0  0  0  0  0  0
  -29.2182  -21.8475   18.3155 H   0  0  0  0  0  0
  -27.6242  -22.3149   18.8696 H   0  0  0  0  0  0
  -28.6829  -16.5105   20.1856 H   0  0  0  0  0  0
  -30.3123  -16.7323   19.6516 H   0  0  0  0  0  0
  -29.2322  -25.5448   21.4237 H   0  0  0  0  0  0
  -27.5656  -25.2027   21.0300 H   0  0  0  0  0  0
  -29.3681  -17.4423   22.4622 H   0  0  0  0  0  0
  -29.1753  -14.8977   21.6630 H   0  0  0  0  0  0
  1 25  1  0  0  0
  1 30  2  0  0  0
  1 84  1  0  0  0
  2  3  1  0  0  0
  2 25  1  0  0  0
  2 85  1  0  0  0
  2 86  1  0  0  0
  3  4  1  0  0  0
  3 87  1  0  0  0
  3 88  1  0  0  0
  4  5  1  0  0  0
  4 89  1  0  0  0
  4 90  1  0  0  0
  5  6  1  0  0  0
  5 26  1  0  0  0
  5 91  1  0  0  0
  6 25  1  0  0  0
  6 92  1  0  0  0
  6 93  1  0  0  0
  7  8  2  0  0  0
  7 26  1  0  0  0
  7 29  1  0  0  0
  8  9  1  0  0  0
  8 22  1  0  0  0
  9 10  1  0  0  0
  9 27  2  0  0  0
 10 11  2  0  0  0
 10 15  1  0  0  0
 11 12  1  0  0  0
 11 94  1  0  0  0
 12 13  2  0  0  0
 12 95  1  0  0  0
 13 14  1  0  0  0
 13 31  1  0  0  0
 14 15  2  0  0  0
 14 96  1  0  0  0
 15 97  1  0  0  0
 16 17  2  0  0  0
 16 21  1  0  0  0
 16 31  1  0  0  0
 17 18  1  0  0  0
 17 98  1  0  0  0
 18 19  2  0  0  0
 18 99  1  0  0  0
 19 20  1  0  0  0
 19 24  1  0  0  0
 20 21  2  0  0  0
 20100  1  0  0  0
 21 23  1  0  0  0
 22 28  1  0  0  0
 22 32  2  0  0  0
 26 27  1  0  0  0
 28101  1  0  0  0
 28102  1  0  0  0
 29103  1  0  0  0
 29104  1  0  0  0
 33 34  1  0  0  0
 33 66  1  0  0  0
 33 70  2  0  0  0
 34 36  1  0  0  0
 34 59  1  0  0  0
 34105  1  0  0  0
 35 44  2  0  0  0
 35 45  1  0  0  0
 35 68  1  0  0  0
 36 56  1  0  0  0
 36106  1  0  0  0
 37 39  1  0  0  0
 37 47  1  0  0  0
 37 66  1  0  0  0
 37107  1  0  0  0
 38 43  2  0  0  0
 38 46  1  0  0  0
 38 47  1  0  0  0
 39 64  1  0  0  0
 39 67  2  0  0  0
 40 52  1  0  0  0
 40 53  2  0  0  0
 40 58  1  0  0  0
 41108  1  0  0  0
 41109  1  0  0  0
 41110  1  0  0  0
 41 48  1  0  0  0
 42 43  1  0  0  0
 42 66  1  0  0  0
 42111  1  0  0  0
 42112  1  0  0  0
 43 44  1  0  0  0
 44113  1  0  0  0
 45 46  2  0  0  0
 45114  1  0  0  0
 46115  1  0  0  0
 47116  1  0  0  0
 47117  1  0  0  0
 48 56  1  0  0  0
 48 65  1  0  0  0
 48118  1  0  0  0
 49 50  1  0  0  0
 49 53  1  0  0  0
 49 64  1  0  0  0
 49119  1  0  0  0
 50 51  1  0  0  0
 50120  1  0  0  0
 50121  1  0  0  0
 51 52  1  0  0  0
 51122  1  0  0  0
 51123  1  0  0  0
 52124  1  0  0  0
 52125  1  0  0  0
 53 54  1  0  0  0
 54 55  2  0  0  0
 54126  1  0  0  0
 55 57  1  0  0  0
 55127  1  0  0  0
 56 69  2  0  0  0
 57 58  2  0  0  0
 57128  1  0  0  0
 58129  1  0  0  0
 59 60  1  0  0  0
 59 61  1  0  0  0
 59 62  1  0  0  0
 60130  1  0  0  0
 60131  1  0  0  0
 60132  1  0  0  0
 61133  1  0  0  0
 61134  1  0  0  0
 61135  1  0  0  0
 62136  1  0  0  0
 62137  1  0  0  0
 62138  1  0  0  0
 63 65  1  0  0  0
 63139  1  0  0  0
 63140  1  0  0  0
 63141  1  0  0  0
 64142  1  0  0  0
 65143  1  0  0  0
 68 81  1  0  0  0
 71 73  1  0  0  0
 71 74  2  0  0  0
 71144  1  0  0  0
 72 73  2  0  0  0
 72 83  1  0  0  0
 72145  1  0  0  0
 73 82  1  0  0  0
 74 75  1  0  0  0
 74 83  1  0  0  0
 75146  1  0  0  0
 75147  1  0  0  0
 75148  1  0  0  0
 76149  1  0  0  0
 76150  1  0  0  0
 76151  1  0  0  0
 76 82  1  0  0  0
 77 78  1  0  0  0
 77 79  1  0  0  0
 77152  1  0  0  0
 77153  1  0  0  0
 78 81  1  0  0  0
 78154  1  0  0  0
 78155  1  0  0  0
 79 83  1  0  0  0
 79156  1  0  0  0
 79157  1  0  0  0
 80 82  1  0  0  0
 80 84  1  0  0  0
 80158  1  0  0  0
 80159  1  0  0  0
 81160  1  0  0  0
 81161  1  0  0  0
 82162  1  0  0  0
 84163  1  0  0  0
M  ISO  4   1 100  68 101  81 101  84 100
M  END
> <chiral flag>
0

> <version>
0

> <s_m_source_file>
/data/baiqing/PycharmProjects/Reinvent-master-3.2/result/LINK_invent/BTK/process_docking_weight1_custom_sum_contain_oxygen_bond_distance_aromatic_linkinvent_7_9_3/rearranged_h_0091.sdf

> <i_m_source_file_index>
26

> <r_mmod_Potential_Energy-OPLS-2005>
-90.1901397705078

> <r_mmod_Stretch_Energy-OPLS-2005>
29.5023288726807

> <r_mmod_Bend_Energy-OPLS-2005>
92.5673980712891

> <r_mmod_Torsional_Energy-OPLS-2005>
271.051391601562

> <r_mmod_Improper_Torsional_Energy-OPLS-2005>
8.82747840881348

> <r_mmod_Van_der_Waal_Energy-OPLS-2005>
128.475875854492

> <r_mmod_Electrostatic_Energy-OPLS-2005>
-425.691467285156

> <r_mmod_Solvation_Energy-OPLS-2005>
-204.715713500977

> <b_mmod_Minimization_Converged-OPLS-2005>
0

> <r_mmod_RMS_Derivative-OPLS-2005>
5.79198932647705

$$$$
27
                    3D
 Structure written by MMmdl.
165173  0  0  1  0            999 V2000
  -30.6987  -14.4274   20.5938 C   0  0  0  0  0  0
  -30.4264  -12.2824   19.4132 C   0  0  0  0  0  0
  -29.4942  -12.5072   18.2040 C   0  0  0  0  0  0
  -28.0150  -12.3704   18.6164 C   0  0  0  0  0  0
  -27.6688  -13.1966   19.8837 C   0  0  2  0  0  0
  -28.7078  -12.9362   20.9993 C   0  0  0  0  0  0
  -25.2616  -13.8141   20.5671 C   0  0  0  0  0  0
  -24.1849  -13.0434   20.9158 C   0  0  0  0  0  0
  -24.6390  -11.6896   20.8725 C   0  0  0  0  0  0
  -23.9049  -10.4288   21.0399 C   0  0  0  0  0  0
  -24.3604   -9.4207   21.9180 C   0  0  0  0  0  0
  -23.6284   -8.2242   22.0754 C   0  0  0  0  0  0
  -22.4267   -8.0278   21.3544 C   0  0  0  0  0  0
  -21.9898   -9.0247   20.4645 C   0  0  0  0  0  0
  -22.7222  -10.2127   20.3051 C   0  0  0  0  0  0
  -21.6851   -6.0731   22.5279 C   0  0  0  0  0  0
  -21.4012   -6.5639   23.8211 C   0  0  0  0  0  0
  -21.3659   -5.6792   24.9174 C   0  0  0  0  0  0
  -21.6044   -4.3054   24.7225 C   0  0  0  0  0  0
  -21.8820   -3.8146   23.4349 C   0  0  0  0  0  0
  -21.9192   -4.6960   22.3405 C   0  0  0  0  0  0
  -22.7876  -13.5242   21.1828 C   0  0  0  0  0  0
  -22.1662   -4.2146   21.0981 F   0  0  0  0  0  0
  -21.5629   -3.4540   25.7739 F   0  0  0  0  0  0
  -30.0469  -13.2422   20.4607 N   0  0  0  0  0  0
  -26.3056  -12.9295   20.3396 N   0  0  0  0  0  0
  -25.9315  -11.6463   20.5768 N   0  0  0  0  0  0
  -22.0513  -12.8237   22.0387 N   0  0  0  0  0  0
  -25.4364  -15.1856   20.4083 N   0  0  0  0  0  0
  -31.7826  -14.6716   20.0560 O   0  0  0  0  0  0
  -21.6636   -6.8872   21.4240 O   0  0  0  0  0  0
  -22.3561  -14.5546   20.6681 O   0  0  0  0  0  0
  -24.6122  -31.8694   23.2110 C   0  0  0  0  0  0
  -25.9022  -32.4829   23.8403 C   0  0  1  0  0  0
  -27.2404  -27.4661   20.0909 C   0  0  0  0  0  0
  -25.5888  -33.8626   24.2336 N   0  0  0  0  0  0
  -23.3998  -30.4911   21.5509 C   0  0  2  0  0  0
  -24.8492  -28.9597   20.1142 C   0  0  0  0  0  0
  -22.7395  -29.4662   22.5000 C   0  0  0  0  0  0
  -18.0262  -28.1379   22.8491 C   0  0  0  0  0  0
  -24.1492  -36.7321   23.2639 C   0  0  0  0  0  0
  -25.9244  -30.8451   21.3587 C   0  0  0  0  0  0
  -26.0067  -29.4813   20.7068 C   0  0  0  0  0  0
  -27.2078  -28.7403   20.6945 C   0  0  0  0  0  0
  -26.0720  -26.9485   19.4957 C   0  0  0  0  0  0
  -24.8751  -27.6904   19.5066 C   0  0  0  0  0  0
  -23.6074  -29.8202   20.1657 C   0  0  0  0  0  0
  -25.4110  -36.3113   24.0340 C   0  0  1  0  0  0
  -20.5858  -28.3662   23.1325 C   0  0  2  0  0  0
  -20.6763  -26.9402   22.5424 C   0  0  0  0  0  0
  -19.5744  -26.6393   21.5217 C   0  0  0  0  0  0
  -18.1911  -26.7923   22.1620 C   0  0  0  0  0  0
  -19.1514  -28.8833   23.2901 C   0  0  0  0  0  0
  -18.9448  -30.1436   23.8914 C   0  0  0  0  0  0
  -17.6454  -30.6586   24.0568 C   0  0  0  0  0  0
  -25.9038  -34.9481   23.5137 C   0  0  0  0  0  0
  -16.5344  -29.9093   23.6328 C   0  0  0  0  0  0
  -16.7254  -28.6508   23.0346 C   0  0  0  0  0  0
  -26.4461  -31.6595   25.0715 C   0  0  0  0  0  0
  -25.3736  -31.3684   26.1469 C   0  0  0  0  0  0
  -27.0289  -30.3047   24.6061 C   0  0  0  0  0  0
  -27.6046  -32.4302   25.7470 C   0  0  0  0  0  0
  -27.5579  -37.1806   24.8459 C   0  0  0  0  0  0
  -21.4129  -29.3023   22.3731 N   0  0  0  0  0  0
  -26.4296  -37.3800   23.9405 N   0  0  0  0  0  0
  -24.6634  -31.0813   22.0998 N   0  0  0  0  0  0
  -23.4164  -28.8216   23.3053 O   0  0  0  0  0  0
  -28.3911  -26.7176   20.0959 O   0  0  0  0  0  0
  -26.5600  -34.8925   22.4698 O   0  0  0  0  0  0
  -23.5323  -32.1436   23.7523 O   0  0  0  0  0  0
  -27.1796  -20.5769   22.4512 C   0  0  0  0  0  0
  -27.2029  -19.3754   23.2036 C   0  0  0  0  0  0
  -28.4289  -20.6748   21.8992 C   0  0  0  0  0  0
  -26.1163  -18.7783   24.0476 C   0  0  0  0  0  0
  -32.3073  -17.3341   22.0990 C   0  0  0  0  0  0
  -28.9847  -21.7737   21.0312 C   0  0  0  0  0  0
  -28.5439  -23.1805   21.4941 C   0  0  0  0  0  0
  -28.8290  -24.3292   20.5056 C   0  0  0  0  0  0
  -30.5084  -19.1363   22.0063 C   0  0  0  0  0  0
  -30.0778  -16.8210   20.9818 C   0  0  0  0  0  0
  -28.3766  -25.6840   21.0826 C   0  0  0  0  0  0
  -30.7939  -17.6077   22.1031 C   0  0  1  0  0  0
  -28.3696  -18.7659   23.1119 N   0  0  0  0  0  0
  -29.1229  -19.5302   22.2827 N   0  0  0  0  0  0
  -29.9918  -15.3782   21.2209 N   0  0  0  0  0  0
  -31.4712  -12.3833   19.1135 H   0  0  0  0  0  0
  -30.3246  -11.2632   19.7889 H   0  0  0  0  0  0
  -29.7270  -11.7942   17.4120 H   0  0  0  0  0  0
  -29.6675  -13.4989   17.7828 H   0  0  0  0  0  0
  -27.8196  -11.3131   18.8008 H   0  0  0  0  0  0
  -27.3641  -12.6577   17.7902 H   0  0  0  0  0  0
  -27.7262  -14.2493   19.6064 H   0  0  0  0  0  0
  -28.6740  -11.8895   21.3049 H   0  0  0  0  0  0
  -28.4679  -13.5020   21.9004 H   0  0  0  0  0  0
  -25.2750   -9.5687   22.4751 H   0  0  0  0  0  0
  -23.9995   -7.4635   22.7473 H   0  0  0  0  0  0
  -21.0829   -8.8759   19.8951 H   0  0  0  0  0  0
  -22.3678  -10.9663   19.6158 H   0  0  0  0  0  0
  -21.2005   -7.6145   23.9713 H   0  0  0  0  0  0
  -21.1480   -6.0524   25.9076 H   0  0  0  0  0  0
  -22.0601   -2.7609   23.2850 H   0  0  0  0  0  0
  -22.4125  -11.9890   22.4768 H   0  0  0  0  0  0
  -21.1134  -13.1268   22.2596 H   0  0  0  0  0  0
  -24.6742  -15.8458   20.5178 H   0  0  0  0  0  0
  -26.2991  -15.6228   20.1095 H   0  0  0  0  0  0
  -26.7096  -32.5564   23.1179 H   0  0  0  0  0  0
  -25.0038  -33.9794   25.0477 H   0  0  0  0  0  0
  -22.6874  -31.3069   21.4103 H   0  0  0  0  0  0
  -23.3747  -35.9661   23.3316 H   0  0  0  0  0  0
  -24.3580  -36.8927   22.2052 H   0  0  0  0  0  0
  -23.7252  -37.6537   23.6642 H   0  0  0  0  0  0
  -26.0266  -31.6128   20.5903 H   0  0  0  0  0  0
  -26.8155  -30.9036   21.9721 H   0  0  0  0  0  0
  -28.1028  -29.1352   21.1549 H   0  0  0  0  0  0
  -26.0899  -25.9725   19.0305 H   0  0  0  0  0  0
  -23.9851  -27.2821   19.0493 H   0  0  0  0  0  0
  -23.7074  -30.5939   19.4025 H   0  0  0  0  0  0
  -22.7327  -29.2347   19.8759 H   0  0  0  0  0  0
  -25.1277  -36.1991   25.0833 H   0  0  0  0  0  0
  -20.9932  -28.3236   24.1455 H   0  0  0  0  0  0
  -20.5681  -26.2266   23.3607 H   0  0  0  0  0  0
  -21.6632  -26.7470   22.1204 H   0  0  0  0  0  0
  -19.6923  -25.6309   21.1229 H   0  0  0  0  0  0
  -19.6693  -27.3221   20.6759 H   0  0  0  0  0  0
  -17.4192  -26.6678   21.4012 H   0  0  0  0  0  0
  -18.0303  -26.0060   22.9011 H   0  0  0  0  0  0
  -19.7934  -30.7229   24.2302 H   0  0  0  0  0  0
  -17.5025  -31.6270   24.5161 H   0  0  0  0  0  0
  -15.5348  -30.3002   23.7647 H   0  0  0  0  0  0
  -15.8654  -28.0837   22.7055 H   0  0  0  0  0  0
  -24.5919  -30.7019   25.7803 H   0  0  0  0  0  0
  -24.8906  -32.2830   26.4927 H   0  0  0  0  0  0
  -25.8097  -30.8856   27.0221 H   0  0  0  0  0  0
  -26.2826  -29.6812   24.1131 H   0  0  0  0  0  0
  -27.4096  -29.7268   25.4490 H   0  0  0  0  0  0
  -27.8640  -30.4376   23.9176 H   0  0  0  0  0  0
  -27.2689  -33.3601   26.2077 H   0  0  0  0  0  0
  -28.3847  -32.6869   25.0286 H   0  0  0  0  0  0
  -28.0728  -31.8404   26.5362 H   0  0  0  0  0  0
  -28.2594  -38.0104   24.7509 H   0  0  0  0  0  0
  -28.1073  -36.2635   24.6282 H   0  0  0  0  0  0
  -27.2288  -37.1458   25.8858 H   0  0  0  0  0  0
  -20.9287  -29.8748   21.6957 H   0  0  0  0  0  0
  -26.0192  -38.2879   24.1416 H   0  0  0  0  0  0
  -26.3623  -21.2773   22.3508 H   0  0  0  0  0  0
  -25.1771  -19.3171   23.9224 H   0  0  0  0  0  0
  -26.3758  -18.8142   25.1060 H   0  0  0  0  0  0
  -25.9356  -17.7359   23.7836 H   0  0  0  0  0  0
  -32.8116  -17.8968   22.8855 H   0  0  0  0  0  0
  -32.7614  -17.6141   21.1479 H   0  0  0  0  0  0
  -32.5196  -16.2789   22.2713 H   0  0  0  0  0  0
  -28.6477  -21.6084   20.0068 H   0  0  0  0  0  0
  -30.0738  -21.7309   21.0033 H   0  0  0  0  0  0
  -29.0076  -23.3949   22.4580 H   0  0  0  0  0  0
  -27.4692  -23.1769   21.6736 H   0  0  0  0  0  0
  -28.3004  -24.1379   19.5709 H   0  0  0  0  0  0
  -29.8911  -24.3686   20.2611 H   0  0  0  0  0  0
  -30.7762  -19.4898   21.0104 H   0  0  0  0  0  0
  -31.1429  -19.6807   22.7066 H   0  0  0  0  0  0
  -30.5462  -17.0276   20.0172 H   0  0  0  0  0  0
  -29.0501  -17.1714   20.8838 H   0  0  0  0  0  0
  -29.0399  -25.9759   21.8973 H   0  0  0  0  0  0
  -27.3863  -25.5699   21.5312 H   0  0  0  0  0  0
  -30.4248  -17.2517   23.0657 H   0  0  0  0  0  0
  -29.1456  -15.0578   21.6684 H   0  0  0  0  0  0
  1 25  1  0  0  0
  1 30  2  0  0  0
  1 85  1  0  0  0
  2  3  1  0  0  0
  2 25  1  0  0  0
  2 86  1  0  0  0
  2 87  1  0  0  0
  3  4  1  0  0  0
  3 88  1  0  0  0
  3 89  1  0  0  0
  4  5  1  0  0  0
  4 90  1  0  0  0
  4 91  1  0  0  0
  5  6  1  0  0  0
  5 26  1  0  0  0
  5 92  1  0  0  0
  6 25  1  0  0  0
  6 93  1  0  0  0
  6 94  1  0  0  0
  7  8  2  0  0  0
  7 26  1  0  0  0
  7 29  1  0  0  0
  8  9  1  0  0  0
  8 22  1  0  0  0
  9 10  1  0  0  0
  9 27  2  0  0  0
 10 11  2  0  0  0
 10 15  1  0  0  0
 11 12  1  0  0  0
 11 95  1  0  0  0
 12 13  2  0  0  0
 12 96  1  0  0  0
 13 14  1  0  0  0
 13 31  1  0  0  0
 14 15  2  0  0  0
 14 97  1  0  0  0
 15 98  1  0  0  0
 16 17  2  0  0  0
 16 21  1  0  0  0
 16 31  1  0  0  0
 17 18  1  0  0  0
 17 99  1  0  0  0
 18 19  2  0  0  0
 18100  1  0  0  0
 19 20  1  0  0  0
 19 24  1  0  0  0
 20 21  2  0  0  0
 20101  1  0  0  0
 21 23  1  0  0  0
 22 28  1  0  0  0
 22 32  2  0  0  0
 26 27  1  0  0  0
 28102  1  0  0  0
 28103  1  0  0  0
 29104  1  0  0  0
 29105  1  0  0  0
 33 34  1  0  0  0
 33 66  1  0  0  0
 33 70  2  0  0  0
 34 36  1  0  0  0
 34 59  1  0  0  0
 34106  1  0  0  0
 35 44  2  0  0  0
 35 45  1  0  0  0
 35 68  1  0  0  0
 36 56  1  0  0  0
 36107  1  0  0  0
 37 39  1  0  0  0
 37 47  1  0  0  0
 37 66  1  0  0  0
 37108  1  0  0  0
 38 43  2  0  0  0
 38 46  1  0  0  0
 38 47  1  0  0  0
 39 64  1  0  0  0
 39 67  2  0  0  0
 40 52  1  0  0  0
 40 53  2  0  0  0
 40 58  1  0  0  0
 41109  1  0  0  0
 41110  1  0  0  0
 41111  1  0  0  0
 41 48  1  0  0  0
 42 43  1  0  0  0
 42 66  1  0  0  0
 42112  1  0  0  0
 42113  1  0  0  0
 43 44  1  0  0  0
 44114  1  0  0  0
 45 46  2  0  0  0
 45115  1  0  0  0
 46116  1  0  0  0
 47117  1  0  0  0
 47118  1  0  0  0
 48 56  1  0  0  0
 48 65  1  0  0  0
 48119  1  0  0  0
 49 50  1  0  0  0
 49 53  1  0  0  0
 49 64  1  0  0  0
 49120  1  0  0  0
 50 51  1  0  0  0
 50121  1  0  0  0
 50122  1  0  0  0
 51 52  1  0  0  0
 51123  1  0  0  0
 51124  1  0  0  0
 52125  1  0  0  0
 52126  1  0  0  0
 53 54  1  0  0  0
 54 55  2  0  0  0
 54127  1  0  0  0
 55 57  1  0  0  0
 55128  1  0  0  0
 56 69  2  0  0  0
 57 58  2  0  0  0
 57129  1  0  0  0
 58130  1  0  0  0
 59 60  1  0  0  0
 59 61  1  0  0  0
 59 62  1  0  0  0
 60131  1  0  0  0
 60132  1  0  0  0
 60133  1  0  0  0
 61134  1  0  0  0
 61135  1  0  0  0
 61136  1  0  0  0
 62137  1  0  0  0
 62138  1  0  0  0
 62139  1  0  0  0
 63 65  1  0  0  0
 63140  1  0  0  0
 63141  1  0  0  0
 63142  1  0  0  0
 64143  1  0  0  0
 65144  1  0  0  0
 68 81  1  0  0  0
 71 72  1  0  0  0
 71 73  2  0  0  0
 71145  1  0  0  0
 72 74  1  0  0  0
 72 83  2  0  0  0
 73 76  1  0  0  0
 73 84  1  0  0  0
 74146  1  0  0  0
 74147  1  0  0  0
 74148  1  0  0  0
 75149  1  0  0  0
 75150  1  0  0  0
 75151  1  0  0  0
 75 82  1  0  0  0
 76 77  1  0  0  0
 76152  1  0  0  0
 76153  1  0  0  0
 77 78  1  0  0  0
 77154  1  0  0  0
 77155  1  0  0  0
 78 81  1  0  0  0
 78156  1  0  0  0
 78157  1  0  0  0
 79 82  1  0  0  0
 79 84  1  0  0  0
 79158  1  0  0  0
 79159  1  0  0  0
 80 82  1  0  0  0
 80 85  1  0  0  0
 80160  1  0  0  0
 80161  1  0  0  0
 81162  1  0  0  0
 81163  1  0  0  0
 82164  1  0  0  0
 83 84  1  0  0  0
 85165  1  0  0  0
M  ISO  4   1 100  68 101  81 101  85 100
M  END
> <chiral flag>
0

> <version>
0

> <s_m_source_file>
/data/baiqing/PycharmProjects/Reinvent-master-3.2/result/LINK_invent/BTK/process_docking_weight1_custom_sum_contain_oxygen_bond_distance_aromatic_linkinvent_7_9_3/rearranged_h_0091.sdf

> <i_m_source_file_index>
27

> <r_mmod_Potential_Energy-OPLS-2005>
-120.628044128418

> <r_mmod_Stretch_Energy-OPLS-2005>
33.0623588562012

> <r_mmod_Bend_Energy-OPLS-2005>
90.7863006591797

> <r_mmod_Torsional_Energy-OPLS-2005>
245.731216430664

> <r_mmod_Improper_Torsional_Energy-OPLS-2005>
4.93598127365112

> <r_mmod_Van_der_Waal_Energy-OPLS-2005>
127.113563537598

> <r_mmod_Electrostatic_Energy-OPLS-2005>
-424.515441894531

> <r_mmod_Solvation_Energy-OPLS-2005>
-206.323471069336

> <b_mmod_Minimization_Converged-OPLS-2005>
0

> <r_mmod_RMS_Derivative-OPLS-2005>
1.09709560871124

$$$$
28
                    3D
 Structure written by MMmdl.
167175  0  0  1  0            999 V2000
  -30.6026  -14.7637   20.4563 C   0  0  0  0  0  0
  -30.4371  -12.4706   19.4690 C   0  0  0  0  0  0
  -29.5079  -12.5037   18.2364 C   0  0  0  0  0  0
  -28.0364  -12.3200   18.6572 C   0  0  0  0  0  0
  -27.6380  -13.2328   19.8474 C   0  0  2  0  0  0
  -28.6850  -13.1793   20.9803 C   0  0  0  0  0  0
  -25.2482  -13.8212   20.5687 C   0  0  0  0  0  0
  -24.1779  -13.0448   20.9208 C   0  0  0  0  0  0
  -24.6381  -11.6934   20.8738 C   0  0  0  0  0  0
  -23.9064  -10.4307   21.0402 C   0  0  0  0  0  0
  -24.3621   -9.4225   21.9175 C   0  0  0  0  0  0
  -23.6305   -8.2256   22.0741 C   0  0  0  0  0  0
  -22.4285   -8.0288   21.3536 C   0  0  0  0  0  0
  -21.9921   -9.0261   20.4639 C   0  0  0  0  0  0
  -22.7243  -10.2146   20.3051 C   0  0  0  0  0  0
  -21.6866   -6.0743   22.5272 C   0  0  0  0  0  0
  -21.4026   -6.5649   23.8209 C   0  0  0  0  0  0
  -21.3650   -5.6799   24.9166 C   0  0  0  0  0  0
  -21.6047   -4.3063   24.7222 C   0  0  0  0  0  0
  -21.8821   -3.8155   23.4347 C   0  0  0  0  0  0
  -21.9202   -4.6972   22.3399 C   0  0  0  0  0  0
  -22.7808  -13.5223   21.1885 C   0  0  0  0  0  0
  -22.1669   -4.2155   21.0976 F   0  0  0  0  0  0
  -21.5616   -3.4545   25.7733 F   0  0  0  0  0  0
  -29.9802  -13.5368   20.3889 N   0  0  0  0  0  0
  -26.2911  -12.9421   20.3283 N   0  0  0  0  0  0
  -25.9308  -11.6561   20.5763 N   0  0  0  0  0  0
  -22.0480  -12.8174   22.0448 N   0  0  0  0  0  0
  -25.4145  -15.1929   20.4074 N   0  0  0  0  0  0
  -31.8024  -14.8563   20.1858 O   0  0  0  0  0  0
  -21.6653   -6.8882   21.4232 O   0  0  0  0  0  0
  -22.3479  -14.5533   20.6764 O   0  0  0  0  0  0
  -24.6334  -31.8514   23.1981 C   0  0  0  0  0  0
  -25.9155  -32.4713   23.8332 C   0  0  1  0  0  0
  -27.2174  -27.2527   20.1181 C   0  0  0  0  0  0
  -25.5930  -33.8521   24.2245 N   0  0  0  0  0  0
  -23.4295  -30.4745   21.5434 C   0  0  2  0  0  0
  -24.8742  -28.9237   20.1066 C   0  0  0  0  0  0
  -22.7514  -29.4563   22.4928 C   0  0  0  0  0  0
  -18.0299  -28.1357   22.8459 C   0  0  0  0  0  0
  -24.1495  -36.7302   23.2630 C   0  0  0  0  0  0
  -25.9766  -30.7607   21.3793 C   0  0  0  0  0  0
  -26.0479  -29.3834   20.7192 C   0  0  0  0  0  0
  -27.2191  -28.5600   20.7149 C   0  0  0  0  0  0
  -26.0223  -26.8684   19.4671 C   0  0  0  0  0  0
  -24.8678  -27.6742   19.4700 C   0  0  0  0  0  0
  -23.6445  -29.8097   20.1597 C   0  0  0  0  0  0
  -25.4111  -36.3035   24.0301 C   0  0  1  0  0  0
  -20.5906  -28.3659   23.1257 C   0  0  2  0  0  0
  -20.6782  -26.9371   22.5407 C   0  0  0  0  0  0
  -19.5760  -26.6348   21.5201 C   0  0  0  0  0  0
  -18.1939  -26.7897   22.1599 C   0  0  0  0  0  0
  -19.1553  -28.8827   23.2841 C   0  0  0  0  0  0
  -18.9465  -30.1437   23.8835 C   0  0  0  0  0  0
  -17.6461  -30.6546   24.0546 C   0  0  0  0  0  0
  -25.9052  -34.9401   23.5071 C   0  0  0  0  0  0
  -16.5354  -29.9041   23.6321 C   0  0  0  0  0  0
  -16.7283  -28.6481   23.0305 C   0  0  0  0  0  0
  -26.4526  -31.6535   25.0733 C   0  0  0  0  0  0
  -25.3746  -31.3681   26.1460 C   0  0  0  0  0  0
  -27.0372  -30.2928   24.6249 C   0  0  0  0  0  0
  -27.6077  -32.4299   25.7489 C   0  0  0  0  0  0
  -27.5581  -37.1777   24.8446 C   0  0  0  0  0  0
  -21.4223  -29.3000   22.3653 N   0  0  0  0  0  0
  -26.4281  -37.3738   23.9397 N   0  0  0  0  0  0
  -24.6992  -31.0466   22.0963 N   0  0  0  0  0  0
  -23.4211  -28.8100   23.3021 O   0  0  0  0  0  0
  -28.3121  -26.3547   20.1923 O   0  0  0  0  0  0
  -26.5644  -34.8881   22.4656 O   0  0  0  0  0  0
  -23.5488  -32.1356   23.7258 O   0  0  0  0  0  0
  -27.1449  -21.5287   21.2665 C   0  0  0  0  0  0
  -26.1914  -20.6587   21.8149 C   0  0  0  0  0  0
  -28.3396  -21.0562   20.6827 C   0  0  0  0  0  0
  -26.4910  -19.2866   21.8331 C   0  0  0  0  0  0
  -28.5502  -19.5941   20.7289 C   0  0  0  0  0  0
  -25.5622  -18.2520   22.4405 C   0  0  0  0  0  0
  -22.8090  -22.6346   21.7378 C   0  0  0  0  0  0
  -24.8775  -21.2357   22.3349 C   0  0  0  0  0  0
  -29.1907  -22.2054   20.0060 C   0  0  0  0  0  0
  -29.6435  -18.6581   20.0683 C   0  0  0  0  0  0
  -24.0713  -21.9346   21.2222 C   0  0  0  0  0  0
  -29.1084  -23.7629   20.5164 C   0  0  0  0  0  0
  -30.2404  -17.3646   20.8746 C   0  0  0  0  0  0
  -28.1229  -24.8882   19.8922 C   0  0  0  0  0  0
  -27.6219  -18.7940   21.2999 N   0  0  0  0  0  0
  -29.8249  -15.9025   20.6322 N   0  0  0  0  0  0
  -31.4726  -12.6129   19.1564 H   0  0  0  0  0  0
  -30.4028  -11.4994   19.9631 H   0  0  0  0  0  0
  -29.7929  -11.7275   17.5252 H   0  0  0  0  0  0
  -29.6227  -13.4561   17.7169 H   0  0  0  0  0  0
  -27.9045  -11.2741   18.9379 H   0  0  0  0  0  0
  -27.3724  -12.4922   17.8098 H   0  0  0  0  0  0
  -27.6276  -14.2497   19.4548 H   0  0  0  0  0  0
  -28.7281  -12.1852   21.4277 H   0  0  0  0  0  0
  -28.4197  -13.8672   21.7848 H   0  0  0  0  0  0
  -25.2766   -9.5718   22.4755 H   0  0  0  0  0  0
  -24.0027   -7.4655   22.7463 H   0  0  0  0  0  0
  -21.0857   -8.8784   19.8950 H   0  0  0  0  0  0
  -22.3696  -10.9685   19.6173 H   0  0  0  0  0  0
  -21.2025   -7.6161   23.9712 H   0  0  0  0  0  0
  -21.1465   -6.0530   25.9068 H   0  0  0  0  0  0
  -22.0613   -2.7618   23.2844 H   0  0  0  0  0  0
  -22.4129  -11.9822   22.4783 H   0  0  0  0  0  0
  -21.1105  -13.1162   22.2702 H   0  0  0  0  0  0
  -24.6419  -15.8404   20.5101 H   0  0  0  0  0  0
  -26.2610  -15.6402   20.0797 H   0  0  0  0  0  0
  -26.7222  -32.5353   23.1078 H   0  0  0  0  0  0
  -25.0009  -33.9635   25.0348 H   0  0  0  0  0  0
  -22.7245  -31.2953   21.3992 H   0  0  0  0  0  0
  -23.3714  -35.9675   23.3270 H   0  0  0  0  0  0
  -24.3602  -36.8989   22.2058 H   0  0  0  0  0  0
  -23.7319  -37.6511   23.6700 H   0  0  0  0  0  0
  -26.1159  -31.5175   20.6069 H   0  0  0  0  0  0
  -26.8559  -30.8131   22.0106 H   0  0  0  0  0  0
  -28.1181  -28.9018   21.2088 H   0  0  0  0  0  0
  -25.9456  -25.9186   18.9596 H   0  0  0  0  0  0
  -23.9713  -27.3168   18.9824 H   0  0  0  0  0  0
  -23.7599  -30.5860   19.4034 H   0  0  0  0  0  0
  -22.7610  -29.2416   19.8613 H   0  0  0  0  0  0
  -25.1299  -36.1868   25.0792 H   0  0  0  0  0  0
  -20.9983  -28.3241   24.1381 H   0  0  0  0  0  0
  -20.5669  -26.2255   23.3612 H   0  0  0  0  0  0
  -21.6645  -26.7377   22.1202 H   0  0  0  0  0  0
  -19.6921  -25.6255   21.1224 H   0  0  0  0  0  0
  -19.6705  -27.3146   20.6727 H   0  0  0  0  0  0
  -17.4214  -26.6624   21.4000 H   0  0  0  0  0  0
  -18.0329  -26.0045   22.9002 H   0  0  0  0  0  0
  -19.7941  -30.7275   24.2162 H   0  0  0  0  0  0
  -17.5010  -31.6217   24.5168 H   0  0  0  0  0  0
  -15.5344  -30.2911   23.7687 H   0  0  0  0  0  0
  -15.8692  -28.0811   22.6992 H   0  0  0  0  0  0
  -24.5965  -30.6958   25.7838 H   0  0  0  0  0  0
  -24.8858  -32.2821   26.4821 H   0  0  0  0  0  0
  -25.8093  -30.8948   27.0276 H   0  0  0  0  0  0
  -26.2964  -29.6628   24.1301 H   0  0  0  0  0  0
  -27.4061  -29.7232   25.4794 H   0  0  0  0  0  0
  -27.8842  -30.4171   23.9500 H   0  0  0  0  0  0
  -27.2693  -33.3627   26.2010 H   0  0  0  0  0  0
  -28.3902  -32.6825   25.0321 H   0  0  0  0  0  0
  -28.0719  -31.8463   26.5448 H   0  0  0  0  0  0
  -28.2547  -38.0117   24.7517 H   0  0  0  0  0  0
  -28.1134  -36.2647   24.6240 H   0  0  0  0  0  0
  -27.2303  -37.1411   25.8848 H   0  0  0  0  0  0
  -20.9406  -29.8754   21.6888 H   0  0  0  0  0  0
  -26.0141  -38.2799   24.1417 H   0  0  0  0  0  0
  -26.9174  -22.5831   21.2624 H   0  0  0  0  0  0
  -25.2526  -18.5486   23.4435 H   0  0  0  0  0  0
  -26.0527  -17.2821   22.5301 H   0  0  0  0  0  0
  -24.6732  -18.1284   21.8206 H   0  0  0  0  0  0
  -22.2740  -23.1138   20.9159 H   0  0  0  0  0  0
  -23.0561  -23.4122   22.4627 H   0  0  0  0  0  0
  -22.1262  -21.9290   22.2140 H   0  0  0  0  0  0
  -25.1124  -21.9458   23.1293 H   0  0  0  0  0  0
  -24.2536  -20.4699   22.7949 H   0  0  0  0  0  0
  -29.0000  -22.1825   18.9316 H   0  0  0  0  0  0
  -30.2289  -21.8866   20.1118 H   0  0  0  0  0  0
  -30.4803  -19.3186   19.8422 H   0  0  0  0  0  0
  -29.2765  -18.3366   19.0929 H   0  0  0  0  0  0
  -24.6868  -22.6863   20.7262 H   0  0  0  0  0  0
  -23.8001  -21.2073   20.4543 H   0  0  0  0  0  0
  -30.1062  -24.1637   20.3298 H   0  0  0  0  0  0
  -29.0245  -23.7785   21.6028 H   0  0  0  0  0  0
  -30.1283  -17.5610   21.9414 H   0  0  0  0  0  0
  -31.3179  -17.3920   20.7139 H   0  0  0  0  0  0
  -27.1200  -24.5941   20.1972 H   0  0  0  0  0  0
  -28.1512  -24.7878   18.8067 H   0  0  0  0  0  0
  -28.8382  -15.7219   20.7461 H   0  0  0  0  0  0
  1 25  1  0  0  0
  1 30  2  0  0  0
  1 86  1  0  0  0
  2  3  1  0  0  0
  2 25  1  0  0  0
  2 87  1  0  0  0
  2 88  1  0  0  0
  3  4  1  0  0  0
  3 89  1  0  0  0
  3 90  1  0  0  0
  4  5  1  0  0  0
  4 91  1  0  0  0
  4 92  1  0  0  0
  5  6  1  0  0  0
  5 26  1  0  0  0
  5 93  1  0  0  0
  6 25  1  0  0  0
  6 94  1  0  0  0
  6 95  1  0  0  0
  7  8  2  0  0  0
  7 26  1  0  0  0
  7 29  1  0  0  0
  8  9  1  0  0  0
  8 22  1  0  0  0
  9 10  1  0  0  0
  9 27  2  0  0  0
 10 11  2  0  0  0
 10 15  1  0  0  0
 11 12  1  0  0  0
 11 96  1  0  0  0
 12 13  2  0  0  0
 12 97  1  0  0  0
 13 14  1  0  0  0
 13 31  1  0  0  0
 14 15  2  0  0  0
 14 98  1  0  0  0
 15 99  1  0  0  0
 16 17  2  0  0  0
 16 21  1  0  0  0
 16 31  1  0  0  0
 17 18  1  0  0  0
 17100  1  0  0  0
 18 19  2  0  0  0
 18101  1  0  0  0
 19 20  1  0  0  0
 19 24  1  0  0  0
 20 21  2  0  0  0
 20102  1  0  0  0
 21 23  1  0  0  0
 22 28  1  0  0  0
 22 32  2  0  0  0
 26 27  1  0  0  0
 28103  1  0  0  0
 28104  1  0  0  0
 29105  1  0  0  0
 29106  1  0  0  0
 33 34  1  0  0  0
 33 66  1  0  0  0
 33 70  2  0  0  0
 34 36  1  0  0  0
 34 59  1  0  0  0
 34107  1  0  0  0
 35 44  2  0  0  0
 35 45  1  0  0  0
 35 68  1  0  0  0
 36 56  1  0  0  0
 36108  1  0  0  0
 37 39  1  0  0  0
 37 47  1  0  0  0
 37 66  1  0  0  0
 37109  1  0  0  0
 38 43  2  0  0  0
 38 46  1  0  0  0
 38 47  1  0  0  0
 39 64  1  0  0  0
 39 67  2  0  0  0
 40 52  1  0  0  0
 40 53  2  0  0  0
 40 58  1  0  0  0
 41110  1  0  0  0
 41111  1  0  0  0
 41112  1  0  0  0
 41 48  1  0  0  0
 42 43  1  0  0  0
 42 66  1  0  0  0
 42113  1  0  0  0
 42114  1  0  0  0
 43 44  1  0  0  0
 44115  1  0  0  0
 45 46  2  0  0  0
 45116  1  0  0  0
 46117  1  0  0  0
 47118  1  0  0  0
 47119  1  0  0  0
 48 56  1  0  0  0
 48 65  1  0  0  0
 48120  1  0  0  0
 49 50  1  0  0  0
 49 53  1  0  0  0
 49 64  1  0  0  0
 49121  1  0  0  0
 50 51  1  0  0  0
 50122  1  0  0  0
 50123  1  0  0  0
 51 52  1  0  0  0
 51124  1  0  0  0
 51125  1  0  0  0
 52126  1  0  0  0
 52127  1  0  0  0
 53 54  1  0  0  0
 54 55  2  0  0  0
 54128  1  0  0  0
 55 57  1  0  0  0
 55129  1  0  0  0
 56 69  2  0  0  0
 57 58  2  0  0  0
 57130  1  0  0  0
 58131  1  0  0  0
 59 60  1  0  0  0
 59 61  1  0  0  0
 59 62  1  0  0  0
 60132  1  0  0  0
 60133  1  0  0  0
 60134  1  0  0  0
 61135  1  0  0  0
 61136  1  0  0  0
 61137  1  0  0  0
 62138  1  0  0  0
 62139  1  0  0  0
 62140  1  0  0  0
 63 65  1  0  0  0
 63141  1  0  0  0
 63142  1  0  0  0
 63143  1  0  0  0
 64144  1  0  0  0
 65145  1  0  0  0
 68 84  1  0  0  0
 71 72  2  0  0  0
 71 73  1  0  0  0
 71146  1  0  0  0
 72 74  1  0  0  0
 72 78  1  0  0  0
 73 75  2  0  0  0
 73 79  1  0  0  0
 74 76  1  0  0  0
 74 85  2  0  0  0
 75 80  1  0  0  0
 75 85  1  0  0  0
 76147  1  0  0  0
 76148  1  0  0  0
 76149  1  0  0  0
 77 81  1  0  0  0
 77150  1  0  0  0
 77151  1  0  0  0
 77152  1  0  0  0
 78 81  1  0  0  0
 78153  1  0  0  0
 78154  1  0  0  0
 79 82  1  0  0  0
 79155  1  0  0  0
 79156  1  0  0  0
 80 83  1  0  0  0
 80157  1  0  0  0
 80158  1  0  0  0
 81159  1  0  0  0
 81160  1  0  0  0
 82 84  1  0  0  0
 82161  1  0  0  0
 82162  1  0  0  0
 83 86  1  0  0  0
 83163  1  0  0  0
 83164  1  0  0  0
 84165  1  0  0  0
 84166  1  0  0  0
 86167  1  0  0  0
M  ISO  4   1 100  68 101  84 101  86 100
M  END
> <chiral flag>
0

> <version>
0

> <s_m_source_file>
/data/baiqing/PycharmProjects/Reinvent-master-3.2/result/LINK_invent/BTK/process_docking_weight1_custom_sum_contain_oxygen_bond_distance_aromatic_linkinvent_7_9_3/rearranged_h_0091.sdf

> <i_m_source_file_index>
28

> <r_mmod_Potential_Energy-OPLS-2005>
86.8325729370117

> <r_mmod_Stretch_Energy-OPLS-2005>
137.983673095703

> <r_mmod_Bend_Energy-OPLS-2005>
215.813323974609

> <r_mmod_Torsional_Energy-OPLS-2005>
224.986206054688

> <r_mmod_Improper_Torsional_Energy-OPLS-2005>
5.01192998886108

> <r_mmod_Van_der_Waal_Energy-OPLS-2005>
134.711578369141

> <r_mmod_Electrostatic_Energy-OPLS-2005>
-512.466064453125

> <r_mmod_Solvation_Energy-OPLS-2005>
-213.975250244141

> <b_mmod_Minimization_Converged-OPLS-2005>
0

> <r_mmod_RMS_Derivative-OPLS-2005>
2.43806099891663

$$$$
29
                    3D
 Structure written by MMmdl.
172180  0  0  1  0            999 V2000
  -30.6883  -14.5008   20.5577 C   0  0  0  0  0  0
  -30.4116  -12.3095   19.4399 C   0  0  0  0  0  0
  -29.4917  -12.4926   18.2147 C   0  0  0  0  0  0
  -28.0073  -12.3774   18.6151 C   0  0  0  0  0  0
  -27.6516  -13.2168   19.8739 C   0  0  2  0  0  0
  -28.6917  -13.0082   20.9993 C   0  0  0  0  0  0
  -25.2419  -13.8142   20.5542 C   0  0  0  0  0  0
  -24.1759  -13.0394   20.9227 C   0  0  0  0  0  0
  -24.6367  -11.6882   20.8792 C   0  0  0  0  0  0
  -23.9060  -10.4254   21.0441 C   0  0  0  0  0  0
  -24.3615   -9.4145   21.9195 C   0  0  0  0  0  0
  -23.6272   -8.2178   22.0737 C   0  0  0  0  0  0
  -22.4248   -8.0245   21.3535 C   0  0  0  0  0  0
  -21.9916   -9.0222   20.4625 C   0  0  0  0  0  0
  -22.7259  -10.2093   20.3054 C   0  0  0  0  0  0
  -21.6828   -6.0713   22.5297 C   0  0  0  0  0  0
  -21.3981   -6.5616   23.8229 C   0  0  0  0  0  0
  -21.3645   -5.6774   24.9203 C   0  0  0  0  0  0
  -21.6051   -4.3041   24.7251 C   0  0  0  0  0  0
  -21.8819   -3.8128   23.4379 C   0  0  0  0  0  0
  -21.9179   -4.6939   22.3424 C   0  0  0  0  0  0
  -22.7784  -13.5170   21.1929 C   0  0  0  0  0  0
  -22.1650   -4.2128   21.1003 F   0  0  0  0  0  0
  -21.5637   -3.4530   25.7765 F   0  0  0  0  0  0
  -30.0207  -13.3157   20.4481 N   0  0  0  0  0  0
  -26.2927  -12.9372   20.3337 N   0  0  0  0  0  0
  -25.9297  -11.6527   20.5821 N   0  0  0  0  0  0
  -22.0441  -12.8137   22.0493 N   0  0  0  0  0  0
  -25.3899  -15.1823   20.3605 N   0  0  0  0  0  0
  -31.8222  -14.6544   20.0968 O   0  0  0  0  0  0
  -21.6599   -6.8848   21.4245 O   0  0  0  0  0  0
  -22.3451  -14.5486   20.6810 O   0  0  0  0  0  0
  -24.6151  -31.8614   23.2043 C   0  0  0  0  0  0
  -25.9035  -32.4781   23.8339 C   0  0  1  0  0  0
  -27.2348  -27.3919   20.1124 C   0  0  0  0  0  0
  -25.5884  -33.8577   24.2228 N   0  0  0  0  0  0
  -23.4080  -30.4839   21.5451 C   0  0  2  0  0  0
  -24.8577  -28.9465   20.1095 C   0  0  0  0  0  0
  -22.7425  -29.4601   22.4956 C   0  0  0  0  0  0
  -18.0259  -28.1368   22.8451 C   0  0  0  0  0  0
  -24.1493  -36.7297   23.2641 C   0  0  0  0  0  0
  -25.9409  -30.8159   21.3675 C   0  0  0  0  0  0
  -26.0213  -29.4507   20.7071 C   0  0  0  0  0  0
  -27.2128  -28.6842   20.6981 C   0  0  0  0  0  0
  -26.0499  -26.9126   19.5045 C   0  0  0  0  0  0
  -24.8689  -27.6780   19.5046 C   0  0  0  0  0  0
  -23.6212  -29.8182   20.1590 C   0  0  0  0  0  0
  -25.4117  -36.3064   24.0316 C   0  0  1  0  0  0
  -20.5845  -28.3634   23.1297 C   0  0  2  0  0  0
  -20.6751  -26.9368   22.5409 C   0  0  0  0  0  0
  -19.5741  -26.6347   21.5194 C   0  0  0  0  0  0
  -18.1907  -26.7897   22.1603 C   0  0  0  0  0  0
  -19.1515  -28.8825   23.2854 C   0  0  0  0  0  0
  -18.9470  -30.1435   23.8854 C   0  0  0  0  0  0
  -17.6479  -30.6589   24.0545 C   0  0  0  0  0  0
  -25.9060  -34.9435   23.5071 C   0  0  0  0  0  0
  -16.5348  -29.9097   23.6341 C   0  0  0  0  0  0
  -16.7250  -28.6519   23.0328 C   0  0  0  0  0  0
  -26.4447  -31.6617   25.0716 C   0  0  0  0  0  0
  -25.3689  -31.3762   26.1457 C   0  0  0  0  0  0
  -27.0316  -30.3053   24.6159 C   0  0  0  0  0  0
  -27.5980  -32.4389   25.7510 C   0  0  0  0  0  0
  -27.5561  -37.1799   24.8456 C   0  0  0  0  0  0
  -21.4144  -29.2989   22.3708 N   0  0  0  0  0  0
  -26.4270  -37.3768   23.9420 N   0  0  0  0  0  0
  -24.6721  -31.0676   22.0973 N   0  0  0  0  0  0
  -23.4171  -28.8155   23.3016 O   0  0  0  0  0  0
  -28.3808  -26.6046   20.1736 O   0  0  0  0  0  0
  -26.5648  -34.8909   22.4644 O   0  0  0  0  0  0
  -23.5352  -32.1392   23.7433 O   0  0  0  0  0  0
  -27.1080  -20.3840   20.9731 C   0  0  0  0  0  0
  -28.5206  -20.2102   21.0661 C   0  0  0  0  0  0
  -26.4620  -19.2445   21.3405 C   0  0  0  0  0  0
  -28.7029  -18.9015   21.5176 C   0  0  0  0  0  0
  -30.7386  -20.8049   19.9278 C   0  0  0  0  0  0
  -24.3499  -19.2380   19.9764 C   0  0  0  0  0  0
  -24.2798  -19.8117   22.4457 C   0  0  0  0  0  0
  -27.2041  -17.0309   22.3257 C   0  0  0  0  0  0
  -29.9402  -18.0632   21.8484 C   0  0  0  0  0  0
  -28.9440  -23.9466   20.8260 C   0  0  0  0  0  0
  -28.9483  -22.6135   20.0119 C   0  0  0  0  0  0
  -30.3879  -16.9872   20.8018 C   0  0  0  0  0  0
  -28.1902  -25.1613   20.1513 C   0  0  0  0  0  0
  -29.5401  -21.3343   20.7405 C   0  0  1  0  0  0
  -24.9763  -18.9864   21.3549 C   0  0  0  0  0  0
  -27.4397  -18.3471   21.7464 N   0  0  0  0  0  0
  -29.9881  -15.5665   21.0230 N   0  0  0  0  0  0
  -31.4569  -12.3963   19.1387 H   0  0  0  0  0  0
  -30.3078  -11.3005   19.8457 H   0  0  0  0  0  0
  -29.7300  -11.7503   17.4509 H   0  0  0  0  0  0
  -29.6757  -13.4675   17.7611 H   0  0  0  0  0  0
  -27.7919  -11.3241   18.7982 H   0  0  0  0  0  0
  -27.3735  -12.6724   17.7777 H   0  0  0  0  0  0
  -27.6915  -14.2648   19.5774 H   0  0  0  0  0  0
  -28.6651  -11.9728   21.3463 H   0  0  0  0  0  0
  -28.4575  -13.6170   21.8732 H   0  0  0  0  0  0
  -25.2761   -9.5580   22.4782 H   0  0  0  0  0  0
  -23.9968   -7.4539   22.7441 H   0  0  0  0  0  0
  -21.0859   -8.8746   19.8919 H   0  0  0  0  0  0
  -22.3744  -10.9623   19.6143 H   0  0  0  0  0  0
  -21.1944   -7.6122   23.9738 H   0  0  0  0  0  0
  -21.1478   -6.0501   25.9108 H   0  0  0  0  0  0
  -22.0618   -2.7591   23.2900 H   0  0  0  0  0  0
  -22.4054  -11.9781   22.4854 H   0  0  0  0  0  0
  -21.1049  -13.1128   22.2717 H   0  0  0  0  0  0
  -24.5988  -15.8124   20.4320 H   0  0  0  0  0  0
  -26.2031  -15.6197   19.9471 H   0  0  0  0  0  0
  -26.7113  -32.5490   23.1124 H   0  0  0  0  0  0
  -24.9941  -33.9719   25.0306 H   0  0  0  0  0  0
  -22.6963  -31.2998   21.4034 H   0  0  0  0  0  0
  -23.3727  -35.9663   23.3313 H   0  0  0  0  0  0
  -24.3561  -36.8931   22.2061 H   0  0  0  0  0  0
  -23.7318  -37.6515   23.6684 H   0  0  0  0  0  0
  -26.0608  -31.5907   20.6089 H   0  0  0  0  0  0
  -26.8234  -30.8621   21.9947 H   0  0  0  0  0  0
  -28.1105  -29.0582   21.1731 H   0  0  0  0  0  0
  -26.0287  -25.9412   19.0315 H   0  0  0  0  0  0
  -23.9751  -27.2801   19.0428 H   0  0  0  0  0  0
  -23.7353  -30.5957   19.4028 H   0  0  0  0  0  0
  -22.7445  -29.2431   19.8555 H   0  0  0  0  0  0
  -25.1305  -36.1881   25.0817 H   0  0  0  0  0  0
  -20.9908  -28.3221   24.1425 H   0  0  0  0  0  0
  -20.5649  -26.2253   23.3607 H   0  0  0  0  0  0
  -21.6629  -26.7398   22.1207 H   0  0  0  0  0  0
  -19.6915  -25.6245   21.1262 H   0  0  0  0  0  0
  -19.6710  -27.3138   20.6699 H   0  0  0  0  0  0
  -17.4165  -26.6595   21.4016 H   0  0  0  0  0  0
  -18.0316  -26.0052   22.9027 H   0  0  0  0  0  0
  -19.7979  -30.7222   24.2213 H   0  0  0  0  0  0
  -17.5077  -31.6289   24.5123 H   0  0  0  0  0  0
  -15.5369  -30.3001   23.7724 H   0  0  0  0  0  0
  -15.8624  -28.0885   22.7015 H   0  0  0  0  0  0
  -24.5830  -30.7144   25.7790 H   0  0  0  0  0  0
  -24.8921  -32.2957   26.4864 H   0  0  0  0  0  0
  -25.8008  -30.8938   27.0240 H   0  0  0  0  0  0
  -26.2886  -29.6819   24.1170 H   0  0  0  0  0  0
  -27.4014  -29.7297   25.4655 H   0  0  0  0  0  0
  -27.8752  -30.4331   23.9368 H   0  0  0  0  0  0
  -27.2503  -33.3671   26.2045 H   0  0  0  0  0  0
  -28.3805  -32.6996   25.0379 H   0  0  0  0  0  0
  -28.0625  -31.8573   26.5482 H   0  0  0  0  0  0
  -28.2552  -38.0107   24.7466 H   0  0  0  0  0  0
  -28.1069  -36.2626   24.6300 H   0  0  0  0  0  0
  -27.2263  -37.1470   25.8849 H   0  0  0  0  0  0
  -20.9300  -29.8761   21.6988 H   0  0  0  0  0  0
  -26.0130  -38.2831   24.1435 H   0  0  0  0  0  0
  -26.5778  -21.2745   20.6691 H   0  0  0  0  0  0
  -31.3231  -20.0612   20.4635 H   0  0  0  0  0  0
  -31.4410  -21.6071   19.6955 H   0  0  0  0  0  0
  -30.4068  -20.3655   18.9854 H   0  0  0  0  0  0
  -24.7685  -18.5585   19.2331 H   0  0  0  0  0  0
  -24.5191  -20.2572   19.6310 H   0  0  0  0  0  0
  -23.2727  -19.0704   19.9944 H   0  0  0  0  0  0
  -24.6411  -19.5270   23.4335 H   0  0  0  0  0  0
  -23.2004  -19.6558   22.4386 H   0  0  0  0  0  0
  -24.4636  -20.8793   22.3205 H   0  0  0  0  0  0
  -27.4004  -16.2685   21.5762 H   0  0  0  0  0  0
  -26.1899  -16.9211   22.6968 H   0  0  0  0  0  0
  -27.8526  -16.8683   23.1836 H   0  0  0  0  0  0
  -29.8453  -17.6020   22.8287 H   0  0  0  0  0  0
  -30.7739  -18.7427   22.0164 H   0  0  0  0  0  0
  -29.9781  -24.2262   21.0399 H   0  0  0  0  0  0
  -28.5003  -23.6943   21.7947 H   0  0  0  0  0  0
  -29.5313  -22.8107   19.1124 H   0  0  0  0  0  0
  -27.9531  -22.4350   19.6115 H   0  0  0  0  0  0
  -31.4786  -17.0206   20.8014 H   0  0  0  0  0  0
  -30.0935  -17.3010   19.7984 H   0  0  0  0  0  0
  -29.0007  -25.2367   19.4255 H   0  0  0  0  0  0
  -28.1379  -25.4929   21.1902 H   0  0  0  0  0  0
  -29.9347  -21.6589   21.7049 H   0  0  0  0  0  0
  -24.7699  -17.9391   21.5642 H   0  0  0  0  0  0
  -29.0572  -15.3809   21.3613 H   0  0  0  0  0  0
  1 25  1  0  0  0
  1 30  2  0  0  0
  1 87  1  0  0  0
  2  3  1  0  0  0
  2 25  1  0  0  0
  2 88  1  0  0  0
  2 89  1  0  0  0
  3  4  1  0  0  0
  3 90  1  0  0  0
  3 91  1  0  0  0
  4  5  1  0  0  0
  4 92  1  0  0  0
  4 93  1  0  0  0
  5  6  1  0  0  0
  5 26  1  0  0  0
  5 94  1  0  0  0
  6 25  1  0  0  0
  6 95  1  0  0  0
  6 96  1  0  0  0
  7  8  2  0  0  0
  7 26  1  0  0  0
  7 29  1  0  0  0
  8  9  1  0  0  0
  8 22  1  0  0  0
  9 10  1  0  0  0
  9 27  2  0  0  0
 10 11  2  0  0  0
 10 15  1  0  0  0
 11 12  1  0  0  0
 11 97  1  0  0  0
 12 13  2  0  0  0
 12 98  1  0  0  0
 13 14  1  0  0  0
 13 31  1  0  0  0
 14 15  2  0  0  0
 14 99  1  0  0  0
 15100  1  0  0  0
 16 17  2  0  0  0
 16 21  1  0  0  0
 16 31  1  0  0  0
 17 18  1  0  0  0
 17101  1  0  0  0
 18 19  2  0  0  0
 18102  1  0  0  0
 19 20  1  0  0  0
 19 24  1  0  0  0
 20 21  2  0  0  0
 20103  1  0  0  0
 21 23  1  0  0  0
 22 28  1  0  0  0
 22 32  2  0  0  0
 26 27  1  0  0  0
 28104  1  0  0  0
 28105  1  0  0  0
 29106  1  0  0  0
 29107  1  0  0  0
 33 34  1  0  0  0
 33 66  1  0  0  0
 33 70  2  0  0  0
 34 36  1  0  0  0
 34 59  1  0  0  0
 34108  1  0  0  0
 35 44  2  0  0  0
 35 45  1  0  0  0
 35 68  1  0  0  0
 36 56  1  0  0  0
 36109  1  0  0  0
 37 39  1  0  0  0
 37 47  1  0  0  0
 37 66  1  0  0  0
 37110  1  0  0  0
 38 43  2  0  0  0
 38 46  1  0  0  0
 38 47  1  0  0  0
 39 64  1  0  0  0
 39 67  2  0  0  0
 40 52  1  0  0  0
 40 53  2  0  0  0
 40 58  1  0  0  0
 41111  1  0  0  0
 41112  1  0  0  0
 41113  1  0  0  0
 41 48  1  0  0  0
 42 43  1  0  0  0
 42 66  1  0  0  0
 42114  1  0  0  0
 42115  1  0  0  0
 43 44  1  0  0  0
 44116  1  0  0  0
 45 46  2  0  0  0
 45117  1  0  0  0
 46118  1  0  0  0
 47119  1  0  0  0
 47120  1  0  0  0
 48 56  1  0  0  0
 48 65  1  0  0  0
 48121  1  0  0  0
 49 50  1  0  0  0
 49 53  1  0  0  0
 49 64  1  0  0  0
 49122  1  0  0  0
 50 51  1  0  0  0
 50123  1  0  0  0
 50124  1  0  0  0
 51 52  1  0  0  0
 51125  1  0  0  0
 51126  1  0  0  0
 52127  1  0  0  0
 52128  1  0  0  0
 53 54  1  0  0  0
 54 55  2  0  0  0
 54129  1  0  0  0
 55 57  1  0  0  0
 55130  1  0  0  0
 56 69  2  0  0  0
 57 58  2  0  0  0
 57131  1  0  0  0
 58132  1  0  0  0
 59 60  1  0  0  0
 59 61  1  0  0  0
 59 62  1  0  0  0
 60133  1  0  0  0
 60134  1  0  0  0
 60135  1  0  0  0
 61136  1  0  0  0
 61137  1  0  0  0
 61138  1  0  0  0
 62139  1  0  0  0
 62140  1  0  0  0
 62141  1  0  0  0
 63 65  1  0  0  0
 63142  1  0  0  0
 63143  1  0  0  0
 63144  1  0  0  0
 64145  1  0  0  0
 65146  1  0  0  0
 68 83  1  0  0  0
 71 72  1  0  0  0
 71 73  2  0  0  0
 71147  1  0  0  0
 72 74  2  0  0  0
 72 84  1  0  0  0
 73 85  1  0  0  0
 73 86  1  0  0  0
 74 79  1  0  0  0
 74 86  1  0  0  0
 75148  1  0  0  0
 75149  1  0  0  0
 75150  1  0  0  0
 75 84  1  0  0  0
 76151  1  0  0  0
 76152  1  0  0  0
 76153  1  0  0  0
 76 85  1  0  0  0
 77 85  1  0  0  0
 77154  1  0  0  0
 77155  1  0  0  0
 77156  1  0  0  0
 78 86  1  0  0  0
 78157  1  0  0  0
 78158  1  0  0  0
 78159  1  0  0  0
 79 82  1  0  0  0
 79160  1  0  0  0
 79161  1  0  0  0
 80 81  1  0  0  0
 80 83  1  0  0  0
 80162  1  0  0  0
 80163  1  0  0  0
 81 84  1  0  0  0
 81164  1  0  0  0
 81165  1  0  0  0
 82 87  1  0  0  0
 82166  1  0  0  0
 82167  1  0  0  0
 83168  1  0  0  0
 83169  1  0  0  0
 84170  1  0  0  0
 85171  1  0  0  0
 87172  1  0  0  0
M  ISO  4   1 100  68 101  83 101  87 100
M  END
> <chiral flag>
0

> <version>
0

> <s_m_source_file>
/data/baiqing/PycharmProjects/Reinvent-master-3.2/result/LINK_invent/BTK/process_docking_weight1_custom_sum_contain_oxygen_bond_distance_aromatic_linkinvent_7_9_3/rearranged_h_0091.sdf

> <i_m_source_file_index>
29

> <r_mmod_Potential_Energy-OPLS-2005>
166.405532836914

> <r_mmod_Stretch_Energy-OPLS-2005>
57.4817428588867

> <r_mmod_Bend_Energy-OPLS-2005>
342.923706054688

> <r_mmod_Torsional_Energy-OPLS-2005>
248.827789306641

> <r_mmod_Improper_Torsional_Energy-OPLS-2005>
5.26401519775391

> <r_mmod_Van_der_Waal_Energy-OPLS-2005>
137.131927490234

> <r_mmod_Electrostatic_Energy-OPLS-2005>
-450.0556640625

> <r_mmod_Solvation_Energy-OPLS-2005>
-195.968109130859

> <b_mmod_Minimization_Converged-OPLS-2005>
0

> <r_mmod_RMS_Derivative-OPLS-2005>
3.70188283920288

$$$$
30
                    3D
 Structure written by MMmdl.
166174  0  0  1  0            999 V2000
  -30.7500  -14.3778   20.6701 C   0  0  0  0  0  0
  -30.4078  -12.2814   19.4149 C   0  0  0  0  0  0
  -29.4862  -12.5404   18.2076 C   0  0  0  0  0  0
  -28.0085  -12.3887   18.6142 C   0  0  0  0  0  0
  -27.6654  -13.2036   19.8904 C   0  0  2  0  0  0
  -28.7004  -12.9417   21.0078 C   0  0  0  0  0  0
  -25.2572  -13.8163   20.5675 C   0  0  0  0  0  0
  -24.1821  -13.0434   20.9168 C   0  0  0  0  0  0
  -24.6378  -11.6906   20.8729 C   0  0  0  0  0  0
  -23.9046  -10.4304   21.0401 C   0  0  0  0  0  0
  -24.3601   -9.4225   21.9185 C   0  0  0  0  0  0
  -23.6301   -8.2253   22.0761 C   0  0  0  0  0  0
  -22.4290   -8.0274   21.3548 C   0  0  0  0  0  0
  -21.9904   -9.0238   20.4647 C   0  0  0  0  0  0
  -22.7211  -10.2139   20.3064 C   0  0  0  0  0  0
  -21.6852   -6.0742   22.5279 C   0  0  0  0  0  0
  -21.4005   -6.5647   23.8209 C   0  0  0  0  0  0
  -21.3670   -5.6803   24.9175 C   0  0  0  0  0  0
  -21.6050   -4.3064   24.7225 C   0  0  0  0  0  0
  -21.8817   -3.8154   23.4345 C   0  0  0  0  0  0
  -21.9185   -4.6972   22.3400 C   0  0  0  0  0  0
  -22.7849  -13.5235   21.1840 C   0  0  0  0  0  0
  -22.1656   -4.2161   21.0975 F   0  0  0  0  0  0
  -21.5639   -3.4549   25.7736 F   0  0  0  0  0  0
  -30.0445  -13.2337   20.4768 N   0  0  0  0  0  0
  -26.3018  -12.9312   20.3425 N   0  0  0  0  0  0
  -25.9306  -11.6464   20.5791 N   0  0  0  0  0  0
  -22.0501  -12.8215   22.0406 N   0  0  0  0  0  0
  -25.4344  -15.1874   20.4076 N   0  0  0  0  0  0
  -31.7872  -14.6427   20.0562 O   0  0  0  0  0  0
  -21.6639   -6.8880   21.4248 O   0  0  0  0  0  0
  -22.3533  -14.5559   20.6723 O   0  0  0  0  0  0
  -24.6092  -31.8674   23.2081 C   0  0  0  0  0  0
  -25.8987  -32.4802   23.8368 C   0  0  1  0  0  0
  -27.2381  -27.4518   20.1003 C   0  0  0  0  0  0
  -25.5883  -33.8617   24.2278 N   0  0  0  0  0  0
  -23.3977  -30.4846   21.5489 C   0  0  2  0  0  0
  -24.8463  -28.9490   20.1187 C   0  0  0  0  0  0
  -22.7393  -29.4609   22.5022 C   0  0  0  0  0  0
  -18.0260  -28.1301   22.8491 C   0  0  0  0  0  0
  -24.1495  -36.7305   23.2638 C   0  0  0  0  0  0
  -25.9245  -30.8355   21.3596 C   0  0  0  0  0  0
  -26.0050  -29.4745   20.7043 C   0  0  0  0  0  0
  -27.2088  -28.7352   20.6844 C   0  0  0  0  0  0
  -26.0657  -26.9292   19.5208 C   0  0  0  0  0  0
  -24.8701  -27.6748   19.5239 C   0  0  0  0  0  0
  -23.6045  -29.8110   20.1666 C   0  0  0  0  0  0
  -25.4129  -36.3106   24.0324 C   0  0  1  0  0  0
  -20.5869  -28.3567   23.1360 C   0  0  2  0  0  0
  -20.6728  -26.9308   22.5426 C   0  0  0  0  0  0
  -19.5715  -26.6318   21.5205 C   0  0  0  0  0  0
  -18.1899  -26.7851   22.1615 C   0  0  0  0  0  0
  -19.1519  -28.8747   23.2900 C   0  0  0  0  0  0
  -18.9450  -30.1368   23.8876 C   0  0  0  0  0  0
  -17.6461  -30.6526   24.0532 C   0  0  0  0  0  0
  -25.9058  -34.9473   23.5112 C   0  0  0  0  0  0
  -16.5349  -29.9019   23.6340 C   0  0  0  0  0  0
  -16.7253  -28.6440   23.0352 C   0  0  0  0  0  0
  -26.4416  -31.6615   25.0718 C   0  0  0  0  0  0
  -25.3667  -31.3815   26.1478 C   0  0  0  0  0  0
  -27.0276  -30.3071   24.6119 C   0  0  0  0  0  0
  -27.5968  -32.4361   25.7492 C   0  0  0  0  0  0
  -27.5591  -37.1791   24.8454 C   0  0  0  0  0  0
  -21.4126  -29.2991   22.3802 N   0  0  0  0  0  0
  -26.4305  -37.3806   23.9416 N   0  0  0  0  0  0
  -24.6614  -31.0765   22.0973 N   0  0  0  0  0  0
  -23.4186  -28.8151   23.3050 O   0  0  0  0  0  0
  -28.4053  -26.7272   20.0732 O   0  0  0  0  0  0
  -26.5628  -34.8925   22.4674 O   0  0  0  0  0  0
  -23.5285  -32.1459   23.7488 O   0  0  0  0  0  0
  -29.9398  -19.8665   21.3000 C   0  0  0  0  0  0
  -30.2078  -18.9914   22.3133 C   0  0  0  0  0  0
  -31.0009  -19.7000   23.2683 C   0  0  0  0  0  0
  -31.2234  -20.9620   22.7712 C   0  0  0  0  0  0
  -31.4976  -19.1712   24.5932 C   0  0  0  0  0  0
  -32.0069  -22.1080   23.3413 C   0  0  0  0  0  0
  -28.2081  -23.8849   18.9486 C   0  0  0  0  0  0
  -29.7275  -17.5567   22.3739 C   0  0  0  0  0  0
  -29.3012  -23.1779   21.1345 C   0  0  0  0  0  0
  -30.4482  -22.2429   20.7019 C   0  0  0  0  0  0
  -30.7734  -16.5851   21.7928 C   0  0  0  0  0  0
  -28.4128  -25.5512   20.8887 C   0  0  0  0  0  0
  -29.0548  -24.3522   20.1537 C   0  0  2  0  0  0
  -30.5472  -21.0739   21.5657 N   0  0  0  0  0  0
  -30.2407  -15.2377   21.5677 N   0  0  0  0  0  0
  -31.4565  -12.3585   19.1244 H   0  0  0  0  0  0
  -30.2783  -11.2602   19.7775 H   0  0  0  0  0  0
  -29.7254  -11.8569   17.3913 H   0  0  0  0  0  0
  -29.6556  -13.5484   17.8269 H   0  0  0  0  0  0
  -27.8145  -11.3293   18.7812 H   0  0  0  0  0  0
  -27.3600  -12.6929   17.7912 H   0  0  0  0  0  0
  -27.7249  -14.2591   19.6234 H   0  0  0  0  0  0
  -28.6595  -11.8943   21.3132 H   0  0  0  0  0  0
  -28.4524  -13.5080   21.9039 H   0  0  0  0  0  0
  -25.2753   -9.5705   22.4763 H   0  0  0  0  0  0
  -24.0009   -7.4642   22.7484 H   0  0  0  0  0  0
  -21.0835   -8.8740   19.8954 H   0  0  0  0  0  0
  -22.3648  -10.9671   19.6184 H   0  0  0  0  0  0
  -21.1987   -7.6156   23.9719 H   0  0  0  0  0  0
  -21.1506   -6.0532   25.9081 H   0  0  0  0  0  0
  -22.0588   -2.7618   23.2834 H   0  0  0  0  0  0
  -22.4105  -11.9823   22.4707 H   0  0  0  0  0  0
  -21.1162  -13.1280   22.2716 H   0  0  0  0  0  0
  -24.6748  -15.8514   20.5067 H   0  0  0  0  0  0
  -26.2964  -15.6186   20.0954 H   0  0  0  0  0  0
  -26.7043  -32.5498   23.1098 H   0  0  0  0  0  0
  -25.0042  -33.9792   25.0431 H   0  0  0  0  0  0
  -22.6851  -31.2992   21.4039 H   0  0  0  0  0  0
  -23.3771  -35.9616   23.3312 H   0  0  0  0  0  0
  -24.3600  -36.8928   22.2056 H   0  0  0  0  0  0
  -23.7225  -37.6494   23.6652 H   0  0  0  0  0  0
  -26.0451  -31.6061   20.5966 H   0  0  0  0  0  0
  -26.8067  -30.8799   21.9836 H   0  0  0  0  0  0
  -28.1086  -29.1403   21.1239 H   0  0  0  0  0  0
  -26.0777  -25.9475   19.0686 H   0  0  0  0  0  0
  -23.9757  -27.2597   19.0778 H   0  0  0  0  0  0
  -23.7041  -30.5794   19.4009 H   0  0  0  0  0  0
  -22.7306  -29.2238   19.8775 H   0  0  0  0  0  0
  -25.1301  -36.1966   25.0810 H   0  0  0  0  0  0
  -20.9918  -28.3028   24.1494 H   0  0  0  0  0  0
  -20.5598  -26.2127   23.3576 H   0  0  0  0  0  0
  -21.6591  -26.7315   22.1221 H   0  0  0  0  0  0
  -19.6879  -25.6238   21.1191 H   0  0  0  0  0  0
  -19.6650  -27.3148   20.6762 H   0  0  0  0  0  0
  -17.4176  -26.6627   21.4009 H   0  0  0  0  0  0
  -18.0258  -25.9974   22.8991 H   0  0  0  0  0  0
  -19.7936  -30.7171   24.2219 H   0  0  0  0  0  0
  -17.5034  -31.6214   24.5083 H   0  0  0  0  0  0
  -15.5338  -30.2896   23.7667 H   0  0  0  0  0  0
  -15.8672  -28.0730   22.7082 H   0  0  0  0  0  0
  -24.5743  -30.7257   25.7847 H   0  0  0  0  0  0
  -24.8949  -32.3030   26.4920 H   0  0  0  0  0  0
  -25.7972  -30.8967   27.0253 H   0  0  0  0  0  0
  -26.2870  -29.6840   24.1099 H   0  0  0  0  0  0
  -27.4021  -29.7298   25.4580 H   0  0  0  0  0  0
  -27.8674  -30.4440   23.9306 H   0  0  0  0  0  0
  -27.2545  -33.3656   26.2076 H   0  0  0  0  0  0
  -28.3758  -32.6987   25.0302 H   0  0  0  0  0  0
  -28.0649  -31.8507   26.5415 H   0  0  0  0  0  0
  -28.2566  -38.0133   24.7586 H   0  0  0  0  0  0
  -28.1128  -36.2682   24.6167 H   0  0  0  0  0  0
  -27.2322  -37.1305   25.8853 H   0  0  0  0  0  0
  -20.9244  -29.8802   21.7126 H   0  0  0  0  0  0
  -26.0192  -38.2863   24.1474 H   0  0  0  0  0  0
  -29.3529  -19.7386   20.3998 H   0  0  0  0  0  0
  -31.1082  -18.1745   24.7969 H   0  0  0  0  0  0
  -31.1720  -19.8246   25.4024 H   0  0  0  0  0  0
  -32.5869  -19.1209   24.6168 H   0  0  0  0  0  0
  -32.6890  -21.7737   24.1221 H   0  0  0  0  0  0
  -31.3435  -22.8570   23.7744 H   0  0  0  0  0  0
  -32.6166  -22.5988   22.5806 H   0  0  0  0  0  0
  -28.6723  -23.0431   18.4309 H   0  0  0  0  0  0
  -28.0746  -24.6845   18.2182 H   0  0  0  0  0  0
  -27.2136  -23.5595   19.2557 H   0  0  0  0  0  0
  -28.7927  -17.4938   21.8159 H   0  0  0  0  0  0
  -29.4791  -17.2941   23.4018 H   0  0  0  0  0  0
  -29.5353  -23.5544   22.1333 H   0  0  0  0  0  0
  -28.3782  -22.6084   21.2519 H   0  0  0  0  0  0
  -31.3970  -22.7773   20.6933 H   0  0  0  0  0  0
  -30.2987  -21.8952   19.6797 H   0  0  0  0  0  0
  -31.6460  -16.5272   22.4453 H   0  0  0  0  0  0
  -31.1249  -16.9923   20.8436 H   0  0  0  0  0  0
  -29.0034  -25.7973   21.7734 H   0  0  0  0  0  0
  -27.4243  -25.2710   21.2605 H   0  0  0  0  0  0
  -30.0248  -24.6823   19.7744 H   0  0  0  0  0  0
  -29.4181  -14.9518   22.0784 H   0  0  0  0  0  0
  1 25  1  0  0  0
  1 30  2  0  0  0
  1 85  1  0  0  0
  2  3  1  0  0  0
  2 25  1  0  0  0
  2 86  1  0  0  0
  2 87  1  0  0  0
  3  4  1  0  0  0
  3 88  1  0  0  0
  3 89  1  0  0  0
  4  5  1  0  0  0
  4 90  1  0  0  0
  4 91  1  0  0  0
  5  6  1  0  0  0
  5 26  1  0  0  0
  5 92  1  0  0  0
  6 25  1  0  0  0
  6 93  1  0  0  0
  6 94  1  0  0  0
  7  8  2  0  0  0
  7 26  1  0  0  0
  7 29  1  0  0  0
  8  9  1  0  0  0
  8 22  1  0  0  0
  9 10  1  0  0  0
  9 27  2  0  0  0
 10 11  2  0  0  0
 10 15  1  0  0  0
 11 12  1  0  0  0
 11 95  1  0  0  0
 12 13  2  0  0  0
 12 96  1  0  0  0
 13 14  1  0  0  0
 13 31  1  0  0  0
 14 15  2  0  0  0
 14 97  1  0  0  0
 15 98  1  0  0  0
 16 17  2  0  0  0
 16 21  1  0  0  0
 16 31  1  0  0  0
 17 18  1  0  0  0
 17 99  1  0  0  0
 18 19  2  0  0  0
 18100  1  0  0  0
 19 20  1  0  0  0
 19 24  1  0  0  0
 20 21  2  0  0  0
 20101  1  0  0  0
 21 23  1  0  0  0
 22 28  1  0  0  0
 22 32  2  0  0  0
 26 27  1  0  0  0
 28102  1  0  0  0
 28103  1  0  0  0
 29104  1  0  0  0
 29105  1  0  0  0
 33 34  1  0  0  0
 33 66  1  0  0  0
 33 70  2  0  0  0
 34 36  1  0  0  0
 34 59  1  0  0  0
 34106  1  0  0  0
 35 44  2  0  0  0
 35 45  1  0  0  0
 35 68  1  0  0  0
 36 56  1  0  0  0
 36107  1  0  0  0
 37 39  1  0  0  0
 37 47  1  0  0  0
 37 66  1  0  0  0
 37108  1  0  0  0
 38 43  2  0  0  0
 38 46  1  0  0  0
 38 47  1  0  0  0
 39 64  1  0  0  0
 39 67  2  0  0  0
 40 52  1  0  0  0
 40 53  2  0  0  0
 40 58  1  0  0  0
 41109  1  0  0  0
 41110  1  0  0  0
 41111  1  0  0  0
 41 48  1  0  0  0
 42 43  1  0  0  0
 42 66  1  0  0  0
 42112  1  0  0  0
 42113  1  0  0  0
 43 44  1  0  0  0
 44114  1  0  0  0
 45 46  2  0  0  0
 45115  1  0  0  0
 46116  1  0  0  0
 47117  1  0  0  0
 47118  1  0  0  0
 48 56  1  0  0  0
 48 65  1  0  0  0
 48119  1  0  0  0
 49 50  1  0  0  0
 49 53  1  0  0  0
 49 64  1  0  0  0
 49120  1  0  0  0
 50 51  1  0  0  0
 50121  1  0  0  0
 50122  1  0  0  0
 51 52  1  0  0  0
 51123  1  0  0  0
 51124  1  0  0  0
 52125  1  0  0  0
 52126  1  0  0  0
 53 54  1  0  0  0
 54 55  2  0  0  0
 54127  1  0  0  0
 55 57  1  0  0  0
 55128  1  0  0  0
 56 69  2  0  0  0
 57 58  2  0  0  0
 57129  1  0  0  0
 58130  1  0  0  0
 59 60  1  0  0  0
 59 61  1  0  0  0
 59 62  1  0  0  0
 60131  1  0  0  0
 60132  1  0  0  0
 60133  1  0  0  0
 61134  1  0  0  0
 61135  1  0  0  0
 61136  1  0  0  0
 62137  1  0  0  0
 62138  1  0  0  0
 62139  1  0  0  0
 63 65  1  0  0  0
 63140  1  0  0  0
 63141  1  0  0  0
 63142  1  0  0  0
 64143  1  0  0  0
 65144  1  0  0  0
 68 82  1  0  0  0
 71 72  2  0  0  0
 71 84  1  0  0  0
 71145  1  0  0  0
 72 73  1  0  0  0
 72 78  1  0  0  0
 73 74  2  0  0  0
 73 75  1  0  0  0
 74 76  1  0  0  0
 74 84  1  0  0  0
 75146  1  0  0  0
 75147  1  0  0  0
 75148  1  0  0  0
 76149  1  0  0  0
 76150  1  0  0  0
 76151  1  0  0  0
 77152  1  0  0  0
 77153  1  0  0  0
 77154  1  0  0  0
 77 83  1  0  0  0
 78 81  1  0  0  0
 78155  1  0  0  0
 78156  1  0  0  0
 79 80  1  0  0  0
 79 83  1  0  0  0
 79157  1  0  0  0
 79158  1  0  0  0
 80 84  1  0  0  0
 80159  1  0  0  0
 80160  1  0  0  0
 81 85  1  0  0  0
 81161  1  0  0  0
 81162  1  0  0  0
 82 83  1  0  0  0
 82163  1  0  0  0
 82164  1  0  0  0
 83165  1  0  0  0
 85166  1  0  0  0
M  ISO  4   1 100  68 101  82 101  85 100
M  END
> <chiral flag>
0

> <version>
0

> <s_m_source_file>
/data/baiqing/PycharmProjects/Reinvent-master-3.2/result/LINK_invent/BTK/process_docking_weight1_custom_sum_contain_oxygen_bond_distance_aromatic_linkinvent_7_9_3/rearranged_h_0091.sdf

> <i_m_source_file_index>
30

> <r_mmod_Potential_Energy-OPLS-2005>
-133.200576782227

> <r_mmod_Stretch_Energy-OPLS-2005>
32.4855041503906

> <r_mmod_Bend_Energy-OPLS-2005>
92.4481430053711

> <r_mmod_Torsional_Energy-OPLS-2005>
235.204132080078

> <r_mmod_Improper_Torsional_Energy-OPLS-2005>
1.92169690132141

> <r_mmod_Van_der_Waal_Energy-OPLS-2005>
123.61799621582

> <r_mmod_Electrostatic_Energy-OPLS-2005>
-417.048461914062

> <r_mmod_Solvation_Energy-OPLS-2005>
-209.379745483398

> <b_mmod_Minimization_Converged-OPLS-2005>
0

> <r_mmod_RMS_Derivative-OPLS-2005>
4.47462606430054

$$$$
31
                    3D
 Structure written by MMmdl.
172180  0  0  1  0            999 V2000
  -30.7671  -14.3513   20.7059 C   0  0  0  0  0  0
  -30.4199  -12.2878   19.3937 C   0  0  0  0  0  0
  -29.4888  -12.5366   18.1926 C   0  0  0  0  0  0
  -28.0107  -12.3935   18.6045 C   0  0  0  0  0  0
  -27.6700  -13.2024   19.8836 C   0  0  2  0  0  0
  -28.7058  -12.9256   20.9959 C   0  0  0  0  0  0
  -25.2618  -13.8152   20.5674 C   0  0  0  0  0  0
  -24.1859  -13.0438   20.9161 C   0  0  0  0  0  0
  -24.6405  -11.6904   20.8718 C   0  0  0  0  0  0
  -23.9065  -10.4293   21.0395 C   0  0  0  0  0  0
  -24.3608   -9.4208   21.9179 C   0  0  0  0  0  0
  -23.6287   -8.2243   22.0750 C   0  0  0  0  0  0
  -22.4269   -8.0280   21.3549 C   0  0  0  0  0  0
  -21.9906   -9.0251   20.4644 C   0  0  0  0  0  0
  -22.7231  -10.2135   20.3049 C   0  0  0  0  0  0
  -21.6856   -6.0731   22.5275 C   0  0  0  0  0  0
  -21.4016   -6.5637   23.8210 C   0  0  0  0  0  0
  -21.3661   -5.6787   24.9172 C   0  0  0  0  0  0
  -21.6042   -4.3048   24.7218 C   0  0  0  0  0  0
  -21.8818   -3.8146   23.4342 C   0  0  0  0  0  0
  -21.9194   -4.6964   22.3398 C   0  0  0  0  0  0
  -22.7881  -13.5251   21.1823 C   0  0  0  0  0  0
  -22.1661   -4.2147   21.0974 F   0  0  0  0  0  0
  -21.5629   -3.4537   25.7733 F   0  0  0  0  0  0
  -30.0521  -13.2216   20.4674 N   0  0  0  0  0  0
  -26.3061  -12.9322   20.3385 N   0  0  0  0  0  0
  -25.9331  -11.6484   20.5740 N   0  0  0  0  0  0
  -22.0513  -12.8244   22.0379 N   0  0  0  0  0  0
  -25.4374  -15.1867   20.4074 N   0  0  0  0  0  0
  -31.7617  -14.6649   20.0524 O   0  0  0  0  0  0
  -21.6638   -6.8872   21.4240 O   0  0  0  0  0  0
  -22.3558  -14.5564   20.6688 O   0  0  0  0  0  0
  -24.6102  -31.8713   23.2114 C   0  0  0  0  0  0
  -25.9019  -32.4837   23.8397 C   0  0  1  0  0  0
  -27.2402  -27.4714   20.0946 C   0  0  0  0  0  0
  -25.5904  -33.8636   24.2344 N   0  0  0  0  0  0
  -23.3975  -30.4920   21.5499 C   0  0  2  0  0  0
  -24.8477  -28.9597   20.1176 C   0  0  0  0  0  0
  -22.7402  -29.4659   22.5000 C   0  0  0  0  0  0
  -18.0282  -28.1365   22.8473 C   0  0  0  0  0  0
  -24.1497  -36.7311   23.2637 C   0  0  0  0  0  0
  -25.9215  -30.8472   21.3602 C   0  0  0  0  0  0
  -26.0018  -29.4805   20.7175 C   0  0  0  0  0  0
  -27.2021  -28.7393   20.7117 C   0  0  0  0  0  0
  -26.0789  -26.9573   19.4876 C   0  0  0  0  0  0
  -24.8781  -27.6933   19.5032 C   0  0  0  0  0  0
  -23.6057  -29.8206   20.1657 C   0  0  0  0  0  0
  -25.4117  -36.3114   24.0347 C   0  0  1  0  0  0
  -20.5866  -28.3649   23.1321 C   0  0  2  0  0  0
  -20.6783  -26.9388   22.5414 C   0  0  0  0  0  0
  -19.5770  -26.6379   21.5204 C   0  0  0  0  0  0
  -18.1941  -26.7909   22.1602 C   0  0  0  0  0  0
  -19.1525  -28.8821   23.2893 C   0  0  0  0  0  0
  -18.9458  -30.1422   23.8907 C   0  0  0  0  0  0
  -17.6466  -30.6571   24.0547 C   0  0  0  0  0  0
  -25.9042  -34.9484   23.5137 C   0  0  0  0  0  0
  -16.5355  -29.9066   23.6313 C   0  0  0  0  0  0
  -16.7273  -28.6485   23.0323 C   0  0  0  0  0  0
  -26.4463  -31.6597   25.0702 C   0  0  0  0  0  0
  -25.3738  -31.3692   26.1458 C   0  0  0  0  0  0
  -27.0285  -30.3059   24.6011 C   0  0  0  0  0  0
  -27.6052  -32.4310   25.7458 C   0  0  0  0  0  0
  -27.5595  -37.1794   24.8456 C   0  0  0  0  0  0
  -21.4137  -29.3013   22.3730 N   0  0  0  0  0  0
  -26.4300  -37.3796   23.9419 N   0  0  0  0  0  0
  -24.6604  -31.0841   22.0999 N   0  0  0  0  0  0
  -23.4175  -28.8206   23.3049 O   0  0  0  0  0  0
  -28.3945  -26.7348   20.0360 O   0  0  0  0  0  0
  -26.5582  -34.8924   22.4680 O   0  0  0  0  0  0
  -23.5303  -32.1440   23.7531 O   0  0  0  0  0  0
  -31.7405  -19.9163   20.3577 C   0  0  0  0  0  0
  -31.7059  -18.5454   20.3397 C   0  0  0  0  0  0
  -29.9067  -19.3142   19.2519 C   0  0  0  0  0  0
  -27.4295  -19.0275   19.5099 C   0  0  0  0  0  0
  -28.5719  -18.2642   17.3801 C   0  0  0  0  0  0
  -32.6626  -17.5220   20.8696 C   0  0  0  0  0  0
  -32.2116  -16.8089   22.1695 C   0  0  0  0  0  0
  -29.5313  -24.0021   20.3338 C   0  0  0  0  0  0
  -29.5412  -22.4734   20.5242 C   0  0  0  0  0  0
  -28.7200  -24.7622   21.3966 C   0  0  0  0  0  0
  -30.3379  -21.7807   19.4040 C   0  0  0  0  0  0
  -30.7309  -16.3707   22.3099 C   0  0  0  0  0  0
  -28.8942  -26.2877   21.2929 C   0  0  0  0  0  0
  -28.5842  -19.2874   18.5308 C   0  0  0  0  0  0
  -30.6383  -20.3651   19.6726 N   0  0  0  0  0  0
  -30.5683  -18.2202   19.6464 N   0  3  0  0  0  0
  -30.3092  -15.0867   21.7291 N   0  0  0  0  0  0
  -31.4646  -12.3867   19.0925 H   0  0  0  0  0  0
  -30.3147  -11.2607   19.7462 H   0  0  0  0  0  0
  -29.7211  -11.8425   17.3833 H   0  0  0  0  0  0
  -29.6634  -13.5378   17.7961 H   0  0  0  0  0  0
  -27.8088  -11.3346   18.7683 H   0  0  0  0  0  0
  -27.3618  -12.7024   17.7847 H   0  0  0  0  0  0
  -27.7334  -14.2597   19.6251 H   0  0  0  0  0  0
  -28.6650  -11.8772   21.2930 H   0  0  0  0  0  0
  -28.4455  -13.4813   21.8970 H   0  0  0  0  0  0
  -25.2760   -9.5688   22.4756 H   0  0  0  0  0  0
  -24.0004   -7.4634   22.7466 H   0  0  0  0  0  0
  -21.0845   -8.8764   19.8946 H   0  0  0  0  0  0
  -22.3693  -10.9668   19.6149 H   0  0  0  0  0  0
  -21.2012   -7.6150   23.9713 H   0  0  0  0  0  0
  -21.1483   -6.0519   25.9073 H   0  0  0  0  0  0
  -22.0600   -2.7612   23.2836 H   0  0  0  0  0  0
  -22.4109  -11.9893   22.4754 H   0  0  0  0  0  0
  -21.1119  -13.1256   22.2559 H   0  0  0  0  0  0
  -24.6768  -15.8484   20.5164 H   0  0  0  0  0  0
  -26.2985  -15.6207   20.1001 H   0  0  0  0  0  0
  -26.7092  -32.5582   23.1171 H   0  0  0  0  0  0
  -25.0104  -33.9804   25.0519 H   0  0  0  0  0  0
  -22.6831  -31.3058   21.4094 H   0  0  0  0  0  0
  -23.3770  -35.9626   23.3284 H   0  0  0  0  0  0
  -24.3613  -36.8931   22.2052 H   0  0  0  0  0  0
  -23.7231  -37.6511   23.6652 H   0  0  0  0  0  0
  -26.0230  -31.6099   20.5863 H   0  0  0  0  0  0
  -26.8129  -30.9077   21.9716 H   0  0  0  0  0  0
  -28.0963  -29.1414   21.1659 H   0  0  0  0  0  0
  -26.1062  -25.9884   19.0088 H   0  0  0  0  0  0
  -23.9928  -27.2861   19.0356 H   0  0  0  0  0  0
  -23.7060  -30.5925   19.4023 H   0  0  0  0  0  0
  -22.7325  -29.2338   19.8747 H   0  0  0  0  0  0
  -25.1277  -36.1982   25.0835 H   0  0  0  0  0  0
  -20.9953  -28.3223   24.1448 H   0  0  0  0  0  0
  -20.5723  -26.2243   23.3588 H   0  0  0  0  0  0
  -21.6654  -26.7459   22.1188 H   0  0  0  0  0  0
  -19.6950  -25.6295   21.1220 H   0  0  0  0  0  0
  -19.6740  -27.3199   20.6739 H   0  0  0  0  0  0
  -17.4221  -26.6663   21.3992 H   0  0  0  0  0  0
  -18.0339  -26.0038   22.8985 H   0  0  0  0  0  0
  -19.7937  -30.7222   24.2301 H   0  0  0  0  0  0
  -17.5020  -31.6260   24.5131 H   0  0  0  0  0  0
  -15.5348  -30.2966   23.7645 H   0  0  0  0  0  0
  -15.8671  -28.0817   22.7023 H   0  0  0  0  0  0
  -24.5921  -30.7025   25.7807 H   0  0  0  0  0  0
  -24.8910  -32.2837   26.4907 H   0  0  0  0  0  0
  -25.8094  -30.8874   27.0218 H   0  0  0  0  0  0
  -26.2800  -29.6834   24.1098 H   0  0  0  0  0  0
  -27.4143  -29.7271   25.4412 H   0  0  0  0  0  0
  -27.8590  -30.4419   23.9079 H   0  0  0  0  0  0
  -27.2687  -33.3609   26.2053 H   0  0  0  0  0  0
  -28.3844  -32.6877   25.0269 H   0  0  0  0  0  0
  -28.0732  -31.8421   26.5350 H   0  0  0  0  0  0
  -28.2567  -38.0131   24.7556 H   0  0  0  0  0  0
  -28.1129  -36.2667   24.6209 H   0  0  0  0  0  0
  -27.2320  -37.1354   25.8855 H   0  0  0  0  0  0
  -20.9308  -29.8693   21.6912 H   0  0  0  0  0  0
  -26.0193  -38.2867   24.1448 H   0  0  0  0  0  0
  -32.4707  -20.5943   20.7813 H   0  0  0  0  0  0
  -27.3896  -19.7964   20.2816 H   0  0  0  0  0  0
  -27.5357  -18.0631   20.0069 H   0  0  0  0  0  0
  -26.4682  -19.0296   18.9953 H   0  0  0  0  0  0
  -29.3654  -18.4708   16.6609 H   0  0  0  0  0  0
  -27.6263  -18.2982   16.8378 H   0  0  0  0  0  0
  -28.7025  -17.2417   17.7359 H   0  0  0  0  0  0
  -33.6178  -18.0139   21.0561 H   0  0  0  0  0  0
  -32.8714  -16.8094   20.0754 H   0  0  0  0  0  0
  -32.3930  -17.5184   22.9783 H   0  0  0  0  0  0
  -32.8780  -15.9724   22.3822 H   0  0  0  0  0  0
  -29.1420  -24.2461   19.3444 H   0  0  0  0  0  0
  -30.5595  -24.3658   20.3530 H   0  0  0  0  0  0
  -28.5221  -22.0869   20.5480 H   0  0  0  0  0  0
  -29.9855  -22.2384   21.4925 H   0  0  0  0  0  0
  -29.0353  -24.4418   22.3903 H   0  0  0  0  0  0
  -27.6628  -24.5070   21.3153 H   0  0  0  0  0  0
  -31.2990  -22.2798   19.2798 H   0  0  0  0  0  0
  -29.8358  -21.8743   18.4422 H   0  0  0  0  0  0
  -30.0444  -17.1588   22.0034 H   0  0  0  0  0  0
  -30.5417  -16.2576   23.3781 H   0  0  0  0  0  0
  -29.9499  -26.5531   21.3635 H   0  0  0  0  0  0
  -28.3970  -26.7665   22.1399 H   0  0  0  0  0  0
  -28.4381  -20.2720   18.0915 H   0  0  0  0  0  0
  -30.2693  -17.2756   19.4385 H   0  0  0  0  0  0
  -29.4963  -14.6806   22.1693 H   0  0  0  0  0  0
  1 25  1  0  0  0
  1 30  2  0  0  0
  1 87  1  0  0  0
  2  3  1  0  0  0
  2 25  1  0  0  0
  2 88  1  0  0  0
  2 89  1  0  0  0
  3  4  1  0  0  0
  3 90  1  0  0  0
  3 91  1  0  0  0
  4  5  1  0  0  0
  4 92  1  0  0  0
  4 93  1  0  0  0
  5  6  1  0  0  0
  5 26  1  0  0  0
  5 94  1  0  0  0
  6 25  1  0  0  0
  6 95  1  0  0  0
  6 96  1  0  0  0
  7  8  2  0  0  0
  7 26  1  0  0  0
  7 29  1  0  0  0
  8  9  1  0  0  0
  8 22  1  0  0  0
  9 10  1  0  0  0
  9 27  2  0  0  0
 10 11  2  0  0  0
 10 15  1  0  0  0
 11 12  1  0  0  0
 11 97  1  0  0  0
 12 13  2  0  0  0
 12 98  1  0  0  0
 13 14  1  0  0  0
 13 31  1  0  0  0
 14 15  2  0  0  0
 14 99  1  0  0  0
 15100  1  0  0  0
 16 17  2  0  0  0
 16 21  1  0  0  0
 16 31  1  0  0  0
 17 18  1  0  0  0
 17101  1  0  0  0
 18 19  2  0  0  0
 18102  1  0  0  0
 19 20  1  0  0  0
 19 24  1  0  0  0
 20 21  2  0  0  0
 20103  1  0  0  0
 21 23  1  0  0  0
 22 28  1  0  0  0
 22 32  2  0  0  0
 26 27  1  0  0  0
 28104  1  0  0  0
 28105  1  0  0  0
 29106  1  0  0  0
 29107  1  0  0  0
 33 34  1  0  0  0
 33 66  1  0  0  0
 33 70  2  0  0  0
 34 36  1  0  0  0
 34 59  1  0  0  0
 34108  1  0  0  0
 35 44  2  0  0  0
 35 45  1  0  0  0
 35 68  1  0  0  0
 36 56  1  0  0  0
 36109  1  0  0  0
 37 39  1  0  0  0
 37 47  1  0  0  0
 37 66  1  0  0  0
 37110  1  0  0  0
 38 43  2  0  0  0
 38 46  1  0  0  0
 38 47  1  0  0  0
 39 64  1  0  0  0
 39 67  2  0  0  0
 40 52  1  0  0  0
 40 53  2  0  0  0
 40 58  1  0  0  0
 41111  1  0  0  0
 41112  1  0  0  0
 41113  1  0  0  0
 41 48  1  0  0  0
 42 43  1  0  0  0
 42 66  1  0  0  0
 42114  1  0  0  0
 42115  1  0  0  0
 43 44  1  0  0  0
 44116  1  0  0  0
 45 46  2  0  0  0
 45117  1  0  0  0
 46118  1  0  0  0
 47119  1  0  0  0
 47120  1  0  0  0
 48 56  1  0  0  0
 48 65  1  0  0  0
 48121  1  0  0  0
 49 50  1  0  0  0
 49 53  1  0  0  0
 49 64  1  0  0  0
 49122  1  0  0  0
 50 51  1  0  0  0
 50123  1  0  0  0
 50124  1  0  0  0
 51 52  1  0  0  0
 51125  1  0  0  0
 51126  1  0  0  0
 52127  1  0  0  0
 52128  1  0  0  0
 53 54  1  0  0  0
 54 55  2  0  0  0
 54129  1  0  0  0
 55 57  1  0  0  0
 55130  1  0  0  0
 56 69  2  0  0  0
 57 58  2  0  0  0
 57131  1  0  0  0
 58132  1  0  0  0
 59 60  1  0  0  0
 59 61  1  0  0  0
 59 62  1  0  0  0
 60133  1  0  0  0
 60134  1  0  0  0
 60135  1  0  0  0
 61136  1  0  0  0
 61137  1  0  0  0
 61138  1  0  0  0
 62139  1  0  0  0
 62140  1  0  0  0
 62141  1  0  0  0
 63 65  1  0  0  0
 63142  1  0  0  0
 63143  1  0  0  0
 63144  1  0  0  0
 64145  1  0  0  0
 65146  1  0  0  0
 68 83  1  0  0  0
 71 72  2  0  0  0
 71 85  1  0  0  0
 71147  1  0  0  0
 72 76  1  0  0  0
 72 86  1  0  0  0
 73 84  1  0  0  0
 73 85  1  0  0  0
 73 86  2  0  0  0
 74148  1  0  0  0
 74149  1  0  0  0
 74150  1  0  0  0
 74 84  1  0  0  0
 75 84  1  0  0  0
 75151  1  0  0  0
 75152  1  0  0  0
 75153  1  0  0  0
 76 77  1  0  0  0
 76154  1  0  0  0
 76155  1  0  0  0
 77 82  1  0  0  0
 77156  1  0  0  0
 77157  1  0  0  0
 78 79  1  0  0  0
 78 80  1  0  0  0
 78158  1  0  0  0
 78159  1  0  0  0
 79 81  1  0  0  0
 79160  1  0  0  0
 79161  1  0  0  0
 80 83  1  0  0  0
 80162  1  0  0  0
 80163  1  0  0  0
 81 85  1  0  0  0
 81164  1  0  0  0
 81165  1  0  0  0
 82 87  1  0  0  0
 82166  1  0  0  0
 82167  1  0  0  0
 83168  1  0  0  0
 83169  1  0  0  0
 84170  1  0  0  0
 86171  1  0  0  0
 87172  1  0  0  0
M  CHG  1  86   1
M  ISO  4   1 100  68 101  83 101  87 100
M  END
> <chiral flag>
0

> <version>
0

> <s_m_source_file>
/data/baiqing/PycharmProjects/Reinvent-master-3.2/result/LINK_invent/BTK/process_docking_weight1_custom_sum_contain_oxygen_bond_distance_aromatic_linkinvent_7_9_3/rearranged_h_0091.sdf

> <i_m_source_file_index>
31

> <r_mmod_Potential_Energy-OPLS-2005>
-76.2386245727539

> <r_mmod_Stretch_Energy-OPLS-2005>
32.1002616882324

> <r_mmod_Bend_Energy-OPLS-2005>
113.47248840332

> <r_mmod_Torsional_Energy-OPLS-2005>
250.342620849609

> <r_mmod_Improper_Torsional_Energy-OPLS-2005>
1.88866853713989

> <r_mmod_Van_der_Waal_Energy-OPLS-2005>
118.673149108887

> <r_mmod_Electrostatic_Energy-OPLS-2005>
-221.171142578125

> <r_mmod_Solvation_Energy-OPLS-2005>
-377.757568359375

> <b_mmod_Minimization_Converged-OPLS-2005>
0

> <r_mmod_RMS_Derivative-OPLS-2005>
1.86318337917328

$$$$
32
                    3D
 Structure written by MMmdl.
195203  0  0  1  0            999 V2000
  -30.6930  -14.4512   20.5062 C   0  0  0  0  0  0
  -30.4195  -12.2734   19.4263 C   0  0  0  0  0  0
  -29.4930  -12.4788   18.2095 C   0  0  0  0  0  0
  -28.0144  -12.3444   18.6235 C   0  0  0  0  0  0
  -27.6603  -13.1969   19.8715 C   0  0  2  0  0  0
  -28.7032  -12.9922   20.9967 C   0  0  0  0  0  0
  -25.2596  -13.8141   20.5678 C   0  0  0  0  0  0
  -24.1835  -13.0435   20.9180 C   0  0  0  0  0  0
  -24.6378  -11.6904   20.8747 C   0  0  0  0  0  0
  -23.9048  -10.4293   21.0414 C   0  0  0  0  0  0
  -24.3599   -9.4205   21.9192 C   0  0  0  0  0  0
  -23.6275   -8.2237   22.0760 C   0  0  0  0  0  0
  -22.4265   -8.0274   21.3542 C   0  0  0  0  0  0
  -21.9901   -9.0249   20.4648 C   0  0  0  0  0  0
  -22.7225  -10.2132   20.3058 C   0  0  0  0  0  0
  -21.6851   -6.0730   22.5279 C   0  0  0  0  0  0
  -21.4013   -6.5635   23.8212 C   0  0  0  0  0  0
  -21.3657   -5.6788   24.9174 C   0  0  0  0  0  0
  -21.6047   -4.3052   24.7231 C   0  0  0  0  0  0
  -21.8818   -3.8144   23.4350 C   0  0  0  0  0  0
  -21.9191   -4.6958   22.3400 C   0  0  0  0  0  0
  -22.7867  -13.5248   21.1836 C   0  0  0  0  0  0
  -22.1662   -4.2140   21.0976 F   0  0  0  0  0  0
  -21.5630   -3.4534   25.7743 F   0  0  0  0  0  0
  -30.0368  -13.2667   20.4372 N   0  0  0  0  0  0
  -26.3012  -12.9290   20.3353 N   0  0  0  0  0  0
  -25.9297  -11.6468   20.5782 N   0  0  0  0  0  0
  -22.0498  -12.8241   22.0388 N   0  0  0  0  0  0
  -25.4338  -15.1857   20.4081 N   0  0  0  0  0  0
  -31.8560  -14.6087   20.1260 O   0  0  0  0  0  0
  -21.6638   -6.8871   21.4240 O   0  0  0  0  0  0
  -22.3559  -14.5552   20.6684 O   0  0  0  0  0  0
  -24.6105  -31.8726   23.2153 C   0  0  0  0  0  0
  -25.9009  -32.4844   23.8439 C   0  0  1  0  0  0
  -27.2221  -27.4474   20.1075 C   0  0  0  0  0  0
  -25.5878  -33.8643   24.2346 N   0  0  0  0  0  0
  -23.4007  -30.4954   21.5537 C   0  0  2  0  0  0
  -24.8519  -28.9731   20.1034 C   0  0  0  0  0  0
  -22.7409  -29.4666   22.4997 C   0  0  0  0  0  0
  -18.0274  -28.1373   22.8487 C   0  0  0  0  0  0
  -24.1483  -36.7314   23.2646 C   0  0  0  0  0  0
  -25.9279  -30.8387   21.3748 C   0  0  0  0  0  0
  -26.0053  -29.4735   20.7215 C   0  0  0  0  0  0
  -27.1949  -28.7109   20.7353 C   0  0  0  0  0  0
  -26.0804  -26.9860   19.4298 C   0  0  0  0  0  0
  -24.8832  -27.7268   19.4516 C   0  0  0  0  0  0
  -23.6091  -29.8329   20.1640 C   0  0  0  0  0  0
  -25.4098  -36.3118   24.0344 C   0  0  1  0  0  0
  -20.5859  -28.3665   23.1307 C   0  0  2  0  0  0
  -20.6761  -26.9393   22.5413 C   0  0  0  0  0  0
  -19.5739  -26.6387   21.5206 C   0  0  0  0  0  0
  -18.1920  -26.7913   22.1618 C   0  0  0  0  0  0
  -19.1524  -28.8829   23.2899 C   0  0  0  0  0  0
  -18.9467  -30.1433   23.8900 C   0  0  0  0  0  0
  -17.6471  -30.6580   24.0553 C   0  0  0  0  0  0
  -25.9026  -34.9490   23.5146 C   0  0  0  0  0  0
  -16.5364  -29.9074   23.6326 C   0  0  0  0  0  0
  -16.7267  -28.6490   23.0330 C   0  0  0  0  0  0
  -26.4459  -31.6621   25.0764 C   0  0  0  0  0  0
  -25.3725  -31.3686   26.1506 C   0  0  0  0  0  0
  -27.0325  -30.3071   24.6127 C   0  0  0  0  0  0
  -27.6057  -32.4339   25.7472 C   0  0  0  0  0  0
  -27.5581  -37.1804   24.8462 C   0  0  0  0  0  0
  -21.4147  -29.3025   22.3710 N   0  0  0  0  0  0
  -26.4302  -37.3783   23.9402 N   0  0  0  0  0  0
  -24.6635  -31.0818   22.1066 N   0  0  0  0  0  0
  -23.4177  -28.8222   23.3056 O   0  0  0  0  0  0
  -28.3292  -26.6381   20.1417 O   0  0  0  0  0  0
  -26.5592  -34.8941   22.4705 O   0  0  0  0  0  0
  -23.5296  -32.1478   23.7548 O   0  0  0  0  0  0
  -29.3093  -22.2321   24.9370 C   0  0  0  0  0  0
  -28.9621  -24.4297   23.9483 C   0  0  0  0  0  0
  -28.3034  -22.4175   22.7312 C   0  0  0  0  0  0
  -29.4159  -23.6337   25.0189 C   0  0  0  0  0  0
  -28.7404  -21.6133   23.8086 C   0  0  0  0  0  0
  -28.4038  -23.8306   22.7955 C   0  0  0  0  0  0
  -26.3112  -24.9086   22.0693 C   0  0  0  0  0  0
  -29.4998  -17.2619   25.0051 C   0  0  0  0  0  0
  -30.9570  -19.2286   25.6377 C   0  0  0  0  0  0
  -31.9225  -23.3036   29.0950 C   0  0  0  0  0  0
  -31.9266  -25.7755   28.5899 C   0  0  0  0  0  0
  -31.1916  -24.9571   30.8183 C   0  0  0  0  0  0
  -29.9973  -24.2855   26.2626 C   0  0  0  0  0  0
  -28.5270  -20.0998   23.8124 C   0  0  0  0  0  0
  -29.3576  -23.7742   27.5681 C   0  0  0  0  0  0
  -30.5776  -17.8375   21.3276 C   0  0  0  0  0  0
  -29.3773  -18.4133   22.1019 C   0  0  0  0  0  0
  -29.6926  -24.5636   28.8525 C   0  0  0  0  0  0
  -30.1589  -16.8580   20.2241 C   0  0  0  0  0  0
  -28.5763  -26.0178   21.4150 C   0  0  0  0  0  0
  -27.7888  -24.6907   21.6861 C   0  0  1  0  0  0
  -30.3960  -18.3984   24.4732 C   0  0  0  0  0  0
  -29.7511  -19.2632   23.3432 C   0  0  2  0  0  0
  -31.1775  -24.6371   29.3117 C   0  0  0  0  0  0
  -29.8977  -15.5071   20.7350 N   0  0  0  0  0  0
  -31.4653  -12.3616   19.1263 H   0  0  0  0  0  0
  -30.3086  -11.2666   19.8312 H   0  0  0  0  0  0
  -29.7283  -11.7523   17.4312 H   0  0  0  0  0  0
  -29.6640  -13.4636   17.7720 H   0  0  0  0  0  0
  -27.8261  -11.2904   18.8325 H   0  0  0  0  0  0
  -27.3628  -12.6077   17.7899 H   0  0  0  0  0  0
  -27.6994  -14.2390   19.5547 H   0  0  0  0  0  0
  -28.6676  -11.9676   21.3694 H   0  0  0  0  0  0
  -28.4821  -13.6280   21.8556 H   0  0  0  0  0  0
  -25.2747   -9.5684   22.4769 H   0  0  0  0  0  0
  -23.9987   -7.4634   22.7482 H   0  0  0  0  0  0
  -21.0835   -8.8767   19.8950 H   0  0  0  0  0  0
  -22.3686  -10.9671   19.6164 H   0  0  0  0  0  0
  -21.2007   -7.6145   23.9710 H   0  0  0  0  0  0
  -21.1483   -6.0521   25.9075 H   0  0  0  0  0  0
  -22.0602   -2.7603   23.2852 H   0  0  0  0  0  0
  -22.4099  -11.9889   22.4763 H   0  0  0  0  0  0
  -21.1119  -13.1279   22.2592 H   0  0  0  0  0  0
  -24.6701  -15.8434   20.5218 H   0  0  0  0  0  0
  -26.2839  -15.6244   20.0781 H   0  0  0  0  0  0
  -26.7095  -32.5576   23.1232 H   0  0  0  0  0  0
  -24.9983  -33.9793   25.0458 H   0  0  0  0  0  0
  -22.6910  -31.3147   21.4189 H   0  0  0  0  0  0
  -23.3758  -35.9645   23.3311 H   0  0  0  0  0  0
  -24.3566  -36.8923   22.2065 H   0  0  0  0  0  0
  -23.7253  -37.6524   23.6660 H   0  0  0  0  0  0
  -26.0375  -31.6100   20.6106 H   0  0  0  0  0  0
  -26.8139  -30.8918   21.9946 H   0  0  0  0  0  0
  -28.0813  -29.0838   21.2314 H   0  0  0  0  0  0
  -26.1056  -26.0306   18.9276 H   0  0  0  0  0  0
  -24.0025  -27.3420   18.9568 H   0  0  0  0  0  0
  -23.7078  -30.6137   19.4097 H   0  0  0  0  0  0
  -22.7355  -29.2477   19.8688 H   0  0  0  0  0  0
  -25.1275  -36.2002   25.0836 H   0  0  0  0  0  0
  -20.9952  -28.3250   24.1427 H   0  0  0  0  0  0
  -20.5679  -26.2271   23.3614 H   0  0  0  0  0  0
  -21.6632  -26.7433   22.1198 H   0  0  0  0  0  0
  -19.6898  -25.6297   21.1225 H   0  0  0  0  0  0
  -19.6679  -27.3210   20.6742 H   0  0  0  0  0  0
  -17.4187  -26.6686   21.4020 H   0  0  0  0  0  0
  -18.0296  -26.0066   22.9011 H   0  0  0  0  0  0
  -19.7954  -30.7232   24.2283 H   0  0  0  0  0  0
  -17.5032  -31.6260   24.5156 H   0  0  0  0  0  0
  -15.5345  -30.2960   23.7676 H   0  0  0  0  0  0
  -15.8678  -28.0822   22.7020 H   0  0  0  0  0  0
  -24.5889  -30.7065   25.7794 H   0  0  0  0  0  0
  -24.8920  -32.2832   26.4992 H   0  0  0  0  0  0
  -25.8070  -30.8803   27.0239 H   0  0  0  0  0  0
  -26.2886  -29.6785   24.1231 H   0  0  0  0  0  0
  -27.4168  -29.7348   25.4579 H   0  0  0  0  0  0
  -27.8677  -30.4387   23.9250 H   0  0  0  0  0  0
  -27.2706  -33.3629   26.2069 H   0  0  0  0  0  0
  -28.3817  -32.6902   25.0255 H   0  0  0  0  0  0
  -28.0782  -31.8472   26.5343 H   0  0  0  0  0  0
  -28.2596  -38.0105   24.7490 H   0  0  0  0  0  0
  -28.1088  -36.2640   24.6309 H   0  0  0  0  0  0
  -27.2286  -37.1442   25.8861 H   0  0  0  0  0  0
  -20.9339  -29.8767   21.6920 H   0  0  0  0  0  0
  -26.0218  -38.2866   24.1411 H   0  0  0  0  0  0
  -29.6392  -21.6305   25.7679 H   0  0  0  0  0  0
  -29.0133  -25.5056   24.0363 H   0  0  0  0  0  0
  -27.8389  -21.9513   21.8722 H   0  0  0  0  0  0
  -25.8261  -23.9573   22.2851 H   0  0  0  0  0  0
  -25.7274  -25.3631   21.2796 H   0  0  0  0  0  0
  -26.2167  -25.5380   22.9557 H   0  0  0  0  0  0
  -30.0046  -16.7084   25.7970 H   0  0  0  0  0  0
  -29.2562  -16.5354   24.2313 H   0  0  0  0  0  0
  -28.5631  -17.6332   25.4183 H   0  0  0  0  0  0
  -31.6458  -18.6352   26.2406 H   0  0  0  0  0  0
  -30.1688  -19.5744   26.3051 H   0  0  0  0  0  0
  -31.5131  -20.0962   25.2802 H   0  0  0  0  0  0
  -32.9422  -23.3559   29.4794 H   0  0  0  0  0  0
  -32.0046  -23.0382   28.0416 H   0  0  0  0  0  0
  -31.4225  -22.4777   29.6005 H   0  0  0  0  0  0
  -32.9397  -25.8887   28.9777 H   0  0  0  0  0  0
  -31.4230  -26.7333   28.7248 H   0  0  0  0  0  0
  -32.0220  -25.6121   27.5192 H   0  0  0  0  0  0
  -32.2078  -25.0879   31.1933 H   0  0  0  0  0  0
  -30.7331  -24.1579   31.4032 H   0  0  0  0  0  0
  -30.6433  -25.8755   31.0355 H   0  0  0  0  0  0
  -29.8820  -25.3684   26.1978 H   0  0  0  0  0  0
  -31.0665  -24.0808   26.2588 H   0  0  0  0  0  0
  -27.6509  -19.8804   23.2001 H   0  0  0  0  0  0
  -28.2311  -19.8085   24.8199 H   0  0  0  0  0  0
  -29.5934  -22.7205   27.7200 H   0  0  0  0  0  0
  -28.2736  -23.8086   27.4438 H   0  0  0  0  0  0
  -31.2900  -17.3406   21.9826 H   0  0  0  0  0  0
  -31.1219  -18.6673   20.8754 H   0  0  0  0  0  0
  -28.6877  -17.6166   22.3794 H   0  0  0  0  0  0
  -28.8167  -19.0391   21.4056 H   0  0  0  0  0  0
  -29.1077  -24.0974   29.6477 H   0  0  0  0  0  0
  -29.2849  -25.5728   28.7719 H   0  0  0  0  0  0
  -30.9311  -16.8363   19.4514 H   0  0  0  0  0  0
  -29.2643  -17.2202   19.7147 H   0  0  0  0  0  0
  -29.6430  -25.7908   21.4227 H   0  0  0  0  0  0
  -28.4218  -26.7311   22.2262 H   0  0  0  0  0  0
  -27.8253  -24.1000   20.7700 H   0  0  0  0  0  0
  -31.2733  -17.9160   24.0467 H   0  0  0  0  0  0
  -30.5123  -19.9695   23.0062 H   0  0  0  0  0  0
  -28.9538  -15.2982   21.0236 H   0  0  0  0  0  0
  1 25  1  0  0  0
  1 30  2  0  0  0
  1 95  1  0  0  0
  2  3  1  0  0  0
  2 25  1  0  0  0
  2 96  1  0  0  0
  2 97  1  0  0  0
  3  4  1  0  0  0
  3 98  1  0  0  0
  3 99  1  0  0  0
  4  5  1  0  0  0
  4100  1  0  0  0
  4101  1  0  0  0
  5  6  1  0  0  0
  5 26  1  0  0  0
  5102  1  0  0  0
  6 25  1  0  0  0
  6103  1  0  0  0
  6104  1  0  0  0
  7  8  2  0  0  0
  7 26  1  0  0  0
  7 29  1  0  0  0
  8  9  1  0  0  0
  8 22  1  0  0  0
  9 10  1  0  0  0
  9 27  2  0  0  0
 10 11  2  0  0  0
 10 15  1  0  0  0
 11 12  1  0  0  0
 11105  1  0  0  0
 12 13  2  0  0  0
 12106  1  0  0  0
 13 14  1  0  0  0
 13 31  1  0  0  0
 14 15  2  0  0  0
 14107  1  0  0  0
 15108  1  0  0  0
 16 17  2  0  0  0
 16 21  1  0  0  0
 16 31  1  0  0  0
 17 18  1  0  0  0
 17109  1  0  0  0
 18 19  2  0  0  0
 18110  1  0  0  0
 19 20  1  0  0  0
 19 24  1  0  0  0
 20 21  2  0  0  0
 20111  1  0  0  0
 21 23  1  0  0  0
 22 28  1  0  0  0
 22 32  2  0  0  0
 26 27  1  0  0  0
 28112  1  0  0  0
 28113  1  0  0  0
 29114  1  0  0  0
 29115  1  0  0  0
 33 34  1  0  0  0
 33 66  1  0  0  0
 33 70  2  0  0  0
 34 36  1  0  0  0
 34 59  1  0  0  0
 34116  1  0  0  0
 35 44  2  0  0  0
 35 45  1  0  0  0
 35 68  1  0  0  0
 36 56  1  0  0  0
 36117  1  0  0  0
 37 39  1  0  0  0
 37 47  1  0  0  0
 37 66  1  0  0  0
 37118  1  0  0  0
 38 43  2  0  0  0
 38 46  1  0  0  0
 38 47  1  0  0  0
 39 64  1  0  0  0
 39 67  2  0  0  0
 40 52  1  0  0  0
 40 53  2  0  0  0
 40 58  1  0  0  0
 41119  1  0  0  0
 41120  1  0  0  0
 41121  1  0  0  0
 41 48  1  0  0  0
 42 43  1  0  0  0
 42 66  1  0  0  0
 42122  1  0  0  0
 42123  1  0  0  0
 43 44  1  0  0  0
 44124  1  0  0  0
 45 46  2  0  0  0
 45125  1  0  0  0
 46126  1  0  0  0
 47127  1  0  0  0
 47128  1  0  0  0
 48 56  1  0  0  0
 48 65  1  0  0  0
 48129  1  0  0  0
 49 50  1  0  0  0
 49 53  1  0  0  0
 49 64  1  0  0  0
 49130  1  0  0  0
 50 51  1  0  0  0
 50131  1  0  0  0
 50132  1  0  0  0
 51 52  1  0  0  0
 51133  1  0  0  0
 51134  1  0  0  0
 52135  1  0  0  0
 52136  1  0  0  0
 53 54  1  0  0  0
 54 55  2  0  0  0
 54137  1  0  0  0
 55 57  1  0  0  0
 55138  1  0  0  0
 56 69  2  0  0  0
 57 58  2  0  0  0
 57139  1  0  0  0
 58140  1  0  0  0
 59 60  1  0  0  0
 59 61  1  0  0  0
 59 62  1  0  0  0
 60141  1  0  0  0
 60142  1  0  0  0
 60143  1  0  0  0
 61144  1  0  0  0
 61145  1  0  0  0
 61146  1  0  0  0
 62147  1  0  0  0
 62148  1  0  0  0
 62149  1  0  0  0
 63 65  1  0  0  0
 63150  1  0  0  0
 63151  1  0  0  0
 63152  1  0  0  0
 64153  1  0  0  0
 65154  1  0  0  0
 68 90  1  0  0  0
 71 74  2  0  0  0
 71 75  1  0  0  0
 71155  1  0  0  0
 72 74  1  0  0  0
 72 76  2  0  0  0
 72156  1  0  0  0
 73 75  2  0  0  0
 73 76  1  0  0  0
 73157  1  0  0  0
 74 83  1  0  0  0
 75 84  1  0  0  0
 76 91  1  0  0  0
 77158  1  0  0  0
 77159  1  0  0  0
 77160  1  0  0  0
 77 91  1  0  0  0
 78161  1  0  0  0
 78162  1  0  0  0
 78163  1  0  0  0
 78 92  1  0  0  0
 79 92  1  0  0  0
 79164  1  0  0  0
 79165  1  0  0  0
 79166  1  0  0  0
 80167  1  0  0  0
 80168  1  0  0  0
 80169  1  0  0  0
 80 94  1  0  0  0
 81 94  1  0  0  0
 81170  1  0  0  0
 81171  1  0  0  0
 81172  1  0  0  0
 82 94  1  0  0  0
 82173  1  0  0  0
 82174  1  0  0  0
 82175  1  0  0  0
 83 85  1  0  0  0
 83176  1  0  0  0
 83177  1  0  0  0
 84178  1  0  0  0
 84179  1  0  0  0
 84 93  1  0  0  0
 85 88  1  0  0  0
 85180  1  0  0  0
 85181  1  0  0  0
 86 87  1  0  0  0
 86 89  1  0  0  0
 86182  1  0  0  0
 86183  1  0  0  0
 87 93  1  0  0  0
 87184  1  0  0  0
 87185  1  0  0  0
 88 94  1  0  0  0
 88186  1  0  0  0
 88187  1  0  0  0
 89 95  1  0  0  0
 89188  1  0  0  0
 89189  1  0  0  0
 90 91  1  0  0  0
 90190  1  0  0  0
 90191  1  0  0  0
 91192  1  0  0  0
 92 93  1  0  0  0
 92193  1  0  0  0
 93194  1  0  0  0
 95195  1  0  0  0
M  ISO  4   1 100  68 101  90 101  95 100
M  END
> <chiral flag>
0

> <version>
0

> <s_m_source_file>
/data/baiqing/PycharmProjects/Reinvent-master-3.2/result/LINK_invent/BTK/process_docking_weight1_custom_sum_contain_oxygen_bond_distance_aromatic_linkinvent_7_9_3/rearranged_h_0091.sdf

> <i_m_source_file_index>
32

> <r_mmod_Potential_Energy-OPLS-2005>
30.7630271911621

> <r_mmod_Stretch_Energy-OPLS-2005>
38.9990653991699

> <r_mmod_Bend_Energy-OPLS-2005>
113.785865783691

> <r_mmod_Torsional_Energy-OPLS-2005>
277.551727294922

> <r_mmod_Improper_Torsional_Energy-OPLS-2005>
8.73152446746826

> <r_mmod_Van_der_Waal_Energy-OPLS-2005>
155.574630737305

> <r_mmod_Electrostatic_Energy-OPLS-2005>
-400.391021728516

> <r_mmod_Solvation_Energy-OPLS-2005>
-180.868270874023

> <b_mmod_Minimization_Converged-OPLS-2005>
0

> <r_mmod_RMS_Derivative-OPLS-2005>
2.72865843772888

$$$$
33
                    3D
 Structure written by MMmdl.
162169  0  0  1  0            999 V2000
  -30.7085  -14.8506   20.3638 C   0  0  0  0  0  0
  -30.3776  -12.5164   19.5123 C   0  0  0  0  0  0
  -29.4967  -12.5023   18.2511 C   0  0  0  0  0  0
  -28.0242  -12.3397   18.6570 C   0  0  0  0  0  0
  -27.6106  -13.2784   19.8199 C   0  0  2  0  0  0
  -28.6556  -13.3629   20.9531 C   0  0  0  0  0  0
  -25.2370  -13.8314   20.5739 C   0  0  0  0  0  0
  -24.1732  -13.0474   20.9227 C   0  0  0  0  0  0
  -24.6394  -11.6972   20.8790 C   0  0  0  0  0  0
  -23.9097  -10.4300   21.0437 C   0  0  0  0  0  0
  -24.3628   -9.4205   21.9220 C   0  0  0  0  0  0
  -23.6300   -8.2248   22.0793 C   0  0  0  0  0  0
  -22.4281   -8.0296   21.3587 C   0  0  0  0  0  0
  -21.9924   -9.0264   20.4677 C   0  0  0  0  0  0
  -22.7259  -10.2131   20.3090 C   0  0  0  0  0  0
  -21.6845   -6.0735   22.5289 C   0  0  0  0  0  0
  -21.4005   -6.5655   23.8198 C   0  0  0  0  0  0
  -21.3654   -5.6828   24.9185 C   0  0  0  0  0  0
  -21.6039   -4.3087   24.7242 C   0  0  0  0  0  0
  -21.8815   -3.8151   23.4368 C   0  0  0  0  0  0
  -21.9193   -4.6968   22.3420 C   0  0  0  0  0  0
  -22.7727  -13.5183   21.1909 C   0  0  0  0  0  0
  -22.1675   -4.2128   21.1009 F   0  0  0  0  0  0
  -21.5628   -3.4586   25.7765 F   0  0  0  0  0  0
  -29.9481  -13.6847   20.3410 N   0  0  0  0  0  0
  -26.2796  -12.9601   20.3200 N   0  0  0  0  0  0
  -25.9330  -11.6697   20.5751 N   0  0  0  0  0  0
  -22.0427  -12.8133   22.0456 N   0  0  0  0  0  0
  -25.4069  -15.2051   20.4240 N   0  0  0  0  0  0
  -31.9105  -14.6330   20.1903 O   0  0  0  0  0  0
  -21.6672   -6.8891   21.4245 O   0  0  0  0  0  0
  -22.3383  -14.5502   20.6806 O   0  0  0  0  0  0
  -24.6382  -31.8480   23.1893 C   0  0  0  0  0  0
  -25.9171  -32.4723   23.8277 C   0  0  1  0  0  0
  -27.1807  -27.1655   20.1524 C   0  0  0  0  0  0
  -25.5943  -33.8520   24.2180 N   0  0  0  0  0  0
  -23.4374  -30.4713   21.5340 C   0  0  2  0  0  0
  -24.8803  -28.8996   20.1108 C   0  0  0  0  0  0
  -22.7528  -29.4581   22.4863 C   0  0  0  0  0  0
  -18.0290  -28.1359   22.8471 C   0  0  0  0  0  0
  -24.1508  -36.7300   23.2634 C   0  0  0  0  0  0
  -25.9891  -30.7337   21.3798 C   0  0  0  0  0  0
  -26.0583  -29.3450   20.7249 C   0  0  0  0  0  0
  -27.2186  -28.4925   20.7274 C   0  0  0  0  0  0
  -25.9831  -26.8049   19.5111 C   0  0  0  0  0  0
  -24.8506  -27.6426   19.4888 C   0  0  0  0  0  0
  -23.6597  -29.8031   20.1517 C   0  0  0  0  0  0
  -25.4120  -36.3028   24.0299 C   0  0  1  0  0  0
  -20.5892  -28.3705   23.1231 C   0  0  2  0  0  0
  -20.6772  -26.9413   22.5379 C   0  0  0  0  0  0
  -19.5751  -26.6356   21.5179 C   0  0  0  0  0  0
  -18.1935  -26.7919   22.1596 C   0  0  0  0  0  0
  -19.1533  -28.8858   23.2855 C   0  0  0  0  0  0
  -18.9472  -30.1449   23.8882 C   0  0  0  0  0  0
  -17.6472  -30.6580   24.0554 C   0  0  0  0  0  0
  -25.9050  -34.9417   23.5030 C   0  0  0  0  0  0
  -16.5361  -29.9066   23.6344 C   0  0  0  0  0  0
  -16.7266  -28.6468   23.0354 C   0  0  0  0  0  0
  -26.4482  -31.6590   25.0730 C   0  0  0  0  0  0
  -25.3675  -31.3834   26.1449 C   0  0  0  0  0  0
  -27.0347  -30.2987   24.6295 C   0  0  0  0  0  0
  -27.5990  -32.4379   25.7544 C   0  0  0  0  0  0
  -27.5573  -37.1782   24.8445 C   0  0  0  0  0  0
  -21.4220  -29.3076   22.3655 N   0  0  0  0  0  0
  -26.4283  -37.3734   23.9394 N   0  0  0  0  0  0
  -24.7085  -31.0379   22.0907 N   0  0  0  0  0  0
  -23.4224  -28.8113   23.2970 O   0  0  0  0  0  0
  -28.2228  -26.1983   20.1532 O   0  0  0  0  0  0
  -26.5645  -34.8900   22.4612 O   0  0  0  0  0  0
  -23.5513  -32.1328   23.7127 O   0  0  0  0  0  0
  -31.3787  -17.1184   21.3910 C   0  0  0  0  0  0
  -30.9778  -16.8887   18.9204 C   0  0  0  0  0  0
  -26.5687  -22.9665   19.4840 C   0  0  0  0  0  0
  -28.8429  -23.5179   18.6103 C   0  0  0  0  0  0
  -29.2796  -19.1144   20.6375 C   0  0  0  0  0  0
  -28.2714  -20.3550   20.2256 C   0  0  0  0  0  0
  -29.0695  -17.4564   20.4418 C   0  0  0  0  0  0
  -28.5937  -21.9374   20.6488 C   0  0  0  0  0  0
  -28.0129  -24.7704   20.6914 C   0  0  0  0  0  0
  -30.4198  -16.5027   20.3273 C   0  0  0  0  0  0
  -28.0158  -23.3053   19.8905 C   0  0  0  0  0  0
  -31.4290  -12.5382   19.2265 H   0  0  0  0  0  0
  -30.2595  -11.5891   20.0750 H   0  0  0  0  0  0
  -29.7954  -11.6905   17.5876 H   0  0  0  0  0  0
  -29.6330  -13.4251   17.6852 H   0  0  0  0  0  0
  -27.8789  -11.3025   18.9568 H   0  0  0  0  0  0
  -27.3748  -12.5043   17.7968 H   0  0  0  0  0  0
  -27.5608  -14.2725   19.3726 H   0  0  0  0  0  0
  -28.7107  -12.4231   21.5040 H   0  0  0  0  0  0
  -28.3837  -14.1292   21.6794 H   0  0  0  0  0  0
  -25.2753   -9.5703   22.4786 H   0  0  0  0  0  0
  -24.0028   -7.4643   22.7491 H   0  0  0  0  0  0
  -21.0871   -8.8744   19.8971 H   0  0  0  0  0  0
  -22.3699  -10.9678   19.6191 H   0  0  0  0  0  0
  -21.2003   -7.6157   23.9677 H   0  0  0  0  0  0
  -21.1481   -6.0593   25.9076 H   0  0  0  0  0  0
  -22.0603   -2.7613   23.2890 H   0  0  0  0  0  0
  -22.4096  -11.9786   22.4766 H   0  0  0  0  0  0
  -21.1039  -13.1113   22.2726 H   0  0  0  0  0  0
  -24.6490  -15.8693   20.5413 H   0  0  0  0  0  0
  -26.2710  -15.6365   20.1233 H   0  0  0  0  0  0
  -26.7238  -32.5349   23.1013 H   0  0  0  0  0  0
  -25.0110  -33.9638   25.0344 H   0  0  0  0  0  0
  -22.7394  -31.2961   21.3848 H   0  0  0  0  0  0
  -23.3738  -35.9664   23.3266 H   0  0  0  0  0  0
  -24.3596  -36.8972   22.2055 H   0  0  0  0  0  0
  -23.7300  -37.6497   23.6702 H   0  0  0  0  0  0
  -26.1349  -31.4913   20.6084 H   0  0  0  0  0  0
  -26.8616  -30.7889   22.0205 H   0  0  0  0  0  0
  -28.1225  -28.8217   21.2231 H   0  0  0  0  0  0
  -25.9172  -25.8426   19.0332 H   0  0  0  0  0  0
  -23.9492  -27.3025   18.9958 H   0  0  0  0  0  0
  -23.7928  -30.5764   19.3957 H   0  0  0  0  0  0
  -22.7761  -29.2415   19.8426 H   0  0  0  0  0  0
  -25.1290  -36.1848   25.0787 H   0  0  0  0  0  0
  -20.9962  -28.3291   24.1355 H   0  0  0  0  0  0
  -20.5645  -26.2319   23.3590 H   0  0  0  0  0  0
  -21.6657  -26.7424   22.1205 H   0  0  0  0  0  0
  -19.6942  -25.6249   21.1254 H   0  0  0  0  0  0
  -19.6709  -27.3145   20.6691 H   0  0  0  0  0  0
  -17.4195  -26.6641   21.3997 H   0  0  0  0  0  0
  -18.0362  -26.0059   22.8994 H   0  0  0  0  0  0
  -19.7954  -30.7232   24.2282 H   0  0  0  0  0  0
  -17.5030  -31.6281   24.5123 H   0  0  0  0  0  0
  -15.5346  -30.2951   23.7681 H   0  0  0  0  0  0
  -15.8664  -28.0773   22.7090 H   0  0  0  0  0  0
  -24.5835  -30.7170   25.7839 H   0  0  0  0  0  0
  -24.8886  -32.3053   26.4771 H   0  0  0  0  0  0
  -25.7962  -30.9118   27.0302 H   0  0  0  0  0  0
  -26.2971  -29.6736   24.1250 H   0  0  0  0  0  0
  -27.3914  -29.7262   25.4862 H   0  0  0  0  0  0
  -27.8885  -30.4225   23.9632 H   0  0  0  0  0  0
  -27.2523  -33.3681   26.2066 H   0  0  0  0  0  0
  -28.3842  -32.6947   25.0426 H   0  0  0  0  0  0
  -28.0604  -31.8568   26.5532 H   0  0  0  0  0  0
  -28.2524  -38.0135   24.7494 H   0  0  0  0  0  0
  -28.1115  -36.2645   24.6244 H   0  0  0  0  0  0
  -27.2292  -37.1412   25.8847 H   0  0  0  0  0  0
  -20.9405  -29.8885   21.6937 H   0  0  0  0  0  0
  -26.0147  -38.2797   24.1408 H   0  0  0  0  0  0
  -31.7257  -18.1125   21.1007 H   0  0  0  0  0  0
  -32.2937  -16.5564   21.5744 H   0  0  0  0  0  0
  -30.8781  -17.2225   22.3529 H   0  0  0  0  0  0
  -30.8224  -17.9301   18.6491 H   0  0  0  0  0  0
  -30.5012  -16.3053   18.1301 H   0  0  0  0  0  0
  -32.0522  -16.7221   18.8325 H   0  0  0  0  0  0
  -26.5137  -22.0277   18.9297 H   0  0  0  0  0  0
  -26.1339  -23.7272   18.8403 H   0  0  0  0  0  0
  -25.9193  -22.8635   20.3534 H   0  0  0  0  0  0
  -28.9510  -22.5998   18.0310 H   0  0  0  0  0  0
  -29.8433  -23.8802   18.8454 H   0  0  0  0  0  0
  -28.3768  -24.2636   17.9608 H   0  0  0  0  0  0
  -29.5121  -19.2656   21.6922 H   0  0  0  0  0  0
  -30.2000  -19.3872   20.1233 H   0  0  0  0  0  0
  -27.2759  -20.1098   20.6063 H   0  0  0  0  0  0
  -28.1556  -20.3123   19.1428 H   0  0  0  0  0  0
  -28.4593  -17.2885   19.5526 H   0  0  0  0  0  0
  -28.4544  -17.0870   21.2637 H   0  0  0  0  0  0
  -29.6791  -22.0345   20.6691 H   0  0  0  0  0  0
  -28.3077  -22.0251   21.6984 H   0  0  0  0  0  0
  -28.8177  -24.6732   21.4203 H   0  0  0  0  0  0
  -27.1127  -24.7924   21.3102 H   0  0  0  0  0  0
  1 25  1  0  0  0
  1 30  2  0  0  0
  1 80  1  0  0  0
  2  3  1  0  0  0
  2 25  1  0  0  0
  2 82  1  0  0  0
  2 83  1  0  0  0
  3  4  1  0  0  0
  3 84  1  0  0  0
  3 85  1  0  0  0
  4  5  1  0  0  0
  4 86  1  0  0  0
  4 87  1  0  0  0
  5  6  1  0  0  0
  5 26  1  0  0  0
  5 88  1  0  0  0
  6 25  1  0  0  0
  6 89  1  0  0  0
  6 90  1  0  0  0
  7  8  2  0  0  0
  7 26  1  0  0  0
  7 29  1  0  0  0
  8  9  1  0  0  0
  8 22  1  0  0  0
  9 10  1  0  0  0
  9 27  2  0  0  0
 10 11  2  0  0  0
 10 15  1  0  0  0
 11 12  1  0  0  0
 11 91  1  0  0  0
 12 13  2  0  0  0
 12 92  1  0  0  0
 13 14  1  0  0  0
 13 31  1  0  0  0
 14 15  2  0  0  0
 14 93  1  0  0  0
 15 94  1  0  0  0
 16 17  2  0  0  0
 16 21  1  0  0  0
 16 31  1  0  0  0
 17 18  1  0  0  0
 17 95  1  0  0  0
 18 19  2  0  0  0
 18 96  1  0  0  0
 19 20  1  0  0  0
 19 24  1  0  0  0
 20 21  2  0  0  0
 20 97  1  0  0  0
 21 23  1  0  0  0
 22 28  1  0  0  0
 22 32  2  0  0  0
 26 27  1  0  0  0
 28 98  1  0  0  0
 28 99  1  0  0  0
 29100  1  0  0  0
 29101  1  0  0  0
 33 34  1  0  0  0
 33 66  1  0  0  0
 33 70  2  0  0  0
 34 36  1  0  0  0
 34 59  1  0  0  0
 34102  1  0  0  0
 35 44  2  0  0  0
 35 45  1  0  0  0
 35 68  1  0  0  0
 36 56  1  0  0  0
 36103  1  0  0  0
 37 39  1  0  0  0
 37 47  1  0  0  0
 37 66  1  0  0  0
 37104  1  0  0  0
 38 43  2  0  0  0
 38 46  1  0  0  0
 38 47  1  0  0  0
 39 64  1  0  0  0
 39 67  2  0  0  0
 40 52  1  0  0  0
 40 53  2  0  0  0
 40 58  1  0  0  0
 41105  1  0  0  0
 41106  1  0  0  0
 41107  1  0  0  0
 41 48  1  0  0  0
 42 43  1  0  0  0
 42 66  1  0  0  0
 42108  1  0  0  0
 42109  1  0  0  0
 43 44  1  0  0  0
 44110  1  0  0  0
 45 46  2  0  0  0
 45111  1  0  0  0
 46112  1  0  0  0
 47113  1  0  0  0
 47114  1  0  0  0
 48 56  1  0  0  0
 48 65  1  0  0  0
 48115  1  0  0  0
 49 50  1  0  0  0
 49 53  1  0  0  0
 49 64  1  0  0  0
 49116  1  0  0  0
 50 51  1  0  0  0
 50117  1  0  0  0
 50118  1  0  0  0
 51 52  1  0  0  0
 51119  1  0  0  0
 51120  1  0  0  0
 52121  1  0  0  0
 52122  1  0  0  0
 53 54  1  0  0  0
 54 55  2  0  0  0
 54123  1  0  0  0
 55 57  1  0  0  0
 55124  1  0  0  0
 56 69  2  0  0  0
 57 58  2  0  0  0
 57125  1  0  0  0
 58126  1  0  0  0
 59 60  1  0  0  0
 59 61  1  0  0  0
 59 62  1  0  0  0
 60127  1  0  0  0
 60128  1  0  0  0
 60129  1  0  0  0
 61130  1  0  0  0
 61131  1  0  0  0
 61132  1  0  0  0
 62133  1  0  0  0
 62134  1  0  0  0
 62135  1  0  0  0
 63 65  1  0  0  0
 63136  1  0  0  0
 63137  1  0  0  0
 63138  1  0  0  0
 64139  1  0  0  0
 65140  1  0  0  0
 68 79  1  0  0  0
 71141  1  0  0  0
 71142  1  0  0  0
 71143  1  0  0  0
 71 80  1  0  0  0
 72 80  1  0  0  0
 72144  1  0  0  0
 72145  1  0  0  0
 72146  1  0  0  0
 73147  1  0  0  0
 73148  1  0  0  0
 73149  1  0  0  0
 73 81  1  0  0  0
 74 81  1  0  0  0
 74150  1  0  0  0
 74151  1  0  0  0
 74152  1  0  0  0
 75 76  1  0  0  0
 75 77  1  0  0  0
 75153  1  0  0  0
 75154  1  0  0  0
 76 78  1  0  0  0
 76155  1  0  0  0
 76156  1  0  0  0
 77 80  1  0  0  0
 77157  1  0  0  0
 77158  1  0  0  0
 78 81  1  0  0  0
 78159  1  0  0  0
 78160  1  0  0  0
 79 81  1  0  0  0
 79161  1  0  0  0
 79162  1  0  0  0
M  ISO  4   1 100  68 101  79 101  80 100
M  END
> <chiral flag>
0

> <version>
0

> <s_m_source_file>
/data/baiqing/PycharmProjects/Reinvent-master-3.2/result/LINK_invent/BTK/process_docking_weight1_custom_sum_contain_oxygen_bond_distance_aromatic_linkinvent_7_9_3/rearranged_h_0091.sdf

> <i_m_source_file_index>
33

> <r_mmod_Potential_Energy-OPLS-2005>
667.803833007812

> <r_mmod_Stretch_Energy-OPLS-2005>
237.124053955078

> <r_mmod_Bend_Energy-OPLS-2005>
349.785888671875

> <r_mmod_Torsional_Energy-OPLS-2005>
256.431854248047

> <r_mmod_Improper_Torsional_Energy-OPLS-2005>
4.90799283981323

> <r_mmod_Van_der_Waal_Energy-OPLS-2005>
131.962692260742

> <r_mmod_Electrostatic_Energy-OPLS-2005>
-308.274047851562

> <r_mmod_Solvation_Energy-OPLS-2005>
-167.58576965332

> <b_mmod_Minimization_Converged-OPLS-2005>
0

> <r_mmod_RMS_Derivative-OPLS-2005>
4.63408374786377

$$$$
34
                    3D
 Structure written by MMmdl.
188196  0  0  1  0            999 V2000
  -30.7413  -14.4352   20.6450 C   0  0  0  0  0  0
  -30.4174  -12.3125   19.4141 C   0  0  0  0  0  0
  -29.4903  -12.5237   18.2017 C   0  0  0  0  0  0
  -28.0147  -12.3704   18.6167 C   0  0  0  0  0  0
  -27.6607  -13.2089   19.8735 C   0  0  2  0  0  0
  -28.6996  -12.9869   20.9952 C   0  0  0  0  0  0
  -25.2582  -13.8169   20.5672 C   0  0  0  0  0  0
  -24.1834  -13.0435   20.9151 C   0  0  0  0  0  0
  -24.6388  -11.6897   20.8710 C   0  0  0  0  0  0
  -23.9060  -10.4289   21.0394 C   0  0  0  0  0  0
  -24.3615   -9.4215   21.9183 C   0  0  0  0  0  0
  -23.6284   -8.2248   22.0758 C   0  0  0  0  0  0
  -22.4278   -8.0279   21.3541 C   0  0  0  0  0  0
  -21.9904   -9.0253   20.4643 C   0  0  0  0  0  0
  -22.7224  -10.2132   20.3046 C   0  0  0  0  0  0
  -21.6850   -6.0738   22.5274 C   0  0  0  0  0  0
  -21.4020   -6.5644   23.8212 C   0  0  0  0  0  0
  -21.3664   -5.6793   24.9175 C   0  0  0  0  0  0
  -21.6034   -4.3052   24.7217 C   0  0  0  0  0  0
  -21.8824   -3.8149   23.4340 C   0  0  0  0  0  0
  -21.9196   -4.6961   22.3400 C   0  0  0  0  0  0
  -22.7869  -13.5241   21.1826 C   0  0  0  0  0  0
  -22.1658   -4.2152   21.0978 F   0  0  0  0  0  0
  -21.5631   -3.4534   25.7733 F   0  0  0  0  0  0
  -30.0362  -13.2878   20.4501 N   0  0  0  0  0  0
  -26.3021  -12.9333   20.3344 N   0  0  0  0  0  0
  -25.9314  -11.6495   20.5745 N   0  0  0  0  0  0
  -22.0501  -12.8226   22.0379 N   0  0  0  0  0  0
  -25.4309  -15.1881   20.4088 N   0  0  0  0  0  0
  -31.8222  -14.6604   20.0921 O   0  0  0  0  0  0
  -21.6637   -6.8868   21.4238 O   0  0  0  0  0  0
  -22.3541  -14.5539   20.6666 O   0  0  0  0  0  0
  -24.6106  -31.8688   23.2096 C   0  0  0  0  0  0
  -25.8967  -32.4860   23.8414 C   0  0  1  0  0  0
  -27.2501  -27.4348   20.1175 C   0  0  0  0  0  0
  -25.5798  -33.8645   24.2353 N   0  0  0  0  0  0
  -23.4038  -30.4884   21.5524 C   0  0  2  0  0  0
  -24.8578  -28.9460   20.1304 C   0  0  0  0  0  0
  -22.7434  -29.4642   22.5024 C   0  0  0  0  0  0
  -18.0289  -28.1367   22.8515 C   0  0  0  0  0  0
  -24.1501  -36.7333   23.2640 C   0  0  0  0  0  0
  -25.9347  -30.8273   21.3771 C   0  0  0  0  0  0
  -26.0163  -29.4598   20.7293 C   0  0  0  0  0  0
  -27.2163  -28.7084   20.7272 C   0  0  0  0  0  0
  -26.0812  -26.9365   19.5057 C   0  0  0  0  0  0
  -24.8845  -27.6784   19.5192 C   0  0  0  0  0  0
  -23.6164  -29.8116   20.1714 C   0  0  0  0  0  0
  -25.4127  -36.3130   24.0339 C   0  0  1  0  0  0
  -20.5886  -28.3660   23.1329 C   0  0  2  0  0  0
  -20.6773  -26.9411   22.5403 C   0  0  0  0  0  0
  -19.5753  -26.6389   21.5195 C   0  0  0  0  0  0
  -18.1941  -26.7925   22.1632 C   0  0  0  0  0  0
  -19.1531  -28.8840   23.2914 C   0  0  0  0  0  0
  -18.9442  -30.1461   23.8896 C   0  0  0  0  0  0
  -17.6441  -30.6581   24.0584 C   0  0  0  0  0  0
  -25.9020  -34.9491   23.5172 C   0  0  0  0  0  0
  -16.5337  -29.9062   23.6355 C   0  0  0  0  0  0
  -16.7262  -28.6475   23.0360 C   0  0  0  0  0  0
  -26.4415  -31.6609   25.0716 C   0  0  0  0  0  0
  -25.3659  -31.3668   26.1428 C   0  0  0  0  0  0
  -27.0265  -30.3065   24.6084 C   0  0  0  0  0  0
  -27.6036  -32.4317   25.7415 C   0  0  0  0  0  0
  -27.5633  -37.1796   24.8449 C   0  0  0  0  0  0
  -21.4161  -29.3003   22.3731 N   0  0  0  0  0  0
  -26.4338  -37.3776   23.9404 N   0  0  0  0  0  0
  -24.6675  -31.0746   22.1050 N   0  0  0  0  0  0
  -23.4203  -28.8216   23.3085 O   0  0  0  0  0  0
  -28.4071  -26.6941   20.0458 O   0  0  0  0  0  0
  -26.5634  -34.8928   22.4768 O   0  0  0  0  0  0
  -23.5272  -32.1451   23.7435 O   0  0  0  0  0  0
  -30.7298  -22.8052   21.6499 C   0  0  0  0  0  0
  -28.9852  -21.1811   21.9989 C   0  0  0  0  0  0
  -29.4150  -22.5302   22.0629 C   0  0  0  0  0  0
  -31.5364  -21.7653   21.1546 C   0  0  0  0  0  0
  -29.8645  -20.1833   21.5108 C   0  0  0  0  0  0
  -30.8722  -24.4198   16.3863 C   0  0  0  0  0  0
  -27.3147  -23.2351   23.3581 C   0  0  0  0  0  0
  -34.0107  -21.1685   20.9975 C   0  0  0  0  0  0
  -29.5578  -18.2148   19.9221 C   0  0  0  0  0  0
  -30.5827  -18.3954   23.6634 C   0  0  0  0  0  0
  -28.5910  -17.0238   23.1054 C   0  0  0  0  0  0
  -31.7971  -23.3110   16.9107 C   0  0  0  0  0  0
  -31.7917  -23.1971   18.4422 C   0  0  0  0  0  0
  -32.7894  -22.1458   18.9729 C   0  0  0  0  0  0
  -28.0582  -24.5984   21.3263 C   0  0  0  0  0  0
  -30.8340  -16.5527   21.9923 C   0  0  0  0  0  0
  -28.7795  -25.9660   21.2246 C   0  0  0  0  0  0
  -28.5147  -23.6946   22.5131 C   0  0  2  0  0  0
  -32.8814  -22.0949   20.5146 C   0  0  1  0  0  0
  -29.4051  -18.7115   21.3739 C   0  0  1  0  0  0
  -29.8590  -17.6792   22.4980 C   0  0  0  0  0  0
  -31.1163  -20.4802   21.0937 N   0  0  0  0  0  0
  -30.1848  -15.3353   21.4746 N   0  0  0  0  0  0
  -31.4632  -12.4033   19.1134 H   0  0  0  0  0  0
  -30.3094  -11.2996   19.8040 H   0  0  0  0  0  0
  -29.7328  -11.8148   17.4088 H   0  0  0  0  0  0
  -29.6540  -13.5189   17.7856 H   0  0  0  0  0  0
  -27.8298  -11.3137   18.8122 H   0  0  0  0  0  0
  -27.3613  -12.6418   17.7875 H   0  0  0  0  0  0
  -27.7068  -14.2575   19.5787 H   0  0  0  0  0  0
  -28.6740  -11.9516   21.3372 H   0  0  0  0  0  0
  -28.4478  -13.5846   21.8715 H   0  0  0  0  0  0
  -25.2758   -9.5700   22.4748 H   0  0  0  0  0  0
  -23.9994   -7.4651   22.7489 H   0  0  0  0  0  0
  -21.0832   -8.8758   19.8953 H   0  0  0  0  0  0
  -22.3673  -10.9665   19.6149 H   0  0  0  0  0  0
  -21.2015   -7.6150   23.9713 H   0  0  0  0  0  0
  -21.1479   -6.0526   25.9079 H   0  0  0  0  0  0
  -22.0599   -2.7608   23.2839 H   0  0  0  0  0  0
  -22.4114  -11.9877   22.4749 H   0  0  0  0  0  0
  -21.1126  -13.1267   22.2589 H   0  0  0  0  0  0
  -24.6656  -15.8447   20.5157 H   0  0  0  0  0  0
  -26.2899  -15.6274   20.1030 H   0  0  0  0  0  0
  -26.7048  -32.5628   23.1203 H   0  0  0  0  0  0
  -24.9822  -33.9763   25.0407 H   0  0  0  0  0  0
  -22.6903  -31.3036   21.4139 H   0  0  0  0  0  0
  -23.3768  -35.9658   23.3292 H   0  0  0  0  0  0
  -24.3570  -36.8941   22.2045 H   0  0  0  0  0  0
  -23.7235  -37.6530   23.6669 H   0  0  0  0  0  0
  -26.0490  -31.5965   20.6122 H   0  0  0  0  0  0
  -26.8176  -30.8825   22.0017 H   0  0  0  0  0  0
  -28.1155  -29.1071   21.1742 H   0  0  0  0  0  0
  -26.1049  -25.9720   19.0195 H   0  0  0  0  0  0
  -23.9972  -27.2779   19.0486 H   0  0  0  0  0  0
  -23.7276  -30.5796   19.4062 H   0  0  0  0  0  0
  -22.7406  -29.2280   19.8783 H   0  0  0  0  0  0
  -25.1310  -36.2024   25.0834 H   0  0  0  0  0  0
  -21.0006  -28.3204   24.1449 H   0  0  0  0  0  0
  -20.5697  -26.2271   23.3583 H   0  0  0  0  0  0
  -21.6654  -26.7470   22.1204 H   0  0  0  0  0  0
  -19.6933  -25.6286   21.1234 H   0  0  0  0  0  0
  -19.6675  -27.3232   20.6753 H   0  0  0  0  0  0
  -17.4225  -26.6707   21.4026 H   0  0  0  0  0  0
  -18.0324  -26.0018   22.8978 H   0  0  0  0  0  0
  -19.7919  -30.7300   24.2241 H   0  0  0  0  0  0
  -17.4982  -31.6272   24.5190 H   0  0  0  0  0  0
  -15.5336  -30.2959   23.7675 H   0  0  0  0  0  0
  -15.8671  -28.0809   22.7049 H   0  0  0  0  0  0
  -24.5847  -30.7026   25.7699 H   0  0  0  0  0  0
  -24.8807  -32.2786   26.4925 H   0  0  0  0  0  0
  -25.7970  -30.8768   27.0160 H   0  0  0  0  0  0
  -26.2801  -29.6784   24.1209 H   0  0  0  0  0  0
  -27.4099  -29.7340   25.4532 H   0  0  0  0  0  0
  -27.8620  -30.4408   23.9208 H   0  0  0  0  0  0
  -27.2735  -33.3640   26.2022 H   0  0  0  0  0  0
  -28.3795  -32.6820   25.0158 H   0  0  0  0  0  0
  -28.0774  -31.8415   26.5265 H   0  0  0  0  0  0
  -28.2613  -38.0132   24.7565 H   0  0  0  0  0  0
  -28.1185  -36.2659   24.6260 H   0  0  0  0  0  0
  -27.2310  -37.1393   25.8827 H   0  0  0  0  0  0
  -20.9327  -29.8619   21.6861 H   0  0  0  0  0  0
  -26.0267  -38.2874   24.1388 H   0  0  0  0  0  0
  -31.0973  -23.8227   21.6457 H   0  0  0  0  0  0
  -27.9861  -20.8983   22.3007 H   0  0  0  0  0  0
  -30.8542  -24.4284   15.2953 H   0  0  0  0  0  0
  -31.2012  -25.4053   16.7195 H   0  0  0  0  0  0
  -29.8448  -24.2763   16.7239 H   0  0  0  0  0  0
  -27.6369  -22.6509   24.2201 H   0  0  0  0  0  0
  -26.6215  -22.6364   22.7717 H   0  0  0  0  0  0
  -26.7531  -24.0894   23.7374 H   0  0  0  0  0  0
  -34.0818  -21.1736   22.0848 H   0  0  0  0  0  0
  -34.9738  -21.4902   20.6018 H   0  0  0  0  0  0
  -33.8497  -20.1379   20.6790 H   0  0  0  0  0  0
  -29.0445  -18.8835   19.2322 H   0  0  0  0  0  0
  -29.1335  -17.2203   19.7931 H   0  0  0  0  0  0
  -30.6032  -18.1781   19.6163 H   0  0  0  0  0  0
  -30.7876  -17.7109   24.4881 H   0  0  0  0  0  0
  -29.9893  -19.2127   24.0741 H   0  0  0  0  0  0
  -31.5425  -18.8082   23.3513 H   0  0  0  0  0  0
  -28.8391  -16.2588   23.8425 H   0  0  0  0  0  0
  -27.9665  -16.5568   22.3422 H   0  0  0  0  0  0
  -27.9681  -17.7629   23.6097 H   0  0  0  0  0  0
  -32.8148  -23.4935   16.5666 H   0  0  0  0  0  0
  -31.4916  -22.3608   16.4738 H   0  0  0  0  0  0
  -30.7824  -22.9524   18.7741 H   0  0  0  0  0  0
  -32.0247  -24.1669   18.8838 H   0  0  0  0  0  0
  -33.7785  -22.3647   18.5691 H   0  0  0  0  0  0
  -32.5179  -21.1595   18.5970 H   0  0  0  0  0  0
  -28.1611  -24.0593   20.3843 H   0  0  0  0  0  0
  -26.9920  -24.8013   21.4242 H   0  0  0  0  0  0
  -31.4448  -16.2005   22.8251 H   0  0  0  0  0  0
  -31.5516  -16.9576   21.2778 H   0  0  0  0  0  0
  -29.8559  -25.7951   21.1727 H   0  0  0  0  0  0
  -28.6000  -26.5636   22.1195 H   0  0  0  0  0  0
  -29.1228  -24.3020   23.1872 H   0  0  0  0  0  0
  -33.1543  -23.0961   20.8516 H   0  0  0  0  0  0
  -28.3240  -18.8013   21.4750 H   0  0  0  0  0  0
  -29.2800  -15.1045   21.8550 H   0  0  0  0  0  0
  1 25  1  0  0  0
  1 30  2  0  0  0
  1 93  1  0  0  0
  2  3  1  0  0  0
  2 25  1  0  0  0
  2 94  1  0  0  0
  2 95  1  0  0  0
  3  4  1  0  0  0
  3 96  1  0  0  0
  3 97  1  0  0  0
  4  5  1  0  0  0
  4 98  1  0  0  0
  4 99  1  0  0  0
  5  6  1  0  0  0
  5 26  1  0  0  0
  5100  1  0  0  0
  6 25  1  0  0  0
  6101  1  0  0  0
  6102  1  0  0  0
  7  8  2  0  0  0
  7 26  1  0  0  0
  7 29  1  0  0  0
  8  9  1  0  0  0
  8 22  1  0  0  0
  9 10  1  0  0  0
  9 27  2  0  0  0
 10 11  2  0  0  0
 10 15  1  0  0  0
 11 12  1  0  0  0
 11103  1  0  0  0
 12 13  2  0  0  0
 12104  1  0  0  0
 13 14  1  0  0  0
 13 31  1  0  0  0
 14 15  2  0  0  0
 14105  1  0  0  0
 15106  1  0  0  0
 16 17  2  0  0  0
 16 21  1  0  0  0
 16 31  1  0  0  0
 17 18  1  0  0  0
 17107  1  0  0  0
 18 19  2  0  0  0
 18108  1  0  0  0
 19 20  1  0  0  0
 19 24  1  0  0  0
 20 21  2  0  0  0
 20109  1  0  0  0
 21 23  1  0  0  0
 22 28  1  0  0  0
 22 32  2  0  0  0
 26 27  1  0  0  0
 28110  1  0  0  0
 28111  1  0  0  0
 29112  1  0  0  0
 29113  1  0  0  0
 33 34  1  0  0  0
 33 66  1  0  0  0
 33 70  2  0  0  0
 34 36  1  0  0  0
 34 59  1  0  0  0
 34114  1  0  0  0
 35 44  2  0  0  0
 35 45  1  0  0  0
 35 68  1  0  0  0
 36 56  1  0  0  0
 36115  1  0  0  0
 37 39  1  0  0  0
 37 47  1  0  0  0
 37 66  1  0  0  0
 37116  1  0  0  0
 38 43  2  0  0  0
 38 46  1  0  0  0
 38 47  1  0  0  0
 39 64  1  0  0  0
 39 67  2  0  0  0
 40 52  1  0  0  0
 40 53  2  0  0  0
 40 58  1  0  0  0
 41117  1  0  0  0
 41118  1  0  0  0
 41119  1  0  0  0
 41 48  1  0  0  0
 42 43  1  0  0  0
 42 66  1  0  0  0
 42120  1  0  0  0
 42121  1  0  0  0
 43 44  1  0  0  0
 44122  1  0  0  0
 45 46  2  0  0  0
 45123  1  0  0  0
 46124  1  0  0  0
 47125  1  0  0  0
 47126  1  0  0  0
 48 56  1  0  0  0
 48 65  1  0  0  0
 48127  1  0  0  0
 49 50  1  0  0  0
 49 53  1  0  0  0
 49 64  1  0  0  0
 49128  1  0  0  0
 50 51  1  0  0  0
 50129  1  0  0  0
 50130  1  0  0  0
 51 52  1  0  0  0
 51131  1  0  0  0
 51132  1  0  0  0
 52133  1  0  0  0
 52134  1  0  0  0
 53 54  1  0  0  0
 54 55  2  0  0  0
 54135  1  0  0  0
 55 57  1  0  0  0
 55136  1  0  0  0
 56 69  2  0  0  0
 57 58  2  0  0  0
 57137  1  0  0  0
 58138  1  0  0  0
 59 60  1  0  0  0
 59 61  1  0  0  0
 59 62  1  0  0  0
 60139  1  0  0  0
 60140  1  0  0  0
 60141  1  0  0  0
 61142  1  0  0  0
 61143  1  0  0  0
 61144  1  0  0  0
 62145  1  0  0  0
 62146  1  0  0  0
 62147  1  0  0  0
 63 65  1  0  0  0
 63148  1  0  0  0
 63149  1  0  0  0
 63150  1  0  0  0
 64151  1  0  0  0
 65152  1  0  0  0
 68 87  1  0  0  0
 71 73  2  0  0  0
 71 74  1  0  0  0
 71153  1  0  0  0
 72 73  1  0  0  0
 72 75  2  0  0  0
 72154  1  0  0  0
 73 88  1  0  0  0
 74 89  1  0  0  0
 74 92  2  0  0  0
 75 90  1  0  0  0
 75 92  1  0  0  0
 76 82  1  0  0  0
 76155  1  0  0  0
 76156  1  0  0  0
 76157  1  0  0  0
 77158  1  0  0  0
 77159  1  0  0  0
 77160  1  0  0  0
 77 88  1  0  0  0
 78161  1  0  0  0
 78162  1  0  0  0
 78163  1  0  0  0
 78 89  1  0  0  0
 79164  1  0  0  0
 79165  1  0  0  0
 79166  1  0  0  0
 79 90  1  0  0  0
 80167  1  0  0  0
 80168  1  0  0  0
 80169  1  0  0  0
 80 91  1  0  0  0
 81 91  1  0  0  0
 81170  1  0  0  0
 81171  1  0  0  0
 81172  1  0  0  0
 82 83  1  0  0  0
 82173  1  0  0  0
 82174  1  0  0  0
 83 84  1  0  0  0
 83175  1  0  0  0
 83176  1  0  0  0
 84 89  1  0  0  0
 84177  1  0  0  0
 84178  1  0  0  0
 85 87  1  0  0  0
 85 88  1  0  0  0
 85179  1  0  0  0
 85180  1  0  0  0
 86 91  1  0  0  0
 86 93  1  0  0  0
 86181  1  0  0  0
 86182  1  0  0  0
 87183  1  0  0  0
 87184  1  0  0  0
 88185  1  0  0  0
 89186  1  0  0  0
 90 91  1  0  0  0
 90187  1  0  0  0
 93188  1  0  0  0
M  ISO  4   1 100  68 101  87 101  93 100
M  END
> <chiral flag>
0

> <version>
0

> <s_m_source_file>
/data/baiqing/PycharmProjects/Reinvent-master-3.2/result/LINK_invent/BTK/process_docking_weight1_custom_sum_contain_oxygen_bond_distance_aromatic_linkinvent_7_9_3/rearranged_h_0091.sdf

> <i_m_source_file_index>
34

> <r_mmod_Potential_Energy-OPLS-2005>
-211.184524536133

> <r_mmod_Stretch_Energy-OPLS-2005>
46.6265907287598

> <r_mmod_Bend_Energy-OPLS-2005>
118.019866943359

> <r_mmod_Torsional_Energy-OPLS-2005>
233.577606201172

> <r_mmod_Improper_Torsional_Energy-OPLS-2005>
2.46784901618958

> <r_mmod_Van_der_Waal_Energy-OPLS-2005>
150.754379272461

> <r_mmod_Electrostatic_Energy-OPLS-2005>
-580.211181640625

> <r_mmod_Solvation_Energy-OPLS-2005>
-191.830291748047

> <b_mmod_Minimization_Converged-OPLS-2005>
0

> <r_mmod_RMS_Derivative-OPLS-2005>
3.76791310310364

$$$$
35
                    3D
 Structure written by MMmdl.
168176  0  0  1  0            999 V2000
  -30.6310  -14.5565   20.5393 C   0  0  0  0  0  0
  -30.4294  -12.3419   19.4492 C   0  0  0  0  0  0
  -29.5016  -12.4862   18.2234 C   0  0  0  0  0  0
  -28.0217  -12.3401   18.6334 C   0  0  0  0  0  0
  -27.6517  -13.2056   19.8688 C   0  0  2  0  0  0
  -28.6880  -13.0235   20.9992 C   0  0  0  0  0  0
  -25.2542  -13.8159   20.5665 C   0  0  0  0  0  0
  -24.1805  -13.0424   20.9203 C   0  0  0  0  0  0
  -24.6361  -11.6902   20.8745 C   0  0  0  0  0  0
  -23.9042  -10.4282   21.0406 C   0  0  0  0  0  0
  -24.3602   -9.4213   21.9190 C   0  0  0  0  0  0
  -23.6286   -8.2246   22.0758 C   0  0  0  0  0  0
  -22.4264   -8.0282   21.3555 C   0  0  0  0  0  0
  -21.9901   -9.0244   20.4649 C   0  0  0  0  0  0
  -22.7224  -10.2130   20.3053 C   0  0  0  0  0  0
  -21.6852   -6.0734   22.5279 C   0  0  0  0  0  0
  -21.4017   -6.5627   23.8217 C   0  0  0  0  0  0
  -21.3658   -5.6782   24.9177 C   0  0  0  0  0  0
  -21.6053   -4.3046   24.7223 C   0  0  0  0  0  0
  -21.8823   -3.8142   23.4339 C   0  0  0  0  0  0
  -21.9178   -4.6963   22.3400 C   0  0  0  0  0  0
  -22.7829  -13.5225   21.1860 C   0  0  0  0  0  0
  -22.1650   -4.2145   21.0977 F   0  0  0  0  0  0
  -21.5633   -3.4531   25.7735 F   0  0  0  0  0  0
  -30.0117  -13.3456   20.4452 N   0  0  0  0  0  0
  -26.2951  -12.9310   20.3307 N   0  0  0  0  0  0
  -25.9278  -11.6473   20.5762 N   0  0  0  0  0  0
  -22.0448  -12.8218   22.0413 N   0  0  0  0  0  0
  -25.4257  -15.1883   20.4084 N   0  0  0  0  0  0
  -31.7787  -14.7448   20.1260 O   0  0  0  0  0  0
  -21.6640   -6.8878   21.4244 O   0  0  0  0  0  0
  -22.3529  -14.5520   20.6701 O   0  0  0  0  0  0
  -24.6158  -31.8667   23.2063 C   0  0  0  0  0  0
  -25.9047  -32.4814   23.8375 C   0  0  1  0  0  0
  -27.2334  -27.4071   20.1185 C   0  0  0  0  0  0
  -25.5910  -33.8621   24.2311 N   0  0  0  0  0  0
  -23.4046  -30.4849   21.5495 C   0  0  2  0  0  0
  -24.8508  -28.9391   20.1220 C   0  0  0  0  0  0
  -22.7410  -29.4634   22.5014 C   0  0  0  0  0  0
  -18.0279  -28.1339   22.8489 C   0  0  0  0  0  0
  -24.1477  -36.7314   23.2636 C   0  0  0  0  0  0
  -25.9341  -30.8223   21.3616 C   0  0  0  0  0  0
  -26.0116  -29.4517   20.7165 C   0  0  0  0  0  0
  -27.2074  -28.6945   20.7067 C   0  0  0  0  0  0
  -26.0579  -26.9089   19.5204 C   0  0  0  0  0  0
  -24.8702  -27.6679   19.5204 C   0  0  0  0  0  0
  -23.6122  -29.8089   20.1667 C   0  0  0  0  0  0
  -25.4107  -36.3118   24.0333 C   0  0  1  0  0  0
  -20.5861  -28.3627   23.1320 C   0  0  2  0  0  0
  -20.6779  -26.9369   22.5409 C   0  0  0  0  0  0
  -19.5768  -26.6359   21.5198 C   0  0  0  0  0  0
  -18.1940  -26.7895   22.1605 C   0  0  0  0  0  0
  -19.1524  -28.8809   23.2894 C   0  0  0  0  0  0
  -18.9464  -30.1418   23.8892 C   0  0  0  0  0  0
  -17.6468  -30.6562   24.0550 C   0  0  0  0  0  0
  -25.9050  -34.9477   23.5123 C   0  0  0  0  0  0
  -16.5353  -29.9052   23.6328 C   0  0  0  0  0  0
  -16.7268  -28.6454   23.0371 C   0  0  0  0  0  0
  -26.4472  -31.6603   25.0714 C   0  0  0  0  0  0
  -25.3743  -31.3710   26.1465 C   0  0  0  0  0  0
  -27.0292  -30.3040   24.6093 C   0  0  0  0  0  0
  -27.6050  -32.4318   25.7484 C   0  0  0  0  0  0
  -27.5582  -37.1807   24.8469 C   0  0  0  0  0  0
  -21.4139  -29.2991   22.3732 N   0  0  0  0  0  0
  -26.4294  -37.3804   23.9411 N   0  0  0  0  0  0
  -24.6703  -31.0745   22.0975 N   0  0  0  0  0  0
  -23.4167  -28.8211   23.3097 O   0  0  0  0  0  0
  -28.3907  -26.6551   20.0941 O   0  0  0  0  0  0
  -26.5622  -34.8926   22.4689 O   0  0  0  0  0  0
  -23.5350  -32.1438   23.7442 O   0  0  0  0  0  0
  -26.6236  -19.8325   21.4328 C   0  0  0  0  0  0
  -26.3087  -21.9511   21.5318 C   0  0  0  0  0  0
  -27.6405  -21.7565   21.1846 C   0  0  0  0  0  0
  -26.0987  -23.3914   24.2753 C   0  0  0  0  0  0
  -24.3910  -23.4038   20.7456 C   0  0  0  0  0  0
  -28.7241  -22.8050   20.9443 C   0  0  0  0  0  0
  -24.9845  -23.3255   23.2199 C   0  0  0  0  0  0
  -28.3406  -24.1143   20.1540 C   0  0  0  0  0  0
  -28.8581  -17.9603   21.0362 C   0  0  0  0  0  0
  -29.0462  -19.5226   20.8859 C   0  0  0  0  0  0
  -30.1146  -17.0459   20.8200 C   0  0  0  0  0  0
  -28.4126  -25.4748   20.9283 C   0  0  0  0  0  0
  -25.5162  -23.2202   21.7755 C   0  0  1  0  0  0
  -25.6727  -20.7219   21.6634 N   0  0  0  0  0  0
  -27.8352  -20.3431   21.1594 N   0  0  0  0  0  0
  -29.8350  -15.5875   20.9268 N   0  0  0  0  0  0
  -31.4714  -12.4641   19.1511 H   0  0  0  0  0  0
  -30.3559  -11.3379   19.8723 H   0  0  0  0  0  0
  -29.7562  -11.7378   17.4711 H   0  0  0  0  0  0
  -29.6593  -13.4573   17.7523 H   0  0  0  0  0  0
  -27.8439  -11.2872   18.8597 H   0  0  0  0  0  0
  -27.3687  -12.5813   17.7942 H   0  0  0  0  0  0
  -27.6807  -14.2471   19.5455 H   0  0  0  0  0  0
  -28.6784  -11.9955   21.3643 H   0  0  0  0  0  0
  -28.4365  -13.6405   21.8631 H   0  0  0  0  0  0
  -25.2744   -9.5690   22.4783 H   0  0  0  0  0  0
  -23.9996   -7.4629   22.7467 H   0  0  0  0  0  0
  -21.0841   -8.8752   19.8942 H   0  0  0  0  0  0
  -22.3677  -10.9670   19.6168 H   0  0  0  0  0  0
  -21.2025   -7.6133   23.9719 H   0  0  0  0  0  0
  -21.1479   -6.0509   25.9081 H   0  0  0  0  0  0
  -22.0606   -2.7603   23.2836 H   0  0  0  0  0  0
  -22.4025  -11.9862   22.4788 H   0  0  0  0  0  0
  -21.1068  -13.1277   22.2598 H   0  0  0  0  0  0
  -24.6588  -15.8415   20.5271 H   0  0  0  0  0  0
  -26.2657  -15.6270   20.0553 H   0  0  0  0  0  0
  -26.7106  -32.5486   23.1124 H   0  0  0  0  0  0
  -25.0078  -33.9813   25.0463 H   0  0  0  0  0  0
  -22.6933  -31.3011   21.4060 H   0  0  0  0  0  0
  -23.3748  -35.9637   23.3317 H   0  0  0  0  0  0
  -24.3571  -36.8930   22.2051 H   0  0  0  0  0  0
  -23.7217  -37.6516   23.6640 H   0  0  0  0  0  0
  -26.0513  -31.5822   20.5872 H   0  0  0  0  0  0
  -26.8205  -30.8819   21.9806 H   0  0  0  0  0  0
  -28.1024  -29.0877   21.1685 H   0  0  0  0  0  0
  -26.0578  -25.9338   19.0537 H   0  0  0  0  0  0
  -23.9781  -27.2684   19.0584 H   0  0  0  0  0  0
  -23.7126  -30.5796   19.4014 H   0  0  0  0  0  0
  -22.7358  -29.2255   19.8781 H   0  0  0  0  0  0
  -25.1276  -36.2003   25.0829 H   0  0  0  0  0  0
  -20.9944  -28.3187   24.1444 H   0  0  0  0  0  0
  -20.5680  -26.2241   23.3593 H   0  0  0  0  0  0
  -21.6666  -26.7424   22.1216 H   0  0  0  0  0  0
  -19.6953  -25.6275   21.1226 H   0  0  0  0  0  0
  -19.6713  -27.3174   20.6732 H   0  0  0  0  0  0
  -17.4220  -26.6641   21.3991 H   0  0  0  0  0  0
  -18.0338  -26.0011   22.8979 H   0  0  0  0  0  0
  -19.7948  -30.7223   24.2252 H   0  0  0  0  0  0
  -17.5032  -31.6252   24.5143 H   0  0  0  0  0  0
  -15.5355  -30.2961   23.7654 H   0  0  0  0  0  0
  -15.8663  -28.0756   22.7122 H   0  0  0  0  0  0
  -24.5923  -30.7046   25.7808 H   0  0  0  0  0  0
  -24.8906  -32.2858   26.4897 H   0  0  0  0  0  0
  -25.8113  -30.8893   27.0224 H   0  0  0  0  0  0
  -26.2818  -29.6820   24.1147 H   0  0  0  0  0  0
  -27.4073  -29.7267   25.4544 H   0  0  0  0  0  0
  -27.8656  -30.4366   23.9228 H   0  0  0  0  0  0
  -27.2679  -33.3621   26.2068 H   0  0  0  0  0  0
  -28.3862  -32.6890   25.0318 H   0  0  0  0  0  0
  -28.0706  -31.8429   26.5399 H   0  0  0  0  0  0
  -28.2615  -38.0094   24.7534 H   0  0  0  0  0  0
  -28.1062  -36.2632   24.6265 H   0  0  0  0  0  0
  -27.2305  -37.1448   25.8875 H   0  0  0  0  0  0
  -20.9305  -29.8662   21.6910 H   0  0  0  0  0  0
  -26.0193  -38.2886   24.1404 H   0  0  0  0  0  0
  -26.4145  -18.7729   21.4717 H   0  0  0  0  0  0
  -25.6818  -23.4974   25.2779 H   0  0  0  0  0  0
  -26.7569  -24.2434   24.0984 H   0  0  0  0  0  0
  -26.7106  -22.4892   24.2659 H   0  0  0  0  0  0
  -24.7806  -23.3773   19.7281 H   0  0  0  0  0  0
  -23.8946  -24.3665   20.8768 H   0  0  0  0  0  0
  -23.6382  -22.6203   20.8404 H   0  0  0  0  0  0
  -29.5423  -22.3273   20.4051 H   0  0  0  0  0  0
  -29.1601  -23.0793   21.9059 H   0  0  0  0  0  0
  -24.3725  -24.2239   23.3156 H   0  0  0  0  0  0
  -24.3230  -22.4838   23.4317 H   0  0  0  0  0  0
  -27.3773  -24.0012   19.6575 H   0  0  0  0  0  0
  -29.0542  -24.2019   19.3337 H   0  0  0  0  0  0
  -28.0881  -17.6379   20.3340 H   0  0  0  0  0  0
  -28.4692  -17.7529   22.0334 H   0  0  0  0  0  0
  -29.3743  -19.7485   19.8715 H   0  0  0  0  0  0
  -29.8402  -19.8545   21.5544 H   0  0  0  0  0  0
  -30.8842  -17.3095   21.5463 H   0  0  0  0  0  0
  -30.5408  -17.2405   19.8350 H   0  0  0  0  0  0
  -27.6519  -25.5543   21.7050 H   0  0  0  0  0  0
  -29.3554  -25.5102   21.4725 H   0  0  0  0  0  0
  -26.1646  -24.0755   21.6479 H   0  0  0  0  0  0
  -28.9032  -15.3231   21.2090 H   0  0  0  0  0  0
  1 25  1  0  0  0
  1 30  2  0  0  0
  1 86  1  0  0  0
  2  3  1  0  0  0
  2 25  1  0  0  0
  2 87  1  0  0  0
  2 88  1  0  0  0
  3  4  1  0  0  0
  3 89  1  0  0  0
  3 90  1  0  0  0
  4  5  1  0  0  0
  4 91  1  0  0  0
  4 92  1  0  0  0
  5  6  1  0  0  0
  5 26  1  0  0  0
  5 93  1  0  0  0
  6 25  1  0  0  0
  6 94  1  0  0  0
  6 95  1  0  0  0
  7  8  2  0  0  0
  7 26  1  0  0  0
  7 29  1  0  0  0
  8  9  1  0  0  0
  8 22  1  0  0  0
  9 10  1  0  0  0
  9 27  2  0  0  0
 10 11  2  0  0  0
 10 15  1  0  0  0
 11 12  1  0  0  0
 11 96  1  0  0  0
 12 13  2  0  0  0
 12 97  1  0  0  0
 13 14  1  0  0  0
 13 31  1  0  0  0
 14 15  2  0  0  0
 14 98  1  0  0  0
 15 99  1  0  0  0
 16 17  2  0  0  0
 16 21  1  0  0  0
 16 31  1  0  0  0
 17 18  1  0  0  0
 17100  1  0  0  0
 18 19  2  0  0  0
 18101  1  0  0  0
 19 20  1  0  0  0
 19 24  1  0  0  0
 20 21  2  0  0  0
 20102  1  0  0  0
 21 23  1  0  0  0
 22 28  1  0  0  0
 22 32  2  0  0  0
 26 27  1  0  0  0
 28103  1  0  0  0
 28104  1  0  0  0
 29105  1  0  0  0
 29106  1  0  0  0
 33 34  1  0  0  0
 33 66  1  0  0  0
 33 70  2  0  0  0
 34 36  1  0  0  0
 34 59  1  0  0  0
 34107  1  0  0  0
 35 44  2  0  0  0
 35 45  1  0  0  0
 35 68  1  0  0  0
 36 56  1  0  0  0
 36108  1  0  0  0
 37 39  1  0  0  0
 37 47  1  0  0  0
 37 66  1  0  0  0
 37109  1  0  0  0
 38 43  2  0  0  0
 38 46  1  0  0  0
 38 47  1  0  0  0
 39 64  1  0  0  0
 39 67  2  0  0  0
 40 52  1  0  0  0
 40 53  2  0  0  0
 40 58  1  0  0  0
 41110  1  0  0  0
 41111  1  0  0  0
 41112  1  0  0  0
 41 48  1  0  0  0
 42 43  1  0  0  0
 42 66  1  0  0  0
 42113  1  0  0  0
 42114  1  0  0  0
 43 44  1  0  0  0
 44115  1  0  0  0
 45 46  2  0  0  0
 45116  1  0  0  0
 46117  1  0  0  0
 47118  1  0  0  0
 47119  1  0  0  0
 48 56  1  0  0  0
 48 65  1  0  0  0
 48120  1  0  0  0
 49 50  1  0  0  0
 49 53  1  0  0  0
 49 64  1  0  0  0
 49121  1  0  0  0
 50 51  1  0  0  0
 50122  1  0  0  0
 50123  1  0  0  0
 51 52  1  0  0  0
 51124  1  0  0  0
 51125  1  0  0  0
 52126  1  0  0  0
 52127  1  0  0  0
 53 54  1  0  0  0
 54 55  2  0  0  0
 54128  1  0  0  0
 55 57  1  0  0  0
 55129  1  0  0  0
 56 69  2  0  0  0
 57 58  2  0  0  0
 57130  1  0  0  0
 58131  1  0  0  0
 59 60  1  0  0  0
 59 61  1  0  0  0
 59 62  1  0  0  0
 60132  1  0  0  0
 60133  1  0  0  0
 60134  1  0  0  0
 61135  1  0  0  0
 61136  1  0  0  0
 61137  1  0  0  0
 62138  1  0  0  0
 62139  1  0  0  0
 62140  1  0  0  0
 63 65  1  0  0  0
 63141  1  0  0  0
 63142  1  0  0  0
 63143  1  0  0  0
 64144  1  0  0  0
 65145  1  0  0  0
 68 82  1  0  0  0
 71 84  2  0  0  0
 71 85  1  0  0  0
 71146  1  0  0  0
 72 73  2  0  0  0
 72 83  1  0  0  0
 72 84  1  0  0  0
 73 76  1  0  0  0
 73 85  1  0  0  0
 74 77  1  0  0  0
 74147  1  0  0  0
 74148  1  0  0  0
 74149  1  0  0  0
 75150  1  0  0  0
 75151  1  0  0  0
 75152  1  0  0  0
 75 83  1  0  0  0
 76 78  1  0  0  0
 76153  1  0  0  0
 76154  1  0  0  0
 77 83  1  0  0  0
 77155  1  0  0  0
 77156  1  0  0  0
 78 82  1  0  0  0
 78157  1  0  0  0
 78158  1  0  0  0
 79 80  1  0  0  0
 79 81  1  0  0  0
 79159  1  0  0  0
 79160  1  0  0  0
 80 85  1  0  0  0
 80161  1  0  0  0
 80162  1  0  0  0
 81 86  1  0  0  0
 81163  1  0  0  0
 81164  1  0  0  0
 82165  1  0  0  0
 82166  1  0  0  0
 83167  1  0  0  0
 86168  1  0  0  0
M  ISO  4   1 100  68 101  82 101  86 100
M  END
> <chiral flag>
0

> <version>
0

> <s_m_source_file>
/data/baiqing/PycharmProjects/Reinvent-master-3.2/result/LINK_invent/BTK/process_docking_weight1_custom_sum_contain_oxygen_bond_distance_aromatic_linkinvent_7_9_3/rearranged_h_0091.sdf

> <i_m_source_file_index>
35

> <r_mmod_Potential_Energy-OPLS-2005>
-52.7489051818848

> <r_mmod_Stretch_Energy-OPLS-2005>
55.1759147644043

> <r_mmod_Bend_Energy-OPLS-2005>
116.517715454102

> <r_mmod_Torsional_Energy-OPLS-2005>
236.884948730469

> <r_mmod_Improper_Torsional_Energy-OPLS-2005>
4.82101678848267

> <r_mmod_Van_der_Waal_Energy-OPLS-2005>
110.264625549316

> <r_mmod_Electrostatic_Energy-OPLS-2005>
-379.034515380859

> <r_mmod_Solvation_Energy-OPLS-2005>
-219.799911499023

> <b_mmod_Minimization_Converged-OPLS-2005>
0

> <r_mmod_RMS_Derivative-OPLS-2005>
2.86654472351074

$$$$
36
                    3D
 Structure written by MMmdl.
181189  0  0  1  0            999 V2000
  -30.6741  -14.5512   20.5232 C   0  0  0  0  0  0
  -30.4278  -12.3499   19.4228 C   0  0  0  0  0  0
  -29.4951  -12.4965   18.2031 C   0  0  0  0  0  0
  -28.0168  -12.3618   18.6174 C   0  0  0  0  0  0
  -27.6548  -13.2121   19.8659 C   0  0  2  0  0  0
  -28.7046  -13.0364   20.9856 C   0  0  0  0  0  0
  -25.2591  -13.8190   20.5722 C   0  0  0  0  0  0
  -24.1840  -13.0441   20.9220 C   0  0  0  0  0  0
  -24.6387  -11.6928   20.8767 C   0  0  0  0  0  0
  -23.9068  -10.4296   21.0421 C   0  0  0  0  0  0
  -24.3610   -9.4218   21.9191 C   0  0  0  0  0  0
  -23.6282   -8.2257   22.0761 C   0  0  0  0  0  0
  -22.4265   -8.0289   21.3558 C   0  0  0  0  0  0
  -21.9909   -9.0265   20.4673 C   0  0  0  0  0  0
  -22.7238  -10.2144   20.3086 C   0  0  0  0  0  0
  -21.6852   -6.0743   22.5292 C   0  0  0  0  0  0
  -21.4004   -6.5621   23.8228 C   0  0  0  0  0  0
  -21.3661   -5.6771   24.9173 C   0  0  0  0  0  0
  -21.6056   -4.3041   24.7219 C   0  0  0  0  0  0
  -21.8815   -3.8139   23.4331 C   0  0  0  0  0  0
  -21.9184   -4.6972   22.3388 C   0  0  0  0  0  0
  -22.7868  -13.5286   21.1801 C   0  0  0  0  0  0
  -22.1659   -4.2154   21.0980 F   0  0  0  0  0  0
  -21.5626   -3.4518   25.7727 F   0  0  0  0  0  0
  -30.0200  -13.3592   20.4128 N   0  0  0  0  0  0
  -26.2988  -12.9342   20.3363 N   0  0  0  0  0  0
  -25.9299  -11.6493   20.5747 N   0  0  0  0  0  0
  -22.0449  -12.8334   22.0374 N   0  0  0  0  0  0
  -25.4324  -15.1873   20.4111 N   0  0  0  0  0  0
  -31.8301  -14.7085   20.1255 O   0  0  0  0  0  0
  -21.6624   -6.8887   21.4257 O   0  0  0  0  0  0
  -22.3586  -14.5534   20.6570 O   0  0  0  0  0  0
  -24.6252  -31.8651   23.2088 C   0  0  0  0  0  0
  -25.9116  -32.4813   23.8407 C   0  0  1  0  0  0
  -27.1866  -27.3392   20.1044 C   0  0  0  0  0  0
  -25.5943  -33.8615   24.2341 N   0  0  0  0  0  0
  -23.4171  -30.4933   21.5467 C   0  0  2  0  0  0
  -24.8605  -28.9688   20.0867 C   0  0  0  0  0  0
  -22.7487  -29.4695   22.4955 C   0  0  0  0  0  0
  -18.0359  -28.1375   22.8419 C   0  0  0  0  0  0
  -24.1479  -36.7306   23.2636 C   0  0  0  0  0  0
  -25.9533  -30.7921   21.3889 C   0  0  0  0  0  0
  -26.0190  -29.4231   20.7309 C   0  0  0  0  0  0
  -27.1857  -28.6062   20.7536 C   0  0  0  0  0  0
  -26.0701  -27.0083   19.3285 C   0  0  0  0  0  0
  -24.8884  -27.7660   19.3672 C   0  0  0  0  0  0
  -23.6232  -29.8335   20.1553 C   0  0  0  0  0  0
  -25.4091  -36.3099   24.0348 C   0  0  1  0  0  0
  -20.5934  -28.3706   23.1243 C   0  0  2  0  0  0
  -20.6845  -26.9481   22.5206 C   0  0  0  0  0  0
  -19.5857  -26.6678   21.4900 C   0  0  0  0  0  0
  -18.2039  -26.8026   22.1339 C   0  0  0  0  0  0
  -19.1593  -28.8841   23.2880 C   0  0  0  0  0  0
  -18.9474  -30.1407   23.8940 C   0  0  0  0  0  0
  -17.6453  -30.6501   24.0614 C   0  0  0  0  0  0
  -25.9031  -34.9469   23.5138 C   0  0  0  0  0  0
  -16.5362  -29.8994   23.6330 C   0  0  0  0  0  0
  -16.7335  -28.6448   23.0286 C   0  0  0  0  0  0
  -26.4494  -31.6619   25.0779 C   0  0  0  0  0  0
  -25.3787  -31.3702   26.1545 C   0  0  0  0  0  0
  -27.0327  -30.3052   24.6229 C   0  0  0  0  0  0
  -27.6080  -32.4331   25.7529 C   0  0  0  0  0  0
  -27.5581  -37.1801   24.8471 C   0  0  0  0  0  0
  -21.4199  -29.3169   22.3739 N   0  0  0  0  0  0
  -26.4287  -37.3768   23.9424 N   0  0  0  0  0  0
  -24.6836  -31.0646   22.1062 N   0  0  0  0  0  0
  -23.4196  -28.8233   23.3050 O   0  0  0  0  0  0
  -28.2330  -26.4279   20.1594 O   0  0  0  0  0  0
  -26.5557  -34.8911   22.4673 O   0  0  0  0  0  0
  -23.5435  -32.1465   23.7429 O   0  0  0  0  0  0
  -28.4645  -21.7952   20.6357 C   0  0  0  0  0  0
  -27.2037  -22.4909   20.7407 C   0  0  0  0  0  0
  -28.4096  -20.5361   21.2007 C   0  0  0  0  0  0
  -26.3445  -21.5071   21.2437 C   0  0  0  0  0  0
  -22.9031  -19.4864   18.5950 C   0  0  0  0  0  0
  -24.3736  -24.3067   19.8903 C   0  0  0  0  0  0
  -27.1393  -19.6074   24.0942 C   0  0  0  0  0  0
  -26.7649  -17.9352   22.2444 C   0  0  0  0  0  0
  -29.5215  -19.4886   21.4223 C   0  0  0  0  0  0
  -24.8312  -21.4230   21.4511 C   0  0  0  0  0  0
  -23.5808  -20.6777   19.2863 C   0  0  0  0  0  0
  -25.5506  -24.4753   20.8877 C   0  0  0  0  0  0
  -29.5520  -18.1605   20.5685 C   0  0  0  0  0  0
  -24.1041  -20.2946   20.6800 C   0  0  0  0  0  0
  -30.3701  -16.9888   21.2374 C   0  0  0  0  0  0
  -28.0215  -25.0902   20.7894 C   0  0  0  0  0  0
  -26.9271  -24.0116   20.3326 C   0  0  1  0  0  0
  -26.6084  -19.3927   22.6706 C   0  0  0  0  0  0
  -27.1131  -20.4206   21.7139 N   0  0  0  0  0  0
  -29.9261  -15.6004   20.9418 N   0  0  0  0  0  0
  -31.4706  -12.4566   19.1191 H   0  0  0  0  0  0
  -30.3438  -11.3517   19.8517 H   0  0  0  0  0  0
  -29.7406  -11.7478   17.4489 H   0  0  0  0  0  0
  -29.6500  -13.4663   17.7306 H   0  0  0  0  0  0
  -27.8206  -11.3073   18.8101 H   0  0  0  0  0  0
  -27.3738  -12.6343   17.7806 H   0  0  0  0  0  0
  -27.6860  -14.2528   19.5440 H   0  0  0  0  0  0
  -28.7068  -12.0103   21.3599 H   0  0  0  0  0  0
  -28.4665  -13.6653   21.8429 H   0  0  0  0  0  0
  -25.2732   -9.5701   22.4787 H   0  0  0  0  0  0
  -23.9984   -7.4653   22.7475 H   0  0  0  0  0  0
  -21.0846   -8.8805   19.8967 H   0  0  0  0  0  0
  -22.3700  -10.9694   19.6216 H   0  0  0  0  0  0
  -21.2006   -7.6129   23.9730 H   0  0  0  0  0  0
  -21.1497   -6.0504   25.9086 H   0  0  0  0  0  0
  -22.0594   -2.7605   23.2836 H   0  0  0  0  0  0
  -22.3972  -12.0012   22.4854 H   0  0  0  0  0  0
  -21.1091  -13.1488   22.2476 H   0  0  0  0  0  0
  -24.6604  -15.8388   20.5032 H   0  0  0  0  0  0
  -26.2802  -15.6274   20.0781 H   0  0  0  0  0  0
  -26.7229  -32.5446   23.1201 H   0  0  0  0  0  0
  -25.0179  -33.9774   25.0550 H   0  0  0  0  0  0
  -22.7189  -31.3205   21.4036 H   0  0  0  0  0  0
  -23.3746  -35.9637   23.3309 H   0  0  0  0  0  0
  -24.3618  -36.8900   22.2054 H   0  0  0  0  0  0
  -23.7216  -37.6515   23.6637 H   0  0  0  0  0  0
  -26.0709  -31.5600   20.6228 H   0  0  0  0  0  0
  -26.8377  -30.8404   22.0123 H   0  0  0  0  0  0
  -28.0675  -28.9189   21.2888 H   0  0  0  0  0  0
  -26.1107  -26.1203   18.7188 H   0  0  0  0  0  0
  -24.0212  -27.4427   18.8067 H   0  0  0  0  0  0
  -23.7365  -30.6037   19.3925 H   0  0  0  0  0  0
  -22.7440  -29.2528   19.8617 H   0  0  0  0  0  0
  -25.1247  -36.1996   25.0841 H   0  0  0  0  0  0
  -21.0062  -28.3213   24.1349 H   0  0  0  0  0  0
  -20.5654  -26.2234   23.3262 H   0  0  0  0  0  0
  -21.6724  -26.7549   22.1008 H   0  0  0  0  0  0
  -19.7058  -25.6756   21.0555 H   0  0  0  0  0  0
  -19.6808  -27.3798   20.6677 H   0  0  0  0  0  0
  -17.4321  -26.7001   21.3697 H   0  0  0  0  0  0
  -18.0480  -25.9933   22.8475 H   0  0  0  0  0  0
  -19.7909  -30.7224   24.2385 H   0  0  0  0  0  0
  -17.4965  -31.6109   24.5318 H   0  0  0  0  0  0
  -15.5336  -30.2822   23.7651 H   0  0  0  0  0  0
  -15.8778  -28.0738   22.6940 H   0  0  0  0  0  0
  -24.6007  -30.6967   25.7926 H   0  0  0  0  0  0
  -24.8905  -32.2811   26.5015 H   0  0  0  0  0  0
  -25.8209  -30.8922   27.0295 H   0  0  0  0  0  0
  -26.2875  -29.6804   24.1281 H   0  0  0  0  0  0
  -27.4040  -29.7322   25.4733 H   0  0  0  0  0  0
  -27.8745  -30.4342   23.9422 H   0  0  0  0  0  0
  -27.2736  -33.3642   26.2115 H   0  0  0  0  0  0
  -28.3875  -32.6870   25.0336 H   0  0  0  0  0  0
  -28.0744  -31.8438   26.5434 H   0  0  0  0  0  0
  -28.2568  -38.0115   24.7495 H   0  0  0  0  0  0
  -28.1104  -36.2645   24.6315 H   0  0  0  0  0  0
  -27.2324  -37.1451   25.8877 H   0  0  0  0  0  0
  -20.9347  -29.9091   21.7147 H   0  0  0  0  0  0
  -26.0206  -38.2858   24.1433 H   0  0  0  0  0  0
  -29.3707  -22.2188   20.2240 H   0  0  0  0  0  0
  -22.4861  -19.7674   17.6269 H   0  0  0  0  0  0
  -22.0989  -19.0739   19.2099 H   0  0  0  0  0  0
  -23.6334  -18.6970   18.4184 H   0  0  0  0  0  0
  -24.3136  -25.0811   19.1311 H   0  0  0  0  0  0
  -23.4209  -24.3237   20.4183 H   0  0  0  0  0  0
  -24.4520  -23.3657   19.3447 H   0  0  0  0  0  0
  -28.1786  -19.3058   24.2026 H   0  0  0  0  0  0
  -26.5636  -19.0076   24.8000 H   0  0  0  0  0  0
  -27.0488  -20.6471   24.4099 H   0  0  0  0  0  0
  -26.1381  -17.3008   22.8706 H   0  0  0  0  0  0
  -27.7809  -17.5810   22.3954 H   0  0  0  0  0  0
  -26.4610  -17.7790   21.2105 H   0  0  0  0  0  0
  -29.4913  -19.1975   22.4672 H   0  0  0  0  0  0
  -30.4986  -19.9672   21.3316 H   0  0  0  0  0  0
  -24.2952  -22.3225   21.2289 H   0  0  0  0  0  0
  -24.6214  -21.3254   22.5154 H   0  0  0  0  0  0
  -22.8746  -21.5064   19.3744 H   0  0  0  0  0  0
  -24.4090  -21.0239   18.6653 H   0  0  0  0  0  0
  -25.3715  -23.9873   21.8449 H   0  0  0  0  0  0
  -25.5745  -25.5068   21.2304 H   0  0  0  0  0  0
  -29.9619  -18.3805   19.5814 H   0  0  0  0  0  0
  -28.5436  -17.8155   20.3659 H   0  0  0  0  0  0
  -23.2324  -20.0141   21.2709 H   0  0  0  0  0  0
  -24.7165  -19.3955   20.6086 H   0  0  0  0  0  0
  -30.2962  -17.0770   22.3201 H   0  0  0  0  0  0
  -31.4334  -17.1115   21.0251 H   0  0  0  0  0  0
  -28.9855  -24.5999   20.6719 H   0  0  0  0  0  0
  -27.9194  -25.2245   21.8687 H   0  0  0  0  0  0
  -26.9074  -24.0405   19.2397 H   0  0  0  0  0  0
  -25.5351  -19.4941   22.7790 H   0  0  0  0  0  0
  -28.9712  -15.3813   21.1822 H   0  0  0  0  0  0
  1 25  1  0  0  0
  1 30  2  0  0  0
  1 90  1  0  0  0
  2  3  1  0  0  0
  2 25  1  0  0  0
  2 91  1  0  0  0
  2 92  1  0  0  0
  3  4  1  0  0  0
  3 93  1  0  0  0
  3 94  1  0  0  0
  4  5  1  0  0  0
  4 95  1  0  0  0
  4 96  1  0  0  0
  5  6  1  0  0  0
  5 26  1  0  0  0
  5 97  1  0  0  0
  6 25  1  0  0  0
  6 98  1  0  0  0
  6 99  1  0  0  0
  7  8  2  0  0  0
  7 26  1  0  0  0
  7 29  1  0  0  0
  8  9  1  0  0  0
  8 22  1  0  0  0
  9 10  1  0  0  0
  9 27  2  0  0  0
 10 11  2  0  0  0
 10 15  1  0  0  0
 11 12  1  0  0  0
 11100  1  0  0  0
 12 13  2  0  0  0
 12101  1  0  0  0
 13 14  1  0  0  0
 13 31  1  0  0  0
 14 15  2  0  0  0
 14102  1  0  0  0
 15103  1  0  0  0
 16 17  2  0  0  0
 16 21  1  0  0  0
 16 31  1  0  0  0
 17 18  1  0  0  0
 17104  1  0  0  0
 18 19  2  0  0  0
 18105  1  0  0  0
 19 20  1  0  0  0
 19 24  1  0  0  0
 20 21  2  0  0  0
 20106  1  0  0  0
 21 23  1  0  0  0
 22 28  1  0  0  0
 22 32  2  0  0  0
 26 27  1  0  0  0
 28107  1  0  0  0
 28108  1  0  0  0
 29109  1  0  0  0
 29110  1  0  0  0
 33 34  1  0  0  0
 33 66  1  0  0  0
 33 70  2  0  0  0
 34 36  1  0  0  0
 34 59  1  0  0  0
 34111  1  0  0  0
 35 44  2  0  0  0
 35 45  1  0  0  0
 35 68  1  0  0  0
 36 56  1  0  0  0
 36112  1  0  0  0
 37 39  1  0  0  0
 37 47  1  0  0  0
 37 66  1  0  0  0
 37113  1  0  0  0
 38 43  2  0  0  0
 38 46  1  0  0  0
 38 47  1  0  0  0
 39 64  1  0  0  0
 39 67  2  0  0  0
 40 52  1  0  0  0
 40 53  2  0  0  0
 40 58  1  0  0  0
 41114  1  0  0  0
 41115  1  0  0  0
 41116  1  0  0  0
 41 48  1  0  0  0
 42 43  1  0  0  0
 42 66  1  0  0  0
 42117  1  0  0  0
 42118  1  0  0  0
 43 44  1  0  0  0
 44119  1  0  0  0
 45 46  2  0  0  0
 45120  1  0  0  0
 46121  1  0  0  0
 47122  1  0  0  0
 47123  1  0  0  0
 48 56  1  0  0  0
 48 65  1  0  0  0
 48124  1  0  0  0
 49 50  1  0  0  0
 49 53  1  0  0  0
 49 64  1  0  0  0
 49125  1  0  0  0
 50 51  1  0  0  0
 50126  1  0  0  0
 50127  1  0  0  0
 51 52  1  0  0  0
 51128  1  0  0  0
 51129  1  0  0  0
 52130  1  0  0  0
 52131  1  0  0  0
 53 54  1  0  0  0
 54 55  2  0  0  0
 54132  1  0  0  0
 55 57  1  0  0  0
 55133  1  0  0  0
 56 69  2  0  0  0
 57 58  2  0  0  0
 57134  1  0  0  0
 58135  1  0  0  0
 59 60  1  0  0  0
 59 61  1  0  0  0
 59 62  1  0  0  0
 60136  1  0  0  0
 60137  1  0  0  0
 60138  1  0  0  0
 61139  1  0  0  0
 61140  1  0  0  0
 61141  1  0  0  0
 62142  1  0  0  0
 62143  1  0  0  0
 62144  1  0  0  0
 63 65  1  0  0  0
 63145  1  0  0  0
 63146  1  0  0  0
 63147  1  0  0  0
 64148  1  0  0  0
 65149  1  0  0  0
 68 86  1  0  0  0
 71 72  1  0  0  0
 71 73  2  0  0  0
 71150  1  0  0  0
 72 74  2  0  0  0
 72 87  1  0  0  0
 73 79  1  0  0  0
 73 89  1  0  0  0
 74 80  1  0  0  0
 74 89  1  0  0  0
 75 81  1  0  0  0
 75151  1  0  0  0
 75152  1  0  0  0
 75153  1  0  0  0
 76 82  1  0  0  0
 76154  1  0  0  0
 76155  1  0  0  0
 76156  1  0  0  0
 77157  1  0  0  0
 77158  1  0  0  0
 77159  1  0  0  0
 77 88  1  0  0  0
 78 88  1  0  0  0
 78160  1  0  0  0
 78161  1  0  0  0
 78162  1  0  0  0
 79 83  1  0  0  0
 79163  1  0  0  0
 79164  1  0  0  0
 80 84  1  0  0  0
 80165  1  0  0  0
 80166  1  0  0  0
 81 84  1  0  0  0
 81167  1  0  0  0
 81168  1  0  0  0
 82169  1  0  0  0
 82170  1  0  0  0
 82 87  1  0  0  0
 83 85  1  0  0  0
 83171  1  0  0  0
 83172  1  0  0  0
 84173  1  0  0  0
 84174  1  0  0  0
 85 90  1  0  0  0
 85175  1  0  0  0
 85176  1  0  0  0
 86 87  1  0  0  0
 86177  1  0  0  0
 86178  1  0  0  0
 87179  1  0  0  0
 88 89  1  0  0  0
 88180  1  0  0  0
 90181  1  0  0  0
M  ISO  4   1 100  68 101  86 101  90 100
M  END
> <chiral flag>
0

> <version>
0

> <s_m_source_file>
/data/baiqing/PycharmProjects/Reinvent-master-3.2/result/LINK_invent/BTK/process_docking_weight1_custom_sum_contain_oxygen_bond_distance_aromatic_linkinvent_7_9_3/rearranged_h_0091.sdf

> <i_m_source_file_index>
36

> <r_mmod_Potential_Energy-OPLS-2005>
172.363143920898

> <r_mmod_Stretch_Energy-OPLS-2005>
84.2619247436523

> <r_mmod_Bend_Energy-OPLS-2005>
164.139663696289

> <r_mmod_Torsional_Energy-OPLS-2005>
304.095153808594

> <r_mmod_Improper_Torsional_Energy-OPLS-2005>
4.56966543197632

> <r_mmod_Van_der_Waal_Energy-OPLS-2005>
150.13703918457

> <r_mmod_Electrostatic_Energy-OPLS-2005>
-387.037933349609

> <r_mmod_Solvation_Energy-OPLS-2005>
-194.751617431641

> <b_mmod_Minimization_Converged-OPLS-2005>
0

> <r_mmod_RMS_Derivative-OPLS-2005>
5.82192802429199

$$$$
37
                    3D
 Structure written by MMmdl.
165173  0  0  1  0            999 V2000
  -30.6201  -14.6895   20.4834 C   0  0  0  0  0  0
  -30.4186  -12.4160   19.4807 C   0  0  0  0  0  0
  -29.5070  -12.5155   18.2380 C   0  0  0  0  0  0
  -28.0256  -12.3604   18.6360 C   0  0  0  0  0  0
  -27.6396  -13.2349   19.8589 C   0  0  2  0  0  0
  -28.6784  -13.1362   20.9971 C   0  0  0  0  0  0
  -25.2462  -13.8195   20.5675 C   0  0  0  0  0  0
  -24.1772  -13.0437   20.9160 C   0  0  0  0  0  0
  -24.6379  -11.6919   20.8738 C   0  0  0  0  0  0
  -23.9070  -10.4302   21.0421 C   0  0  0  0  0  0
  -24.3634   -9.4220   21.9194 C   0  0  0  0  0  0
  -23.6317   -8.2248   22.0770 C   0  0  0  0  0  0
  -22.4295   -8.0281   21.3565 C   0  0  0  0  0  0
  -21.9928   -9.0251   20.4662 C   0  0  0  0  0  0
  -22.7248  -10.2132   20.3071 C   0  0  0  0  0  0
  -21.6862   -6.0741   22.5300 C   0  0  0  0  0  0
  -21.4014   -6.5645   23.8229 C   0  0  0  0  0  0
  -21.3648   -5.6801   24.9195 C   0  0  0  0  0  0
  -21.6042   -4.3061   24.7246 C   0  0  0  0  0  0
  -21.8816   -3.8151   23.4370 C   0  0  0  0  0  0
  -21.9196   -4.6964   22.3424 C   0  0  0  0  0  0
  -22.7799  -13.5206   21.1849 C   0  0  0  0  0  0
  -22.1667   -4.2143   21.1004 F   0  0  0  0  0  0
  -21.5639   -3.4542   25.7762 F   0  0  0  0  0  0
  -29.9867  -13.4721   20.4240 N   0  0  0  0  0  0
  -26.2916  -12.9425   20.3311 N   0  0  0  0  0  0
  -25.9306  -11.6561   20.5760 N   0  0  0  0  0  0
  -22.0466  -12.8197   22.0410 N   0  0  0  0  0  0
  -25.4138  -15.1935   20.4114 N   0  0  0  0  0  0
  -31.8053  -14.7881   20.1545 O   0  0  0  0  0  0
  -21.6658   -6.8881   21.4258 O   0  0  0  0  0  0
  -22.3482  -14.5518   20.6699 O   0  0  0  0  0  0
  -24.6262  -31.8546   23.1968 C   0  0  0  0  0  0
  -25.9102  -32.4742   23.8305 C   0  0  1  0  0  0
  -27.2282  -27.2890   20.1543 C   0  0  0  0  0  0
  -25.5920  -33.8543   24.2255 N   0  0  0  0  0  0
  -23.4216  -30.4741   21.5376 C   0  0  2  0  0  0
  -24.8718  -28.9124   20.1189 C   0  0  0  0  0  0
  -22.7470  -29.4601   22.4927 C   0  0  0  0  0  0
  -18.0283  -28.1373   22.8474 C   0  0  0  0  0  0
  -24.1484  -36.7273   23.2648 C   0  0  0  0  0  0
  -25.9601  -30.7813   21.3644 C   0  0  0  0  0  0
  -26.0389  -29.3991   20.7227 C   0  0  0  0  0  0
  -27.2231  -28.6022   20.7248 C   0  0  0  0  0  0
  -26.0437  -26.8505   19.5320 C   0  0  0  0  0  0
  -24.8766  -27.6437   19.5130 C   0  0  0  0  0  0
  -23.6386  -29.7943   20.1586 C   0  0  0  0  0  0
  -25.4107  -36.3053   24.0335 C   0  0  1  0  0  0
  -20.5877  -28.3685   23.1270 C   0  0  2  0  0  0
  -20.6769  -26.9404   22.5413 C   0  0  0  0  0  0
  -19.5758  -26.6378   21.5201 C   0  0  0  0  0  0
  -18.1929  -26.7916   22.1600 C   0  0  0  0  0  0
  -19.1535  -28.8848   23.2859 C   0  0  0  0  0  0
  -18.9457  -30.1445   23.8884 C   0  0  0  0  0  0
  -17.6458  -30.6581   24.0552 C   0  0  0  0  0  0
  -25.9054  -34.9434   23.5107 C   0  0  0  0  0  0
  -16.5345  -29.9076   23.6329 C   0  0  0  0  0  0
  -16.7265  -28.6486   23.0357 C   0  0  0  0  0  0
  -26.4522  -31.6544   25.0659 C   0  0  0  0  0  0
  -25.3781  -31.3634   26.1393 C   0  0  0  0  0  0
  -27.0386  -30.2974   24.6102 C   0  0  0  0  0  0
  -27.6101  -32.4268   25.7416 C   0  0  0  0  0  0
  -27.5575  -37.1773   24.8471 C   0  0  0  0  0  0
  -21.4186  -29.3025   22.3659 N   0  0  0  0  0  0
  -26.4283  -37.3749   23.9423 N   0  0  0  0  0  0
  -24.6884  -31.0559   22.0899 N   0  0  0  0  0  0
  -23.4170  -28.8155   23.3044 O   0  0  0  0  0  0
  -28.3644  -26.4698   20.1017 O   0  0  0  0  0  0
  -26.5618  -34.8923   22.4676 O   0  0  0  0  0  0
  -23.5432  -32.1357   23.7307 O   0  0  0  0  0  0
  -30.2963  -22.8339   19.5691 C   0  0  0  0  0  0
  -28.7902  -21.1379   20.4105 C   0  0  0  0  0  0
  -29.0390  -22.5408   20.1171 C   0  0  0  0  0  0
  -31.2215  -21.8212   19.2482 C   0  0  0  0  0  0
  -29.7153  -20.0514   20.1237 C   0  0  0  0  0  0
  -30.9461  -20.4458   19.5028 C   0  0  0  0  0  0
  -32.5007  -22.2640   18.5518 C   0  0  0  0  0  0
  -31.9668  -19.4150   19.0359 C   0  0  0  0  0  0
  -25.7463  -22.5692   19.7403 C   0  0  0  0  0  0
  -29.2877  -18.5174   20.3889 C   0  0  0  0  0  0
  -26.6231  -23.3229   20.7528 C   0  0  0  0  0  0
  -30.3215  -17.2662   20.4914 C   0  0  0  0  0  0
  -28.4449  -25.1701   20.8259 C   0  0  0  0  0  0
  -27.9989  -23.7521   20.1909 C   0  0  1  0  0  0
  -29.8608  -15.8271   20.6948 N   0  0  0  0  0  0
  -31.4666  -12.5154   19.1938 H   0  0  0  0  0  0
  -30.3301  -11.4331   19.9448 H   0  0  0  0  0  0
  -29.7813  -11.7605   17.5008 H   0  0  0  0  0  0
  -29.6571  -13.4812   17.7543 H   0  0  0  0  0  0
  -27.8451  -11.3085   18.8618 H   0  0  0  0  0  0
  -27.3842  -12.6005   17.7871 H   0  0  0  0  0  0
  -27.6422  -14.2650   19.5014 H   0  0  0  0  0  0
  -28.6935  -12.1307   21.4203 H   0  0  0  0  0  0
  -28.4209  -13.8083   21.8181 H   0  0  0  0  0  0
  -25.2789   -9.5686   22.4748 H   0  0  0  0  0  0
  -24.0035   -7.4635   22.7481 H   0  0  0  0  0  0
  -21.0866   -8.8754   19.8967 H   0  0  0  0  0  0
  -22.3709  -10.9660   19.6169 H   0  0  0  0  0  0
  -21.1994   -7.6158   23.9721 H   0  0  0  0  0  0
  -21.1480   -6.0549   25.9098 H   0  0  0  0  0  0
  -22.0597   -2.7606   23.2885 H   0  0  0  0  0  0
  -22.4106  -11.9885   22.4844 H   0  0  0  0  0  0
  -21.1075  -13.1200   22.2601 H   0  0  0  0  0  0
  -24.6435  -15.8441   20.5239 H   0  0  0  0  0  0
  -26.2732  -15.6445   20.1267 H   0  0  0  0  0  0
  -26.7162  -32.5424   23.1054 H   0  0  0  0  0  0
  -25.0083  -33.9685   25.0407 H   0  0  0  0  0  0
  -22.7181  -31.2957   21.3860 H   0  0  0  0  0  0
  -23.3757  -35.9599   23.3295 H   0  0  0  0  0  0
  -24.3587  -36.8908   22.2071 H   0  0  0  0  0  0
  -23.7241  -37.6467   23.6691 H   0  0  0  0  0  0
  -26.0821  -31.5328   20.5833 H   0  0  0  0  0  0
  -26.8459  -30.8470   21.9871 H   0  0  0  0  0  0
  -28.1262  -28.9783   21.1851 H   0  0  0  0  0  0
  -26.0221  -25.8817   19.0539 H   0  0  0  0  0  0
  -23.9838  -27.2642   19.0356 H   0  0  0  0  0  0
  -23.7595  -30.5606   19.3918 H   0  0  0  0  0  0
  -22.7599  -29.2178   19.8631 H   0  0  0  0  0  0
  -25.1291  -36.1891   25.0823 H   0  0  0  0  0  0
  -20.9967  -28.3261   24.1390 H   0  0  0  0  0  0
  -20.5651  -26.2295   23.3613 H   0  0  0  0  0  0
  -21.6642  -26.7423   22.1225 H   0  0  0  0  0  0
  -19.6931  -25.6295   21.1220 H   0  0  0  0  0  0
  -19.6702  -27.3204   20.6742 H   0  0  0  0  0  0
  -17.4205  -26.6665   21.3987 H   0  0  0  0  0  0
  -18.0318  -26.0050   22.8992 H   0  0  0  0  0  0
  -19.7941  -30.7252   24.2251 H   0  0  0  0  0  0
  -17.5022  -31.6272   24.5144 H   0  0  0  0  0  0
  -15.5346  -30.2975   23.7681 H   0  0  0  0  0  0
  -15.8656  -28.0807   22.7089 H   0  0  0  0  0  0
  -24.6056  -30.6858   25.7733 H   0  0  0  0  0  0
  -24.8853  -32.2758   26.4747 H   0  0  0  0  0  0
  -25.8151  -30.8906   27.0199 H   0  0  0  0  0  0
  -26.2943  -29.6643   24.1252 H   0  0  0  0  0  0
  -27.4242  -29.7292   25.4580 H   0  0  0  0  0  0
  -27.8733  -30.4265   23.9209 H   0  0  0  0  0  0
  -27.2761  -33.3618   26.1931 H   0  0  0  0  0  0
  -28.3934  -32.6725   25.0228 H   0  0  0  0  0  0
  -28.0743  -31.8408   26.5364 H   0  0  0  0  0  0
  -28.2572  -38.0084   24.7533 H   0  0  0  0  0  0
  -28.1086  -36.2620   24.6272 H   0  0  0  0  0  0
  -27.2307  -37.1387   25.8874 H   0  0  0  0  0  0
  -20.9385  -29.8681   21.6806 H   0  0  0  0  0  0
  -26.0155  -38.2815   24.1445 H   0  0  0  0  0  0
  -30.5305  -23.8621   19.3245 H   0  0  0  0  0  0
  -27.8320  -20.8668   20.8271 H   0  0  0  0  0  0
  -32.5433  -23.3458   18.4288 H   0  0  0  0  0  0
  -32.5603  -21.8192   17.5572 H   0  0  0  0  0  0
  -33.3804  -21.9677   19.1219 H   0  0  0  0  0  0
  -31.5399  -18.8270   18.2224 H   0  0  0  0  0  0
  -32.2760  -18.7774   19.8586 H   0  0  0  0  0  0
  -32.9005  -19.8228   18.6604 H   0  0  0  0  0  0
  -24.7615  -22.3635   20.1604 H   0  0  0  0  0  0
  -26.1884  -21.6175   19.4477 H   0  0  0  0  0  0
  -25.5994  -23.1633   18.8361 H   0  0  0  0  0  0
  -28.5776  -18.2720   19.5979 H   0  0  0  0  0  0
  -28.6973  -18.5283   21.3060 H   0  0  0  0  0  0
  -26.7483  -22.7413   21.6683 H   0  0  0  0  0  0
  -26.0610  -24.2085   21.0541 H   0  0  0  0  0  0
  -31.0509  -17.4818   21.2744 H   0  0  0  0  0  0
  -30.8581  -17.1924   19.5502 H   0  0  0  0  0  0
  -29.5005  -25.0799   21.0854 H   0  0  0  0  0  0
  -27.9650  -25.2956   21.7975 H   0  0  0  0  0  0
  -27.8352  -23.9943   19.1411 H   0  0  0  0  0  0
  -28.8949  -15.6824   20.9442 H   0  0  0  0  0  0
  1 25  1  0  0  0
  1 30  2  0  0  0
  1 85  1  0  0  0
  2  3  1  0  0  0
  2 25  1  0  0  0
  2 86  1  0  0  0
  2 87  1  0  0  0
  3  4  1  0  0  0
  3 88  1  0  0  0
  3 89  1  0  0  0
  4  5  1  0  0  0
  4 90  1  0  0  0
  4 91  1  0  0  0
  5  6  1  0  0  0
  5 26  1  0  0  0
  5 92  1  0  0  0
  6 25  1  0  0  0
  6 93  1  0  0  0
  6 94  1  0  0  0
  7  8  2  0  0  0
  7 26  1  0  0  0
  7 29  1  0  0  0
  8  9  1  0  0  0
  8 22  1  0  0  0
  9 10  1  0  0  0
  9 27  2  0  0  0
 10 11  2  0  0  0
 10 15  1  0  0  0
 11 12  1  0  0  0
 11 95  1  0  0  0
 12 13  2  0  0  0
 12 96  1  0  0  0
 13 14  1  0  0  0
 13 31  1  0  0  0
 14 15  2  0  0  0
 14 97  1  0  0  0
 15 98  1  0  0  0
 16 17  2  0  0  0
 16 21  1  0  0  0
 16 31  1  0  0  0
 17 18  1  0  0  0
 17 99  1  0  0  0
 18 19  2  0  0  0
 18100  1  0  0  0
 19 20  1  0  0  0
 19 24  1  0  0  0
 20 21  2  0  0  0
 20101  1  0  0  0
 21 23  1  0  0  0
 22 28  1  0  0  0
 22 32  2  0  0  0
 26 27  1  0  0  0
 28102  1  0  0  0
 28103  1  0  0  0
 29104  1  0  0  0
 29105  1  0  0  0
 33 34  1  0  0  0
 33 66  1  0  0  0
 33 70  2  0  0  0
 34 36  1  0  0  0
 34 59  1  0  0  0
 34106  1  0  0  0
 35 44  2  0  0  0
 35 45  1  0  0  0
 35 68  1  0  0  0
 36 56  1  0  0  0
 36107  1  0  0  0
 37 39  1  0  0  0
 37 47  1  0  0  0
 37 66  1  0  0  0
 37108  1  0  0  0
 38 43  2  0  0  0
 38 46  1  0  0  0
 38 47  1  0  0  0
 39 64  1  0  0  0
 39 67  2  0  0  0
 40 52  1  0  0  0
 40 53  2  0  0  0
 40 58  1  0  0  0
 41109  1  0  0  0
 41110  1  0  0  0
 41111  1  0  0  0
 41 48  1  0  0  0
 42 43  1  0  0  0
 42 66  1  0  0  0
 42112  1  0  0  0
 42113  1  0  0  0
 43 44  1  0  0  0
 44114  1  0  0  0
 45 46  2  0  0  0
 45115  1  0  0  0
 46116  1  0  0  0
 47117  1  0  0  0
 47118  1  0  0  0
 48 56  1  0  0  0
 48 65  1  0  0  0
 48119  1  0  0  0
 49 50  1  0  0  0
 49 53  1  0  0  0
 49 64  1  0  0  0
 49120  1  0  0  0
 50 51  1  0  0  0
 50121  1  0  0  0
 50122  1  0  0  0
 51 52  1  0  0  0
 51123  1  0  0  0
 51124  1  0  0  0
 52125  1  0  0  0
 52126  1  0  0  0
 53 54  1  0  0  0
 54 55  2  0  0  0
 54127  1  0  0  0
 55 57  1  0  0  0
 55128  1  0  0  0
 56 69  2  0  0  0
 57 58  2  0  0  0
 57129  1  0  0  0
 58130  1  0  0  0
 59 60  1  0  0  0
 59 61  1  0  0  0
 59 62  1  0  0  0
 60131  1  0  0  0
 60132  1  0  0  0
 60133  1  0  0  0
 61134  1  0  0  0
 61135  1  0  0  0
 61136  1  0  0  0
 62137  1  0  0  0
 62138  1  0  0  0
 62139  1  0  0  0
 63 65  1  0  0  0
 63140  1  0  0  0
 63141  1  0  0  0
 63142  1  0  0  0
 64143  1  0  0  0
 65144  1  0  0  0
 68 83  1  0  0  0
 71 73  2  0  0  0
 71 74  1  0  0  0
 71145  1  0  0  0
 72 73  1  0  0  0
 72 75  2  0  0  0
 72146  1  0  0  0
 73 84  1  0  0  0
 74 76  2  0  0  0
 74 77  1  0  0  0
 75 76  1  0  0  0
 75 80  1  0  0  0
 76 78  1  0  0  0
 77147  1  0  0  0
 77148  1  0  0  0
 77149  1  0  0  0
 78150  1  0  0  0
 78151  1  0  0  0
 78152  1  0  0  0
 79 81  1  0  0  0
 79153  1  0  0  0
 79154  1  0  0  0
 79155  1  0  0  0
 80 82  1  0  0  0
 80156  1  0  0  0
 80157  1  0  0  0
 81158  1  0  0  0
 81159  1  0  0  0
 81 84  1  0  0  0
 82 85  1  0  0  0
 82160  1  0  0  0
 82161  1  0  0  0
 83 84  1  0  0  0
 83162  1  0  0  0
 83163  1  0  0  0
 84164  1  0  0  0
 85165  1  0  0  0
M  ISO  4   1 100  68 101  83 101  85 100
M  END
> <chiral flag>
0

> <version>
0

> <s_m_source_file>
/data/baiqing/PycharmProjects/Reinvent-master-3.2/result/LINK_invent/BTK/process_docking_weight1_custom_sum_contain_oxygen_bond_distance_aromatic_linkinvent_7_9_3/rearranged_h_0091.sdf

> <i_m_source_file_index>
37

> <r_mmod_Potential_Energy-OPLS-2005>
174.587768554688

> <r_mmod_Stretch_Energy-OPLS-2005>
120.423362731934

> <r_mmod_Bend_Energy-OPLS-2005>
183.996429443359

> <r_mmod_Torsional_Energy-OPLS-2005>
242.485260009766

> <r_mmod_Improper_Torsional_Energy-OPLS-2005>
6.14153528213501

> <r_mmod_Van_der_Waal_Energy-OPLS-2005>
148.454406738281

> <r_mmod_Electrostatic_Energy-OPLS-2005>
-383.689880371094

> <r_mmod_Solvation_Energy-OPLS-2005>
-203.669662475586

> <b_mmod_Minimization_Converged-OPLS-2005>
0

> <r_mmod_RMS_Derivative-OPLS-2005>
3.29509663581848

$$$$
38
                    3D
 Structure written by MMmdl.
179187  0  0  1  0            999 V2000
  -30.5313  -14.9863   20.4251 C   0  0  0  0  0  0
  -30.4303  -12.6150   19.4992 C   0  0  0  0  0  0
  -29.5201  -12.5477   18.2512 C   0  0  0  0  0  0
  -28.0532  -12.3229   18.6613 C   0  0  0  0  0  0
  -27.6227  -13.2503   19.8295 C   0  0  2  0  0  0
  -28.6632  -13.3010   20.9687 C   0  0  0  0  0  0
  -25.2416  -13.8169   20.5663 C   0  0  0  0  0  0
  -24.1747  -13.0391   20.9206 C   0  0  0  0  0  0
  -24.6364  -11.6889   20.8687 C   0  0  0  0  0  0
  -23.9041  -10.4265   21.0343 C   0  0  0  0  0  0
  -24.3604   -9.4197   21.9134 C   0  0  0  0  0  0
  -23.6294   -8.2230   22.0719 C   0  0  0  0  0  0
  -22.4278   -8.0242   21.3515 C   0  0  0  0  0  0
  -21.9898   -9.0194   20.4616 C   0  0  0  0  0  0
  -22.7194  -10.2092   20.3012 C   0  0  0  0  0  0
  -21.6874   -6.0692   22.5252 C   0  0  0  0  0  0
  -21.4029   -6.5606   23.8179 C   0  0  0  0  0  0
  -21.3673   -5.6763   24.9148 C   0  0  0  0  0  0
  -21.6066   -4.3028   24.7213 C   0  0  0  0  0  0
  -21.8828   -3.8110   23.4340 C   0  0  0  0  0  0
  -21.9205   -4.6917   22.3386 C   0  0  0  0  0  0
  -22.7784  -13.5168   21.1892 C   0  0  0  0  0  0
  -22.1664   -4.2107   21.0963 F   0  0  0  0  0  0
  -21.5645   -3.4518   25.7725 F   0  0  0  0  0  0
  -29.9359  -13.7232   20.3710 N   0  0  0  0  0  0
  -26.2836  -12.9420   20.3155 N   0  0  0  0  0  0
  -25.9299  -11.6544   20.5660 N   0  0  0  0  0  0
  -22.0472  -12.8139   22.0461 N   0  0  0  0  0  0
  -25.4041  -15.1894   20.4068 N   0  0  0  0  0  0
  -31.7404  -15.0200   20.1805 O   0  0  0  0  0  0
  -21.6650   -6.8832   21.4209 O   0  0  0  0  0  0
  -22.3440  -14.5458   20.6717 O   0  0  0  0  0  0
  -24.6457  -31.8400   23.1851 C   0  0  0  0  0  0
  -25.9199  -32.4689   23.8280 C   0  0  1  0  0  0
  -27.2288  -27.1114   20.1731 C   0  0  0  0  0  0
  -25.5938  -33.8497   24.2190 N   0  0  0  0  0  0
  -23.4521  -30.4566   21.5278 C   0  0  2  0  0  0
  -24.9056  -28.8684   20.1206 C   0  0  0  0  0  0
  -22.7585  -29.4529   22.4831 C   0  0  0  0  0  0
  -18.0319  -28.1390   22.8460 C   0  0  0  0  0  0
  -24.1479  -36.7258   23.2645 C   0  0  0  0  0  0
  -26.0082  -30.7106   21.3835 C   0  0  0  0  0  0
  -26.0830  -29.3141   20.7343 C   0  0  0  0  0  0
  -27.2480  -28.4549   20.7342 C   0  0  0  0  0  0
  -26.0229  -26.7633   19.5302 C   0  0  0  0  0  0
  -24.8882  -27.6063   19.5032 C   0  0  0  0  0  0
  -23.6840  -29.7754   20.1516 C   0  0  0  0  0  0
  -25.4105  -36.3028   24.0321 C   0  0  1  0  0  0
  -20.5933  -28.3702   23.1220 C   0  0  2  0  0  0
  -20.6777  -26.9410   22.5384 C   0  0  0  0  0  0
  -19.5760  -26.6372   21.5178 C   0  0  0  0  0  0
  -18.1949  -26.7936   22.1596 C   0  0  0  0  0  0
  -19.1578  -28.8863   23.2846 C   0  0  0  0  0  0
  -18.9490  -30.1450   23.8883 C   0  0  0  0  0  0
  -17.6484  -30.6566   24.0583 C   0  0  0  0  0  0
  -25.9055  -34.9406   23.5061 C   0  0  0  0  0  0
  -16.5377  -29.9072   23.6347 C   0  0  0  0  0  0
  -16.7309  -28.6490   23.0343 C   0  0  0  0  0  0
  -26.4523  -31.6580   25.0736 C   0  0  0  0  0  0
  -25.3705  -31.3769   26.1432 C   0  0  0  0  0  0
  -27.0386  -30.2980   24.6306 C   0  0  0  0  0  0
  -27.6052  -32.4345   25.7529 C   0  0  0  0  0  0
  -27.5565  -37.1782   24.8456 C   0  0  0  0  0  0
  -21.4275  -29.3051   22.3605 N   0  0  0  0  0  0
  -26.4268  -37.3742   23.9413 N   0  0  0  0  0  0
  -24.7216  -31.0240   22.0885 N   0  0  0  0  0  0
  -23.4219  -28.8069   23.2983 O   0  0  0  0  0  0
  -28.3080  -26.1493   20.1660 O   0  0  0  0  0  0
  -26.5645  -34.8904   22.4647 O   0  0  0  0  0  0
  -23.5562  -32.1280   23.7050 O   0  0  0  0  0  0
  -27.1495  -20.8177   20.8847 C   0  0  0  0  0  0
  -27.4874  -18.1303   20.9396 C   0  0  0  0  0  0
  -28.4575  -20.3765   20.5996 C   0  0  0  0  0  0
  -28.6674  -18.8552   20.6318 C   0  0  0  0  0  0
  -26.0993  -19.9471   21.1628 C   0  0  0  0  0  0
  -22.5394  -22.6293   18.9423 C   0  0  0  0  0  0
  -21.6652  -21.3958   20.9768 C   0  0  0  0  0  0
  -32.7138  -19.2836   19.1894 C   0  0  0  0  0  0
  -32.3781  -17.5837   17.3521 C   0  0  0  0  0  0
  -29.3444  -21.7340   20.3883 C   0  0  0  0  0  0
  -24.7072  -20.5001   21.4090 C   0  0  0  0  0  0
  -28.7713  -23.2545   19.8181 C   0  0  0  0  0  0
  -24.0125  -20.9145   20.0968 C   0  0  0  0  0  0
  -30.4692  -18.0669   18.9557 C   0  0  0  0  0  0
  -28.1781  -24.6441   20.5954 C   0  0  0  0  0  0
  -29.9160  -17.7816   20.3748 C   0  0  2  0  0  0
  -22.9076  -21.9739   20.2833 C   0  0  0  0  0  0
  -32.0051  -17.9784   18.7901 C   0  0  0  0  0  0
  -26.2587  -18.6212   21.1825 N   0  0  0  0  0  0
  -29.7408  -16.1817   20.5466 N   0  0  0  0  0  0
  -31.4640  -12.7727   19.1893 H   0  0  0  0  0  0
  -30.4184  -11.6640   20.0336 H   0  0  0  0  0  0
  -29.8484  -11.7557   17.5773 H   0  0  0  0  0  0
  -29.6063  -13.4779   17.6867 H   0  0  0  0  0  0
  -27.9481  -11.2779   18.9558 H   0  0  0  0  0  0
  -27.3958  -12.4597   17.8015 H   0  0  0  0  0  0
  -27.5758  -14.2505   19.3980 H   0  0  0  0  0  0
  -28.7659  -12.3311   21.4577 H   0  0  0  0  0  0
  -28.3519  -14.0078   21.7388 H   0  0  0  0  0  0
  -25.2733   -9.5709   22.4714 H   0  0  0  0  0  0
  -24.0001   -7.4643   22.7457 H   0  0  0  0  0  0
  -21.0812   -8.8669   19.8954 H   0  0  0  0  0  0
  -22.3569  -10.9614   19.6138 H   0  0  0  0  0  0
  -21.2013   -7.6108   23.9666 H   0  0  0  0  0  0
  -21.1510   -6.0491   25.9046 H   0  0  0  0  0  0
  -22.0615   -2.7570   23.2831 H   0  0  0  0  0  0
  -22.4124  -11.9808   22.4834 H   0  0  0  0  0  0
  -21.1092  -13.1131   22.2722 H   0  0  0  0  0  0
  -24.6399  -15.8423   20.5405 H   0  0  0  0  0  0
  -26.2308  -15.6306   20.0317 H   0  0  0  0  0  0
  -26.7268  -32.5288   23.1019 H   0  0  0  0  0  0
  -25.0073  -33.9621   25.0328 H   0  0  0  0  0  0
  -22.7546  -31.2814   21.3637 H   0  0  0  0  0  0
  -23.3752  -35.9579   23.3284 H   0  0  0  0  0  0
  -24.3560  -36.8924   22.2064 H   0  0  0  0  0  0
  -23.7228  -37.6446   23.6696 H   0  0  0  0  0  0
  -26.1493  -31.4574   20.6015 H   0  0  0  0  0  0
  -26.8853  -30.7758   22.0166 H   0  0  0  0  0  0
  -28.1553  -28.8004   21.2104 H   0  0  0  0  0  0
  -25.9456  -25.7961   19.0513 H   0  0  0  0  0  0
  -23.9876  -27.2595   19.0155 H   0  0  0  0  0  0
  -23.8301  -30.5442   19.3910 H   0  0  0  0  0  0
  -22.8003  -29.2162   19.8392 H   0  0  0  0  0  0
  -25.1294  -36.1857   25.0814 H   0  0  0  0  0  0
  -21.0016  -28.3271   24.1343 H   0  0  0  0  0  0
  -20.5629  -26.2328   23.3591 H   0  0  0  0  0  0
  -21.6639  -26.7362   22.1197 H   0  0  0  0  0  0
  -19.6905  -25.6261   21.1221 H   0  0  0  0  0  0
  -19.6706  -27.3179   20.6721 H   0  0  0  0  0  0
  -17.4211  -26.6707   21.4003 H   0  0  0  0  0  0
  -18.0333  -26.0079   22.8977 H   0  0  0  0  0  0
  -19.7956  -30.7282   24.2247 H   0  0  0  0  0  0
  -17.5028  -31.6250   24.5180 H   0  0  0  0  0  0
  -15.5374  -30.2967   23.7664 H   0  0  0  0  0  0
  -15.8708  -28.0824   22.7055 H   0  0  0  0  0  0
  -24.5911  -30.7080   25.7767 H   0  0  0  0  0  0
  -24.8864  -32.2950   26.4767 H   0  0  0  0  0  0
  -25.8000  -30.9026   27.0266 H   0  0  0  0  0  0
  -26.3004  -29.6717   24.1281 H   0  0  0  0  0  0
  -27.3981  -29.7262   25.4874 H   0  0  0  0  0  0
  -27.8920  -30.4247   23.9641 H   0  0  0  0  0  0
  -27.2647  -33.3660   26.2060 H   0  0  0  0  0  0
  -28.3903  -32.6879   25.0392 H   0  0  0  0  0  0
  -28.0677  -31.8503   26.5497 H   0  0  0  0  0  0
  -28.2558  -38.0096   24.7486 H   0  0  0  0  0  0
  -28.1084  -36.2623   24.6284 H   0  0  0  0  0  0
  -27.2290  -37.1430   25.8862 H   0  0  0  0  0  0
  -20.9470  -29.8815   21.6832 H   0  0  0  0  0  0
  -26.0136  -38.2807   24.1443 H   0  0  0  0  0  0
  -26.9227  -21.8749   20.9000 H   0  0  0  0  0  0
  -27.5040  -17.0542   20.9921 H   0  0  0  0  0  0
  -21.7767  -23.3975   19.0711 H   0  0  0  0  0  0
  -22.1575  -21.9001   18.2266 H   0  0  0  0  0  0
  -23.4052  -23.1137   18.4882 H   0  0  0  0  0  0
  -20.9134  -22.1698   21.1363 H   0  0  0  0  0  0
  -21.9062  -20.9748   21.9539 H   0  0  0  0  0  0
  -21.2034  -20.6078   20.3813 H   0  0  0  0  0  0
  -33.7987  -19.1599   19.1607 H   0  0  0  0  0  0
  -32.4477  -19.5916   20.1994 H   0  0  0  0  0  0
  -32.4556  -20.1017   18.5163 H   0  0  0  0  0  0
  -33.4554  -17.4511   17.2459 H   0  0  0  0  0  0
  -32.0612  -18.3417   16.6346 H   0  0  0  0  0  0
  -31.9101  -16.6389   17.0692 H   0  0  0  0  0  0
  -30.1340  -21.4310   19.6995 H   0  0  0  0  0  0
  -29.8646  -21.9127   21.3299 H   0  0  0  0  0  0
  -24.8057  -21.3602   22.0743 H   0  0  0  0  0  0
  -24.0992  -19.7734   21.9477 H   0  0  0  0  0  0
  -28.1107  -23.0492   18.9759 H   0  0  0  0  0  0
  -29.6607  -23.6569   19.3348 H   0  0  0  0  0  0
  -23.6338  -20.0311   19.5800 H   0  0  0  0  0  0
  -24.7697  -21.3378   19.4354 H   0  0  0  0  0  0
  -30.1651  -19.0623   18.6299 H   0  0  0  0  0  0
  -29.9673  -17.3936   18.2592 H   0  0  0  0  0  0
  -28.6391  -24.6320   21.5834 H   0  0  0  0  0  0
  -27.1248  -24.4589   20.8056 H   0  0  0  0  0  0
  -30.6724  -18.0736   21.1056 H   0  0  0  0  0  0
  -23.3049  -22.7695   20.9167 H   0  0  0  0  0  0
  -32.3922  -17.2061   19.4478 H   0  0  0  0  0  0
  -28.7849  -15.9248   20.7329 H   0  0  0  0  0  0
  1 25  1  0  0  0
  1 30  2  0  0  0
  1 90  1  0  0  0
  2  3  1  0  0  0
  2 25  1  0  0  0
  2 91  1  0  0  0
  2 92  1  0  0  0
  3  4  1  0  0  0
  3 93  1  0  0  0
  3 94  1  0  0  0
  4  5  1  0  0  0
  4 95  1  0  0  0
  4 96  1  0  0  0
  5  6  1  0  0  0
  5 26  1  0  0  0
  5 97  1  0  0  0
  6 25  1  0  0  0
  6 98  1  0  0  0
  6 99  1  0  0  0
  7  8  2  0  0  0
  7 26  1  0  0  0
  7 29  1  0  0  0
  8  9  1  0  0  0
  8 22  1  0  0  0
  9 10  1  0  0  0
  9 27  2  0  0  0
 10 11  2  0  0  0
 10 15  1  0  0  0
 11 12  1  0  0  0
 11100  1  0  0  0
 12 13  2  0  0  0
 12101  1  0  0  0
 13 14  1  0  0  0
 13 31  1  0  0  0
 14 15  2  0  0  0
 14102  1  0  0  0
 15103  1  0  0  0
 16 17  2  0  0  0
 16 21  1  0  0  0
 16 31  1  0  0  0
 17 18  1  0  0  0
 17104  1  0  0  0
 18 19  2  0  0  0
 18105  1  0  0  0
 19 20  1  0  0  0
 19 24  1  0  0  0
 20 21  2  0  0  0
 20106  1  0  0  0
 21 23  1  0  0  0
 22 28  1  0  0  0
 22 32  2  0  0  0
 26 27  1  0  0  0
 28107  1  0  0  0
 28108  1  0  0  0
 29109  1  0  0  0
 29110  1  0  0  0
 33 34  1  0  0  0
 33 66  1  0  0  0
 33 70  2  0  0  0
 34 36  1  0  0  0
 34 59  1  0  0  0
 34111  1  0  0  0
 35 44  2  0  0  0
 35 45  1  0  0  0
 35 68  1  0  0  0
 36 56  1  0  0  0
 36112  1  0  0  0
 37 39  1  0  0  0
 37 47  1  0  0  0
 37 66  1  0  0  0
 37113  1  0  0  0
 38 43  2  0  0  0
 38 46  1  0  0  0
 38 47  1  0  0  0
 39 64  1  0  0  0
 39 67  2  0  0  0
 40 52  1  0  0  0
 40 53  2  0  0  0
 40 58  1  0  0  0
 41114  1  0  0  0
 41115  1  0  0  0
 41116  1  0  0  0
 41 48  1  0  0  0
 42 43  1  0  0  0
 42 66  1  0  0  0
 42117  1  0  0  0
 42118  1  0  0  0
 43 44  1  0  0  0
 44119  1  0  0  0
 45 46  2  0  0  0
 45120  1  0  0  0
 46121  1  0  0  0
 47122  1  0  0  0
 47123  1  0  0  0
 48 56  1  0  0  0
 48 65  1  0  0  0
 48124  1  0  0  0
 49 50  1  0  0  0
 49 53  1  0  0  0
 49 64  1  0  0  0
 49125  1  0  0  0
 50 51  1  0  0  0
 50126  1  0  0  0
 50127  1  0  0  0
 51 52  1  0  0  0
 51128  1  0  0  0
 51129  1  0  0  0
 52130  1  0  0  0
 52131  1  0  0  0
 53 54  1  0  0  0
 54 55  2  0  0  0
 54132  1  0  0  0
 55 57  1  0  0  0
 55133  1  0  0  0
 56 69  2  0  0  0
 57 58  2  0  0  0
 57134  1  0  0  0
 58135  1  0  0  0
 59 60  1  0  0  0
 59 61  1  0  0  0
 59 62  1  0  0  0
 60136  1  0  0  0
 60137  1  0  0  0
 60138  1  0  0  0
 61139  1  0  0  0
 61140  1  0  0  0
 61141  1  0  0  0
 62142  1  0  0  0
 62143  1  0  0  0
 62144  1  0  0  0
 63 65  1  0  0  0
 63145  1  0  0  0
 63146  1  0  0  0
 63147  1  0  0  0
 64148  1  0  0  0
 65149  1  0  0  0
 68 85  1  0  0  0
 71 73  2  0  0  0
 71 75  1  0  0  0
 71150  1  0  0  0
 72 74  2  0  0  0
 72 89  1  0  0  0
 72151  1  0  0  0
 73 74  1  0  0  0
 73 80  1  0  0  0
 74 86  1  0  0  0
 75 81  1  0  0  0
 75 89  2  0  0  0
 76152  1  0  0  0
 76153  1  0  0  0
 76154  1  0  0  0
 76 87  1  0  0  0
 77 87  1  0  0  0
 77155  1  0  0  0
 77156  1  0  0  0
 77157  1  0  0  0
 78158  1  0  0  0
 78159  1  0  0  0
 78160  1  0  0  0
 78 88  1  0  0  0
 79 88  1  0  0  0
 79161  1  0  0  0
 79162  1  0  0  0
 79163  1  0  0  0
 80 82  1  0  0  0
 80164  1  0  0  0
 80165  1  0  0  0
 81 83  1  0  0  0
 81166  1  0  0  0
 81167  1  0  0  0
 82 85  1  0  0  0
 82168  1  0  0  0
 82169  1  0  0  0
 83 87  1  0  0  0
 83170  1  0  0  0
 83171  1  0  0  0
 84 88  1  0  0  0
 84172  1  0  0  0
 84173  1  0  0  0
 84 86  1  0  0  0
 85174  1  0  0  0
 85175  1  0  0  0
 86 90  1  0  0  0
 86176  1  0  0  0
 87177  1  0  0  0
 88178  1  0  0  0
 90179  1  0  0  0
M  ISO  4   1 100  68 101  85 101  90 100
M  END
> <chiral flag>
0

> <version>
0

> <s_m_source_file>
/data/baiqing/PycharmProjects/Reinvent-master-3.2/result/LINK_invent/BTK/process_docking_weight1_custom_sum_contain_oxygen_bond_distance_aromatic_linkinvent_7_9_3/rearranged_h_0091.sdf

> <i_m_source_file_index>
38

> <r_mmod_Potential_Energy-OPLS-2005>
605.7568359375

> <r_mmod_Stretch_Energy-OPLS-2005>
328.990325927734

> <r_mmod_Bend_Energy-OPLS-2005>
367.424957275391

> <r_mmod_Torsional_Energy-OPLS-2005>
244.859252929688

> <r_mmod_Improper_Torsional_Energy-OPLS-2005>
4.56709957122803

> <r_mmod_Van_der_Waal_Energy-OPLS-2005>
121.321105957031

> <r_mmod_Electrostatic_Energy-OPLS-2005>
-469.202117919922

> <r_mmod_Solvation_Energy-OPLS-2005>
-202.492340087891

> <b_mmod_Minimization_Converged-OPLS-2005>
0

> <r_mmod_RMS_Derivative-OPLS-2005>
2.94356560707092

$$$$
39
                    3D
 Structure written by MMmdl.
180188  0  0  1  0            999 V2000
  -30.6278  -14.7198   20.4486 C   0  0  0  0  0  0
  -30.4229  -12.4347   19.4815 C   0  0  0  0  0  0
  -29.5039  -12.5025   18.2427 C   0  0  0  0  0  0
  -28.0448  -12.2874   18.6789 C   0  0  0  0  0  0
  -27.6433  -13.2185   19.8510 C   0  0  2  0  0  0
  -28.6829  -13.1722   20.9943 C   0  0  0  0  0  0
  -25.2528  -13.8175   20.5642 C   0  0  0  0  0  0
  -24.1803  -13.0431   20.9169 C   0  0  0  0  0  0
  -24.6383  -11.6906   20.8768 C   0  0  0  0  0  0
  -23.9062  -10.4277   21.0450 C   0  0  0  0  0  0
  -24.3617   -9.4182   21.9219 C   0  0  0  0  0  0
  -23.6273   -8.2230   22.0795 C   0  0  0  0  0  0
  -22.4259   -8.0273   21.3566 C   0  0  0  0  0  0
  -21.9896   -9.0256   20.4667 C   0  0  0  0  0  0
  -22.7245  -10.2130   20.3071 C   0  0  0  0  0  0
  -21.6838   -6.0709   22.5276 C   0  0  0  0  0  0
  -21.4015   -6.5633   23.8201 C   0  0  0  0  0  0
  -21.3652   -5.6802   24.9179 C   0  0  0  0  0  0
  -21.6036   -4.3055   24.7242 C   0  0  0  0  0  0
  -21.8818   -3.8133   23.4365 C   0  0  0  0  0  0
  -21.9186   -4.6937   22.3412 C   0  0  0  0  0  0
  -22.7817  -13.5219   21.1804 C   0  0  0  0  0  0
  -22.1649   -4.2108   21.0994 F   0  0  0  0  0  0
  -21.5631   -3.4559   25.7763 F   0  0  0  0  0  0
  -29.9905  -13.5033   20.4143 N   0  0  0  0  0  0
  -26.2938  -12.9346   20.3269 N   0  0  0  0  0  0
  -25.9307  -11.6508   20.5794 N   0  0  0  0  0  0
  -22.0466  -12.8238   22.0395 N   0  0  0  0  0  0
  -25.4276  -15.1883   20.4015 N   0  0  0  0  0  0
  -31.8047  -14.7978   20.0883 O   0  0  0  0  0  0
  -21.6634   -6.8862   21.4240 O   0  0  0  0  0  0
  -22.3514  -14.5528   20.6634 O   0  0  0  0  0  0
  -24.6281  -31.8612   23.2050 C   0  0  0  0  0  0
  -25.9099  -32.4818   23.8417 C   0  0  1  0  0  0
  -27.2269  -27.2844   20.1433 C   0  0  0  0  0  0
  -25.5896  -33.8611   24.2363 N   0  0  0  0  0  0
  -23.4288  -30.4786   21.5483 C   0  0  2  0  0  0
  -24.8772  -28.9282   20.1208 C   0  0  0  0  0  0
  -22.7498  -29.4612   22.4936 C   0  0  0  0  0  0
  -18.0317  -28.1359   22.8491 C   0  0  0  0  0  0
  -24.1479  -36.7345   23.2633 C   0  0  0  0  0  0
  -25.9717  -30.7848   21.3831 C   0  0  0  0  0  0
  -26.0473  -29.4056   20.7273 C   0  0  0  0  0  0
  -27.2289  -28.5994   20.7176 C   0  0  0  0  0  0
  -26.0374  -26.8688   19.5106 C   0  0  0  0  0  0
  -24.8774  -27.6692   19.4980 C   0  0  0  0  0  0
  -23.6468  -29.8118   20.1652 C   0  0  0  0  0  0
  -25.4111  -36.3124   24.0321 C   0  0  1  0  0  0
  -20.5907  -28.3699   23.1245 C   0  0  2  0  0  0
  -20.6782  -26.9419   22.5359 C   0  0  0  0  0  0
  -19.5748  -26.6374   21.5167 C   0  0  0  0  0  0
  -18.1951  -26.7912   22.1583 C   0  0  0  0  0  0
  -19.1552  -28.8834   23.2870 C   0  0  0  0  0  0
  -18.9462  -30.1417   23.8900 C   0  0  0  0  0  0
  -17.6457  -30.6552   24.0524 C   0  0  0  0  0  0
  -25.9031  -34.9478   23.5131 C   0  0  0  0  0  0
  -16.5353  -29.9052   23.6298 C   0  0  0  0  0  0
  -16.7291  -28.6456   23.0358 C   0  0  0  0  0  0
  -26.4461  -31.6658   25.0815 C   0  0  0  0  0  0
  -25.3667  -31.3692   26.1505 C   0  0  0  0  0  0
  -27.0410  -30.3134   24.6299 C   0  0  0  0  0  0
  -27.6070  -32.4393   25.7552 C   0  0  0  0  0  0
  -27.5618  -37.1815   24.8439 C   0  0  0  0  0  0
  -21.4201  -29.3060   22.3655 N   0  0  0  0  0  0
  -26.4331  -37.3804   23.9373 N   0  0  0  0  0  0
  -24.6967  -31.0556   22.1022 N   0  0  0  0  0  0
  -23.4186  -28.8162   23.3051 O   0  0  0  0  0  0
  -28.3338  -26.4147   20.1567 O   0  0  0  0  0  0
  -26.5620  -34.8905   22.4715 O   0  0  0  0  0  0
  -23.5426  -32.1430   23.7322 O   0  0  0  0  0  0
  -29.6088  -21.4527   18.1521 C   0  0  0  0  0  0
  -31.7300  -20.3051   18.0393 C   0  0  0  0  0  0
  -30.6787  -20.9691   17.3816 C   0  0  0  0  0  0
  -29.4911  -21.1401   19.5244 C   0  0  0  0  0  0
  -31.5651  -19.8865   19.3789 C   0  0  0  0  0  0
  -30.2794  -19.9967   19.9842 C   0  0  0  0  0  0
  -29.9077  -20.2883   13.6272 C   0  0  0  0  0  0
  -35.0613  -20.3635   19.7958 C   0  0  0  0  0  0
  -33.2394  -21.8173   20.7020 C   0  0  0  0  0  0
  -34.2002  -19.9954   22.1187 C   0  0  0  0  0  0
  -30.7164  -21.2267   15.8859 C   0  0  0  0  0  0
  -28.7187  -22.2346   20.3723 C   0  0  0  0  0  0
  -32.7694  -19.3242   20.1436 C   0  0  0  0  0  0
  -29.7544  -18.6832   20.7328 C   0  0  0  0  0  0
  -30.0638  -20.0523   15.1331 C   0  0  0  0  0  0
  -28.8917  -23.7847   19.8938 C   0  0  0  0  0  0
  -30.2318  -17.2579   20.0880 C   0  0  0  0  0  0
  -28.1437  -25.0031   20.6249 C   0  0  0  0  0  0
  -33.7967  -20.3772   20.6760 C   0  0  0  0  0  0
  -29.8852  -15.8768   20.6445 N   0  0  0  0  0  0
  -31.4687  -12.5254   19.1846 H   0  0  0  0  0  0
  -30.3377  -11.4591   19.9624 H   0  0  0  0  0  0
  -29.7925  -11.7487   17.5074 H   0  0  0  0  0  0
  -29.6034  -13.4713   17.7493 H   0  0  0  0  0  0
  -27.9602  -11.2481   19.0009 H   0  0  0  0  0  0
  -27.3614  -12.3972   17.8377 H   0  0  0  0  0  0
  -27.6394  -14.2304   19.4458 H   0  0  0  0  0  0
  -28.7114  -12.1825   21.4536 H   0  0  0  0  0  0
  -28.4169  -13.8725   21.7882 H   0  0  0  0  0  0
  -25.2756   -9.5629   22.4797 H   0  0  0  0  0  0
  -23.9942   -7.4622   22.7537 H   0  0  0  0  0  0
  -21.0813   -8.8782   19.8985 H   0  0  0  0  0  0
  -22.3715  -10.9663   19.6172 H   0  0  0  0  0  0
  -21.2024   -7.6149   23.9680 H   0  0  0  0  0  0
  -21.1472   -6.0555   25.9072 H   0  0  0  0  0  0
  -22.0606   -2.7587   23.2899 H   0  0  0  0  0  0
  -22.4073  -11.9881   22.4757 H   0  0  0  0  0  0
  -21.1082  -13.1282   22.2603 H   0  0  0  0  0  0
  -24.6655  -15.8499   20.4960 H   0  0  0  0  0  0
  -26.2826  -15.6144   20.0692 H   0  0  0  0  0  0
  -26.7183  -32.5505   23.1193 H   0  0  0  0  0  0
  -24.9920  -33.9761   25.0417 H   0  0  0  0  0  0
  -22.7251  -31.3003   21.4030 H   0  0  0  0  0  0
  -23.3753  -35.9677   23.3275 H   0  0  0  0  0  0
  -24.3548  -36.9044   22.2063 H   0  0  0  0  0  0
  -23.7248  -37.6523   23.6699 H   0  0  0  0  0  0
  -26.1020  -31.5429   20.6088 H   0  0  0  0  0  0
  -26.8482  -30.8464   22.0168 H   0  0  0  0  0  0
  -28.1332  -28.9641   21.1835 H   0  0  0  0  0  0
  -26.0038  -25.9046   19.0242 H   0  0  0  0  0  0
  -23.9785  -27.3014   19.0240 H   0  0  0  0  0  0
  -23.7682  -30.5839   19.4024 H   0  0  0  0  0  0
  -22.7664  -29.2404   19.8685 H   0  0  0  0  0  0
  -25.1312  -36.2024   25.0831 H   0  0  0  0  0  0
  -21.0023  -28.3282   24.1348 H   0  0  0  0  0  0
  -20.5671  -26.2309   23.3571 H   0  0  0  0  0  0
  -21.6667  -26.7417   22.1182 H   0  0  0  0  0  0
  -19.6879  -25.6292   21.1221 H   0  0  0  0  0  0
  -19.6687  -27.3111   20.6664 H   0  0  0  0  0  0
  -17.4231  -26.6657   21.3975 H   0  0  0  0  0  0
  -18.0316  -26.0029   22.8946 H   0  0  0  0  0  0
  -19.7933  -30.7188   24.2331 H   0  0  0  0  0  0
  -17.5026  -31.6241   24.5119 H   0  0  0  0  0  0
  -15.5353  -30.2938   23.7640 H   0  0  0  0  0  0
  -15.8696  -28.0738   22.7142 H   0  0  0  0  0  0
  -24.5816  -30.7129   25.7679 H   0  0  0  0  0  0
  -24.8806  -32.2788   26.5054 H   0  0  0  0  0  0
  -25.7920  -30.8679   27.0216 H   0  0  0  0  0  0
  -26.3051  -29.6758   24.1369 H   0  0  0  0  0  0
  -27.4215  -29.7509   25.4828 H   0  0  0  0  0  0
  -27.8842  -30.4506   23.9524 H   0  0  0  0  0  0
  -27.2808  -33.3728   26.2123 H   0  0  0  0  0  0
  -28.3847  -32.6911   25.0329 H   0  0  0  0  0  0
  -28.0786  -31.8531   26.5416 H   0  0  0  0  0  0
  -28.2607  -38.0153   24.7621 H   0  0  0  0  0  0
  -28.1179  -36.2691   24.6185 H   0  0  0  0  0  0
  -27.2298  -37.1413   25.8832 H   0  0  0  0  0  0
  -20.9381  -29.8838   21.6903 H   0  0  0  0  0  0
  -26.0219  -38.2883   24.1388 H   0  0  0  0  0  0
  -28.9134  -22.1363   17.6880 H   0  0  0  0  0  0
  -32.6494  -20.0917   17.5086 H   0  0  0  0  0  0
  -29.4493  -19.4206   13.1522 H   0  0  0  0  0  0
  -30.8724  -20.4591   13.1506 H   0  0  0  0  0  0
  -29.2671  -21.1462   13.4244 H   0  0  0  0  0  0
  -35.8257  -21.0412   20.1824 H   0  0  0  0  0  0
  -34.8399  -20.6755   18.7736 H   0  0  0  0  0  0
  -35.5050  -19.3693   19.7519 H   0  0  0  0  0  0
  -33.9667  -22.5143   21.1210 H   0  0  0  0  0  0
  -32.3355  -21.8836   21.3100 H   0  0  0  0  0  0
  -32.9946  -22.1816   19.7038 H   0  0  0  0  0  0
  -34.9748  -20.6565   22.5069 H   0  0  0  0  0  0
  -34.5801  -18.9742   22.1733 H   0  0  0  0  0  0
  -33.3499  -20.0575   22.8030 H   0  0  0  0  0  0
  -31.7416  -21.3712   15.5459 H   0  0  0  0  0  0
  -30.1892  -22.1558   15.6667 H   0  0  0  0  0  0
  -29.0261  -22.1507   21.4170 H   0  0  0  0  0  0
  -27.6608  -21.9744   20.3671 H   0  0  0  0  0  0
  -33.2668  -18.5547   19.5492 H   0  0  0  0  0  0
  -32.3893  -18.7998   21.0180 H   0  0  0  0  0  0
  -28.6638  -18.7140   20.7175 H   0  0  0  0  0  0
  -30.0318  -18.7362   21.7870 H   0  0  0  0  0  0
  -30.6500  -19.1473   15.3004 H   0  0  0  0  0  0
  -29.0741  -19.8541   15.5523 H   0  0  0  0  0  0
  -28.5823  -23.8614   18.8521 H   0  0  0  0  0  0
  -29.9584  -24.0138   19.8895 H   0  0  0  0  0  0
  -31.3110  -17.2563   19.9943 H   0  0  0  0  0  0
  -29.8791  -17.2497   19.0553 H   0  0  0  0  0  0
  -28.4742  -24.9988   21.6650 H   0  0  0  0  0  0
  -27.0848  -24.7536   20.6730 H   0  0  0  0  0  0
  -28.9409  -15.7457   20.9768 H   0  0  0  0  0  0
  1 25  1  0  0  0
  1 30  2  0  0  0
  1 90  1  0  0  0
  2  3  1  0  0  0
  2 25  1  0  0  0
  2 91  1  0  0  0
  2 92  1  0  0  0
  3  4  1  0  0  0
  3 93  1  0  0  0
  3 94  1  0  0  0
  4  5  1  0  0  0
  4 95  1  0  0  0
  4 96  1  0  0  0
  5  6  1  0  0  0
  5 26  1  0  0  0
  5 97  1  0  0  0
  6 25  1  0  0  0
  6 98  1  0  0  0
  6 99  1  0  0  0
  7  8  2  0  0  0
  7 26  1  0  0  0
  7 29  1  0  0  0
  8  9  1  0  0  0
  8 22  1  0  0  0
  9 10  1  0  0  0
  9 27  2  0  0  0
 10 11  2  0  0  0
 10 15  1  0  0  0
 11 12  1  0  0  0
 11100  1  0  0  0
 12 13  2  0  0  0
 12101  1  0  0  0
 13 14  1  0  0  0
 13 31  1  0  0  0
 14 15  2  0  0  0
 14102  1  0  0  0
 15103  1  0  0  0
 16 17  2  0  0  0
 16 21  1  0  0  0
 16 31  1  0  0  0
 17 18  1  0  0  0
 17104  1  0  0  0
 18 19  2  0  0  0
 18105  1  0  0  0
 19 20  1  0  0  0
 19 24  1  0  0  0
 20 21  2  0  0  0
 20106  1  0  0  0
 21 23  1  0  0  0
 22 28  1  0  0  0
 22 32  2  0  0  0
 26 27  1  0  0  0
 28107  1  0  0  0
 28108  1  0  0  0
 29109  1  0  0  0
 29110  1  0  0  0
 33 34  1  0  0  0
 33 66  1  0  0  0
 33 70  2  0  0  0
 34 36  1  0  0  0
 34 59  1  0  0  0
 34111  1  0  0  0
 35 44  2  0  0  0
 35 45  1  0  0  0
 35 68  1  0  0  0
 36 56  1  0  0  0
 36112  1  0  0  0
 37 39  1  0  0  0
 37 47  1  0  0  0
 37 66  1  0  0  0
 37113  1  0  0  0
 38 43  2  0  0  0
 38 46  1  0  0  0
 38 47  1  0  0  0
 39 64  1  0  0  0
 39 67  2  0  0  0
 40 52  1  0  0  0
 40 53  2  0  0  0
 40 58  1  0  0  0
 41114  1  0  0  0
 41115  1  0  0  0
 41116  1  0  0  0
 41 48  1  0  0  0
 42 43  1  0  0  0
 42 66  1  0  0  0
 42117  1  0  0  0
 42118  1  0  0  0
 43 44  1  0  0  0
 44119  1  0  0  0
 45 46  2  0  0  0
 45120  1  0  0  0
 46121  1  0  0  0
 47122  1  0  0  0
 47123  1  0  0  0
 48 56  1  0  0  0
 48 65  1  0  0  0
 48124  1  0  0  0
 49 50  1  0  0  0
 49 53  1  0  0  0
 49 64  1  0  0  0
 49125  1  0  0  0
 50 51  1  0  0  0
 50126  1  0  0  0
 50127  1  0  0  0
 51 52  1  0  0  0
 51128  1  0  0  0
 51129  1  0  0  0
 52130  1  0  0  0
 52131  1  0  0  0
 53 54  1  0  0  0
 54 55  2  0  0  0
 54132  1  0  0  0
 55 57  1  0  0  0
 55133  1  0  0  0
 56 69  2  0  0  0
 57 58  2  0  0  0
 57134  1  0  0  0
 58135  1  0  0  0
 59 60  1  0  0  0
 59 61  1  0  0  0
 59 62  1  0  0  0
 60136  1  0  0  0
 60137  1  0  0  0
 60138  1  0  0  0
 61139  1  0  0  0
 61140  1  0  0  0
 61141  1  0  0  0
 62142  1  0  0  0
 62143  1  0  0  0
 62144  1  0  0  0
 63 65  1  0  0  0
 63145  1  0  0  0
 63146  1  0  0  0
 63147  1  0  0  0
 64148  1  0  0  0
 65149  1  0  0  0
 68 88  1  0  0  0
 71 73  2  0  0  0
 71 74  1  0  0  0
 71150  1  0  0  0
 72 73  1  0  0  0
 72 75  2  0  0  0
 72151  1  0  0  0
 73 81  1  0  0  0
 74 76  2  0  0  0
 74 82  1  0  0  0
 75 76  1  0  0  0
 75 83  1  0  0  0
 76 84  1  0  0  0
 77 85  1  0  0  0
 77152  1  0  0  0
 77153  1  0  0  0
 77154  1  0  0  0
 78155  1  0  0  0
 78156  1  0  0  0
 78157  1  0  0  0
 78 89  1  0  0  0
 79 89  1  0  0  0
 79158  1  0  0  0
 79159  1  0  0  0
 79160  1  0  0  0
 80 89  1  0  0  0
 80161  1  0  0  0
 80162  1  0  0  0
 80163  1  0  0  0
 81 85  1  0  0  0
 81164  1  0  0  0
 81165  1  0  0  0
 82 86  1  0  0  0
 82166  1  0  0  0
 82167  1  0  0  0
 83 89  1  0  0  0
 83168  1  0  0  0
 83169  1  0  0  0
 84 87  1  0  0  0
 84170  1  0  0  0
 84171  1  0  0  0
 85172  1  0  0  0
 85173  1  0  0  0
 86 88  1  0  0  0
 86174  1  0  0  0
 86175  1  0  0  0
 87 90  1  0  0  0
 87176  1  0  0  0
 87177  1  0  0  0
 88178  1  0  0  0
 88179  1  0  0  0
 90180  1  0  0  0
M  ISO  4   1 100  68 101  88 101  90 100
M  END
> <chiral flag>
0

> <version>
0

> <s_m_source_file>
/data/baiqing/PycharmProjects/Reinvent-master-3.2/result/LINK_invent/BTK/process_docking_weight1_custom_sum_contain_oxygen_bond_distance_aromatic_linkinvent_7_9_3/rearranged_h_0091.sdf

> <i_m_source_file_index>
39

> <r_mmod_Potential_Energy-OPLS-2005>
322.355346679688

> <r_mmod_Stretch_Energy-OPLS-2005>
128.415390014648

> <r_mmod_Bend_Energy-OPLS-2005>
178.510162353516

> <r_mmod_Torsional_Energy-OPLS-2005>
375.038299560547

> <r_mmod_Improper_Torsional_Energy-OPLS-2005>
11.260910987854

> <r_mmod_Van_der_Waal_Energy-OPLS-2005>
149.096923828125

> <r_mmod_Electrostatic_Energy-OPLS-2005>
-399.913635253906

> <r_mmod_Solvation_Energy-OPLS-2005>
-193.662185668945

> <b_mmod_Minimization_Converged-OPLS-2005>
0

> <r_mmod_RMS_Derivative-OPLS-2005>
5.3008975982666

$$$$
40
                    3D
 Structure written by MMmdl.
173181  0  0  1  0            999 V2000
  -30.6430  -14.7419   20.4088 C   0  0  0  0  0  0
  -30.4240  -12.4383   19.4714 C   0  0  0  0  0  0
  -29.5095  -12.5027   18.2298 C   0  0  0  0  0  0
  -28.0333  -12.3466   18.6403 C   0  0  0  0  0  0
  -27.6404  -13.2445   19.8445 C   0  0  2  0  0  0
  -28.6914  -13.1878   20.9744 C   0  0  0  0  0  0
  -25.2491  -13.8232   20.5693 C   0  0  0  0  0  0
  -24.1815  -13.0450   20.9218 C   0  0  0  0  0  0
  -24.6437  -11.6920   20.8765 C   0  0  0  0  0  0
  -23.9120  -10.4282   21.0416 C   0  0  0  0  0  0
  -24.3655   -9.4188   21.9202 C   0  0  0  0  0  0
  -23.6308   -8.2241   22.0752 C   0  0  0  0  0  0
  -22.4298   -8.0297   21.3540 C   0  0  0  0  0  0
  -21.9938   -9.0267   20.4646 C   0  0  0  0  0  0
  -22.7275  -10.2132   20.3065 C   0  0  0  0  0  0
  -21.6853   -6.0756   22.5295 C   0  0  0  0  0  0
  -21.4014   -6.5655   23.8232 C   0  0  0  0  0  0
  -21.3658   -5.6799   24.9189 C   0  0  0  0  0  0
  -21.6034   -4.3061   24.7238 C   0  0  0  0  0  0
  -21.8824   -3.8162   23.4361 C   0  0  0  0  0  0
  -21.9186   -4.6980   22.3410 C   0  0  0  0  0  0
  -22.7826  -13.5198   21.1904 C   0  0  0  0  0  0
  -22.1648   -4.2176   21.0978 F   0  0  0  0  0  0
  -21.5630   -3.4527   25.7743 F   0  0  0  0  0  0
  -29.9945  -13.5222   20.3866 N   0  0  0  0  0  0
  -26.2940  -12.9464   20.3261 N   0  0  0  0  0  0
  -25.9375  -11.6600   20.5760 N   0  0  0  0  0  0
  -22.0452  -12.8176   22.0432 N   0  0  0  0  0  0
  -25.4190  -15.1969   20.4134 N   0  0  0  0  0  0
  -31.8450  -14.7693   20.1296 O   0  0  0  0  0  0
  -21.6645   -6.8899   21.4260 O   0  0  0  0  0  0
  -22.3496  -14.5498   20.6736 O   0  0  0  0  0  0
  -24.6303  -31.8559   23.1982 C   0  0  0  0  0  0
  -25.9115  -32.4763   23.8311 C   0  0  1  0  0  0
  -27.2217  -27.3020   20.1306 C   0  0  0  0  0  0
  -25.5915  -33.8569   24.2236 N   0  0  0  0  0  0
  -23.4229  -30.4772   21.5450 C   0  0  2  0  0  0
  -24.8678  -28.9237   20.1164 C   0  0  0  0  0  0
  -22.7471  -29.4597   22.4956 C   0  0  0  0  0  0
  -18.0286  -28.1384   22.8496 C   0  0  0  0  0  0
  -24.1490  -36.7277   23.2636 C   0  0  0  0  0  0
  -25.9628  -30.7869   21.3651 C   0  0  0  0  0  0
  -26.0362  -29.4084   20.7170 C   0  0  0  0  0  0
  -27.2191  -28.6098   20.7125 C   0  0  0  0  0  0
  -26.0342  -26.8605   19.5187 C   0  0  0  0  0  0
  -24.8688  -27.6549   19.5084 C   0  0  0  0  0  0
  -23.6350  -29.8051   20.1624 C   0  0  0  0  0  0
  -25.4116  -36.3081   24.0317 C   0  0  1  0  0  0
  -20.5904  -28.3650   23.1315 C   0  0  2  0  0  0
  -20.6796  -26.9372   22.5442 C   0  0  0  0  0  0
  -19.5761  -26.6397   21.5249 C   0  0  0  0  0  0
  -18.1932  -26.7931   22.1634 C   0  0  0  0  0  0
  -19.1552  -28.8824   23.2917 C   0  0  0  0  0  0
  -18.9467  -30.1434   23.8914 C   0  0  0  0  0  0
  -17.6472  -30.6575   24.0563 C   0  0  0  0  0  0
  -25.9052  -34.9444   23.5077 C   0  0  0  0  0  0
  -16.5347  -29.9083   23.6355 C   0  0  0  0  0  0
  -16.7286  -28.6520   23.0338 C   0  0  0  0  0  0
  -26.4497  -31.6561   25.0677 C   0  0  0  0  0  0
  -25.3743  -31.3687   26.1411 C   0  0  0  0  0  0
  -27.0321  -30.2997   24.6096 C   0  0  0  0  0  0
  -27.6059  -32.4301   25.7454 C   0  0  0  0  0  0
  -27.5564  -37.1794   24.8461 C   0  0  0  0  0  0
  -21.4184  -29.3014   22.3690 N   0  0  0  0  0  0
  -26.4282  -37.3790   23.9402 N   0  0  0  0  0  0
  -24.6912  -31.0565   22.0923 N   0  0  0  0  0  0
  -23.4180  -28.8148   23.3045 O   0  0  0  0  0  0
  -28.3492  -26.4765   20.0702 O   0  0  0  0  0  0
  -26.5641  -34.8942   22.4654 O   0  0  0  0  0  0
  -23.5474  -32.1310   23.7331 O   0  0  0  0  0  0
  -29.2518  -18.4039   20.3571 C   0  0  0  0  0  0
  -29.4665  -19.7422   19.8385 C   0  0  0  0  0  0
  -30.6520  -19.9129   19.0825 C   0  0  0  0  0  0
  -31.6076  -18.8646   19.0592 C   0  0  0  0  0  0
  -30.1934  -17.3162   20.1694 C   0  0  0  0  0  0
  -30.8763  -21.1840   18.2597 C   0  0  0  0  0  0
  -34.5362  -22.3783   22.0141 C   0  0  0  0  0  0
  -34.1893  -23.1999   19.6742 C   0  0  0  0  0  0
  -28.4168  -20.9355   19.9341 C   0  0  0  0  0  0
  -32.9882  -19.0061   18.4025 C   0  0  0  0  0  0
  -28.8175  -22.3953   20.5139 C   0  0  0  0  0  0
  -33.8574  -20.2323   18.7917 C   0  0  0  0  0  0
  -28.2008  -23.7469   19.8741 C   0  0  0  0  0  0
  -33.7656  -20.7302   20.2487 C   0  0  0  0  0  0
  -28.3377  -25.1265   20.6932 C   0  0  0  0  0  0
  -34.6115  -21.9918   20.5291 C   0  0  0  0  0  0
  -31.3669  -17.6378   19.5741 N   0  0  0  0  0  0
  -29.8955  -15.9084   20.5571 N   0  0  0  0  0  0
  -31.4715  -12.5240   19.1762 H   0  0  0  0  0  0
  -30.3337  -11.4636   19.9528 H   0  0  0  0  0  0
  -29.7801  -11.7241   17.5137 H   0  0  0  0  0  0
  -29.6536  -13.4549   17.7146 H   0  0  0  0  0  0
  -27.8760  -11.2976   18.8932 H   0  0  0  0  0  0
  -27.3836  -12.5567   17.7891 H   0  0  0  0  0  0
  -27.6260  -14.2658   19.4647 H   0  0  0  0  0  0
  -28.7177  -12.1912   21.4187 H   0  0  0  0  0  0
  -28.4433  -13.8793   21.7805 H   0  0  0  0  0  0
  -25.2808   -9.5645   22.4778 H   0  0  0  0  0  0
  -24.0009   -7.4626   22.7467 H   0  0  0  0  0  0
  -21.0867   -8.8774   19.8957 H   0  0  0  0  0  0
  -22.3742  -10.9665   19.6163 H   0  0  0  0  0  0
  -21.2013   -7.6158   23.9736 H   0  0  0  0  0  0
  -21.1466   -6.0532   25.9084 H   0  0  0  0  0  0
  -22.0612   -2.7624   23.2849 H   0  0  0  0  0  0
  -22.4041  -11.9841   22.4830 H   0  0  0  0  0  0
  -21.1068  -13.1214   22.2633 H   0  0  0  0  0  0
  -24.6555  -15.8546   20.5349 H   0  0  0  0  0  0
  -26.2632  -15.6299   20.0643 H   0  0  0  0  0  0
  -26.7137  -32.5434   23.1019 H   0  0  0  0  0  0
  -25.0083  -33.9716   25.0397 H   0  0  0  0  0  0
  -22.7212  -31.2989   21.3968 H   0  0  0  0  0  0
  -23.3784  -35.9580   23.3315 H   0  0  0  0  0  0
  -24.3583  -36.8915   22.2054 H   0  0  0  0  0  0
  -23.7232  -37.6467   23.6674 H   0  0  0  0  0  0
  -26.0909  -31.5454   20.5904 H   0  0  0  0  0  0
  -26.8454  -30.8437   21.9920 H   0  0  0  0  0  0
  -28.1200  -28.9893   21.1768 H   0  0  0  0  0  0
  -26.0179  -25.8911   19.0445 H   0  0  0  0  0  0
  -23.9721  -27.2764   19.0382 H   0  0  0  0  0  0
  -23.7451  -30.5757   19.3990 H   0  0  0  0  0  0
  -22.7565  -29.2335   19.8655 H   0  0  0  0  0  0
  -25.1325  -36.1905   25.0816 H   0  0  0  0  0  0
  -20.9987  -28.3195   24.1445 H   0  0  0  0  0  0
  -20.5716  -26.2236   23.3634 H   0  0  0  0  0  0
  -21.6636  -26.7440   22.1156 H   0  0  0  0  0  0
  -19.6879  -25.6336   21.1229 H   0  0  0  0  0  0
  -19.6720  -27.3242   20.6807 H   0  0  0  0  0  0
  -17.4231  -26.6691   21.4014 H   0  0  0  0  0  0
  -18.0280  -26.0091   22.9029 H   0  0  0  0  0  0
  -19.7959  -30.7236   24.2258 H   0  0  0  0  0  0
  -17.5042  -31.6251   24.5140 H   0  0  0  0  0  0
  -15.5365  -30.2960   23.7697 H   0  0  0  0  0  0
  -15.8683  -28.0868   22.7009 H   0  0  0  0  0  0
  -24.5914  -30.7048   25.7735 H   0  0  0  0  0  0
  -24.8943  -32.2858   26.4827 H   0  0  0  0  0  0
  -25.8087  -30.8851   27.0164 H   0  0  0  0  0  0
  -26.2850  -29.6779   24.1154 H   0  0  0  0  0  0
  -27.4074  -29.7238   25.4556 H   0  0  0  0  0  0
  -27.8715  -30.4331   23.9274 H   0  0  0  0  0  0
  -27.2649  -33.3612   26.1999 H   0  0  0  0  0  0
  -28.3891  -32.6827   25.0291 H   0  0  0  0  0  0
  -28.0697  -31.8437   26.5405 H   0  0  0  0  0  0
  -28.2586  -38.0084   24.7534 H   0  0  0  0  0  0
  -28.1059  -36.2624   24.6273 H   0  0  0  0  0  0
  -27.2280  -37.1436   25.8863 H   0  0  0  0  0  0
  -20.9329  -29.8715   21.6899 H   0  0  0  0  0  0
  -26.0160  -38.2860   24.1436 H   0  0  0  0  0  0
  -28.3248  -18.2009   20.8746 H   0  0  0  0  0  0
  -31.4343  -20.9651   17.3497 H   0  0  0  0  0  0
  -29.9445  -21.6252   17.9113 H   0  0  0  0  0  0
  -31.4157  -21.9411   18.8262 H   0  0  0  0  0  0
  -35.2141  -23.2033   22.2378 H   0  0  0  0  0  0
  -34.8158  -21.5451   22.6589 H   0  0  0  0  0  0
  -33.5301  -22.6963   22.2923 H   0  0  0  0  0  0
  -34.7457  -24.0900   19.9731 H   0  0  0  0  0  0
  -33.1268  -23.4196   19.7895 H   0  0  0  0  0  0
  -34.3872  -23.0450   18.6145 H   0  0  0  0  0  0
  -27.5628  -20.5652   20.4990 H   0  0  0  0  0  0
  -28.0204  -21.0763   18.9280 H   0  0  0  0  0  0
  -32.8584  -18.9952   17.3207 H   0  0  0  0  0  0
  -33.5701  -18.1117   18.6332 H   0  0  0  0  0  0
  -29.8987  -22.4998   20.4789 H   0  0  0  0  0  0
  -28.5901  -22.3960   21.5803 H   0  0  0  0  0  0
  -33.5916  -21.0467   18.1253 H   0  0  0  0  0  0
  -34.8968  -20.0134   18.5480 H   0  0  0  0  0  0
  -27.1451  -23.5767   19.6679 H   0  0  0  0  0  0
  -28.6588  -23.8867   18.8945 H   0  0  0  0  0  0
  -34.0927  -19.9251   20.9084 H   0  0  0  0  0  0
  -32.7302  -20.9390   20.5219 H   0  0  0  0  0  0
  -29.3138  -25.0727   21.1702 H   0  0  0  0  0  0
  -27.6243  -25.1341   21.5189 H   0  0  0  0  0  0
  -35.6540  -21.7609   20.2995 H   0  0  0  0  0  0
  -28.9406  -15.7482   20.8346 H   0  0  0  0  0  0
  1 25  1  0  0  0
  1 30  2  0  0  0
  1 88  1  0  0  0
  2  3  1  0  0  0
  2 25  1  0  0  0
  2 89  1  0  0  0
  2 90  1  0  0  0
  3  4  1  0  0  0
  3 91  1  0  0  0
  3 92  1  0  0  0
  4  5  1  0  0  0
  4 93  1  0  0  0
  4 94  1  0  0  0
  5  6  1  0  0  0
  5 26  1  0  0  0
  5 95  1  0  0  0
  6 25  1  0  0  0
  6 96  1  0  0  0
  6 97  1  0  0  0
  7  8  2  0  0  0
  7 26  1  0  0  0
  7 29  1  0  0  0
  8  9  1  0  0  0
  8 22  1  0  0  0
  9 10  1  0  0  0
  9 27  2  0  0  0
 10 11  2  0  0  0
 10 15  1  0  0  0
 11 12  1  0  0  0
 11 98  1  0  0  0
 12 13  2  0  0  0
 12 99  1  0  0  0
 13 14  1  0  0  0
 13 31  1  0  0  0
 14 15  2  0  0  0
 14100  1  0  0  0
 15101  1  0  0  0
 16 17  2  0  0  0
 16 21  1  0  0  0
 16 31  1  0  0  0
 17 18  1  0  0  0
 17102  1  0  0  0
 18 19  2  0  0  0
 18103  1  0  0  0
 19 20  1  0  0  0
 19 24  1  0  0  0
 20 21  2  0  0  0
 20104  1  0  0  0
 21 23  1  0  0  0
 22 28  1  0  0  0
 22 32  2  0  0  0
 26 27  1  0  0  0
 28105  1  0  0  0
 28106  1  0  0  0
 29107  1  0  0  0
 29108  1  0  0  0
 33 34  1  0  0  0
 33 66  1  0  0  0
 33 70  2  0  0  0
 34 36  1  0  0  0
 34 59  1  0  0  0
 34109  1  0  0  0
 35 44  2  0  0  0
 35 45  1  0  0  0
 35 68  1  0  0  0
 36 56  1  0  0  0
 36110  1  0  0  0
 37 39  1  0  0  0
 37 47  1  0  0  0
 37 66  1  0  0  0
 37111  1  0  0  0
 38 43  2  0  0  0
 38 46  1  0  0  0
 38 47  1  0  0  0
 39 64  1  0  0  0
 39 67  2  0  0  0
 40 52  1  0  0  0
 40 53  2  0  0  0
 40 58  1  0  0  0
 41112  1  0  0  0
 41113  1  0  0  0
 41114  1  0  0  0
 41 48  1  0  0  0
 42 43  1  0  0  0
 42 66  1  0  0  0
 42115  1  0  0  0
 42116  1  0  0  0
 43 44  1  0  0  0
 44117  1  0  0  0
 45 46  2  0  0  0
 45118  1  0  0  0
 46119  1  0  0  0
 47120  1  0  0  0
 47121  1  0  0  0
 48 56  1  0  0  0
 48 65  1  0  0  0
 48122  1  0  0  0
 49 50  1  0  0  0
 49 53  1  0  0  0
 49 64  1  0  0  0
 49123  1  0  0  0
 50 51  1  0  0  0
 50124  1  0  0  0
 50125  1  0  0  0
 51 52  1  0  0  0
 51126  1  0  0  0
 51127  1  0  0  0
 52128  1  0  0  0
 52129  1  0  0  0
 53 54  1  0  0  0
 54 55  2  0  0  0
 54130  1  0  0  0
 55 57  1  0  0  0
 55131  1  0  0  0
 56 69  2  0  0  0
 57 58  2  0  0  0
 57132  1  0  0  0
 58133  1  0  0  0
 59 60  1  0  0  0
 59 61  1  0  0  0
 59 62  1  0  0  0
 60134  1  0  0  0
 60135  1  0  0  0
 60136  1  0  0  0
 61137  1  0  0  0
 61138  1  0  0  0
 61139  1  0  0  0
 62140  1  0  0  0
 62141  1  0  0  0
 62142  1  0  0  0
 63 65  1  0  0  0
 63143  1  0  0  0
 63144  1  0  0  0
 63145  1  0  0  0
 64146  1  0  0  0
 65147  1  0  0  0
 68 85  1  0  0  0
 71 72  2  0  0  0
 71 75  1  0  0  0
 71148  1  0  0  0
 72 73  1  0  0  0
 72 79  1  0  0  0
 73 74  2  0  0  0
 73 76  1  0  0  0
 74 80  1  0  0  0
 74 87  1  0  0  0
 75 87  2  0  0  0
 75 88  1  0  0  0
 76149  1  0  0  0
 76150  1  0  0  0
 76151  1  0  0  0
 77152  1  0  0  0
 77153  1  0  0  0
 77154  1  0  0  0
 77 86  1  0  0  0
 78 86  1  0  0  0
 78155  1  0  0  0
 78156  1  0  0  0
 78157  1  0  0  0
 79 81  1  0  0  0
 79158  1  0  0  0
 79159  1  0  0  0
 80 82  1  0  0  0
 80160  1  0  0  0
 80161  1  0  0  0
 81 83  1  0  0  0
 81162  1  0  0  0
 81163  1  0  0  0
 82 84  1  0  0  0
 82164  1  0  0  0
 82165  1  0  0  0
 83 85  1  0  0  0
 83166  1  0  0  0
 83167  1  0  0  0
 84 86  1  0  0  0
 84168  1  0  0  0
 84169  1  0  0  0
 85170  1  0  0  0
 85171  1  0  0  0
 86172  1  0  0  0
 88173  1  0  0  0
M  ISO  4   1 100  68 101  85 101  88 100
M  END
> <chiral flag>
0

> <version>
0

> <s_m_source_file>
/data/baiqing/PycharmProjects/Reinvent-master-3.2/result/LINK_invent/BTK/process_docking_weight1_custom_sum_contain_oxygen_bond_distance_aromatic_linkinvent_7_9_3/rearranged_h_0091.sdf

> <i_m_source_file_index>
40

> <r_mmod_Potential_Energy-OPLS-2005>
42.9152526855469

> <r_mmod_Stretch_Energy-OPLS-2005>
114.927787780762

> <r_mmod_Bend_Energy-OPLS-2005>
176.48210144043

> <r_mmod_Torsional_Energy-OPLS-2005>
251.467971801758

> <r_mmod_Improper_Torsional_Energy-OPLS-2005>
5.06467151641846

> <r_mmod_Van_der_Waal_Energy-OPLS-2005>
140.470031738281

> <r_mmod_Electrostatic_Energy-OPLS-2005>
-488.46630859375

> <r_mmod_Solvation_Energy-OPLS-2005>
-227.73258972168

> <b_mmod_Minimization_Converged-OPLS-2005>
0

> <r_mmod_RMS_Derivative-OPLS-2005>
4.75830364227295

$$$$
41
                    3D
 Structure written by MMmdl.
182190  0  0  1  0            999 V2000
  -30.7471  -14.3964   20.5535 C   0  0  0  0  0  0
  -30.4106  -12.2562   19.4120 C   0  0  0  0  0  0
  -29.4886  -12.4886   18.1990 C   0  0  0  0  0  0
  -28.0081  -12.3758   18.6123 C   0  0  0  0  0  0
  -27.6657  -13.2073   19.8781 C   0  0  2  0  0  0
  -28.7093  -12.9782   20.9962 C   0  0  0  0  0  0
  -25.2608  -13.8164   20.5689 C   0  0  0  0  0  0
  -24.1858  -13.0443   20.9189 C   0  0  0  0  0  0
  -24.6415  -11.6907   20.8744 C   0  0  0  0  0  0
  -23.9075  -10.4298   21.0408 C   0  0  0  0  0  0
  -24.3622   -9.4210   21.9186 C   0  0  0  0  0  0
  -23.6299   -8.2245   22.0755 C   0  0  0  0  0  0
  -22.4279   -8.0284   21.3543 C   0  0  0  0  0  0
  -21.9925   -9.0252   20.4638 C   0  0  0  0  0  0
  -22.7257  -10.2132   20.3049 C   0  0  0  0  0  0
  -21.6849   -6.0736   22.5276 C   0  0  0  0  0  0
  -21.4005   -6.5637   23.8211 C   0  0  0  0  0  0
  -21.3665   -5.6790   24.9171 C   0  0  0  0  0  0
  -21.6050   -4.3056   24.7222 C   0  0  0  0  0  0
  -21.8821   -3.8149   23.4346 C   0  0  0  0  0  0
  -21.9193   -4.6965   22.3399 C   0  0  0  0  0  0
  -22.7885  -13.5241   21.1857 C   0  0  0  0  0  0
  -22.1663   -4.2149   21.0976 F   0  0  0  0  0  0
  -21.5639   -3.4545   25.7741 F   0  0  0  0  0  0
  -30.0450  -13.2424   20.4368 N   0  0  0  0  0  0
  -26.3055  -12.9343   20.3396 N   0  0  0  0  0  0
  -25.9342  -11.6498   20.5786 N   0  0  0  0  0  0
  -22.0516  -12.8189   22.0378 N   0  0  0  0  0  0
  -25.4334  -15.1876   20.4067 N   0  0  0  0  0  0
  -31.8857  -14.5417   20.1037 O   0  0  0  0  0  0
  -21.6641   -6.8879   21.4241 O   0  0  0  0  0  0
  -22.3573  -14.5562   20.6744 O   0  0  0  0  0  0
  -24.6115  -31.8703   23.2129 C   0  0  0  0  0  0
  -25.9038  -32.4840   23.8411 C   0  0  1  0  0  0
  -27.2348  -27.4741   20.0873 C   0  0  0  0  0  0
  -25.5904  -33.8639   24.2341 N   0  0  0  0  0  0
  -23.3978  -30.4938   21.5525 C   0  0  2  0  0  0
  -24.8478  -28.9719   20.1076 C   0  0  0  0  0  0
  -22.7393  -29.4665   22.5005 C   0  0  0  0  0  0
  -18.0261  -28.1375   22.8499 C   0  0  0  0  0  0
  -24.1485  -36.7297   23.2634 C   0  0  0  0  0  0
  -25.9232  -30.8499   21.3611 C   0  0  0  0  0  0
  -26.0053  -29.4895   20.7047 C   0  0  0  0  0  0
  -27.2054  -28.7460   20.6949 C   0  0  0  0  0  0
  -26.0690  -26.9710   19.4720 C   0  0  0  0  0  0
  -24.8731  -27.7107   19.4872 C   0  0  0  0  0  0
  -23.6047  -29.8293   20.1647 C   0  0  0  0  0  0
  -25.4111  -36.3114   24.0339 C   0  0  1  0  0  0
  -20.5853  -28.3658   23.1330 C   0  0  2  0  0  0
  -20.6766  -26.9396   22.5417 C   0  0  0  0  0  0
  -19.5736  -26.6386   21.5215 C   0  0  0  0  0  0
  -18.1906  -26.7926   22.1615 C   0  0  0  0  0  0
  -19.1511  -28.8833   23.2914 C   0  0  0  0  0  0
  -18.9453  -30.1436   23.8933 C   0  0  0  0  0  0
  -17.6459  -30.6591   24.0569 C   0  0  0  0  0  0
  -25.9041  -34.9483   23.5134 C   0  0  0  0  0  0
  -16.5345  -29.9102   23.6336 C   0  0  0  0  0  0
  -16.7254  -28.6510   23.0374 C   0  0  0  0  0  0
  -26.4479  -31.6604   25.0720 C   0  0  0  0  0  0
  -25.3743  -31.3688   26.1454 C   0  0  0  0  0  0
  -27.0309  -30.3064   24.6046 C   0  0  0  0  0  0
  -27.6037  -32.4316   25.7508 C   0  0  0  0  0  0
  -27.5582  -37.1810   24.8465 C   0  0  0  0  0  0
  -21.4119  -29.3031   22.3752 N   0  0  0  0  0  0
  -26.4300  -37.3798   23.9412 N   0  0  0  0  0  0
  -24.6624  -31.0834   22.1017 N   0  0  0  0  0  0
  -23.4173  -28.8200   23.3040 O   0  0  0  0  0  0
  -28.3608  -26.6921   20.1500 O   0  0  0  0  0  0
  -26.5588  -34.8919   22.4683 O   0  0  0  0  0  0
  -23.5319  -32.1440   23.7546 O   0  0  0  0  0  0
  -28.4703  -20.4535   23.3595 C   0  0  0  0  0  0
  -27.6768  -18.4652   22.2339 C   0  0  0  0  0  0
  -27.7439  -19.2454   23.4008 C   0  0  0  0  0  0
  -29.0847  -20.8338   22.1491 C   0  0  0  0  0  0
  -28.3375  -18.9110   21.0784 C   0  0  0  0  0  0
  -27.7814  -18.7634   18.6247 C   0  0  0  0  0  0
  -27.5484  -15.5329   26.8260 C   0  0  0  0  0  0
  -26.6139  -17.7594   27.5835 C   0  0  0  0  0  0
  -29.9721  -16.6667   18.3047 C   0  0  0  0  0  0
  -27.0417  -18.7736   24.6611 C   0  0  0  0  0  0
  -29.7920  -22.1720   21.9925 C   0  0  0  0  0  0
  -27.7203  -17.5396   25.2862 C   0  0  0  0  0  0
  -28.7820  -23.3249   21.8686 C   0  0  0  0  0  0
  -29.2531  -24.5436   21.0499 C   0  0  0  0  0  0
  -30.4899  -16.8391   20.8245 C   0  0  0  0  0  0
  -28.1714  -25.6314   21.0893 C   0  0  0  0  0  0
  -28.4037  -18.0352   19.8318 C   0  0  1  0  0  0
  -26.8816  -16.8437   26.3783 C   0  0  0  0  0  0
  -29.8521  -17.5292   19.5819 C   0  0  2  0  0  0
  -29.0105  -20.0812   21.0324 N   0  0  0  0  0  0
  -30.0530  -15.4498   20.9975 N   0  0  0  0  0  0
  -31.4577  -12.3245   19.1100 H   0  0  0  0  0  0
  -30.2825  -11.2453   19.8026 H   0  0  0  0  0  0
  -29.7121  -11.7648   17.4142 H   0  0  0  0  0  0
  -29.6807  -13.4725   17.7680 H   0  0  0  0  0  0
  -27.7985  -11.3216   18.7926 H   0  0  0  0  0  0
  -27.3650  -12.6753   17.7847 H   0  0  0  0  0  0
  -27.7129  -14.2579   19.5909 H   0  0  0  0  0  0
  -28.6637  -11.9475   21.3506 H   0  0  0  0  0  0
  -28.4955  -13.5974   21.8684 H   0  0  0  0  0  0
  -25.2760   -9.5679   22.4773 H   0  0  0  0  0  0
  -24.0001   -7.4630   22.7479 H   0  0  0  0  0  0
  -21.0864   -8.8773   19.8934 H   0  0  0  0  0  0
  -22.3730  -10.9669   19.6162 H   0  0  0  0  0  0
  -21.1982   -7.6141   23.9709 H   0  0  0  0  0  0
  -21.1494   -6.0520   25.9068 H   0  0  0  0  0  0
  -22.0597   -2.7611   23.2845 H   0  0  0  0  0  0
  -22.4138  -11.9820   22.4695 H   0  0  0  0  0  0
  -21.1132  -13.1201   22.2601 H   0  0  0  0  0  0
  -24.6644  -15.8404   20.5044 H   0  0  0  0  0  0
  -26.2747  -15.6134   20.0448 H   0  0  0  0  0  0
  -26.7115  -32.5576   23.1186 H   0  0  0  0  0  0
  -25.0111  -33.9813   25.0524 H   0  0  0  0  0  0
  -22.6838  -31.3080   21.4140 H   0  0  0  0  0  0
  -23.3773  -35.9604   23.3285 H   0  0  0  0  0  0
  -24.3575  -36.8932   22.2051 H   0  0  0  0  0  0
  -23.7196  -37.6477   23.6658 H   0  0  0  0  0  0
  -26.0271  -31.6213   20.5957 H   0  0  0  0  0  0
  -26.8123  -30.9038   21.9773 H   0  0  0  0  0  0
  -28.0968  -29.1321   21.1704 H   0  0  0  0  0  0
  -26.0829  -25.9979   19.0009 H   0  0  0  0  0  0
  -23.9832  -27.3071   19.0234 H   0  0  0  0  0  0
  -23.6986  -30.6049   19.4035 H   0  0  0  0  0  0
  -22.7324  -29.2398   19.8753 H   0  0  0  0  0  0
  -25.1289  -36.1985   25.0837 H   0  0  0  0  0  0
  -20.9930  -28.3225   24.1459 H   0  0  0  0  0  0
  -20.5694  -26.2261   23.3611 H   0  0  0  0  0  0
  -21.6634  -26.7463   22.1191 H   0  0  0  0  0  0
  -19.6910  -25.6300   21.1233 H   0  0  0  0  0  0
  -19.6695  -27.3219   20.6768 H   0  0  0  0  0  0
  -17.4189  -26.6709   21.4000 H   0  0  0  0  0  0
  -18.0282  -26.0042   22.8983 H   0  0  0  0  0  0
  -19.7932  -30.7231   24.2326 H   0  0  0  0  0  0
  -17.5024  -31.6287   24.5143 H   0  0  0  0  0  0
  -15.5353  -30.3031   23.7645 H   0  0  0  0  0  0
  -15.8645  -28.0841   22.7101 H   0  0  0  0  0  0
  -24.5920  -30.7048   25.7765 H   0  0  0  0  0  0
  -24.8942  -32.2844   26.4913 H   0  0  0  0  0  0
  -25.8083  -30.8829   27.0198 H   0  0  0  0  0  0
  -26.2846  -29.6840   24.1096 H   0  0  0  0  0  0
  -27.4114  -29.7270   25.4465 H   0  0  0  0  0  0
  -27.8657  -30.4407   23.9161 H   0  0  0  0  0  0
  -27.2650  -33.3627   26.2049 H   0  0  0  0  0  0
  -28.3892  -32.6846   25.0380 H   0  0  0  0  0  0
  -28.0642  -31.8455   26.5465 H   0  0  0  0  0  0
  -28.2585  -38.0123   24.7538 H   0  0  0  0  0  0
  -28.1091  -36.2646   24.6272 H   0  0  0  0  0  0
  -27.2285  -37.1446   25.8864 H   0  0  0  0  0  0
  -20.9260  -29.8765   21.6995 H   0  0  0  0  0  0
  -26.0187  -38.2879   24.1412 H   0  0  0  0  0  0
  -28.5350  -21.0899   24.2312 H   0  0  0  0  0  0
  -27.1467  -17.5222   22.2360 H   0  0  0  0  0  0
  -26.7810  -19.1246   18.8613 H   0  0  0  0  0  0
  -27.6886  -18.1094   17.7583 H   0  0  0  0  0  0
  -28.3830  -19.6248   18.3334 H   0  0  0  0  0  0
  -26.9504  -15.0235   27.5837 H   0  0  0  0  0  0
  -28.5386  -15.7094   27.2492 H   0  0  0  0  0  0
  -27.6654  -14.8417   25.9895 H   0  0  0  0  0  0
  -26.0774  -17.2298   28.3723 H   0  0  0  0  0  0
  -25.9988  -18.6159   27.3054 H   0  0  0  0  0  0
  -27.5419  -18.1396   28.0118 H   0  0  0  0  0  0
  -30.9829  -16.2745   18.1877 H   0  0  0  0  0  0
  -29.7618  -17.2427   17.4049 H   0  0  0  0  0  0
  -29.2832  -15.8215   18.3222 H   0  0  0  0  0  0
  -26.0101  -18.5363   24.3984 H   0  0  0  0  0  0
  -26.9951  -19.5904   25.3820 H   0  0  0  0  0  0
  -30.4221  -22.1334   21.1019 H   0  0  0  0  0  0
  -30.4669  -22.3404   22.8334 H   0  0  0  0  0  0
  -28.7007  -17.8205   25.6732 H   0  0  0  0  0  0
  -27.9098  -16.8107   24.4976 H   0  0  0  0  0  0
  -28.4693  -23.6286   22.8686 H   0  0  0  0  0  0
  -27.8820  -22.9405   21.3857 H   0  0  0  0  0  0
  -29.4327  -24.2381   20.0185 H   0  0  0  0  0  0
  -30.1956  -24.9334   21.4349 H   0  0  0  0  0  0
  -30.2925  -17.3816   21.7481 H   0  0  0  0  0  0
  -31.5763  -16.8880   20.7265 H   0  0  0  0  0  0
  -28.1223  -26.0528   22.0951 H   0  0  0  0  0  0
  -27.2098  -25.1439   20.9185 H   0  0  0  0  0  0
  -27.7831  -17.1589   20.0219 H   0  0  0  0  0  0
  -25.9157  -16.5778   25.9451 H   0  0  0  0  0  0
  -30.4556  -18.4207   19.4008 H   0  0  0  0  0  0
  -29.1189  -15.2812   21.3386 H   0  0  0  0  0  0
  1 25  1  0  0  0
  1 30  2  0  0  0
  1 91  1  0  0  0
  2  3  1  0  0  0
  2 25  1  0  0  0
  2 92  1  0  0  0
  2 93  1  0  0  0
  3  4  1  0  0  0
  3 94  1  0  0  0
  3 95  1  0  0  0
  4  5  1  0  0  0
  4 96  1  0  0  0
  4 97  1  0  0  0
  5  6  1  0  0  0
  5 26  1  0  0  0
  5 98  1  0  0  0
  6 25  1  0  0  0
  6 99  1  0  0  0
  6100  1  0  0  0
  7  8  2  0  0  0
  7 26  1  0  0  0
  7 29  1  0  0  0
  8  9  1  0  0  0
  8 22  1  0  0  0
  9 10  1  0  0  0
  9 27  2  0  0  0
 10 11  2  0  0  0
 10 15  1  0  0  0
 11 12  1  0  0  0
 11101  1  0  0  0
 12 13  2  0  0  0
 12102  1  0  0  0
 13 14  1  0  0  0
 13 31  1  0  0  0
 14 15  2  0  0  0
 14103  1  0  0  0
 15104  1  0  0  0
 16 17  2  0  0  0
 16 21  1  0  0  0
 16 31  1  0  0  0
 17 18  1  0  0  0
 17105  1  0  0  0
 18 19  2  0  0  0
 18106  1  0  0  0
 19 20  1  0  0  0
 19 24  1  0  0  0
 20 21  2  0  0  0
 20107  1  0  0  0
 21 23  1  0  0  0
 22 28  1  0  0  0
 22 32  2  0  0  0
 26 27  1  0  0  0
 28108  1  0  0  0
 28109  1  0  0  0
 29110  1  0  0  0
 29111  1  0  0  0
 33 34  1  0  0  0
 33 66  1  0  0  0
 33 70  2  0  0  0
 34 36  1  0  0  0
 34 59  1  0  0  0
 34112  1  0  0  0
 35 44  2  0  0  0
 35 45  1  0  0  0
 35 68  1  0  0  0
 36 56  1  0  0  0
 36113  1  0  0  0
 37 39  1  0  0  0
 37 47  1  0  0  0
 37 66  1  0  0  0
 37114  1  0  0  0
 38 43  2  0  0  0
 38 46  1  0  0  0
 38 47  1  0  0  0
 39 64  1  0  0  0
 39 67  2  0  0  0
 40 52  1  0  0  0
 40 53  2  0  0  0
 40 58  1  0  0  0
 41115  1  0  0  0
 41116  1  0  0  0
 41117  1  0  0  0
 41 48  1  0  0  0
 42 43  1  0  0  0
 42 66  1  0  0  0
 42118  1  0  0  0
 42119  1  0  0  0
 43 44  1  0  0  0
 44120  1  0  0  0
 45 46  2  0  0  0
 45121  1  0  0  0
 46122  1  0  0  0
 47123  1  0  0  0
 47124  1  0  0  0
 48 56  1  0  0  0
 48 65  1  0  0  0
 48125  1  0  0  0
 49 50  1  0  0  0
 49 53  1  0  0  0
 49 64  1  0  0  0
 49126  1  0  0  0
 50 51  1  0  0  0
 50127  1  0  0  0
 50128  1  0  0  0
 51 52  1  0  0  0
 51129  1  0  0  0
 51130  1  0  0  0
 52131  1  0  0  0
 52132  1  0  0  0
 53 54  1  0  0  0
 54 55  2  0  0  0
 54133  1  0  0  0
 55 57  1  0  0  0
 55134  1  0  0  0
 56 69  2  0  0  0
 57 58  2  0  0  0
 57135  1  0  0  0
 58136  1  0  0  0
 59 60  1  0  0  0
 59 61  1  0  0  0
 59 62  1  0  0  0
 60137  1  0  0  0
 60138  1  0  0  0
 60139  1  0  0  0
 61140  1  0  0  0
 61141  1  0  0  0
 61142  1  0  0  0
 62143  1  0  0  0
 62144  1  0  0  0
 62145  1  0  0  0
 63 65  1  0  0  0
 63146  1  0  0  0
 63147  1  0  0  0
 63148  1  0  0  0
 64149  1  0  0  0
 65150  1  0  0  0
 68 86  1  0  0  0
 71 73  2  0  0  0
 71 74  1  0  0  0
 71151  1  0  0  0
 72 73  1  0  0  0
 72 75  2  0  0  0
 72152  1  0  0  0
 73 80  1  0  0  0
 74 81  1  0  0  0
 74 90  2  0  0  0
 75 87  1  0  0  0
 75 90  1  0  0  0
 76153  1  0  0  0
 76154  1  0  0  0
 76155  1  0  0  0
 76 87  1  0  0  0
 77156  1  0  0  0
 77157  1  0  0  0
 77158  1  0  0  0
 77 88  1  0  0  0
 78 88  1  0  0  0
 78159  1  0  0  0
 78160  1  0  0  0
 78161  1  0  0  0
 79162  1  0  0  0
 79163  1  0  0  0
 79164  1  0  0  0
 79 89  1  0  0  0
 80 82  1  0  0  0
 80165  1  0  0  0
 80166  1  0  0  0
 81 83  1  0  0  0
 81167  1  0  0  0
 81168  1  0  0  0
 82 88  1  0  0  0
 82169  1  0  0  0
 82170  1  0  0  0
 83 84  1  0  0  0
 83171  1  0  0  0
 83172  1  0  0  0
 84 86  1  0  0  0
 84173  1  0  0  0
 84174  1  0  0  0
 85 89  1  0  0  0
 85 91  1  0  0  0
 85175  1  0  0  0
 85176  1  0  0  0
 86177  1  0  0  0
 86178  1  0  0  0
 87 89  1  0  0  0
 87179  1  0  0  0
 88180  1  0  0  0
 89181  1  0  0  0
 91182  1  0  0  0
M  ISO  4   1 100  68 101  86 101  91 100
M  END
> <chiral flag>
0

> <version>
0

> <s_m_source_file>
/data/baiqing/PycharmProjects/Reinvent-master-3.2/result/LINK_invent/BTK/process_docking_weight1_custom_sum_contain_oxygen_bond_distance_aromatic_linkinvent_7_9_3/rearranged_h_0091.sdf

> <i_m_source_file_index>
41

> <r_mmod_Potential_Energy-OPLS-2005>
-212.908065795898

> <r_mmod_Stretch_Energy-OPLS-2005>
33.4569664001465

> <r_mmod_Bend_Energy-OPLS-2005>
94.6381912231445

> <r_mmod_Torsional_Energy-OPLS-2005>
233.671493530273

> <r_mmod_Improper_Torsional_Energy-OPLS-2005>
5.49779558181763

> <r_mmod_Van_der_Waal_Energy-OPLS-2005>
152.336090087891

> <r_mmod_Electrostatic_Energy-OPLS-2005>
-547.570495605469

> <r_mmod_Solvation_Energy-OPLS-2005>
-198.013092041016

> <b_mmod_Minimization_Converged-OPLS-2005>
0

> <r_mmod_RMS_Derivative-OPLS-2005>
1.80733251571655

$$$$
42
                    3D
 Structure written by MMmdl.
179187  0  0  1  0            999 V2000
  -30.6782  -14.6204   20.5225 C   0  0  0  0  0  0
  -30.4401  -12.3843   19.4834 C   0  0  0  0  0  0
  -29.5214  -12.5017   18.2472 C   0  0  0  0  0  0
  -28.0519  -12.3186   18.6618 C   0  0  0  0  0  0
  -27.6549  -13.2226   19.8602 C   0  0  2  0  0  0
  -28.6930  -13.1139   21.0060 C   0  0  0  0  0  0
  -25.2556  -13.8155   20.5769 C   0  0  0  0  0  0
  -24.1798  -13.0436   20.9249 C   0  0  0  0  0  0
  -24.6345  -11.6896   20.8780 C   0  0  0  0  0  0
  -23.9005  -10.4265   21.0392 C   0  0  0  0  0  0
  -24.3555   -9.4176   21.9155 C   0  0  0  0  0  0
  -23.6255   -8.2184   22.0704 C   0  0  0  0  0  0
  -22.4256   -8.0212   21.3483 C   0  0  0  0  0  0
  -21.9880   -9.0192   20.4618 C   0  0  0  0  0  0
  -22.7183  -10.2102   20.3048 C   0  0  0  0  0  0
  -21.6850   -6.0676   22.5232 C   0  0  0  0  0  0
  -21.3989   -6.5582   23.8183 C   0  0  0  0  0  0
  -21.3710   -5.6744   24.9136 C   0  0  0  0  0  0
  -21.6087   -4.3004   24.7210 C   0  0  0  0  0  0
  -21.8833   -3.8106   23.4303 C   0  0  0  0  0  0
  -21.9191   -4.6905   22.3368 C   0  0  0  0  0  0
  -22.7829  -13.5243   21.1854 C   0  0  0  0  0  0
  -22.1680   -4.2093   21.0945 F   0  0  0  0  0  0
  -21.5651   -3.4518   25.7722 F   0  0  0  0  0  0
  -30.0198  -13.4212   20.4456 N   0  0  0  0  0  0
  -26.2979  -12.9365   20.3347 N   0  0  0  0  0  0
  -25.9297  -11.6512   20.5770 N   0  0  0  0  0  0
  -22.0446  -12.8304   22.0437 N   0  0  0  0  0  0
  -25.4255  -15.1857   20.4123 N   0  0  0  0  0  0
  -31.8295  -14.7496   20.1042 O   0  0  0  0  0  0
  -21.6634   -6.8792   21.4196 O   0  0  0  0  0  0
  -22.3529  -14.5537   20.6649 O   0  0  0  0  0  0
  -24.6203  -31.8662   23.2114 C   0  0  0  0  0  0
  -25.9108  -32.4815   23.8377 C   0  0  1  0  0  0
  -27.2257  -27.3927   20.1240 C   0  0  0  0  0  0
  -25.6015  -33.8589   24.2377 N   0  0  0  0  0  0
  -23.4020  -30.4905   21.5550 C   0  0  2  0  0  0
  -24.8464  -28.9376   20.1269 C   0  0  0  0  0  0
  -22.7438  -29.4682   22.5035 C   0  0  0  0  0  0
  -18.0258  -28.1391   22.8475 C   0  0  0  0  0  0
  -24.1458  -36.7244   23.2635 C   0  0  0  0  0  0
  -25.9316  -30.8251   21.3589 C   0  0  0  0  0  0
  -26.0096  -29.4418   20.7305 C   0  0  0  0  0  0
  -27.2077  -28.6796   20.7178 C   0  0  0  0  0  0
  -26.0485  -26.9066   19.5227 C   0  0  0  0  0  0
  -24.8644  -27.6724   19.5123 C   0  0  0  0  0  0
  -23.6121  -29.8159   20.1701 C   0  0  0  0  0  0
  -25.4086  -36.3103   24.0368 C   0  0  1  0  0  0
  -20.5856  -28.3662   23.1363 C   0  0  2  0  0  0
  -20.6779  -26.9401   22.5434 C   0  0  0  0  0  0
  -19.5791  -26.6442   21.5184 C   0  0  0  0  0  0
  -18.1935  -26.7935   22.1581 C   0  0  0  0  0  0
  -19.1497  -28.8836   23.2889 C   0  0  0  0  0  0
  -18.9434  -30.1438   23.8897 C   0  0  0  0  0  0
  -17.6453  -30.6588   24.0542 C   0  0  0  0  0  0
  -25.9051  -34.9466   23.5145 C   0  0  0  0  0  0
  -16.5341  -29.9096   23.6341 C   0  0  0  0  0  0
  -16.7252  -28.6511   23.0358 C   0  0  0  0  0  0
  -26.4565  -31.6559   25.0657 C   0  0  0  0  0  0
  -25.3895  -31.3610   26.1451 C   0  0  0  0  0  0
  -27.0390  -30.3062   24.5931 C   0  0  0  0  0  0
  -27.6211  -32.4226   25.7349 C   0  0  0  0  0  0
  -27.5567  -37.1767   24.8495 C   0  0  0  0  0  0
  -21.4151  -29.3014   22.3739 N   0  0  0  0  0  0
  -26.4256  -37.3821   23.9456 N   0  0  0  0  0  0
  -24.6696  -31.0778   22.1025 N   0  0  0  0  0  0
  -23.4181  -28.8239   23.3093 O   0  0  0  0  0  0
  -28.4034  -26.6898   19.9463 O   0  0  0  0  0  0
  -26.5516  -34.8950   22.4646 O   0  0  0  0  0  0
  -23.5429  -32.1330   23.7684 O   0  0  0  0  0  0
  -28.3703  -20.6986   20.6253 C   0  0  0  0  0  0
  -29.6917  -22.2788   19.3947 C   0  0  0  0  0  0
  -28.5196  -22.0261   20.1189 C   0  0  0  0  0  0
  -29.4578  -19.7562   20.5996 C   0  0  0  0  0  0
  -30.6794  -20.3151   20.1319 C   0  0  0  0  0  0
  -29.4133  -18.3649   22.6830 C   0  0  0  0  0  0
  -27.8544  -17.7801   20.8346 C   0  0  0  0  0  0
  -32.8478  -20.4542   23.7092 C   0  0  0  0  0  0
  -34.0450  -22.5389   22.9876 C   0  0  0  0  0  0
  -34.8929  -20.2971   22.2433 C   0  0  0  0  0  0
  -27.4393  -23.1342   20.2123 C   0  0  0  0  0  0
  -32.0638  -19.9786   20.6763 C   0  0  0  0  0  0
  -27.6887  -24.4041   21.1059 C   0  0  0  0  0  0
  -32.7283  -21.2538   21.2927 C   0  0  0  0  0  0
  -30.2785  -17.1597   20.5818 C   0  0  0  0  0  0
  -28.7325  -25.4891   20.6904 C   0  0  0  0  0  0
  -29.2871  -18.2814   21.1523 C   0  0  0  0  0  0
  -33.6278  -21.1161   22.5499 C   0  0  0  0  0  0
  -30.7312  -21.4340   19.3766 N   0  0  0  0  0  0
  -29.9509  -15.7196   20.8866 N   0  0  0  0  0  0
  -31.4850  -12.4950   19.1886 H   0  0  0  0  0  0
  -30.3601  -11.3971   19.9395 H   0  0  0  0  0  0
  -29.7929  -11.7464   17.5081 H   0  0  0  0  0  0
  -29.6724  -13.4727   17.7657 H   0  0  0  0  0  0
  -27.9473  -11.2733   18.9605 H   0  0  0  0  0  0
  -27.3836  -12.4577   17.8102 H   0  0  0  0  0  0
  -27.6654  -14.2517   19.4944 H   0  0  0  0  0  0
  -28.7006  -12.1088   21.4387 H   0  0  0  0  0  0
  -28.4339  -13.7893   21.8238 H   0  0  0  0  0  0
  -25.2686   -9.5695   22.4742 H   0  0  0  0  0  0
  -23.9963   -7.4625   22.7461 H   0  0  0  0  0  0
  -21.0761   -8.8697   19.9000 H   0  0  0  0  0  0
  -22.3555  -10.9600   19.6173 H   0  0  0  0  0  0
  -21.1939   -7.6097   23.9660 H   0  0  0  0  0  0
  -21.1565   -6.0465   25.9041 H   0  0  0  0  0  0
  -22.0584   -2.7550   23.2818 H   0  0  0  0  0  0
  -22.4033  -11.9999   22.4900 H   0  0  0  0  0  0
  -21.1060  -13.1344   22.2607 H   0  0  0  0  0  0
  -24.6418  -15.8300   20.4581 H   0  0  0  0  0  0
  -26.2584  -15.6001   20.0201 H   0  0  0  0  0  0
  -26.7148  -32.5535   23.1109 H   0  0  0  0  0  0
  -25.0393  -33.9643   25.0699 H   0  0  0  0  0  0
  -22.6887  -31.3061   21.4241 H   0  0  0  0  0  0
  -23.3771  -35.9522   23.3303 H   0  0  0  0  0  0
  -24.3574  -36.8821   22.2052 H   0  0  0  0  0  0
  -23.7129  -37.6441   23.6579 H   0  0  0  0  0  0
  -26.0332  -31.5827   20.5787 H   0  0  0  0  0  0
  -26.8254  -30.8965   21.9642 H   0  0  0  0  0  0
  -28.1151  -29.0903   21.1468 H   0  0  0  0  0  0
  -26.0625  -25.9457   19.0259 H   0  0  0  0  0  0
  -23.9770  -27.2946   19.0189 H   0  0  0  0  0  0
  -23.7107  -30.5887   19.4081 H   0  0  0  0  0  0
  -22.7331  -29.2433   19.8771 H   0  0  0  0  0  0
  -25.1260  -36.1948   25.0866 H   0  0  0  0  0  0
  -20.9864  -28.3178   24.1526 H   0  0  0  0  0  0
  -20.5759  -26.2161   23.3549 H   0  0  0  0  0  0
  -21.6617  -26.7535   22.1138 H   0  0  0  0  0  0
  -19.6935  -25.6368   21.1155 H   0  0  0  0  0  0
  -19.6757  -27.3275   20.6728 H   0  0  0  0  0  0
  -17.4206  -26.6654   21.3992 H   0  0  0  0  0  0
  -18.0349  -26.0065   22.8977 H   0  0  0  0  0  0
  -19.7920  -30.7215   24.2288 H   0  0  0  0  0  0
  -17.5032  -31.6267   24.5129 H   0  0  0  0  0  0
  -15.5347  -30.3013   23.7713 H   0  0  0  0  0  0
  -15.8625  -28.0859   22.7155 H   0  0  0  0  0  0
  -24.6090  -30.6894   25.7832 H   0  0  0  0  0  0
  -24.9036  -32.2729   26.4948 H   0  0  0  0  0  0
  -25.8393  -30.8801   27.0143 H   0  0  0  0  0  0
  -26.2862  -29.6747   24.1225 H   0  0  0  0  0  0
  -27.4510  -29.7365   25.4246 H   0  0  0  0  0  0
  -27.8529  -30.4458   23.8817 H   0  0  0  0  0  0
  -27.2968  -33.3566   26.1924 H   0  0  0  0  0  0
  -28.4041  -32.6695   25.0159 H   0  0  0  0  0  0
  -28.0832  -31.8290   26.5240 H   0  0  0  0  0  0
  -28.2684  -37.9989   24.7585 H   0  0  0  0  0  0
  -28.1001  -36.2562   24.6311 H   0  0  0  0  0  0
  -27.2287  -37.1389   25.8903 H   0  0  0  0  0  0
  -20.9314  -29.8551   21.6812 H   0  0  0  0  0  0
  -26.0178  -38.2897   24.1536 H   0  0  0  0  0  0
  -27.4270  -20.4124   21.0702 H   0  0  0  0  0  0
  -29.8543  -23.2137   18.8765 H   0  0  0  0  0  0
  -30.3619  -18.7988   22.9955 H   0  0  0  0  0  0
  -29.3278  -17.3774   23.1365 H   0  0  0  0  0  0
  -28.6220  -18.9845   23.1082 H   0  0  0  0  0  0
  -27.6029  -17.8719   19.7762 H   0  0  0  0  0  0
  -27.0993  -18.3272   21.3920 H   0  0  0  0  0  0
  -27.7066  -16.7424   21.1221 H   0  0  0  0  0  0
  -33.3757  -20.5551   24.6574 H   0  0  0  0  0  0
  -32.7124  -19.3874   23.5446 H   0  0  0  0  0  0
  -31.8586  -20.8931   23.8340 H   0  0  0  0  0  0
  -34.5967  -22.5463   23.9299 H   0  0  0  0  0  0
  -33.1768  -23.1885   23.1225 H   0  0  0  0  0  0
  -34.6923  -22.9998   22.2417 H   0  0  0  0  0  0
  -35.5448  -20.2145   23.1113 H   0  0  0  0  0  0
  -35.4702  -20.7591   21.4436 H   0  0  0  0  0  0
  -34.6547  -19.2818   21.9238 H   0  0  0  0  0  0
  -26.5269  -22.6774   20.5958 H   0  0  0  0  0  0
  -27.2089  -23.4652   19.2021 H   0  0  0  0  0  0
  -32.6623  -19.5740   19.8604 H   0  0  0  0  0  0
  -31.9978  -19.2244   21.4490 H   0  0  0  0  0  0
  -27.9552  -24.0743   22.1099 H   0  0  0  0  0  0
  -26.7275  -24.8940   21.2452 H   0  0  0  0  0  0
  -31.9282  -21.9405   21.5869 H   0  0  0  0  0  0
  -33.2457  -21.7850   20.4886 H   0  0  0  0  0  0
  -30.2812  -17.2369   19.4929 H   0  0  0  0  0  0
  -31.3059  -17.3309   20.8934 H   0  0  0  0  0  0
  -29.4960  -24.9856   20.1028 H   0  0  0  0  0  0
  -29.2576  -25.8203   21.5859 H   0  0  0  0  0  0
  -29.0274  -15.5432   21.2378 H   0  0  0  0  0  0
  1 25  1  0  0  0
  1 30  2  0  0  0
  1 90  1  0  0  0
  2  3  1  0  0  0
  2 25  1  0  0  0
  2 91  1  0  0  0
  2 92  1  0  0  0
  3  4  1  0  0  0
  3 93  1  0  0  0
  3 94  1  0  0  0
  4  5  1  0  0  0
  4 95  1  0  0  0
  4 96  1  0  0  0
  5  6  1  0  0  0
  5 26  1  0  0  0
  5 97  1  0  0  0
  6 25  1  0  0  0
  6 98  1  0  0  0
  6 99  1  0  0  0
  7  8  2  0  0  0
  7 26  1  0  0  0
  7 29  1  0  0  0
  8  9  1  0  0  0
  8 22  1  0  0  0
  9 10  1  0  0  0
  9 27  2  0  0  0
 10 11  2  0  0  0
 10 15  1  0  0  0
 11 12  1  0  0  0
 11100  1  0  0  0
 12 13  2  0  0  0
 12101  1  0  0  0
 13 14  1  0  0  0
 13 31  1  0  0  0
 14 15  2  0  0  0
 14102  1  0  0  0
 15103  1  0  0  0
 16 17  2  0  0  0
 16 21  1  0  0  0
 16 31  1  0  0  0
 17 18  1  0  0  0
 17104  1  0  0  0
 18 19  2  0  0  0
 18105  1  0  0  0
 19 20  1  0  0  0
 19 24  1  0  0  0
 20 21  2  0  0  0
 20106  1  0  0  0
 21 23  1  0  0  0
 22 28  1  0  0  0
 22 32  2  0  0  0
 26 27  1  0  0  0
 28107  1  0  0  0
 28108  1  0  0  0
 29109  1  0  0  0
 29110  1  0  0  0
 33 34  1  0  0  0
 33 66  1  0  0  0
 33 70  2  0  0  0
 34 36  1  0  0  0
 34 59  1  0  0  0
 34111  1  0  0  0
 35 44  2  0  0  0
 35 45  1  0  0  0
 35 68  1  0  0  0
 36 56  1  0  0  0
 36112  1  0  0  0
 37 39  1  0  0  0
 37 47  1  0  0  0
 37 66  1  0  0  0
 37113  1  0  0  0
 38 43  2  0  0  0
 38 46  1  0  0  0
 38 47  1  0  0  0
 39 64  1  0  0  0
 39 67  2  0  0  0
 40 52  1  0  0  0
 40 53  2  0  0  0
 40 58  1  0  0  0
 41114  1  0  0  0
 41115  1  0  0  0
 41116  1  0  0  0
 41 48  1  0  0  0
 42 43  1  0  0  0
 42 66  1  0  0  0
 42117  1  0  0  0
 42118  1  0  0  0
 43 44  1  0  0  0
 44119  1  0  0  0
 45 46  2  0  0  0
 45120  1  0  0  0
 46121  1  0  0  0
 47122  1  0  0  0
 47123  1  0  0  0
 48 56  1  0  0  0
 48 65  1  0  0  0
 48124  1  0  0  0
 49 50  1  0  0  0
 49 53  1  0  0  0
 49 64  1  0  0  0
 49125  1  0  0  0
 50 51  1  0  0  0
 50126  1  0  0  0
 50127  1  0  0  0
 51 52  1  0  0  0
 51128  1  0  0  0
 51129  1  0  0  0
 52130  1  0  0  0
 52131  1  0  0  0
 53 54  1  0  0  0
 54 55  2  0  0  0
 54132  1  0  0  0
 55 57  1  0  0  0
 55133  1  0  0  0
 56 69  2  0  0  0
 57 58  2  0  0  0
 57134  1  0  0  0
 58135  1  0  0  0
 59 60  1  0  0  0
 59 61  1  0  0  0
 59 62  1  0  0  0
 60136  1  0  0  0
 60137  1  0  0  0
 60138  1  0  0  0
 61139  1  0  0  0
 61140  1  0  0  0
 61141  1  0  0  0
 62142  1  0  0  0
 62143  1  0  0  0
 62144  1  0  0  0
 63 65  1  0  0  0
 63145  1  0  0  0
 63146  1  0  0  0
 63147  1  0  0  0
 64148  1  0  0  0
 65149  1  0  0  0
 68 86  1  0  0  0
 71 73  2  0  0  0
 71 74  1  0  0  0
 71150  1  0  0  0
 72 73  1  0  0  0
 72 89  2  0  0  0
 72151  1  0  0  0
 73 81  1  0  0  0
 74 75  2  0  0  0
 74 87  1  0  0  0
 75 82  1  0  0  0
 75 89  1  0  0  0
 76152  1  0  0  0
 76153  1  0  0  0
 76154  1  0  0  0
 76 87  1  0  0  0
 77 87  1  0  0  0
 77155  1  0  0  0
 77156  1  0  0  0
 77157  1  0  0  0
 78158  1  0  0  0
 78159  1  0  0  0
 78160  1  0  0  0
 78 88  1  0  0  0
 79 88  1  0  0  0
 79161  1  0  0  0
 79162  1  0  0  0
 79163  1  0  0  0
 80 88  1  0  0  0
 80164  1  0  0  0
 80165  1  0  0  0
 80166  1  0  0  0
 81 83  1  0  0  0
 81167  1  0  0  0
 81168  1  0  0  0
 82 84  1  0  0  0
 82169  1  0  0  0
 82170  1  0  0  0
 83 86  1  0  0  0
 83171  1  0  0  0
 83172  1  0  0  0
 84 88  1  0  0  0
 84173  1  0  0  0
 84174  1  0  0  0
 85 87  1  0  0  0
 85 90  1  0  0  0
 85175  1  0  0  0
 85176  1  0  0  0
 86177  1  0  0  0
 86178  1  0  0  0
 90179  1  0  0  0
M  ISO  4   1 100  68 101  86 101  90 100
M  END
> <chiral flag>
0

> <version>
0

> <s_m_source_file>
/data/baiqing/PycharmProjects/Reinvent-master-3.2/result/LINK_invent/BTK/process_docking_weight1_custom_sum_contain_oxygen_bond_distance_aromatic_linkinvent_7_9_3/rearranged_h_0091.sdf

> <i_m_source_file_index>
42

> <r_mmod_Potential_Energy-OPLS-2005>
-58.3113861083984

> <r_mmod_Stretch_Energy-OPLS-2005>
71.2159194946289

> <r_mmod_Bend_Energy-OPLS-2005>
175.427444458008

> <r_mmod_Torsional_Energy-OPLS-2005>
306.683624267578

> <r_mmod_Improper_Torsional_Energy-OPLS-2005>
8.90340232849121

> <r_mmod_Van_der_Waal_Energy-OPLS-2005>
151.215576171875

> <r_mmod_Electrostatic_Energy-OPLS-2005>
-598.945678710938

> <r_mmod_Solvation_Energy-OPLS-2005>
-205.093109130859

> <b_mmod_Minimization_Converged-OPLS-2005>
0

> <r_mmod_RMS_Derivative-OPLS-2005>
8.72339725494385

$$$$
43
                    3D
 Structure written by MMmdl.
175183  0  0  1  0            999 V2000
  -30.6798  -14.4969   20.5437 C   0  0  0  0  0  0
  -30.4370  -12.3094   19.4394 C   0  0  0  0  0  0
  -29.5106  -12.5063   18.2196 C   0  0  0  0  0  0
  -28.0287  -12.3665   18.6236 C   0  0  0  0  0  0
  -27.6704  -13.2042   19.8814 C   0  0  2  0  0  0
  -28.7109  -12.9819   21.0067 C   0  0  0  0  0  0
  -25.2636  -13.8163   20.5660 C   0  0  0  0  0  0
  -24.1868  -13.0461   20.9158 C   0  0  0  0  0  0
  -24.6402  -11.6917   20.8720 C   0  0  0  0  0  0
  -23.9060  -10.4300   21.0389 C   0  0  0  0  0  0
  -24.3606   -9.4217   21.9168 C   0  0  0  0  0  0
  -23.6292   -8.2248   22.0737 C   0  0  0  0  0  0
  -22.4281   -8.0278   21.3529 C   0  0  0  0  0  0
  -21.9924   -9.0251   20.4639 C   0  0  0  0  0  0
  -22.7236  -10.2136   20.3048 C   0  0  0  0  0  0
  -21.6858   -6.0743   22.5276 C   0  0  0  0  0  0
  -21.4001   -6.5638   23.8208 C   0  0  0  0  0  0
  -21.3659   -5.6786   24.9174 C   0  0  0  0  0  0
  -21.6060   -4.3051   24.7224 C   0  0  0  0  0  0
  -21.8817   -3.8148   23.4341 C   0  0  0  0  0  0
  -21.9185   -4.6971   22.3400 C   0  0  0  0  0  0
  -22.7890  -13.5269   21.1800 C   0  0  0  0  0  0
  -22.1658   -4.2152   21.0980 F   0  0  0  0  0  0
  -21.5640   -3.4531   25.7732 F   0  0  0  0  0  0
  -30.0472  -13.2922   20.4664 N   0  0  0  0  0  0
  -26.3067  -12.9326   20.3372 N   0  0  0  0  0  0
  -25.9335  -11.6496   20.5768 N   0  0  0  0  0  0
  -22.0486  -12.8283   22.0349 N   0  0  0  0  0  0
  -25.4432  -15.1871   20.4058 N   0  0  0  0  0  0
  -31.7754  -14.7024   20.0170 O   0  0  0  0  0  0
  -21.6647   -6.8874   21.4237 O   0  0  0  0  0  0
  -22.3595  -14.5558   20.6610 O   0  0  0  0  0  0
  -24.6157  -31.8650   23.2066 C   0  0  0  0  0  0
  -25.9059  -32.4790   23.8367 C   0  0  1  0  0  0
  -27.2346  -27.4101   20.0924 C   0  0  0  0  0  0
  -25.5908  -33.8586   24.2278 N   0  0  0  0  0  0
  -23.4032  -30.4891   21.5486 C   0  0  2  0  0  0
  -24.8448  -28.9434   20.1183 C   0  0  0  0  0  0
  -22.7391  -29.4669   22.5004 C   0  0  0  0  0  0
  -18.0258  -28.1387   22.8512 C   0  0  0  0  0  0
  -24.1485  -36.7304   23.2634 C   0  0  0  0  0  0
  -25.9336  -30.8200   21.3629 C   0  0  0  0  0  0
  -26.0067  -29.4532   20.7087 C   0  0  0  0  0  0
  -27.1995  -28.6937   20.6919 C   0  0  0  0  0  0
  -26.0434  -26.9102   19.5146 C   0  0  0  0  0  0
  -24.8587  -27.6704   19.5245 C   0  0  0  0  0  0
  -23.6095  -29.8132   20.1668 C   0  0  0  0  0  0
  -25.4105  -36.3082   24.0324 C   0  0  1  0  0  0
  -20.5850  -28.3660   23.1332 C   0  0  2  0  0  0
  -20.6761  -26.9408   22.5417 C   0  0  0  0  0  0
  -19.5730  -26.6392   21.5226 C   0  0  0  0  0  0
  -18.1911  -26.7940   22.1643 C   0  0  0  0  0  0
  -19.1516  -28.8846   23.2915 C   0  0  0  0  0  0
  -18.9451  -30.1466   23.8908 C   0  0  0  0  0  0
  -17.6454  -30.6601   24.0585 C   0  0  0  0  0  0
  -25.9041  -34.9448   23.5100 C   0  0  0  0  0  0
  -16.5343  -29.9104   23.6352 C   0  0  0  0  0  0
  -16.7255  -28.6526   23.0375 C   0  0  0  0  0  0
  -26.4478  -31.6591   25.0713 C   0  0  0  0  0  0
  -25.3740  -31.3746   26.1475 C   0  0  0  0  0  0
  -27.0298  -30.3006   24.6134 C   0  0  0  0  0  0
  -27.6018  -32.4339   25.7493 C   0  0  0  0  0  0
  -27.5578  -37.1806   24.8462 C   0  0  0  0  0  0
  -21.4128  -29.3042   22.3755 N   0  0  0  0  0  0
  -26.4282  -37.3774   23.9411 N   0  0  0  0  0  0
  -24.6692  -31.0741   22.0971 N   0  0  0  0  0  0
  -23.4159  -28.8221   23.3057 O   0  0  0  0  0  0
  -28.4290  -26.7085   20.1059 O   0  0  0  0  0  0
  -26.5609  -34.8921   22.4665 O   0  0  0  0  0  0
  -23.5356  -32.1425   23.7455 O   0  0  0  0  0  0
  -29.7955  -20.5971   20.7565 C   0  0  0  0  0  0
  -28.6456  -21.5354   18.8717 C   0  0  0  0  0  0
  -29.2778  -21.7578   20.1132 C   0  0  0  0  0  0
  -29.7284  -19.3447   20.0882 C   0  0  0  0  0  0
  -30.0329  -23.2396   22.0843 C   0  0  0  0  0  0
  -34.2408  -21.9176   19.8347 C   0  0  0  0  0  0
  -35.7174  -20.7074   18.1797 C   0  0  0  0  0  0
  -32.8495  -19.1268   20.3516 C   0  0  0  0  0  0
  -31.8834  -17.9519   20.0685 C   0  0  0  0  0  0
  -33.7002  -19.5074   19.1254 C   0  0  0  0  0  0
  -28.3122  -24.2037   20.4616 C   0  0  0  0  0  0
  -29.6117  -16.7702   20.3572 C   0  0  0  0  0  0
  -28.5570  -25.4064   19.4969 C   0  0  0  0  0  0
  -29.5075  -23.1980   20.6354 C   0  0  2  0  0  0
  -30.4429  -18.0753   20.6323 C   0  0  2  0  0  0
  -34.8024  -20.5510   19.4040 C   0  0  0  0  0  0
  -28.5719  -20.3112   18.2907 N   0  0  0  0  0  0
  -29.1394  -19.2449   18.8685 N   0  0  0  0  0  0
  -29.9497  -15.5055   21.0632 N   0  0  0  0  0  0
  -31.4806  -12.4142   19.1361 H   0  0  0  0  0  0
  -30.3459  -11.2959   19.8336 H   0  0  0  0  0  0
  -29.7553  -11.7835   17.4402 H   0  0  0  0  0  0
  -29.6772  -13.4960   17.7882 H   0  0  0  0  0  0
  -27.8342  -11.3092   18.8139 H   0  0  0  0  0  0
  -27.3838  -12.6435   17.7884 H   0  0  0  0  0  0
  -27.7179  -14.2537   19.5880 H   0  0  0  0  0  0
  -28.6865  -11.9448   21.3448 H   0  0  0  0  0  0
  -28.4685  -13.5801   21.8855 H   0  0  0  0  0  0
  -25.2752   -9.5718   22.4738 H   0  0  0  0  0  0
  -24.0012   -7.4659   22.7471 H   0  0  0  0  0  0
  -21.0848   -8.8781   19.8953 H   0  0  0  0  0  0
  -22.3687  -10.9676   19.6161 H   0  0  0  0  0  0
  -21.1978   -7.6143   23.9717 H   0  0  0  0  0  0
  -21.1489   -6.0512   25.9075 H   0  0  0  0  0  0
  -22.0593   -2.7611   23.2841 H   0  0  0  0  0  0
  -22.4088  -11.9994   22.4837 H   0  0  0  0  0  0
  -21.1089  -13.1331   22.2455 H   0  0  0  0  0  0
  -24.6856  -15.8530   20.5112 H   0  0  0  0  0  0
  -26.3014  -15.6087   20.0729 H   0  0  0  0  0  0
  -26.7125  -32.5482   23.1126 H   0  0  0  0  0  0
  -25.0085  -33.9729   25.0453 H   0  0  0  0  0  0
  -22.6935  -31.3072   21.4052 H   0  0  0  0  0  0
  -23.3722  -35.9661   23.3293 H   0  0  0  0  0  0
  -24.3591  -36.8922   22.2051 H   0  0  0  0  0  0
  -23.7263  -37.6515   23.6660 H   0  0  0  0  0  0
  -26.0562  -31.5804   20.5916 H   0  0  0  0  0  0
  -26.8207  -30.8649   21.9850 H   0  0  0  0  0  0
  -28.0972  -29.0917   21.1440 H   0  0  0  0  0  0
  -25.9960  -25.9323   19.0615 H   0  0  0  0  0  0
  -23.9597  -27.2619   19.0802 H   0  0  0  0  0  0
  -23.7186  -30.5802   19.3997 H   0  0  0  0  0  0
  -22.7333  -29.2288   19.8798 H   0  0  0  0  0  0
  -25.1285  -36.1927   25.0812 H   0  0  0  0  0  0
  -20.9943  -28.3215   24.1453 H   0  0  0  0  0  0
  -20.5680  -26.2272   23.3600 H   0  0  0  0  0  0
  -21.6633  -26.7481   22.1206 H   0  0  0  0  0  0
  -19.6888  -25.6299   21.1266 H   0  0  0  0  0  0
  -19.6669  -27.3206   20.6756 H   0  0  0  0  0  0
  -17.4194  -26.6711   21.4033 H   0  0  0  0  0  0
  -18.0294  -26.0069   22.9020 H   0  0  0  0  0  0
  -19.7923  -30.7295   24.2254 H   0  0  0  0  0  0
  -17.5013  -31.6281   24.5187 H   0  0  0  0  0  0
  -15.5351  -30.3028   23.7655 H   0  0  0  0  0  0
  -15.8652  -28.0857   22.7071 H   0  0  0  0  0  0
  -24.5893  -30.7095   25.7866 H   0  0  0  0  0  0
  -24.8968  -32.2925   26.4906 H   0  0  0  0  0  0
  -25.8108  -30.8959   27.0247 H   0  0  0  0  0  0
  -26.2855  -29.6780   24.1150 H   0  0  0  0  0  0
  -27.3986  -29.7242   25.4630 H   0  0  0  0  0  0
  -27.8735  -30.4286   23.9344 H   0  0  0  0  0  0
  -27.2584  -33.3621   26.2081 H   0  0  0  0  0  0
  -28.3839  -32.6934   25.0342 H   0  0  0  0  0  0
  -28.0679  -31.8468   26.5422 H   0  0  0  0  0  0
  -28.2590  -38.0106   24.7503 H   0  0  0  0  0  0
  -28.1079  -36.2638   24.6288 H   0  0  0  0  0  0
  -27.2311  -37.1457   25.8868 H   0  0  0  0  0  0
  -20.9274  -29.8761   21.6987 H   0  0  0  0  0  0
  -26.0152  -38.2845   24.1407 H   0  0  0  0  0  0
  -30.3181  -20.6578   21.6995 H   0  0  0  0  0  0
  -28.2212  -22.3532   18.3049 H   0  0  0  0  0  0
  -30.9983  -22.7412   22.1808 H   0  0  0  0  0  0
  -29.3337  -22.7710   22.7791 H   0  0  0  0  0  0
  -30.1876  -24.2700   22.4096 H   0  0  0  0  0  0
  -35.0484  -22.6285   20.0137 H   0  0  0  0  0  0
  -33.6737  -21.8483   20.7626 H   0  0  0  0  0  0
  -33.5872  -22.3471   19.0746 H   0  0  0  0  0  0
  -36.5307  -21.4064   18.3752 H   0  0  0  0  0  0
  -35.1670  -21.0751   17.3127 H   0  0  0  0  0  0
  -36.1726  -19.7559   17.9011 H   0  0  0  0  0  0
  -33.4983  -18.8543   21.1852 H   0  0  0  0  0  0
  -32.3115  -20.0069   20.6888 H   0  0  0  0  0  0
  -32.3490  -17.0593   20.4814 H   0  0  0  0  0  0
  -31.8190  -17.7789   18.9933 H   0  0  0  0  0  0
  -33.0446  -19.8683   18.3311 H   0  0  0  0  0  0
  -34.1653  -18.6006   18.7371 H   0  0  0  0  0  0
  -27.4062  -23.6775   20.1615 H   0  0  0  0  0  0
  -28.0570  -24.6179   21.4387 H   0  0  0  0  0  0
  -29.6042  -16.5712   19.2837 H   0  0  0  0  0  0
  -28.5709  -16.9761   20.6115 H   0  0  0  0  0  0
  -27.9596  -25.3034   18.5925 H   0  0  0  0  0  0
  -29.5794  -25.3756   19.1217 H   0  0  0  0  0  0
  -30.3344  -23.5579   20.0215 H   0  0  0  0  0  0
  -30.5079  -18.2016   21.7124 H   0  0  0  0  0  0
  -35.4206  -20.1758   20.2207 H   0  0  0  0  0  0
  -29.2151  -15.1815   21.6755 H   0  0  0  0  0  0
  1 25  1  0  0  0
  1 30  2  0  0  0
  1 89  1  0  0  0
  2  3  1  0  0  0
  2 25  1  0  0  0
  2 90  1  0  0  0
  2 91  1  0  0  0
  3  4  1  0  0  0
  3 92  1  0  0  0
  3 93  1  0  0  0
  4  5  1  0  0  0
  4 94  1  0  0  0
  4 95  1  0  0  0
  5  6  1  0  0  0
  5 26  1  0  0  0
  5 96  1  0  0  0
  6 25  1  0  0  0
  6 97  1  0  0  0
  6 98  1  0  0  0
  7  8  2  0  0  0
  7 26  1  0  0  0
  7 29  1  0  0  0
  8  9  1  0  0  0
  8 22  1  0  0  0
  9 10  1  0  0  0
  9 27  2  0  0  0
 10 11  2  0  0  0
 10 15  1  0  0  0
 11 12  1  0  0  0
 11 99  1  0  0  0
 12 13  2  0  0  0
 12100  1  0  0  0
 13 14  1  0  0  0
 13 31  1  0  0  0
 14 15  2  0  0  0
 14101  1  0  0  0
 15102  1  0  0  0
 16 17  2  0  0  0
 16 21  1  0  0  0
 16 31  1  0  0  0
 17 18  1  0  0  0
 17103  1  0  0  0
 18 19  2  0  0  0
 18104  1  0  0  0
 19 20  1  0  0  0
 19 24  1  0  0  0
 20 21  2  0  0  0
 20105  1  0  0  0
 21 23  1  0  0  0
 22 28  1  0  0  0
 22 32  2  0  0  0
 26 27  1  0  0  0
 28106  1  0  0  0
 28107  1  0  0  0
 29108  1  0  0  0
 29109  1  0  0  0
 33 34  1  0  0  0
 33 66  1  0  0  0
 33 70  2  0  0  0
 34 36  1  0  0  0
 34 59  1  0  0  0
 34110  1  0  0  0
 35 44  2  0  0  0
 35 45  1  0  0  0
 35 68  1  0  0  0
 36 56  1  0  0  0
 36111  1  0  0  0
 37 39  1  0  0  0
 37 47  1  0  0  0
 37 66  1  0  0  0
 37112  1  0  0  0
 38 43  2  0  0  0
 38 46  1  0  0  0
 38 47  1  0  0  0
 39 64  1  0  0  0
 39 67  2  0  0  0
 40 52  1  0  0  0
 40 53  2  0  0  0
 40 58  1  0  0  0
 41113  1  0  0  0
 41114  1  0  0  0
 41115  1  0  0  0
 41 48  1  0  0  0
 42 43  1  0  0  0
 42 66  1  0  0  0
 42116  1  0  0  0
 42117  1  0  0  0
 43 44  1  0  0  0
 44118  1  0  0  0
 45 46  2  0  0  0
 45119  1  0  0  0
 46120  1  0  0  0
 47121  1  0  0  0
 47122  1  0  0  0
 48 56  1  0  0  0
 48 65  1  0  0  0
 48123  1  0  0  0
 49 50  1  0  0  0
 49 53  1  0  0  0
 49 64  1  0  0  0
 49124  1  0  0  0
 50 51  1  0  0  0
 50125  1  0  0  0
 50126  1  0  0  0
 51 52  1  0  0  0
 51127  1  0  0  0
 51128  1  0  0  0
 52129  1  0  0  0
 52130  1  0  0  0
 53 54  1  0  0  0
 54 55  2  0  0  0
 54131  1  0  0  0
 55 57  1  0  0  0
 55132  1  0  0  0
 56 69  2  0  0  0
 57 58  2  0  0  0
 57133  1  0  0  0
 58134  1  0  0  0
 59 60  1  0  0  0
 59 61  1  0  0  0
 59 62  1  0  0  0
 60135  1  0  0  0
 60136  1  0  0  0
 60137  1  0  0  0
 61138  1  0  0  0
 61139  1  0  0  0
 61140  1  0  0  0
 62141  1  0  0  0
 62142  1  0  0  0
 62143  1  0  0  0
 63 65  1  0  0  0
 63144  1  0  0  0
 63145  1  0  0  0
 63146  1  0  0  0
 64147  1  0  0  0
 65148  1  0  0  0
 68 83  1  0  0  0
 71 73  2  0  0  0
 71 74  1  0  0  0
 71149  1  0  0  0
 72 73  1  0  0  0
 72 87  2  0  0  0
 72150  1  0  0  0
 73 84  1  0  0  0
 74 85  1  0  0  0
 74 88  2  0  0  0
 75151  1  0  0  0
 75152  1  0  0  0
 75153  1  0  0  0
 75 84  1  0  0  0
 76154  1  0  0  0
 76155  1  0  0  0
 76156  1  0  0  0
 76 86  1  0  0  0
 77 86  1  0  0  0
 77157  1  0  0  0
 77158  1  0  0  0
 77159  1  0  0  0
 78 79  1  0  0  0
 78 80  1  0  0  0
 78160  1  0  0  0
 78161  1  0  0  0
 79162  1  0  0  0
 79163  1  0  0  0
 79 85  1  0  0  0
 80 86  1  0  0  0
 80164  1  0  0  0
 80165  1  0  0  0
 81 83  1  0  0  0
 81 84  1  0  0  0
 81166  1  0  0  0
 81167  1  0  0  0
 82 85  1  0  0  0
 82 89  1  0  0  0
 82168  1  0  0  0
 82169  1  0  0  0
 83170  1  0  0  0
 83171  1  0  0  0
 84172  1  0  0  0
 85173  1  0  0  0
 86174  1  0  0  0
 87 88  1  0  0  0
 89175  1  0  0  0
M  ISO  4   1 100  68 101  83 101  89 100
M  END
> <chiral flag>
0

> <version>
0

> <s_m_source_file>
/data/baiqing/PycharmProjects/Reinvent-master-3.2/result/LINK_invent/BTK/process_docking_weight1_custom_sum_contain_oxygen_bond_distance_aromatic_linkinvent_7_9_3/rearranged_h_0091.sdf

> <i_m_source_file_index>
43

> <r_mmod_Potential_Energy-OPLS-2005>
80.3279800415039

> <r_mmod_Stretch_Energy-OPLS-2005>
51.3355712890625

> <r_mmod_Bend_Energy-OPLS-2005>
132.385971069336

> <r_mmod_Torsional_Energy-OPLS-2005>
259.969329833984

> <r_mmod_Improper_Torsional_Energy-OPLS-2005>
8.20947074890137

> <r_mmod_Van_der_Waal_Energy-OPLS-2005>
153.068511962891

> <r_mmod_Electrostatic_Energy-OPLS-2005>
-318.9619140625

> <r_mmod_Solvation_Energy-OPLS-2005>
-221.554901123047

> <b_mmod_Minimization_Converged-OPLS-2005>
0

> <r_mmod_RMS_Derivative-OPLS-2005>
3.06714081764221

$$$$
44
                    3D
 Structure written by MMmdl.
169177  0  0  1  0            999 V2000
  -30.7205  -14.4425   20.5873 C   0  0  0  0  0  0
  -30.4130  -12.3051   19.4005 C   0  0  0  0  0  0
  -29.4860  -12.5315   18.1910 C   0  0  0  0  0  0
  -28.0044  -12.3985   18.6000 C   0  0  0  0  0  0
  -27.6589  -13.2136   19.8759 C   0  0  2  0  0  0
  -28.7040  -12.9765   20.9871 C   0  0  0  0  0  0
  -25.2554  -13.8178   20.5661 C   0  0  0  0  0  0
  -24.1820  -13.0438   20.9176 C   0  0  0  0  0  0
  -24.6378  -11.6908   20.8712 C   0  0  0  0  0  0
  -23.9051  -10.4287   21.0384 C   0  0  0  0  0  0
  -24.3617   -9.4204   21.9157 C   0  0  0  0  0  0
  -23.6298   -8.2230   22.0736 C   0  0  0  0  0  0
  -22.4268   -8.0272   21.3549 C   0  0  0  0  0  0
  -21.9903   -9.0231   20.4632 C   0  0  0  0  0  0
  -22.7223  -10.2127   20.3030 C   0  0  0  0  0  0
  -21.6849   -6.0716   22.5264 C   0  0  0  0  0  0
  -21.4003   -6.5627   23.8195 C   0  0  0  0  0  0
  -21.3672   -5.6792   24.9168 C   0  0  0  0  0  0
  -21.6064   -4.3049   24.7229 C   0  0  0  0  0  0
  -21.8818   -3.8136   23.4344 C   0  0  0  0  0  0
  -21.9189   -4.6943   22.3404 C   0  0  0  0  0  0
  -22.7835  -13.5207   21.1854 C   0  0  0  0  0  0
  -22.1649   -4.2126   21.0975 F   0  0  0  0  0  0
  -21.5658   -3.4531   25.7743 F   0  0  0  0  0  0
  -30.0318  -13.2817   20.4298 N   0  0  0  0  0  0
  -26.3001  -12.9357   20.3360 N   0  0  0  0  0  0
  -25.9313  -11.6511   20.5753 N   0  0  0  0  0  0
  -22.0493  -12.8190   22.0420 N   0  0  0  0  0  0
  -25.4267  -15.1893   20.4058 N   0  0  0  0  0  0
  -31.8487  -14.6200   20.1182 O   0  0  0  0  0  0
  -21.6642   -6.8858   21.4227 O   0  0  0  0  0  0
  -22.3506  -14.5499   20.6694 O   0  0  0  0  0  0
  -24.6140  -31.8683   23.2103 C   0  0  0  0  0  0
  -25.9030  -32.4829   23.8374 C   0  0  1  0  0  0
  -27.2247  -27.4332   20.0736 C   0  0  0  0  0  0
  -25.5878  -33.8622   24.2319 N   0  0  0  0  0  0
  -23.3989  -30.4971   21.5523 C   0  0  2  0  0  0
  -24.8395  -28.9624   20.1131 C   0  0  0  0  0  0
  -22.7385  -29.4679   22.4973 C   0  0  0  0  0  0
  -18.0266  -28.1370   22.8512 C   0  0  0  0  0  0
  -24.1480  -36.7291   23.2644 C   0  0  0  0  0  0
  -25.9301  -30.8331   21.3630 C   0  0  0  0  0  0
  -26.0021  -29.4689   20.7046 C   0  0  0  0  0  0
  -27.1945  -28.7103   20.6846 C   0  0  0  0  0  0
  -26.0398  -26.9422   19.4767 C   0  0  0  0  0  0
  -24.8512  -27.6965   19.5028 C   0  0  0  0  0  0
  -23.6048  -29.8326   20.1657 C   0  0  0  0  0  0
  -25.4104  -36.3112   24.0348 C   0  0  1  0  0  0
  -20.5864  -28.3642   23.1314 C   0  0  2  0  0  0
  -20.6750  -26.9378   22.5403 C   0  0  0  0  0  0
  -19.5727  -26.6396   21.5195 C   0  0  0  0  0  0
  -18.1911  -26.7920   22.1620 C   0  0  0  0  0  0
  -19.1524  -28.8816   23.2926 C   0  0  0  0  0  0
  -18.9461  -30.1430   23.8925 C   0  0  0  0  0  0
  -17.6466  -30.6576   24.0586 C   0  0  0  0  0  0
  -25.9028  -34.9482   23.5133 C   0  0  0  0  0  0
  -16.5351  -29.9087   23.6341 C   0  0  0  0  0  0
  -16.7260  -28.6508   23.0351 C   0  0  0  0  0  0
  -26.4464  -31.6621   25.0702 C   0  0  0  0  0  0
  -25.3739  -31.3734   26.1461 C   0  0  0  0  0  0
  -27.0291  -30.3067   24.6075 C   0  0  0  0  0  0
  -27.6052  -32.4339   25.7441 C   0  0  0  0  0  0
  -27.5584  -37.1790   24.8466 C   0  0  0  0  0  0
  -21.4114  -29.3026   22.3716 N   0  0  0  0  0  0
  -26.4292  -37.3797   23.9421 N   0  0  0  0  0  0
  -24.6671  -31.0793   22.1009 N   0  0  0  0  0  0
  -23.4176  -28.8206   23.2995 O   0  0  0  0  0  0
  -28.4100  -26.7248   20.0961 O   0  0  0  0  0  0
  -26.5605  -34.8941   22.4705 O   0  0  0  0  0  0
  -23.5338  -32.1416   23.7520 O   0  0  0  0  0  0
  -29.8633  -21.1382   20.5058 C   0  0  0  0  0  0
  -29.6013  -22.1506   19.6195 C   0  0  0  0  0  0
  -28.5862  -21.6514   18.7422 C   0  0  0  0  0  0
  -28.3698  -20.3297   19.0470 C   0  0  0  0  0  0
  -27.8964  -22.4182   17.6396 C   0  0  0  0  0  0
  -27.5101  -19.3318   18.3250 C   0  0  0  0  0  0
  -31.7807  -23.3706   19.9915 C   0  0  0  0  0  0
  -30.5816  -17.5281   19.1211 C   0  0  0  0  0  0
  -29.6367  -24.6639   20.3118 C   0  0  0  0  0  0
  -29.1807  -18.7517   20.9122 C   0  0  0  0  0  0
  -30.6428  -16.7285   21.5981 C   0  0  0  0  0  0
  -28.4599  -25.3721   19.6133 C   0  0  0  0  0  0
  -30.3130  -23.5007   19.5419 C   0  0  2  0  0  0
  -30.4484  -17.9155   20.6082 C   0  0  1  0  0  0
  -29.1252  -20.0166   20.1717 N   0  0  0  0  0  0
  -30.0599  -15.4351   21.2035 N   0  0  0  0  0  0
  -31.4573  -12.4005   19.0967 H   0  0  0  0  0  0
  -30.3038  -11.2903   19.7853 H   0  0  0  0  0  0
  -29.7205  -11.8234   17.3957 H   0  0  0  0  0  0
  -29.6608  -13.5279   17.7790 H   0  0  0  0  0  0
  -27.7909  -11.3415   18.7616 H   0  0  0  0  0  0
  -27.3620  -12.7153   17.7770 H   0  0  0  0  0  0
  -27.7062  -14.2679   19.6032 H   0  0  0  0  0  0
  -28.6768  -11.9343   21.3091 H   0  0  0  0  0  0
  -28.4734  -13.5637   21.8773 H   0  0  0  0  0  0
  -25.2758   -9.5684   22.4746 H   0  0  0  0  0  0
  -24.0017   -7.4614   22.7451 H   0  0  0  0  0  0
  -21.0831   -8.8721   19.8952 H   0  0  0  0  0  0
  -22.3635  -10.9659   19.6149 H   0  0  0  0  0  0
  -21.1960   -7.6131   23.9679 H   0  0  0  0  0  0
  -21.1516   -6.0531   25.9076 H   0  0  0  0  0  0
  -22.0589   -2.7591   23.2847 H   0  0  0  0  0  0
  -22.4117  -11.9864   22.4834 H   0  0  0  0  0  0
  -21.1100  -13.1188   22.2609 H   0  0  0  0  0  0
  -24.6592  -15.8459   20.5041 H   0  0  0  0  0  0
  -26.2807  -15.6246   20.0807 H   0  0  0  0  0  0
  -26.7090  -32.5542   23.1122 H   0  0  0  0  0  0
  -24.9990  -33.9770   25.0434 H   0  0  0  0  0  0
  -22.6886  -31.3160   21.4152 H   0  0  0  0  0  0
  -23.3768  -35.9597   23.3299 H   0  0  0  0  0  0
  -24.3580  -36.8900   22.2060 H   0  0  0  0  0  0
  -23.7196  -37.6481   23.6648 H   0  0  0  0  0  0
  -26.0451  -31.6035   20.5996 H   0  0  0  0  0  0
  -26.8189  -30.8800   21.9817 H   0  0  0  0  0  0
  -28.0946  -29.0977   21.1405 H   0  0  0  0  0  0
  -26.0047  -25.9840   18.9816 H   0  0  0  0  0  0
  -23.9527  -27.2993   19.0507 H   0  0  0  0  0  0
  -23.7149  -30.6093   19.4087 H   0  0  0  0  0  0
  -22.7267  -29.2562   19.8695 H   0  0  0  0  0  0
  -25.1286  -36.1967   25.0841 H   0  0  0  0  0  0
  -20.9991  -28.3190   24.1417 H   0  0  0  0  0  0
  -20.5615  -26.2241   23.3578 H   0  0  0  0  0  0
  -21.6622  -26.7392   22.1209 H   0  0  0  0  0  0
  -19.6882  -25.6323   21.1175 H   0  0  0  0  0  0
  -19.6670  -27.3247   20.6762 H   0  0  0  0  0  0
  -17.4178  -26.6691   21.4026 H   0  0  0  0  0  0
  -18.0318  -26.0037   22.8993 H   0  0  0  0  0  0
  -19.7944  -30.7250   24.2284 H   0  0  0  0  0  0
  -17.5026  -31.6254   24.5185 H   0  0  0  0  0  0
  -15.5356  -30.3007   23.7647 H   0  0  0  0  0  0
  -15.8658  -28.0850   22.7035 H   0  0  0  0  0  0
  -24.5883  -30.7117   25.7787 H   0  0  0  0  0  0
  -24.8973  -32.2909   26.4933 H   0  0  0  0  0  0
  -25.8095  -30.8867   27.0195 H   0  0  0  0  0  0
  -26.2816  -29.6809   24.1186 H   0  0  0  0  0  0
  -27.4123  -29.7324   25.4516 H   0  0  0  0  0  0
  -27.8624  -30.4391   23.9171 H   0  0  0  0  0  0
  -27.2679  -33.3623   26.2059 H   0  0  0  0  0  0
  -28.3827  -32.6924   25.0241 H   0  0  0  0  0  0
  -28.0757  -31.8440   26.5316 H   0  0  0  0  0  0
  -28.2607  -38.0085   24.7543 H   0  0  0  0  0  0
  -28.1075  -36.2623   24.6257 H   0  0  0  0  0  0
  -27.2305  -37.1393   25.8869 H   0  0  0  0  0  0
  -20.9217  -29.8774   21.6993 H   0  0  0  0  0  0
  -26.0187  -38.2872   24.1435 H   0  0  0  0  0  0
  -30.5552  -21.0960   21.3365 H   0  0  0  0  0  0
  -27.0205  -22.9250   18.0472 H   0  0  0  0  0  0
  -27.5691  -21.7572   16.8370 H   0  0  0  0  0  0
  -28.5512  -23.1687   17.2005 H   0  0  0  0  0  0
  -26.4703  -19.6564   18.2928 H   0  0  0  0  0  0
  -27.5358  -18.3349   18.7568 H   0  0  0  0  0  0
  -27.8527  -19.2226   17.2958 H   0  0  0  0  0  0
  -32.2997  -22.5894   19.4348 H   0  0  0  0  0  0
  -31.8572  -23.1401   21.0542 H   0  0  0  0  0  0
  -32.3266  -24.2995   19.8201 H   0  0  0  0  0  0
  -30.5647  -18.4084   18.4770 H   0  0  0  0  0  0
  -29.7748  -16.8691   18.8025 H   0  0  0  0  0  0
  -31.5261  -17.0206   18.9294 H   0  0  0  0  0  0
  -29.3490  -24.3472   21.3145 H   0  0  0  0  0  0
  -30.3976  -25.4309   20.4600 H   0  0  0  0  0  0
  -29.1591  -19.0018   21.9730 H   0  0  0  0  0  0
  -28.2773  -18.1666   20.7474 H   0  0  0  0  0  0
  -30.2352  -16.9947   22.5732 H   0  0  0  0  0  0
  -31.7121  -16.5964   21.7736 H   0  0  0  0  0  0
  -27.5543  -24.8032   19.8239 H   0  0  0  0  0  0
  -28.6012  -25.3922   18.5311 H   0  0  0  0  0  0
  -30.3538  -23.7718   18.4877 H   0  0  0  0  0  0
  -31.2822  -18.5877   20.8155 H   0  0  0  0  0  0
  -29.1176  -15.2348   21.5074 H   0  0  0  0  0  0
  1 25  1  0  0  0
  1 30  2  0  0  0
  1 86  1  0  0  0
  2  3  1  0  0  0
  2 25  1  0  0  0
  2 87  1  0  0  0
  2 88  1  0  0  0
  3  4  1  0  0  0
  3 89  1  0  0  0
  3 90  1  0  0  0
  4  5  1  0  0  0
  4 91  1  0  0  0
  4 92  1  0  0  0
  5  6  1  0  0  0
  5 26  1  0  0  0
  5 93  1  0  0  0
  6 25  1  0  0  0
  6 94  1  0  0  0
  6 95  1  0  0  0
  7  8  2  0  0  0
  7 26  1  0  0  0
  7 29  1  0  0  0
  8  9  1  0  0  0
  8 22  1  0  0  0
  9 10  1  0  0  0
  9 27  2  0  0  0
 10 11  2  0  0  0
 10 15  1  0  0  0
 11 12  1  0  0  0
 11 96  1  0  0  0
 12 13  2  0  0  0
 12 97  1  0  0  0
 13 14  1  0  0  0
 13 31  1  0  0  0
 14 15  2  0  0  0
 14 98  1  0  0  0
 15 99  1  0  0  0
 16 17  2  0  0  0
 16 21  1  0  0  0
 16 31  1  0  0  0
 17 18  1  0  0  0
 17100  1  0  0  0
 18 19  2  0  0  0
 18101  1  0  0  0
 19 20  1  0  0  0
 19 24  1  0  0  0
 20 21  2  0  0  0
 20102  1  0  0  0
 21 23  1  0  0  0
 22 28  1  0  0  0
 22 32  2  0  0  0
 26 27  1  0  0  0
 28103  1  0  0  0
 28104  1  0  0  0
 29105  1  0  0  0
 29106  1  0  0  0
 33 34  1  0  0  0
 33 66  1  0  0  0
 33 70  2  0  0  0
 34 36  1  0  0  0
 34 59  1  0  0  0
 34107  1  0  0  0
 35 44  2  0  0  0
 35 45  1  0  0  0
 35 68  1  0  0  0
 36 56  1  0  0  0
 36108  1  0  0  0
 37 39  1  0  0  0
 37 47  1  0  0  0
 37 66  1  0  0  0
 37109  1  0  0  0
 38 43  2  0  0  0
 38 46  1  0  0  0
 38 47  1  0  0  0
 39 64  1  0  0  0
 39 67  2  0  0  0
 40 52  1  0  0  0
 40 53  2  0  0  0
 40 58  1  0  0  0
 41110  1  0  0  0
 41111  1  0  0  0
 41112  1  0  0  0
 41 48  1  0  0  0
 42 43  1  0  0  0
 42 66  1  0  0  0
 42113  1  0  0  0
 42114  1  0  0  0
 43 44  1  0  0  0
 44115  1  0  0  0
 45 46  2  0  0  0
 45116  1  0  0  0
 46117  1  0  0  0
 47118  1  0  0  0
 47119  1  0  0  0
 48 56  1  0  0  0
 48 65  1  0  0  0
 48120  1  0  0  0
 49 50  1  0  0  0
 49 53  1  0  0  0
 49 64  1  0  0  0
 49121  1  0  0  0
 50 51  1  0  0  0
 50122  1  0  0  0
 50123  1  0  0  0
 51 52  1  0  0  0
 51124  1  0  0  0
 51125  1  0  0  0
 52126  1  0  0  0
 52127  1  0  0  0
 53 54  1  0  0  0
 54 55  2  0  0  0
 54128  1  0  0  0
 55 57  1  0  0  0
 55129  1  0  0  0
 56 69  2  0  0  0
 57 58  2  0  0  0
 57130  1  0  0  0
 58131  1  0  0  0
 59 60  1  0  0  0
 59 61  1  0  0  0
 59 62  1  0  0  0
 60132  1  0  0  0
 60133  1  0  0  0
 60134  1  0  0  0
 61135  1  0  0  0
 61136  1  0  0  0
 61137  1  0  0  0
 62138  1  0  0  0
 62139  1  0  0  0
 62140  1  0  0  0
 63 65  1  0  0  0
 63141  1  0  0  0
 63142  1  0  0  0
 63143  1  0  0  0
 64144  1  0  0  0
 65145  1  0  0  0
 68 82  1  0  0  0
 71 72  2  0  0  0
 71 85  1  0  0  0
 71146  1  0  0  0
 72 73  1  0  0  0
 72 83  1  0  0  0
 73 74  2  0  0  0
 73 75  1  0  0  0
 74 76  1  0  0  0
 74 85  1  0  0  0
 75147  1  0  0  0
 75148  1  0  0  0
 75149  1  0  0  0
 76150  1  0  0  0
 76151  1  0  0  0
 76152  1  0  0  0
 77153  1  0  0  0
 77154  1  0  0  0
 77155  1  0  0  0
 77 83  1  0  0  0
 78156  1  0  0  0
 78157  1  0  0  0
 78158  1  0  0  0
 78 84  1  0  0  0
 79 82  1  0  0  0
 79 83  1  0  0  0
 79159  1  0  0  0
 79160  1  0  0  0
 80 84  1  0  0  0
 80 85  1  0  0  0
 80161  1  0  0  0
 80162  1  0  0  0
 81 84  1  0  0  0
 81 86  1  0  0  0
 81163  1  0  0  0
 81164  1  0  0  0
 82165  1  0  0  0
 82166  1  0  0  0
 83167  1  0  0  0
 84168  1  0  0  0
 86169  1  0  0  0
M  ISO  4   1 100  68 101  82 101  86 100
M  END
> <chiral flag>
0

> <version>
0

> <s_m_source_file>
/data/baiqing/PycharmProjects/Reinvent-master-3.2/result/LINK_invent/BTK/process_docking_weight1_custom_sum_contain_oxygen_bond_distance_aromatic_linkinvent_7_9_3/rearranged_h_0091.sdf

> <i_m_source_file_index>
44

> <r_mmod_Potential_Energy-OPLS-2005>
-110.056770324707

> <r_mmod_Stretch_Energy-OPLS-2005>
35.9541893005371

> <r_mmod_Bend_Energy-OPLS-2005>
116.571006774902

> <r_mmod_Torsional_Energy-OPLS-2005>
228.136962890625

> <r_mmod_Improper_Torsional_Energy-OPLS-2005>
2.78255844116211

> <r_mmod_Van_der_Waal_Energy-OPLS-2005>
127.957420349121

> <r_mmod_Electrostatic_Energy-OPLS-2005>
-425.452331542969

> <r_mmod_Solvation_Energy-OPLS-2005>
-208.210250854492

> <b_mmod_Minimization_Converged-OPLS-2005>
0

> <r_mmod_RMS_Derivative-OPLS-2005>
2.79994821548462

$$$$
45
                    3D
 Structure written by MMmdl.
154162  0  0  1  0            999 V2000
  -30.6679  -14.4798   20.5255 C   0  0  0  0  0  0
  -30.4191  -12.2966   19.4292 C   0  0  0  0  0  0
  -29.4960  -12.4898   18.2075 C   0  0  0  0  0  0
  -28.0144  -12.3574   18.6149 C   0  0  0  0  0  0
  -27.6546  -13.2031   19.8661 C   0  0  2  0  0  0
  -28.6932  -12.9951   20.9922 C   0  0  0  0  0  0
  -25.2559  -13.8142   20.5643 C   0  0  0  0  0  0
  -24.1813  -13.0416   20.9179 C   0  0  0  0  0  0
  -24.6361  -11.6893   20.8722 C   0  0  0  0  0  0
  -23.9030  -10.4288   21.0399 C   0  0  0  0  0  0
  -24.3596   -9.4211   21.9177 C   0  0  0  0  0  0
  -23.6277   -8.2243   22.0752 C   0  0  0  0  0  0
  -22.4263   -8.0269   21.3540 C   0  0  0  0  0  0
  -21.9894   -9.0239   20.4641 C   0  0  0  0  0  0
  -22.7211  -10.2123   20.3045 C   0  0  0  0  0  0
  -21.6853   -6.0722   22.5274 C   0  0  0  0  0  0
  -21.4015   -6.5628   23.8205 C   0  0  0  0  0  0
  -21.3660   -5.6787   24.9171 C   0  0  0  0  0  0
  -21.6042   -4.3053   24.7228 C   0  0  0  0  0  0
  -21.8822   -3.8140   23.4351 C   0  0  0  0  0  0
  -21.9192   -4.6950   22.3403 C   0  0  0  0  0  0
  -22.7848  -13.5231   21.1844 C   0  0  0  0  0  0
  -22.1661   -4.2134   21.0979 F   0  0  0  0  0  0
  -21.5630   -3.4535   25.7745 F   0  0  0  0  0  0
  -30.0213  -13.2907   20.4362 N   0  0  0  0  0  0
  -26.2971  -12.9300   20.3296 N   0  0  0  0  0  0
  -25.9277  -11.6471   20.5735 N   0  0  0  0  0  0
  -22.0481  -12.8215   22.0399 N   0  0  0  0  0  0
  -25.4281  -15.1850   20.4010 N   0  0  0  0  0  0
  -31.8221  -14.6490   20.1217 O   0  0  0  0  0  0
  -21.6633   -6.8862   21.4234 O   0  0  0  0  0  0
  -22.3537  -14.5535   20.6691 O   0  0  0  0  0  0
  -24.6151  -31.8682   23.2129 C   0  0  0  0  0  0
  -25.9031  -32.4831   23.8419 C   0  0  1  0  0  0
  -27.2182  -27.4133   20.0999 C   0  0  0  0  0  0
  -25.5895  -33.8635   24.2328 N   0  0  0  0  0  0
  -23.4031  -30.4918   21.5549 C   0  0  2  0  0  0
  -24.8462  -28.9618   20.1132 C   0  0  0  0  0  0
  -22.7428  -29.4627   22.5006 C   0  0  0  0  0  0
  -18.0273  -28.1341   22.8490 C   0  0  0  0  0  0
  -24.1505  -36.7321   23.2635 C   0  0  0  0  0  0
  -25.9359  -30.8265   21.3697 C   0  0  0  0  0  0
  -26.0091  -29.4618   20.7132 C   0  0  0  0  0  0
  -27.1998  -28.6944   20.7026 C   0  0  0  0  0  0
  -26.0338  -26.9386   19.4887 C   0  0  0  0  0  0
  -24.8544  -27.7015   19.4959 C   0  0  0  0  0  0
  -23.6108  -29.8306   20.1665 C   0  0  0  0  0  0
  -25.4130  -36.3118   24.0327 C   0  0  1  0  0  0
  -20.5867  -28.3621   23.1328 C   0  0  2  0  0  0
  -20.6770  -26.9353   22.5425 C   0  0  0  0  0  0
  -19.5740  -26.6360   21.5215 C   0  0  0  0  0  0
  -18.1913  -26.7897   22.1618 C   0  0  0  0  0  0
  -19.1523  -28.8806   23.2902 C   0  0  0  0  0  0
  -18.9455  -30.1422   23.8886 C   0  0  0  0  0  0
  -17.6462  -30.6569   24.0538 C   0  0  0  0  0  0
  -25.9050  -34.9484   23.5120 C   0  0  0  0  0  0
  -16.5348  -29.9054   23.6331 C   0  0  0  0  0  0
  -16.7257  -28.6466   23.0339 C   0  0  0  0  0  0
  -26.4445  -31.6599   25.0726 C   0  0  0  0  0  0
  -25.3689  -31.3681   26.1445 C   0  0  0  0  0  0
  -27.0267  -30.3048   24.6088 C   0  0  0  0  0  0
  -27.6048  -32.4298   25.7484 C   0  0  0  0  0  0
  -27.5603  -37.1805   24.8449 C   0  0  0  0  0  0
  -21.4148  -29.3012   22.3758 N   0  0  0  0  0  0
  -26.4312  -37.3799   23.9397 N   0  0  0  0  0  0
  -24.6698  -31.0772   22.1040 N   0  0  0  0  0  0
  -23.4218  -28.8173   23.3028 O   0  0  0  0  0  0
  -28.3839  -26.6669   20.1357 O   0  0  0  0  0  0
  -26.5615  -34.8939   22.4683 O   0  0  0  0  0  0
  -23.5334  -32.1450   23.7512 O   0  0  0  0  0  0
  -27.4848  -19.6167   20.6635 C   0  0  0  0  0  0
  -26.8540  -21.9572   20.7007 C   0  0  0  0  0  0
  -28.0384  -18.2400   20.4258 C   0  0  0  0  0  0
  -26.5391  -23.4091   20.4683 C   0  0  0  0  0  0
  -29.3507  -18.0032   21.2056 C   0  0  0  0  0  0
  -27.6042  -24.4257   20.9669 C   0  0  0  0  0  0
  -30.3071  -16.9224   20.6523 C   0  0  0  0  0  0
  -28.3195  -25.2526   19.8590 C   0  0  0  0  0  0
  -26.8682  -19.9658   21.8016 N   0  0  0  0  0  0
  -26.5187  -21.3121   21.8289 N   0  0  0  0  0  0
  -29.8957  -15.5300   20.8678 N   0  0  0  0  0  0
  -27.6787  -20.9455   19.5160 S   0  0  0  0  0  0
  -31.4664  -12.3941   19.1367 H   0  0  0  0  0  0
  -30.3174  -11.2901   19.8383 H   0  0  0  0  0  0
  -29.7391  -11.7584   17.4353 H   0  0  0  0  0  0
  -29.6703  -13.4713   17.7640 H   0  0  0  0  0  0
  -27.8197  -11.3029   18.8117 H   0  0  0  0  0  0
  -27.3711  -12.6329   17.7790 H   0  0  0  0  0  0
  -27.6929  -14.2477   19.5561 H   0  0  0  0  0  0
  -28.6677  -11.9654   21.3519 H   0  0  0  0  0  0
  -28.4624  -13.6164   21.8594 H   0  0  0  0  0  0
  -25.2743   -9.5689   22.4746 H   0  0  0  0  0  0
  -23.9984   -7.4642   22.7478 H   0  0  0  0  0  0
  -21.0829   -8.8750   19.8950 H   0  0  0  0  0  0
  -22.3668  -10.9652   19.6151 H   0  0  0  0  0  0
  -21.2010   -7.6146   23.9705 H   0  0  0  0  0  0
  -21.1476   -6.0521   25.9069 H   0  0  0  0  0  0
  -22.0603   -2.7603   23.2858 H   0  0  0  0  0  0
  -22.4098  -11.9865   22.4761 H   0  0  0  0  0  0
  -21.1098  -13.1240   22.2591 H   0  0  0  0  0  0
  -24.6591  -15.8388   20.4969 H   0  0  0  0  0  0
  -26.2639  -15.6095   20.0201 H   0  0  0  0  0  0
  -26.7105  -32.5528   23.1194 H   0  0  0  0  0  0
  -25.0005  -33.9805   25.0439 H   0  0  0  0  0  0
  -22.6908  -31.3094   21.4219 H   0  0  0  0  0  0
  -23.3768  -35.9652   23.3299 H   0  0  0  0  0  0
  -24.3573  -36.8930   22.2043 H   0  0  0  0  0  0
  -23.7283  -37.6530   23.6654 H   0  0  0  0  0  0
  -26.0534  -31.5966   20.6059 H   0  0  0  0  0  0
  -26.8241  -30.8758   21.9870 H   0  0  0  0  0  0
  -28.0959  -29.0721   21.1757 H   0  0  0  0  0  0
  -25.9856  -25.9761   19.0053 H   0  0  0  0  0  0
  -23.9625  -27.3146   19.0236 H   0  0  0  0  0  0
  -23.7154  -30.6089   19.4123 H   0  0  0  0  0  0
  -22.7344  -29.2489   19.8718 H   0  0  0  0  0  0
  -25.1314  -36.1992   25.0819 H   0  0  0  0  0  0
  -20.9955  -28.3213   24.1445 H   0  0  0  0  0  0
  -20.5714  -26.2208   23.3620 H   0  0  0  0  0  0
  -21.6635  -26.7423   22.1179 H   0  0  0  0  0  0
  -19.6891  -25.6277   21.1214 H   0  0  0  0  0  0
  -19.6688  -27.3221   20.6785 H   0  0  0  0  0  0
  -17.4198  -26.6664   21.4005 H   0  0  0  0  0  0
  -18.0249  -26.0044   22.9007 H   0  0  0  0  0  0
  -19.7950  -30.7220   24.2261 H   0  0  0  0  0  0
  -17.5021  -31.6254   24.5127 H   0  0  0  0  0  0
  -15.5338  -30.2922   23.7699 H   0  0  0  0  0  0
  -15.8656  -28.0805   22.7012 H   0  0  0  0  0  0
  -24.5957  -30.6929   25.7764 H   0  0  0  0  0  0
  -24.8745  -32.2785   26.4828 H   0  0  0  0  0  0
  -25.8018  -30.8925   27.0254 H   0  0  0  0  0  0
  -26.2798  -29.6785   24.1181 H   0  0  0  0  0  0
  -27.4077  -29.7293   25.4535 H   0  0  0  0  0  0
  -27.8620  -30.4350   23.9205 H   0  0  0  0  0  0
  -27.2730  -33.3637   26.2036 H   0  0  0  0  0  0
  -28.3863  -32.6770   25.0286 H   0  0  0  0  0  0
  -28.0687  -31.8407   26.5398 H   0  0  0  0  0  0
  -28.2594  -38.0130   24.7530 H   0  0  0  0  0  0
  -28.1132  -36.2657   24.6250 H   0  0  0  0  0  0
  -27.2285  -37.1389   25.8838 H   0  0  0  0  0  0
  -20.9326  -29.8735   21.6972 H   0  0  0  0  0  0
  -26.0206  -38.2870   24.1421 H   0  0  0  0  0  0
  -28.2046  -18.1261   19.3540 H   0  0  0  0  0  0
  -27.2892  -17.4944   20.6992 H   0  0  0  0  0  0
  -25.5984  -23.6121   20.9842 H   0  0  0  0  0  0
  -26.3125  -23.5502   19.4130 H   0  0  0  0  0  0
  -29.1322  -17.8385   22.2613 H   0  0  0  0  0  0
  -29.9109  -18.9397   21.1723 H   0  0  0  0  0  0
  -28.3447  -23.9173   21.5841 H   0  0  0  0  0  0
  -27.1101  -25.1128   21.6530 H   0  0  0  0  0  0
  -31.2788  -17.0624   21.1272 H   0  0  0  0  0  0
  -30.4645  -17.0887   19.5839 H   0  0  0  0  0  0
  -27.9112  -25.0705   18.8661 H   0  0  0  0  0  0
  -29.3450  -24.8928   19.7880 H   0  0  0  0  0  0
  -28.9404  -15.3418   21.1343 H   0  0  0  0  0  0
  1 25  1  0  0  0
  1 30  2  0  0  0
  1 81  1  0  0  0
  2  3  1  0  0  0
  2 25  1  0  0  0
  2 83  1  0  0  0
  2 84  1  0  0  0
  3  4  1  0  0  0
  3 85  1  0  0  0
  3 86  1  0  0  0
  4  5  1  0  0  0
  4 87  1  0  0  0
  4 88  1  0  0  0
  5  6  1  0  0  0
  5 26  1  0  0  0
  5 89  1  0  0  0
  6 25  1  0  0  0
  6 90  1  0  0  0
  6 91  1  0  0  0
  7  8  2  0  0  0
  7 26  1  0  0  0
  7 29  1  0  0  0
  8  9  1  0  0  0
  8 22  1  0  0  0
  9 10  1  0  0  0
  9 27  2  0  0  0
 10 11  2  0  0  0
 10 15  1  0  0  0
 11 12  1  0  0  0
 11 92  1  0  0  0
 12 13  2  0  0  0
 12 93  1  0  0  0
 13 14  1  0  0  0
 13 31  1  0  0  0
 14 15  2  0  0  0
 14 94  1  0  0  0
 15 95  1  0  0  0
 16 17  2  0  0  0
 16 21  1  0  0  0
 16 31  1  0  0  0
 17 18  1  0  0  0
 17 96  1  0  0  0
 18 19  2  0  0  0
 18 97  1  0  0  0
 19 20  1  0  0  0
 19 24  1  0  0  0
 20 21  2  0  0  0
 20 98  1  0  0  0
 21 23  1  0  0  0
 22 28  1  0  0  0
 22 32  2  0  0  0
 26 27  1  0  0  0
 28 99  1  0  0  0
 28100  1  0  0  0
 29101  1  0  0  0
 29102  1  0  0  0
 33 34  1  0  0  0
 33 66  1  0  0  0
 33 70  2  0  0  0
 34 36  1  0  0  0
 34 59  1  0  0  0
 34103  1  0  0  0
 35 44  2  0  0  0
 35 45  1  0  0  0
 35 68  1  0  0  0
 36 56  1  0  0  0
 36104  1  0  0  0
 37 39  1  0  0  0
 37 47  1  0  0  0
 37 66  1  0  0  0
 37105  1  0  0  0
 38 43  2  0  0  0
 38 46  1  0  0  0
 38 47  1  0  0  0
 39 64  1  0  0  0
 39 67  2  0  0  0
 40 52  1  0  0  0
 40 53  2  0  0  0
 40 58  1  0  0  0
 41106  1  0  0  0
 41107  1  0  0  0
 41108  1  0  0  0
 41 48  1  0  0  0
 42 43  1  0  0  0
 42 66  1  0  0  0
 42109  1  0  0  0
 42110  1  0  0  0
 43 44  1  0  0  0
 44111  1  0  0  0
 45 46  2  0  0  0
 45112  1  0  0  0
 46113  1  0  0  0
 47114  1  0  0  0
 47115  1  0  0  0
 48 56  1  0  0  0
 48 65  1  0  0  0
 48116  1  0  0  0
 49 50  1  0  0  0
 49 53  1  0  0  0
 49 64  1  0  0  0
 49117  1  0  0  0
 50 51  1  0  0  0
 50118  1  0  0  0
 50119  1  0  0  0
 51 52  1  0  0  0
 51120  1  0  0  0
 51121  1  0  0  0
 52122  1  0  0  0
 52123  1  0  0  0
 53 54  1  0  0  0
 54 55  2  0  0  0
 54124  1  0  0  0
 55 57  1  0  0  0
 55125  1  0  0  0
 56 69  2  0  0  0
 57 58  2  0  0  0
 57126  1  0  0  0
 58127  1  0  0  0
 59 60  1  0  0  0
 59 61  1  0  0  0
 59 62  1  0  0  0
 60128  1  0  0  0
 60129  1  0  0  0
 60130  1  0  0  0
 61131  1  0  0  0
 61132  1  0  0  0
 61133  1  0  0  0
 62134  1  0  0  0
 62135  1  0  0  0
 62136  1  0  0  0
 63 65  1  0  0  0
 63137  1  0  0  0
 63138  1  0  0  0
 63139  1  0  0  0
 64140  1  0  0  0
 65141  1  0  0  0
 68 78  1  0  0  0
 71 73  1  0  0  0
 71 79  2  0  0  0
 71 82  1  0  0  0
 72 74  1  0  0  0
 72 80  2  0  0  0
 72 82  1  0  0  0
 73 75  1  0  0  0
 73142  1  0  0  0
 73143  1  0  0  0
 74 76  1  0  0  0
 74144  1  0  0  0
 74145  1  0  0  0
 75 77  1  0  0  0
 75146  1  0  0  0
 75147  1  0  0  0
 76 78  1  0  0  0
 76148  1  0  0  0
 76149  1  0  0  0
 77 81  1  0  0  0
 77150  1  0  0  0
 77151  1  0  0  0
 78152  1  0  0  0
 78153  1  0  0  0
 79 80  1  0  0  0
 81154  1  0  0  0
M  ISO  4   1 100  68 101  78 101  81 100
M  END
> <chiral flag>
0

> <version>
0

> <s_m_source_file>
/data/baiqing/PycharmProjects/Reinvent-master-3.2/result/LINK_invent/BTK/process_docking_weight1_custom_sum_contain_oxygen_bond_distance_aromatic_linkinvent_7_9_3/rearranged_h_0091.sdf

> <i_m_source_file_index>
45

> <r_mmod_Potential_Energy-OPLS-2005>
-146.229385375977

> <r_mmod_Stretch_Energy-OPLS-2005>
34.8651962280273

> <r_mmod_Bend_Energy-OPLS-2005>
104.316329956055

> <r_mmod_Torsional_Energy-OPLS-2005>
188.15510559082

> <r_mmod_Improper_Torsional_Energy-OPLS-2005>
5.84799766540527

> <r_mmod_Van_der_Waal_Energy-OPLS-2005>
127.00846862793

> <r_mmod_Electrostatic_Energy-OPLS-2005>
-391.797729492188

> <r_mmod_Solvation_Energy-OPLS-2005>
-231.606857299805

> <b_mmod_Minimization_Converged-OPLS-2005>
0

> <r_mmod_RMS_Derivative-OPLS-2005>
3.66477298736572

$$$$
46
                    3D
 Structure written by MMmdl.
162170  0  0  1  0            999 V2000
  -30.4097  -15.3265   20.2923 C   0  0  0  0  0  0
  -30.4523  -12.8235   19.5496 C   0  0  0  0  0  0
  -29.5716  -12.4181   18.3353 C   0  0  0  0  0  0
  -28.0864  -12.2590   18.7223 C   0  0  0  0  0  0
  -27.5990  -13.2644   19.7994 C   0  0  2  0  0  0
  -28.6264  -13.5038   20.9172 C   0  0  0  0  0  0
  -25.2374  -13.8234   20.5721 C   0  0  0  0  0  0
  -24.1713  -13.0440   20.9236 C   0  0  0  0  0  0
  -24.6356  -11.6933   20.8771 C   0  0  0  0  0  0
  -23.9067  -10.4292   21.0419 C   0  0  0  0  0  0
  -24.3633   -9.4206   21.9185 C   0  0  0  0  0  0
  -23.6305   -8.2240   22.0753 C   0  0  0  0  0  0
  -22.4282   -8.0282   21.3545 C   0  0  0  0  0  0
  -21.9921   -9.0263   20.4649 C   0  0  0  0  0  0
  -22.7250  -10.2135   20.3061 C   0  0  0  0  0  0
  -21.6856   -6.0744   22.5274 C   0  0  0  0  0  0
  -21.4015   -6.5646   23.8211 C   0  0  0  0  0  0
  -21.3656   -5.6794   24.9174 C   0  0  0  0  0  0
  -21.6041   -4.3057   24.7220 C   0  0  0  0  0  0
  -21.8816   -3.8153   23.4340 C   0  0  0  0  0  0
  -21.9191   -4.6972   22.3399 C   0  0  0  0  0  0
  -22.7744  -13.5215   21.1912 C   0  0  0  0  0  0
  -22.1663   -4.2158   21.0977 F   0  0  0  0  0  0
  -21.5625   -3.4543   25.7730 F   0  0  0  0  0  0
  -29.8550  -14.0053   20.2791 N   0  0  0  0  0  0
  -26.2765  -12.9467   20.3148 N   0  0  0  0  0  0
  -25.9272  -11.6602   20.5726 N   0  0  0  0  0  0
  -22.0402  -12.8201   22.0466 N   0  0  0  0  0  0
  -25.4061  -15.1967   20.4198 N   0  0  0  0  0  0
  -31.6507  -15.2773   20.2550 O   0  0  0  0  0  0
  -21.6643   -6.8885   21.4238 O   0  0  0  0  0  0
  -22.3431  -14.5522   20.6755 O   0  0  0  0  0  0
  -24.6611  -31.8271   23.1726 C   0  0  0  0  0  0
  -25.9295  -32.4598   23.8177 C   0  0  1  0  0  0
  -27.2067  -26.9332   20.2099 C   0  0  0  0  0  0
  -25.5984  -33.8412   24.2081 N   0  0  0  0  0  0
  -23.4734  -30.4391   21.5216 C   0  0  2  0  0  0
  -24.9266  -28.8272   20.1156 C   0  0  0  0  0  0
  -22.7664  -29.4443   22.4791 C   0  0  0  0  0  0
  -18.0331  -28.1385   22.8470 C   0  0  0  0  0  0
  -24.1499  -36.7212   23.2644 C   0  0  0  0  0  0
  -26.0408  -30.6364   21.4021 C   0  0  0  0  0  0
  -26.1084  -29.2244   20.7540 C   0  0  0  0  0  0
  -27.2456  -28.2993   20.7747 C   0  0  0  0  0  0
  -26.0076  -26.6971   19.5010 C   0  0  0  0  0  0
  -24.9003  -27.5825   19.4676 C   0  0  0  0  0  0
  -23.7139  -29.7566   20.1469 C   0  0  0  0  0  0
  -25.4130  -36.2958   24.0295 C   0  0  1  0  0  0
  -20.5954  -28.3724   23.1210 C   0  0  2  0  0  0
  -20.6808  -26.9413   22.5392 C   0  0  0  0  0  0
  -19.5791  -26.6384   21.5196 C   0  0  0  0  0  0
  -18.1970  -26.7928   22.1601 C   0  0  0  0  0  0
  -19.1593  -28.8867   23.2832 C   0  0  0  0  0  0
  -18.9501  -30.1451   23.8866 C   0  0  0  0  0  0
  -17.6499  -30.6578   24.0541 C   0  0  0  0  0  0
  -25.9095  -34.9349   23.5007 C   0  0  0  0  0  0
  -16.5386  -29.9069   23.6326 C   0  0  0  0  0  0
  -16.7313  -28.6486   23.0355 C   0  0  0  0  0  0
  -26.4544  -31.6537   25.0705 C   0  0  0  0  0  0
  -25.3671  -31.3813   26.1371 C   0  0  0  0  0  0
  -27.0441  -30.2904   24.6434 C   0  0  0  0  0  0
  -27.6029  -32.4344   25.7518 C   0  0  0  0  0  0
  -27.5560  -37.1759   24.8462 C   0  0  0  0  0  0
  -21.4331  -29.3037   22.3561 N   0  0  0  0  0  0
  -26.4272  -37.3691   23.9408 N   0  0  0  0  0  0
  -24.7460  -30.9952   22.0860 N   0  0  0  0  0  0
  -23.4219  -28.8016   23.3017 O   0  0  0  0  0  0
  -28.2194  -25.8374   20.2479 O   0  0  0  0  0  0
  -26.5702  -34.8888   22.4604 O   0  0  0  0  0  0
  -23.5682  -32.1235   23.6846 O   0  0  0  0  0  0
  -28.7390  -18.2304   18.0594 C   0  0  0  0  0  0
  -28.7562  -19.4305   18.7767 C   0  0  0  0  0  0
  -29.1608  -16.9799   18.5779 C   0  0  0  0  0  0
  -29.6792  -16.8319   19.9177 C   0  0  0  0  0  0
  -29.1986  -19.4719   20.0924 C   0  0  0  0  0  0
  -26.1367  -24.6728   22.3862 C   0  0  0  0  0  0
  -30.4008  -15.8324   16.6937 C   0  0  0  0  0  0
  -27.8544  -15.7590   16.6942 C   0  0  0  0  0  0
  -28.9919  -21.0450   20.8021 C   0  0  0  0  0  0
  -26.6423  -23.9310   21.1367 C   0  0  0  0  0  0
  -28.7458  -22.6856   20.0811 C   0  0  0  0  0  0
  -29.1320  -15.8416   17.5564 C   0  0  0  0  0  0
  -28.0972  -24.2443   20.7054 C   0  0  1  0  0  0
  -29.6682  -18.1565   20.6113 N   0  0  0  0  0  0
  -31.4591  -13.0475   19.1941 H   0  0  0  0  0  0
  -30.5693  -11.9819   20.2341 H   0  0  0  0  0  0
  -29.9354  -11.4691   17.9420 H   0  0  0  0  0  0
  -29.7018  -13.0942   17.4954 H   0  0  0  0  0  0
  -27.9821  -11.2456   19.1089 H   0  0  0  0  0  0
  -27.4525  -12.3039   17.8364 H   0  0  0  0  0  0
  -27.4773  -14.2098   19.2782 H   0  0  0  0  0  0
  -28.8042  -12.5975   21.4984 H   0  0  0  0  0  0
  -28.2517  -14.2526   21.6165 H   0  0  0  0  0  0
  -25.2780   -9.5680   22.4763 H   0  0  0  0  0  0
  -24.0012   -7.4633   22.7475 H   0  0  0  0  0  0
  -21.0855   -8.8796   19.8956 H   0  0  0  0  0  0
  -22.3727  -10.9681   19.6181 H   0  0  0  0  0  0
  -21.2011   -7.6155   23.9718 H   0  0  0  0  0  0
  -21.1483   -6.0525   25.9073 H   0  0  0  0  0  0
  -22.0598   -2.7615   23.2836 H   0  0  0  0  0  0
  -22.4061  -11.9885   22.4865 H   0  0  0  0  0  0
  -21.1007  -13.1199   22.2670 H   0  0  0  0  0  0
  -24.6388  -15.8492   20.5390 H   0  0  0  0  0  0
  -26.2588  -15.6443   20.1111 H   0  0  0  0  0  0
  -26.7371  -32.5160   23.0897 H   0  0  0  0  0  0
  -25.0079  -33.9479   25.0195 H   0  0  0  0  0  0
  -22.7845  -31.2712   21.3544 H   0  0  0  0  0  0
  -23.3758  -35.9545   23.3286 H   0  0  0  0  0  0
  -24.3568  -36.8883   22.2062 H   0  0  0  0  0  0
  -23.7273  -37.6404   23.6714 H   0  0  0  0  0  0
  -26.2191  -31.3760   20.6211 H   0  0  0  0  0  0
  -26.9028  -30.6951   22.0548 H   0  0  0  0  0  0
  -28.1432  -28.6059   21.2934 H   0  0  0  0  0  0
  -25.8983  -25.7587   18.9788 H   0  0  0  0  0  0
  -24.0039  -27.2786   18.9422 H   0  0  0  0  0  0
  -23.8760  -30.5281   19.3936 H   0  0  0  0  0  0
  -22.8232  -29.2137   19.8233 H   0  0  0  0  0  0
  -25.1326  -36.1745   25.0780 H   0  0  0  0  0  0
  -21.0038  -28.3318   24.1335 H   0  0  0  0  0  0
  -20.5680  -26.2335   23.3611 H   0  0  0  0  0  0
  -21.6675  -26.7400   22.1199 H   0  0  0  0  0  0
  -19.6958  -25.6303   21.1206 H   0  0  0  0  0  0
  -19.6732  -27.3209   20.6731 H   0  0  0  0  0  0
  -17.4233  -26.6691   21.4004 H   0  0  0  0  0  0
  -18.0362  -26.0058   22.8985 H   0  0  0  0  0  0
  -19.7973  -30.7272   24.2237 H   0  0  0  0  0  0
  -17.5061  -31.6255   24.5152 H   0  0  0  0  0  0
  -15.5383  -30.2965   23.7669 H   0  0  0  0  0  0
  -15.8717  -28.0775   22.7089 H   0  0  0  0  0  0
  -24.5840  -30.7168   25.7704 H   0  0  0  0  0  0
  -24.8873  -32.3032   26.4664 H   0  0  0  0  0  0
  -25.7896  -30.9073   27.0239 H   0  0  0  0  0  0
  -26.3108  -29.6586   24.1406 H   0  0  0  0  0  0
  -27.3952  -29.7255   25.5081 H   0  0  0  0  0  0
  -27.9060  -30.4100   23.9867 H   0  0  0  0  0  0
  -27.2569  -33.3671   26.1982 H   0  0  0  0  0  0
  -28.3895  -32.6860   25.0393 H   0  0  0  0  0  0
  -28.0628  -31.8554   26.5531 H   0  0  0  0  0  0
  -28.2553  -38.0072   24.7475 H   0  0  0  0  0  0
  -28.1071  -36.2589   24.6313 H   0  0  0  0  0  0
  -27.2275  -37.1444   25.8866 H   0  0  0  0  0  0
  -20.9583  -29.8736   21.6701 H   0  0  0  0  0  0
  -26.0120  -38.2752   24.1410 H   0  0  0  0  0  0
  -28.4020  -18.3040   17.0374 H   0  0  0  0  0  0
  -28.4078  -20.3358   18.2983 H   0  0  0  0  0  0
  -26.7081  -24.3877   23.2700 H   0  0  0  0  0  0
  -25.0931  -24.4248   22.5816 H   0  0  0  0  0  0
  -26.1918  -25.7553   22.2939 H   0  0  0  0  0  0
  -31.2951  -15.7320   17.3084 H   0  0  0  0  0  0
  -30.4983  -16.7510   16.1147 H   0  0  0  0  0  0
  -30.3937  -15.0004   15.9906 H   0  0  0  0  0  0
  -26.9580  -15.7352   17.3146 H   0  0  0  0  0  0
  -27.8590  -14.8394   16.1066 H   0  0  0  0  0  0
  -27.7559  -16.5758   15.9798 H   0  0  0  0  0  0
  -29.8158  -21.1466   21.5096 H   0  0  0  0  0  0
  -28.1229  -20.8970   21.4428 H   0  0  0  0  0  0
  -25.9579  -24.0653   20.3029 H   0  0  0  0  0  0
  -26.5716  -22.8676   21.3652 H   0  0  0  0  0  0
  -28.1254  -22.4960   19.2060 H   0  0  0  0  0  0
  -29.7169  -22.9399   19.6589 H   0  0  0  0  0  0
  -29.0976  -14.9304   18.1065 H   0  0  0  0  0  0
  -28.6521  -24.3056   21.6424 H   0  0  0  0  0  0
  1 25  1  0  0  0
  1 30  2  0  0  0
  1 74  1  0  0  0
  2  3  1  0  0  0
  2 25  1  0  0  0
  2 85  1  0  0  0
  2 86  1  0  0  0
  3  4  1  0  0  0
  3 87  1  0  0  0
  3 88  1  0  0  0
  4  5  1  0  0  0
  4 89  1  0  0  0
  4 90  1  0  0  0
  5  6  1  0  0  0
  5 26  1  0  0  0
  5 91  1  0  0  0
  6 25  1  0  0  0
  6 92  1  0  0  0
  6 93  1  0  0  0
  7  8  2  0  0  0
  7 26  1  0  0  0
  7 29  1  0  0  0
  8  9  1  0  0  0
  8 22  1  0  0  0
  9 10  1  0  0  0
  9 27  2  0  0  0
 10 11  2  0  0  0
 10 15  1  0  0  0
 11 12  1  0  0  0
 11 94  1  0  0  0
 12 13  2  0  0  0
 12 95  1  0  0  0
 13 14  1  0  0  0
 13 31  1  0  0  0
 14 15  2  0  0  0
 14 96  1  0  0  0
 15 97  1  0  0  0
 16 17  2  0  0  0
 16 21  1  0  0  0
 16 31  1  0  0  0
 17 18  1  0  0  0
 17 98  1  0  0  0
 18 19  2  0  0  0
 18 99  1  0  0  0
 19 20  1  0  0  0
 19 24  1  0  0  0
 20 21  2  0  0  0
 20100  1  0  0  0
 21 23  1  0  0  0
 22 28  1  0  0  0
 22 32  2  0  0  0
 26 27  1  0  0  0
 28101  1  0  0  0
 28102  1  0  0  0
 29103  1  0  0  0
 29104  1  0  0  0
 33 34  1  0  0  0
 33 66  1  0  0  0
 33 70  2  0  0  0
 34 36  1  0  0  0
 34 59  1  0  0  0
 34105  1  0  0  0
 35 44  2  0  0  0
 35 45  1  0  0  0
 35 68  1  0  0  0
 36 56  1  0  0  0
 36106  1  0  0  0
 37 39  1  0  0  0
 37 47  1  0  0  0
 37 66  1  0  0  0
 37107  1  0  0  0
 38 43  2  0  0  0
 38 46  1  0  0  0
 38 47  1  0  0  0
 39 64  1  0  0  0
 39 67  2  0  0  0
 40 52  1  0  0  0
 40 53  2  0  0  0
 40 58  1  0  0  0
 41108  1  0  0  0
 41109  1  0  0  0
 41110  1  0  0  0
 41 48  1  0  0  0
 42 43  1  0  0  0
 42 66  1  0  0  0
 42111  1  0  0  0
 42112  1  0  0  0
 43 44  1  0  0  0
 44113  1  0  0  0
 45 46  2  0  0  0
 45114  1  0  0  0
 46115  1  0  0  0
 47116  1  0  0  0
 47117  1  0  0  0
 48 56  1  0  0  0
 48 65  1  0  0  0
 48118  1  0  0  0
 49 50  1  0  0  0
 49 53  1  0  0  0
 49 64  1  0  0  0
 49119  1  0  0  0
 50 51  1  0  0  0
 50120  1  0  0  0
 50121  1  0  0  0
 51 52  1  0  0  0
 51122  1  0  0  0
 51123  1  0  0  0
 52124  1  0  0  0
 52125  1  0  0  0
 53 54  1  0  0  0
 54 55  2  0  0  0
 54126  1  0  0  0
 55 57  1  0  0  0
 55127  1  0  0  0
 56 69  2  0  0  0
 57 58  2  0  0  0
 57128  1  0  0  0
 58129  1  0  0  0
 59 60  1  0  0  0
 59 61  1  0  0  0
 59 62  1  0  0  0
 60130  1  0  0  0
 60131  1  0  0  0
 60132  1  0  0  0
 61133  1  0  0  0
 61134  1  0  0  0
 61135  1  0  0  0
 62136  1  0  0  0
 62137  1  0  0  0
 62138  1  0  0  0
 63 65  1  0  0  0
 63139  1  0  0  0
 63140  1  0  0  0
 63141  1  0  0  0
 64142  1  0  0  0
 65143  1  0  0  0
 68 83  1  0  0  0
 71 72  2  0  0  0
 71 73  1  0  0  0
 71144  1  0  0  0
 72 75  1  0  0  0
 72145  1  0  0  0
 73 74  2  0  0  0
 73 82  1  0  0  0
 74 84  1  0  0  0
 75 79  1  0  0  0
 75 84  2  0  0  0
 76 80  1  0  0  0
 76146  1  0  0  0
 76147  1  0  0  0
 76148  1  0  0  0
 77149  1  0  0  0
 77150  1  0  0  0
 77151  1  0  0  0
 77 82  1  0  0  0
 78 82  1  0  0  0
 78152  1  0  0  0
 78153  1  0  0  0
 78154  1  0  0  0
 79 81  1  0  0  0
 79155  1  0  0  0
 79156  1  0  0  0
 80157  1  0  0  0
 80158  1  0  0  0
 80 83  1  0  0  0
 81 83  1  0  0  0
 81159  1  0  0  0
 81160  1  0  0  0
 82161  1  0  0  0
 83162  1  0  0  0
M  ISO  4   1 100  68 101  74 100  83 101
M  END
> <chiral flag>
0

> <version>
0

> <s_m_source_file>
/data/baiqing/PycharmProjects/Reinvent-master-3.2/result/LINK_invent/BTK/process_docking_weight1_custom_sum_contain_oxygen_bond_distance_aromatic_linkinvent_7_9_3/rearranged_h_0091.sdf

> <i_m_source_file_index>
46

> <r_mmod_Potential_Energy-OPLS-2005>
1396.9716796875

> <r_mmod_Stretch_Energy-OPLS-2005>
623.996887207031

> <r_mmod_Bend_Energy-OPLS-2005>
457.714538574219

> <r_mmod_Torsional_Energy-OPLS-2005>
259.836090087891

> <r_mmod_Improper_Torsional_Energy-OPLS-2005>
13.6226997375488

> <r_mmod_Van_der_Waal_Energy-OPLS-2005>
133.18180847168

> <r_mmod_Electrostatic_Energy-OPLS-2005>
-386.5615234375

> <r_mmod_Solvation_Energy-OPLS-2005>
-202.583023071289

> <b_mmod_Minimization_Converged-OPLS-2005>
0

> <r_mmod_RMS_Derivative-OPLS-2005>
2.86849880218506

$$$$
47
                    3D
 Structure written by MMmdl.
160168  0  0  1  0            999 V2000
  -30.6601  -14.5380   20.4892 C   0  0  0  0  0  0
  -30.4319  -12.3212   19.4503 C   0  0  0  0  0  0
  -29.5096  -12.4918   18.2241 C   0  0  0  0  0  0
  -28.0268  -12.3586   18.6268 C   0  0  0  0  0  0
  -27.6612  -13.2074   19.8748 C   0  0  2  0  0  0
  -28.7059  -13.0256   21.0034 C   0  0  0  0  0  0
  -25.2607  -13.8177   20.5710 C   0  0  0  0  0  0
  -24.1851  -13.0452   20.9192 C   0  0  0  0  0  0
  -24.6405  -11.6919   20.8755 C   0  0  0  0  0  0
  -23.9062  -10.4308   21.0416 C   0  0  0  0  0  0
  -24.3619   -9.4223   21.9193 C   0  0  0  0  0  0
  -23.6294   -8.2257   22.0766 C   0  0  0  0  0  0
  -22.4275   -8.0294   21.3547 C   0  0  0  0  0  0
  -21.9915   -9.0277   20.4659 C   0  0  0  0  0  0
  -22.7241  -10.2160   20.3062 C   0  0  0  0  0  0
  -21.6865   -6.0744   22.5273 C   0  0  0  0  0  0
  -21.4016   -6.5643   23.8209 C   0  0  0  0  0  0
  -21.3656   -5.6791   24.9176 C   0  0  0  0  0  0
  -21.6042   -4.3054   24.7221 C   0  0  0  0  0  0
  -21.8818   -3.8152   23.4341 C   0  0  0  0  0  0
  -21.9206   -4.6974   22.3401 C   0  0  0  0  0  0
  -22.7871  -13.5271   21.1820 C   0  0  0  0  0  0
  -22.1669   -4.2166   21.0977 F   0  0  0  0  0  0
  -21.5636   -3.4524   25.7728 F   0  0  0  0  0  0
  -30.0328  -13.3291   20.4462 N   0  0  0  0  0  0
  -26.3033  -12.9319   20.3372 N   0  0  0  0  0  0
  -25.9331  -11.6493   20.5779 N   0  0  0  0  0  0
  -22.0483  -12.8289   22.0379 N   0  0  0  0  0  0
  -25.4348  -15.1901   20.4110 N   0  0  0  0  0  0
  -31.8176  -14.7002   20.0924 O   0  0  0  0  0  0
  -21.6648   -6.8883   21.4234 O   0  0  0  0  0  0
  -22.3572  -14.5575   20.6656 O   0  0  0  0  0  0
  -24.6204  -31.8666   23.2065 C   0  0  0  0  0  0
  -25.9067  -32.4817   23.8380 C   0  0  1  0  0  0
  -27.2269  -27.3795   20.0906 C   0  0  0  0  0  0
  -25.5901  -33.8620   24.2302 N   0  0  0  0  0  0
  -23.4098  -30.4901   21.5509 C   0  0  2  0  0  0
  -24.8506  -28.9523   20.1133 C   0  0  0  0  0  0
  -22.7441  -29.4648   22.4984 C   0  0  0  0  0  0
  -18.0275  -28.1366   22.8491 C   0  0  0  0  0  0
  -24.1472  -36.7318   23.2642 C   0  0  0  0  0  0
  -25.9451  -30.8114   21.3704 C   0  0  0  0  0  0
  -26.0153  -29.4442   20.7116 C   0  0  0  0  0  0
  -27.2023  -28.6667   20.6938 C   0  0  0  0  0  0
  -26.0341  -26.9222   19.4788 C   0  0  0  0  0  0
  -24.8589  -27.6945   19.4928 C   0  0  0  0  0  0
  -23.6171  -29.8267   20.1643 C   0  0  0  0  0  0
  -25.4104  -36.3114   24.0332 C   0  0  1  0  0  0
  -20.5866  -28.3658   23.1313 C   0  0  2  0  0  0
  -20.6756  -26.9394   22.5416 C   0  0  0  0  0  0
  -19.5728  -26.6374   21.5209 C   0  0  0  0  0  0
  -18.1912  -26.7908   22.1622 C   0  0  0  0  0  0
  -19.1527  -28.8827   23.2893 C   0  0  0  0  0  0
  -18.9452  -30.1434   23.8906 C   0  0  0  0  0  0
  -17.6452  -30.6575   24.0559 C   0  0  0  0  0  0
  -25.9048  -34.9480   23.5119 C   0  0  0  0  0  0
  -16.5347  -29.9077   23.6322 C   0  0  0  0  0  0
  -16.7266  -28.6491   23.0353 C   0  0  0  0  0  0
  -26.4465  -31.6616   25.0740 C   0  0  0  0  0  0
  -25.3713  -31.3773   26.1481 C   0  0  0  0  0  0
  -27.0297  -30.3042   24.6180 C   0  0  0  0  0  0
  -27.6039  -32.4351   25.7497 C   0  0  0  0  0  0
  -27.5580  -37.1819   24.8462 C   0  0  0  0  0  0
  -21.4160  -29.3029   22.3720 N   0  0  0  0  0  0
  -26.4288  -37.3810   23.9409 N   0  0  0  0  0  0
  -24.6768  -31.0717   22.1000 N   0  0  0  0  0  0
  -23.4187  -28.8196   23.3051 O   0  0  0  0  0  0
  -28.4071  -26.6397   20.1256 O   0  0  0  0  0  0
  -26.5622  -34.8941   22.4692 O   0  0  0  0  0  0
  -23.5390  -32.1435   23.7438 O   0  0  0  0  0  0
  -28.9779  -19.1623   20.5502 C   0  0  0  0  0  0
  -29.9151  -18.1660   20.3568 C   0  0  0  0  0  0
  -30.9557  -20.0422   21.0161 C   0  0  0  0  0  0
  -32.0814  -20.9590   21.3836 C   0  0  0  0  0  0
  -30.1729  -24.6767   21.5061 C   0  0  0  0  0  0
  -29.8257  -16.7651   19.7758 C   0  0  0  0  0  0
  -29.1031  -22.7543   20.2382 C   0  0  0  0  0  0
  -29.0342  -21.6266   21.3170 C   0  0  0  0  0  0
  -28.4947  -25.2544   19.6725 C   0  0  0  0  0  0
  -28.8981  -24.2192   20.7767 C   0  0  2  0  0  0
  -29.6379  -20.3095   20.9477 N   0  0  0  0  0  0
  -31.1126  -18.7554   20.6700 N   0  3  0  0  0  0
  -29.8465  -15.5990   20.6870 N   0  0  0  0  0  0
  -31.4776  -12.4200   19.1547 H   0  0  0  0  0  0
  -30.3377  -11.3183   19.8696 H   0  0  0  0  0  0
  -29.7559  -11.7509   17.4621 H   0  0  0  0  0  0
  -29.6847  -13.4682   17.7662 H   0  0  0  0  0  0
  -27.8354  -11.3032   18.8275 H   0  0  0  0  0  0
  -27.3853  -12.6297   17.7881 H   0  0  0  0  0  0
  -27.6902  -14.2470   19.5537 H   0  0  0  0  0  0
  -28.6903  -12.0000   21.3776 H   0  0  0  0  0  0
  -28.4740  -13.6594   21.8623 H   0  0  0  0  0  0
  -25.2775   -9.5719   22.4745 H   0  0  0  0  0  0
  -24.0032   -7.4654   22.7475 H   0  0  0  0  0  0
  -21.0857   -8.8776   19.8957 H   0  0  0  0  0  0
  -22.3696  -10.9689   19.6157 H   0  0  0  0  0  0
  -21.1976   -7.6142   23.9713 H   0  0  0  0  0  0
  -21.1485   -6.0517   25.9075 H   0  0  0  0  0  0
  -22.0599   -2.7612   23.2829 H   0  0  0  0  0  0
  -22.4075  -11.9972   22.4818 H   0  0  0  0  0  0
  -21.1084  -13.1306   22.2498 H   0  0  0  0  0  0
  -24.6655  -15.8440   20.5132 H   0  0  0  0  0  0
  -26.2794  -15.6297   20.0666 H   0  0  0  0  0  0
  -26.7151  -32.5503   23.1153 H   0  0  0  0  0  0
  -25.0007  -33.9772   25.0414 H   0  0  0  0  0  0
  -22.7010  -31.3096   21.4140 H   0  0  0  0  0  0
  -23.3742  -35.9647   23.3316 H   0  0  0  0  0  0
  -24.3557  -36.8933   22.2054 H   0  0  0  0  0  0
  -23.7207  -37.6521   23.6658 H   0  0  0  0  0  0
  -26.0747  -31.5810   20.6079 H   0  0  0  0  0  0
  -26.8271  -30.8539   21.9981 H   0  0  0  0  0  0
  -28.1024  -29.0472   21.1553 H   0  0  0  0  0  0
  -25.9573  -25.9751   18.9716 H   0  0  0  0  0  0
  -23.9650  -27.3134   19.0176 H   0  0  0  0  0  0
  -23.7324  -30.6043   19.4091 H   0  0  0  0  0  0
  -22.7369  -29.2548   19.8644 H   0  0  0  0  0  0
  -25.1280  -36.1993   25.0831 H   0  0  0  0  0  0
  -20.9958  -28.3211   24.1427 H   0  0  0  0  0  0
  -20.5638  -26.2272   23.3601 H   0  0  0  0  0  0
  -21.6631  -26.7410   22.1222 H   0  0  0  0  0  0
  -19.6891  -25.6285   21.1228 H   0  0  0  0  0  0
  -19.6667  -27.3191   20.6738 H   0  0  0  0  0  0
  -17.4185  -26.6660   21.4024 H   0  0  0  0  0  0
  -18.0319  -26.0041   22.9008 H   0  0  0  0  0  0
  -19.7934  -30.7240   24.2286 H   0  0  0  0  0  0
  -17.5014  -31.6257   24.5150 H   0  0  0  0  0  0
  -15.5348  -30.2982   23.7637 H   0  0  0  0  0  0
  -15.8662  -28.0807   22.7070 H   0  0  0  0  0  0
  -24.5850  -30.7163   25.7819 H   0  0  0  0  0  0
  -24.8942  -32.2952   26.4928 H   0  0  0  0  0  0
  -25.8027  -30.8930   27.0243 H   0  0  0  0  0  0
  -26.2862  -29.6826   24.1177 H   0  0  0  0  0  0
  -27.3958  -29.7281   25.4686 H   0  0  0  0  0  0
  -27.8749  -30.4337   23.9418 H   0  0  0  0  0  0
  -27.2646  -33.3647   26.2083 H   0  0  0  0  0  0
  -28.3825  -32.6929   25.0309 H   0  0  0  0  0  0
  -28.0723  -31.8482   26.5402 H   0  0  0  0  0  0
  -28.2609  -38.0108   24.7521 H   0  0  0  0  0  0
  -28.1063  -36.2647   24.6270 H   0  0  0  0  0  0
  -27.2305  -37.1449   25.8866 H   0  0  0  0  0  0
  -20.9326  -29.8790   21.6976 H   0  0  0  0  0  0
  -26.0180  -38.2897   24.1417 H   0  0  0  0  0  0
  -27.9051  -19.1443   20.4074 H   0  0  0  0  0  0
  -31.7046  -21.8919   21.7966 H   0  0  0  0  0  0
  -32.6652  -21.1657   20.4865 H   0  0  0  0  0  0
  -32.7024  -20.4538   22.1224 H   0  0  0  0  0  0
  -30.3355  -24.1102   22.4238 H   0  0  0  0  0  0
  -30.1207  -25.7270   21.7850 H   0  0  0  0  0  0
  -31.0520  -24.5423   20.8754 H   0  0  0  0  0  0
  -30.6050  -16.6773   19.0164 H   0  0  0  0  0  0
  -28.8911  -16.7049   19.2143 H   0  0  0  0  0  0
  -28.3542  -22.5355   19.4777 H   0  0  0  0  0  0
  -30.0599  -22.7026   19.7151 H   0  0  0  0  0  0
  -27.9927  -21.4469   21.5839 H   0  0  0  0  0  0
  -29.5095  -21.9486   22.2432 H   0  0  0  0  0  0
  -27.5972  -24.8762   19.1970 H   0  0  0  0  0  0
  -29.2475  -25.2332   18.8863 H   0  0  0  0  0  0
  -28.0834  -24.2011   21.5018 H   0  0  0  0  0  0
  -32.0124  -18.2903   20.6144 H   0  0  0  0  0  0
  -28.9571  -15.3777   21.1051 H   0  0  0  0  0  0
  1 25  1  0  0  0
  1 30  2  0  0  0
  1 83  1  0  0  0
  2  3  1  0  0  0
  2 25  1  0  0  0
  2 84  1  0  0  0
  2 85  1  0  0  0
  3  4  1  0  0  0
  3 86  1  0  0  0
  3 87  1  0  0  0
  4  5  1  0  0  0
  4 88  1  0  0  0
  4 89  1  0  0  0
  5  6  1  0  0  0
  5 26  1  0  0  0
  5 90  1  0  0  0
  6 25  1  0  0  0
  6 91  1  0  0  0
  6 92  1  0  0  0
  7  8  2  0  0  0
  7 26  1  0  0  0
  7 29  1  0  0  0
  8  9  1  0  0  0
  8 22  1  0  0  0
  9 10  1  0  0  0
  9 27  2  0  0  0
 10 11  2  0  0  0
 10 15  1  0  0  0
 11 12  1  0  0  0
 11 93  1  0  0  0
 12 13  2  0  0  0
 12 94  1  0  0  0
 13 14  1  0  0  0
 13 31  1  0  0  0
 14 15  2  0  0  0
 14 95  1  0  0  0
 15 96  1  0  0  0
 16 17  2  0  0  0
 16 21  1  0  0  0
 16 31  1  0  0  0
 17 18  1  0  0  0
 17 97  1  0  0  0
 18 19  2  0  0  0
 18 98  1  0  0  0
 19 20  1  0  0  0
 19 24  1  0  0  0
 20 21  2  0  0  0
 20 99  1  0  0  0
 21 23  1  0  0  0
 22 28  1  0  0  0
 22 32  2  0  0  0
 26 27  1  0  0  0
 28100  1  0  0  0
 28101  1  0  0  0
 29102  1  0  0  0
 29103  1  0  0  0
 33 34  1  0  0  0
 33 66  1  0  0  0
 33 70  2  0  0  0
 34 36  1  0  0  0
 34 59  1  0  0  0
 34104  1  0  0  0
 35 44  2  0  0  0
 35 45  1  0  0  0
 35 68  1  0  0  0
 36 56  1  0  0  0
 36105  1  0  0  0
 37 39  1  0  0  0
 37 47  1  0  0  0
 37 66  1  0  0  0
 37106  1  0  0  0
 38 43  2  0  0  0
 38 46  1  0  0  0
 38 47  1  0  0  0
 39 64  1  0  0  0
 39 67  2  0  0  0
 40 52  1  0  0  0
 40 53  2  0  0  0
 40 58  1  0  0  0
 41107  1  0  0  0
 41108  1  0  0  0
 41109  1  0  0  0
 41 48  1  0  0  0
 42 43  1  0  0  0
 42 66  1  0  0  0
 42110  1  0  0  0
 42111  1  0  0  0
 43 44  1  0  0  0
 44112  1  0  0  0
 45 46  2  0  0  0
 45113  1  0  0  0
 46114  1  0  0  0
 47115  1  0  0  0
 47116  1  0  0  0
 48 56  1  0  0  0
 48 65  1  0  0  0
 48117  1  0  0  0
 49 50  1  0  0  0
 49 53  1  0  0  0
 49 64  1  0  0  0
 49118  1  0  0  0
 50 51  1  0  0  0
 50119  1  0  0  0
 50120  1  0  0  0
 51 52  1  0  0  0
 51121  1  0  0  0
 51122  1  0  0  0
 52123  1  0  0  0
 52124  1  0  0  0
 53 54  1  0  0  0
 54 55  2  0  0  0
 54125  1  0  0  0
 55 57  1  0  0  0
 55126  1  0  0  0
 56 69  2  0  0  0
 57 58  2  0  0  0
 57127  1  0  0  0
 58128  1  0  0  0
 59 60  1  0  0  0
 59 61  1  0  0  0
 59 62  1  0  0  0
 60129  1  0  0  0
 60130  1  0  0  0
 60131  1  0  0  0
 61132  1  0  0  0
 61133  1  0  0  0
 61134  1  0  0  0
 62135  1  0  0  0
 62136  1  0  0  0
 62137  1  0  0  0
 63 65  1  0  0  0
 63138  1  0  0  0
 63139  1  0  0  0
 63140  1  0  0  0
 64141  1  0  0  0
 65142  1  0  0  0
 68 79  1  0  0  0
 71 72  2  0  0  0
 71 81  1  0  0  0
 71143  1  0  0  0
 72 76  1  0  0  0
 72 82  1  0  0  0
 73 74  1  0  0  0
 73 81  1  0  0  0
 73 82  2  0  0  0
 74144  1  0  0  0
 74145  1  0  0  0
 74146  1  0  0  0
 75147  1  0  0  0
 75148  1  0  0  0
 75149  1  0  0  0
 75 80  1  0  0  0
 76 83  1  0  0  0
 76150  1  0  0  0
 76151  1  0  0  0
 77 78  1  0  0  0
 77 80  1  0  0  0
 77152  1  0  0  0
 77153  1  0  0  0
 78 81  1  0  0  0
 78154  1  0  0  0
 78155  1  0  0  0
 79 80  1  0  0  0
 79156  1  0  0  0
 79157  1  0  0  0
 80158  1  0  0  0
 82159  1  0  0  0
 83160  1  0  0  0
M  CHG  1  82   1
M  ISO  4   1 100  68 101  79 101  83 100
M  END
> <chiral flag>
0

> <version>
0

> <s_m_source_file>
/data/baiqing/PycharmProjects/Reinvent-master-3.2/result/LINK_invent/BTK/process_docking_weight1_custom_sum_contain_oxygen_bond_distance_aromatic_linkinvent_7_9_3/rearranged_h_0091.sdf

> <i_m_source_file_index>
47

> <r_mmod_Potential_Energy-OPLS-2005>
-151.112991333008

> <r_mmod_Stretch_Energy-OPLS-2005>
47.2769432067871

> <r_mmod_Bend_Energy-OPLS-2005>
119.747695922852

> <r_mmod_Torsional_Energy-OPLS-2005>
242.59977722168

> <r_mmod_Improper_Torsional_Energy-OPLS-2005>
11.1667919158936

> <r_mmod_Van_der_Waal_Energy-OPLS-2005>
124.952392578125

> <r_mmod_Electrostatic_Energy-OPLS-2005>
-301.333251953125

> <r_mmod_Solvation_Energy-OPLS-2005>
-419.431854248047

> <b_mmod_Minimization_Converged-OPLS-2005>
0

> <r_mmod_RMS_Derivative-OPLS-2005>
3.07006931304932

$$$$
48
                    3D
 Structure written by MMmdl.
160168  0  0  1  0            999 V2000
  -30.6623  -14.8059   20.2858 C   0  0  0  0  0  0
  -30.4265  -12.4724   19.4635 C   0  0  0  0  0  0
  -29.5011  -12.4088   18.2320 C   0  0  0  0  0  0
  -28.0307  -12.2325   18.6666 C   0  0  0  0  0  0
  -27.6115  -13.1757   19.8212 C   0  0  2  0  0  0
  -28.6822  -13.2955   20.9278 C   0  0  0  0  0  0
  -25.2509  -13.8000   20.5809 C   0  0  0  0  0  0
  -24.1754  -13.0331   20.9302 C   0  0  0  0  0  0
  -24.6290  -11.6790   20.8860 C   0  0  0  0  0  0
  -23.8974  -10.4214   21.0478 C   0  0  0  0  0  0
  -24.3553   -9.4130   21.9231 C   0  0  0  0  0  0
  -23.6233   -8.2170   22.0773 C   0  0  0  0  0  0
  -22.4222   -8.0237   21.3547 C   0  0  0  0  0  0
  -21.9856   -9.0213   20.4651 C   0  0  0  0  0  0
  -22.7178  -10.2089   20.3086 C   0  0  0  0  0  0
  -21.6817   -6.0715   22.5292 C   0  0  0  0  0  0
  -21.3983   -6.5626   23.8226 C   0  0  0  0  0  0
  -21.3643   -5.6786   24.9193 C   0  0  0  0  0  0
  -21.6037   -4.3050   24.7247 C   0  0  0  0  0  0
  -21.8817   -3.8140   23.4369 C   0  0  0  0  0  0
  -21.9180   -4.6949   22.3419 C   0  0  0  0  0  0
  -22.7799  -13.5193   21.1911 C   0  0  0  0  0  0
  -22.1659   -4.2135   21.0997 F   0  0  0  0  0  0
  -21.5626   -3.4537   25.7762 F   0  0  0  0  0  0
  -29.9727  -13.6065   20.2966 N   0  0  0  0  0  0
  -26.2828  -12.9047   20.3366 N   0  0  0  0  0  0
  -25.9193  -11.6272   20.5897 N   0  0  0  0  0  0
  -22.0400  -12.8213   22.0454 N   0  0  0  0  0  0
  -25.4255  -15.1724   20.4224 N   0  0  0  0  0  0
  -31.8862  -14.7320   20.3906 O   0  0  0  0  0  0
  -21.6586   -6.8844   21.4249 O   0  0  0  0  0  0
  -22.3534  -14.5510   20.6737 O   0  0  0  0  0  0
  -24.6264  -31.8572   23.1982 C   0  0  0  0  0  0
  -25.9111  -32.4758   23.8324 C   0  0  1  0  0  0
  -27.2342  -27.3008   20.1252 C   0  0  0  0  0  0
  -25.5915  -33.8558   24.2251 N   0  0  0  0  0  0
  -23.4212  -30.4779   21.5403 C   0  0  2  0  0  0
  -24.8691  -28.9234   20.1098 C   0  0  0  0  0  0
  -22.7470  -29.4617   22.4920 C   0  0  0  0  0  0
  -18.0288  -28.1383   22.8479 C   0  0  0  0  0  0
  -24.1492  -36.7301   23.2638 C   0  0  0  0  0  0
  -25.9609  -30.7815   21.3710 C   0  0  0  0  0  0
  -26.0344  -29.4061   20.7163 C   0  0  0  0  0  0
  -27.2142  -28.6051   20.7141 C   0  0  0  0  0  0
  -26.0417  -26.8641   19.5044 C   0  0  0  0  0  0
  -24.8760  -27.6595   19.4949 C   0  0  0  0  0  0
  -23.6361  -29.8045   20.1572 C   0  0  0  0  0  0
  -25.4115  -36.3074   24.0317 C   0  0  1  0  0  0
  -20.5884  -28.3691   23.1281 C   0  0  2  0  0  0
  -20.6772  -26.9413   22.5415 C   0  0  0  0  0  0
  -19.5757  -26.6380   21.5210 C   0  0  0  0  0  0
  -18.1934  -26.7930   22.1611 C   0  0  0  0  0  0
  -19.1538  -28.8854   23.2876 C   0  0  0  0  0  0
  -18.9463  -30.1455   23.8896 C   0  0  0  0  0  0
  -17.6465  -30.6591   24.0559 C   0  0  0  0  0  0
  -25.9046  -34.9440   23.5087 C   0  0  0  0  0  0
  -16.5353  -29.9086   23.6329 C   0  0  0  0  0  0
  -16.7275  -28.6502   23.0350 C   0  0  0  0  0  0
  -26.4489  -31.6584   25.0705 C   0  0  0  0  0  0
  -25.3703  -31.3735   26.1420 C   0  0  0  0  0  0
  -27.0341  -30.3000   24.6187 C   0  0  0  0  0  0
  -27.6049  -32.4327   25.7469 C   0  0  0  0  0  0
  -27.5586  -37.1796   24.8458 C   0  0  0  0  0  0
  -21.4182  -29.3043   22.3665 N   0  0  0  0  0  0
  -26.4299  -37.3767   23.9399 N   0  0  0  0  0  0
  -24.6885  -31.0567   22.0936 N   0  0  0  0  0  0
  -23.4185  -28.8165   23.3012 O   0  0  0  0  0  0
  -28.3849  -26.4962   20.2032 O   0  0  0  0  0  0
  -26.5631  -34.8917   22.4663 O   0  0  0  0  0  0
  -23.5423  -32.1383   23.7302 O   0  0  0  0  0  0
  -29.1044  -18.6207   20.2115 C   0  0  0  0  0  0
  -30.0515  -17.6041   20.3727 C   0  0  0  0  0  0
  -30.9862  -18.2748   21.2274 C   0  0  0  0  0  0
  -32.2845  -17.7562   21.7739 C   0  0  0  0  0  0
  -31.1728  -16.4954   18.4792 C   0  0  0  0  0  0
  -28.8216  -16.0765   18.8211 C   0  0  0  0  0  0
  -29.0724  -22.4274   20.1910 C   0  0  0  0  0  0
  -28.4344  -23.8364   20.6568 C   0  0  0  0  0  0
  -28.7519  -21.1202   21.0638 C   0  0  0  0  0  0
  -28.5007  -25.1085   19.6804 C   0  0  0  0  0  0
  -30.1368  -16.2097   19.6030 C   0  0  0  0  0  0
  -30.6484  -19.5471   21.4996 N   0  0  0  0  0  0
  -29.4862  -19.8083   20.8522 N   0  0  0  0  0  0
  -31.4621  -12.5865   19.1402 H   0  0  0  0  0  0
  -30.3864  -11.5410   20.0301 H   0  0  0  0  0  0
  -29.7948  -11.5729   17.5957 H   0  0  0  0  0  0
  -29.6246  -13.2971   17.6147 H   0  0  0  0  0  0
  -27.9141  -11.1982   18.9881 H   0  0  0  0  0  0
  -27.3642  -12.3577   17.8128 H   0  0  0  0  0  0
  -27.4810  -14.1166   19.3314 H   0  0  0  0  0  0
  -28.7537  -12.3699   21.5011 H   0  0  0  0  0  0
  -28.4118  -14.0822   21.6339 H   0  0  0  0  0  0
  -25.2701   -9.5602   22.4806 H   0  0  0  0  0  0
  -23.9938   -7.4546   22.7475 H   0  0  0  0  0  0
  -21.0798   -8.8733   19.8941 H   0  0  0  0  0  0
  -22.3662  -10.9641   19.6198 H   0  0  0  0  0  0
  -21.1968   -7.6132   23.9731 H   0  0  0  0  0  0
  -21.1461   -6.0517   25.9091 H   0  0  0  0  0  0
  -22.0613   -2.7602   23.2883 H   0  0  0  0  0  0
  -22.3965  -11.9852   22.4840 H   0  0  0  0  0  0
  -21.1031  -13.1282   22.2652 H   0  0  0  0  0  0
  -24.6643  -15.8314   20.5433 H   0  0  0  0  0  0
  -26.2877  -15.6118   20.1301 H   0  0  0  0  0  0
  -26.7171  -32.5419   23.1066 H   0  0  0  0  0  0
  -25.0035  -33.9689   25.0376 H   0  0  0  0  0  0
  -22.7159  -31.2986   21.3925 H   0  0  0  0  0  0
  -23.3742  -35.9647   23.3304 H   0  0  0  0  0  0
  -24.3582  -36.8929   22.2055 H   0  0  0  0  0  0
  -23.7261  -37.6502   23.6671 H   0  0  0  0  0  0
  -26.0927  -31.5409   20.5998 H   0  0  0  0  0  0
  -26.8415  -30.8331   22.0000 H   0  0  0  0  0  0
  -28.1088  -28.9715   21.1975 H   0  0  0  0  0  0
  -25.9776  -25.8918   19.0408 H   0  0  0  0  0  0
  -23.9791  -27.2830   19.0223 H   0  0  0  0  0  0
  -23.7494  -30.5757   19.3952 H   0  0  0  0  0  0
  -22.7564  -29.2289   19.8620 H   0  0  0  0  0  0
  -25.1300  -36.1926   25.0810 H   0  0  0  0  0  0
  -20.9978  -28.3279   24.1397 H   0  0  0  0  0  0
  -20.5670  -26.2303   23.3611 H   0  0  0  0  0  0
  -21.6641  -26.7437   22.1217 H   0  0  0  0  0  0
  -19.6914  -25.6288   21.1250 H   0  0  0  0  0  0
  -19.6705  -27.3174   20.6730 H   0  0  0  0  0  0
  -17.4205  -26.6685   21.4008 H   0  0  0  0  0  0
  -18.0325  -26.0069   22.9001 H   0  0  0  0  0  0
  -19.7940  -30.7268   24.2268 H   0  0  0  0  0  0
  -17.5020  -31.6272   24.5161 H   0  0  0  0  0  0
  -15.5352  -30.2989   23.7660 H   0  0  0  0  0  0
  -15.8670  -28.0825   22.7065 H   0  0  0  0  0  0
  -24.5909  -30.7050   25.7750 H   0  0  0  0  0  0
  -24.8848  -32.2894   26.4787 H   0  0  0  0  0  0
  -25.8010  -30.8961   27.0231 H   0  0  0  0  0  0
  -26.2927  -29.6729   24.1221 H   0  0  0  0  0  0
  -27.4034  -29.7285   25.4714 H   0  0  0  0  0  0
  -27.8796  -30.4279   23.9428 H   0  0  0  0  0  0
  -27.2677  -33.3643   26.2032 H   0  0  0  0  0  0
  -28.3862  -32.6865   25.0291 H   0  0  0  0  0  0
  -28.0719  -31.8460   26.5389 H   0  0  0  0  0  0
  -28.2595  -38.0103   24.7507 H   0  0  0  0  0  0
  -28.1097  -36.2627   24.6289 H   0  0  0  0  0  0
  -27.2304  -37.1458   25.8863 H   0  0  0  0  0  0
  -20.9358  -29.8768   21.6876 H   0  0  0  0  0  0
  -26.0181  -38.2847   24.1389 H   0  0  0  0  0  0
  -28.1808  -18.6133   19.6492 H   0  0  0  0  0  0
  -32.1841  -16.7325   22.1321 H   0  0  0  0  0  0
  -32.6375  -18.3554   22.6140 H   0  0  0  0  0  0
  -33.0630  -17.7688   21.0118 H   0  0  0  0  0  0
  -30.8792  -17.3369   17.8495 H   0  0  0  0  0  0
  -31.3009  -15.6339   17.8207 H   0  0  0  0  0  0
  -32.1556  -16.7464   18.8793 H   0  0  0  0  0  0
  -28.6707  -16.9088   18.1336 H   0  0  0  0  0  0
  -27.9680  -16.0965   19.4944 H   0  0  0  0  0  0
  -28.8094  -15.1998   18.1837 H   0  0  0  0  0  0
  -30.1552  -22.5463   20.1415 H   0  0  0  0  0  0
  -28.7570  -22.2274   19.1666 H   0  0  0  0  0  0
  -28.9140  -24.1129   21.5954 H   0  0  0  0  0  0
  -27.3865  -23.6757   20.9119 H   0  0  0  0  0  0
  -27.6864  -20.9063   20.9662 H   0  0  0  0  0  0
  -28.8842  -21.3817   22.1142 H   0  0  0  0  0  0
  -27.8517  -24.9484   18.8220 H   0  0  0  0  0  0
  -29.4990  -25.0886   19.2435 H   0  0  0  0  0  0
  1 25  1  0  0  0
  1 30  2  0  0  0
  1 81  1  0  0  0
  2  3  1  0  0  0
  2 25  1  0  0  0
  2 84  1  0  0  0
  2 85  1  0  0  0
  3  4  1  0  0  0
  3 86  1  0  0  0
  3 87  1  0  0  0
  4  5  1  0  0  0
  4 88  1  0  0  0
  4 89  1  0  0  0
  5  6  1  0  0  0
  5 26  1  0  0  0
  5 90  1  0  0  0
  6 25  1  0  0  0
  6 91  1  0  0  0
  6 92  1  0  0  0
  7  8  2  0  0  0
  7 26  1  0  0  0
  7 29  1  0  0  0
  8  9  1  0  0  0
  8 22  1  0  0  0
  9 10  1  0  0  0
  9 27  2  0  0  0
 10 11  2  0  0  0
 10 15  1  0  0  0
 11 12  1  0  0  0
 11 93  1  0  0  0
 12 13  2  0  0  0
 12 94  1  0  0  0
 13 14  1  0  0  0
 13 31  1  0  0  0
 14 15  2  0  0  0
 14 95  1  0  0  0
 15 96  1  0  0  0
 16 17  2  0  0  0
 16 21  1  0  0  0
 16 31  1  0  0  0
 17 18  1  0  0  0
 17 97  1  0  0  0
 18 19  2  0  0  0
 18 98  1  0  0  0
 19 20  1  0  0  0
 19 24  1  0  0  0
 20 21  2  0  0  0
 20 99  1  0  0  0
 21 23  1  0  0  0
 22 28  1  0  0  0
 22 32  2  0  0  0
 26 27  1  0  0  0
 28100  1  0  0  0
 28101  1  0  0  0
 29102  1  0  0  0
 29103  1  0  0  0
 33 34  1  0  0  0
 33 66  1  0  0  0
 33 70  2  0  0  0
 34 36  1  0  0  0
 34 59  1  0  0  0
 34104  1  0  0  0
 35 44  2  0  0  0
 35 45  1  0  0  0
 35 68  1  0  0  0
 36 56  1  0  0  0
 36105  1  0  0  0
 37 39  1  0  0  0
 37 47  1  0  0  0
 37 66  1  0  0  0
 37106  1  0  0  0
 38 43  2  0  0  0
 38 46  1  0  0  0
 38 47  1  0  0  0
 39 64  1  0  0  0
 39 67  2  0  0  0
 40 52  1  0  0  0
 40 53  2  0  0  0
 40 58  1  0  0  0
 41107  1  0  0  0
 41108  1  0  0  0
 41109  1  0  0  0
 41 48  1  0  0  0
 42 43  1  0  0  0
 42 66  1  0  0  0
 42110  1  0  0  0
 42111  1  0  0  0
 43 44  1  0  0  0
 44112  1  0  0  0
 45 46  2  0  0  0
 45113  1  0  0  0
 46114  1  0  0  0
 47115  1  0  0  0
 47116  1  0  0  0
 48 56  1  0  0  0
 48 65  1  0  0  0
 48117  1  0  0  0
 49 50  1  0  0  0
 49 53  1  0  0  0
 49 64  1  0  0  0
 49118  1  0  0  0
 50 51  1  0  0  0
 50119  1  0  0  0
 50120  1  0  0  0
 51 52  1  0  0  0
 51121  1  0  0  0
 51122  1  0  0  0
 52123  1  0  0  0
 52124  1  0  0  0
 53 54  1  0  0  0
 54 55  2  0  0  0
 54125  1  0  0  0
 55 57  1  0  0  0
 55126  1  0  0  0
 56 69  2  0  0  0
 57 58  2  0  0  0
 57127  1  0  0  0
 58128  1  0  0  0
 59 60  1  0  0  0
 59 61  1  0  0  0
 59 62  1  0  0  0
 60129  1  0  0  0
 60130  1  0  0  0
 60131  1  0  0  0
 61132  1  0  0  0
 61133  1  0  0  0
 61134  1  0  0  0
 62135  1  0  0  0
 62136  1  0  0  0
 62137  1  0  0  0
 63 65  1  0  0  0
 63138  1  0  0  0
 63139  1  0  0  0
 63140  1  0  0  0
 64141  1  0  0  0
 65142  1  0  0  0
 68 80  1  0  0  0
 71 72  2  0  0  0
 71 83  1  0  0  0
 71143  1  0  0  0
 72 73  1  0  0  0
 72 81  1  0  0  0
 73 74  1  0  0  0
 73 82  2  0  0  0
 74144  1  0  0  0
 74145  1  0  0  0
 74146  1  0  0  0
 75147  1  0  0  0
 75148  1  0  0  0
 75149  1  0  0  0
 75 81  1  0  0  0
 76 81  1  0  0  0
 76150  1  0  0  0
 76151  1  0  0  0
 76152  1  0  0  0
 77 78  1  0  0  0
 77 79  1  0  0  0
 77153  1  0  0  0
 77154  1  0  0  0
 78 80  1  0  0  0
 78155  1  0  0  0
 78156  1  0  0  0
 79 83  1  0  0  0
 79157  1  0  0  0
 79158  1  0  0  0
 80159  1  0  0  0
 80160  1  0  0  0
 82 83  1  0  0  0
M  ISO  4   1 100  68 101  80 101  81 100
M  END
> <chiral flag>
0

> <version>
0

> <s_m_source_file>
/data/baiqing/PycharmProjects/Reinvent-master-3.2/result/LINK_invent/BTK/process_docking_weight1_custom_sum_contain_oxygen_bond_distance_aromatic_linkinvent_7_9_3/rearranged_h_0091.sdf

> <i_m_source_file_index>
48

> <r_mmod_Potential_Energy-OPLS-2005>
298.742919921875

> <r_mmod_Stretch_Energy-OPLS-2005>
113.839820861816

> <r_mmod_Bend_Energy-OPLS-2005>
210.890838623047

> <r_mmod_Torsional_Energy-OPLS-2005>
240.512222290039

> <r_mmod_Improper_Torsional_Energy-OPLS-2005>
18.3050498962402

> <r_mmod_Van_der_Waal_Energy-OPLS-2005>
130.90412902832

> <r_mmod_Electrostatic_Energy-OPLS-2005>
-332.474395751953

> <r_mmod_Solvation_Energy-OPLS-2005>
-201.32975769043

> <b_mmod_Minimization_Converged-OPLS-2005>
0

> <r_mmod_RMS_Derivative-OPLS-2005>
1.43502807617188

$$$$
49
                    3D
 Structure written by MMmdl.
167175  0  0  1  0            999 V2000
  -30.6147  -14.7626   20.4422 C   0  0  0  0  0  0
  -30.4335  -12.4651   19.4630 C   0  0  0  0  0  0
  -29.5018  -12.4856   18.2308 C   0  0  0  0  0  0
  -28.0305  -12.3109   18.6551 C   0  0  0  0  0  0
  -27.6366  -13.2326   19.8408 C   0  0  2  0  0  0
  -28.6867  -13.1885   20.9711 C   0  0  0  0  0  0
  -25.2500  -13.8195   20.5705 C   0  0  0  0  0  0
  -24.1787  -13.0441   20.9208 C   0  0  0  0  0  0
  -24.6375  -11.6910   20.8750 C   0  0  0  0  0  0
  -23.9064  -10.4283   21.0411 C   0  0  0  0  0  0
  -24.3617   -9.4204   21.9195 C   0  0  0  0  0  0
  -23.6291   -8.2240   22.0761 C   0  0  0  0  0  0
  -22.4279   -8.0273   21.3555 C   0  0  0  0  0  0
  -21.9910   -9.0237   20.4657 C   0  0  0  0  0  0
  -22.7234  -10.2122   20.3060 C   0  0  0  0  0  0
  -21.6849   -6.0729   22.5278 C   0  0  0  0  0  0
  -21.4005   -6.5638   23.8205 C   0  0  0  0  0  0
  -21.3657   -5.6797   24.9168 C   0  0  0  0  0  0
  -21.6034   -4.3055   24.7228 C   0  0  0  0  0  0
  -21.8823   -3.8148   23.4346 C   0  0  0  0  0  0
  -21.9189   -4.6957   22.3397 C   0  0  0  0  0  0
  -22.7805  -13.5221   21.1852 C   0  0  0  0  0  0
  -22.1661   -4.2144   21.0985 F   0  0  0  0  0  0
  -21.5630   -3.4549   25.7741 F   0  0  0  0  0  0
  -29.9803  -13.5404   20.3737 N   0  0  0  0  0  0
  -26.2916  -12.9408   20.3277 N   0  0  0  0  0  0
  -25.9320  -11.6549   20.5786 N   0  0  0  0  0  0
  -22.0462  -12.8187   22.0403 N   0  0  0  0  0  0
  -25.4192  -15.1919   20.4151 N   0  0  0  0  0  0
  -31.8178  -14.8389   20.1789 O   0  0  0  0  0  0
  -21.6639   -6.8871   21.4237 O   0  0  0  0  0  0
  -22.3485  -14.5539   20.6725 O   0  0  0  0  0  0
  -24.6307  -31.8521   23.1977 C   0  0  0  0  0  0
  -25.9147  -32.4727   23.8302 C   0  0  1  0  0  0
  -27.2177  -27.2601   20.1135 C   0  0  0  0  0  0
  -25.5978  -33.8538   24.2219 N   0  0  0  0  0  0
  -23.4281  -30.4776   21.5380 C   0  0  2  0  0  0
  -24.8752  -28.9296   20.1024 C   0  0  0  0  0  0
  -22.7514  -29.4570   22.4853 C   0  0  0  0  0  0
  -18.0290  -28.1365   22.8417 C   0  0  0  0  0  0
  -24.1511  -36.7274   23.2635 C   0  0  0  0  0  0
  -25.9759  -30.7628   21.3817 C   0  0  0  0  0  0
  -26.0453  -29.3873   20.7176 C   0  0  0  0  0  0
  -27.2192  -28.5657   20.7138 C   0  0  0  0  0  0
  -26.0255  -26.8767   19.4572 C   0  0  0  0  0  0
  -24.8706  -27.6833   19.4596 C   0  0  0  0  0  0
  -23.6488  -29.8214   20.1515 C   0  0  0  0  0  0
  -25.4128  -36.3052   24.0314 C   0  0  1  0  0  0
  -20.5892  -28.3685   23.1224 C   0  0  2  0  0  0
  -20.6807  -26.9394   22.5386 C   0  0  0  0  0  0
  -19.5810  -26.6338   21.5176 C   0  0  0  0  0  0
  -18.1955  -26.7893   22.1556 C   0  0  0  0  0  0
  -19.1544  -28.8838   23.2821 C   0  0  0  0  0  0
  -18.9486  -30.1435   23.8850 C   0  0  0  0  0  0
  -17.6492  -30.6561   24.0558 C   0  0  0  0  0  0
  -25.9074  -34.9425   23.5051 C   0  0  0  0  0  0
  -16.5375  -29.9059   23.6338 C   0  0  0  0  0  0
  -16.7275  -28.6502   23.0303 C   0  0  0  0  0  0
  -26.4524  -31.6556   25.0691 C   0  0  0  0  0  0
  -25.3763  -31.3714   26.1431 C   0  0  0  0  0  0
  -27.0383  -30.2969   24.6182 C   0  0  0  0  0  0
  -27.6084  -32.4311   25.7453 C   0  0  0  0  0  0
  -27.5587  -37.1777   24.8444 C   0  0  0  0  0  0
  -21.4217  -29.3061   22.3645 N   0  0  0  0  0  0
  -26.4281  -37.3771   23.9428 N   0  0  0  0  0  0
  -24.6972  -31.0487   22.0952 N   0  0  0  0  0  0
  -23.4221  -28.8078   23.2931 O   0  0  0  0  0  0
  -28.3146  -26.3651   20.1846 O   0  0  0  0  0  0
  -26.5631  -34.8916   22.4606 O   0  0  0  0  0  0
  -23.5467  -32.1338   23.7277 O   0  0  0  0  0  0
  -27.1666  -21.5489   21.2299 C   0  0  0  0  0  0
  -28.3695  -21.0695   20.6735 C   0  0  0  0  0  0
  -26.2154  -20.6932   21.8057 C   0  0  0  0  0  0
  -28.5839  -19.6095   20.7394 C   0  0  0  0  0  0
  -26.5240  -19.3207   21.8528 C   0  0  0  0  0  0
  -25.5778  -18.2916   22.4451 C   0  0  0  0  0  0
  -23.9712  -21.5574   21.0589 C   0  0  0  0  0  0
  -25.0179  -22.5055   23.1754 C   0  0  0  0  0  0
  -29.2118  -22.2198   19.9861 C   0  0  0  0  0  0
  -29.6601  -18.6773   20.0435 C   0  0  0  0  0  0
  -29.1209  -23.7787   20.4993 C   0  0  0  0  0  0
  -30.3130  -17.3746   20.7939 C   0  0  0  0  0  0
  -28.1287  -24.9000   19.8810 C   0  0  0  0  0  0
  -24.8709  -21.2644   22.2716 C   0  0  0  0  0  0
  -27.6605  -18.8188   21.3331 N   0  0  0  0  0  0
  -29.8542  -15.9158   20.6076 N   0  0  0  0  0  0
  -31.4710  -12.5948   19.1491 H   0  0  0  0  0  0
  -30.3940  -11.4976   19.9670 H   0  0  0  0  0  0
  -29.7817  -11.6924   17.5349 H   0  0  0  0  0  0
  -29.6191  -13.4259   17.6908 H   0  0  0  0  0  0
  -27.8949  -11.2668   18.9414 H   0  0  0  0  0  0
  -27.3661  -12.4781   17.8062 H   0  0  0  0  0  0
  -27.6193  -14.2466   19.4385 H   0  0  0  0  0  0
  -28.7302  -12.1956   21.4199 H   0  0  0  0  0  0
  -28.4232  -13.8810   21.7740 H   0  0  0  0  0  0
  -25.2760   -9.5671   22.4777 H   0  0  0  0  0  0
  -23.9988   -7.4630   22.7490 H   0  0  0  0  0  0
  -21.0837   -8.8757   19.8964 H   0  0  0  0  0  0
  -22.3695  -10.9664   19.6166 H   0  0  0  0  0  0
  -21.1997   -7.6146   23.9704 H   0  0  0  0  0  0
  -21.1476   -6.0538   25.9078 H   0  0  0  0  0  0
  -22.0607   -2.7611   23.2857 H   0  0  0  0  0  0
  -22.4081  -11.9830   22.4745 H   0  0  0  0  0  0
  -21.1096  -13.1215   22.2669 H   0  0  0  0  0  0
  -24.6507  -15.8433   20.5294 H   0  0  0  0  0  0
  -26.2731  -15.6400   20.1059 H   0  0  0  0  0  0
  -26.7184  -32.5361   23.1009 H   0  0  0  0  0  0
  -25.0282  -33.9710   25.0479 H   0  0  0  0  0  0
  -22.7231  -31.3007   21.3937 H   0  0  0  0  0  0
  -23.3799  -35.9589   23.3244 H   0  0  0  0  0  0
  -24.3617  -36.8944   22.2065 H   0  0  0  0  0  0
  -23.7234  -37.6437   23.6708 H   0  0  0  0  0  0
  -26.1176  -31.5249   20.6149 H   0  0  0  0  0  0
  -26.8541  -30.8058   22.0164 H   0  0  0  0  0  0
  -28.1141  -28.9108   21.2116 H   0  0  0  0  0  0
  -25.9527  -25.9333   18.9361 H   0  0  0  0  0  0
  -23.9801  -27.3346   18.9556 H   0  0  0  0  0  0
  -23.7821  -30.6082   19.4074 H   0  0  0  0  0  0
  -22.7643  -29.2685   19.8322 H   0  0  0  0  0  0
  -25.1293  -36.1882   25.0802 H   0  0  0  0  0  0
  -20.9969  -28.3274   24.1353 H   0  0  0  0  0  0
  -20.5713  -26.2286   23.3589 H   0  0  0  0  0  0
  -21.6671  -26.7405   22.1194 H   0  0  0  0  0  0
  -19.7025  -25.6247   21.1231 H   0  0  0  0  0  0
  -19.6788  -27.3155   20.6721 H   0  0  0  0  0  0
  -17.4240  -26.6601   21.3947 H   0  0  0  0  0  0
  -18.0367  -26.0011   22.8929 H   0  0  0  0  0  0
  -19.7995  -30.7240   24.2173 H   0  0  0  0  0  0
  -17.5073  -31.6248   24.5170 H   0  0  0  0  0  0
  -15.5394  -30.2978   23.7702 H   0  0  0  0  0  0
  -15.8653  -28.0866   22.6989 H   0  0  0  0  0  0
  -24.6023  -30.6923   25.7799 H   0  0  0  0  0  0
  -24.8872  -32.2880   26.4735 H   0  0  0  0  0  0
  -25.8107  -30.9021   27.0268 H   0  0  0  0  0  0
  -26.2958  -29.6668   24.1258 H   0  0  0  0  0  0
  -27.4126  -29.7249   25.4683 H   0  0  0  0  0  0
  -27.8789  -30.4225   23.9364 H   0  0  0  0  0  0
  -27.2724  -33.3683   26.1902 H   0  0  0  0  0  0
  -28.3958  -32.6735   25.0304 H   0  0  0  0  0  0
  -28.0670  -31.8502   26.5466 H   0  0  0  0  0  0
  -28.2516  -38.0164   24.7569 H   0  0  0  0  0  0
  -28.1155  -36.2670   24.6142 H   0  0  0  0  0  0
  -27.2314  -37.1254   25.8851 H   0  0  0  0  0  0
  -20.9384  -29.8798   21.6872 H   0  0  0  0  0  0
  -26.0127  -38.2808   24.1541 H   0  0  0  0  0  0
  -26.9297  -22.5966   21.1664 H   0  0  0  0  0  0
  -24.6410  -18.2644   21.8891 H   0  0  0  0  0  0
  -25.3581  -18.5284   23.4862 H   0  0  0  0  0  0
  -26.0072  -17.2892   22.4211 H   0  0  0  0  0  0
  -23.7931  -20.6513   20.4765 H   0  0  0  0  0  0
  -24.4133  -22.2974   20.3893 H   0  0  0  0  0  0
  -22.9965  -21.9354   21.3696 H   0  0  0  0  0  0
  -25.6342  -22.2915   24.0483 H   0  0  0  0  0  0
  -24.0440  -22.8281   23.5468 H   0  0  0  0  0  0
  -25.4548  -23.3599   22.6587 H   0  0  0  0  0  0
  -29.0034  -22.1922   18.9161 H   0  0  0  0  0  0
  -30.2555  -21.9169   20.0813 H   0  0  0  0  0  0
  -30.4828  -19.3519   19.8051 H   0  0  0  0  0  0
  -29.2676  -18.3746   19.0718 H   0  0  0  0  0  0
  -30.1135  -24.1903   20.3167 H   0  0  0  0  0  0
  -29.0396  -23.7863   21.5864 H   0  0  0  0  0  0
  -30.3705  -17.5833   21.8625 H   0  0  0  0  0  0
  -31.3549  -17.3751   20.4686 H   0  0  0  0  0  0
  -27.1271  -24.6075   20.1937 H   0  0  0  0  0  0
  -28.1474  -24.7985   18.7966 H   0  0  0  0  0  0
  -24.3558  -20.5203   22.8771 H   0  0  0  0  0  0
  -28.8640  -15.7607   20.7214 H   0  0  0  0  0  0
  1 25  1  0  0  0
  1 30  2  0  0  0
  1 86  1  0  0  0
  2  3  1  0  0  0
  2 25  1  0  0  0
  2 87  1  0  0  0
  2 88  1  0  0  0
  3  4  1  0  0  0
  3 89  1  0  0  0
  3 90  1  0  0  0
  4  5  1  0  0  0
  4 91  1  0  0  0
  4 92  1  0  0  0
  5  6  1  0  0  0
  5 26  1  0  0  0
  5 93  1  0  0  0
  6 25  1  0  0  0
  6 94  1  0  0  0
  6 95  1  0  0  0
  7  8  2  0  0  0
  7 26  1  0  0  0
  7 29  1  0  0  0
  8  9  1  0  0  0
  8 22  1  0  0  0
  9 10  1  0  0  0
  9 27  2  0  0  0
 10 11  2  0  0  0
 10 15  1  0  0  0
 11 12  1  0  0  0
 11 96  1  0  0  0
 12 13  2  0  0  0
 12 97  1  0  0  0
 13 14  1  0  0  0
 13 31  1  0  0  0
 14 15  2  0  0  0
 14 98  1  0  0  0
 15 99  1  0  0  0
 16 17  2  0  0  0
 16 21  1  0  0  0
 16 31  1  0  0  0
 17 18  1  0  0  0
 17100  1  0  0  0
 18 19  2  0  0  0
 18101  1  0  0  0
 19 20  1  0  0  0
 19 24  1  0  0  0
 20 21  2  0  0  0
 20102  1  0  0  0
 21 23  1  0  0  0
 22 28  1  0  0  0
 22 32  2  0  0  0
 26 27  1  0  0  0
 28103  1  0  0  0
 28104  1  0  0  0
 29105  1  0  0  0
 29106  1  0  0  0
 33 34  1  0  0  0
 33 66  1  0  0  0
 33 70  2  0  0  0
 34 36  1  0  0  0
 34 59  1  0  0  0
 34107  1  0  0  0
 35 44  2  0  0  0
 35 45  1  0  0  0
 35 68  1  0  0  0
 36 56  1  0  0  0
 36108  1  0  0  0
 37 39  1  0  0  0
 37 47  1  0  0  0
 37 66  1  0  0  0
 37109  1  0  0  0
 38 43  2  0  0  0
 38 46  1  0  0  0
 38 47  1  0  0  0
 39 64  1  0  0  0
 39 67  2  0  0  0
 40 52  1  0  0  0
 40 53  2  0  0  0
 40 58  1  0  0  0
 41110  1  0  0  0
 41111  1  0  0  0
 41112  1  0  0  0
 41 48  1  0  0  0
 42 43  1  0  0  0
 42 66  1  0  0  0
 42113  1  0  0  0
 42114  1  0  0  0
 43 44  1  0  0  0
 44115  1  0  0  0
 45 46  2  0  0  0
 45116  1  0  0  0
 46117  1  0  0  0
 47118  1  0  0  0
 47119  1  0  0  0
 48 56  1  0  0  0
 48 65  1  0  0  0
 48120  1  0  0  0
 49 50  1  0  0  0
 49 53  1  0  0  0
 49 64  1  0  0  0
 49121  1  0  0  0
 50 51  1  0  0  0
 50122  1  0  0  0
 50123  1  0  0  0
 51 52  1  0  0  0
 51124  1  0  0  0
 51125  1  0  0  0
 52126  1  0  0  0
 52127  1  0  0  0
 53 54  1  0  0  0
 54 55  2  0  0  0
 54128  1  0  0  0
 55 57  1  0  0  0
 55129  1  0  0  0
 56 69  2  0  0  0
 57 58  2  0  0  0
 57130  1  0  0  0
 58131  1  0  0  0
 59 60  1  0  0  0
 59 61  1  0  0  0
 59 62  1  0  0  0
 60132  1  0  0  0
 60133  1  0  0  0
 60134  1  0  0  0
 61135  1  0  0  0
 61136  1  0  0  0
 61137  1  0  0  0
 62138  1  0  0  0
 62139  1  0  0  0
 62140  1  0  0  0
 63 65  1  0  0  0
 63141  1  0  0  0
 63142  1  0  0  0
 63143  1  0  0  0
 64144  1  0  0  0
 65145  1  0  0  0
 68 83  1  0  0  0
 71 72  2  0  0  0
 71 73  1  0  0  0
 71146  1  0  0  0
 72 74  1  0  0  0
 72 79  1  0  0  0
 73 75  2  0  0  0
 73 84  1  0  0  0
 74 80  1  0  0  0
 74 85  2  0  0  0
 75 76  1  0  0  0
 75 85  1  0  0  0
 76147  1  0  0  0
 76148  1  0  0  0
 76149  1  0  0  0
 77150  1  0  0  0
 77151  1  0  0  0
 77152  1  0  0  0
 77 84  1  0  0  0
 78 84  1  0  0  0
 78153  1  0  0  0
 78154  1  0  0  0
 78155  1  0  0  0
 79 81  1  0  0  0
 79156  1  0  0  0
 79157  1  0  0  0
 80 82  1  0  0  0
 80158  1  0  0  0
 80159  1  0  0  0
 81 83  1  0  0  0
 81160  1  0  0  0
 81161  1  0  0  0
 82 86  1  0  0  0
 82162  1  0  0  0
 82163  1  0  0  0
 83164  1  0  0  0
 83165  1  0  0  0
 84166  1  0  0  0
 86167  1  0  0  0
M  ISO  4   1 100  68 101  83 101  86 100
M  END
> <chiral flag>
0

> <version>
0

> <s_m_source_file>
/data/baiqing/PycharmProjects/Reinvent-master-3.2/result/LINK_invent/BTK/process_docking_weight1_custom_sum_contain_oxygen_bond_distance_aromatic_linkinvent_7_9_3/rearranged_h_0091.sdf

> <i_m_source_file_index>
49

> <r_mmod_Potential_Energy-OPLS-2005>
99.4145660400391

> <r_mmod_Stretch_Energy-OPLS-2005>
140.5673828125

> <r_mmod_Bend_Energy-OPLS-2005>
219.349090576172

> <r_mmod_Torsional_Energy-OPLS-2005>
224.429321289062

> <r_mmod_Improper_Torsional_Energy-OPLS-2005>
5.24672508239746

> <r_mmod_Van_der_Waal_Energy-OPLS-2005>
136.307235717773

> <r_mmod_Electrostatic_Energy-OPLS-2005>
-506.341857910156

> <r_mmod_Solvation_Energy-OPLS-2005>
-213.355026245117

> <b_mmod_Minimization_Converged-OPLS-2005>
0

> <r_mmod_RMS_Derivative-OPLS-2005>
3.50139188766479

$$$$
50
                    3D
 Structure written by MMmdl.
182190  0  0  1  0            999 V2000
  -30.6331  -14.6408   20.4993 C   0  0  0  0  0  0
  -30.4328  -12.3904   19.4687 C   0  0  0  0  0  0
  -29.5098  -12.5045   18.2343 C   0  0  0  0  0  0
  -28.0342  -12.3368   18.6443 C   0  0  0  0  0  0
  -27.6540  -13.2163   19.8654 C   0  0  2  0  0  0
  -28.6938  -13.0875   21.0027 C   0  0  0  0  0  0
  -25.2550  -13.8151   20.5591 C   0  0  0  0  0  0
  -24.1827  -13.0445   20.9181 C   0  0  0  0  0  0
  -24.6398  -11.6913   20.8778 C   0  0  0  0  0  0
  -23.9073  -10.4291   21.0432 C   0  0  0  0  0  0
  -24.3617   -9.4204   21.9207 C   0  0  0  0  0  0
  -23.6289   -8.2240   22.0774 C   0  0  0  0  0  0
  -22.4276   -8.0277   21.3553 C   0  0  0  0  0  0
  -21.9916   -9.0255   20.4653 C   0  0  0  0  0  0
  -22.7253  -10.2134   20.3068 C   0  0  0  0  0  0
  -21.6843   -6.0740   22.5278 C   0  0  0  0  0  0
  -21.4013   -6.5642   23.8217 C   0  0  0  0  0  0
  -21.3663   -5.6792   24.9176 C   0  0  0  0  0  0
  -21.6031   -4.3054   24.7221 C   0  0  0  0  0  0
  -21.8821   -3.8152   23.4344 C   0  0  0  0  0  0
  -21.9193   -4.6969   22.3402 C   0  0  0  0  0  0
  -22.7856  -13.5254   21.1847 C   0  0  0  0  0  0
  -22.1655   -4.2156   21.0980 F   0  0  0  0  0  0
  -21.5629   -3.4542   25.7737 F   0  0  0  0  0  0
  -30.0132  -13.4195   20.4434 N   0  0  0  0  0  0
  -26.2990  -12.9341   20.3317 N   0  0  0  0  0  0
  -25.9333  -11.6503   20.5797 N   0  0  0  0  0  0
  -22.0497  -12.8248   22.0411 N   0  0  0  0  0  0
  -25.4250  -15.1833   20.3797 N   0  0  0  0  0  0
  -31.7798  -14.7982   20.0728 O   0  0  0  0  0  0
  -21.6637   -6.8881   21.4238 O   0  0  0  0  0  0
  -22.3531  -14.5552   20.6683 O   0  0  0  0  0  0
  -24.6248  -31.8564   23.1972 C   0  0  0  0  0  0
  -25.9083  -32.4767   23.8299 C   0  0  1  0  0  0
  -27.2351  -27.3193   20.1393 C   0  0  0  0  0  0
  -25.5902  -33.8560   24.2240 N   0  0  0  0  0  0
  -23.4203  -30.4763   21.5388 C   0  0  2  0  0  0
  -24.8698  -28.9172   20.1193 C   0  0  0  0  0  0
  -22.7470  -29.4598   22.4913 C   0  0  0  0  0  0
  -18.0281  -28.1406   22.8468 C   0  0  0  0  0  0
  -24.1499  -36.7285   23.2645 C   0  0  0  0  0  0
  -25.9576  -30.7896   21.3641 C   0  0  0  0  0  0
  -26.0351  -29.4114   20.7192 C   0  0  0  0  0  0
  -27.2218  -28.6258   20.7145 C   0  0  0  0  0  0
  -26.0489  -26.8603   19.5299 C   0  0  0  0  0  0
  -24.8781  -27.6461   19.5168 C   0  0  0  0  0  0
  -23.6362  -29.7978   20.1586 C   0  0  0  0  0  0
  -25.4133  -36.3077   24.0324 C   0  0  1  0  0  0
  -20.5884  -28.3690   23.1303 C   0  0  2  0  0  0
  -20.6793  -26.9413   22.5432 C   0  0  0  0  0  0
  -19.5775  -26.6397   21.5230 C   0  0  0  0  0  0
  -18.1932  -26.7948   22.1607 C   0  0  0  0  0  0
  -19.1526  -28.8863   23.2885 C   0  0  0  0  0  0
  -18.9448  -30.1474   23.8895 C   0  0  0  0  0  0
  -17.6450  -30.6598   24.0569 C   0  0  0  0  0  0
  -25.9066  -34.9447   23.5090 C   0  0  0  0  0  0
  -16.5342  -29.9092   23.6353 C   0  0  0  0  0  0
  -16.7265  -28.6528   23.0328 C   0  0  0  0  0  0
  -26.4484  -31.6579   25.0665 C   0  0  0  0  0  0
  -25.3717  -31.3686   26.1390 C   0  0  0  0  0  0
  -27.0330  -30.3018   24.6084 C   0  0  0  0  0  0
  -27.6067  -32.4299   25.7393 C   0  0  0  0  0  0
  -27.5584  -37.1799   24.8463 C   0  0  0  0  0  0
  -21.4176  -29.3031   22.3684 N   0  0  0  0  0  0
  -26.4312  -37.3772   23.9399 N   0  0  0  0  0  0
  -24.6867  -31.0582   22.0913 N   0  0  0  0  0  0
  -23.4188  -28.8149   23.3000 O   0  0  0  0  0  0
  -28.3814  -26.5207   20.1156 O   0  0  0  0  0  0
  -26.5641  -34.8916   22.4665 O   0  0  0  0  0  0
  -23.5418  -32.1340   23.7320 O   0  0  0  0  0  0
  -30.1035  -20.3551   19.8049 C   0  0  0  0  0  0
  -29.7842  -21.6937   19.4472 C   0  0  0  0  0  0
  -29.5551  -19.7645   20.9688 C   0  0  0  0  0  0
  -28.8929  -22.4733   20.2256 C   0  0  0  0  0  0
  -28.6792  -20.6272   21.7075 C   0  0  0  0  0  0
  -32.8269  -18.9332   24.0958 C   0  0  0  0  0  0
  -23.9904  -18.7063   24.3358 C   0  0  0  0  0  0
  -25.1529  -16.7434   23.2770 C   0  0  0  0  0  0
  -25.2275  -17.0621   25.7554 C   0  0  0  0  0  0
  -28.4130  -23.8949   19.7247 C   0  0  0  0  0  0
  -28.0821  -20.2038   23.0473 C   0  0  0  0  0  0
  -31.4368  -19.0294   23.4551 C   0  0  0  0  0  0
  -26.8156  -19.3365   22.9504 C   0  0  0  0  0  0
  -31.3466  -18.2776   22.1156 C   0  0  0  0  0  0
  -26.5313  -18.6274   24.2961 C   0  0  0  0  0  0
  -29.9383  -17.1393   20.3371 C   0  0  0  0  0  0
  -28.3613  -25.1552   20.6903 C   0  0  0  0  0  0
  -29.9571  -18.2968   21.4268 C   0  0  2  0  0  0
  -25.2288  -17.7934   24.3983 C   0  0  0  0  0  0
  -28.3379  -21.9026   21.3264 N   0  0  0  0  0  0
  -29.8494  -15.7140   20.8283 N   0  0  0  0  0  0
  -31.4778  -12.4989   19.1733 H   0  0  0  0  0  0
  -30.3519  -11.3981   19.9149 H   0  0  0  0  0  0
  -29.7786  -11.7516   17.4924 H   0  0  0  0  0  0
  -29.6483  -13.4724   17.7512 H   0  0  0  0  0  0
  -27.8808  -11.2846   18.8880 H   0  0  0  0  0  0
  -27.3756  -12.5503   17.8012 H   0  0  0  0  0  0
  -27.6696  -14.2488   19.5158 H   0  0  0  0  0  0
  -28.7008  -12.0718   21.4007 H   0  0  0  0  0  0
  -28.4357  -13.7366   21.8416 H   0  0  0  0  0  0
  -25.2762   -9.5670   22.4786 H   0  0  0  0  0  0
  -23.9991   -7.4631   22.7496 H   0  0  0  0  0  0
  -21.0859   -8.8768   19.8953 H   0  0  0  0  0  0
  -22.3722  -10.9667   19.6167 H   0  0  0  0  0  0
  -21.2005   -7.6149   23.9716 H   0  0  0  0  0  0
  -21.1478   -6.0528   25.9076 H   0  0  0  0  0  0
  -22.0597   -2.7614   23.2840 H   0  0  0  0  0  0
  -22.4115  -11.9918   22.4803 H   0  0  0  0  0  0
  -21.1117  -13.1275   22.2617 H   0  0  0  0  0  0
  -24.6591  -15.8370   20.4969 H   0  0  0  0  0  0
  -26.2727  -15.6200   20.0440 H   0  0  0  0  0  0
  -26.7127  -32.5454   23.1019 H   0  0  0  0  0  0
  -25.0046  -33.9698   25.0386 H   0  0  0  0  0  0
  -22.7165  -31.2977   21.3883 H   0  0  0  0  0  0
  -23.3772  -35.9608   23.3301 H   0  0  0  0  0  0
  -24.3591  -36.8922   22.2061 H   0  0  0  0  0  0
  -23.7231  -37.6472   23.6685 H   0  0  0  0  0  0
  -26.0893  -31.5473   20.5899 H   0  0  0  0  0  0
  -26.8398  -30.8422   21.9897 H   0  0  0  0  0  0
  -28.1245  -29.0044   21.1757 H   0  0  0  0  0  0
  -26.0295  -25.8842   19.0636 H   0  0  0  0  0  0
  -23.9813  -27.2574   19.0544 H   0  0  0  0  0  0
  -23.7538  -30.5676   19.3950 H   0  0  0  0  0  0
  -22.7584  -29.2231   19.8583 H   0  0  0  0  0  0
  -25.1320  -36.1929   25.0819 H   0  0  0  0  0  0
  -20.9979  -28.3266   24.1425 H   0  0  0  0  0  0
  -20.5749  -26.2263   23.3612 H   0  0  0  0  0  0
  -21.6650  -26.7491   22.1184 H   0  0  0  0  0  0
  -19.6940  -25.6317   21.1243 H   0  0  0  0  0  0
  -19.6744  -27.3231   20.6793 H   0  0  0  0  0  0
  -17.4225  -26.6717   21.3986 H   0  0  0  0  0  0
  -18.0302  -26.0098   22.9019 H   0  0  0  0  0  0
  -19.7918  -30.7303   24.2248 H   0  0  0  0  0  0
  -17.4990  -31.6272   24.5177 H   0  0  0  0  0  0
  -15.5342  -30.2975   23.7694 H   0  0  0  0  0  0
  -15.8673  -28.0868   22.7012 H   0  0  0  0  0  0
  -24.5912  -30.7017   25.7684 H   0  0  0  0  0  0
  -24.8870  -32.2826   26.4824 H   0  0  0  0  0  0
  -25.8030  -30.8833   27.0153 H   0  0  0  0  0  0
  -26.2864  -29.6732   24.1210 H   0  0  0  0  0  0
  -27.4170  -29.7310   25.4553 H   0  0  0  0  0  0
  -27.8667  -30.4332   23.9186 H   0  0  0  0  0  0
  -27.2746  -33.3670   26.1874 H   0  0  0  0  0  0
  -28.3882  -32.6751   25.0181 H   0  0  0  0  0  0
  -28.0704  -31.8457   26.5343 H   0  0  0  0  0  0
  -28.2614  -38.0095   24.7538 H   0  0  0  0  0  0
  -28.1075  -36.2630   24.6269 H   0  0  0  0  0  0
  -27.2296  -37.1419   25.8866 H   0  0  0  0  0  0
  -20.9363  -29.8698   21.6850 H   0  0  0  0  0  0
  -26.0191  -38.2851   24.1395 H   0  0  0  0  0  0
  -30.7783  -19.7876   19.1799 H   0  0  0  0  0  0
  -30.2081  -22.1078   18.5418 H   0  0  0  0  0  0
  -32.8487  -19.4403   25.0616 H   0  0  0  0  0  0
  -33.5877  -19.3923   23.4639 H   0  0  0  0  0  0
  -33.1128  -17.8948   24.2648 H   0  0  0  0  0  0
  -23.0675  -18.1269   24.3745 H   0  0  0  0  0  0
  -23.9586  -19.2915   23.4164 H   0  0  0  0  0  0
  -23.9675  -19.4064   25.1720 H   0  0  0  0  0  0
  -24.2780  -16.0997   23.3877 H   0  0  0  0  0  0
  -26.0319  -16.0982   23.2685 H   0  0  0  0  0  0
  -25.0767  -17.2120   22.2960 H   0  0  0  0  0  0
  -24.3224  -16.4706   25.8972 H   0  0  0  0  0  0
  -25.2896  -17.7631   26.5890 H   0  0  0  0  0  0
  -26.0748  -16.3807   25.8436 H   0  0  0  0  0  0
  -27.4324  -23.7648   19.2666 H   0  0  0  0  0  0
  -29.0732  -24.1647   18.9011 H   0  0  0  0  0  0
  -27.8621  -21.0945   23.6375 H   0  0  0  0  0  0
  -28.8368  -19.6806   23.6240 H   0  0  0  0  0  0
  -31.1791  -20.0803   23.3168 H   0  0  0  0  0  0
  -30.7126  -18.6084   24.1527 H   0  0  0  0  0  0
  -26.9530  -18.5875   22.1715 H   0  0  0  0  0  0
  -25.9801  -19.9599   22.6371 H   0  0  0  0  0  0
  -31.6352  -17.2418   22.3018 H   0  0  0  0  0  0
  -32.0967  -18.6670   21.4261 H   0  0  0  0  0  0
  -26.5254  -19.3777   25.0885 H   0  0  0  0  0  0
  -27.3833  -17.9803   24.5193 H   0  0  0  0  0  0
  -30.7917  -17.2492   19.6653 H   0  0  0  0  0  0
  -29.0609  -17.2836   19.7067 H   0  0  0  0  0  0
  -29.2560  -25.1083   21.3114 H   0  0  0  0  0  0
  -27.5258  -25.0469   21.3842 H   0  0  0  0  0  0
  -29.2267  -17.9855   22.1706 H   0  0  0  0  0  0
  -28.9578  -15.4630   21.2286 H   0  0  0  0  0  0
  1 25  1  0  0  0
  1 30  2  0  0  0
  1 91  1  0  0  0
  2  3  1  0  0  0
  2 25  1  0  0  0
  2 92  1  0  0  0
  2 93  1  0  0  0
  3  4  1  0  0  0
  3 94  1  0  0  0
  3 95  1  0  0  0
  4  5  1  0  0  0
  4 96  1  0  0  0
  4 97  1  0  0  0
  5  6  1  0  0  0
  5 26  1  0  0  0
  5 98  1  0  0  0
  6 25  1  0  0  0
  6 99  1  0  0  0
  6100  1  0  0  0
  7  8  2  0  0  0
  7 26  1  0  0  0
  7 29  1  0  0  0
  8  9  1  0  0  0
  8 22  1  0  0  0
  9 10  1  0  0  0
  9 27  2  0  0  0
 10 11  2  0  0  0
 10 15  1  0  0  0
 11 12  1  0  0  0
 11101  1  0  0  0
 12 13  2  0  0  0
 12102  1  0  0  0
 13 14  1  0  0  0
 13 31  1  0  0  0
 14 15  2  0  0  0
 14103  1  0  0  0
 15104  1  0  0  0
 16 17  2  0  0  0
 16 21  1  0  0  0
 16 31  1  0  0  0
 17 18  1  0  0  0
 17105  1  0  0  0
 18 19  2  0  0  0
 18106  1  0  0  0
 19 20  1  0  0  0
 19 24  1  0  0  0
 20 21  2  0  0  0
 20107  1  0  0  0
 21 23  1  0  0  0
 22 28  1  0  0  0
 22 32  2  0  0  0
 26 27  1  0  0  0
 28108  1  0  0  0
 28109  1  0  0  0
 29110  1  0  0  0
 29111  1  0  0  0
 33 34  1  0  0  0
 33 66  1  0  0  0
 33 70  2  0  0  0
 34 36  1  0  0  0
 34 59  1  0  0  0
 34112  1  0  0  0
 35 44  2  0  0  0
 35 45  1  0  0  0
 35 68  1  0  0  0
 36 56  1  0  0  0
 36113  1  0  0  0
 37 39  1  0  0  0
 37 47  1  0  0  0
 37 66  1  0  0  0
 37114  1  0  0  0
 38 43  2  0  0  0
 38 46  1  0  0  0
 38 47  1  0  0  0
 39 64  1  0  0  0
 39 67  2  0  0  0
 40 52  1  0  0  0
 40 53  2  0  0  0
 40 58  1  0  0  0
 41115  1  0  0  0
 41116  1  0  0  0
 41117  1  0  0  0
 41 48  1  0  0  0
 42 43  1  0  0  0
 42 66  1  0  0  0
 42118  1  0  0  0
 42119  1  0  0  0
 43 44  1  0  0  0
 44120  1  0  0  0
 45 46  2  0  0  0
 45121  1  0  0  0
 46122  1  0  0  0
 47123  1  0  0  0
 47124  1  0  0  0
 48 56  1  0  0  0
 48 65  1  0  0  0
 48125  1  0  0  0
 49 50  1  0  0  0
 49 53  1  0  0  0
 49 64  1  0  0  0
 49126  1  0  0  0
 50 51  1  0  0  0
 50127  1  0  0  0
 50128  1  0  0  0
 51 52  1  0  0  0
 51129  1  0  0  0
 51130  1  0  0  0
 52131  1  0  0  0
 52132  1  0  0  0
 53 54  1  0  0  0
 54 55  2  0  0  0
 54133  1  0  0  0
 55 57  1  0  0  0
 55134  1  0  0  0
 56 69  2  0  0  0
 57 58  2  0  0  0
 57135  1  0  0  0
 58136  1  0  0  0
 59 60  1  0  0  0
 59 61  1  0  0  0
 59 62  1  0  0  0
 60137  1  0  0  0
 60138  1  0  0  0
 60139  1  0  0  0
 61140  1  0  0  0
 61141  1  0  0  0
 61142  1  0  0  0
 62143  1  0  0  0
 62144  1  0  0  0
 62145  1  0  0  0
 63 65  1  0  0  0
 63146  1  0  0  0
 63147  1  0  0  0
 63148  1  0  0  0
 64149  1  0  0  0
 65150  1  0  0  0
 68 87  1  0  0  0
 71 72  2  0  0  0
 71 73  1  0  0  0
 71151  1  0  0  0
 72 74  1  0  0  0
 72152  1  0  0  0
 73 75  2  0  0  0
 73 88  1  0  0  0
 74 80  1  0  0  0
 74 90  2  0  0  0
 75 81  1  0  0  0
 75 90  1  0  0  0
 76 82  1  0  0  0
 76153  1  0  0  0
 76154  1  0  0  0
 76155  1  0  0  0
 77156  1  0  0  0
 77157  1  0  0  0
 77158  1  0  0  0
 77 89  1  0  0  0
 78 89  1  0  0  0
 78159  1  0  0  0
 78160  1  0  0  0
 78161  1  0  0  0
 79 89  1  0  0  0
 79162  1  0  0  0
 79163  1  0  0  0
 79164  1  0  0  0
 80 87  1  0  0  0
 80165  1  0  0  0
 80166  1  0  0  0
 81 83  1  0  0  0
 81167  1  0  0  0
 81168  1  0  0  0
 82 84  1  0  0  0
 82169  1  0  0  0
 82170  1  0  0  0
 83 85  1  0  0  0
 83171  1  0  0  0
 83172  1  0  0  0
 84173  1  0  0  0
 84174  1  0  0  0
 84 88  1  0  0  0
 85 89  1  0  0  0
 85175  1  0  0  0
 85176  1  0  0  0
 86 88  1  0  0  0
 86 91  1  0  0  0
 86177  1  0  0  0
 86178  1  0  0  0
 87179  1  0  0  0
 87180  1  0  0  0
 88181  1  0  0  0
 91182  1  0  0  0
M  ISO  4   1 100  68 101  87 101  91 100
M  END
> <chiral flag>
0

> <version>
0

> <s_m_source_file>
/data/baiqing/PycharmProjects/Reinvent-master-3.2/result/LINK_invent/BTK/process_docking_weight1_custom_sum_contain_oxygen_bond_distance_aromatic_linkinvent_7_9_3/rearranged_h_0091.sdf

> <i_m_source_file_index>
50

> <r_mmod_Potential_Energy-OPLS-2005>
-112.46891784668

> <r_mmod_Stretch_Energy-OPLS-2005>
83.9390106201172

> <r_mmod_Bend_Energy-OPLS-2005>
152.236602783203

> <r_mmod_Torsional_Energy-OPLS-2005>
238.296524047852

> <r_mmod_Improper_Torsional_Energy-OPLS-2005>
7.00838041305542

> <r_mmod_Van_der_Waal_Energy-OPLS-2005>
124.804122924805

> <r_mmod_Electrostatic_Energy-OPLS-2005>
-561.049865722656

> <r_mmod_Solvation_Energy-OPLS-2005>
-203.190979003906

> <b_mmod_Minimization_Converged-OPLS-2005>
0

> <r_mmod_RMS_Derivative-OPLS-2005>
2.61207675933838

$$$$
51
                    3D
 Structure written by MMmdl.
172180  0  0  1  0            999 V2000
  -30.6696  -14.5261   20.4475 C   0  0  0  0  0  0
  -30.4185  -12.2882   19.4734 C   0  0  0  0  0  0
  -29.5075  -12.4371   18.2361 C   0  0  0  0  0  0
  -28.0192  -12.3462   18.6337 C   0  0  0  0  0  0
  -27.6523  -13.2022   19.8767 C   0  0  2  0  0  0
  -28.6970  -13.0511   21.0072 C   0  0  0  0  0  0
  -25.2560  -13.8137   20.5736 C   0  0  0  0  0  0
  -24.1800  -13.0426   20.9216 C   0  0  0  0  0  0
  -24.6350  -11.6893   20.8776 C   0  0  0  0  0  0
  -23.9024  -10.4280   21.0420 C   0  0  0  0  0  0
  -24.3588   -9.4195   21.9185 C   0  0  0  0  0  0
  -23.6286   -8.2217   22.0742 C   0  0  0  0  0  0
  -22.4266   -8.0263   21.3531 C   0  0  0  0  0  0
  -21.9900   -9.0238   20.4637 C   0  0  0  0  0  0
  -22.7213  -10.2125   20.3070 C   0  0  0  0  0  0
  -21.6846   -6.0724   22.5277 C   0  0  0  0  0  0
  -21.4001   -6.5634   23.8212 C   0  0  0  0  0  0
  -21.3657   -5.6792   24.9179 C   0  0  0  0  0  0
  -21.6042   -4.3055   24.7230 C   0  0  0  0  0  0
  -21.8814   -3.8142   23.4354 C   0  0  0  0  0  0
  -21.9190   -4.6954   22.3404 C   0  0  0  0  0  0
  -22.7827  -13.5231   21.1872 C   0  0  0  0  0  0
  -22.1679   -4.2149   21.0984 F   0  0  0  0  0  0
  -21.5632   -3.4538   25.7738 F   0  0  0  0  0  0
  -30.0231  -13.3274   20.4387 N   0  0  0  0  0  0
  -26.2968  -12.9287   20.3409 N   0  0  0  0  0  0
  -25.9277  -11.6461   20.5806 N   0  0  0  0  0  0
  -22.0477  -12.8222   22.0432 N   0  0  0  0  0  0
  -25.4279  -15.1850   20.4123 N   0  0  0  0  0  0
  -31.8579  -14.6397   20.1389 O   0  0  0  0  0  0
  -21.6640   -6.8856   21.4228 O   0  0  0  0  0  0
  -22.3510  -14.5533   20.6730 O   0  0  0  0  0  0
  -24.6184  -31.8646   23.2042 C   0  0  0  0  0  0
  -25.9066  -32.4806   23.8349 C   0  0  1  0  0  0
  -27.2397  -27.4003   20.1016 C   0  0  0  0  0  0
  -25.5912  -33.8601   24.2286 N   0  0  0  0  0  0
  -23.4085  -30.4849   21.5444 C   0  0  2  0  0  0
  -24.8550  -28.9419   20.1141 C   0  0  0  0  0  0
  -22.7436  -29.4641   22.4962 C   0  0  0  0  0  0
  -18.0275  -28.1379   22.8482 C   0  0  0  0  0  0
  -24.1496  -36.7310   23.2637 C   0  0  0  0  0  0
  -25.9388  -30.8192   21.3614 C   0  0  0  0  0  0
  -26.0145  -29.4496   20.7104 C   0  0  0  0  0  0
  -27.2058  -28.6861   20.6985 C   0  0  0  0  0  0
  -26.0558  -26.9072   19.5065 C   0  0  0  0  0  0
  -24.8731  -27.6734   19.5078 C   0  0  0  0  0  0
  -23.6192  -29.8126   20.1605 C   0  0  0  0  0  0
  -25.4120  -36.3101   24.0328 C   0  0  1  0  0  0
  -20.5864  -28.3675   23.1308 C   0  0  2  0  0  0
  -20.6768  -26.9408   22.5424 C   0  0  0  0  0  0
  -19.5750  -26.6381   21.5213 C   0  0  0  0  0  0
  -18.1921  -26.7927   22.1613 C   0  0  0  0  0  0
  -19.1522  -28.8841   23.2890 C   0  0  0  0  0  0
  -18.9455  -30.1441   23.8912 C   0  0  0  0  0  0
  -17.6462  -30.6585   24.0561 C   0  0  0  0  0  0
  -25.9047  -34.9466   23.5108 C   0  0  0  0  0  0
  -16.5351  -29.9087   23.6323 C   0  0  0  0  0  0
  -16.7267  -28.6499   23.0350 C   0  0  0  0  0  0
  -26.4481  -31.6605   25.0696 C   0  0  0  0  0  0
  -25.3736  -31.3732   26.1439 C   0  0  0  0  0  0
  -27.0322  -30.3045   24.6097 C   0  0  0  0  0  0
  -27.6056  -32.4332   25.7465 C   0  0  0  0  0  0
  -27.5589  -37.1807   24.8459 C   0  0  0  0  0  0
  -21.4155  -29.3033   22.3707 N   0  0  0  0  0  0
  -26.4301  -37.3791   23.9406 N   0  0  0  0  0  0
  -24.6735  -31.0722   22.0955 N   0  0  0  0  0  0
  -23.4191  -28.8192   23.3027 O   0  0  0  0  0  0
  -28.4308  -26.6937   20.1399 O   0  0  0  0  0  0
  -26.5607  -34.8929   22.4672 O   0  0  0  0  0  0
  -23.5369  -32.1408   23.7416 O   0  0  0  0  0  0
  -29.4590  -18.9962   20.4542 C   0  0  0  0  0  0
  -29.9834  -18.0786   19.5634 C   0  0  0  0  0  0
  -30.3798  -20.1554   18.7924 C   0  0  0  0  0  0
  -29.9137  -22.3817   15.6374 C   0  0  0  0  0  0
  -28.7688  -16.3555   18.3228 C   0  0  0  0  0  0
  -32.1877  -20.7594   17.1366 C   0  0  0  0  0  0
  -29.0280  -24.4579   21.8864 C   0  0  0  0  0  0
  -29.7271  -21.2218   16.6256 C   0  0  0  0  0  0
  -29.2081  -22.9040   19.8572 C   0  0  0  0  0  0
  -29.1866  -21.5362   20.6236 C   0  0  0  0  0  0
  -28.5942  -25.3895   19.5371 C   0  0  0  0  0  0
  -29.9330  -16.5841   19.3034 C   0  0  2  0  0  0
  -30.8113  -21.1332   17.7250 C   0  0  1  0  0  0
  -28.4787  -24.1423   20.4833 C   0  0  2  0  0  0
  -29.6761  -20.2763   19.9475 N   0  0  0  0  0  0
  -30.5578  -18.8489   18.5964 N   0  3  0  0  0  0
  -29.8559  -15.6097   20.4201 N   0  0  0  0  0  0
  -31.4688  -12.3584   19.1912 H   0  0  0  0  0  0
  -30.2994  -11.2977   19.9160 H   0  0  0  0  0  0
  -29.7391  -11.6586   17.5088 H   0  0  0  0  0  0
  -29.7187  -13.3790   17.7333 H   0  0  0  0  0  0
  -27.8027  -11.2957   18.8374 H   0  0  0  0  0  0
  -27.3886  -12.6264   17.7874 H   0  0  0  0  0  0
  -27.6602  -14.2362   19.5494 H   0  0  0  0  0  0
  -28.6701  -12.0405   21.4162 H   0  0  0  0  0  0
  -28.4773  -13.7191   21.8413 H   0  0  0  0  0  0
  -25.2726   -9.5705   22.4768 H   0  0  0  0  0  0
  -24.0013   -7.4592   22.7451 H   0  0  0  0  0  0
  -21.0835   -8.8752   19.8934 H   0  0  0  0  0  0
  -22.3655  -10.9672   19.6202 H   0  0  0  0  0  0
  -21.2002   -7.6144   23.9726 H   0  0  0  0  0  0
  -21.1488   -6.0522   25.9080 H   0  0  0  0  0  0
  -22.0602   -2.7606   23.2865 H   0  0  0  0  0  0
  -22.4097  -11.9880   22.4792 H   0  0  0  0  0  0
  -21.1092  -13.1226   22.2653 H   0  0  0  0  0  0
  -24.6532  -15.8326   20.5113 H   0  0  0  0  0  0
  -26.2625  -15.6280   20.0546 H   0  0  0  0  0  0
  -26.7138  -32.5504   23.1109 H   0  0  0  0  0  0
  -25.0086  -33.9754   25.0445 H   0  0  0  0  0  0
  -22.6987  -31.3018   21.3999 H   0  0  0  0  0  0
  -23.3758  -35.9644   23.3300 H   0  0  0  0  0  0
  -24.3584  -36.8930   22.2052 H   0  0  0  0  0  0
  -23.7251  -37.6513   23.6655 H   0  0  0  0  0  0
  -26.0551  -31.5824   20.5896 H   0  0  0  0  0  0
  -26.8257  -30.8735   21.9817 H   0  0  0  0  0  0
  -28.1034  -29.0780   21.1567 H   0  0  0  0  0  0
  -26.0182  -25.9311   19.0466 H   0  0  0  0  0  0
  -23.9805  -27.2746   19.0472 H   0  0  0  0  0  0
  -23.7321  -30.5839   19.3975 H   0  0  0  0  0  0
  -22.7435  -29.2328   19.8647 H   0  0  0  0  0  0
  -25.1302  -36.1962   25.0821 H   0  0  0  0  0  0
  -20.9947  -28.3247   24.1427 H   0  0  0  0  0  0
  -20.5658  -26.2289   23.3612 H   0  0  0  0  0  0
  -21.6643  -26.7439   22.1223 H   0  0  0  0  0  0
  -19.6918  -25.6286   21.1243 H   0  0  0  0  0  0
  -19.6700  -27.3188   20.6737 H   0  0  0  0  0  0
  -17.4202  -26.6678   21.4001 H   0  0  0  0  0  0
  -18.0314  -26.0058   22.8995 H   0  0  0  0  0  0
  -19.7934  -30.7239   24.2303 H   0  0  0  0  0  0
  -17.5022  -31.6266   24.5165 H   0  0  0  0  0  0
  -15.5352  -30.3008   23.7632 H   0  0  0  0  0  0
  -15.8660  -28.0824   22.7074 H   0  0  0  0  0  0
  -24.5885  -30.7111   25.7761 H   0  0  0  0  0  0
  -24.8955  -32.2905   26.4891 H   0  0  0  0  0  0
  -25.8067  -30.8878   27.0195 H   0  0  0  0  0  0
  -26.2867  -29.6792   24.1165 H   0  0  0  0  0  0
  -27.4109  -29.7298   25.4561 H   0  0  0  0  0  0
  -27.8696  -30.4360   23.9236 H   0  0  0  0  0  0
  -27.2665  -33.3615   26.2080 H   0  0  0  0  0  0
  -28.3847  -32.6930   25.0282 H   0  0  0  0  0  0
  -28.0753  -31.8438   26.5353 H   0  0  0  0  0  0
  -28.2609  -38.0103   24.7511 H   0  0  0  0  0  0
  -28.1082  -36.2633   24.6282 H   0  0  0  0  0  0
  -27.2298  -37.1455   25.8859 H   0  0  0  0  0  0
  -20.9327  -29.8777   21.6935 H   0  0  0  0  0  0
  -26.0190  -38.2870   24.1404 H   0  0  0  0  0  0
  -28.8914  -18.8318   21.3600 H   0  0  0  0  0  0
  -29.0502  -22.4620   14.9768 H   0  0  0  0  0  0
  -30.7897  -22.2353   15.0046 H   0  0  0  0  0  0
  -30.0227  -23.3358   16.1556 H   0  0  0  0  0  0
  -28.8498  -17.0046   17.4509 H   0  0  0  0  0  0
  -27.8054  -16.5596   18.7895 H   0  0  0  0  0  0
  -28.7505  -15.3412   17.9342 H   0  0  0  0  0  0
  -32.9351  -20.6678   17.9255 H   0  0  0  0  0  0
  -32.5466  -21.5232   16.4478 H   0  0  0  0  0  0
  -32.1622  -19.8144   16.5936 H   0  0  0  0  0  0
  -28.8811  -23.6235   22.5718 H   0  0  0  0  0  0
  -28.5199  -25.3197   22.3231 H   0  0  0  0  0  0
  -30.0941  -24.6875   21.8540 H   0  0  0  0  0  0
  -29.6723  -20.2817   16.0766 H   0  0  0  0  0  0
  -28.7499  -21.3362   17.0960 H   0  0  0  0  0  0
  -28.7970  -22.7627   18.8598 H   0  0  0  0  0  0
  -30.2475  -23.2080   19.7499 H   0  0  0  0  0  0
  -28.1636  -21.3349   20.9402 H   0  0  0  0  0  0
  -29.7713  -21.6341   21.5387 H   0  0  0  0  0  0
  -27.9880  -25.2577   18.6402 H   0  0  0  0  0  0
  -29.6135  -25.4120   19.1535 H   0  0  0  0  0  0
  -30.8363  -16.3636   18.7313 H   0  0  0  0  0  0
  -30.9536  -22.0972   18.1890 H   0  0  0  0  0  0
  -27.4212  -23.9006   20.5923 H   0  0  0  0  0  0
  -31.0155  -18.4746   17.7731 H   0  0  0  0  0  0
  -28.9351  -15.4616   20.7985 H   0  0  0  0  0  0
  1 25  1  0  0  0
  1 30  2  0  0  0
  1 87  1  0  0  0
  2  3  1  0  0  0
  2 25  1  0  0  0
  2 88  1  0  0  0
  2 89  1  0  0  0
  3  4  1  0  0  0
  3 90  1  0  0  0
  3 91  1  0  0  0
  4  5  1  0  0  0
  4 92  1  0  0  0
  4 93  1  0  0  0
  5  6  1  0  0  0
  5 26  1  0  0  0
  5 94  1  0  0  0
  6 25  1  0  0  0
  6 95  1  0  0  0
  6 96  1  0  0  0
  7  8  2  0  0  0
  7 26  1  0  0  0
  7 29  1  0  0  0
  8  9  1  0  0  0
  8 22  1  0  0  0
  9 10  1  0  0  0
  9 27  2  0  0  0
 10 11  2  0  0  0
 10 15  1  0  0  0
 11 12  1  0  0  0
 11 97  1  0  0  0
 12 13  2  0  0  0
 12 98  1  0  0  0
 13 14  1  0  0  0
 13 31  1  0  0  0
 14 15  2  0  0  0
 14 99  1  0  0  0
 15100  1  0  0  0
 16 17  2  0  0  0
 16 21  1  0  0  0
 16 31  1  0  0  0
 17 18  1  0  0  0
 17101  1  0  0  0
 18 19  2  0  0  0
 18102  1  0  0  0
 19 20  1  0  0  0
 19 24  1  0  0  0
 20 21  2  0  0  0
 20103  1  0  0  0
 21 23  1  0  0  0
 22 28  1  0  0  0
 22 32  2  0  0  0
 26 27  1  0  0  0
 28104  1  0  0  0
 28105  1  0  0  0
 29106  1  0  0  0
 29107  1  0  0  0
 33 34  1  0  0  0
 33 66  1  0  0  0
 33 70  2  0  0  0
 34 36  1  0  0  0
 34 59  1  0  0  0
 34108  1  0  0  0
 35 44  2  0  0  0
 35 45  1  0  0  0
 35 68  1  0  0  0
 36 56  1  0  0  0
 36109  1  0  0  0
 37 39  1  0  0  0
 37 47  1  0  0  0
 37 66  1  0  0  0
 37110  1  0  0  0
 38 43  2  0  0  0
 38 46  1  0  0  0
 38 47  1  0  0  0
 39 64  1  0  0  0
 39 67  2  0  0  0
 40 52  1  0  0  0
 40 53  2  0  0  0
 40 58  1  0  0  0
 41111  1  0  0  0
 41112  1  0  0  0
 41113  1  0  0  0
 41 48  1  0  0  0
 42 43  1  0  0  0
 42 66  1  0  0  0
 42114  1  0  0  0
 42115  1  0  0  0
 43 44  1  0  0  0
 44116  1  0  0  0
 45 46  2  0  0  0
 45117  1  0  0  0
 46118  1  0  0  0
 47119  1  0  0  0
 47120  1  0  0  0
 48 56  1  0  0  0
 48 65  1  0  0  0
 48121  1  0  0  0
 49 50  1  0  0  0
 49 53  1  0  0  0
 49 64  1  0  0  0
 49122  1  0  0  0
 50 51  1  0  0  0
 50123  1  0  0  0
 50124  1  0  0  0
 51 52  1  0  0  0
 51125  1  0  0  0
 51126  1  0  0  0
 52127  1  0  0  0
 52128  1  0  0  0
 53 54  1  0  0  0
 54 55  2  0  0  0
 54129  1  0  0  0
 55 57  1  0  0  0
 55130  1  0  0  0
 56 69  2  0  0  0
 57 58  2  0  0  0
 57131  1  0  0  0
 58132  1  0  0  0
 59 60  1  0  0  0
 59 61  1  0  0  0
 59 62  1  0  0  0
 60133  1  0  0  0
 60134  1  0  0  0
 60135  1  0  0  0
 61136  1  0  0  0
 61137  1  0  0  0
 61138  1  0  0  0
 62139  1  0  0  0
 62140  1  0  0  0
 62141  1  0  0  0
 63 65  1  0  0  0
 63142  1  0  0  0
 63143  1  0  0  0
 63144  1  0  0  0
 64145  1  0  0  0
 65146  1  0  0  0
 68 81  1  0  0  0
 71 72  2  0  0  0
 71 85  1  0  0  0
 71147  1  0  0  0
 72 82  1  0  0  0
 72 86  1  0  0  0
 73 83  1  0  0  0
 73 85  1  0  0  0
 73 86  2  0  0  0
 74 78  1  0  0  0
 74148  1  0  0  0
 74149  1  0  0  0
 74150  1  0  0  0
 75151  1  0  0  0
 75152  1  0  0  0
 75153  1  0  0  0
 75 82  1  0  0  0
 76154  1  0  0  0
 76155  1  0  0  0
 76156  1  0  0  0
 76 83  1  0  0  0
 77157  1  0  0  0
 77158  1  0  0  0
 77159  1  0  0  0
 77 84  1  0  0  0
 78 83  1  0  0  0
 78160  1  0  0  0
 78161  1  0  0  0
 79 80  1  0  0  0
 79 84  1  0  0  0
 79162  1  0  0  0
 79163  1  0  0  0
 80 85  1  0  0  0
 80164  1  0  0  0
 80165  1  0  0  0
 81 84  1  0  0  0
 81166  1  0  0  0
 81167  1  0  0  0
 82 87  1  0  0  0
 82168  1  0  0  0
 83169  1  0  0  0
 84170  1  0  0  0
 86171  1  0  0  0
 87172  1  0  0  0
M  CHG  1  86   1
M  ISO  4   1 100  68 101  81 101  87 100
M  END
> <chiral flag>
0

> <version>
0

> <s_m_source_file>
/data/baiqing/PycharmProjects/Reinvent-master-3.2/result/LINK_invent/BTK/process_docking_weight1_custom_sum_contain_oxygen_bond_distance_aromatic_linkinvent_7_9_3/rearranged_h_0091.sdf

> <i_m_source_file_index>
51

> <r_mmod_Potential_Energy-OPLS-2005>
-51.0919914245605

> <r_mmod_Stretch_Energy-OPLS-2005>
49.4465484619141

> <r_mmod_Bend_Energy-OPLS-2005>
156.817123413086

> <r_mmod_Torsional_Energy-OPLS-2005>
267.280395507812

> <r_mmod_Improper_Torsional_Energy-OPLS-2005>
14.8396911621094

> <r_mmod_Van_der_Waal_Energy-OPLS-2005>
127.665390014648

> <r_mmod_Electrostatic_Energy-OPLS-2005>
-283.802917480469

> <r_mmod_Solvation_Energy-OPLS-2005>
-408.80810546875

> <b_mmod_Minimization_Converged-OPLS-2005>
0

> <r_mmod_RMS_Derivative-OPLS-2005>
2.79239678382874

$$$$
52
                    3D
 Structure written by MMmdl.
170178  0  0  1  0            999 V2000
  -30.5325  -14.9485   20.4240 C   0  0  0  0  0  0
  -30.4414  -12.5847   19.5077 C   0  0  0  0  0  0
  -29.5257  -12.5378   18.2614 C   0  0  0  0  0  0
  -28.0554  -12.3316   18.6739 C   0  0  0  0  0  0
  -27.6344  -13.2522   19.8501 C   0  0  2  0  0  0
  -28.6760  -13.2616   20.9906 C   0  0  0  0  0  0
  -25.2466  -13.8241   20.5747 C   0  0  0  0  0  0
  -24.1783  -13.0457   20.9247 C   0  0  0  0  0  0
  -24.6388  -11.6937   20.8750 C   0  0  0  0  0  0
  -23.9073  -10.4297   21.0401 C   0  0  0  0  0  0
  -24.3619   -9.4212   21.9180 C   0  0  0  0  0  0
  -23.6293   -8.2241   22.0745 C   0  0  0  0  0  0
  -22.4273   -8.0275   21.3538 C   0  0  0  0  0  0
  -21.9907   -9.0255   20.4646 C   0  0  0  0  0  0
  -22.7240  -10.2134   20.3058 C   0  0  0  0  0  0
  -21.6851   -6.0728   22.5277 C   0  0  0  0  0  0
  -21.4017   -6.5629   23.8210 C   0  0  0  0  0  0
  -21.3661   -5.6779   24.9169 C   0  0  0  0  0  0
  -21.6042   -4.3043   24.7225 C   0  0  0  0  0  0
  -21.8817   -3.8140   23.4346 C   0  0  0  0  0  0
  -21.9189   -4.6956   22.3398 C   0  0  0  0  0  0
  -22.7798  -13.5218   21.1906 C   0  0  0  0  0  0
  -22.1664   -4.2142   21.0976 F   0  0  0  0  0  0
  -21.5633   -3.4528   25.7739 F   0  0  0  0  0  0
  -29.9554  -13.6782   20.4010 N   0  0  0  0  0  0
  -26.2901  -12.9473   20.3286 N   0  0  0  0  0  0
  -25.9322  -11.6599   20.5746 N   0  0  0  0  0  0
  -22.0444  -12.8191   22.0460 N   0  0  0  0  0  0
  -25.4133  -15.1967   20.4182 N   0  0  0  0  0  0
  -31.7191  -15.0325   20.0896 O   0  0  0  0  0  0
  -21.6636   -6.8877   21.4238 O   0  0  0  0  0  0
  -22.3477  -14.5518   20.6746 O   0  0  0  0  0  0
  -24.6457  -31.8442   23.1888 C   0  0  0  0  0  0
  -25.9229  -32.4683   23.8274 C   0  0  1  0  0  0
  -27.2047  -27.0949   20.1747 C   0  0  0  0  0  0
  -25.5979  -33.8495   24.2187 N   0  0  0  0  0  0
  -23.4518  -30.4631   21.5343 C   0  0  2  0  0  0
  -24.9031  -28.8842   20.1192 C   0  0  0  0  0  0
  -22.7579  -29.4549   22.4841 C   0  0  0  0  0  0
  -18.0309  -28.1396   22.8465 C   0  0  0  0  0  0
  -24.1498  -36.7248   23.2639 C   0  0  0  0  0  0
  -26.0113  -30.6949   21.4070 C   0  0  0  0  0  0
  -26.0771  -29.2999   20.7609 C   0  0  0  0  0  0
  -27.2287  -28.4183   20.7831 C   0  0  0  0  0  0
  -26.0338  -26.8293   19.4419 C   0  0  0  0  0  0
  -24.8960  -27.6602   19.4398 C   0  0  0  0  0  0
  -23.6853  -29.7937   20.1543 C   0  0  0  0  0  0
  -25.4130  -36.3031   24.0312 C   0  0  1  0  0  0
  -20.5922  -28.3750   23.1206 C   0  0  2  0  0  0
  -20.6805  -26.9444   22.5397 C   0  0  0  0  0  0
  -19.5764  -26.6342   21.5235 C   0  0  0  0  0  0
  -18.1958  -26.7909   22.1660 C   0  0  0  0  0  0
  -19.1563  -28.8891   23.2823 C   0  0  0  0  0  0
  -18.9478  -30.1482   23.8857 C   0  0  0  0  0  0
  -17.6471  -30.6577   24.0570 C   0  0  0  0  0  0
  -25.9085  -34.9403   23.5055 C   0  0  0  0  0  0
  -16.5368  -29.9076   23.6336 C   0  0  0  0  0  0
  -16.7292  -28.6500   23.0350 C   0  0  0  0  0  0
  -26.4541  -31.6555   25.0724 C   0  0  0  0  0  0
  -25.3708  -31.3762   26.1399 C   0  0  0  0  0  0
  -27.0415  -30.2940   24.6353 C   0  0  0  0  0  0
  -27.6057  -32.4339   25.7508 C   0  0  0  0  0  0
  -27.5578  -37.1786   24.8465 C   0  0  0  0  0  0
  -21.4273  -29.3066   22.3574 N   0  0  0  0  0  0
  -26.4288  -37.3743   23.9404 N   0  0  0  0  0  0
  -24.7223  -31.0242   22.0971 N   0  0  0  0  0  0
  -23.4199  -28.8091   23.3005 O   0  0  0  0  0  0
  -28.2420  -26.0845   20.1265 O   0  0  0  0  0  0
  -26.5664  -34.8902   22.4633 O   0  0  0  0  0  0
  -23.5569  -32.1353   23.7071 O   0  0  0  0  0  0
  -29.0689  -21.9780   20.7125 C   0  0  0  0  0  0
  -28.1671  -23.1142   20.3500 C   0  0  0  0  0  0
  -26.9992  -22.6156   19.6974 C   0  0  0  0  0  0
  -28.8496  -20.5387   20.3813 C   0  0  0  0  0  0
  -26.8726  -21.2413   19.3374 C   0  0  0  0  0  0
  -25.7895  -23.5073   19.4759 C   0  0  0  0  0  0
  -25.6491  -20.7282   18.5919 C   0  0  0  0  0  0
  -25.6957  -17.7013   24.0028 C   0  0  0  0  0  0
  -27.4856  -19.1099   25.0920 C   0  0  0  0  0  0
  -28.2363  -24.7073   20.8917 C   0  0  0  0  0  0
  -29.0967  -18.9198   22.4460 C   0  0  0  0  0  0
  -27.5980  -18.5794   22.5862 C   0  0  0  0  0  0
  -29.8546  -17.6644   20.2148 C   0  0  0  0  0  0
  -29.5861  -19.1724   20.9946 C   0  0  1  0  0  0
  -27.1834  -18.0848   23.9873 C   0  0  0  0  0  0
  -27.7464  -20.2632   19.6642 N   0  0  0  0  0  0
  -29.7401  -16.1180   20.6173 N   0  0  0  0  0  0
  -31.4763  -12.7378   19.1983 H   0  0  0  0  0  0
  -30.4285  -11.6277   20.0319 H   0  0  0  0  0  0
  -29.8396  -11.7404   17.5849 H   0  0  0  0  0  0
  -29.6251  -13.4692   17.7017 H   0  0  0  0  0  0
  -27.9405  -11.2882   18.9678 H   0  0  0  0  0  0
  -27.3958  -12.4829   17.8183 H   0  0  0  0  0  0
  -27.6048  -14.2607   19.4376 H   0  0  0  0  0  0
  -28.7569  -12.2773   21.4549 H   0  0  0  0  0  0
  -28.3746  -13.9505   21.7797 H   0  0  0  0  0  0
  -25.2761   -9.5684   22.4763 H   0  0  0  0  0  0
  -23.9990   -7.4626   22.7463 H   0  0  0  0  0  0
  -21.0833   -8.8786   19.8960 H   0  0  0  0  0  0
  -22.3702  -10.9673   19.6177 H   0  0  0  0  0  0
  -21.2020   -7.6140   23.9717 H   0  0  0  0  0  0
  -21.1489   -6.0509   25.9072 H   0  0  0  0  0  0
  -22.0595   -2.7604   23.2853 H   0  0  0  0  0  0
  -22.4048  -11.9848   22.4840 H   0  0  0  0  0  0
  -21.1070  -13.1223   22.2675 H   0  0  0  0  0  0
  -24.6444  -15.8468   20.5362 H   0  0  0  0  0  0
  -26.2455  -15.6339   20.0454 H   0  0  0  0  0  0
  -26.7279  -32.5282   23.0981 H   0  0  0  0  0  0
  -25.0125  -33.9611   25.0332 H   0  0  0  0  0  0
  -22.7564  -31.2902   21.3776 H   0  0  0  0  0  0
  -23.3768  -35.9573   23.3290 H   0  0  0  0  0  0
  -24.3581  -36.8896   22.2057 H   0  0  0  0  0  0
  -23.7248  -37.6438   23.6683 H   0  0  0  0  0  0
  -26.1800  -31.4398   20.6274 H   0  0  0  0  0  0
  -26.8775  -30.7466   22.0541 H   0  0  0  0  0  0
  -28.1225  -28.7312   21.3036 H   0  0  0  0  0  0
  -25.9984  -25.9522   18.8252 H   0  0  0  0  0  0
  -24.0222  -27.3581   18.8783 H   0  0  0  0  0  0
  -23.8343  -30.5697   19.4033 H   0  0  0  0  0  0
  -22.7998  -29.2431   19.8331 H   0  0  0  0  0  0
  -25.1318  -36.1853   25.0804 H   0  0  0  0  0  0
  -21.0005  -28.3362   24.1331 H   0  0  0  0  0  0
  -20.5734  -26.2381   23.3644 H   0  0  0  0  0  0
  -21.6667  -26.7469   22.1176 H   0  0  0  0  0  0
  -19.6925  -25.6218   21.1366 H   0  0  0  0  0  0
  -19.6682  -27.3061   20.6691 H   0  0  0  0  0  0
  -17.4202  -26.6583   21.4102 H   0  0  0  0  0  0
  -18.0411  -26.0105   22.9119 H   0  0  0  0  0  0
  -19.7954  -30.7311   24.2212 H   0  0  0  0  0  0
  -17.5024  -31.6252   24.5200 H   0  0  0  0  0  0
  -15.5370  -30.2971   23.7678 H   0  0  0  0  0  0
  -15.8686  -28.0816   22.7085 H   0  0  0  0  0  0
  -24.5890  -30.7111   25.7710 H   0  0  0  0  0  0
  -24.8893  -32.2954   26.4754 H   0  0  0  0  0  0
  -25.7974  -30.8978   27.0224 H   0  0  0  0  0  0
  -26.3054  -29.6637   24.1351 H   0  0  0  0  0  0
  -27.3989  -29.7262   25.4954 H   0  0  0  0  0  0
  -27.8983  -30.4142   23.9716 H   0  0  0  0  0  0
  -27.2634  -33.3657   26.2017 H   0  0  0  0  0  0
  -28.3897  -32.6874   25.0362 H   0  0  0  0  0  0
  -28.0684  -31.8515   26.5483 H   0  0  0  0  0  0
  -28.2584  -38.0092   24.7511 H   0  0  0  0  0  0
  -28.1086  -36.2622   24.6292 H   0  0  0  0  0  0
  -27.2293  -37.1429   25.8866 H   0  0  0  0  0  0
  -20.9501  -29.8776   21.6735 H   0  0  0  0  0  0
  -26.0156  -38.2812   24.1408 H   0  0  0  0  0  0
  -29.9191  -22.2082   21.3406 H   0  0  0  0  0  0
  -25.7599  -24.3256   20.1890 H   0  0  0  0  0  0
  -24.8564  -22.9709   19.6462 H   0  0  0  0  0  0
  -25.7710  -23.8796   18.4515 H   0  0  0  0  0  0
  -25.3702  -21.4005   17.7809 H   0  0  0  0  0  0
  -24.8022  -20.6354   19.2715 H   0  0  0  0  0  0
  -25.8278  -19.7469   18.1519 H   0  0  0  0  0  0
  -25.4002  -17.2955   24.9712 H   0  0  0  0  0  0
  -25.4753  -16.9424   23.2502 H   0  0  0  0  0  0
  -25.0599  -18.5628   23.7960 H   0  0  0  0  0  0
  -27.1322  -18.7635   26.0638 H   0  0  0  0  0  0
  -27.0057  -20.0663   24.8876 H   0  0  0  0  0  0
  -28.5562  -19.2879   25.1911 H   0  0  0  0  0  0
  -29.1595  -24.7415   21.4692 H   0  0  0  0  0  0
  -27.4614  -24.7906   21.6537 H   0  0  0  0  0  0
  -29.6853  -18.1213   22.8999 H   0  0  0  0  0  0
  -29.3173  -19.8093   23.0366 H   0  0  0  0  0  0
  -27.3339  -17.8070   21.8652 H   0  0  0  0  0  0
  -27.0063  -19.4541   22.3152 H   0  0  0  0  0  0
  -28.7751  -17.5291   20.2028 H   0  0  0  0  0  0
  -30.6080  -17.5102   20.9874 H   0  0  0  0  0  0
  -30.5995  -19.5625   21.1159 H   0  0  0  0  0  0
  -27.7512  -17.1802   24.2111 H   0  0  0  0  0  0
  -28.8161  -15.8780   20.9464 H   0  0  0  0  0  0
  1 25  1  0  0  0
  1 30  2  0  0  0
  1 87  1  0  0  0
  2  3  1  0  0  0
  2 25  1  0  0  0
  2 88  1  0  0  0
  2 89  1  0  0  0
  3  4  1  0  0  0
  3 90  1  0  0  0
  3 91  1  0  0  0
  4  5  1  0  0  0
  4 92  1  0  0  0
  4 93  1  0  0  0
  5  6  1  0  0  0
  5 26  1  0  0  0
  5 94  1  0  0  0
  6 25  1  0  0  0
  6 95  1  0  0  0
  6 96  1  0  0  0
  7  8  2  0  0  0
  7 26  1  0  0  0
  7 29  1  0  0  0
  8  9  1  0  0  0
  8 22  1  0  0  0
  9 10  1  0  0  0
  9 27  2  0  0  0
 10 11  2  0  0  0
 10 15  1  0  0  0
 11 12  1  0  0  0
 11 97  1  0  0  0
 12 13  2  0  0  0
 12 98  1  0  0  0
 13 14  1  0  0  0
 13 31  1  0  0  0
 14 15  2  0  0  0
 14 99  1  0  0  0
 15100  1  0  0  0
 16 17  2  0  0  0
 16 21  1  0  0  0
 16 31  1  0  0  0
 17 18  1  0  0  0
 17101  1  0  0  0
 18 19  2  0  0  0
 18102  1  0  0  0
 19 20  1  0  0  0
 19 24  1  0  0  0
 20 21  2  0  0  0
 20103  1  0  0  0
 21 23  1  0  0  0
 22 28  1  0  0  0
 22 32  2  0  0  0
 26 27  1  0  0  0
 28104  1  0  0  0
 28105  1  0  0  0
 29106  1  0  0  0
 29107  1  0  0  0
 33 34  1  0  0  0
 33 66  1  0  0  0
 33 70  2  0  0  0
 34 36  1  0  0  0
 34 59  1  0  0  0
 34108  1  0  0  0
 35 44  2  0  0  0
 35 45  1  0  0  0
 35 68  1  0  0  0
 36 56  1  0  0  0
 36109  1  0  0  0
 37 39  1  0  0  0
 37 47  1  0  0  0
 37 66  1  0  0  0
 37110  1  0  0  0
 38 43  2  0  0  0
 38 46  1  0  0  0
 38 47  1  0  0  0
 39 64  1  0  0  0
 39 67  2  0  0  0
 40 52  1  0  0  0
 40 53  2  0  0  0
 40 58  1  0  0  0
 41111  1  0  0  0
 41112  1  0  0  0
 41113  1  0  0  0
 41 48  1  0  0  0
 42 43  1  0  0  0
 42 66  1  0  0  0
 42114  1  0  0  0
 42115  1  0  0  0
 43 44  1  0  0  0
 44116  1  0  0  0
 45 46  2  0  0  0
 45117  1  0  0  0
 46118  1  0  0  0
 47119  1  0  0  0
 47120  1  0  0  0
 48 56  1  0  0  0
 48 65  1  0  0  0
 48121  1  0  0  0
 49 50  1  0  0  0
 49 53  1  0  0  0
 49 64  1  0  0  0
 49122  1  0  0  0
 50 51  1  0  0  0
 50123  1  0  0  0
 50124  1  0  0  0
 51 52  1  0  0  0
 51125  1  0  0  0
 51126  1  0  0  0
 52127  1  0  0  0
 52128  1  0  0  0
 53 54  1  0  0  0
 54 55  2  0  0  0
 54129  1  0  0  0
 55 57  1  0  0  0
 55130  1  0  0  0
 56 69  2  0  0  0
 57 58  2  0  0  0
 57131  1  0  0  0
 58132  1  0  0  0
 59 60  1  0  0  0
 59 61  1  0  0  0
 59 62  1  0  0  0
 60133  1  0  0  0
 60134  1  0  0  0
 60135  1  0  0  0
 61136  1  0  0  0
 61137  1  0  0  0
 61138  1  0  0  0
 62139  1  0  0  0
 62140  1  0  0  0
 62141  1  0  0  0
 63 65  1  0  0  0
 63142  1  0  0  0
 63143  1  0  0  0
 63144  1  0  0  0
 64145  1  0  0  0
 65146  1  0  0  0
 68 80  1  0  0  0
 71 72  2  0  0  0
 71 74  1  0  0  0
 71147  1  0  0  0
 72 73  1  0  0  0
 72 80  1  0  0  0
 73 75  2  0  0  0
 73 76  1  0  0  0
 74 84  1  0  0  0
 74 86  2  0  0  0
 75 77  1  0  0  0
 75 86  1  0  0  0
 76148  1  0  0  0
 76149  1  0  0  0
 76150  1  0  0  0
 77151  1  0  0  0
 77152  1  0  0  0
 77153  1  0  0  0
 78154  1  0  0  0
 78155  1  0  0  0
 78156  1  0  0  0
 78 85  1  0  0  0
 79 85  1  0  0  0
 79157  1  0  0  0
 79158  1  0  0  0
 79159  1  0  0  0
 80160  1  0  0  0
 80161  1  0  0  0
 81 82  1  0  0  0
 81162  1  0  0  0
 81163  1  0  0  0
 81 84  1  0  0  0
 82 85  1  0  0  0
 82164  1  0  0  0
 82165  1  0  0  0
 83 84  1  0  0  0
 83 87  1  0  0  0
 83166  1  0  0  0
 83167  1  0  0  0
 84168  1  0  0  0
 85169  1  0  0  0
 87170  1  0  0  0
M  ISO  4   1 100  68 101  80 101  87 100
M  END
> <chiral flag>
0

> <version>
0

> <s_m_source_file>
/data/baiqing/PycharmProjects/Reinvent-master-3.2/result/LINK_invent/BTK/process_docking_weight1_custom_sum_contain_oxygen_bond_distance_aromatic_linkinvent_7_9_3/rearranged_h_0091.sdf

> <i_m_source_file_index>
52

> <r_mmod_Potential_Energy-OPLS-2005>
717.87646484375

> <r_mmod_Stretch_Energy-OPLS-2005>
305.637176513672

> <r_mmod_Bend_Energy-OPLS-2005>
513.811645507812

> <r_mmod_Torsional_Energy-OPLS-2005>
268.295379638672

> <r_mmod_Improper_Torsional_Energy-OPLS-2005>
9.18652534484863

> <r_mmod_Van_der_Waal_Energy-OPLS-2005>
135.882904052734

> <r_mmod_Electrostatic_Energy-OPLS-2005>
-507.587005615234

> <r_mmod_Solvation_Energy-OPLS-2005>
-214.022811889648

> <b_mmod_Minimization_Converged-OPLS-2005>
0

> <r_mmod_RMS_Derivative-OPLS-2005>
1.90567100048065

$$$$
53
                    3D
 Structure written by MMmdl.
185193  0  0  1  0            999 V2000
  -30.6449  -14.6010   20.4639 C   0  0  0  0  0  0
  -30.4100  -12.3563   19.4690 C   0  0  0  0  0  0
  -29.5033  -12.4991   18.2287 C   0  0  0  0  0  0
  -28.0218  -12.3545   18.6279 C   0  0  0  0  0  0
  -27.6419  -13.2255   19.8573 C   0  0  2  0  0  0
  -28.6800  -13.1068   20.9962 C   0  0  0  0  0  0
  -25.2488  -13.8172   20.5683 C   0  0  0  0  0  0
  -24.1783  -13.0430   20.9192 C   0  0  0  0  0  0
  -24.6372  -11.6908   20.8727 C   0  0  0  0  0  0
  -23.9062  -10.4295   21.0406 C   0  0  0  0  0  0
  -24.3613   -9.4208   21.9186 C   0  0  0  0  0  0
  -23.6281   -8.2248   22.0763 C   0  0  0  0  0  0
  -22.4271   -8.0284   21.3545 C   0  0  0  0  0  0
  -21.9910   -9.0252   20.4650 C   0  0  0  0  0  0
  -22.7237  -10.2131   20.3052 C   0  0  0  0  0  0
  -21.6854   -6.0731   22.5274 C   0  0  0  0  0  0
  -21.4025   -6.5638   23.8206 C   0  0  0  0  0  0
  -21.3655   -5.6794   24.9169 C   0  0  0  0  0  0
  -21.6046   -4.3056   24.7226 C   0  0  0  0  0  0
  -21.8815   -3.8144   23.4346 C   0  0  0  0  0  0
  -21.9195   -4.6961   22.3397 C   0  0  0  0  0  0
  -22.7809  -13.5223   21.1851 C   0  0  0  0  0  0
  -22.1658   -4.2145   21.0972 F   0  0  0  0  0  0
  -21.5624   -3.4536   25.7737 F   0  0  0  0  0  0
  -29.9993  -13.3988   20.4285 N   0  0  0  0  0  0
  -26.2913  -12.9381   20.3267 N   0  0  0  0  0  0
  -25.9294  -11.6535   20.5728 N   0  0  0  0  0  0
  -22.0450  -12.8219   22.0408 N   0  0  0  0  0  0
  -25.4137  -15.1882   20.4092 N   0  0  0  0  0  0
  -31.8348  -14.6895   20.1497 O   0  0  0  0  0  0
  -21.6636   -6.8876   21.4239 O   0  0  0  0  0  0
  -22.3502  -14.5538   20.6708 O   0  0  0  0  0  0
  -24.6228  -31.8626   23.2029 C   0  0  0  0  0  0
  -25.9098  -32.4788   23.8330 C   0  0  1  0  0  0
  -27.2205  -27.3457   20.1272 C   0  0  0  0  0  0
  -25.5939  -33.8576   24.2279 N   0  0  0  0  0  0
  -23.4154  -30.4833   21.5462 C   0  0  2  0  0  0
  -24.8631  -28.9421   20.1082 C   0  0  0  0  0  0
  -22.7440  -29.4615   22.4961 C   0  0  0  0  0  0
  -18.0287  -28.1329   22.8467 C   0  0  0  0  0  0
  -24.1513  -36.7307   23.2645 C   0  0  0  0  0  0
  -25.9509  -30.8016   21.3714 C   0  0  0  0  0  0
  -26.0289  -29.4315   20.7114 C   0  0  0  0  0  0
  -27.2158  -28.6451   20.7099 C   0  0  0  0  0  0
  -26.0398  -26.8993   19.4969 C   0  0  0  0  0  0
  -24.8687  -27.6817   19.4874 C   0  0  0  0  0  0
  -23.6294  -29.8191   20.1594 C   0  0  0  0  0  0
  -25.4137  -36.3093   24.0346 C   0  0  1  0  0  0
  -20.5874  -28.3640   23.1290 C   0  0  2  0  0  0
  -20.6782  -26.9374   22.5403 C   0  0  0  0  0  0
  -19.5775  -26.6349   21.5189 C   0  0  0  0  0  0
  -18.1940  -26.7874   22.1592 C   0  0  0  0  0  0
  -19.1527  -28.8804   23.2856 C   0  0  0  0  0  0
  -18.9461  -30.1410   23.8874 C   0  0  0  0  0  0
  -17.6466  -30.6546   24.0537 C   0  0  0  0  0  0
  -25.9071  -34.9452   23.5112 C   0  0  0  0  0  0
  -16.5359  -29.9045   23.6319 C   0  0  0  0  0  0
  -16.7272  -28.6451   23.0338 C   0  0  0  0  0  0
  -26.4484  -31.6586   25.0688 C   0  0  0  0  0  0
  -25.3719  -31.3685   26.1421 C   0  0  0  0  0  0
  -27.0341  -30.3032   24.6089 C   0  0  0  0  0  0
  -27.6045  -32.4311   25.7464 C   0  0  0  0  0  0
  -27.5609  -37.1809   24.8469 C   0  0  0  0  0  0
  -21.4180  -29.3003   22.3687 N   0  0  0  0  0  0
  -26.4325  -37.3774   23.9403 N   0  0  0  0  0  0
  -24.6808  -31.0654   22.0986 N   0  0  0  0  0  0
  -23.4175  -28.8160   23.3028 O   0  0  0  0  0  0
  -28.3215  -26.4914   20.1675 O   0  0  0  0  0  0
  -26.5617  -34.8943   22.4669 O   0  0  0  0  0  0
  -23.5407  -32.1446   23.7386 O   0  0  0  0  0  0
  -30.2104  -20.6987   21.2554 C   0  0  0  0  0  0
  -30.5985  -19.3493   21.0259 C   0  0  0  0  0  0
  -29.7048  -18.4418   20.3678 C   0  0  0  0  0  0
  -28.9445  -21.1689   20.8552 C   0  0  0  0  0  0
  -28.4149  -18.9945   20.0777 C   0  0  0  0  0  0
  -34.3943  -15.5988   24.6165 C   0  0  0  0  0  0
  -30.0239  -16.8682   18.3304 C   0  0  0  0  0  0
  -24.7377  -18.4972   16.6404 C   0  0  0  0  0  0
  -26.1279  -16.4075   16.9730 C   0  0  0  0  0  0
  -31.9741  -18.9179   21.5370 C   0  0  0  0  0  0
  -28.4248  -22.5997   21.2265 C   0  0  0  0  0  0
  -27.2558  -18.1553   19.5575 C   0  0  0  0  0  0
  -33.0952  -16.3537   24.3107 C   0  0  0  0  0  0
  -31.8715  -17.9120   22.7008 C   0  0  0  0  0  0
  -28.7069  -23.8605   20.3064 C   0  0  0  0  0  0
  -26.7762  -18.5730   18.1538 C   0  0  0  0  0  0
  -33.2179  -17.2812   23.0908 C   0  0  0  0  0  0
  -28.1064  -25.2166   20.8729 C   0  0  0  0  0  0
  -30.2121  -17.0230   19.8546 C   0  0  2  0  0  0
  -25.6168  -17.7067   17.6204 C   0  0  0  0  0  0
  -28.0682  -20.2982   20.3021 N   0  0  0  0  0  0
  -29.8592  -15.7250   20.5305 N   0  0  0  0  0  0
  -31.4586  -12.4409   19.1822 H   0  0  0  0  0  0
  -30.3000  -11.3677   19.9154 H   0  0  0  0  0  0
  -29.7639  -11.7500   17.4799 H   0  0  0  0  0  0
  -29.6651  -13.4709   17.7587 H   0  0  0  0  0  0
  -27.8430  -11.3010   18.8488 H   0  0  0  0  0  0
  -27.3793  -12.6008   17.7810 H   0  0  0  0  0  0
  -27.6518  -14.2576   19.5073 H   0  0  0  0  0  0
  -28.6673  -12.1091   21.4355 H   0  0  0  0  0  0
  -28.4410  -13.7980   21.8060 H   0  0  0  0  0  0
  -25.2757   -9.5690   22.4762 H   0  0  0  0  0  0
  -23.9982   -7.4654   22.7501 H   0  0  0  0  0  0
  -21.0839   -8.8782   19.8958 H   0  0  0  0  0  0
  -22.3699  -10.9672   19.6163 H   0  0  0  0  0  0
  -21.2025   -7.6143   23.9710 H   0  0  0  0  0  0
  -21.1482   -6.0519   25.9069 H   0  0  0  0  0  0
  -22.0599   -2.7607   23.2844 H   0  0  0  0  0  0
  -22.4050  -11.9856   22.4776 H   0  0  0  0  0  0
  -21.1076  -13.1264   22.2629 H   0  0  0  0  0  0
  -24.6277  -15.8226   20.4854 H   0  0  0  0  0  0
  -26.2350  -15.6178   20.0121 H   0  0  0  0  0  0
  -26.7164  -32.5482   23.1076 H   0  0  0  0  0  0
  -25.0097  -33.9680   25.0435 H   0  0  0  0  0  0
  -22.7084  -31.3027   21.4018 H   0  0  0  0  0  0
  -23.3781  -35.9632   23.3303 H   0  0  0  0  0  0
  -24.3600  -36.8926   22.2061 H   0  0  0  0  0  0
  -23.7253  -37.6501   23.6658 H   0  0  0  0  0  0
  -26.0787  -31.5686   20.6053 H   0  0  0  0  0  0
  -26.8308  -30.8455   22.0010 H   0  0  0  0  0  0
  -28.1120  -29.0108   21.1912 H   0  0  0  0  0  0
  -26.0200  -25.9276   19.0220 H   0  0  0  0  0  0
  -23.9758  -27.3029   19.0099 H   0  0  0  0  0  0
  -23.7440  -30.5945   19.4007 H   0  0  0  0  0  0
  -22.7506  -29.2445   19.8609 H   0  0  0  0  0  0
  -25.1296  -36.1977   25.0840 H   0  0  0  0  0  0
  -20.9926  -28.3240   24.1418 H   0  0  0  0  0  0
  -20.5698  -26.2252   23.3591 H   0  0  0  0  0  0
  -21.6664  -26.7433   22.1181 H   0  0  0  0  0  0
  -19.6984  -25.6257   21.1227 H   0  0  0  0  0  0
  -19.6743  -27.3159   20.6708 H   0  0  0  0  0  0
  -17.4215  -26.6615   21.3979 H   0  0  0  0  0  0
  -18.0338  -25.9988   22.8959 H   0  0  0  0  0  0
  -19.7965  -30.7171   24.2265 H   0  0  0  0  0  0
  -17.5058  -31.6241   24.5099 H   0  0  0  0  0  0
  -15.5370  -30.2934   23.7657 H   0  0  0  0  0  0
  -15.8673  -28.0770   22.7073 H   0  0  0  0  0  0
  -24.5913  -30.7023   25.7756 H   0  0  0  0  0  0
  -24.8882  -32.2831   26.4869 H   0  0  0  0  0  0
  -25.8054  -30.8857   27.0200 H   0  0  0  0  0  0
  -26.2897  -29.6756   24.1182 H   0  0  0  0  0  0
  -27.4162  -29.7291   25.4539 H   0  0  0  0  0  0
  -27.8713  -30.4347   23.9223 H   0  0  0  0  0  0
  -27.2657  -33.3629   26.2008 H   0  0  0  0  0  0
  -28.3866  -32.6850   25.0297 H   0  0  0  0  0  0
  -28.0702  -31.8457   26.5409 H   0  0  0  0  0  0
  -28.2589  -38.0136   24.7507 H   0  0  0  0  0  0
  -28.1110  -36.2643   24.6275 H   0  0  0  0  0  0
  -27.2289  -37.1441   25.8857 H   0  0  0  0  0  0
  -20.9371  -29.8738   21.6902 H   0  0  0  0  0  0
  -26.0232  -38.2866   24.1373 H   0  0  0  0  0  0
  -30.8782  -21.3772   21.7686 H   0  0  0  0  0  0
  -34.2801  -14.9666   25.4981 H   0  0  0  0  0  0
  -35.2189  -16.2867   24.8082 H   0  0  0  0  0  0
  -34.6807  -14.9536   23.7846 H   0  0  0  0  0  0
  -30.3890  -17.7475   17.7980 H   0  0  0  0  0  0
  -28.9914  -16.7031   18.0353 H   0  0  0  0  0  0
  -30.5861  -16.0142   17.9505 H   0  0  0  0  0  0
  -23.8938  -17.8995   16.2931 H   0  0  0  0  0  0
  -25.3005  -18.8225   15.7638 H   0  0  0  0  0  0
  -24.3258  -19.3869   17.1182 H   0  0  0  0  0  0
  -25.3007  -15.7713   16.6567 H   0  0  0  0  0  0
  -26.7357  -15.8231   17.6621 H   0  0  0  0  0  0
  -26.7373  -16.6155   16.0929 H   0  0  0  0  0  0
  -32.5238  -19.7946   21.8814 H   0  0  0  0  0  0
  -32.5771  -18.5271   20.7180 H   0  0  0  0  0  0
  -28.7996  -22.8191   22.2271 H   0  0  0  0  0  0
  -27.3426  -22.5218   21.3512 H   0  0  0  0  0  0
  -26.4281  -18.2650   20.2613 H   0  0  0  0  0  0
  -27.5050  -17.0987   19.5914 H   0  0  0  0  0  0
  -32.8054  -16.9352   25.1879 H   0  0  0  0  0  0
  -32.2950  -15.6308   24.1458 H   0  0  0  0  0  0
  -31.1849  -17.1102   22.4352 H   0  0  0  0  0  0
  -31.4245  -18.4096   23.5624 H   0  0  0  0  0  0
  -28.2994  -23.6760   19.3119 H   0  0  0  0  0  0
  -29.7831  -23.9758   20.1798 H   0  0  0  0  0  0
  -27.6111  -18.5666   17.4505 H   0  0  0  0  0  0
  -26.4494  -19.6139   18.2072 H   0  0  0  0  0  0
  -33.6065  -16.7165   22.2417 H   0  0  0  0  0  0
  -33.9478  -18.0646   23.3008 H   0  0  0  0  0  0
  -28.5248  -25.3665   21.8689 H   0  0  0  0  0  0
  -27.0429  -25.0505   21.0515 H   0  0  0  0  0  0
  -31.2911  -17.0735   19.9387 H   0  0  0  0  0  0
  -24.9760  -17.4359   18.4609 H   0  0  0  0  0  0
  -28.8976  -15.5812   20.7945 H   0  0  0  0  0  0
  1 25  1  0  0  0
  1 30  2  0  0  0
  1 92  1  0  0  0
  2  3  1  0  0  0
  2 25  1  0  0  0
  2 93  1  0  0  0
  2 94  1  0  0  0
  3  4  1  0  0  0
  3 95  1  0  0  0
  3 96  1  0  0  0
  4  5  1  0  0  0
  4 97  1  0  0  0
  4 98  1  0  0  0
  5  6  1  0  0  0
  5 26  1  0  0  0
  5 99  1  0  0  0
  6 25  1  0  0  0
  6100  1  0  0  0
  6101  1  0  0  0
  7  8  2  0  0  0
  7 26  1  0  0  0
  7 29  1  0  0  0
  8  9  1  0  0  0
  8 22  1  0  0  0
  9 10  1  0  0  0
  9 27  2  0  0  0
 10 11  2  0  0  0
 10 15  1  0  0  0
 11 12  1  0  0  0
 11102  1  0  0  0
 12 13  2  0  0  0
 12103  1  0  0  0
 13 14  1  0  0  0
 13 31  1  0  0  0
 14 15  2  0  0  0
 14104  1  0  0  0
 15105  1  0  0  0
 16 17  2  0  0  0
 16 21  1  0  0  0
 16 31  1  0  0  0
 17 18  1  0  0  0
 17106  1  0  0  0
 18 19  2  0  0  0
 18107  1  0  0  0
 19 20  1  0  0  0
 19 24  1  0  0  0
 20 21  2  0  0  0
 20108  1  0  0  0
 21 23  1  0  0  0
 22 28  1  0  0  0
 22 32  2  0  0  0
 26 27  1  0  0  0
 28109  1  0  0  0
 28110  1  0  0  0
 29111  1  0  0  0
 29112  1  0  0  0
 33 34  1  0  0  0
 33 66  1  0  0  0
 33 70  2  0  0  0
 34 36  1  0  0  0
 34 59  1  0  0  0
 34113  1  0  0  0
 35 44  2  0  0  0
 35 45  1  0  0  0
 35 68  1  0  0  0
 36 56  1  0  0  0
 36114  1  0  0  0
 37 39  1  0  0  0
 37 47  1  0  0  0
 37 66  1  0  0  0
 37115  1  0  0  0
 38 43  2  0  0  0
 38 46  1  0  0  0
 38 47  1  0  0  0
 39 64  1  0  0  0
 39 67  2  0  0  0
 40 52  1  0  0  0
 40 53  2  0  0  0
 40 58  1  0  0  0
 41116  1  0  0  0
 41117  1  0  0  0
 41118  1  0  0  0
 41 48  1  0  0  0
 42 43  1  0  0  0
 42 66  1  0  0  0
 42119  1  0  0  0
 42120  1  0  0  0
 43 44  1  0  0  0
 44121  1  0  0  0
 45 46  2  0  0  0
 45122  1  0  0  0
 46123  1  0  0  0
 47124  1  0  0  0
 47125  1  0  0  0
 48 56  1  0  0  0
 48 65  1  0  0  0
 48126  1  0  0  0
 49 50  1  0  0  0
 49 53  1  0  0  0
 49 64  1  0  0  0
 49127  1  0  0  0
 50 51  1  0  0  0
 50128  1  0  0  0
 50129  1  0  0  0
 51 52  1  0  0  0
 51130  1  0  0  0
 51131  1  0  0  0
 52132  1  0  0  0
 52133  1  0  0  0
 53 54  1  0  0  0
 54 55  2  0  0  0
 54134  1  0  0  0
 55 57  1  0  0  0
 55135  1  0  0  0
 56 69  2  0  0  0
 57 58  2  0  0  0
 57136  1  0  0  0
 58137  1  0  0  0
 59 60  1  0  0  0
 59 61  1  0  0  0
 59 62  1  0  0  0
 60138  1  0  0  0
 60139  1  0  0  0
 60140  1  0  0  0
 61141  1  0  0  0
 61142  1  0  0  0
 61143  1  0  0  0
 62144  1  0  0  0
 62145  1  0  0  0
 62146  1  0  0  0
 63 65  1  0  0  0
 63147  1  0  0  0
 63148  1  0  0  0
 63149  1  0  0  0
 64150  1  0  0  0
 65151  1  0  0  0
 68 88  1  0  0  0
 71 72  2  0  0  0
 71 74  1  0  0  0
 71152  1  0  0  0
 72 73  1  0  0  0
 72 80  1  0  0  0
 73 75  2  0  0  0
 73 89  1  0  0  0
 74 81  1  0  0  0
 74 91  2  0  0  0
 75 82  1  0  0  0
 75 91  1  0  0  0
 76 83  1  0  0  0
 76153  1  0  0  0
 76154  1  0  0  0
 76155  1  0  0  0
 77156  1  0  0  0
 77157  1  0  0  0
 77158  1  0  0  0
 77 89  1  0  0  0
 78159  1  0  0  0
 78160  1  0  0  0
 78161  1  0  0  0
 78 90  1  0  0  0
 79 90  1  0  0  0
 79162  1  0  0  0
 79163  1  0  0  0
 79164  1  0  0  0
 80 84  1  0  0  0
 80165  1  0  0  0
 80166  1  0  0  0
 81 85  1  0  0  0
 81167  1  0  0  0
 81168  1  0  0  0
 82 86  1  0  0  0
 82169  1  0  0  0
 82170  1  0  0  0
 83 87  1  0  0  0
 83171  1  0  0  0
 83172  1  0  0  0
 84 87  1  0  0  0
 84173  1  0  0  0
 84174  1  0  0  0
 85 88  1  0  0  0
 85175  1  0  0  0
 85176  1  0  0  0
 86 90  1  0  0  0
 86177  1  0  0  0
 86178  1  0  0  0
 87179  1  0  0  0
 87180  1  0  0  0
 88181  1  0  0  0
 88182  1  0  0  0
 89 92  1  0  0  0
 89183  1  0  0  0
 90184  1  0  0  0
 92185  1  0  0  0
M  ISO  4   1 100  68 101  88 101  92 100
M  END
> <chiral flag>
0

> <version>
0

> <s_m_source_file>
/data/baiqing/PycharmProjects/Reinvent-master-3.2/result/LINK_invent/BTK/process_docking_weight1_custom_sum_contain_oxygen_bond_distance_aromatic_linkinvent_7_9_3/rearranged_h_0091.sdf

> <i_m_source_file_index>
53

> <r_mmod_Potential_Energy-OPLS-2005>
-59.8182258605957

> <r_mmod_Stretch_Energy-OPLS-2005>
76.1669692993164

> <r_mmod_Bend_Energy-OPLS-2005>
142.279067993164

> <r_mmod_Torsional_Energy-OPLS-2005>
242.321029663086

> <r_mmod_Improper_Torsional_Energy-OPLS-2005>
11.5844993591309

> <r_mmod_Van_der_Waal_Energy-OPLS-2005>
129.223281860352

> <r_mmod_Electrostatic_Energy-OPLS-2005>
-506.564636230469

> <r_mmod_Solvation_Energy-OPLS-2005>
-197.615631103516

> <b_mmod_Minimization_Converged-OPLS-2005>
0

> <r_mmod_RMS_Derivative-OPLS-2005>
3.23647379875183

$$$$
54
                    3D
 Structure written by MMmdl.
171179  0  0  1  0            999 V2000
  -30.6453  -14.5881   20.5493 C   0  0  0  0  0  0
  -30.4271  -12.3669   19.4389 C   0  0  0  0  0  0
  -29.4971  -12.5153   18.2158 C   0  0  0  0  0  0
  -28.0197  -12.3572   18.6263 C   0  0  0  0  0  0
  -27.6532  -13.2120   19.8676 C   0  0  2  0  0  0
  -28.6985  -13.0403   20.9912 C   0  0  0  0  0  0
  -25.2561  -13.8177   20.5698 C   0  0  0  0  0  0
  -24.1828  -13.0440   20.9197 C   0  0  0  0  0  0
  -24.6389  -11.6909   20.8732 C   0  0  0  0  0  0
  -23.9057  -10.4299   21.0403 C   0  0  0  0  0  0
  -24.3608   -9.4214   21.9178 C   0  0  0  0  0  0
  -23.6295   -8.2240   22.0745 C   0  0  0  0  0  0
  -22.4270   -8.0272   21.3545 C   0  0  0  0  0  0
  -21.9902   -9.0242   20.4641 C   0  0  0  0  0  0
  -22.7227  -10.2127   20.3057 C   0  0  0  0  0  0
  -21.6858   -6.0719   22.5270 C   0  0  0  0  0  0
  -21.4012   -6.5624   23.8195 C   0  0  0  0  0  0
  -21.3676   -5.6783   24.9165 C   0  0  0  0  0  0
  -21.6061   -4.3042   24.7227 C   0  0  0  0  0  0
  -21.8822   -3.8133   23.4349 C   0  0  0  0  0  0
  -21.9201   -4.6947   22.3400 C   0  0  0  0  0  0
  -22.7848  -13.5208   21.1899 C   0  0  0  0  0  0
  -22.1661   -4.2124   21.0978 F   0  0  0  0  0  0
  -21.5651   -3.4532   25.7746 F   0  0  0  0  0  0
  -30.0164  -13.3765   20.4341 N   0  0  0  0  0  0
  -26.2986  -12.9347   20.3339 N   0  0  0  0  0  0
  -25.9314  -11.6504   20.5753 N   0  0  0  0  0  0
  -22.0514  -12.8169   22.0447 N   0  0  0  0  0  0
  -25.4294  -15.1901   20.4112 N   0  0  0  0  0  0
  -31.7884  -14.7442   20.1082 O   0  0  0  0  0  0
  -21.6644   -6.8859   21.4229 O   0  0  0  0  0  0
  -22.3517  -14.5521   20.6763 O   0  0  0  0  0  0
  -24.6206  -31.8629   23.2052 C   0  0  0  0  0  0
  -25.9068  -32.4795   23.8362 C   0  0  1  0  0  0
  -27.2221  -27.3654   20.1139 C   0  0  0  0  0  0
  -25.5902  -33.8602   24.2311 N   0  0  0  0  0  0
  -23.4119  -30.4831   21.5489 C   0  0  2  0  0  0
  -24.8566  -28.9422   20.1131 C   0  0  0  0  0  0
  -22.7433  -29.4616   22.4980 C   0  0  0  0  0  0
  -18.0274  -28.1361   22.8492 C   0  0  0  0  0  0
  -24.1495  -36.7295   23.2640 C   0  0  0  0  0  0
  -25.9461  -30.8105   21.3658 C   0  0  0  0  0  0
  -26.0219  -29.4394   20.7102 C   0  0  0  0  0  0
  -27.2123  -28.6636   20.6954 C   0  0  0  0  0  0
  -26.0387  -26.9020   19.5007 C   0  0  0  0  0  0
  -24.8634  -27.6776   19.4991 C   0  0  0  0  0  0
  -23.6219  -29.8154   20.1641 C   0  0  0  0  0  0
  -25.4115  -36.3098   24.0345 C   0  0  1  0  0  0
  -20.5867  -28.3645   23.1311 C   0  0  2  0  0  0
  -20.6774  -26.9376   22.5422 C   0  0  0  0  0  0
  -19.5763  -26.6369   21.5209 C   0  0  0  0  0  0
  -18.1935  -26.7916   22.1609 C   0  0  0  0  0  0
  -19.1524  -28.8819   23.2904 C   0  0  0  0  0  0
  -18.9452  -30.1431   23.8912 C   0  0  0  0  0  0
  -17.6458  -30.6578   24.0553 C   0  0  0  0  0  0
  -25.9035  -34.9460   23.5120 C   0  0  0  0  0  0
  -16.5345  -29.9078   23.6328 C   0  0  0  0  0  0
  -16.7266  -28.6485   23.0363 C   0  0  0  0  0  0
  -26.4486  -31.6585   25.0705 C   0  0  0  0  0  0
  -25.3762  -31.3663   26.1456 C   0  0  0  0  0  0
  -27.0311  -30.3026   24.6082 C   0  0  0  0  0  0
  -27.6058  -32.4305   25.7467 C   0  0  0  0  0  0
  -27.5586  -37.1804   24.8469 C   0  0  0  0  0  0
  -21.4151  -29.3021   22.3727 N   0  0  0  0  0  0
  -26.4296  -37.3792   23.9414 N   0  0  0  0  0  0
  -24.6781  -31.0675   22.0977 N   0  0  0  0  0  0
  -23.4187  -28.8159   23.3033 O   0  0  0  0  0  0
  -28.3620  -26.5692   20.1236 O   0  0  0  0  0  0
  -26.5605  -34.8912   22.4687 O   0  0  0  0  0  0
  -23.5381  -32.1395   23.7418 O   0  0  0  0  0  0
  -28.1330  -21.9692   20.8522 C   0  0  0  0  0  0
  -28.1932  -20.5567   21.0181 C   0  0  0  0  0  0
  -28.9927  -19.7488   20.1391 C   0  0  0  0  0  0
  -28.8819  -22.6039   19.8449 C   0  0  0  0  0  0
  -29.7283  -20.4945   19.1650 C   0  0  0  0  0  0
  -25.9554  -19.4913   21.6154 C   0  0  0  0  0  0
  -30.0424  -20.0086   16.6847 C   0  0  0  0  0  0
  -28.1403  -17.6552   18.9252 C   0  0  0  0  0  0
  -30.1636  -15.9796   22.6409 C   0  0  0  0  0  0
  -27.3236  -19.9691   22.1258 C   0  0  0  0  0  0
  -28.8185  -24.1263   19.4964 C   0  0  0  0  0  0
  -30.6181  -19.8607   18.1025 C   0  0  0  0  0  0
  -30.1731  -17.2592   20.4254 C   0  0  0  0  0  0
  -28.2208  -25.1604   20.5124 C   0  0  0  0  0  0
  -28.8980  -18.1649   20.1634 C   0  0  1  0  0  0
  -29.8964  -15.8552   21.1287 C   0  0  1  0  0  0
  -29.6802  -21.8529   19.0519 N   0  0  0  0  0  0
  -31.4696  -12.4753   19.1377 H   0  0  0  0  0  0
  -30.3401  -11.3634   19.8592 H   0  0  0  0  0  0
  -29.7520  -11.7794   17.4530 H   0  0  0  0  0  0
  -29.6503  -13.4947   17.7594 H   0  0  0  0  0  0
  -27.8464  -11.3015   18.8380 H   0  0  0  0  0  0
  -27.3659  -12.6061   17.7900 H   0  0  0  0  0  0
  -27.6775  -14.2509   19.5427 H   0  0  0  0  0  0
  -28.6977  -12.0122   21.3541 H   0  0  0  0  0  0
  -28.4493  -13.6508   21.8583 H   0  0  0  0  0  0
  -25.2758   -9.5683   22.4742 H   0  0  0  0  0  0
  -24.0021   -7.4615   22.7440 H   0  0  0  0  0  0
  -21.0851   -8.8741   19.8927 H   0  0  0  0  0  0
  -22.3685  -10.9652   19.6154 H   0  0  0  0  0  0
  -21.1973   -7.6124   23.9685 H   0  0  0  0  0  0
  -21.1511   -6.0518   25.9066 H   0  0  0  0  0  0
  -22.0594   -2.7594   23.2856 H   0  0  0  0  0  0
  -22.4151  -11.9813   22.4790 H   0  0  0  0  0  0
  -21.1132  -13.1157   22.2686 H   0  0  0  0  0  0
  -24.6654  -15.8481   20.5217 H   0  0  0  0  0  0
  -26.2880  -15.6255   20.1035 H   0  0  0  0  0  0
  -26.7137  -32.5480   23.1117 H   0  0  0  0  0  0
  -25.0086  -33.9772   25.0483 H   0  0  0  0  0  0
  -22.7028  -31.3013   21.4079 H   0  0  0  0  0  0
  -23.3768  -35.9618   23.3305 H   0  0  0  0  0  0
  -24.3566  -36.8912   22.2047 H   0  0  0  0  0  0
  -23.7230  -37.6498   23.6642 H   0  0  0  0  0  0
  -26.0655  -31.5743   20.5959 H   0  0  0  0  0  0
  -26.8327  -30.8610   21.9857 H   0  0  0  0  0  0
  -28.1149  -29.0435   21.1553 H   0  0  0  0  0  0
  -26.0151  -25.9322   19.0240 H   0  0  0  0  0  0
  -23.9696  -27.2968   19.0264 H   0  0  0  0  0  0
  -23.7312  -30.5898   19.4043 H   0  0  0  0  0  0
  -22.7438  -29.2374   19.8686 H   0  0  0  0  0  0
  -25.1296  -36.1964   25.0842 H   0  0  0  0  0  0
  -20.9948  -28.3202   24.1434 H   0  0  0  0  0  0
  -20.5665  -26.2236   23.3607 H   0  0  0  0  0  0
  -21.6643  -26.7427   22.1213 H   0  0  0  0  0  0
  -19.6919  -25.6278   21.1242 H   0  0  0  0  0  0
  -19.6712  -27.3175   20.6739 H   0  0  0  0  0  0
  -17.4208  -26.6657   21.4012 H   0  0  0  0  0  0
  -18.0332  -26.0049   22.8991 H   0  0  0  0  0  0
  -19.7927  -30.7237   24.2290 H   0  0  0  0  0  0
  -17.5013  -31.6255   24.5141 H   0  0  0  0  0  0
  -15.5347  -30.2983   23.7653 H   0  0  0  0  0  0
  -15.8659  -28.0805   22.7097 H   0  0  0  0  0  0
  -24.5966  -30.6977   25.7794 H   0  0  0  0  0  0
  -24.8921  -32.2805   26.4905 H   0  0  0  0  0  0
  -25.8147  -30.8843   27.0211 H   0  0  0  0  0  0
  -26.2843  -29.6785   24.1154 H   0  0  0  0  0  0
  -27.4111  -29.7244   25.4516 H   0  0  0  0  0  0
  -27.8674  -30.4349   23.9207 H   0  0  0  0  0  0
  -27.2688  -33.3614   26.2038 H   0  0  0  0  0  0
  -28.3870  -32.6859   25.0294 H   0  0  0  0  0  0
  -28.0726  -31.8437   26.5391 H   0  0  0  0  0  0
  -28.2616  -38.0098   24.7524 H   0  0  0  0  0  0
  -28.1081  -36.2622   24.6301 H   0  0  0  0  0  0
  -27.2282  -37.1458   25.8871 H   0  0  0  0  0  0
  -20.9302  -29.8729   21.6949 H   0  0  0  0  0  0
  -26.0187  -38.2880   24.1412 H   0  0  0  0  0  0
  -27.4842  -22.5594   21.4854 H   0  0  0  0  0  0
  -25.3493  -19.1041   22.4340 H   0  0  0  0  0  0
  -26.0500  -18.6997   20.8735 H   0  0  0  0  0  0
  -25.4044  -20.3124   21.1562 H   0  0  0  0  0  0
  -30.6983  -19.5447   15.9475 H   0  0  0  0  0  0
  -29.9274  -21.0584   16.4124 H   0  0  0  0  0  0
  -29.0611  -19.5393   16.6047 H   0  0  0  0  0  0
  -27.2092  -18.2020   18.7768 H   0  0  0  0  0  0
  -27.8838  -16.6017   19.0173 H   0  0  0  0  0  0
  -28.7282  -17.7524   18.0155 H   0  0  0  0  0  0
  -29.5509  -16.7696   23.0775 H   0  0  0  0  0  0
  -31.2090  -16.2195   22.8424 H   0  0  0  0  0  0
  -29.9333  -15.0564   23.1728 H   0  0  0  0  0  0
  -27.1584  -20.7331   22.8869 H   0  0  0  0  0  0
  -27.8514  -19.1746   22.6544 H   0  0  0  0  0  0
  -28.2610  -24.2174   18.5636 H   0  0  0  0  0  0
  -29.8337  -24.4463   19.2645 H   0  0  0  0  0  0
  -30.7983  -18.8135   18.3018 H   0  0  0  0  0  0
  -31.6020  -20.3285   18.1488 H   0  0  0  0  0  0
  -30.8734  -17.8223   21.0428 H   0  0  0  0  0  0
  -30.7069  -17.0802   19.4936 H   0  0  0  0  0  0
  -28.7519  -25.0483   21.4574 H   0  0  0  0  0  0
  -27.1878  -24.8960   20.7366 H   0  0  0  0  0  0
  -28.2472  -17.9143   20.9937 H   0  0  0  0  0  0
  -28.8322  -15.6676   21.0056 H   0  0  0  0  0  0
  1 25  1  0  0  0
  1 30  2  0  0  0
  1 86  1  0  0  0
  2  3  1  0  0  0
  2 25  1  0  0  0
  2 88  1  0  0  0
  2 89  1  0  0  0
  3  4  1  0  0  0
  3 90  1  0  0  0
  3 91  1  0  0  0
  4  5  1  0  0  0
  4 92  1  0  0  0
  4 93  1  0  0  0
  5  6  1  0  0  0
  5 26  1  0  0  0
  5 94  1  0  0  0
  6 25  1  0  0  0
  6 95  1  0  0  0
  6 96  1  0  0  0
  7  8  2  0  0  0
  7 26  1  0  0  0
  7 29  1  0  0  0
  8  9  1  0  0  0
  8 22  1  0  0  0
  9 10  1  0  0  0
  9 27  2  0  0  0
 10 11  2  0  0  0
 10 15  1  0  0  0
 11 12  1  0  0  0
 11 97  1  0  0  0
 12 13  2  0  0  0
 12 98  1  0  0  0
 13 14  1  0  0  0
 13 31  1  0  0  0
 14 15  2  0  0  0
 14 99  1  0  0  0
 15100  1  0  0  0
 16 17  2  0  0  0
 16 21  1  0  0  0
 16 31  1  0  0  0
 17 18  1  0  0  0
 17101  1  0  0  0
 18 19  2  0  0  0
 18102  1  0  0  0
 19 20  1  0  0  0
 19 24  1  0  0  0
 20 21  2  0  0  0
 20103  1  0  0  0
 21 23  1  0  0  0
 22 28  1  0  0  0
 22 32  2  0  0  0
 26 27  1  0  0  0
 28104  1  0  0  0
 28105  1  0  0  0
 29106  1  0  0  0
 29107  1  0  0  0
 33 34  1  0  0  0
 33 66  1  0  0  0
 33 70  2  0  0  0
 34 36  1  0  0  0
 34 59  1  0  0  0
 34108  1  0  0  0
 35 44  2  0  0  0
 35 45  1  0  0  0
 35 68  1  0  0  0
 36 56  1  0  0  0
 36109  1  0  0  0
 37 39  1  0  0  0
 37 47  1  0  0  0
 37 66  1  0  0  0
 37110  1  0  0  0
 38 43  2  0  0  0
 38 46  1  0  0  0
 38 47  1  0  0  0
 39 64  1  0  0  0
 39 67  2  0  0  0
 40 52  1  0  0  0
 40 53  2  0  0  0
 40 58  1  0  0  0
 41111  1  0  0  0
 41112  1  0  0  0
 41113  1  0  0  0
 41 48  1  0  0  0
 42 43  1  0  0  0
 42 66  1  0  0  0
 42114  1  0  0  0
 42115  1  0  0  0
 43 44  1  0  0  0
 44116  1  0  0  0
 45 46  2  0  0  0
 45117  1  0  0  0
 46118  1  0  0  0
 47119  1  0  0  0
 47120  1  0  0  0
 48 56  1  0  0  0
 48 65  1  0  0  0
 48121  1  0  0  0
 49 50  1  0  0  0
 49 53  1  0  0  0
 49 64  1  0  0  0
 49122  1  0  0  0
 50 51  1  0  0  0
 50123  1  0  0  0
 50124  1  0  0  0
 51 52  1  0  0  0
 51125  1  0  0  0
 51126  1  0  0  0
 52127  1  0  0  0
 52128  1  0  0  0
 53 54  1  0  0  0
 54 55  2  0  0  0
 54129  1  0  0  0
 55 57  1  0  0  0
 55130  1  0  0  0
 56 69  2  0  0  0
 57 58  2  0  0  0
 57131  1  0  0  0
 58132  1  0  0  0
 59 60  1  0  0  0
 59 61  1  0  0  0
 59 62  1  0  0  0
 60133  1  0  0  0
 60134  1  0  0  0
 60135  1  0  0  0
 61136  1  0  0  0
 61137  1  0  0  0
 61138  1  0  0  0
 62139  1  0  0  0
 62140  1  0  0  0
 62141  1  0  0  0
 63 65  1  0  0  0
 63142  1  0  0  0
 63143  1  0  0  0
 63144  1  0  0  0
 64145  1  0  0  0
 65146  1  0  0  0
 68 84  1  0  0  0
 71 72  2  0  0  0
 71 74  1  0  0  0
 71147  1  0  0  0
 72 73  1  0  0  0
 72 80  1  0  0  0
 73 75  2  0  0  0
 73 85  1  0  0  0
 74 81  1  0  0  0
 74 87  2  0  0  0
 75 82  1  0  0  0
 75 87  1  0  0  0
 76 80  1  0  0  0
 76148  1  0  0  0
 76149  1  0  0  0
 76150  1  0  0  0
 77 82  1  0  0  0
 77151  1  0  0  0
 77152  1  0  0  0
 77153  1  0  0  0
 78154  1  0  0  0
 78155  1  0  0  0
 78156  1  0  0  0
 78 85  1  0  0  0
 79157  1  0  0  0
 79158  1  0  0  0
 79159  1  0  0  0
 79 86  1  0  0  0
 80160  1  0  0  0
 80161  1  0  0  0
 81 84  1  0  0  0
 81162  1  0  0  0
 81163  1  0  0  0
 82164  1  0  0  0
 82165  1  0  0  0
 83 85  1  0  0  0
 83 86  1  0  0  0
 83166  1  0  0  0
 83167  1  0  0  0
 84168  1  0  0  0
 84169  1  0  0  0
 85170  1  0  0  0
 86171  1  0  0  0
M  ISO  4   1 100  68 101  84 101  86 100
M  END
> <chiral flag>
0

> <version>
0

> <s_m_source_file>
/data/baiqing/PycharmProjects/Reinvent-master-3.2/result/LINK_invent/BTK/process_docking_weight1_custom_sum_contain_oxygen_bond_distance_aromatic_linkinvent_7_9_3/rearranged_h_0091.sdf

> <i_m_source_file_index>
54

> <r_mmod_Potential_Energy-OPLS-2005>
-99.6020584106445

> <r_mmod_Stretch_Energy-OPLS-2005>
72.9480819702148

> <r_mmod_Bend_Energy-OPLS-2005>
136.67626953125

> <r_mmod_Torsional_Energy-OPLS-2005>
200.263519287109

> <r_mmod_Improper_Torsional_Energy-OPLS-2005>
3.41697716712952

> <r_mmod_Van_der_Waal_Energy-OPLS-2005>
139.396530151367

> <r_mmod_Electrostatic_Energy-OPLS-2005>
-485.919860839844

> <r_mmod_Solvation_Energy-OPLS-2005>
-196.094299316406

> <b_mmod_Minimization_Converged-OPLS-2005>
0

> <r_mmod_RMS_Derivative-OPLS-2005>
2.32073974609375

$$$$
55
                    3D
 Structure written by MMmdl.
170178  0  0  1  0            999 V2000
  -30.6836  -14.5151   20.5394 C   0  0  0  0  0  0
  -30.4224  -12.3253   19.4341 C   0  0  0  0  0  0
  -29.4979  -12.5060   18.2113 C   0  0  0  0  0  0
  -28.0194  -12.3602   18.6232 C   0  0  0  0  0  0
  -27.6564  -13.2115   19.8695 C   0  0  2  0  0  0
  -28.6993  -13.0211   20.9949 C   0  0  0  0  0  0
  -25.2537  -13.8155   20.5624 C   0  0  0  0  0  0
  -24.1827  -13.0422   20.9187 C   0  0  0  0  0  0
  -24.6386  -11.6904   20.8746 C   0  0  0  0  0  0
  -23.9054  -10.4292   21.0423 C   0  0  0  0  0  0
  -24.3603   -9.4203   21.9198 C   0  0  0  0  0  0
  -23.6287   -8.2231   22.0754 C   0  0  0  0  0  0
  -22.4264   -8.0271   21.3547 C   0  0  0  0  0  0
  -21.9904   -9.0245   20.4645 C   0  0  0  0  0  0
  -22.7229  -10.2133   20.3065 C   0  0  0  0  0  0
  -21.6837   -6.0739   22.5298 C   0  0  0  0  0  0
  -21.4003   -6.5641   23.8236 C   0  0  0  0  0  0
  -21.3659   -5.6789   24.9195 C   0  0  0  0  0  0
  -21.6048   -4.3051   24.7240 C   0  0  0  0  0  0
  -21.8810   -3.8148   23.4358 C   0  0  0  0  0  0
  -21.9179   -4.6969   22.3422 C   0  0  0  0  0  0
  -22.7840  -13.5211   21.1864 C   0  0  0  0  0  0
  -22.1647   -4.2159   21.0999 F   0  0  0  0  0  0
  -21.5649   -3.4536   25.7752 F   0  0  0  0  0  0
  -30.0250  -13.3276   20.4364 N   0  0  0  0  0  0
  -26.2984  -12.9343   20.3319 N   0  0  0  0  0  0
  -25.9308  -11.6499   20.5759 N   0  0  0  0  0  0
  -22.0462  -12.8228   22.0427 N   0  0  0  0  0  0
  -25.4197  -15.1867   20.3960 N   0  0  0  0  0  0
  -31.8305  -14.6713   20.1155 O   0  0  0  0  0  0
  -21.6617   -6.8876   21.4254 O   0  0  0  0  0  0
  -22.3536  -14.5514   20.6698 O   0  0  0  0  0  0
  -24.6185  -31.8681   23.2064 C   0  0  0  0  0  0
  -25.9077  -32.4821   23.8373 C   0  0  1  0  0  0
  -27.2252  -27.3964   20.1168 C   0  0  0  0  0  0
  -25.5928  -33.8623   24.2305 N   0  0  0  0  0  0
  -23.4070  -30.4928   21.5472 C   0  0  2  0  0  0
  -24.8528  -28.9573   20.1101 C   0  0  0  0  0  0
  -22.7438  -29.4676   22.4964 C   0  0  0  0  0  0
  -18.0286  -28.1385   22.8476 C   0  0  0  0  0  0
  -24.1493  -36.7307   23.2640 C   0  0  0  0  0  0
  -25.9400  -30.8243   21.3653 C   0  0  0  0  0  0
  -26.0150  -29.4565   20.7115 C   0  0  0  0  0  0
  -27.2060  -28.6876   20.7044 C   0  0  0  0  0  0
  -26.0459  -26.9293   19.4932 C   0  0  0  0  0  0
  -24.8674  -27.6973   19.4899 C   0  0  0  0  0  0
  -23.6155  -29.8266   20.1608 C   0  0  0  0  0  0
  -25.4116  -36.3114   24.0339 C   0  0  1  0  0  0
  -20.5877  -28.3683   23.1292 C   0  0  2  0  0  0
  -20.6780  -26.9421   22.5400 C   0  0  0  0  0  0
  -19.5758  -26.6390   21.5199 C   0  0  0  0  0  0
  -18.1936  -26.7930   22.1611 C   0  0  0  0  0  0
  -19.1535  -28.8847   23.2883 C   0  0  0  0  0  0
  -18.9469  -30.1447   23.8904 C   0  0  0  0  0  0
  -17.6474  -30.6589   24.0562 C   0  0  0  0  0  0
  -25.9053  -34.9483   23.5114 C   0  0  0  0  0  0
  -16.5360  -29.9091   23.6332 C   0  0  0  0  0  0
  -16.7277  -28.6508   23.0346 C   0  0  0  0  0  0
  -26.4482  -31.6618   25.0720 C   0  0  0  0  0  0
  -25.3719  -31.3740   26.1444 C   0  0  0  0  0  0
  -27.0335  -30.3063   24.6133 C   0  0  0  0  0  0
  -27.6074  -32.4327   25.7473 C   0  0  0  0  0  0
  -27.5590  -37.1810   24.8467 C   0  0  0  0  0  0
  -21.4163  -29.3050   22.3704 N   0  0  0  0  0  0
  -26.4299  -37.3803   23.9418 N   0  0  0  0  0  0
  -24.6734  -31.0768   22.0974 N   0  0  0  0  0  0
  -23.4204  -28.8231   23.3026 O   0  0  0  0  0  0
  -28.3741  -26.6209   20.1347 O   0  0  0  0  0  0
  -26.5610  -34.8945   22.4675 O   0  0  0  0  0  0
  -23.5376  -32.1452   23.7446 O   0  0  0  0  0  0
  -29.5677  -21.8423   20.1133 C   0  0  0  0  0  0
  -29.5502  -22.9710   20.9746 C   0  0  0  0  0  0
  -29.6876  -22.7187   22.3691 C   0  0  0  0  0  0
  -29.7491  -20.5401   20.6401 C   0  0  0  0  0  0
  -29.8507  -21.3746   22.8119 C   0  0  0  0  0  0
  -29.6950  -23.8596   23.3848 C   0  0  0  0  0  0
  -32.0309  -19.2705   24.1395 C   0  0  0  0  0  0
  -29.0253  -19.9342   24.7578 C   0  0  0  0  0  0
  -29.5284  -24.4048   20.3808 C   0  0  0  0  0  0
  -29.9872  -19.3196   19.7368 C   0  0  0  0  0  0
  -31.5074  -20.6243   24.6554 C   0  0  0  0  0  0
  -29.3926  -17.9379   20.1737 C   0  0  0  0  0  0
  -30.3667  -16.9949   20.9445 C   0  0  0  0  0  0
  -28.2134  -25.2266   20.5184 C   0  0  0  0  0  0
  -30.0449  -20.9883   24.2895 C   0  0  1  0  0  0
  -29.8967  -20.3321   21.9573 N   0  0  0  0  0  0
  -29.9504  -15.5706   20.9642 N   0  0  0  0  0  0
  -31.4680  -12.4228   19.1373 H   0  0  0  0  0  0
  -30.3238  -11.3206   19.8475 H   0  0  0  0  0  0
  -29.7464  -11.7782   17.4376 H   0  0  0  0  0  0
  -29.6587  -13.4905   17.7676 H   0  0  0  0  0  0
  -27.8417  -11.3053   18.8344 H   0  0  0  0  0  0
  -27.3660  -12.6179   17.7887 H   0  0  0  0  0  0
  -27.6901  -14.2553   19.5558 H   0  0  0  0  0  0
  -28.6839  -11.9917   21.3570 H   0  0  0  0  0  0
  -28.4633  -13.6436   21.8588 H   0  0  0  0  0  0
  -25.2739   -9.5681   22.4788 H   0  0  0  0  0  0
  -23.9997   -7.4610   22.7463 H   0  0  0  0  0  0
  -21.0833   -8.8746   19.8948 H   0  0  0  0  0  0
  -22.3668  -10.9673   19.6185 H   0  0  0  0  0  0
  -21.1981   -7.6150   23.9746 H   0  0  0  0  0  0
  -21.1494   -6.0520   25.9106 H   0  0  0  0  0  0
  -22.0585   -2.7613   23.2850 H   0  0  0  0  0  0
  -22.4041  -11.9917   22.4900 H   0  0  0  0  0  0
  -21.1075  -13.1290   22.2572 H   0  0  0  0  0  0
  -24.6376  -15.8271   20.4776 H   0  0  0  0  0  0
  -26.2579  -15.6304   20.0411 H   0  0  0  0  0  0
  -26.7157  -32.5513   23.1145 H   0  0  0  0  0  0
  -25.0104  -33.9779   25.0465 H   0  0  0  0  0  0
  -22.6961  -31.3102   21.4071 H   0  0  0  0  0  0
  -23.3765  -35.9630   23.3304 H   0  0  0  0  0  0
  -24.3594  -36.8916   22.2056 H   0  0  0  0  0  0
  -23.7232  -37.6509   23.6646 H   0  0  0  0  0  0
  -26.0611  -31.5916   20.5996 H   0  0  0  0  0  0
  -26.8248  -30.8721   21.9888 H   0  0  0  0  0  0
  -28.1008  -29.0712   21.1746 H   0  0  0  0  0  0
  -26.0192  -25.9725   18.9937 H   0  0  0  0  0  0
  -23.9805  -27.3147   19.0034 H   0  0  0  0  0  0
  -23.7210  -30.6014   19.4000 H   0  0  0  0  0  0
  -22.7387  -29.2458   19.8663 H   0  0  0  0  0  0
  -25.1293  -36.1971   25.0832 H   0  0  0  0  0  0
  -20.9960  -28.3250   24.1415 H   0  0  0  0  0  0
  -20.5673  -26.2308   23.3596 H   0  0  0  0  0  0
  -21.6657  -26.7466   22.1202 H   0  0  0  0  0  0
  -19.6932  -25.6298   21.1237 H   0  0  0  0  0  0
  -19.6694  -27.3195   20.6721 H   0  0  0  0  0  0
  -17.4211  -26.6666   21.4012 H   0  0  0  0  0  0
  -18.0350  -26.0068   22.9003 H   0  0  0  0  0  0
  -19.7953  -30.7247   24.2286 H   0  0  0  0  0  0
  -17.5043  -31.6275   24.5160 H   0  0  0  0  0  0
  -15.5364  -30.2999   23.7664 H   0  0  0  0  0  0
  -15.8675  -28.0832   22.7059 H   0  0  0  0  0  0
  -24.5864  -30.7143   25.7738 H   0  0  0  0  0  0
  -24.8940  -32.2905   26.4915 H   0  0  0  0  0  0
  -25.8020  -30.8851   27.0191 H   0  0  0  0  0  0
  -26.2903  -29.6795   24.1191 H   0  0  0  0  0  0
  -27.4113  -29.7337   25.4614 H   0  0  0  0  0  0
  -27.8729  -30.4394   23.9302 H   0  0  0  0  0  0
  -27.2726  -33.3617   26.2097 H   0  0  0  0  0  0
  -28.3855  -32.6898   25.0274 H   0  0  0  0  0  0
  -28.0781  -31.8415   26.5338 H   0  0  0  0  0  0
  -28.2609  -38.0110   24.7542 H   0  0  0  0  0  0
  -28.1079  -36.2646   24.6245 H   0  0  0  0  0  0
  -27.2314  -37.1410   25.8871 H   0  0  0  0  0  0
  -20.9336  -29.8766   21.6909 H   0  0  0  0  0  0
  -26.0184  -38.2885   24.1400 H   0  0  0  0  0  0
  -29.5067  -21.9808   19.0424 H   0  0  0  0  0  0
  -29.7176  -24.8533   22.9447 H   0  0  0  0  0  0
  -30.5709  -23.7936   24.0308 H   0  0  0  0  0  0
  -28.8046  -23.8031   24.0123 H   0  0  0  0  0  0
  -33.0654  -19.1172   24.4477 H   0  0  0  0  0  0
  -32.0112  -19.2133   23.0514 H   0  0  0  0  0  0
  -31.4472  -18.4359   24.5284 H   0  0  0  0  0  0
  -28.0068  -20.2881   24.5984 H   0  0  0  0  0  0
  -29.1399  -19.7197   25.8204 H   0  0  0  0  0  0
  -29.1341  -18.9968   24.2129 H   0  0  0  0  0  0
  -29.7750  -24.3406   19.3214 H   0  0  0  0  0  0
  -30.3538  -24.9662   20.8188 H   0  0  0  0  0  0
  -31.0589  -19.2307   19.5556 H   0  0  0  0  0  0
  -29.5547  -19.5652   18.7662 H   0  0  0  0  0  0
  -32.1669  -21.4220   24.3139 H   0  0  0  0  0  0
  -31.5997  -20.6178   25.7421 H   0  0  0  0  0  0
  -29.1151  -17.4171   19.2562 H   0  0  0  0  0  0
  -28.4615  -18.0822   20.7232 H   0  0  0  0  0  0
  -30.4624  -17.3417   21.9744 H   0  0  0  0  0  0
  -31.3628  -17.0880   20.5090 H   0  0  0  0  0  0
  -27.8670  -25.2034   21.5523 H   0  0  0  0  0  0
  -27.4515  -24.7203   19.9280 H   0  0  0  0  0  0
  -29.8135  -21.8589   24.8968 H   0  0  0  0  0  0
  -29.0160  -15.3660   21.2897 H   0  0  0  0  0  0
  1 25  1  0  0  0
  1 30  2  0  0  0
  1 87  1  0  0  0
  2  3  1  0  0  0
  2 25  1  0  0  0
  2 88  1  0  0  0
  2 89  1  0  0  0
  3  4  1  0  0  0
  3 90  1  0  0  0
  3 91  1  0  0  0
  4  5  1  0  0  0
  4 92  1  0  0  0
  4 93  1  0  0  0
  5  6  1  0  0  0
  5 26  1  0  0  0
  5 94  1  0  0  0
  6 25  1  0  0  0
  6 95  1  0  0  0
  6 96  1  0  0  0
  7  8  2  0  0  0
  7 26  1  0  0  0
  7 29  1  0  0  0
  8  9  1  0  0  0
  8 22  1  0  0  0
  9 10  1  0  0  0
  9 27  2  0  0  0
 10 11  2  0  0  0
 10 15  1  0  0  0
 11 12  1  0  0  0
 11 97  1  0  0  0
 12 13  2  0  0  0
 12 98  1  0  0  0
 13 14  1  0  0  0
 13 31  1  0  0  0
 14 15  2  0  0  0
 14 99  1  0  0  0
 15100  1  0  0  0
 16 17  2  0  0  0
 16 21  1  0  0  0
 16 31  1  0  0  0
 17 18  1  0  0  0
 17101  1  0  0  0
 18 19  2  0  0  0
 18102  1  0  0  0
 19 20  1  0  0  0
 19 24  1  0  0  0
 20 21  2  0  0  0
 20103  1  0  0  0
 21 23  1  0  0  0
 22 28  1  0  0  0
 22 32  2  0  0  0
 26 27  1  0  0  0
 28104  1  0  0  0
 28105  1  0  0  0
 29106  1  0  0  0
 29107  1  0  0  0
 33 34  1  0  0  0
 33 66  1  0  0  0
 33 70  2  0  0  0
 34 36  1  0  0  0
 34 59  1  0  0  0
 34108  1  0  0  0
 35 44  2  0  0  0
 35 45  1  0  0  0
 35 68  1  0  0  0
 36 56  1  0  0  0
 36109  1  0  0  0
 37 39  1  0  0  0
 37 47  1  0  0  0
 37 66  1  0  0  0
 37110  1  0  0  0
 38 43  2  0  0  0
 38 46  1  0  0  0
 38 47  1  0  0  0
 39 64  1  0  0  0
 39 67  2  0  0  0
 40 52  1  0  0  0
 40 53  2  0  0  0
 40 58  1  0  0  0
 41111  1  0  0  0
 41112  1  0  0  0
 41113  1  0  0  0
 41 48  1  0  0  0
 42 43  1  0  0  0
 42 66  1  0  0  0
 42114  1  0  0  0
 42115  1  0  0  0
 43 44  1  0  0  0
 44116  1  0  0  0
 45 46  2  0  0  0
 45117  1  0  0  0
 46118  1  0  0  0
 47119  1  0  0  0
 47120  1  0  0  0
 48 56  1  0  0  0
 48 65  1  0  0  0
 48121  1  0  0  0
 49 50  1  0  0  0
 49 53  1  0  0  0
 49 64  1  0  0  0
 49122  1  0  0  0
 50 51  1  0  0  0
 50123  1  0  0  0
 50124  1  0  0  0
 51 52  1  0  0  0
 51125  1  0  0  0
 51126  1  0  0  0
 52127  1  0  0  0
 52128  1  0  0  0
 53 54  1  0  0  0
 54 55  2  0  0  0
 54129  1  0  0  0
 55 57  1  0  0  0
 55130  1  0  0  0
 56 69  2  0  0  0
 57 58  2  0  0  0
 57131  1  0  0  0
 58132  1  0  0  0
 59 60  1  0  0  0
 59 61  1  0  0  0
 59 62  1  0  0  0
 60133  1  0  0  0
 60134  1  0  0  0
 60135  1  0  0  0
 61136  1  0  0  0
 61137  1  0  0  0
 61138  1  0  0  0
 62139  1  0  0  0
 62140  1  0  0  0
 62141  1  0  0  0
 63 65  1  0  0  0
 63142  1  0  0  0
 63143  1  0  0  0
 63144  1  0  0  0
 64145  1  0  0  0
 65146  1  0  0  0
 68 84  1  0  0  0
 71 72  2  0  0  0
 71 74  1  0  0  0
 71147  1  0  0  0
 72 73  1  0  0  0
 72 79  1  0  0  0
 73 75  2  0  0  0
 73 76  1  0  0  0
 74 80  1  0  0  0
 74 86  2  0  0  0
 75 85  1  0  0  0
 75 86  1  0  0  0
 76148  1  0  0  0
 76149  1  0  0  0
 76150  1  0  0  0
 77 81  1  0  0  0
 77151  1  0  0  0
 77152  1  0  0  0
 77153  1  0  0  0
 78154  1  0  0  0
 78155  1  0  0  0
 78156  1  0  0  0
 78 85  1  0  0  0
 79 84  1  0  0  0
 79157  1  0  0  0
 79158  1  0  0  0
 80 82  1  0  0  0
 80159  1  0  0  0
 80160  1  0  0  0
 81 85  1  0  0  0
 81161  1  0  0  0
 81162  1  0  0  0
 82 83  1  0  0  0
 82163  1  0  0  0
 82164  1  0  0  0
 83 87  1  0  0  0
 83165  1  0  0  0
 83166  1  0  0  0
 84167  1  0  0  0
 84168  1  0  0  0
 85169  1  0  0  0
 87170  1  0  0  0
M  ISO  4   1 100  68 101  84 101  87 100
M  END
> <chiral flag>
0

> <version>
0

> <s_m_source_file>
/data/baiqing/PycharmProjects/Reinvent-master-3.2/result/LINK_invent/BTK/process_docking_weight1_custom_sum_contain_oxygen_bond_distance_aromatic_linkinvent_7_9_3/rearranged_h_0091.sdf

> <i_m_source_file_index>
55

> <r_mmod_Potential_Energy-OPLS-2005>
-189.848617553711

> <r_mmod_Stretch_Energy-OPLS-2005>
49.1846351623535

> <r_mmod_Bend_Energy-OPLS-2005>
110.44327545166

> <r_mmod_Torsional_Energy-OPLS-2005>
212.891250610352

> <r_mmod_Improper_Torsional_Energy-OPLS-2005>
5.37460517883301

> <r_mmod_Van_der_Waal_Energy-OPLS-2005>
152.983367919922

> <r_mmod_Electrostatic_Energy-OPLS-2005>
-530.479553222656

> <r_mmod_Solvation_Energy-OPLS-2005>
-210.302276611328

> <b_mmod_Minimization_Converged-OPLS-2005>
0

> <r_mmod_RMS_Derivative-OPLS-2005>
1.9652271270752

$$$$
56
                    3D
 Structure written by MMmdl.
174182  0  0  1  0            999 V2000
  -30.7288  -14.4447   20.4885 C   0  0  0  0  0  0
  -30.4146  -12.2614   19.4406 C   0  0  0  0  0  0
  -29.4945  -12.4603   18.2195 C   0  0  0  0  0  0
  -28.0179  -12.3244   18.6382 C   0  0  0  0  0  0
  -27.6604  -13.1999   19.8707 C   0  0  2  0  0  0
  -28.7074  -13.0288   21.0019 C   0  0  0  0  0  0
  -25.2610  -13.8150   20.5774 C   0  0  0  0  0  0
  -24.1847  -13.0428   20.9223 C   0  0  0  0  0  0
  -24.6380  -11.6888   20.8748 C   0  0  0  0  0  0
  -23.9046  -10.4276   21.0412 C   0  0  0  0  0  0
  -24.3590   -9.4199   21.9202 C   0  0  0  0  0  0
  -23.6267   -8.2234   22.0763 C   0  0  0  0  0  0
  -22.4252   -8.0267   21.3542 C   0  0  0  0  0  0
  -21.9890   -9.0247   20.4658 C   0  0  0  0  0  0
  -22.7212  -10.2127   20.3071 C   0  0  0  0  0  0
  -21.6833   -6.0740   22.5293 C   0  0  0  0  0  0
  -21.4002   -6.5658   23.8233 C   0  0  0  0  0  0
  -21.3655   -5.6812   24.9198 C   0  0  0  0  0  0
  -21.6030   -4.3076   24.7238 C   0  0  0  0  0  0
  -21.8810   -3.8160   23.4366 C   0  0  0  0  0  0
  -21.9194   -4.6974   22.3416 C   0  0  0  0  0  0
  -22.7863  -13.5231   21.1870 C   0  0  0  0  0  0
  -22.1660   -4.2176   21.0989 F   0  0  0  0  0  0
  -21.5606   -3.4547   25.7745 F   0  0  0  0  0  0
  -30.0427  -13.2750   20.4360 N   0  0  0  0  0  0
  -26.3027  -12.9308   20.3388 N   0  0  0  0  0  0
  -25.9305  -11.6477   20.5769 N   0  0  0  0  0  0
  -22.0509  -12.8226   22.0424 N   0  0  0  0  0  0
  -25.4387  -15.1858   20.4279 N   0  0  0  0  0  0
  -31.9009  -14.5604   20.1266 O   0  0  0  0  0  0
  -21.6603   -6.8865   21.4246 O   0  0  0  0  0  0
  -22.3551  -14.5542   20.6735 O   0  0  0  0  0  0
  -24.6139  -31.8696   23.2126 C   0  0  0  0  0  0
  -25.9049  -32.4824   23.8413 C   0  0  1  0  0  0
  -27.2466  -27.4650   20.0888 C   0  0  0  0  0  0
  -25.5917  -33.8612   24.2338 N   0  0  0  0  0  0
  -23.4005  -30.4970   21.5524 C   0  0  2  0  0  0
  -24.8501  -28.9650   20.1197 C   0  0  0  0  0  0
  -22.7411  -29.4704   22.4993 C   0  0  0  0  0  0
  -18.0287  -28.1390   22.8474 C   0  0  0  0  0  0
  -24.1486  -36.7320   23.2640 C   0  0  0  0  0  0
  -25.9305  -30.8403   21.3689 C   0  0  0  0  0  0
  -26.0082  -29.4763   20.7202 C   0  0  0  0  0  0
  -27.2087  -28.7309   20.7102 C   0  0  0  0  0  0
  -26.0764  -26.9740   19.4668 C   0  0  0  0  0  0
  -24.8775  -27.7072   19.4958 C   0  0  0  0  0  0
  -23.6088  -29.8277   20.1682 C   0  0  0  0  0  0
  -25.4105  -36.3102   24.0333 C   0  0  1  0  0  0
  -20.5880  -28.3669   23.1301 C   0  0  2  0  0  0
  -20.6788  -26.9427   22.5365 C   0  0  0  0  0  0
  -19.5773  -26.6453   21.5161 C   0  0  0  0  0  0
  -18.1949  -26.7947   22.1571 C   0  0  0  0  0  0
  -19.1535  -28.8845   23.2893 C   0  0  0  0  0  0
  -18.9466  -30.1436   23.8930 C   0  0  0  0  0  0
  -17.6471  -30.6593   24.0572 C   0  0  0  0  0  0
  -25.9039  -34.9473   23.5132 C   0  0  0  0  0  0
  -16.5370  -29.9106   23.6325 C   0  0  0  0  0  0
  -16.7280  -28.6506   23.0349 C   0  0  0  0  0  0
  -26.4497  -31.6588   25.0727 C   0  0  0  0  0  0
  -25.3782  -31.3698   26.1491 C   0  0  0  0  0  0
  -27.0351  -30.3020   24.6133 C   0  0  0  0  0  0
  -27.6081  -32.4310   25.7487 C   0  0  0  0  0  0
  -27.5576  -37.1808   24.8459 C   0  0  0  0  0  0
  -21.4136  -29.3069   22.3736 N   0  0  0  0  0  0
  -26.4294  -37.3783   23.9401 N   0  0  0  0  0  0
  -24.6659  -31.0846   22.1021 N   0  0  0  0  0  0
  -23.4203  -28.8216   23.2996 O   0  0  0  0  0  0
  -28.4088  -26.7289   20.0484 O   0  0  0  0  0  0
  -26.5598  -34.8922   22.4686 O   0  0  0  0  0  0
  -23.5335  -32.1430   23.7532 O   0  0  0  0  0  0
  -28.5592  -21.3973   19.4565 C   0  0  0  0  0  0
  -26.2148  -21.9869   19.6377 C   0  0  0  0  0  0
  -27.5624  -22.3804   19.5894 C   0  0  0  0  0  0
  -28.2081  -20.0370   19.3002 C   0  0  0  0  0  0
  -25.8219  -20.6436   19.4496 C   0  0  0  0  0  0
  -26.8318  -19.6590   19.2288 C   0  0  0  0  0  0
  -26.4431  -18.2300   18.8537 C   0  0  0  0  0  0
  -23.8873  -19.6862   20.8188 C   0  0  0  0  0  0
  -23.6855  -19.7230   18.2626 C   0  0  0  0  0  0
  -30.2667  -18.6068   21.4916 C   0  0  0  0  0  0
  -27.8820  -23.8675   19.5916 C   0  0  0  0  0  0
  -29.3459  -19.0261   19.1375 C   0  0  0  0  0  0
  -28.9120  -24.3774   20.6097 C   0  0  0  0  0  0
  -30.2228  -16.7332   19.8046 C   0  0  0  0  0  0
  -28.5635  -25.7947   21.1231 C   0  0  0  0  0  0
  -24.3073  -20.3741   19.5103 C   0  0  0  0  0  0
  -29.5035  -18.0043   20.3018 C   0  0  2  0  0  0
  -29.9610  -15.5346   20.6147 N   0  0  0  0  0  0
  -31.4653  -12.3223   19.1488 H   0  0  0  0  0  0
  -30.2764  -11.2637   19.8598 H   0  0  0  0  0  0
  -29.7273  -11.7228   17.4503 H   0  0  0  0  0  0
  -29.6750  -13.4381   17.7718 H   0  0  0  0  0  0
  -27.8356  -11.2738   18.8716 H   0  0  0  0  0  0
  -27.3632  -12.5567   17.7982 H   0  0  0  0  0  0
  -27.6890  -14.2330   19.5263 H   0  0  0  0  0  0
  -28.6737  -12.0196   21.4173 H   0  0  0  0  0  0
  -28.5013  -13.6995   21.8372 H   0  0  0  0  0  0
  -25.2732   -9.5691   22.4772 H   0  0  0  0  0  0
  -23.9986   -7.4624   22.7481 H   0  0  0  0  0  0
  -21.0821   -8.8748   19.8963 H   0  0  0  0  0  0
  -22.3654  -10.9657   19.6176 H   0  0  0  0  0  0
  -21.1983   -7.6164   23.9729 H   0  0  0  0  0  0
  -21.1485   -6.0553   25.9100 H   0  0  0  0  0  0
  -22.0590   -2.7623   23.2862 H   0  0  0  0  0  0
  -22.4092  -11.9854   22.4770 H   0  0  0  0  0  0
  -21.1152  -13.1278   22.2675 H   0  0  0  0  0  0
  -24.6830  -15.8450   20.5719 H   0  0  0  0  0  0
  -26.3102  -15.6272   20.1694 H   0  0  0  0  0  0
  -26.7137  -32.5540   23.1204 H   0  0  0  0  0  0
  -25.0089  -33.9787   25.0495 H   0  0  0  0  0  0
  -22.6883  -31.3140   21.4141 H   0  0  0  0  0  0
  -23.3729  -35.9675   23.3318 H   0  0  0  0  0  0
  -24.3583  -36.8914   22.2054 H   0  0  0  0  0  0
  -23.7264  -37.6545   23.6640 H   0  0  0  0  0  0
  -26.0503  -31.6073   20.6018 H   0  0  0  0  0  0
  -26.8152  -30.8863   21.9920 H   0  0  0  0  0  0
  -28.1035  -29.1293   21.1709 H   0  0  0  0  0  0
  -26.0797  -26.0394   18.9307 H   0  0  0  0  0  0
  -23.9922  -27.3089   19.0217 H   0  0  0  0  0  0
  -22.7342  -29.2456   19.8720 H   0  0  0  0  0  0
  -23.7127  -30.6018   19.4075 H   0  0  0  0  0  0
  -25.1275  -36.1989   25.0826 H   0  0  0  0  0  0
  -20.9958  -28.3235   24.1418 H   0  0  0  0  0  0
  -20.5716  -26.2270   23.3516 H   0  0  0  0  0  0
  -21.6653  -26.7522   22.1138 H   0  0  0  0  0  0
  -19.6692  -27.3349   20.6750 H   0  0  0  0  0  0
  -19.7000  -25.6420   21.1082 H   0  0  0  0  0  0
  -17.4266  -26.6712   21.3932 H   0  0  0  0  0  0
  -18.0352  -26.0061   22.8938 H   0  0  0  0  0  0
  -19.7946  -30.7219   24.2365 H   0  0  0  0  0  0
  -17.5044  -31.6269   24.5172 H   0  0  0  0  0  0
  -15.5381  -30.3032   23.7628 H   0  0  0  0  0  0
  -15.8665  -28.0841   22.7082 H   0  0  0  0  0  0
  -24.5938  -30.7068   25.7834 H   0  0  0  0  0  0
  -24.9014  -32.2863   26.4972 H   0  0  0  0  0  0
  -25.8149  -30.8845   27.0225 H   0  0  0  0  0  0
  -26.2917  -29.6744   24.1215 H   0  0  0  0  0  0
  -27.4139  -29.7291   25.4609 H   0  0  0  0  0  0
  -27.8739  -30.4322   23.9290 H   0  0  0  0  0  0
  -27.2695  -33.3568   26.2149 H   0  0  0  0  0  0
  -28.3853  -32.6936   25.0298 H   0  0  0  0  0  0
  -28.0811  -31.8393   26.5338 H   0  0  0  0  0  0
  -28.2599  -38.0097   24.7481 H   0  0  0  0  0  0
  -28.1057  -36.2624   24.6302 H   0  0  0  0  0  0
  -27.2291  -37.1481   25.8862 H   0  0  0  0  0  0
  -20.9302  -29.8812   21.6967 H   0  0  0  0  0  0
  -26.0184  -38.2869   24.1372 H   0  0  0  0  0  0
  -29.5997  -21.6968   19.4352 H   0  0  0  0  0  0
  -25.4543  -22.7434   19.7802 H   0  0  0  0  0  0
  -26.0607  -18.2084   17.8327 H   0  0  0  0  0  0
  -25.6831  -17.8259   19.5153 H   0  0  0  0  0  0
  -27.2674  -17.5260   18.8627 H   0  0  0  0  0  0
  -24.2050  -20.2774   21.6773 H   0  0  0  0  0  0
  -24.3197  -18.6962   20.9310 H   0  0  0  0  0  0
  -22.8043  -19.5737   20.8808 H   0  0  0  0  0  0
  -23.9235  -18.6671   18.1664 H   0  0  0  0  0  0
  -23.9966  -20.2317   17.3507 H   0  0  0  0  0  0
  -22.5976  -19.7876   18.3093 H   0  0  0  0  0  0
  -31.2492  -18.9772   21.1893 H   0  0  0  0  0  0
  -30.4127  -17.8700   22.2812 H   0  0  0  0  0  0
  -29.7240  -19.4454   21.9234 H   0  0  0  0  0  0
  -26.9427  -24.3692   19.7961 H   0  0  0  0  0  0
  -28.1910  -24.1625   18.5868 H   0  0  0  0  0  0
  -30.2918  -19.5456   18.9798 H   0  0  0  0  0  0
  -29.1682  -18.5117   18.1940 H   0  0  0  0  0  0
  -29.9085  -24.3622   20.1650 H   0  0  0  0  0  0
  -28.9448  -23.7027   21.4663 H   0  0  0  0  0  0
  -29.8983  -16.4920   18.7904 H   0  0  0  0  0  0
  -31.2929  -16.9367   19.7262 H   0  0  0  0  0  0
  -29.3573  -26.1516   21.7798 H   0  0  0  0  0  0
  -27.6639  -25.7415   21.7381 H   0  0  0  0  0  0
  -23.8241  -21.3522   19.5418 H   0  0  0  0  0  0
  -28.5146  -17.7058   20.6494 H   0  0  0  0  0  0
  -29.0114  -15.3792   20.9150 H   0  0  0  0  0  0
  1 25  1  0  0  0
  1 30  2  0  0  0
  1 88  1  0  0  0
  2  3  1  0  0  0
  2 25  1  0  0  0
  2 89  1  0  0  0
  2 90  1  0  0  0
  3  4  1  0  0  0
  3 91  1  0  0  0
  3 92  1  0  0  0
  4  5  1  0  0  0
  4 93  1  0  0  0
  4 94  1  0  0  0
  5  6  1  0  0  0
  5 26  1  0  0  0
  5 95  1  0  0  0
  6 25  1  0  0  0
  6 96  1  0  0  0
  6 97  1  0  0  0
  7  8  2  0  0  0
  7 26  1  0  0  0
  7 29  1  0  0  0
  8  9  1  0  0  0
  8 22  1  0  0  0
  9 10  1  0  0  0
  9 27  2  0  0  0
 10 11  2  0  0  0
 10 15  1  0  0  0
 11 12  1  0  0  0
 11 98  1  0  0  0
 12 13  2  0  0  0
 12 99  1  0  0  0
 13 14  1  0  0  0
 13 31  1  0  0  0
 14 15  2  0  0  0
 14100  1  0  0  0
 15101  1  0  0  0
 16 17  2  0  0  0
 16 21  1  0  0  0
 16 31  1  0  0  0
 17 18  1  0  0  0
 17102  1  0  0  0
 18 19  2  0  0  0
 18103  1  0  0  0
 19 20  1  0  0  0
 19 24  1  0  0  0
 20 21  2  0  0  0
 20104  1  0  0  0
 21 23  1  0  0  0
 22 28  1  0  0  0
 22 32  2  0  0  0
 26 27  1  0  0  0
 28105  1  0  0  0
 28106  1  0  0  0
 29107  1  0  0  0
 29108  1  0  0  0
 33 34  1  0  0  0
 33 66  1  0  0  0
 33 70  2  0  0  0
 34 36  1  0  0  0
 34 59  1  0  0  0
 34109  1  0  0  0
 35 44  2  0  0  0
 35 45  1  0  0  0
 35 68  1  0  0  0
 36 56  1  0  0  0
 36110  1  0  0  0
 37 39  1  0  0  0
 37 47  1  0  0  0
 37 66  1  0  0  0
 37111  1  0  0  0
 38 43  2  0  0  0
 38 46  1  0  0  0
 38 47  1  0  0  0
 39 64  1  0  0  0
 39 67  2  0  0  0
 40 52  1  0  0  0
 40 53  2  0  0  0
 40 58  1  0  0  0
 41112  1  0  0  0
 41113  1  0  0  0
 41114  1  0  0  0
 41 48  1  0  0  0
 42 43  1  0  0  0
 42 66  1  0  0  0
 42115  1  0  0  0
 42116  1  0  0  0
 43 44  1  0  0  0
 44117  1  0  0  0
 45 46  2  0  0  0
 45118  1  0  0  0
 46119  1  0  0  0
 47120  1  0  0  0
 47121  1  0  0  0
 48 56  1  0  0  0
 48 65  1  0  0  0
 48122  1  0  0  0
 49 50  1  0  0  0
 49 53  1  0  0  0
 49 64  1  0  0  0
 49123  1  0  0  0
 50 51  1  0  0  0
 50124  1  0  0  0
 50125  1  0  0  0
 51 52  1  0  0  0
 51126  1  0  0  0
 51127  1  0  0  0
 52128  1  0  0  0
 52129  1  0  0  0
 53 54  1  0  0  0
 54 55  2  0  0  0
 54130  1  0  0  0
 55 57  1  0  0  0
 55131  1  0  0  0
 56 69  2  0  0  0
 57 58  2  0  0  0
 57132  1  0  0  0
 58133  1  0  0  0
 59 60  1  0  0  0
 59 61  1  0  0  0
 59 62  1  0  0  0
 60134  1  0  0  0
 60135  1  0  0  0
 60136  1  0  0  0
 61137  1  0  0  0
 61138  1  0  0  0
 61139  1  0  0  0
 62140  1  0  0  0
 62141  1  0  0  0
 62142  1  0  0  0
 63 65  1  0  0  0
 63143  1  0  0  0
 63144  1  0  0  0
 63145  1  0  0  0
 64146  1  0  0  0
 65147  1  0  0  0
 68 85  1  0  0  0
 71 73  2  0  0  0
 71 74  1  0  0  0
 71148  1  0  0  0
 72 73  1  0  0  0
 72 75  2  0  0  0
 72149  1  0  0  0
 73 81  1  0  0  0
 74 76  2  0  0  0
 74 82  1  0  0  0
 75 76  1  0  0  0
 75 86  1  0  0  0
 76 77  1  0  0  0
 77150  1  0  0  0
 77151  1  0  0  0
 77152  1  0  0  0
 78153  1  0  0  0
 78154  1  0  0  0
 78155  1  0  0  0
 78 86  1  0  0  0
 79 86  1  0  0  0
 79156  1  0  0  0
 79157  1  0  0  0
 79158  1  0  0  0
 80159  1  0  0  0
 80160  1  0  0  0
 80161  1  0  0  0
 80 87  1  0  0  0
 81 83  1  0  0  0
 81162  1  0  0  0
 81163  1  0  0  0
 82 87  1  0  0  0
 82164  1  0  0  0
 82165  1  0  0  0
 83 85  1  0  0  0
 83166  1  0  0  0
 83167  1  0  0  0
 84 87  1  0  0  0
 84 88  1  0  0  0
 84168  1  0  0  0
 84169  1  0  0  0
 85170  1  0  0  0
 85171  1  0  0  0
 86172  1  0  0  0
 87173  1  0  0  0
 88174  1  0  0  0
M  ISO  4   1 100  68 101  85 101  88 100
M  END
> <chiral flag>
0

> <version>
0

> <s_m_source_file>
/data/baiqing/PycharmProjects/Reinvent-master-3.2/result/LINK_invent/BTK/process_docking_weight1_custom_sum_contain_oxygen_bond_distance_aromatic_linkinvent_7_9_3/rearranged_h_0091.sdf

> <i_m_source_file_index>
56

> <r_mmod_Potential_Energy-OPLS-2005>
-22.8996486663818

> <r_mmod_Stretch_Energy-OPLS-2005>
37.9673881530762

> <r_mmod_Bend_Energy-OPLS-2005>
105.638999938965

> <r_mmod_Torsional_Energy-OPLS-2005>
272.812347412109

> <r_mmod_Improper_Torsional_Energy-OPLS-2005>
11.3997278213501

> <r_mmod_Van_der_Waal_Energy-OPLS-2005>
155.804412841797

> <r_mmod_Electrostatic_Energy-OPLS-2005>
-428.323791503906

> <r_mmod_Solvation_Energy-OPLS-2005>
-194.348068237305

> <b_mmod_Minimization_Converged-OPLS-2005>
0

> <r_mmod_RMS_Derivative-OPLS-2005>
3.77344560623169

$$$$
57
                    3D
 Structure written by MMmdl.
167175  0  0  1  0            999 V2000
  -30.7646  -14.4608   20.5811 C   0  0  0  0  0  0
  -30.4099  -12.3126   19.4170 C   0  0  0  0  0  0
  -29.4785  -12.4884   18.2020 C   0  0  0  0  0  0
  -28.0072  -12.3296   18.6230 C   0  0  0  0  0  0
  -27.6512  -13.1894   19.8590 C   0  0  2  0  0  0
  -28.7040  -13.0248   20.9844 C   0  0  0  0  0  0
  -25.2616  -13.8130   20.5653 C   0  0  0  0  0  0
  -24.1847  -13.0448   20.9221 C   0  0  0  0  0  0
  -24.6375  -11.6911   20.8793 C   0  0  0  0  0  0
  -23.9056  -10.4296   21.0436 C   0  0  0  0  0  0
  -24.3619   -9.4213   21.9200 C   0  0  0  0  0  0
  -23.6287   -8.2254   22.0768 C   0  0  0  0  0  0
  -22.4265   -8.0300   21.3566 C   0  0  0  0  0  0
  -21.9911   -9.0277   20.4669 C   0  0  0  0  0  0
  -22.7246  -10.2148   20.3074 C   0  0  0  0  0  0
  -21.6864   -6.0744   22.5279 C   0  0  0  0  0  0
  -21.4014   -6.5647   23.8209 C   0  0  0  0  0  0
  -21.3633   -5.6807   24.9177 C   0  0  0  0  0  0
  -21.6033   -4.3067   24.7228 C   0  0  0  0  0  0
  -21.8830   -3.8158   23.4350 C   0  0  0  0  0  0
  -21.9205   -4.6973   22.3401 C   0  0  0  0  0  0
  -22.7886  -13.5286   21.1835 C   0  0  0  0  0  0
  -22.1691   -4.2161   21.0981 F   0  0  0  0  0  0
  -21.5610   -3.4541   25.7734 F   0  0  0  0  0  0
  -30.0333  -13.3204   20.4239 N   0  0  0  0  0  0
  -26.2982  -12.9229   20.3333 N   0  0  0  0  0  0
  -25.9285  -11.6433   20.5830 N   0  0  0  0  0  0
  -22.0556  -12.8256   22.0391 N   0  0  0  0  0  0
  -25.4419  -15.1797   20.3914 N   0  0  0  0  0  0
  -31.8813  -14.6086   20.0842 O   0  0  0  0  0  0
  -21.6648   -6.8886   21.4243 O   0  0  0  0  0  0
  -22.3573  -14.5584   20.6690 O   0  0  0  0  0  0
  -24.6125  -31.8677   23.2080 C   0  0  0  0  0  0
  -25.9026  -32.4817   23.8369 C   0  0  1  0  0  0
  -27.2468  -27.4343   20.0984 C   0  0  0  0  0  0
  -25.5879  -33.8611   24.2302 N   0  0  0  0  0  0
  -23.3996  -30.4912   21.5462 C   0  0  2  0  0  0
  -24.8532  -28.9575   20.1075 C   0  0  0  0  0  0
  -22.7388  -29.4638   22.4952 C   0  0  0  0  0  0
  -18.0243  -28.1325   22.8514 C   0  0  0  0  0  0
  -24.1496  -36.7306   23.2637 C   0  0  0  0  0  0
  -25.9300  -30.8309   21.3692 C   0  0  0  0  0  0
  -26.0058  -29.4651   20.7167 C   0  0  0  0  0  0
  -27.1978  -28.7055   20.7162 C   0  0  0  0  0  0
  -26.0700  -26.9365   19.4913 C   0  0  0  0  0  0
  -24.8808  -27.6945   19.4886 C   0  0  0  0  0  0
  -23.6141  -29.8220   20.1600 C   0  0  0  0  0  0
  -25.4114  -36.3092   24.0324 C   0  0  1  0  0  0
  -20.5842  -28.3624   23.1321 C   0  0  2  0  0  0
  -20.6780  -26.9402   22.5325 C   0  0  0  0  0  0
  -19.5710  -26.6355   21.5169 C   0  0  0  0  0  0
  -18.1872  -26.7895   22.1600 C   0  0  0  0  0  0
  -19.1494  -28.8784   23.2929 C   0  0  0  0  0  0
  -18.9406  -30.1395   23.8947 C   0  0  0  0  0  0
  -17.6414  -30.6561   24.0532 C   0  0  0  0  0  0
  -25.9023  -34.9470   23.5095 C   0  0  0  0  0  0
  -16.5310  -29.9069   23.6263 C   0  0  0  0  0  0
  -16.7236  -28.6465   23.0334 C   0  0  0  0  0  0
  -26.4478  -31.6588   25.0689 C   0  0  0  0  0  0
  -25.3731  -31.3707   26.1417 C   0  0  0  0  0  0
  -27.0327  -30.3023   24.6109 C   0  0  0  0  0  0
  -27.6035  -32.4333   25.7460 C   0  0  0  0  0  0
  -27.5580  -37.1812   24.8466 C   0  0  0  0  0  0
  -21.4092  -29.3066   22.3774 N   0  0  0  0  0  0
  -26.4301  -37.3780   23.9390 N   0  0  0  0  0  0
  -24.6645  -31.0772   22.0990 N   0  0  0  0  0  0
  -23.4177  -28.8136   23.2939 O   0  0  0  0  0  0
  -28.4458  -26.7447   20.1254 O   0  0  0  0  0  0
  -26.5607  -34.8926   22.4669 O   0  0  0  0  0  0
  -23.5319  -32.1423   23.7481 O   0  0  0  0  0  0
  -28.2346  -20.6623   20.1445 C   0  0  0  0  0  0
  -26.4617  -21.7588   18.9230 C   0  0  0  0  0  0
  -27.7734  -21.7828   19.4194 C   0  0  0  0  0  0
  -27.3483  -19.5853   20.4032 C   0  0  0  0  0  0
  -26.0145  -19.6976   19.9054 C   0  0  0  0  0  0
  -24.1153  -18.2338   19.0081 C   0  0  0  0  0  0
  -23.8963  -19.4197   21.2560 C   0  0  0  0  0  0
  -28.6364  -23.0090   19.1415 C   0  0  0  0  0  0
  -27.7931  -18.4189   21.3091 C   0  0  0  0  0  0
  -28.2897  -24.2440   20.0152 C   0  0  0  0  0  0
  -29.1759  -17.7490   21.0768 C   0  0  0  0  0  0
  -29.0417  -16.1991   21.0960 C   0  0  0  0  0  0
  -28.6513  -25.5783   19.3150 C   0  0  0  0  0  0
  -24.8511  -18.7535   20.2554 C   0  0  0  0  0  0
  -25.6109  -20.7529   19.1636 N   0  0  0  0  0  0
  -30.2810  -15.4526   21.3485 N   0  0  0  0  0  0
  -31.4544  -12.3891   19.1090 H   0  0  0  0  0  0
  -30.3040  -11.3111   19.8359 H   0  0  0  0  0  0
  -29.7177  -11.7489   17.4371 H   0  0  0  0  0  0
  -29.6323  -13.4679   17.7472 H   0  0  0  0  0  0
  -27.8309  -11.2750   18.8389 H   0  0  0  0  0  0
  -27.3489  -12.5814   17.7912 H   0  0  0  0  0  0
  -27.6600  -14.2100   19.4937 H   0  0  0  0  0  0
  -28.6940  -12.0065   21.3757 H   0  0  0  0  0  0
  -28.4641  -13.6527   21.8402 H   0  0  0  0  0  0
  -25.2777   -9.5695   22.4760 H   0  0  0  0  0  0
  -24.0011   -7.4650   22.7471 H   0  0  0  0  0  0
  -21.0843   -8.8802   19.8962 H   0  0  0  0  0  0
  -22.3727  -10.9684   19.6170 H   0  0  0  0  0  0
  -21.2024   -7.6159   23.9706 H   0  0  0  0  0  0
  -21.1419   -6.0548   25.9072 H   0  0  0  0  0  0
  -22.0632   -2.7616   23.2867 H   0  0  0  0  0  0
  -22.4184  -11.9847   22.4623 H   0  0  0  0  0  0
  -21.1199  -13.1302   22.2653 H   0  0  0  0  0  0
  -24.6589  -15.8203   20.4373 H   0  0  0  0  0  0
  -26.2660  -15.5786   19.9638 H   0  0  0  0  0  0
  -26.7087  -32.5574   23.1123 H   0  0  0  0  0  0
  -25.0043  -33.9762   25.0464 H   0  0  0  0  0  0
  -22.6888  -31.3093   21.4043 H   0  0  0  0  0  0
  -23.3741  -35.9657   23.3329 H   0  0  0  0  0  0
  -24.3590  -36.8897   22.2046 H   0  0  0  0  0  0
  -23.7275  -37.6528   23.6647 H   0  0  0  0  0  0
  -26.0473  -31.6016   20.6058 H   0  0  0  0  0  0
  -26.8159  -30.8804   21.9918 H   0  0  0  0  0  0
  -28.0867  -29.0980   21.1900 H   0  0  0  0  0  0
  -26.0517  -25.9660   19.0196 H   0  0  0  0  0  0
  -23.9968  -27.3039   19.0012 H   0  0  0  0  0  0
  -23.7130  -30.5944   19.3953 H   0  0  0  0  0  0
  -22.7440  -29.2323   19.8703 H   0  0  0  0  0  0
  -25.1313  -36.1945   25.0822 H   0  0  0  0  0  0
  -20.9902  -28.3130   24.1460 H   0  0  0  0  0  0
  -20.5827  -26.2207   23.3473 H   0  0  0  0  0  0
  -21.6628  -26.7556   22.0980 H   0  0  0  0  0  0
  -19.6887  -25.6276   21.1157 H   0  0  0  0  0  0
  -19.6617  -27.3180   20.6696 H   0  0  0  0  0  0
  -17.4139  -26.6766   21.3981 H   0  0  0  0  0  0
  -18.0211  -25.9996   22.8954 H   0  0  0  0  0  0
  -19.7859  -30.7208   24.2369 H   0  0  0  0  0  0
  -17.4953  -31.6251   24.5083 H   0  0  0  0  0  0
  -15.5322  -30.2985   23.7528 H   0  0  0  0  0  0
  -15.8648  -28.0765   22.7053 H   0  0  0  0  0  0
  -24.5842  -30.7156   25.7721 H   0  0  0  0  0  0
  -24.8993  -32.2874   26.4937 H   0  0  0  0  0  0
  -25.8030  -30.8770   27.0130 H   0  0  0  0  0  0
  -26.2885  -29.6746   24.1194 H   0  0  0  0  0  0
  -27.4103  -29.7312   25.4602 H   0  0  0  0  0  0
  -27.8714  -30.4324   23.9262 H   0  0  0  0  0  0
  -27.2626  -33.3597   26.2102 H   0  0  0  0  0  0
  -28.3813  -32.6968   25.0275 H   0  0  0  0  0  0
  -28.0755  -31.8426   26.5324 H   0  0  0  0  0  0
  -28.2618  -38.0099   24.7498 H   0  0  0  0  0  0
  -28.1054  -36.2621   24.6318 H   0  0  0  0  0  0
  -27.2277  -37.1486   25.8868 H   0  0  0  0  0  0
  -20.9184  -29.8924   21.7166 H   0  0  0  0  0  0
  -26.0182  -38.2851   24.1396 H   0  0  0  0  0  0
  -29.2443  -20.6492   20.5272 H   0  0  0  0  0  0
  -26.0674  -22.5848   18.3468 H   0  0  0  0  0  0
  -23.3134  -17.5454   19.2795 H   0  0  0  0  0  0
  -24.8072  -17.7004   18.3548 H   0  0  0  0  0  0
  -23.6672  -19.0446   18.4359 H   0  0  0  0  0  0
  -24.4263  -19.6486   22.1808 H   0  0  0  0  0  0
  -23.0642  -18.7606   21.5008 H   0  0  0  0  0  0
  -23.4860  -20.3513   20.8652 H   0  0  0  0  0  0
  -28.4807  -23.2615   18.0926 H   0  0  0  0  0  0
  -29.6948  -22.7565   19.2256 H   0  0  0  0  0  0
  -27.0692  -17.6183   21.2571 H   0  0  0  0  0  0
  -27.7370  -18.7676   22.3402 H   0  0  0  0  0  0
  -28.7974  -24.1648   20.9781 H   0  0  0  0  0  0
  -27.2221  -24.2524   20.2382 H   0  0  0  0  0  0
  -29.8641  -18.0864   21.8526 H   0  0  0  0  0  0
  -29.6121  -18.0611   20.1278 H   0  0  0  0  0  0
  -28.6281  -15.9209   20.1318 H   0  0  0  0  0  0
  -28.3281  -15.8947   21.8624 H   0  0  0  0  0  0
  -28.1362  -25.6619   18.3574 H   0  0  0  0  0  0
  -29.7105  -25.5623   19.0560 H   0  0  0  0  0  0
  -25.1852  -17.8561   20.7543 H   0  0  0  0  0  0
  -31.0244  -16.0456   21.6881 H   0  0  0  0  0  0
  1 25  1  0  0  0
  1 30  2  0  0  0
  1 86  1  0  0  0
  2  3  1  0  0  0
  2 25  1  0  0  0
  2 87  1  0  0  0
  2 88  1  0  0  0
  3  4  1  0  0  0
  3 89  1  0  0  0
  3 90  1  0  0  0
  4  5  1  0  0  0
  4 91  1  0  0  0
  4 92  1  0  0  0
  5  6  1  0  0  0
  5 26  1  0  0  0
  5 93  1  0  0  0
  6 25  1  0  0  0
  6 94  1  0  0  0
  6 95  1  0  0  0
  7  8  2  0  0  0
  7 26  1  0  0  0
  7 29  1  0  0  0
  8  9  1  0  0  0
  8 22  1  0  0  0
  9 10  1  0  0  0
  9 27  2  0  0  0
 10 11  2  0  0  0
 10 15  1  0  0  0
 11 12  1  0  0  0
 11 96  1  0  0  0
 12 13  2  0  0  0
 12 97  1  0  0  0
 13 14  1  0  0  0
 13 31  1  0  0  0
 14 15  2  0  0  0
 14 98  1  0  0  0
 15 99  1  0  0  0
 16 17  2  0  0  0
 16 21  1  0  0  0
 16 31  1  0  0  0
 17 18  1  0  0  0
 17100  1  0  0  0
 18 19  2  0  0  0
 18101  1  0  0  0
 19 20  1  0  0  0
 19 24  1  0  0  0
 20 21  2  0  0  0
 20102  1  0  0  0
 21 23  1  0  0  0
 22 28  1  0  0  0
 22 32  2  0  0  0
 26 27  1  0  0  0
 28103  1  0  0  0
 28104  1  0  0  0
 29105  1  0  0  0
 29106  1  0  0  0
 33 34  1  0  0  0
 33 66  1  0  0  0
 33 70  2  0  0  0
 34 36  1  0  0  0
 34 59  1  0  0  0
 34107  1  0  0  0
 35 44  2  0  0  0
 35 45  1  0  0  0
 35 68  1  0  0  0
 36 56  1  0  0  0
 36108  1  0  0  0
 37 39  1  0  0  0
 37 47  1  0  0  0
 37 66  1  0  0  0
 37109  1  0  0  0
 38 43  2  0  0  0
 38 46  1  0  0  0
 38 47  1  0  0  0
 39 64  1  0  0  0
 39 67  2  0  0  0
 40 52  1  0  0  0
 40 53  2  0  0  0
 40 58  1  0  0  0
 41110  1  0  0  0
 41111  1  0  0  0
 41112  1  0  0  0
 41 48  1  0  0  0
 42 43  1  0  0  0
 42 66  1  0  0  0
 42113  1  0  0  0
 42114  1  0  0  0
 43 44  1  0  0  0
 44115  1  0  0  0
 45 46  2  0  0  0
 45116  1  0  0  0
 46117  1  0  0  0
 47118  1  0  0  0
 47119  1  0  0  0
 48 56  1  0  0  0
 48 65  1  0  0  0
 48120  1  0  0  0
 49 50  1  0  0  0
 49 53  1  0  0  0
 49 64  1  0  0  0
 49121  1  0  0  0
 50 51  1  0  0  0
 50122  1  0  0  0
 50123  1  0  0  0
 51 52  1  0  0  0
 51124  1  0  0  0
 51125  1  0  0  0
 52126  1  0  0  0
 52127  1  0  0  0
 53 54  1  0  0  0
 54 55  2  0  0  0
 54128  1  0  0  0
 55 57  1  0  0  0
 55129  1  0  0  0
 56 69  2  0  0  0
 57 58  2  0  0  0
 57130  1  0  0  0
 58131  1  0  0  0
 59 60  1  0  0  0
 59 61  1  0  0  0
 59 62  1  0  0  0
 60132  1  0  0  0
 60133  1  0  0  0
 60134  1  0  0  0
 61135  1  0  0  0
 61136  1  0  0  0
 61137  1  0  0  0
 62138  1  0  0  0
 62139  1  0  0  0
 62140  1  0  0  0
 63 65  1  0  0  0
 63141  1  0  0  0
 63142  1  0  0  0
 63143  1  0  0  0
 64144  1  0  0  0
 65145  1  0  0  0
 68 83  1  0  0  0
 71 73  2  0  0  0
 71 74  1  0  0  0
 71146  1  0  0  0
 72 73  1  0  0  0
 72 85  2  0  0  0
 72147  1  0  0  0
 73 78  1  0  0  0
 74 75  2  0  0  0
 74 79  1  0  0  0
 75 84  1  0  0  0
 75 85  1  0  0  0
 76148  1  0  0  0
 76149  1  0  0  0
 76150  1  0  0  0
 76 84  1  0  0  0
 77 84  1  0  0  0
 77151  1  0  0  0
 77152  1  0  0  0
 77153  1  0  0  0
 78 80  1  0  0  0
 78154  1  0  0  0
 78155  1  0  0  0
 79 81  1  0  0  0
 79156  1  0  0  0
 79157  1  0  0  0
 80 83  1  0  0  0
 80158  1  0  0  0
 80159  1  0  0  0
 81 82  1  0  0  0
 81160  1  0  0  0
 81161  1  0  0  0
 82 86  1  0  0  0
 82162  1  0  0  0
 82163  1  0  0  0
 83164  1  0  0  0
 83165  1  0  0  0
 84166  1  0  0  0
 86167  1  0  0  0
M  ISO  4   1 100  68 101  83 101  86 100
M  END
> <chiral flag>
0

> <version>
0

> <s_m_source_file>
/data/baiqing/PycharmProjects/Reinvent-master-3.2/result/LINK_invent/BTK/process_docking_weight1_custom_sum_contain_oxygen_bond_distance_aromatic_linkinvent_7_9_3/rearranged_h_0091.sdf

> <i_m_source_file_index>
57

> <r_mmod_Potential_Energy-OPLS-2005>
-150.147308349609

> <r_mmod_Stretch_Energy-OPLS-2005>
40.4629707336426

> <r_mmod_Bend_Energy-OPLS-2005>
129.208145141602

> <r_mmod_Torsional_Energy-OPLS-2005>
248.579376220703

> <r_mmod_Improper_Torsional_Energy-OPLS-2005>
6.61220502853394

> <r_mmod_Van_der_Waal_Energy-OPLS-2005>
154.336502075195

> <r_mmod_Electrostatic_Energy-OPLS-2005>
-532.555419921875

> <r_mmod_Solvation_Energy-OPLS-2005>
-211.694595336914

> <b_mmod_Minimization_Converged-OPLS-2005>
0

> <r_mmod_RMS_Derivative-OPLS-2005>
4.47095727920532

$$$$
58
                    3D
 Structure written by MMmdl.
176184  0  0  1  0            999 V2000
  -30.6913  -14.4949   20.5322 C   0  0  0  0  0  0
  -30.4210  -12.3162   19.4186 C   0  0  0  0  0  0
  -29.4880  -12.4998   18.2038 C   0  0  0  0  0  0
  -28.0097  -12.3660   18.6197 C   0  0  0  0  0  0
  -27.6573  -13.2105   19.8730 C   0  0  2  0  0  0
  -28.7063  -13.0082   20.9902 C   0  0  0  0  0  0
  -25.2572  -13.8153   20.5706 C   0  0  0  0  0  0
  -24.1837  -13.0411   20.9193 C   0  0  0  0  0  0
  -24.6402  -11.6889   20.8738 C   0  0  0  0  0  0
  -23.9061  -10.4278   21.0408 C   0  0  0  0  0  0
  -24.3625   -9.4193   21.9183 C   0  0  0  0  0  0
  -23.6304   -8.2235   22.0738 C   0  0  0  0  0  0
  -22.4279   -8.0281   21.3544 C   0  0  0  0  0  0
  -21.9917   -9.0245   20.4630 C   0  0  0  0  0  0
  -22.7232  -10.2132   20.3041 C   0  0  0  0  0  0
  -21.6846   -6.0743   22.5279 C   0  0  0  0  0  0
  -21.4022   -6.5638   23.8220 C   0  0  0  0  0  0
  -21.3659   -5.6787   24.9179 C   0  0  0  0  0  0
  -21.6046   -4.3053   24.7216 C   0  0  0  0  0  0
  -21.8822   -3.8157   23.4336 C   0  0  0  0  0  0
  -21.9202   -4.6978   22.3401 C   0  0  0  0  0  0
  -22.7854  -13.5183   21.1860 C   0  0  0  0  0  0
  -22.1651   -4.2181   21.0973 F   0  0  0  0  0  0
  -21.5637   -3.4520   25.7722 F   0  0  0  0  0  0
  -30.0299  -13.3124   20.4270 N   0  0  0  0  0  0
  -26.3019  -12.9343   20.3409 N   0  0  0  0  0  0
  -25.9330  -11.6489   20.5787 N   0  0  0  0  0  0
  -22.0536  -12.8164   22.0441 N   0  0  0  0  0  0
  -25.4245  -15.1876   20.4065 N   0  0  0  0  0  0
  -31.8442  -14.6538   20.1189 O   0  0  0  0  0  0
  -21.6640   -6.8879   21.4239 O   0  0  0  0  0  0
  -22.3509  -14.5485   20.6718 O   0  0  0  0  0  0
  -24.6150  -31.8701   23.2124 C   0  0  0  0  0  0
  -25.9063  -32.4847   23.8396 C   0  0  1  0  0  0
  -27.2265  -27.4401   20.0998 C   0  0  0  0  0  0
  -25.5918  -33.8641   24.2342 N   0  0  0  0  0  0
  -23.4003  -30.4942   21.5545 C   0  0  2  0  0  0
  -24.8473  -28.9652   20.1133 C   0  0  0  0  0  0
  -22.7404  -29.4669   22.5026 C   0  0  0  0  0  0
  -18.0274  -28.1357   22.8498 C   0  0  0  0  0  0
  -24.1494  -36.7310   23.2635 C   0  0  0  0  0  0
  -25.9298  -30.8356   21.3671 C   0  0  0  0  0  0
  -26.0079  -29.4737   20.7106 C   0  0  0  0  0  0
  -27.2029  -28.7198   20.6994 C   0  0  0  0  0  0
  -26.0517  -26.9490   19.4884 C   0  0  0  0  0  0
  -24.8650  -27.7022   19.4957 C   0  0  0  0  0  0
  -23.6070  -29.8285   20.1678 C   0  0  0  0  0  0
  -25.4113  -36.3127   24.0340 C   0  0  1  0  0  0
  -20.5867  -28.3645   23.1336 C   0  0  2  0  0  0
  -20.6798  -26.9396   22.5415 C   0  0  0  0  0  0
  -19.5777  -26.6376   21.5211 C   0  0  0  0  0  0
  -18.1942  -26.7909   22.1607 C   0  0  0  0  0  0
  -19.1525  -28.8815   23.2921 C   0  0  0  0  0  0
  -18.9452  -30.1413   23.8932 C   0  0  0  0  0  0
  -17.6466  -30.6587   24.0537 C   0  0  0  0  0  0
  -25.9033  -34.9492   23.5125 C   0  0  0  0  0  0
  -16.5347  -29.9077   23.6327 C   0  0  0  0  0  0
  -16.7265  -28.6477   23.0379 C   0  0  0  0  0  0
  -26.4472  -31.6627   25.0729 C   0  0  0  0  0  0
  -25.3709  -31.3752   26.1456 C   0  0  0  0  0  0
  -27.0293  -30.3065   24.6104 C   0  0  0  0  0  0
  -27.6067  -32.4310   25.7485 C   0  0  0  0  0  0
  -27.5590  -37.1816   24.8463 C   0  0  0  0  0  0
  -21.4144  -29.3013   22.3743 N   0  0  0  0  0  0
  -26.4309  -37.3804   23.9403 N   0  0  0  0  0  0
  -24.6661  -31.0797   22.1033 N   0  0  0  0  0  0
  -23.4176  -28.8229   23.3087 O   0  0  0  0  0  0
  -28.3725  -26.6769   20.1119 O   0  0  0  0  0  0
  -26.5590  -34.8930   22.4684 O   0  0  0  0  0  0
  -23.5334  -32.1465   23.7514 O   0  0  0  0  0  0
  -30.8576  -21.9529   19.6047 C   0  0  0  0  0  0
  -29.0589  -20.4286   20.1191 C   0  0  0  0  0  0
  -29.5068  -21.7636   19.9493 C   0  0  0  0  0  0
  -31.6872  -20.8320   19.4342 C   0  0  0  0  0  0
  -29.9580  -19.3523   19.9275 C   0  0  0  0  0  0
  -27.6330  -23.0034   18.8130 C   0  0  0  0  0  0
  -29.3538  -17.3248   18.5464 C   0  0  0  0  0  0
  -32.4656  -21.6972   15.1746 C   0  0  0  0  0  0
  -33.0550  -19.4519   16.2034 C   0  0  0  0  0  0
  -33.1288  -21.0110   18.9886 C   0  0  0  0  0  0
  -33.2574  -21.6049   17.5696 C   0  0  0  0  0  0
  -29.2074  -24.3317   20.3199 C   0  0  0  0  0  0
  -30.3515  -16.9725   20.9035 C   0  0  0  0  0  0
  -28.2430  -25.4348   20.8272 C   0  0  0  0  0  0
  -28.5323  -22.9456   20.0648 C   0  0  2  0  0  0
  -29.4863  -17.8839   19.9714 C   0  0  1  0  0  0
  -32.4841  -20.8576   16.4598 C   0  0  0  0  0  0
  -31.2476  -19.5622   19.5767 N   0  0  0  0  0  0
  -29.9491  -15.5448   20.9387 N   0  0  0  0  0  0
  -31.4600  -12.4169   19.1043 H   0  0  0  0  0  0
  -30.3221  -11.3094   19.8291 H   0  0  0  0  0  0
  -29.7269  -11.7697   17.4296 H   0  0  0  0  0  0
  -29.6564  -13.4804   17.7554 H   0  0  0  0  0  0
  -27.8158  -11.3094   18.8165 H   0  0  0  0  0  0
  -27.3589  -12.6388   17.7885 H   0  0  0  0  0  0
  -27.6911  -14.2550   19.5667 H   0  0  0  0  0  0
  -28.6868  -11.9772   21.3412 H   0  0  0  0  0  0
  -28.4745  -13.6236   21.8619 H   0  0  0  0  0  0
  -25.2777   -9.5685   22.4744 H   0  0  0  0  0  0
  -24.0050   -7.4608   22.7420 H   0  0  0  0  0  0
  -21.0859   -8.8705   19.8923 H   0  0  0  0  0  0
  -22.3649  -10.9666   19.6152 H   0  0  0  0  0  0
  -21.2001   -7.6142   23.9721 H   0  0  0  0  0  0
  -21.1484   -6.0523   25.9084 H   0  0  0  0  0  0
  -22.0614   -2.7629   23.2808 H   0  0  0  0  0  0
  -22.4148  -11.9813   22.4810 H   0  0  0  0  0  0
  -21.1147  -13.1187   22.2662 H   0  0  0  0  0  0
  -24.6565  -15.8420   20.5127 H   0  0  0  0  0  0
  -26.2658  -15.6278   20.0593 H   0  0  0  0  0  0
  -26.7137  -32.5550   23.1154 H   0  0  0  0  0  0
  -25.0111  -33.9804   25.0509 H   0  0  0  0  0  0
  -22.6885  -31.3103   21.4185 H   0  0  0  0  0  0
  -23.3768  -35.9635   23.3298 H   0  0  0  0  0  0
  -24.3589  -36.8910   22.2053 H   0  0  0  0  0  0
  -23.7238  -37.6508   23.6630 H   0  0  0  0  0  0
  -26.0434  -31.6055   20.6025 H   0  0  0  0  0  0
  -26.8166  -30.8840   21.9868 H   0  0  0  0  0  0
  -28.0986  -29.1053   21.1643 H   0  0  0  0  0  0
  -26.0511  -25.9808   19.0095 H   0  0  0  0  0  0
  -23.9764  -27.3097   19.0237 H   0  0  0  0  0  0
  -23.7059  -30.6040   19.4082 H   0  0  0  0  0  0
  -22.7305  -29.2462   19.8792 H   0  0  0  0  0  0
  -25.1298  -36.1983   25.0836 H   0  0  0  0  0  0
  -20.9925  -28.3199   24.1470 H   0  0  0  0  0  0
  -20.5734  -26.2245   23.3593 H   0  0  0  0  0  0
  -21.6671  -26.7494   22.1177 H   0  0  0  0  0  0
  -19.6958  -25.6283   21.1250 H   0  0  0  0  0  0
  -19.6732  -27.3188   20.6743 H   0  0  0  0  0  0
  -17.4230  -26.6678   21.3984 H   0  0  0  0  0  0
  -18.0318  -26.0021   22.8970 H   0  0  0  0  0  0
  -19.7926  -30.7209   24.2342 H   0  0  0  0  0  0
  -17.5020  -31.6280   24.5100 H   0  0  0  0  0  0
  -15.5348  -30.2995   23.7632 H   0  0  0  0  0  0
  -15.8655  -28.0777   22.7141 H   0  0  0  0  0  0
  -24.5858  -30.7148   25.7756 H   0  0  0  0  0  0
  -24.8926  -32.2925   26.4893 H   0  0  0  0  0  0
  -25.8009  -30.8889   27.0217 H   0  0  0  0  0  0
  -26.2850  -29.6849   24.1116 H   0  0  0  0  0  0
  -27.4025  -29.7286   25.4566 H   0  0  0  0  0  0
  -27.8695  -30.4392   23.9287 H   0  0  0  0  0  0
  -27.2723  -33.3580   26.2137 H   0  0  0  0  0  0
  -28.3840  -32.6910   25.0296 H   0  0  0  0  0  0
  -28.0774  -31.8383   26.5331 H   0  0  0  0  0  0
  -28.2618  -38.0106   24.7508 H   0  0  0  0  0  0
  -28.1081  -36.2640   24.6285 H   0  0  0  0  0  0
  -27.2307  -37.1455   25.8867 H   0  0  0  0  0  0
  -20.9312  -29.8655   21.6897 H   0  0  0  0  0  0
  -26.0198  -38.2881   24.1394 H   0  0  0  0  0  0
  -31.2565  -22.9418   19.4286 H   0  0  0  0  0  0
  -28.0232  -20.2265   20.3541 H   0  0  0  0  0  0
  -27.1370  -22.0502   18.6305 H   0  0  0  0  0  0
  -28.2218  -23.2429   17.9269 H   0  0  0  0  0  0
  -26.8571  -23.7629   18.9005 H   0  0  0  0  0  0
  -28.7619  -17.9975   17.9258 H   0  0  0  0  0  0
  -28.8589  -16.3547   18.5419 H   0  0  0  0  0  0
  -30.3294  -17.2204   18.0700 H   0  0  0  0  0  0
  -31.9008  -21.2056   14.3820 H   0  0  0  0  0  0
  -33.4745  -21.8849   14.8066 H   0  0  0  0  0  0
  -31.9964  -22.6669   15.3500 H   0  0  0  0  0  0
  -32.4525  -18.9017   15.4795 H   0  0  0  0  0  0
  -33.0715  -18.8537   17.1143 H   0  0  0  0  0  0
  -34.0767  -19.5002   15.8220 H   0  0  0  0  0  0
  -33.6564  -20.0585   19.0446 H   0  0  0  0  0  0
  -33.6251  -21.6694   19.7017 H   0  0  0  0  0  0
  -34.3132  -21.6771   17.3061 H   0  0  0  0  0  0
  -32.8961  -22.6339   17.6076 H   0  0  0  0  0  0
  -29.9851  -24.2157   21.0767 H   0  0  0  0  0  0
  -29.7155  -24.6765   19.4168 H   0  0  0  0  0  0
  -30.3088  -17.3603   21.9188 H   0  0  0  0  0  0
  -31.3952  -17.0638   20.6039 H   0  0  0  0  0  0
  -28.4554  -25.6421   21.8784 H   0  0  0  0  0  0
  -27.2207  -25.0547   20.8206 H   0  0  0  0  0  0
  -27.9090  -22.7203   20.9301 H   0  0  0  0  0  0
  -28.4786  -17.9034   20.3871 H   0  0  0  0  0  0
  -31.4439  -20.7466   16.7693 H   0  0  0  0  0  0
  -29.0105  -15.3383   21.2443 H   0  0  0  0  0  0
  1 25  1  0  0  0
  1 30  2  0  0  0
  1 89  1  0  0  0
  2  3  1  0  0  0
  2 25  1  0  0  0
  2 90  1  0  0  0
  2 91  1  0  0  0
  3  4  1  0  0  0
  3 92  1  0  0  0
  3 93  1  0  0  0
  4  5  1  0  0  0
  4 94  1  0  0  0
  4 95  1  0  0  0
  5  6  1  0  0  0
  5 26  1  0  0  0
  5 96  1  0  0  0
  6 25  1  0  0  0
  6 97  1  0  0  0
  6 98  1  0  0  0
  7  8  2  0  0  0
  7 26  1  0  0  0
  7 29  1  0  0  0
  8  9  1  0  0  0
  8 22  1  0  0  0
  9 10  1  0  0  0
  9 27  2  0  0  0
 10 11  2  0  0  0
 10 15  1  0  0  0
 11 12  1  0  0  0
 11 99  1  0  0  0
 12 13  2  0  0  0
 12100  1  0  0  0
 13 14  1  0  0  0
 13 31  1  0  0  0
 14 15  2  0  0  0
 14101  1  0  0  0
 15102  1  0  0  0
 16 17  2  0  0  0
 16 21  1  0  0  0
 16 31  1  0  0  0
 17 18  1  0  0  0
 17103  1  0  0  0
 18 19  2  0  0  0
 18104  1  0  0  0
 19 20  1  0  0  0
 19 24  1  0  0  0
 20 21  2  0  0  0
 20105  1  0  0  0
 21 23  1  0  0  0
 22 28  1  0  0  0
 22 32  2  0  0  0
 26 27  1  0  0  0
 28106  1  0  0  0
 28107  1  0  0  0
 29108  1  0  0  0
 29109  1  0  0  0
 33 34  1  0  0  0
 33 66  1  0  0  0
 33 70  2  0  0  0
 34 36  1  0  0  0
 34 59  1  0  0  0
 34110  1  0  0  0
 35 44  2  0  0  0
 35 45  1  0  0  0
 35 68  1  0  0  0
 36 56  1  0  0  0
 36111  1  0  0  0
 37 39  1  0  0  0
 37 47  1  0  0  0
 37 66  1  0  0  0
 37112  1  0  0  0
 38 43  2  0  0  0
 38 46  1  0  0  0
 38 47  1  0  0  0
 39 64  1  0  0  0
 39 67  2  0  0  0
 40 52  1  0  0  0
 40 53  2  0  0  0
 40 58  1  0  0  0
 41113  1  0  0  0
 41114  1  0  0  0
 41115  1  0  0  0
 41 48  1  0  0  0
 42 43  1  0  0  0
 42 66  1  0  0  0
 42116  1  0  0  0
 42117  1  0  0  0
 43 44  1  0  0  0
 44118  1  0  0  0
 45 46  2  0  0  0
 45119  1  0  0  0
 46120  1  0  0  0
 47121  1  0  0  0
 47122  1  0  0  0
 48 56  1  0  0  0
 48 65  1  0  0  0
 48123  1  0  0  0
 49 50  1  0  0  0
 49 53  1  0  0  0
 49 64  1  0  0  0
 49124  1  0  0  0
 50 51  1  0  0  0
 50125  1  0  0  0
 50126  1  0  0  0
 51 52  1  0  0  0
 51127  1  0  0  0
 51128  1  0  0  0
 52129  1  0  0  0
 52130  1  0  0  0
 53 54  1  0  0  0
 54 55  2  0  0  0
 54131  1  0  0  0
 55 57  1  0  0  0
 55132  1  0  0  0
 56 69  2  0  0  0
 57 58  2  0  0  0
 57133  1  0  0  0
 58134  1  0  0  0
 59 60  1  0  0  0
 59 61  1  0  0  0
 59 62  1  0  0  0
 60135  1  0  0  0
 60136  1  0  0  0
 60137  1  0  0  0
 61138  1  0  0  0
 61139  1  0  0  0
 61140  1  0  0  0
 62141  1  0  0  0
 62142  1  0  0  0
 62143  1  0  0  0
 63 65  1  0  0  0
 63144  1  0  0  0
 63145  1  0  0  0
 63146  1  0  0  0
 64147  1  0  0  0
 65148  1  0  0  0
 68 84  1  0  0  0
 71 73  2  0  0  0
 71 74  1  0  0  0
 71149  1  0  0  0
 72 73  1  0  0  0
 72 75  2  0  0  0
 72150  1  0  0  0
 73 85  1  0  0  0
 74 80  1  0  0  0
 74 88  2  0  0  0
 75 86  1  0  0  0
 75 88  1  0  0  0
 76151  1  0  0  0
 76152  1  0  0  0
 76153  1  0  0  0
 76 85  1  0  0  0
 77154  1  0  0  0
 77155  1  0  0  0
 77156  1  0  0  0
 77 86  1  0  0  0
 78157  1  0  0  0
 78158  1  0  0  0
 78159  1  0  0  0
 78 87  1  0  0  0
 79 87  1  0  0  0
 79160  1  0  0  0
 79161  1  0  0  0
 79162  1  0  0  0
 80 81  1  0  0  0
 80163  1  0  0  0
 80164  1  0  0  0
 81 87  1  0  0  0
 81165  1  0  0  0
 81166  1  0  0  0
 82 84  1  0  0  0
 82 85  1  0  0  0
 82167  1  0  0  0
 82168  1  0  0  0
 83 86  1  0  0  0
 83 89  1  0  0  0
 83169  1  0  0  0
 83170  1  0  0  0
 84171  1  0  0  0
 84172  1  0  0  0
 85173  1  0  0  0
 86174  1  0  0  0
 87175  1  0  0  0
 89176  1  0  0  0
M  ISO  4   1 100  68 101  84 101  89 100
M  END
> <chiral flag>
0

> <version>
0

> <s_m_source_file>
/data/baiqing/PycharmProjects/Reinvent-master-3.2/result/LINK_invent/BTK/process_docking_weight1_custom_sum_contain_oxygen_bond_distance_aromatic_linkinvent_7_9_3/rearranged_h_0091.sdf

> <i_m_source_file_index>
58

> <r_mmod_Potential_Energy-OPLS-2005>
-235.71435546875

> <r_mmod_Stretch_Energy-OPLS-2005>
40.6438369750977

> <r_mmod_Bend_Energy-OPLS-2005>
97.2256088256836

> <r_mmod_Torsional_Energy-OPLS-2005>
230.182815551758

> <r_mmod_Improper_Torsional_Energy-OPLS-2005>
4.88361978530884

> <r_mmod_Van_der_Waal_Energy-OPLS-2005>
147.667587280273

> <r_mmod_Electrostatic_Energy-OPLS-2005>
-561.572326660156

> <r_mmod_Solvation_Energy-OPLS-2005>
-210.362655639648

> <b_mmod_Minimization_Converged-OPLS-2005>
0

> <r_mmod_RMS_Derivative-OPLS-2005>
4.16024780273438

$$$$
59
                    3D
 Structure written by MMmdl.
177185  0  0  1  0            999 V2000
  -30.6808  -14.5768   20.5306 C   0  0  0  0  0  0
  -30.4313  -12.3584   19.4600 C   0  0  0  0  0  0
  -29.5042  -12.5091   18.2353 C   0  0  0  0  0  0
  -28.0243  -12.3758   18.6441 C   0  0  0  0  0  0
  -27.6641  -13.2215   19.8943 C   0  0  2  0  0  0
  -28.7153  -13.0564   21.0143 C   0  0  0  0  0  0
  -25.2603  -13.8168   20.5819 C   0  0  0  0  0  0
  -24.1868  -13.0438   20.9268 C   0  0  0  0  0  0
  -24.6430  -11.6899   20.8838 C   0  0  0  0  0  0
  -23.9098  -10.4289   21.0451 C   0  0  0  0  0  0
  -24.3612   -9.4190   21.9225 C   0  0  0  0  0  0
  -23.6285   -8.2236   22.0785 C   0  0  0  0  0  0
  -22.4271   -8.0293   21.3576 C   0  0  0  0  0  0
  -21.9913   -9.0281   20.4690 C   0  0  0  0  0  0
  -22.7249  -10.2149   20.3128 C   0  0  0  0  0  0
  -21.6841   -6.0751   22.5280 C   0  0  0  0  0  0
  -21.3993   -6.5664   23.8216 C   0  0  0  0  0  0
  -21.3675   -5.6830   24.9192 C   0  0  0  0  0  0
  -21.6041   -4.3097   24.7241 C   0  0  0  0  0  0
  -21.8806   -3.8171   23.4368 C   0  0  0  0  0  0
  -21.9182   -4.6976   22.3417 C   0  0  0  0  0  0
  -22.7879  -13.5220   21.1888 C   0  0  0  0  0  0
  -22.1660   -4.2154   21.1004 F   0  0  0  0  0  0
  -21.5634   -3.4582   25.7764 F   0  0  0  0  0  0
  -30.0300  -13.3785   20.4481 N   0  0  0  0  0  0
  -26.3074  -12.9381   20.3567 N   0  0  0  0  0  0
  -25.9397  -11.6514   20.5963 N   0  0  0  0  0  0
  -22.0513  -12.8242   22.0423 N   0  0  0  0  0  0
  -25.4224  -15.1904   20.4188 N   0  0  0  0  0  0
  -31.8270  -14.6831   20.0852 O   0  0  0  0  0  0
  -21.6644   -6.8877   21.4242 O   0  0  0  0  0  0
  -22.3596  -14.5547   20.6742 O   0  0  0  0  0  0
  -24.6263  -31.8591   23.2057 C   0  0  0  0  0  0
  -25.9078  -32.4782   23.8414 C   0  0  1  0  0  0
  -27.2343  -27.3444   20.1036 C   0  0  0  0  0  0
  -25.5883  -33.8582   24.2328 N   0  0  0  0  0  0
  -23.4212  -30.4840   21.5485 C   0  0  2  0  0  0
  -24.8647  -28.9437   20.1121 C   0  0  0  0  0  0
  -22.7464  -29.4649   22.4961 C   0  0  0  0  0  0
  -18.0280  -28.1395   22.8436 C   0  0  0  0  0  0
  -24.1466  -36.7299   23.2645 C   0  0  0  0  0  0
  -25.9585  -30.7997   21.3691 C   0  0  0  0  0  0
  -26.0300  -29.4263   20.7156 C   0  0  0  0  0  0
  -27.2106  -28.6354   20.7055 C   0  0  0  0  0  0
  -26.0394  -26.9126   19.4720 C   0  0  0  0  0  0
  -24.8717  -27.6920   19.4801 C   0  0  0  0  0  0
  -23.6289  -29.8139   20.1660 C   0  0  0  0  0  0
  -25.4082  -36.3097   24.0357 C   0  0  1  0  0  0
  -20.5878  -28.3723   23.1218 C   0  0  2  0  0  0
  -20.6771  -26.9443   22.5363 C   0  0  0  0  0  0
  -19.5755  -26.6402   21.5156 C   0  0  0  0  0  0
  -18.1945  -26.7942   22.1593 C   0  0  0  0  0  0
  -19.1529  -28.8867   23.2832 C   0  0  0  0  0  0
  -18.9459  -30.1449   23.8893 C   0  0  0  0  0  0
  -17.6458  -30.6588   24.0536 C   0  0  0  0  0  0
  -25.9017  -34.9455   23.5147 C   0  0  0  0  0  0
  -16.5340  -29.9087   23.6295 C   0  0  0  0  0  0
  -16.7268  -28.6497   23.0332 C   0  0  0  0  0  0
  -26.4434  -31.6593   25.0782 C   0  0  0  0  0  0
  -25.3666  -31.3713   26.1522 C   0  0  0  0  0  0
  -27.0245  -30.3024   24.6196 C   0  0  0  0  0  0
  -27.6026  -32.4314   25.7504 C   0  0  0  0  0  0
  -27.5573  -37.1811   24.8463 C   0  0  0  0  0  0
  -21.4192  -29.3073   22.3632 N   0  0  0  0  0  0
  -26.4275  -37.3782   23.9429 N   0  0  0  0  0  0
  -24.6899  -31.0638   22.0988 N   0  0  0  0  0  0
  -23.4142  -28.8177   23.3073 O   0  0  0  0  0  0
  -28.3899  -26.5569   20.1905 O   0  0  0  0  0  0
  -26.5581  -34.8891   22.4711 O   0  0  0  0  0  0
  -23.5434  -32.1359   23.7385 O   0  0  0  0  0  0
  -29.7936  -19.3604   18.9250 C   0  0  0  0  0  0
  -28.9682  -19.1116   21.1471 C   0  0  0  0  0  0
  -29.5911  -18.5091   20.0308 C   0  0  0  0  0  0
  -29.4001  -20.7252   18.9334 C   0  0  0  0  0  0
  -28.7754  -21.2405   20.1077 C   0  0  0  0  0  0
  -31.9484  -17.0107   22.3849 C   0  0  0  0  0  0
  -25.0602  -22.5823   15.9561 C   0  0  0  0  0  0
  -26.8846  -24.1921   15.3220 C   0  0  0  0  0  0
  -30.0949  -17.0347   19.8965 C   0  0  0  0  0  0
  -29.7808  -21.5227   17.6762 C   0  0  0  0  0  0
  -28.1070  -22.6494   20.2200 C   0  0  0  0  0  0
  -30.5585  -16.3444   22.3943 C   0  0  0  0  0  0
  -28.8224  -22.5785   17.0921 C   0  0  0  0  0  0
  -28.9658  -23.9660   20.4080 C   0  0  0  0  0  0
  -27.4521  -22.0571   16.6226 C   0  0  0  0  0  0
  -28.4867  -25.2300   19.5729 C   0  0  0  0  0  0
  -29.9866  -15.9138   21.0133 C   0  0  1  0  0  0
  -26.4127  -23.1761   16.3758 C   0  0  0  0  0  0
  -28.5869  -20.4192   21.1796 N   0  0  0  0  0  0
  -31.4756  -12.4450   19.1526 H   0  0  0  0  0  0
  -30.3393  -11.3646   19.9005 H   0  0  0  0  0  0
  -29.7522  -11.7539   17.4890 H   0  0  0  0  0  0
  -29.6725  -13.4773   17.7613 H   0  0  0  0  0  0
  -27.8333  -11.3198   18.8432 H   0  0  0  0  0  0
  -27.3762  -12.6506   17.8112 H   0  0  0  0  0  0
  -27.6911  -14.2663   19.5876 H   0  0  0  0  0  0
  -28.7278  -12.0341   21.3929 H   0  0  0  0  0  0
  -28.4864  -13.6799   21.8784 H   0  0  0  0  0  0
  -25.2740   -9.5678   22.4821 H   0  0  0  0  0  0
  -23.9990   -7.4636   22.7506 H   0  0  0  0  0  0
  -21.0849   -8.8808   19.9011 H   0  0  0  0  0  0
  -22.3685  -10.9723   19.6280 H   0  0  0  0  0  0
  -21.1974   -7.6167   23.9713 H   0  0  0  0  0  0
  -21.1523   -6.0577   25.9087 H   0  0  0  0  0  0
  -22.0566   -2.7629   23.2885 H   0  0  0  0  0  0
  -22.4064  -11.9827   22.4752 H   0  0  0  0  0  0
  -21.1169  -13.1346   22.2703 H   0  0  0  0  0  0
  -24.6396  -15.8248   20.5376 H   0  0  0  0  0  0
  -26.2624  -15.6511   20.0929 H   0  0  0  0  0  0
  -26.7195  -32.5430   23.1228 H   0  0  0  0  0  0
  -25.0016  -33.9686   25.0464 H   0  0  0  0  0  0
  -22.7196  -31.3085   21.4021 H   0  0  0  0  0  0
  -23.3715  -35.9635   23.3302 H   0  0  0  0  0  0
  -24.3597  -36.8899   22.2065 H   0  0  0  0  0  0
  -23.7193  -37.6513   23.6629 H   0  0  0  0  0  0
  -26.0787  -31.5544   20.5908 H   0  0  0  0  0  0
  -26.8468  -30.8568   21.9886 H   0  0  0  0  0  0
  -28.1034  -29.0028   21.1945 H   0  0  0  0  0  0
  -25.9335  -25.9647   18.9727 H   0  0  0  0  0  0
  -23.9836  -27.3117   18.9962 H   0  0  0  0  0  0
  -23.7364  -30.5819   19.4014 H   0  0  0  0  0  0
  -22.7495  -29.2373   19.8766 H   0  0  0  0  0  0
  -25.1250  -36.2025   25.0852 H   0  0  0  0  0  0
  -20.9961  -28.3335   24.1338 H   0  0  0  0  0  0
  -20.5663  -26.2342   23.3579 H   0  0  0  0  0  0
  -21.6639  -26.7475   22.1159 H   0  0  0  0  0  0
  -19.6936  -25.6316   21.1198 H   0  0  0  0  0  0
  -19.6696  -27.3184   20.6675 H   0  0  0  0  0  0
  -17.4190  -26.6615   21.4021 H   0  0  0  0  0  0
  -18.0395  -26.0103   22.9033 H   0  0  0  0  0  0
  -19.7931  -30.7227   24.2303 H   0  0  0  0  0  0
  -17.5018  -31.6266   24.5158 H   0  0  0  0  0  0
  -15.5340  -30.2994   23.7638 H   0  0  0  0  0  0
  -15.8661  -28.0807   22.7090 H   0  0  0  0  0  0
  -24.5875  -30.6999   25.7880 H   0  0  0  0  0  0
  -24.8766  -32.2829   26.4962 H   0  0  0  0  0  0
  -25.7997  -30.8923   27.0310 H   0  0  0  0  0  0
  -26.2815  -29.6848   24.1130 H   0  0  0  0  0  0
  -27.3850  -29.7213   25.4698 H   0  0  0  0  0  0
  -27.8714  -30.4311   23.9448 H   0  0  0  0  0  0
  -27.2706  -33.3653   26.2052 H   0  0  0  0  0  0
  -28.3814  -32.6842   25.0289 H   0  0  0  0  0  0
  -28.0712  -31.8451   26.5432 H   0  0  0  0  0  0
  -28.2603  -38.0104   24.7511 H   0  0  0  0  0  0
  -28.1065  -36.2634   24.6297 H   0  0  0  0  0  0
  -27.2285  -37.1466   25.8862 H   0  0  0  0  0  0
  -20.9441  -29.8724   21.6726 H   0  0  0  0  0  0
  -26.0186  -38.2872   24.1398 H   0  0  0  0  0  0
  -30.2694  -18.9494   18.0460 H   0  0  0  0  0  0
  -28.7301  -18.5442   22.0321 H   0  0  0  0  0  0
  -32.6999  -16.4103   21.8765 H   0  0  0  0  0  0
  -32.2962  -17.1596   23.4068 H   0  0  0  0  0  0
  -31.9283  -17.9867   21.8995 H   0  0  0  0  0  0
  -24.3031  -23.3605   15.8346 H   0  0  0  0  0  0
  -24.6866  -21.8756   16.6987 H   0  0  0  0  0  0
  -25.1438  -22.0567   15.0040 H   0  0  0  0  0  0
  -26.1158  -24.9373   15.1106 H   0  0  0  0  0  0
  -27.1210  -23.6961   14.3808 H   0  0  0  0  0  0
  -27.7725  -24.7342   15.6480 H   0  0  0  0  0  0
  -31.1511  -17.1333   19.6343 H   0  0  0  0  0  0
  -29.6395  -16.6339   18.9898 H   0  0  0  0  0  0
  -29.9673  -20.8045   16.8769 H   0  0  0  0  0  0
  -30.7465  -21.9906   17.8725 H   0  0  0  0  0  0
  -27.4174  -22.6098   21.0656 H   0  0  0  0  0  0
  -27.4311  -22.7459   19.3748 H   0  0  0  0  0  0
  -30.6072  -15.4671   23.0397 H   0  0  0  0  0  0
  -29.8631  -17.0055   22.9032 H   0  0  0  0  0  0
  -29.3225  -23.0257   16.2310 H   0  0  0  0  0  0
  -28.7114  -23.4043   17.7755 H   0  0  0  0  0  0
  -29.0359  -24.2070   21.4702 H   0  0  0  0  0  0
  -29.9923  -23.7454   20.1155 H   0  0  0  0  0  0
  -27.0535  -21.3492   17.3488 H   0  0  0  0  0  0
  -27.5967  -21.4890   15.7036 H   0  0  0  0  0  0
  -29.2293  -25.3720   18.7887 H   0  0  0  0  0  0
  -27.6070  -24.9492   19.0161 H   0  0  0  0  0  0
  -28.9249  -15.7181   21.1505 H   0  0  0  0  0  0
  -26.2574  -23.7124   17.3139 H   0  0  0  0  0  0
  1 25  1  0  0  0
  1 30  2  0  0  0
  1 87  1  0  0  0
  2  3  1  0  0  0
  2 25  1  0  0  0
  2 90  1  0  0  0
  2 91  1  0  0  0
  3  4  1  0  0  0
  3 92  1  0  0  0
  3 93  1  0  0  0
  4  5  1  0  0  0
  4 94  1  0  0  0
  4 95  1  0  0  0
  5  6  1  0  0  0
  5 26  1  0  0  0
  5 96  1  0  0  0
  6 25  1  0  0  0
  6 97  1  0  0  0
  6 98  1  0  0  0
  7  8  2  0  0  0
  7 26  1  0  0  0
  7 29  1  0  0  0
  8  9  1  0  0  0
  8 22  1  0  0  0
  9 10  1  0  0  0
  9 27  2  0  0  0
 10 11  2  0  0  0
 10 15  1  0  0  0
 11 12  1  0  0  0
 11 99  1  0  0  0
 12 13  2  0  0  0
 12100  1  0  0  0
 13 14  1  0  0  0
 13 31  1  0  0  0
 14 15  2  0  0  0
 14101  1  0  0  0
 15102  1  0  0  0
 16 17  2  0  0  0
 16 21  1  0  0  0
 16 31  1  0  0  0
 17 18  1  0  0  0
 17103  1  0  0  0
 18 19  2  0  0  0
 18104  1  0  0  0
 19 20  1  0  0  0
 19 24  1  0  0  0
 20 21  2  0  0  0
 20105  1  0  0  0
 21 23  1  0  0  0
 22 28  1  0  0  0
 22 32  2  0  0  0
 26 27  1  0  0  0
 28106  1  0  0  0
 28107  1  0  0  0
 29108  1  0  0  0
 29109  1  0  0  0
 33 34  1  0  0  0
 33 66  1  0  0  0
 33 70  2  0  0  0
 34 36  1  0  0  0
 34 59  1  0  0  0
 34110  1  0  0  0
 35 44  2  0  0  0
 35 45  1  0  0  0
 35 68  1  0  0  0
 36 56  1  0  0  0
 36111  1  0  0  0
 37 39  1  0  0  0
 37 47  1  0  0  0
 37 66  1  0  0  0
 37112  1  0  0  0
 38 43  2  0  0  0
 38 46  1  0  0  0
 38 47  1  0  0  0
 39 64  1  0  0  0
 39 67  2  0  0  0
 40 52  1  0  0  0
 40 53  2  0  0  0
 40 58  1  0  0  0
 41113  1  0  0  0
 41114  1  0  0  0
 41115  1  0  0  0
 41 48  1  0  0  0
 42 43  1  0  0  0
 42 66  1  0  0  0
 42116  1  0  0  0
 42117  1  0  0  0
 43 44  1  0  0  0
 44118  1  0  0  0
 45 46  2  0  0  0
 45119  1  0  0  0
 46120  1  0  0  0
 47121  1  0  0  0
 47122  1  0  0  0
 48 56  1  0  0  0
 48 65  1  0  0  0
 48123  1  0  0  0
 49 50  1  0  0  0
 49 53  1  0  0  0
 49 64  1  0  0  0
 49124  1  0  0  0
 50 51  1  0  0  0
 50125  1  0  0  0
 50126  1  0  0  0
 51 52  1  0  0  0
 51127  1  0  0  0
 51128  1  0  0  0
 52129  1  0  0  0
 52130  1  0  0  0
 53 54  1  0  0  0
 54 55  2  0  0  0
 54131  1  0  0  0
 55 57  1  0  0  0
 55132  1  0  0  0
 56 69  2  0  0  0
 57 58  2  0  0  0
 57133  1  0  0  0
 58134  1  0  0  0
 59 60  1  0  0  0
 59 61  1  0  0  0
 59 62  1  0  0  0
 60135  1  0  0  0
 60136  1  0  0  0
 60137  1  0  0  0
 61138  1  0  0  0
 61139  1  0  0  0
 61140  1  0  0  0
 62141  1  0  0  0
 62142  1  0  0  0
 62143  1  0  0  0
 63 65  1  0  0  0
 63144  1  0  0  0
 63145  1  0  0  0
 63146  1  0  0  0
 64147  1  0  0  0
 65148  1  0  0  0
 68 86  1  0  0  0
 71 73  2  0  0  0
 71 74  1  0  0  0
 71149  1  0  0  0
 72 73  1  0  0  0
 72 89  2  0  0  0
 72150  1  0  0  0
 73 79  1  0  0  0
 74 75  2  0  0  0
 74 80  1  0  0  0
 75 81  1  0  0  0
 75 89  1  0  0  0
 76 82  1  0  0  0
 76151  1  0  0  0
 76152  1  0  0  0
 76153  1  0  0  0
 77154  1  0  0  0
 77155  1  0  0  0
 77156  1  0  0  0
 77 88  1  0  0  0
 78 88  1  0  0  0
 78157  1  0  0  0
 78158  1  0  0  0
 78159  1  0  0  0
 79160  1  0  0  0
 79161  1  0  0  0
 79 87  1  0  0  0
 80 83  1  0  0  0
 80162  1  0  0  0
 80163  1  0  0  0
 81 84  1  0  0  0
 81164  1  0  0  0
 81165  1  0  0  0
 82 87  1  0  0  0
 82166  1  0  0  0
 82167  1  0  0  0
 83 85  1  0  0  0
 83168  1  0  0  0
 83169  1  0  0  0
 84 86  1  0  0  0
 84170  1  0  0  0
 84171  1  0  0  0
 85 88  1  0  0  0
 85172  1  0  0  0
 85173  1  0  0  0
 86174  1  0  0  0
 86175  1  0  0  0
 87176  1  0  0  0
 88177  1  0  0  0
M  ISO  4   1 100  68 101  86 101  87 100
M  END
> <chiral flag>
0

> <version>
0

> <s_m_source_file>
/data/baiqing/PycharmProjects/Reinvent-master-3.2/result/LINK_invent/BTK/process_docking_weight1_custom_sum_contain_oxygen_bond_distance_aromatic_linkinvent_7_9_3/rearranged_h_0091.sdf

> <i_m_source_file_index>
59

> <r_mmod_Potential_Energy-OPLS-2005>
-1.6438992023468

> <r_mmod_Stretch_Energy-OPLS-2005>
70.4174194335938

> <r_mmod_Bend_Energy-OPLS-2005>
185.573608398438

> <r_mmod_Torsional_Energy-OPLS-2005>
201.443939208984

> <r_mmod_Improper_Torsional_Energy-OPLS-2005>
4.2223162651062

> <r_mmod_Van_der_Waal_Energy-OPLS-2005>
149.843154907227

> <r_mmod_Electrostatic_Energy-OPLS-2005>
-450.492889404297

> <r_mmod_Solvation_Energy-OPLS-2005>
-196.067794799805

> <b_mmod_Minimization_Converged-OPLS-2005>
0

> <r_mmod_RMS_Derivative-OPLS-2005>
5.3177809715271

$$$$
60
                    3D
 Structure written by MMmdl.
157165  0  0  1  0            999 V2000
  -30.6585  -14.5270   20.5263 C   0  0  0  0  0  0
  -30.4282  -12.3280   19.4177 C   0  0  0  0  0  0
  -29.5018  -12.5176   18.1978 C   0  0  0  0  0  0
  -28.0231  -12.3821   18.6118 C   0  0  0  0  0  0
  -27.6617  -13.2114   19.8740 C   0  0  2  0  0  0
  -28.7045  -12.9948   20.9909 C   0  0  0  0  0  0
  -25.2537  -13.8066   20.5560 C   0  0  0  0  0  0
  -24.1858  -13.0374   20.9156 C   0  0  0  0  0  0
  -24.6450  -11.6843   20.8747 C   0  0  0  0  0  0
  -23.9106  -10.4260   21.0411 C   0  0  0  0  0  0
  -24.3622   -9.4189   21.9205 C   0  0  0  0  0  0
  -23.6265   -8.2266   22.0794 C   0  0  0  0  0  0
  -22.4257   -8.0298   21.3580 C   0  0  0  0  0  0
  -21.9911   -9.0279   20.4681 C   0  0  0  0  0  0
  -22.7267  -10.2131   20.3073 C   0  0  0  0  0  0
  -21.6847   -6.0712   22.5291 C   0  0  0  0  0  0
  -21.4008   -6.5621   23.8218 C   0  0  0  0  0  0
  -21.3656   -5.6790   24.9181 C   0  0  0  0  0  0
  -21.6063   -4.3061   24.7254 C   0  0  0  0  0  0
  -21.8799   -3.8122   23.4382 C   0  0  0  0  0  0
  -21.9193   -4.6934   22.3420 C   0  0  0  0  0  0
  -22.7893  -13.5235   21.1799 C   0  0  0  0  0  0
  -22.1654   -4.2105   21.1005 F   0  0  0  0  0  0
  -21.5645   -3.4549   25.7770 F   0  0  0  0  0  0
  -30.0265  -13.3200   20.4340 N   0  0  0  0  0  0
  -26.3034  -12.9298   20.3304 N   0  0  0  0  0  0
  -25.9377  -11.6455   20.5750 N   0  0  0  0  0  0
  -22.0464  -12.8321   22.0342 N   0  0  0  0  0  0
  -25.4096  -15.1755   20.3692 N   0  0  0  0  0  0
  -31.8119  -14.6890   20.1186 O   0  0  0  0  0  0
  -21.6645   -6.8870   21.4261 O   0  0  0  0  0  0
  -22.3666  -14.5601   20.6645 O   0  0  0  0  0  0
  -24.6291  -31.8615   23.2009 C   0  0  0  0  0  0
  -25.9118  -32.4790   23.8372 C   0  0  1  0  0  0
  -27.2556  -27.3769   20.0907 C   0  0  0  0  0  0
  -25.5943  -33.8583   24.2307 N   0  0  0  0  0  0
  -23.4204  -30.4888   21.5367 C   0  0  2  0  0  0
  -24.8709  -28.9354   20.1098 C   0  0  0  0  0  0
  -22.7466  -29.4722   22.4895 C   0  0  0  0  0  0
  -18.0298  -28.1381   22.8537 C   0  0  0  0  0  0
  -24.1504  -36.7314   23.2640 C   0  0  0  0  0  0
  -25.9567  -30.8061   21.3650 C   0  0  0  0  0  0
  -26.0333  -29.4357   20.7098 C   0  0  0  0  0  0
  -27.2249  -28.6640   20.6933 C   0  0  0  0  0  0
  -26.0687  -26.8943   19.4990 C   0  0  0  0  0  0
  -24.8863  -27.6638   19.5055 C   0  0  0  0  0  0
  -23.6349  -29.8112   20.1569 C   0  0  0  0  0  0
  -25.4115  -36.3106   24.0354 C   0  0  1  0  0  0
  -20.5904  -28.3795   23.1228 C   0  0  2  0  0  0
  -20.6849  -26.9557   22.5244 C   0  0  0  0  0  0
  -19.5642  -26.6330   21.5329 C   0  0  0  0  0  0
  -18.1971  -26.7825   22.1976 C   0  0  0  0  0  0
  -19.1534  -28.8884   23.2842 C   0  0  0  0  0  0
  -18.9419  -30.1512   23.8804 C   0  0  0  0  0  0
  -17.6414  -30.6633   24.0480 C   0  0  0  0  0  0
  -25.9037  -34.9442   23.5106 C   0  0  0  0  0  0
  -16.5311  -29.9085   23.6298 C   0  0  0  0  0  0
  -16.7262  -28.6496   23.0390 C   0  0  0  0  0  0
  -26.4490  -31.6606   25.0751 C   0  0  0  0  0  0
  -25.3716  -31.3721   26.1466 C   0  0  0  0  0  0
  -27.0340  -30.3046   24.6169 C   0  0  0  0  0  0
  -27.6069  -32.4318   25.7528 C   0  0  0  0  0  0
  -27.5564  -37.1829   24.8468 C   0  0  0  0  0  0
  -21.4182  -29.3148   22.3628 N   0  0  0  0  0  0
  -26.4280  -37.3790   23.9423 N   0  0  0  0  0  0
  -24.6897  -31.0687   22.0922 N   0  0  0  0  0  0
  -23.4184  -28.8256   23.2986 O   0  0  0  0  0  0
  -28.4356  -26.6404   20.1233 O   0  0  0  0  0  0
  -26.5592  -34.8919   22.4667 O   0  0  0  0  0  0
  -23.5470  -32.1359   23.7381 O   0  0  0  0  0  0
  -27.9396  -17.8857   20.1386 C   0  0  0  0  0  0
  -29.3689  -19.4637   20.7573 C   0  0  0  0  0  0
  -29.2680  -18.0931   20.6016 C   0  0  0  0  0  0
  -27.2827  -19.0838   20.0617 C   0  0  0  0  0  0
  -25.8549  -19.3238   19.6826 C   0  0  0  0  0  0
  -30.3407  -17.0123   20.8625 C   0  0  0  0  0  0
  -28.5629  -22.6516   19.8233 C   0  0  0  0  0  0
  -28.1112  -24.0898   20.2886 C   0  0  0  0  0  0
  -27.8044  -21.5369   20.6221 C   0  0  0  0  0  0
  -28.5904  -25.3408   19.4746 C   0  0  0  0  0  0
  -28.1616  -20.0992   20.4327 N   0  0  0  0  0  0
  -29.9093  -15.5859   20.9171 N   0  0  0  0  0  0
  -31.4755  -12.4217   19.1144 H   0  0  0  0  0  0
  -30.3248  -11.3145   19.8108 H   0  0  0  0  0  0
  -29.7493  -11.7836   17.4248 H   0  0  0  0  0  0
  -29.6712  -13.5033   17.7539 H   0  0  0  0  0  0
  -27.8352  -11.3252   18.7945 H   0  0  0  0  0  0
  -27.3707  -12.6708   17.7834 H   0  0  0  0  0  0
  -27.6996  -14.2648   19.5962 H   0  0  0  0  0  0
  -28.6816  -11.9512   21.3200 H   0  0  0  0  0  0
  -28.4675  -13.5896   21.8740 H   0  0  0  0  0  0
  -25.2751   -9.5675   22.4781 H   0  0  0  0  0  0
  -23.9944   -7.4688   22.7557 H   0  0  0  0  0  0
  -21.0819   -8.8835   19.8997 H   0  0  0  0  0  0
  -22.3746  -10.9676   19.6188 H   0  0  0  0  0  0
  -21.1978   -7.6120   23.9709 H   0  0  0  0  0  0
  -21.1499   -6.0521   25.9094 H   0  0  0  0  0  0
  -22.0568   -2.7576   23.2906 H   0  0  0  0  0  0
  -22.3979  -12.0023   22.4868 H   0  0  0  0  0  0
  -21.1110  -13.1458   22.2455 H   0  0  0  0  0  0
  -24.5877  -15.7696   20.3741 H   0  0  0  0  0  0
  -26.2115  -15.6036   19.9285 H   0  0  0  0  0  0
  -26.7220  -32.5497   23.1150 H   0  0  0  0  0  0
  -25.0177  -33.9717   25.0497 H   0  0  0  0  0  0
  -22.7194  -31.3119   21.3791 H   0  0  0  0  0  0
  -23.3750  -35.9653   23.3321 H   0  0  0  0  0  0
  -24.3590  -36.8889   22.2051 H   0  0  0  0  0  0
  -23.7258  -37.6527   23.6624 H   0  0  0  0  0  0
  -26.0801  -31.5659   20.5923 H   0  0  0  0  0  0
  -26.8414  -30.8612   21.9877 H   0  0  0  0  0  0
  -28.1263  -29.0472   21.1478 H   0  0  0  0  0  0
  -26.0392  -25.9158   19.0443 H   0  0  0  0  0  0
  -23.9889  -27.2659   19.0486 H   0  0  0  0  0  0
  -23.7535  -30.5807   19.3923 H   0  0  0  0  0  0
  -22.7613  -29.2286   19.8593 H   0  0  0  0  0  0
  -25.1286  -36.1962   25.0851 H   0  0  0  0  0  0
  -21.0060  -28.3425   24.1311 H   0  0  0  0  0  0
  -20.6201  -26.2392   23.3443 H   0  0  0  0  0  0
  -21.6628  -26.7895   22.0686 H   0  0  0  0  0  0
  -19.6808  -25.6129   21.1598 H   0  0  0  0  0  0
  -19.6279  -27.2894   20.6659 H   0  0  0  0  0  0
  -17.4062  -26.6302   21.4640 H   0  0  0  0  0  0
  -18.0649  -26.0200   22.9685 H   0  0  0  0  0  0
  -19.7905  -30.7390   24.2028 H   0  0  0  0  0  0
  -17.4905  -31.6359   24.4943 H   0  0  0  0  0  0
  -15.5298  -30.2928   23.7605 H   0  0  0  0  0  0
  -15.8627  -28.0806   22.7197 H   0  0  0  0  0  0
  -24.5893  -30.7064   25.7778 H   0  0  0  0  0  0
  -24.8896  -32.2898   26.4901 H   0  0  0  0  0  0
  -25.8044  -30.8890   27.0247 H   0  0  0  0  0  0
  -26.2922  -29.6798   24.1187 H   0  0  0  0  0  0
  -27.4066  -29.7294   25.4667 H   0  0  0  0  0  0
  -27.8784  -30.4377   23.9388 H   0  0  0  0  0  0
  -27.2697  -33.3614   26.2142 H   0  0  0  0  0  0
  -28.3882  -32.6893   25.0346 H   0  0  0  0  0  0
  -28.0754  -31.8417   26.5411 H   0  0  0  0  0  0
  -28.2615  -38.0100   24.7486 H   0  0  0  0  0  0
  -28.1048  -36.2630   24.6346 H   0  0  0  0  0  0
  -27.2297  -37.1537   25.8876 H   0  0  0  0  0  0
  -20.9302  -29.8828   21.6854 H   0  0  0  0  0  0
  -26.0185  -38.2884   24.1335 H   0  0  0  0  0  0
  -27.4934  -16.9331   19.9066 H   0  0  0  0  0  0
  -30.2019  -20.0614   21.1092 H   0  0  0  0  0  0
  -25.7871  -19.7443   18.6758 H   0  0  0  0  0  0
  -25.3512  -19.9933   20.3779 H   0  0  0  0  0  0
  -25.2888  -18.3902   19.6819 H   0  0  0  0  0  0
  -31.0990  -17.1396   20.0853 H   0  0  0  0  0  0
  -30.8414  -17.2595   21.7979 H   0  0  0  0  0  0
  -29.6400  -22.5426   19.9718 H   0  0  0  0  0  0
  -28.3872  -22.5210   18.7541 H   0  0  0  0  0  0
  -28.4513  -24.2020   21.3210 H   0  0  0  0  0  0
  -27.0228  -24.1221   20.3217 H   0  0  0  0  0  0
  -26.7396  -21.6756   20.4121 H   0  0  0  0  0  0
  -27.9037  -21.7430   21.6861 H   0  0  0  0  0  0
  -28.1720  -25.3613   18.4689 H   0  0  0  0  0  0
  -29.6647  -25.2315   19.3193 H   0  0  0  0  0  0
  -28.9785  -15.3911   21.2519 H   0  0  0  0  0  0
  1 25  1  0  0  0
  1 30  2  0  0  0
  1 82  1  0  0  0
  2  3  1  0  0  0
  2 25  1  0  0  0
  2 83  1  0  0  0
  2 84  1  0  0  0
  3  4  1  0  0  0
  3 85  1  0  0  0
  3 86  1  0  0  0
  4  5  1  0  0  0
  4 87  1  0  0  0
  4 88  1  0  0  0
  5  6  1  0  0  0
  5 26  1  0  0  0
  5 89  1  0  0  0
  6 25  1  0  0  0
  6 90  1  0  0  0
  6 91  1  0  0  0
  7  8  2  0  0  0
  7 26  1  0  0  0
  7 29  1  0  0  0
  8  9  1  0  0  0
  8 22  1  0  0  0
  9 10  1  0  0  0
  9 27  2  0  0  0
 10 11  2  0  0  0
 10 15  1  0  0  0
 11 12  1  0  0  0
 11 92  1  0  0  0
 12 13  2  0  0  0
 12 93  1  0  0  0
 13 14  1  0  0  0
 13 31  1  0  0  0
 14 15  2  0  0  0
 14 94  1  0  0  0
 15 95  1  0  0  0
 16 17  2  0  0  0
 16 21  1  0  0  0
 16 31  1  0  0  0
 17 18  1  0  0  0
 17 96  1  0  0  0
 18 19  2  0  0  0
 18 97  1  0  0  0
 19 20  1  0  0  0
 19 24  1  0  0  0
 20 21  2  0  0  0
 20 98  1  0  0  0
 21 23  1  0  0  0
 22 28  1  0  0  0
 22 32  2  0  0  0
 26 27  1  0  0  0
 28 99  1  0  0  0
 28100  1  0  0  0
 29101  1  0  0  0
 29102  1  0  0  0
 33 34  1  0  0  0
 33 66  1  0  0  0
 33 70  2  0  0  0
 34 36  1  0  0  0
 34 59  1  0  0  0
 34103  1  0  0  0
 35 44  2  0  0  0
 35 45  1  0  0  0
 35 68  1  0  0  0
 36 56  1  0  0  0
 36104  1  0  0  0
 37 39  1  0  0  0
 37 47  1  0  0  0
 37 66  1  0  0  0
 37105  1  0  0  0
 38 43  2  0  0  0
 38 46  1  0  0  0
 38 47  1  0  0  0
 39 64  1  0  0  0
 39 67  2  0  0  0
 40 52  1  0  0  0
 40 53  2  0  0  0
 40 58  1  0  0  0
 41106  1  0  0  0
 41107  1  0  0  0
 41108  1  0  0  0
 41 48  1  0  0  0
 42 43  1  0  0  0
 42 66  1  0  0  0
 42109  1  0  0  0
 42110  1  0  0  0
 43 44  1  0  0  0
 44111  1  0  0  0
 45 46  2  0  0  0
 45112  1  0  0  0
 46113  1  0  0  0
 47114  1  0  0  0
 47115  1  0  0  0
 48 56  1  0  0  0
 48 65  1  0  0  0
 48116  1  0  0  0
 49 50  1  0  0  0
 49 53  1  0  0  0
 49 64  1  0  0  0
 49117  1  0  0  0
 50 51  1  0  0  0
 50118  1  0  0  0
 50119  1  0  0  0
 51 52  1  0  0  0
 51120  1  0  0  0
 51121  1  0  0  0
 52122  1  0  0  0
 52123  1  0  0  0
 53 54  1  0  0  0
 54 55  2  0  0  0
 54124  1  0  0  0
 55 57  1  0  0  0
 55125  1  0  0  0
 56 69  2  0  0  0
 57 58  2  0  0  0
 57126  1  0  0  0
 58127  1  0  0  0
 59 60  1  0  0  0
 59 61  1  0  0  0
 59 62  1  0  0  0
 60128  1  0  0  0
 60129  1  0  0  0
 60130  1  0  0  0
 61131  1  0  0  0
 61132  1  0  0  0
 61133  1  0  0  0
 62134  1  0  0  0
 62135  1  0  0  0
 62136  1  0  0  0
 63 65  1  0  0  0
 63137  1  0  0  0
 63138  1  0  0  0
 63139  1  0  0  0
 64140  1  0  0  0
 65141  1  0  0  0
 68 80  1  0  0  0
 71 73  1  0  0  0
 71 74  2  0  0  0
 71142  1  0  0  0
 72 73  2  0  0  0
 72 81  1  0  0  0
 72143  1  0  0  0
 73 76  1  0  0  0
 74 75  1  0  0  0
 74 81  1  0  0  0
 75144  1  0  0  0
 75145  1  0  0  0
 75146  1  0  0  0
 76 82  1  0  0  0
 76147  1  0  0  0
 76148  1  0  0  0
 77 78  1  0  0  0
 77 79  1  0  0  0
 77149  1  0  0  0
 77150  1  0  0  0
 78 80  1  0  0  0
 78151  1  0  0  0
 78152  1  0  0  0
 79 81  1  0  0  0
 79153  1  0  0  0
 79154  1  0  0  0
 80155  1  0  0  0
 80156  1  0  0  0
 82157  1  0  0  0
M  ISO  4   1 100  68 101  80 101  82 100
M  END
> <chiral flag>
0

> <version>
0

> <s_m_source_file>
/data/baiqing/PycharmProjects/Reinvent-master-3.2/result/LINK_invent/BTK/process_docking_weight1_custom_sum_contain_oxygen_bond_distance_aromatic_linkinvent_7_9_3/rearranged_h_0091.sdf

> <i_m_source_file_index>
60

> <r_mmod_Potential_Energy-OPLS-2005>
-98.0541763305664

> <r_mmod_Stretch_Energy-OPLS-2005>
53.3231925964355

> <r_mmod_Bend_Energy-OPLS-2005>
128.597503662109

> <r_mmod_Torsional_Energy-OPLS-2005>
200.92106628418

> <r_mmod_Improper_Torsional_Energy-OPLS-2005>
6.10190677642822

> <r_mmod_Van_der_Waal_Energy-OPLS-2005>
118.718460083008

> <r_mmod_Electrostatic_Energy-OPLS-2005>
-421.794067382812

> <r_mmod_Solvation_Energy-OPLS-2005>
-206.528900146484

> <b_mmod_Minimization_Converged-OPLS-2005>
0

> <r_mmod_RMS_Derivative-OPLS-2005>
7.22718572616577

$$$$
61
                    3D
 Structure written by MMmdl.
184192  0  0  1  0            999 V2000
  -30.6927  -14.4997   20.5596 C   0  0  0  0  0  0
  -30.4361  -12.3195   19.4444 C   0  0  0  0  0  0
  -29.5141  -12.5217   18.2247 C   0  0  0  0  0  0
  -28.0300  -12.3897   18.6195 C   0  0  0  0  0  0
  -27.6688  -13.2147   19.8830 C   0  0  2  0  0  0
  -28.7099  -13.0036   21.0083 C   0  0  0  0  0  0
  -25.2631  -13.8181   20.5701 C   0  0  0  0  0  0
  -24.1880  -13.0455   20.9183 C   0  0  0  0  0  0
  -24.6439  -11.6925   20.8733 C   0  0  0  0  0  0
  -23.9098  -10.4310   21.0384 C   0  0  0  0  0  0
  -24.3636   -9.4226   21.9165 C   0  0  0  0  0  0
  -23.6316   -8.2268   22.0743 C   0  0  0  0  0  0
  -22.4293   -8.0309   21.3541 C   0  0  0  0  0  0
  -21.9926   -9.0276   20.4639 C   0  0  0  0  0  0
  -22.7268  -10.2159   20.3040 C   0  0  0  0  0  0
  -21.6863   -6.0751   22.5276 C   0  0  0  0  0  0
  -21.4014   -6.5638   23.8216 C   0  0  0  0  0  0
  -21.3672   -5.6776   24.9173 C   0  0  0  0  0  0
  -21.6051   -4.3046   24.7213 C   0  0  0  0  0  0
  -21.8829   -3.8155   23.4321 C   0  0  0  0  0  0
  -21.9204   -4.6976   22.3386 C   0  0  0  0  0  0
  -22.7884  -13.5249   21.1836 C   0  0  0  0  0  0
  -22.1669   -4.2177   21.0967 F   0  0  0  0  0  0
  -21.5640   -3.4530   25.7715 F   0  0  0  0  0  0
  -30.0474  -13.3041   20.4672 N   0  0  0  0  0  0
  -26.3089  -12.9365   20.3394 N   0  0  0  0  0  0
  -25.9380  -11.6511   20.5764 N   0  0  0  0  0  0
  -22.0499  -12.8250   22.0379 N   0  0  0  0  0  0
  -25.4335  -15.1904   20.4105 N   0  0  0  0  0  0
  -31.8073  -14.7044   20.0737 O   0  0  0  0  0  0
  -21.6661   -6.8900   21.4240 O   0  0  0  0  0  0
  -22.3567  -14.5553   20.6700 O   0  0  0  0  0  0
  -24.6195  -31.8640   23.2099 C   0  0  0  0  0  0
  -25.9057  -32.4813   23.8432 C   0  0  1  0  0  0
  -27.2200  -27.3954   20.0918 C   0  0  0  0  0  0
  -25.5898  -33.8626   24.2334 N   0  0  0  0  0  0
  -23.4088  -30.4909   21.5505 C   0  0  2  0  0  0
  -24.8537  -28.9596   20.1082 C   0  0  0  0  0  0
  -22.7438  -29.4629   22.4963 C   0  0  0  0  0  0
  -18.0265  -28.1365   22.8482 C   0  0  0  0  0  0
  -24.1474  -36.7313   23.2643 C   0  0  0  0  0  0
  -25.9453  -30.8193   21.3709 C   0  0  0  0  0  0
  -26.0213  -29.4571   20.7035 C   0  0  0  0  0  0
  -27.2134  -28.6872   20.6813 C   0  0  0  0  0  0
  -26.0383  -26.9354   19.4715 C   0  0  0  0  0  0
  -24.8598  -27.7021   19.4865 C   0  0  0  0  0  0
  -23.6178  -29.8297   20.1639 C   0  0  0  0  0  0
  -25.4102  -36.3100   24.0320 C   0  0  1  0  0  0
  -20.5862  -28.3656   23.1294 C   0  0  2  0  0  0
  -20.6723  -26.9381   22.5399 C   0  0  0  0  0  0
  -19.5700  -26.6355   21.5198 C   0  0  0  0  0  0
  -18.1897  -26.7912   22.1622 C   0  0  0  0  0  0
  -19.1518  -28.8835   23.2888 C   0  0  0  0  0  0
  -18.9452  -30.1458   23.8887 C   0  0  0  0  0  0
  -17.6452  -30.6586   24.0570 C   0  0  0  0  0  0
  -25.9039  -34.9469   23.5124 C   0  0  0  0  0  0
  -16.5344  -29.9075   23.6342 C   0  0  0  0  0  0
  -16.7255  -28.6490   23.0352 C   0  0  0  0  0  0
  -26.4462  -31.6646   25.0802 C   0  0  0  0  0  0
  -25.3708  -31.3806   26.1548 C   0  0  0  0  0  0
  -27.0357  -30.3084   24.6289 C   0  0  0  0  0  0
  -27.6012  -32.4421   25.7556 C   0  0  0  0  0  0
  -27.5569  -37.1803   24.8462 C   0  0  0  0  0  0
  -21.4148  -29.3032   22.3722 N   0  0  0  0  0  0
  -26.4282  -37.3787   23.9404 N   0  0  0  0  0  0
  -24.6757  -31.0730   22.1008 N   0  0  0  0  0  0
  -23.4209  -28.8138   23.2969 O   0  0  0  0  0  0
  -28.3405  -26.5771   20.1150 O   0  0  0  0  0  0
  -26.5597  -34.8897   22.4688 O   0  0  0  0  0  0
  -23.5375  -32.1425   23.7459 O   0  0  0  0  0  0
  -29.4155  -20.5213   21.2924 C   0  0  0  0  0  0
  -29.9711  -19.4077   20.6962 C   0  0  0  0  0  0
  -29.3940  -20.8922   19.1078 C   0  0  0  0  0  0
  -33.1192  -20.3591   21.3757 C   0  0  0  0  0  0
  -29.6508  -18.7557   14.0011 C   0  0  0  0  0  0
  -30.8784  -17.6839   15.9130 C   0  0  0  0  0  0
  -28.5618  -16.9437   15.3416 C   0  0  0  0  0  0
  -29.0959  -21.4182   17.7304 C   0  0  0  0  0  0
  -32.6300  -19.1645   22.2110 C   0  0  0  0  0  0
  -29.6181  -20.5286   16.5731 C   0  0  0  0  0  0
  -31.9910  -18.0242   21.3846 C   0  0  0  0  0  0
  -28.8632  -19.1869   16.3924 C   0  0  0  0  0  0
  -28.8578  -24.0475   20.0263 C   0  0  0  0  0  0
  -28.2780  -22.6775   20.5154 C   0  0  0  0  0  0
  -29.8980  -16.8725   20.4106 C   0  0  0  0  0  0
  -28.1150  -25.2544   20.6825 C   0  0  0  0  0  0
  -30.4498  -18.0704   21.2517 C   0  0  2  0  0  0
  -29.4991  -18.1635   15.4148 C   0  0  0  0  0  0
  -29.0625  -21.4215   20.3034 N   0  0  0  0  0  0
  -30.0102  -19.7276   19.3631 N   0  3  0  0  0  0
  -29.9365  -15.5184   21.0122 N   0  0  0  0  0  0
  -31.4802  -12.4249   19.1462 H   0  0  0  0  0  0
  -30.3394  -11.3097   19.8437 H   0  0  0  0  0  0
  -29.7606  -11.8013   17.4439 H   0  0  0  0  0  0
  -29.6974  -13.5091   17.7981 H   0  0  0  0  0  0
  -27.8183  -11.3346   18.7874 H   0  0  0  0  0  0
  -27.3964  -12.6966   17.7875 H   0  0  0  0  0  0
  -27.7096  -14.2646   19.5943 H   0  0  0  0  0  0
  -28.6875  -11.9738   21.3641 H   0  0  0  0  0  0
  -28.4688  -13.6170   21.8780 H   0  0  0  0  0  0
  -25.2775   -9.5715   22.4755 H   0  0  0  0  0  0
  -24.0045   -7.4641   22.7442 H   0  0  0  0  0  0
  -21.0871   -8.8801   19.8908 H   0  0  0  0  0  0
  -22.3725  -10.9710   19.6165 H   0  0  0  0  0  0
  -21.1995   -7.6135   23.9727 H   0  0  0  0  0  0
  -21.1486   -6.0497   25.9079 H   0  0  0  0  0  0
  -22.0599   -2.7620   23.2811 H   0  0  0  0  0  0
  -22.4087  -11.9922   22.4817 H   0  0  0  0  0  0
  -21.1101  -13.1278   22.2529 H   0  0  0  0  0  0
  -24.6627  -15.8428   20.5089 H   0  0  0  0  0  0
  -26.2873  -15.6321   20.0946 H   0  0  0  0  0  0
  -26.7113  -32.5506   23.1189 H   0  0  0  0  0  0
  -25.0039  -33.9816   25.0470 H   0  0  0  0  0  0
  -22.7010  -31.3118   21.4164 H   0  0  0  0  0  0
  -23.3719  -35.9670   23.3326 H   0  0  0  0  0  0
  -24.3576  -36.8925   22.2058 H   0  0  0  0  0  0
  -23.7213  -37.6505   23.6677 H   0  0  0  0  0  0
  -26.0786  -31.5935   20.6143 H   0  0  0  0  0  0
  -26.8210  -30.8564   22.0056 H   0  0  0  0  0  0
  -28.1156  -29.0683   21.1399 H   0  0  0  0  0  0
  -26.0148  -25.9709   18.9835 H   0  0  0  0  0  0
  -23.9634  -27.3181   19.0212 H   0  0  0  0  0  0
  -23.7239  -30.6091   19.4087 H   0  0  0  0  0  0
  -22.7395  -29.2520   19.8675 H   0  0  0  0  0  0
  -25.1272  -36.1971   25.0807 H   0  0  0  0  0  0
  -20.9968  -28.3175   24.1406 H   0  0  0  0  0  0
  -20.5575  -26.2266   23.3591 H   0  0  0  0  0  0
  -21.6604  -26.7360   22.1243 H   0  0  0  0  0  0
  -19.6848  -25.6258   21.1240 H   0  0  0  0  0  0
  -19.6642  -27.3148   20.6717 H   0  0  0  0  0  0
  -17.4157  -26.6669   21.4030 H   0  0  0  0  0  0
  -18.0325  -26.0060   22.9028 H   0  0  0  0  0  0
  -19.7936  -30.7288   24.2231 H   0  0  0  0  0  0
  -17.5002  -31.6267   24.5166 H   0  0  0  0  0  0
  -15.5346  -30.2969   23.7674 H   0  0  0  0  0  0
  -15.8651  -28.0818   22.7050 H   0  0  0  0  0  0
  -24.5808  -30.7237   25.7868 H   0  0  0  0  0  0
  -24.9000  -32.3014   26.5021 H   0  0  0  0  0  0
  -25.8013  -30.8918   27.0306 H   0  0  0  0  0  0
  -26.2985  -29.6803   24.1260 H   0  0  0  0  0  0
  -27.3984  -29.7374   25.4850 H   0  0  0  0  0  0
  -27.8876  -30.4383   23.9603 H   0  0  0  0  0  0
  -27.2576  -33.3695   26.2167 H   0  0  0  0  0  0
  -28.3788  -32.7045   25.0364 H   0  0  0  0  0  0
  -28.0742  -31.8567   26.5455 H   0  0  0  0  0  0
  -28.2574  -38.0101   24.7513 H   0  0  0  0  0  0
  -28.1062  -36.2637   24.6287 H   0  0  0  0  0  0
  -27.2321  -37.1450   25.8870 H   0  0  0  0  0  0
  -20.9304  -29.8845   21.7036 H   0  0  0  0  0  0
  -26.0169  -38.2868   24.1401 H   0  0  0  0  0  0
  -29.2035  -20.7081   22.3377 H   0  0  0  0  0  0
  -32.3002  -20.8697   20.8708 H   0  0  0  0  0  0
  -33.8409  -20.0467   20.6183 H   0  0  0  0  0  0
  -33.6161  -21.0954   22.0090 H   0  0  0  0  0  0
  -29.9956  -18.0020   13.2918 H   0  0  0  0  0  0
  -30.3778  -19.5691   13.9753 H   0  0  0  0  0  0
  -28.7061  -19.1474   13.6237 H   0  0  0  0  0  0
  -31.2853  -16.9096   15.2602 H   0  0  0  0  0  0
  -30.8232  -17.2630   16.9172 H   0  0  0  0  0  0
  -31.6140  -18.4876   15.9329 H   0  0  0  0  0  0
  -28.9348  -16.1826   14.6537 H   0  0  0  0  0  0
  -27.5661  -17.2345   15.0025 H   0  0  0  0  0  0
  -28.4502  -16.4721   16.3198 H   0  0  0  0  0  0
  -29.5502  -22.4066   17.6699 H   0  0  0  0  0  0
  -28.0160  -21.5511   17.6636 H   0  0  0  0  0  0
  -31.9406  -19.5022   22.9858 H   0  0  0  0  0  0
  -33.4930  -18.7633   22.7433 H   0  0  0  0  0  0
  -30.6858  -20.3651   16.7123 H   0  0  0  0  0  0
  -29.5275  -21.0952   15.6457 H   0  0  0  0  0  0
  -32.2465  -17.0776   21.8619 H   0  0  0  0  0  0
  -32.4568  -17.9832   20.3984 H   0  0  0  0  0  0
  -27.8468  -19.4091   16.0602 H   0  0  0  0  0  0
  -28.7323  -18.6931   17.3534 H   0  0  0  0  0  0
  -28.7520  -24.1235   18.9445 H   0  0  0  0  0  0
  -29.9234  -24.1110   20.2432 H   0  0  0  0  0  0
  -27.2976  -22.5185   20.0606 H   0  0  0  0  0  0
  -28.0981  -22.7460   21.5889 H   0  0  0  0  0  0
  -30.3767  -16.8550   19.4291 H   0  0  0  0  0  0
  -28.8415  -17.0602   20.2136 H   0  0  0  0  0  0
  -28.4088  -25.3091   21.7310 H   0  0  0  0  0  0
  -27.0562  -25.0000   20.7164 H   0  0  0  0  0  0
  -30.0291  -17.9877   22.2553 H   0  0  0  0  0  0
  -30.3969  -19.1375   18.6370 H   0  0  0  0  0  0
  -29.0881  -15.2275   21.4774 H   0  0  0  0  0  0
  1 25  1  0  0  0
  1 30  2  0  0  0
  1 91  1  0  0  0
  2  3  1  0  0  0
  2 25  1  0  0  0
  2 92  1  0  0  0
  2 93  1  0  0  0
  3  4  1  0  0  0
  3 94  1  0  0  0
  3 95  1  0  0  0
  4  5  1  0  0  0
  4 96  1  0  0  0
  4 97  1  0  0  0
  5  6  1  0  0  0
  5 26  1  0  0  0
  5 98  1  0  0  0
  6 25  1  0  0  0
  6 99  1  0  0  0
  6100  1  0  0  0
  7  8  2  0  0  0
  7 26  1  0  0  0
  7 29  1  0  0  0
  8  9  1  0  0  0
  8 22  1  0  0  0
  9 10  1  0  0  0
  9 27  2  0  0  0
 10 11  2  0  0  0
 10 15  1  0  0  0
 11 12  1  0  0  0
 11101  1  0  0  0
 12 13  2  0  0  0
 12102  1  0  0  0
 13 14  1  0  0  0
 13 31  1  0  0  0
 14 15  2  0  0  0
 14103  1  0  0  0
 15104  1  0  0  0
 16 17  2  0  0  0
 16 21  1  0  0  0
 16 31  1  0  0  0
 17 18  1  0  0  0
 17105  1  0  0  0
 18 19  2  0  0  0
 18106  1  0  0  0
 19 20  1  0  0  0
 19 24  1  0  0  0
 20 21  2  0  0  0
 20107  1  0  0  0
 21 23  1  0  0  0
 22 28  1  0  0  0
 22 32  2  0  0  0
 26 27  1  0  0  0
 28108  1  0  0  0
 28109  1  0  0  0
 29110  1  0  0  0
 29111  1  0  0  0
 33 34  1  0  0  0
 33 66  1  0  0  0
 33 70  2  0  0  0
 34 36  1  0  0  0
 34 59  1  0  0  0
 34112  1  0  0  0
 35 44  2  0  0  0
 35 45  1  0  0  0
 35 68  1  0  0  0
 36 56  1  0  0  0
 36113  1  0  0  0
 37 39  1  0  0  0
 37 47  1  0  0  0
 37 66  1  0  0  0
 37114  1  0  0  0
 38 43  2  0  0  0
 38 46  1  0  0  0
 38 47  1  0  0  0
 39 64  1  0  0  0
 39 67  2  0  0  0
 40 52  1  0  0  0
 40 53  2  0  0  0
 40 58  1  0  0  0
 41115  1  0  0  0
 41116  1  0  0  0
 41117  1  0  0  0
 41 48  1  0  0  0
 42 43  1  0  0  0
 42 66  1  0  0  0
 42118  1  0  0  0
 42119  1  0  0  0
 43 44  1  0  0  0
 44120  1  0  0  0
 45 46  2  0  0  0
 45121  1  0  0  0
 46122  1  0  0  0
 47123  1  0  0  0
 47124  1  0  0  0
 48 56  1  0  0  0
 48 65  1  0  0  0
 48125  1  0  0  0
 49 50  1  0  0  0
 49 53  1  0  0  0
 49 64  1  0  0  0
 49126  1  0  0  0
 50 51  1  0  0  0
 50127  1  0  0  0
 50128  1  0  0  0
 51 52  1  0  0  0
 51129  1  0  0  0
 51130  1  0  0  0
 52131  1  0  0  0
 52132  1  0  0  0
 53 54  1  0  0  0
 54 55  2  0  0  0
 54133  1  0  0  0
 55 57  1  0  0  0
 55134  1  0  0  0
 56 69  2  0  0  0
 57 58  2  0  0  0
 57135  1  0  0  0
 58136  1  0  0  0
 59 60  1  0  0  0
 59 61  1  0  0  0
 59 62  1  0  0  0
 60137  1  0  0  0
 60138  1  0  0  0
 60139  1  0  0  0
 61140  1  0  0  0
 61141  1  0  0  0
 61142  1  0  0  0
 62143  1  0  0  0
 62144  1  0  0  0
 62145  1  0  0  0
 63 65  1  0  0  0
 63146  1  0  0  0
 63147  1  0  0  0
 63148  1  0  0  0
 64149  1  0  0  0
 65150  1  0  0  0
 68 86  1  0  0  0
 71 72  2  0  0  0
 71 89  1  0  0  0
 71151  1  0  0  0
 72 87  1  0  0  0
 72 90  1  0  0  0
 73 78  1  0  0  0
 73 89  1  0  0  0
 73 90  2  0  0  0
 74 79  1  0  0  0
 74152  1  0  0  0
 74153  1  0  0  0
 74154  1  0  0  0
 75155  1  0  0  0
 75156  1  0  0  0
 75157  1  0  0  0
 75 88  1  0  0  0
 76 88  1  0  0  0
 76158  1  0  0  0
 76159  1  0  0  0
 76160  1  0  0  0
 77 88  1  0  0  0
 77161  1  0  0  0
 77162  1  0  0  0
 77163  1  0  0  0
 78 80  1  0  0  0
 78164  1  0  0  0
 78165  1  0  0  0
 79 81  1  0  0  0
 79166  1  0  0  0
 79167  1  0  0  0
 80 82  1  0  0  0
 80168  1  0  0  0
 80169  1  0  0  0
 81170  1  0  0  0
 81171  1  0  0  0
 81 87  1  0  0  0
 82 88  1  0  0  0
 82172  1  0  0  0
 82173  1  0  0  0
 83 84  1  0  0  0
 83 86  1  0  0  0
 83174  1  0  0  0
 83175  1  0  0  0
 84 89  1  0  0  0
 84176  1  0  0  0
 84177  1  0  0  0
 85 87  1  0  0  0
 85 91  1  0  0  0
 85178  1  0  0  0
 85179  1  0  0  0
 86180  1  0  0  0
 86181  1  0  0  0
 87182  1  0  0  0
 90183  1  0  0  0
 91184  1  0  0  0
M  CHG  1  90   1
M  ISO  4   1 100  68 101  86 101  91 100
M  END
> <chiral flag>
0

> <version>
0

> <s_m_source_file>
/data/baiqing/PycharmProjects/Reinvent-master-3.2/result/LINK_invent/BTK/process_docking_weight1_custom_sum_contain_oxygen_bond_distance_aromatic_linkinvent_7_9_3/rearranged_h_0091.sdf

> <i_m_source_file_index>
61

> <r_mmod_Potential_Energy-OPLS-2005>
-37.8006629943848

> <r_mmod_Stretch_Energy-OPLS-2005>
48.656810760498

> <r_mmod_Bend_Energy-OPLS-2005>
121.250640869141

> <r_mmod_Torsional_Energy-OPLS-2005>
287.623291015625

> <r_mmod_Improper_Torsional_Energy-OPLS-2005>
8.27961921691895

> <r_mmod_Van_der_Waal_Energy-OPLS-2005>
115.292137145996

> <r_mmod_Electrostatic_Energy-OPLS-2005>
-240.547561645508

> <r_mmod_Solvation_Energy-OPLS-2005>
-398.147979736328

> <b_mmod_Minimization_Converged-OPLS-2005>
0

> <r_mmod_RMS_Derivative-OPLS-2005>
3.72712159156799

$$$$
62
                    3D
 Structure written by MMmdl.
163171  0  0  1  0            999 V2000
  -30.6578  -14.5543   20.5090 C   0  0  0  0  0  0
  -30.4291  -12.3359   19.4370 C   0  0  0  0  0  0
  -29.4942  -12.4835   18.2148 C   0  0  0  0  0  0
  -28.0202  -12.3249   18.6419 C   0  0  0  0  0  0
  -27.6544  -13.2036   19.8670 C   0  0  2  0  0  0
  -28.7020  -13.0358   20.9908 C   0  0  0  0  0  0
  -25.2576  -13.8155   20.5703 C   0  0  0  0  0  0
  -24.1827  -13.0441   20.9183 C   0  0  0  0  0  0
  -24.6365  -11.6894   20.8764 C   0  0  0  0  0  0
  -23.9026  -10.4287   21.0434 C   0  0  0  0  0  0
  -24.3588   -9.4201   21.9205 C   0  0  0  0  0  0
  -23.6276   -8.2235   22.0766 C   0  0  0  0  0  0
  -22.4270   -8.0267   21.3544 C   0  0  0  0  0  0
  -21.9892   -9.0234   20.4648 C   0  0  0  0  0  0
  -22.7213  -10.2120   20.3068 C   0  0  0  0  0  0
  -21.6840   -6.0722   22.5270 C   0  0  0  0  0  0
  -21.4011   -6.5632   23.8207 C   0  0  0  0  0  0
  -21.3676   -5.6799   24.9176 C   0  0  0  0  0  0
  -21.6051   -4.3051   24.7227 C   0  0  0  0  0  0
  -21.8818   -3.8133   23.4349 C   0  0  0  0  0  0
  -21.9188   -4.6947   22.3402 C   0  0  0  0  0  0
  -22.7849  -13.5229   21.1871 C   0  0  0  0  0  0
  -22.1660   -4.2141   21.0978 F   0  0  0  0  0  0
  -21.5643   -3.4532   25.7737 F   0  0  0  0  0  0
  -30.0221  -13.3511   20.4215 N   0  0  0  0  0  0
  -26.2993  -12.9308   20.3366 N   0  0  0  0  0  0
  -25.9295  -11.6473   20.5791 N   0  0  0  0  0  0
  -22.0496  -12.8206   22.0413 N   0  0  0  0  0  0
  -25.4325  -15.1881   20.4088 N   0  0  0  0  0  0
  -31.8191  -14.7257   20.1320 O   0  0  0  0  0  0
  -21.6635   -6.8866   21.4243 O   0  0  0  0  0  0
  -22.3533  -14.5553   20.6742 O   0  0  0  0  0  0
  -24.6136  -31.8635   23.2033 C   0  0  0  0  0  0
  -25.8995  -32.4809   23.8336 C   0  0  1  0  0  0
  -27.2465  -27.4114   20.0862 C   0  0  0  0  0  0
  -25.5827  -33.8618   24.2247 N   0  0  0  0  0  0
  -23.4045  -30.4844   21.5447 C   0  0  2  0  0  0
  -24.8530  -28.9460   20.1073 C   0  0  0  0  0  0
  -22.7398  -29.4625   22.4962 C   0  0  0  0  0  0
  -18.0257  -28.1388   22.8483 C   0  0  0  0  0  0
  -24.1492  -36.7393   23.2643 C   0  0  0  0  0  0
  -25.9318  -30.8246   21.3540 C   0  0  0  0  0  0
  -26.0093  -29.4507   20.7134 C   0  0  0  0  0  0
  -27.1995  -28.6856   20.7083 C   0  0  0  0  0  0
  -26.0648  -26.9220   19.4804 C   0  0  0  0  0  0
  -24.8781  -27.6829   19.4891 C   0  0  0  0  0  0
  -23.6112  -29.8102   20.1598 C   0  0  0  0  0  0
  -25.4099  -36.3126   24.0336 C   0  0  1  0  0  0
  -20.5849  -28.3675   23.1318 C   0  0  2  0  0  0
  -20.6752  -26.9408   22.5425 C   0  0  0  0  0  0
  -19.5740  -26.6391   21.5211 C   0  0  0  0  0  0
  -18.1907  -26.7935   22.1613 C   0  0  0  0  0  0
  -19.1508  -28.8845   23.2907 C   0  0  0  0  0  0
  -18.9444  -30.1447   23.8934 C   0  0  0  0  0  0
  -17.6446  -30.6602   24.0565 C   0  0  0  0  0  0
  -25.9031  -34.9485   23.5110 C   0  0  0  0  0  0
  -16.5337  -29.9116   23.6312 C   0  0  0  0  0  0
  -16.7246  -28.6522   23.0342 C   0  0  0  0  0  0
  -26.4421  -31.6609   25.0676 C   0  0  0  0  0  0
  -25.3679  -31.3722   26.1415 C   0  0  0  0  0  0
  -27.0224  -30.3045   24.6023 C   0  0  0  0  0  0
  -27.5983  -32.4330   25.7459 C   0  0  0  0  0  0
  -27.5593  -37.1826   24.8444 C   0  0  0  0  0  0
  -21.4124  -29.3045   22.3722 N   0  0  0  0  0  0
  -26.4298  -37.3793   23.9398 N   0  0  0  0  0  0
  -24.6686  -31.0729   22.0934 N   0  0  0  0  0  0
  -23.4155  -28.8163   23.3006 O   0  0  0  0  0  0
  -28.4443  -26.7106   20.1103 O   0  0  0  0  0  0
  -26.5630  -34.8949   22.4697 O   0  0  0  0  0  0
  -23.5322  -32.1374   23.7430 O   0  0  0  0  0  0
  -29.7885  -20.5755   19.4773 C   0  0  0  0  0  0
  -29.3313  -19.3456   19.9206 C   0  0  0  0  0  0
  -27.8320  -20.9390   20.4536 C   0  0  0  0  0  0
  -25.9687  -20.7534   22.1511 C   0  0  0  0  0  0
  -25.4854  -21.5310   19.7762 C   0  0  0  0  0  0
  -29.7687  -17.8959   19.6835 C   0  0  0  0  0  0
  -28.5261  -24.1766   20.0775 C   0  0  0  0  0  0
  -28.7859  -22.9235   19.1703 C   0  0  0  0  0  0
  -30.1675  -17.0512   20.9384 C   0  0  0  0  0  0
  -28.6620  -25.5276   19.3109 C   0  0  0  0  0  0
  -26.5122  -21.4921   20.9181 C   0  0  0  0  0  0
  -28.8209  -21.5345   19.7528 N   0  0  0  0  0  0
  -28.1497  -19.6396   20.5463 N   0  3  0  0  0  0
  -29.8622  -15.5966   20.8465 N   0  0  0  0  0  0
  -31.4738  -12.4402   19.1398 H   0  0  0  0  0  0
  -30.3371  -11.3381   19.8705 H   0  0  0  0  0  0
  -29.7394  -11.7415   17.4544 H   0  0  0  0  0  0
  -29.6395  -13.4573   17.7467 H   0  0  0  0  0  0
  -27.8621  -11.2737   18.8894 H   0  0  0  0  0  0
  -27.3557  -12.5430   17.8065 H   0  0  0  0  0  0
  -27.6829  -14.2384   19.5253 H   0  0  0  0  0  0
  -28.6981  -12.0104   21.3640 H   0  0  0  0  0  0
  -28.4629  -13.6643   21.8516 H   0  0  0  0  0  0
  -25.2744   -9.5655   22.4762 H   0  0  0  0  0  0
  -23.9977   -7.4616   22.7473 H   0  0  0  0  0  0
  -21.0831   -8.8746   19.8927 H   0  0  0  0  0  0
  -22.3693  -10.9655   19.6148 H   0  0  0  0  0  0
  -21.2007   -7.6140   23.9707 H   0  0  0  0  0  0
  -21.1510   -6.0529   25.9086 H   0  0  0  0  0  0
  -22.0582   -2.7590   23.2853 H   0  0  0  0  0  0
  -22.4090  -11.9821   22.4737 H   0  0  0  0  0  0
  -21.1130  -13.1228   22.2677 H   0  0  0  0  0  0
  -24.6626  -15.8444   20.4860 H   0  0  0  0  0  0
  -26.2838  -15.6148   20.0697 H   0  0  0  0  0  0
  -26.7078  -32.5500   23.1117 H   0  0  0  0  0  0
  -24.9841  -33.9760   25.0288 H   0  0  0  0  0  0
  -22.6937  -31.3005   21.4010 H   0  0  0  0  0  0
  -23.3723  -35.9764   23.3273 H   0  0  0  0  0  0
  -24.3577  -36.9046   22.2062 H   0  0  0  0  0  0
  -23.7302  -37.6612   23.6694 H   0  0  0  0  0  0
  -26.0220  -31.5737   20.5652 H   0  0  0  0  0  0
  -26.8345  -30.9070   21.9503 H   0  0  0  0  0  0
  -28.0929  -29.0697   21.1816 H   0  0  0  0  0  0
  -26.0349  -25.9563   18.9985 H   0  0  0  0  0  0
  -23.9937  -27.2936   19.0038 H   0  0  0  0  0  0
  -23.6964  -30.5786   19.3897 H   0  0  0  0  0  0
  -22.7396  -29.2153   19.8823 H   0  0  0  0  0  0
  -25.1274  -36.1993   25.0837 H   0  0  0  0  0  0
  -20.9947  -28.3269   24.1438 H   0  0  0  0  0  0
  -20.5638  -26.2282   23.3613 H   0  0  0  0  0  0
  -21.6619  -26.7437   22.1222 H   0  0  0  0  0  0
  -19.6911  -25.6302   21.1245 H   0  0  0  0  0  0
  -19.6709  -27.3198   20.6735 H   0  0  0  0  0  0
  -17.4164  -26.6660   21.4030 H   0  0  0  0  0  0
  -18.0326  -26.0096   22.9026 H   0  0  0  0  0  0
  -19.7927  -30.7233   24.2340 H   0  0  0  0  0  0
  -17.5014  -31.6291   24.5159 H   0  0  0  0  0  0
  -15.5346  -30.3040   23.7638 H   0  0  0  0  0  0
  -15.8627  -28.0876   22.7052 H   0  0  0  0  0  0
  -24.5850  -30.7071   25.7750 H   0  0  0  0  0  0
  -24.8863  -32.2882   26.4860 H   0  0  0  0  0  0
  -25.8019  -30.8885   27.0172 H   0  0  0  0  0  0
  -26.2730  -29.6830   24.1092 H   0  0  0  0  0  0
  -27.4017  -29.7256   25.4457 H   0  0  0  0  0  0
  -27.8566  -30.4376   23.9123 H   0  0  0  0  0  0
  -27.2584  -33.3625   26.2054 H   0  0  0  0  0  0
  -28.3797  -32.6888   25.0290 H   0  0  0  0  0  0
  -28.0642  -31.8422   26.5359 H   0  0  0  0  0  0
  -28.2568  -38.0154   24.7480 H   0  0  0  0  0  0
  -28.1126  -36.2674   24.6267 H   0  0  0  0  0  0
  -27.2305  -37.1471   25.8842 H   0  0  0  0  0  0
  -20.9268  -29.8786   21.6976 H   0  0  0  0  0  0
  -26.0199  -38.2892   24.1342 H   0  0  0  0  0  0
  -30.6693  -20.8186   18.8984 H   0  0  0  0  0  0
  -26.6918  -20.7981   22.9671 H   0  0  0  0  0  0
  -25.7440  -19.7059   21.9500 H   0  0  0  0  0  0
  -25.0524  -21.2245   22.5053 H   0  0  0  0  0  0
  -25.8606  -22.1069   18.9292 H   0  0  0  0  0  0
  -24.5564  -21.9982   20.1030 H   0  0  0  0  0  0
  -25.2453  -20.5293   19.4173 H   0  0  0  0  0  0
  -30.5900  -17.8864   18.9670 H   0  0  0  0  0  0
  -28.9382  -17.4047   19.1734 H   0  0  0  0  0  0
  -29.2098  -24.1684   20.9279 H   0  0  0  0  0  0
  -27.5203  -24.1738   20.4776 H   0  0  0  0  0  0
  -29.7399  -23.0694   18.6617 H   0  0  0  0  0  0
  -28.0416  -22.9058   18.3740 H   0  0  0  0  0  0
  -29.6031  -17.4199   21.7939 H   0  0  0  0  0  0
  -31.2181  -17.2175   21.1832 H   0  0  0  0  0  0
  -28.0534  -25.5254   18.4079 H   0  0  0  0  0  0
  -29.6854  -25.6071   18.9441 H   0  0  0  0  0  0
  -26.7040  -22.5001   21.2634 H   0  0  0  0  0  0
  -27.5311  -18.9519   20.9588 H   0  0  0  0  0  0
  -28.9139  -15.3394   21.0737 H   0  0  0  0  0  0
  1 25  1  0  0  0
  1 30  2  0  0  0
  1 84  1  0  0  0
  2  3  1  0  0  0
  2 25  1  0  0  0
  2 85  1  0  0  0
  2 86  1  0  0  0
  3  4  1  0  0  0
  3 87  1  0  0  0
  3 88  1  0  0  0
  4  5  1  0  0  0
  4 89  1  0  0  0
  4 90  1  0  0  0
  5  6  1  0  0  0
  5 26  1  0  0  0
  5 91  1  0  0  0
  6 25  1  0  0  0
  6 92  1  0  0  0
  6 93  1  0  0  0
  7  8  2  0  0  0
  7 26  1  0  0  0
  7 29  1  0  0  0
  8  9  1  0  0  0
  8 22  1  0  0  0
  9 10  1  0  0  0
  9 27  2  0  0  0
 10 11  2  0  0  0
 10 15  1  0  0  0
 11 12  1  0  0  0
 11 94  1  0  0  0
 12 13  2  0  0  0
 12 95  1  0  0  0
 13 14  1  0  0  0
 13 31  1  0  0  0
 14 15  2  0  0  0
 14 96  1  0  0  0
 15 97  1  0  0  0
 16 17  2  0  0  0
 16 21  1  0  0  0
 16 31  1  0  0  0
 17 18  1  0  0  0
 17 98  1  0  0  0
 18 19  2  0  0  0
 18 99  1  0  0  0
 19 20  1  0  0  0
 19 24  1  0  0  0
 20 21  2  0  0  0
 20100  1  0  0  0
 21 23  1  0  0  0
 22 28  1  0  0  0
 22 32  2  0  0  0
 26 27  1  0  0  0
 28101  1  0  0  0
 28102  1  0  0  0
 29103  1  0  0  0
 29104  1  0  0  0
 33 34  1  0  0  0
 33 66  1  0  0  0
 33 70  2  0  0  0
 34 36  1  0  0  0
 34 59  1  0  0  0
 34105  1  0  0  0
 35 44  2  0  0  0
 35 45  1  0  0  0
 35 68  1  0  0  0
 36 56  1  0  0  0
 36106  1  0  0  0
 37 39  1  0  0  0
 37 47  1  0  0  0
 37 66  1  0  0  0
 37107  1  0  0  0
 38 43  2  0  0  0
 38 46  1  0  0  0
 38 47  1  0  0  0
 39 64  1  0  0  0
 39 67  2  0  0  0
 40 52  1  0  0  0
 40 53  2  0  0  0
 40 58  1  0  0  0
 41108  1  0  0  0
 41109  1  0  0  0
 41110  1  0  0  0
 41 48  1  0  0  0
 42 43  1  0  0  0
 42 66  1  0  0  0
 42111  1  0  0  0
 42112  1  0  0  0
 43 44  1  0  0  0
 44113  1  0  0  0
 45 46  2  0  0  0
 45114  1  0  0  0
 46115  1  0  0  0
 47116  1  0  0  0
 47117  1  0  0  0
 48 56  1  0  0  0
 48 65  1  0  0  0
 48118  1  0  0  0
 49 50  1  0  0  0
 49 53  1  0  0  0
 49 64  1  0  0  0
 49119  1  0  0  0
 50 51  1  0  0  0
 50120  1  0  0  0
 50121  1  0  0  0
 51 52  1  0  0  0
 51122  1  0  0  0
 51123  1  0  0  0
 52124  1  0  0  0
 52125  1  0  0  0
 53 54  1  0  0  0
 54 55  2  0  0  0
 54126  1  0  0  0
 55 57  1  0  0  0
 55127  1  0  0  0
 56 69  2  0  0  0
 57 58  2  0  0  0
 57128  1  0  0  0
 58129  1  0  0  0
 59 60  1  0  0  0
 59 61  1  0  0  0
 59 62  1  0  0  0
 60130  1  0  0  0
 60131  1  0  0  0
 60132  1  0  0  0
 61133  1  0  0  0
 61134  1  0  0  0
 61135  1  0  0  0
 62136  1  0  0  0
 62137  1  0  0  0
 62138  1  0  0  0
 63 65  1  0  0  0
 63139  1  0  0  0
 63140  1  0  0  0
 63141  1  0  0  0
 64142  1  0  0  0
 65143  1  0  0  0
 68 80  1  0  0  0
 71 72  2  0  0  0
 71 82  1  0  0  0
 71144  1  0  0  0
 72 76  1  0  0  0
 72 83  1  0  0  0
 73 81  1  0  0  0
 73 82  1  0  0  0
 73 83  2  0  0  0
 74145  1  0  0  0
 74146  1  0  0  0
 74147  1  0  0  0
 74 81  1  0  0  0
 75 81  1  0  0  0
 75148  1  0  0  0
 75149  1  0  0  0
 75150  1  0  0  0
 76 79  1  0  0  0
 76151  1  0  0  0
 76152  1  0  0  0
 77 78  1  0  0  0
 77 80  1  0  0  0
 77153  1  0  0  0
 77154  1  0  0  0
 78 82  1  0  0  0
 78155  1  0  0  0
 78156  1  0  0  0
 79 84  1  0  0  0
 79157  1  0  0  0
 79158  1  0  0  0
 80159  1  0  0  0
 80160  1  0  0  0
 81161  1  0  0  0
 83162  1  0  0  0
 84163  1  0  0  0
M  CHG  1  83   1
M  ISO  4   1 100  68 101  80 101  84 100
M  END
> <chiral flag>
0

> <version>
0

> <s_m_source_file>
/data/baiqing/PycharmProjects/Reinvent-master-3.2/result/LINK_invent/BTK/process_docking_weight1_custom_sum_contain_oxygen_bond_distance_aromatic_linkinvent_7_9_3/rearranged_h_0091.sdf

> <i_m_source_file_index>
62

> <r_mmod_Potential_Energy-OPLS-2005>
-68.7787322998047

> <r_mmod_Stretch_Energy-OPLS-2005>
48.2366905212402

> <r_mmod_Bend_Energy-OPLS-2005>
128.970458984375

> <r_mmod_Torsional_Energy-OPLS-2005>
232.375366210938

> <r_mmod_Improper_Torsional_Energy-OPLS-2005>
7.04277229309082

> <r_mmod_Van_der_Waal_Energy-OPLS-2005>
120.709434509277

> <r_mmod_Electrostatic_Energy-OPLS-2005>
-202.419738769531

> <r_mmod_Solvation_Energy-OPLS-2005>
-426.499237060547

> <b_mmod_Minimization_Converged-OPLS-2005>
0

> <r_mmod_RMS_Derivative-OPLS-2005>
3.24726891517639

$$$$
63
                    3D
 Structure written by MMmdl.
176184  0  0  1  0            999 V2000
  -30.7251  -14.4620   20.5735 C   0  0  0  0  0  0
  -30.4192  -12.3120   19.4180 C   0  0  0  0  0  0
  -29.4899  -12.5082   18.2033 C   0  0  0  0  0  0
  -28.0087  -12.3788   18.6139 C   0  0  0  0  0  0
  -27.6620  -13.2052   19.8825 C   0  0  2  0  0  0
  -28.7075  -12.9580   20.9923 C   0  0  0  0  0  0
  -25.2584  -13.8142   20.5681 C   0  0  0  0  0  0
  -24.1834  -13.0440   20.9204 C   0  0  0  0  0  0
  -24.6387  -11.6905   20.8769 C   0  0  0  0  0  0
  -23.9053  -10.4296   21.0424 C   0  0  0  0  0  0
  -24.3607   -9.4210   21.9199 C   0  0  0  0  0  0
  -23.6290   -8.2241   22.0749 C   0  0  0  0  0  0
  -22.4277   -8.0276   21.3534 C   0  0  0  0  0  0
  -21.9908   -9.0257   20.4645 C   0  0  0  0  0  0
  -22.7226  -10.2144   20.3068 C   0  0  0  0  0  0
  -21.6847   -6.0735   22.5275 C   0  0  0  0  0  0
  -21.4017   -6.5638   23.8210 C   0  0  0  0  0  0
  -21.3665   -5.6787   24.9171 C   0  0  0  0  0  0
  -21.6045   -4.3051   24.7218 C   0  0  0  0  0  0
  -21.8821   -3.8144   23.4339 C   0  0  0  0  0  0
  -21.9201   -4.6964   22.3399 C   0  0  0  0  0  0
  -22.7867  -13.5258   21.1870 C   0  0  0  0  0  0
  -22.1662   -4.2153   21.0974 F   0  0  0  0  0  0
  -21.5640   -3.4536   25.7731 F   0  0  0  0  0  0
  -30.0240  -13.2999   20.4364 N   0  0  0  0  0  0
  -26.3033  -12.9323   20.3431 N   0  0  0  0  0  0
  -25.9319  -11.6488   20.5820 N   0  0  0  0  0  0
  -22.0496  -12.8264   22.0424 N   0  0  0  0  0  0
  -25.4291  -15.1838   20.3984 N   0  0  0  0  0  0
  -31.8666  -14.5949   20.1333 O   0  0  0  0  0  0
  -21.6635   -6.8878   21.4234 O   0  0  0  0  0  0
  -22.3556  -14.5562   20.6702 O   0  0  0  0  0  0
  -24.6121  -31.8686   23.2118 C   0  0  0  0  0  0
  -25.9022  -32.4828   23.8406 C   0  0  1  0  0  0
  -27.2313  -27.4473   20.1033 C   0  0  0  0  0  0
  -25.5896  -33.8633   24.2348 N   0  0  0  0  0  0
  -23.4013  -30.4897   21.5512 C   0  0  2  0  0  0
  -24.8491  -28.9542   20.1173 C   0  0  0  0  0  0
  -22.7408  -29.4643   22.5003 C   0  0  0  0  0  0
  -18.0279  -28.1383   22.8492 C   0  0  0  0  0  0
  -24.1483  -36.7314   23.2639 C   0  0  0  0  0  0
  -25.9267  -30.8357   21.3646 C   0  0  0  0  0  0
  -26.0049  -29.4680   20.7203 C   0  0  0  0  0  0
  -27.2014  -28.7186   20.7160 C   0  0  0  0  0  0
  -26.0677  -26.9436   19.4904 C   0  0  0  0  0  0
  -24.8730  -27.6896   19.5020 C   0  0  0  0  0  0
  -23.6104  -29.8195   20.1661 C   0  0  0  0  0  0
  -25.4105  -36.3120   24.0338 C   0  0  1  0  0  0
  -20.5860  -28.3654   23.1330 C   0  0  2  0  0  0
  -20.6768  -26.9394   22.5418 C   0  0  0  0  0  0
  -19.5749  -26.6383   21.5213 C   0  0  0  0  0  0
  -18.1926  -26.7930   22.1625 C   0  0  0  0  0  0
  -19.1526  -28.8835   23.2917 C   0  0  0  0  0  0
  -18.9455  -30.1437   23.8934 C   0  0  0  0  0  0
  -17.6456  -30.6578   24.0580 C   0  0  0  0  0  0
  -25.9032  -34.9480   23.5137 C   0  0  0  0  0  0
  -16.5345  -29.9087   23.6328 C   0  0  0  0  0  0
  -16.7266  -28.6508   23.0339 C   0  0  0  0  0  0
  -26.4468  -31.6594   25.0717 C   0  0  0  0  0  0
  -25.3757  -31.3675   26.1480 C   0  0  0  0  0  0
  -27.0287  -30.3039   24.6063 C   0  0  0  0  0  0
  -27.6059  -32.4300   25.7474 C   0  0  0  0  0  0
  -27.5583  -37.1811   24.8469 C   0  0  0  0  0  0
  -21.4135  -29.3027   22.3742 N   0  0  0  0  0  0
  -26.4299  -37.3791   23.9411 N   0  0  0  0  0  0
  -24.6646  -31.0791   22.1015 N   0  0  0  0  0  0
  -23.4179  -28.8188   23.3047 O   0  0  0  0  0  0
  -28.3889  -26.7132   20.0550 O   0  0  0  0  0  0
  -26.5585  -34.8918   22.4695 O   0  0  0  0  0  0
  -23.5312  -32.1435   23.7513 O   0  0  0  0  0  0
  -28.5781  -20.9001   21.4485 C   0  0  0  0  0  0
  -26.4273  -21.7843   22.1194 C   0  0  0  0  0  0
  -27.7877  -22.0091   21.8281 C   0  0  0  0  0  0
  -27.9767  -19.6257   21.3743 C   0  0  0  0  0  0
  -25.9125  -20.4764   22.0210 C   0  0  0  0  0  0
  -22.5446  -17.7988   23.3154 C   0  0  0  0  0  0
  -23.8160  -17.7838   25.4641 C   0  0  0  0  0  0
  -24.9823  -17.1881   23.3441 C   0  0  0  0  0  0
  -28.3911  -23.4009   21.9893 C   0  0  0  0  0  0
  -28.7473  -18.3686   20.9874 C   0  0  0  0  0  0
  -24.4654  -20.1606   22.3700 C   0  0  0  0  0  0
  -27.9593  -24.4225   20.9141 C   0  0  0  0  0  0
  -29.0904  -17.4601   22.1930 C   0  0  0  0  0  0
  -24.2855  -19.6066   23.8064 C   0  0  0  0  0  0
  -29.1059  -15.9440   21.8844 C   0  0  0  0  0  0
  -28.5809  -25.8184   21.1524 C   0  0  0  0  0  0
  -23.9112  -18.1049   23.9600 C   0  0  0  0  0  0
  -26.6720  -19.4295   21.6452 N   0  0  0  0  0  0
  -30.0572  -15.6024   20.8284 N   0  0  0  0  0  0
  -31.4623  -12.4090   19.1116 H   0  0  0  0  0  0
  -30.3256  -11.3004   19.8143 H   0  0  0  0  0  0
  -29.7268  -11.7808   17.4251 H   0  0  0  0  0  0
  -29.6623  -13.4927   17.7651 H   0  0  0  0  0  0
  -27.8048  -11.3227   18.7960 H   0  0  0  0  0  0
  -27.3632  -12.6740   17.7862 H   0  0  0  0  0  0
  -27.7129  -14.2576   19.6025 H   0  0  0  0  0  0
  -28.6960  -11.9059   21.2808 H   0  0  0  0  0  0
  -28.4728  -13.4872   21.9112 H   0  0  0  0  0  0
  -25.2751   -9.5700   22.4776 H   0  0  0  0  0  0
  -24.0012   -7.4633   22.7461 H   0  0  0  0  0  0
  -21.0841   -8.8774   19.8947 H   0  0  0  0  0  0
  -22.3678  -10.9694   19.6189 H   0  0  0  0  0  0
  -21.1990   -7.6142   23.9713 H   0  0  0  0  0  0
  -21.1493   -6.0513   25.9077 H   0  0  0  0  0  0
  -22.0597   -2.7606   23.2830 H   0  0  0  0  0  0
  -22.4084  -11.9925   22.4839 H   0  0  0  0  0  0
  -21.1111  -13.1297   22.2590 H   0  0  0  0  0  0
  -24.6708  -15.8409   20.5360 H   0  0  0  0  0  0
  -26.2866  -15.6248   20.0923 H   0  0  0  0  0  0
  -26.7092  -32.5540   23.1173 H   0  0  0  0  0  0
  -25.0062  -33.9813   25.0501 H   0  0  0  0  0  0
  -22.6882  -31.3050   21.4118 H   0  0  0  0  0  0
  -23.3740  -35.9655   23.3317 H   0  0  0  0  0  0
  -24.3582  -36.8909   22.2054 H   0  0  0  0  0  0
  -23.7238  -37.6527   23.6635 H   0  0  0  0  0  0
  -26.0349  -31.5975   20.5915 H   0  0  0  0  0  0
  -26.8169  -30.8937   21.9795 H   0  0  0  0  0  0
  -28.0976  -29.1117   21.1759 H   0  0  0  0  0  0
  -26.0868  -25.9771   19.0053 H   0  0  0  0  0  0
  -23.9850  -27.2922   19.0292 H   0  0  0  0  0  0
  -23.7174  -30.5929   19.4048 H   0  0  0  0  0  0
  -22.7350  -29.2375   19.8721 H   0  0  0  0  0  0
  -25.1282  -36.1997   25.0830 H   0  0  0  0  0  0
  -20.9954  -28.3207   24.1448 H   0  0  0  0  0  0
  -20.5674  -26.2254   23.3597 H   0  0  0  0  0  0
  -21.6635  -26.7440   22.1200 H   0  0  0  0  0  0
  -19.6896  -25.6295   21.1240 H   0  0  0  0  0  0
  -19.6700  -27.3199   20.6747 H   0  0  0  0  0  0
  -17.4199  -26.6676   21.4021 H   0  0  0  0  0  0
  -18.0333  -26.0069   22.9021 H   0  0  0  0  0  0
  -19.7929  -30.7246   24.2315 H   0  0  0  0  0  0
  -17.5011  -31.6246   24.5209 H   0  0  0  0  0  0
  -15.5348  -30.2992   23.7650 H   0  0  0  0  0  0
  -15.8666  -28.0840   22.7027 H   0  0  0  0  0  0
  -24.5935  -30.7015   25.7818 H   0  0  0  0  0  0
  -24.8943  -32.2818   26.4961 H   0  0  0  0  0  0
  -25.8140  -30.8827   27.0217 H   0  0  0  0  0  0
  -26.2808  -29.6808   24.1142 H   0  0  0  0  0  0
  -27.4100  -29.7265   25.4498 H   0  0  0  0  0  0
  -27.8627  -30.4369   23.9167 H   0  0  0  0  0  0
  -27.2697  -33.3592   26.2092 H   0  0  0  0  0  0
  -28.3850  -32.6877   25.0284 H   0  0  0  0  0  0
  -28.0749  -31.8395   26.5360 H   0  0  0  0  0  0
  -28.2614  -38.0095   24.7509 H   0  0  0  0  0  0
  -28.1069  -36.2632   24.6309 H   0  0  0  0  0  0
  -27.2305  -37.1477   25.8873 H   0  0  0  0  0  0
  -20.9293  -29.8770   21.6983 H   0  0  0  0  0  0
  -26.0192  -38.2874   24.1398 H   0  0  0  0  0  0
  -29.6318  -21.0192   21.2333 H   0  0  0  0  0  0
  -25.7913  -22.6017   22.4327 H   0  0  0  0  0  0
  -22.2576  -16.7578   23.4745 H   0  0  0  0  0  0
  -22.5493  -17.9593   22.2376 H   0  0  0  0  0  0
  -21.7545  -18.4214   23.7367 H   0  0  0  0  0  0
  -23.5355  -16.7432   25.6363 H   0  0  0  0  0  0
  -23.0711  -18.4064   25.9617 H   0  0  0  0  0  0
  -24.7689  -17.9497   25.9686 H   0  0  0  0  0  0
  -24.7606  -16.1343   23.5194 H   0  0  0  0  0  0
  -25.9689  -17.3902   23.7626 H   0  0  0  0  0  0
  -25.0527  -17.3212   22.2649 H   0  0  0  0  0  0
  -29.4785  -23.3174   22.0003 H   0  0  0  0  0  0
  -28.1152  -23.7749   22.9759 H   0  0  0  0  0  0
  -29.6568  -18.6400   20.4511 H   0  0  0  0  0  0
  -28.1325  -17.8187   20.2734 H   0  0  0  0  0  0
  -24.0595  -19.4822   21.6205 H   0  0  0  0  0  0
  -23.8845  -21.0773   22.2665 H   0  0  0  0  0  0
  -26.8720  -24.5040   20.8994 H   0  0  0  0  0  0
  -28.2555  -24.0533   19.9320 H   0  0  0  0  0  0
  -28.3402  -17.6124   22.9708 H   0  0  0  0  0  0
  -30.0323  -17.7835   22.6382 H   0  0  0  0  0  0
  -23.4989  -20.1941   24.2819 H   0  0  0  0  0  0
  -25.1821  -19.8291   24.3874 H   0  0  0  0  0  0
  -28.1026  -15.6470   21.5807 H   0  0  0  0  0  0
  -29.3483  -15.3931   22.7944 H   0  0  0  0  0  0
  -29.6580  -25.7147   21.2858 H   0  0  0  0  0  0
  -28.2017  -26.2537   22.0798 H   0  0  0  0  0  0
  -30.5978  -16.3990   20.5259 H   0  0  0  0  0  0
  1 25  1  0  0  0
  1 30  2  0  0  0
  1 89  1  0  0  0
  2  3  1  0  0  0
  2 25  1  0  0  0
  2 90  1  0  0  0
  2 91  1  0  0  0
  3  4  1  0  0  0
  3 92  1  0  0  0
  3 93  1  0  0  0
  4  5  1  0  0  0
  4 94  1  0  0  0
  4 95  1  0  0  0
  5  6  1  0  0  0
  5 26  1  0  0  0
  5 96  1  0  0  0
  6 25  1  0  0  0
  6 97  1  0  0  0
  6 98  1  0  0  0
  7  8  2  0  0  0
  7 26  1  0  0  0
  7 29  1  0  0  0
  8  9  1  0  0  0
  8 22  1  0  0  0
  9 10  1  0  0  0
  9 27  2  0  0  0
 10 11  2  0  0  0
 10 15  1  0  0  0
 11 12  1  0  0  0
 11 99  1  0  0  0
 12 13  2  0  0  0
 12100  1  0  0  0
 13 14  1  0  0  0
 13 31  1  0  0  0
 14 15  2  0  0  0
 14101  1  0  0  0
 15102  1  0  0  0
 16 17  2  0  0  0
 16 21  1  0  0  0
 16 31  1  0  0  0
 17 18  1  0  0  0
 17103  1  0  0  0
 18 19  2  0  0  0
 18104  1  0  0  0
 19 20  1  0  0  0
 19 24  1  0  0  0
 20 21  2  0  0  0
 20105  1  0  0  0
 21 23  1  0  0  0
 22 28  1  0  0  0
 22 32  2  0  0  0
 26 27  1  0  0  0
 28106  1  0  0  0
 28107  1  0  0  0
 29108  1  0  0  0
 29109  1  0  0  0
 33 34  1  0  0  0
 33 66  1  0  0  0
 33 70  2  0  0  0
 34 36  1  0  0  0
 34 59  1  0  0  0
 34110  1  0  0  0
 35 44  2  0  0  0
 35 45  1  0  0  0
 35 68  1  0  0  0
 36 56  1  0  0  0
 36111  1  0  0  0
 37 39  1  0  0  0
 37 47  1  0  0  0
 37 66  1  0  0  0
 37112  1  0  0  0
 38 43  2  0  0  0
 38 46  1  0  0  0
 38 47  1  0  0  0
 39 64  1  0  0  0
 39 67  2  0  0  0
 40 52  1  0  0  0
 40 53  2  0  0  0
 40 58  1  0  0  0
 41113  1  0  0  0
 41114  1  0  0  0
 41115  1  0  0  0
 41 48  1  0  0  0
 42 43  1  0  0  0
 42 66  1  0  0  0
 42116  1  0  0  0
 42117  1  0  0  0
 43 44  1  0  0  0
 44118  1  0  0  0
 45 46  2  0  0  0
 45119  1  0  0  0
 46120  1  0  0  0
 47121  1  0  0  0
 47122  1  0  0  0
 48 56  1  0  0  0
 48 65  1  0  0  0
 48123  1  0  0  0
 49 50  1  0  0  0
 49 53  1  0  0  0
 49 64  1  0  0  0
 49124  1  0  0  0
 50 51  1  0  0  0
 50125  1  0  0  0
 50126  1  0  0  0
 51 52  1  0  0  0
 51127  1  0  0  0
 51128  1  0  0  0
 52129  1  0  0  0
 52130  1  0  0  0
 53 54  1  0  0  0
 54 55  2  0  0  0
 54131  1  0  0  0
 55 57  1  0  0  0
 55132  1  0  0  0
 56 69  2  0  0  0
 57 58  2  0  0  0
 57133  1  0  0  0
 58134  1  0  0  0
 59 60  1  0  0  0
 59 61  1  0  0  0
 59 62  1  0  0  0
 60135  1  0  0  0
 60136  1  0  0  0
 60137  1  0  0  0
 61138  1  0  0  0
 61139  1  0  0  0
 61140  1  0  0  0
 62141  1  0  0  0
 62142  1  0  0  0
 62143  1  0  0  0
 63 65  1  0  0  0
 63144  1  0  0  0
 63145  1  0  0  0
 63146  1  0  0  0
 64147  1  0  0  0
 65148  1  0  0  0
 68 86  1  0  0  0
 71 73  2  0  0  0
 71 74  1  0  0  0
 71149  1  0  0  0
 72 73  1  0  0  0
 72 75  2  0  0  0
 72150  1  0  0  0
 73 79  1  0  0  0
 74 80  1  0  0  0
 74 88  2  0  0  0
 75 81  1  0  0  0
 75 88  1  0  0  0
 76151  1  0  0  0
 76152  1  0  0  0
 76153  1  0  0  0
 76 87  1  0  0  0
 77 87  1  0  0  0
 77154  1  0  0  0
 77155  1  0  0  0
 77156  1  0  0  0
 78 87  1  0  0  0
 78157  1  0  0  0
 78158  1  0  0  0
 78159  1  0  0  0
 79 82  1  0  0  0
 79160  1  0  0  0
 79161  1  0  0  0
 80 83  1  0  0  0
 80162  1  0  0  0
 80163  1  0  0  0
 81 84  1  0  0  0
 81164  1  0  0  0
 81165  1  0  0  0
 82 86  1  0  0  0
 82166  1  0  0  0
 82167  1  0  0  0
 83 85  1  0  0  0
 83168  1  0  0  0
 83169  1  0  0  0
 84 87  1  0  0  0
 84170  1  0  0  0
 84171  1  0  0  0
 85 89  1  0  0  0
 85172  1  0  0  0
 85173  1  0  0  0
 86174  1  0  0  0
 86175  1  0  0  0
 89176  1  0  0  0
M  ISO  4   1 100  68 101  86 101  89 100
M  END
> <chiral flag>
0

> <version>
0

> <s_m_source_file>
/data/baiqing/PycharmProjects/Reinvent-master-3.2/result/LINK_invent/BTK/process_docking_weight1_custom_sum_contain_oxygen_bond_distance_aromatic_linkinvent_7_9_3/rearranged_h_0091.sdf

> <i_m_source_file_index>
63

> <r_mmod_Potential_Energy-OPLS-2005>
-182.29133605957

> <r_mmod_Stretch_Energy-OPLS-2005>
34.965404510498

> <r_mmod_Bend_Energy-OPLS-2005>
121.331214904785

> <r_mmod_Torsional_Energy-OPLS-2005>
278.682006835938

> <r_mmod_Improper_Torsional_Energy-OPLS-2005>
12.9370031356812

> <r_mmod_Van_der_Waal_Energy-OPLS-2005>
132.543899536133

> <r_mmod_Electrostatic_Energy-OPLS-2005>
-581.082214355469

> <r_mmod_Solvation_Energy-OPLS-2005>
-193.774230957031

> <b_mmod_Minimization_Converged-OPLS-2005>
0

> <r_mmod_RMS_Derivative-OPLS-2005>
1.41270542144775

$$$$
64
                    3D
 Structure written by MMmdl.
175183  0  0  1  0            999 V2000
  -30.0865  -16.7200   20.0173 C   0  0  0  0  0  0
  -30.3393  -13.8907   19.3988 C   0  0  0  0  0  0
  -29.5813  -12.9652   18.3617 C   0  0  0  0  0  0
  -28.2623  -12.4124   18.8988 C   0  0  0  0  0  0
  -27.5970  -13.4726   19.7822 C   0  0  2  0  0  0
  -28.5699  -14.2966   20.7329 C   0  0  0  0  0  0
  -25.2311  -13.8621   20.6007 C   0  0  0  0  0  0
  -24.1813  -13.0546   20.9365 C   0  0  0  0  0  0
  -24.6719  -11.7127   20.8726 C   0  0  0  0  0  0
  -23.9395  -10.4368   21.0303 C   0  0  0  0  0  0
  -24.3821   -9.4257   21.9131 C   0  0  0  0  0  0
  -23.6412   -8.2331   22.0741 C   0  0  0  0  0  0
  -22.4386   -8.0369   21.3544 C   0  0  0  0  0  0
  -22.0085   -9.0365   20.4637 C   0  0  0  0  0  0
  -22.7498  -10.2209   20.3007 C   0  0  0  0  0  0
  -21.6897   -6.0795   22.5276 C   0  0  0  0  0  0
  -21.4039   -6.5669   23.8217 C   0  0  0  0  0  0
  -21.3670   -5.6810   24.9170 C   0  0  0  0  0  0
  -21.6045   -4.3071   24.7210 C   0  0  0  0  0  0
  -21.8814   -3.8177   23.4321 C   0  0  0  0  0  0
  -21.9200   -4.7011   22.3387 C   0  0  0  0  0  0
  -22.7735  -13.5099   21.1946 C   0  0  0  0  0  0
  -22.1663   -4.2184   21.0970 F   0  0  0  0  0  0
  -21.5626   -3.4545   25.7723 F   0  0  0  0  0  0
  -29.5667  -15.1956   19.9356 N   0  0  0  0  0  0
  -26.3082  -13.0353   20.3533 N   0  0  0  0  0  0
  -25.9762  -11.7217   20.5627 N   0  0  0  0  0  0
  -22.0426  -12.8027   22.0483 N   0  0  0  0  0  0
  -25.3579  -15.2385   20.4398 N   0  0  0  0  0  0
  -31.3046  -16.3782   20.1566 O   0  0  0  0  0  0
  -21.6705   -6.8975   21.4251 O   0  0  0  0  0  0
  -22.3319  -14.5353   20.6763 O   0  0  0  0  0  0
  -24.7987  -31.6940   22.9984 C   0  0  0  0  0  0
  -25.9888  -32.4013   23.7315 C   0  0  1  0  0  0
  -27.1433  -25.4516   21.4438 C   0  0  0  0  0  0
  -25.5983  -33.7793   24.1304 N   0  0  0  0  0  0
  -23.7092  -30.2505   21.2765 C   0  0  2  0  0  0
  -25.1925  -28.6437   19.2480 C   0  0  0  0  0  0
  -22.8190  -29.4408   22.3644 C   0  0  0  0  0  0
  -18.0044  -28.2198   22.8529 C   0  0  0  0  0  0
  -24.1465  -36.7004   23.2715 C   0  0  0  0  0  0
  -26.3600  -30.4700   21.2089 C   0  0  0  0  0  0
  -26.7642  -29.0577   20.4153 C   0  0  0  0  0  0
  -27.9148  -27.5935   21.4435 C   0  0  0  0  0  0
  -25.4185  -24.9619   19.9953 C   0  0  0  0  0  0
  -24.5707  -26.7163   18.7829 C   0  0  0  0  0  0
  -24.0111  -29.6652   19.7416 C   0  0  0  0  0  0
  -25.4149  -36.2638   24.0249 C   0  0  1  0  0  0
  -20.5666  -28.5282   23.1646 C   0  0  2  0  0  0
  -20.5486  -27.0328   22.8633 C   0  0  0  0  0  0
  -19.5686  -26.6344   21.7315 C   0  0  0  0  0  0
  -18.1508  -26.8629   22.1890 C   0  0  0  0  0  0
  -19.1224  -29.0047   23.2758 C   0  0  0  0  0  0
  -18.8928  -30.2491   23.8873 C   0  0  0  0  0  0
  -17.5826  -30.7218   24.0686 C   0  0  0  0  0  0
  -25.9181  -34.9059   23.4736 C   0  0  0  0  0  0
  -16.4874  -29.9503   23.6473 C   0  0  0  0  0  0
  -16.6978  -28.7009   23.0462 C   0  0  0  0  0  0
  -26.4709  -31.6233   25.0209 C   0  0  0  0  0  0
  -25.3517  -31.3645   26.0603 C   0  0  0  0  0  0
  -27.0667  -30.2566   24.6223 C   0  0  0  0  0  0
  -27.6023  -32.4106   25.7251 C   0  0  0  0  0  0
  -27.5526  -37.1640   24.8470 C   0  0  0  0  0  0
  -21.4580  -29.3611   22.2975 N   0  0  0  0  0  0
  -26.4228  -37.3485   23.9411 N   0  0  0  0  0  0
  -24.9755  -30.8272   21.8935 N   0  0  0  0  0  0
  -23.3903  -28.8721   23.2999 O   0  0  0  0  0  0
  -27.9020  -24.3842   21.4785 O   0  0  0  0  0  0
  -26.5941  -34.8874   22.4440 O   0  0  0  0  0  0
  -23.6784  -31.9921   23.4653 O   0  0  0  0  0  0
  -28.3486  -26.3613   18.7710 C   0  0  0  0  0  0
  -28.1887  -25.1113   19.2592 C   0  0  0  0  0  0
  -27.0432  -26.6610   19.5876 C   0  0  0  0  0  0
  -25.8763  -26.9712   20.4874 C   0  0  0  0  0  0
  -25.6878  -27.2803   21.5118 C   0  0  0  0  0  0
  -21.7702  -26.5791   18.9710 C   0  0  0  0  0  0
  -23.5534  -25.5391   22.2995 C   0  0  0  0  0  0
  -30.4993  -20.7705   20.8614 C   0  0  0  0  0  0
  -29.1171  -22.9006   19.2898 C   0  0  0  0  0  0
  -22.4010  -26.9614   20.3472 C   0  0  0  0  0  0
  -26.3849  -23.6770   17.9241 C   0  0  0  0  0  0
  -26.5577  -22.7426   19.3541 C   0  0  0  0  0  0
  -26.4522  -25.3609   17.6214 C   0  0  0  0  0  0
  -27.0555  -23.1942   20.9574 C   0  0  0  0  0  0
  -23.7611  -26.4059   20.9977 C   0  0  1  0  0  0
  -29.2912  -20.5642   19.9406 C   0  0  1  0  0  0
  -26.8839  -26.4669   18.9141 N   0  0  0  0  0  0
  -29.5745  -18.4373   19.6914 N   0  0  0  0  0  0
  -31.2154  -14.2584   18.8617 H   0  0  0  0  0  0
  -30.7678  -13.3037   20.2166 H   0  0  0  0  0  0
  -30.2253  -12.1494   18.0356 H   0  0  0  0  0  0
  -29.3822  -13.5641   17.4756 H   0  0  0  0  0  0
  -28.4709  -11.5268   19.5011 H   0  0  0  0  0  0
  -27.6082  -12.1000   18.0872 H   0  0  0  0  0  0
  -27.3017  -14.2229   19.0473 H   0  0  0  0  0  0
  -29.0410  -13.6628   21.4878 H   0  0  0  0  0  0
  -27.9627  -14.9963   21.3085 H   0  0  0  0  0  0
  -25.2948   -9.5703   22.4730 H   0  0  0  0  0  0
  -24.0079   -7.4734   22.7481 H   0  0  0  0  0  0
  -21.1009   -8.8934   19.8946 H   0  0  0  0  0  0
  -22.3958  -10.9753   19.6114 H   0  0  0  0  0  0
  -21.2041   -7.6173   23.9732 H   0  0  0  0  0  0
  -21.1494   -6.0531   25.9076 H   0  0  0  0  0  0
  -22.0577   -2.7632   23.2818 H   0  0  0  0  0  0
  -22.4112  -11.9744   22.4907 H   0  0  0  0  0  0
  -21.1005  -13.0947   22.2648 H   0  0  0  0  0  0
  -24.5783  -15.8797   20.5421 H   0  0  0  0  0  0
  -26.2096  -15.6930   20.1366 H   0  0  0  0  0  0
  -26.8292  -32.4654   23.0405 H   0  0  0  0  0  0
  -24.9863  -33.8490   24.9285 H   0  0  0  0  0  0
  -23.0765  -31.1192   21.0803 H   0  0  0  0  0  0
  -23.3741  -35.9322   23.3292 H   0  0  0  0  0  0
  -24.3511  -36.8804   22.2156 H   0  0  0  0  0  0
  -23.7225  -37.6140   23.6906 H   0  0  0  0  0  0
  -26.5263  -31.2509   20.4673 H   0  0  0  0  0  0
  -27.1658  -30.6143   21.9239 H   0  0  0  0  0  0
  -28.7551  -27.8873   22.0532 H   0  0  0  0  0  0
  -24.8412  -24.0515   19.9566 H   0  0  0  0  0  0
  -23.8713  -26.5560   17.9863 H   0  0  0  0  0  0
  -24.2692  -30.5588   19.1725 H   0  0  0  0  0  0
  -23.0828  -29.3826   19.2566 H   0  0  0  0  0  0
  -25.1399  -36.1308   25.0740 H   0  0  0  0  0  0
  -20.9740  -28.6254   24.1719 H   0  0  0  0  0  0
  -20.2259  -26.5113   23.7674 H   0  0  0  0  0  0
  -21.5701  -26.7440   22.7951 H   0  0  0  0  0  0
  -19.6978  -25.5916   21.4393 H   0  0  0  0  0  0
  -19.7329  -27.2653   20.8606 H   0  0  0  0  0  0
  -17.4754  -26.8025   21.3345 H   0  0  0  0  0  0
  -17.8471  -26.0919   22.8978 H   0  0  0  0  0  0
  -19.7263  -30.8504   24.2266 H   0  0  0  0  0  0
  -17.4114  -31.6772   24.5404 H   0  0  0  0  0  0
  -15.4803  -30.3128   23.7873 H   0  0  0  0  0  0
  -15.8504  -28.1122   22.7250 H   0  0  0  0  0  0
  -24.5703  -30.7151   25.6633 H   0  0  0  0  0  0
  -24.8742  -32.2906   26.3799 H   0  0  0  0  0  0
  -25.7387  -30.8758   26.9544 H   0  0  0  0  0  0
  -26.3542  -29.6270   24.0894 H   0  0  0  0  0  0
  -27.3758  -29.6890   25.5011 H   0  0  0  0  0  0
  -27.9521  -30.3673   23.9950 H   0  0  0  0  0  0
  -27.2503  -33.3503   26.1490 H   0  0  0  0  0  0
  -28.4102  -32.6487   25.0325 H   0  0  0  0  0  0
  -28.0382  -31.8386   26.5448 H   0  0  0  0  0  0
  -28.2495  -37.9966   24.7467 H   0  0  0  0  0  0
  -28.1046  -36.2484   24.6335 H   0  0  0  0  0  0
  -27.2235  -37.1322   25.8865 H   0  0  0  0  0  0
  -21.0055  -29.8810   21.5619 H   0  0  0  0  0  0
  -26.0009  -38.2512   24.1427 H   0  0  0  0  0  0
  -28.9534  -26.5659   17.8958 H   0  0  0  0  0  0
  -25.5676  -26.6447   22.4784 H   0  0  0  0  0  0
  -24.9735  -28.1922   21.7191 H   0  0  0  0  0  0
  -26.0329  -27.8653   22.4223 H   0  0  0  0  0  0
  -20.6850  -26.5896   19.0112 H   0  0  0  0  0  0
  -22.0481  -25.5795   18.6284 H   0  0  0  0  0  0
  -22.0110  -27.3011   18.1920 H   0  0  0  0  0  0
  -22.6040  -24.9982   22.3074 H   0  0  0  0  0  0
  -23.6204  -26.1229   23.2150 H   0  0  0  0  0  0
  -24.3105  -24.7577   22.3697 H   0  0  0  0  0  0
  -30.4188  -21.6919   21.4352 H   0  0  0  0  0  0
  -31.4106  -20.8320   20.2648 H   0  0  0  0  0  0
  -30.6205  -19.9486   21.5673 H   0  0  0  0  0  0
  -30.1441  -23.1944   19.5266 H   0  0  0  0  0  0
  -29.1502  -22.7676   18.2048 H   0  0  0  0  0  0
  -21.6992  -26.3684   20.8635 H   0  0  0  0  0  0
  -22.1675  -27.9833   20.4852 H   0  0  0  0  0  0
  -27.0511  -23.2281   17.1877 H   0  0  0  0  0  0
  -25.4101  -23.3959   17.5304 H   0  0  0  0  0  0
  -27.0330  -21.8068   19.0593 H   0  0  0  0  0  0
  -25.5954  -22.2483   19.4906 H   0  0  0  0  0  0
  -25.6128  -25.6694   16.9973 H   0  0  0  0  0  0
  -27.2088  -25.4649   16.8434 H   0  0  0  0  0  0
  -27.5733  -22.3267   21.3589 H   0  0  0  0  0  0
  -26.1718  -23.1541   21.5923 H   0  0  0  0  0  0
  -23.3953  -25.5172   20.4759 H   0  0  0  0  0  0
  -28.4047  -20.4698   20.5662 H   0  0  0  0  0  0
  -30.2384  -18.5161   18.9319 H   0  0  0  0  0  0
  1 25  1  0  0  0
  1 30  2  0  0  0
  1 88  1  0  0  0
  2  3  1  0  0  0
  2 25  1  0  0  0
  2 89  1  0  0  0
  2 90  1  0  0  0
  3  4  1  0  0  0
  3 91  1  0  0  0
  3 92  1  0  0  0
  4  5  1  0  0  0
  4 93  1  0  0  0
  4 94  1  0  0  0
  5  6  1  0  0  0
  5 26  1  0  0  0
  5 95  1  0  0  0
  6 25  1  0  0  0
  6 96  1  0  0  0
  6 97  1  0  0  0
  7  8  2  0  0  0
  7 26  1  0  0  0
  7 29  1  0  0  0
  8  9  1  0  0  0
  8 22  1  0  0  0
  9 10  1  0  0  0
  9 27  2  0  0  0
 10 11  2  0  0  0
 10 15  1  0  0  0
 11 12  1  0  0  0
 11 98  1  0  0  0
 12 13  2  0  0  0
 12 99  1  0  0  0
 13 14  1  0  0  0
 13 31  1  0  0  0
 14 15  2  0  0  0
 14100  1  0  0  0
 15101  1  0  0  0
 16 17  2  0  0  0
 16 21  1  0  0  0
 16 31  1  0  0  0
 17 18  1  0  0  0
 17102  1  0  0  0
 18 19  2  0  0  0
 18103  1  0  0  0
 19 20  1  0  0  0
 19 24  1  0  0  0
 20 21  2  0  0  0
 20104  1  0  0  0
 21 23  1  0  0  0
 22 28  1  0  0  0
 22 32  2  0  0  0
 26 27  1  0  0  0
 28105  1  0  0  0
 28106  1  0  0  0
 29107  1  0  0  0
 29108  1  0  0  0
 33 34  1  0  0  0
 33 66  1  0  0  0
 33 70  2  0  0  0
 34 36  1  0  0  0
 34 59  1  0  0  0
 34109  1  0  0  0
 35 44  2  0  0  0
 35 45  1  0  0  0
 35 68  1  0  0  0
 36 56  1  0  0  0
 36110  1  0  0  0
 37 39  1  0  0  0
 37 47  1  0  0  0
 37 66  1  0  0  0
 37111  1  0  0  0
 38 43  2  0  0  0
 38 46  1  0  0  0
 38 47  1  0  0  0
 39 64  1  0  0  0
 39 67  2  0  0  0
 40 52  1  0  0  0
 40 53  2  0  0  0
 40 58  1  0  0  0
 41112  1  0  0  0
 41113  1  0  0  0
 41114  1  0  0  0
 41 48  1  0  0  0
 42 43  1  0  0  0
 42 66  1  0  0  0
 42115  1  0  0  0
 42116  1  0  0  0
 43 44  1  0  0  0
 44117  1  0  0  0
 45 46  2  0  0  0
 45118  1  0  0  0
 46119  1  0  0  0
 47120  1  0  0  0
 47121  1  0  0  0
 48 56  1  0  0  0
 48 65  1  0  0  0
 48122  1  0  0  0
 49 50  1  0  0  0
 49 53  1  0  0  0
 49 64  1  0  0  0
 49123  1  0  0  0
 50 51  1  0  0  0
 50124  1  0  0  0
 50125  1  0  0  0
 51 52  1  0  0  0
 51126  1  0  0  0
 51127  1  0  0  0
 52128  1  0  0  0
 52129  1  0  0  0
 53 54  1  0  0  0
 54 55  2  0  0  0
 54130  1  0  0  0
 55 57  1  0  0  0
 55131  1  0  0  0
 56 69  2  0  0  0
 57 58  2  0  0  0
 57132  1  0  0  0
 58133  1  0  0  0
 59 60  1  0  0  0
 59 61  1  0  0  0
 59 62  1  0  0  0
 60134  1  0  0  0
 60135  1  0  0  0
 60136  1  0  0  0
 61137  1  0  0  0
 61138  1  0  0  0
 61139  1  0  0  0
 62140  1  0  0  0
 62141  1  0  0  0
 62142  1  0  0  0
 63 65  1  0  0  0
 63143  1  0  0  0
 63144  1  0  0  0
 63145  1  0  0  0
 64146  1  0  0  0
 65147  1  0  0  0
 68 84  1  0  0  0
 71 72  2  0  0  0
 71 87  1  0  0  0
 71148  1  0  0  0
 72 73  1  0  0  0
 72 79  1  0  0  0
 73 74  2  0  0  0
 73 75  1  0  0  0
 74 85  1  0  0  0
 74 87  1  0  0  0
 75149  1  0  0  0
 75150  1  0  0  0
 75151  1  0  0  0
 76 80  1  0  0  0
 76152  1  0  0  0
 76153  1  0  0  0
 76154  1  0  0  0
 77155  1  0  0  0
 77156  1  0  0  0
 77157  1  0  0  0
 77 85  1  0  0  0
 78158  1  0  0  0
 78159  1  0  0  0
 78160  1  0  0  0
 78 86  1  0  0  0
 79 86  1  0  0  0
 79161  1  0  0  0
 79162  1  0  0  0
 80 85  1  0  0  0
 80163  1  0  0  0
 80164  1  0  0  0
 81 82  1  0  0  0
 81 83  1  0  0  0
 81165  1  0  0  0
 81166  1  0  0  0
 82 84  1  0  0  0
 82167  1  0  0  0
 82168  1  0  0  0
 83 87  1  0  0  0
 83169  1  0  0  0
 83170  1  0  0  0
 84171  1  0  0  0
 84172  1  0  0  0
 85173  1  0  0  0
 86 88  1  0  0  0
 86174  1  0  0  0
 88175  1  0  0  0
M  ISO  4   1 100  68 101  84 101  88 100
M  END
> <chiral flag>
0

> <version>
0

> <s_m_source_file>
/data/baiqing/PycharmProjects/Reinvent-master-3.2/result/LINK_invent/BTK/process_docking_weight1_custom_sum_contain_oxygen_bond_distance_aromatic_linkinvent_7_9_3/rearranged_h_0091.sdf

> <i_m_source_file_index>
64

> <r_mmod_Potential_Energy-OPLS-2005>
27922.26171875

> <r_mmod_Stretch_Energy-OPLS-2005>
14028.4384765625

> <r_mmod_Bend_Energy-OPLS-2005>
3868.24365234375

> <r_mmod_Torsional_Energy-OPLS-2005>
721.208740234375

> <r_mmod_Improper_Torsional_Energy-OPLS-2005>
110.58129119873

> <r_mmod_Van_der_Waal_Energy-OPLS-2005>
5189.5361328125

> <r_mmod_Electrostatic_Energy-OPLS-2005>
-345.993591308594

> <r_mmod_Solvation_Energy-OPLS-2005>
-215.877014160156

> <b_mmod_Minimization_Converged-OPLS-2005>
0

> <r_mmod_RMS_Derivative-OPLS-2005>
13.934229850769

$$$$
65
                    3D
 Structure written by MMmdl.
187195  0  0  1  0            999 V2000
  -30.8414  -14.2362   20.8174 C   0  0  0  0  0  0
  -30.4111  -12.3004   19.3549 C   0  0  0  0  0  0
  -29.4654  -12.5423   18.1696 C   0  0  0  0  0  0
  -27.9981  -12.3739   18.6012 C   0  0  0  0  0  0
  -27.6614  -13.1996   19.8671 C   0  0  2  0  0  0
  -28.6956  -12.9496   20.9828 C   0  0  0  0  0  0
  -25.2607  -13.8151   20.5661 C   0  0  0  0  0  0
  -24.1848  -13.0441   20.9155 C   0  0  0  0  0  0
  -24.6396  -11.6901   20.8718 C   0  0  0  0  0  0
  -23.9056  -10.4294   21.0414 C   0  0  0  0  0  0
  -24.3614   -9.4222   21.9189 C   0  0  0  0  0  0
  -23.6301   -8.2248   22.0755 C   0  0  0  0  0  0
  -22.4284   -8.0283   21.3541 C   0  0  0  0  0  0
  -21.9911   -9.0254   20.4646 C   0  0  0  0  0  0
  -22.7234  -10.2142   20.3059 C   0  0  0  0  0  0
  -21.6853   -6.0747   22.5285 C   0  0  0  0  0  0
  -21.4013   -6.5642   23.8216 C   0  0  0  0  0  0
  -21.3659   -5.6796   24.9174 C   0  0  0  0  0  0
  -21.6044   -4.3060   24.7221 C   0  0  0  0  0  0
  -21.8821   -3.8159   23.4342 C   0  0  0  0  0  0
  -21.9196   -4.6981   22.3409 C   0  0  0  0  0  0
  -22.7879  -13.5252   21.1842 C   0  0  0  0  0  0
  -22.1662   -4.2166   21.0984 F   0  0  0  0  0  0
  -21.5629   -3.4543   25.7734 F   0  0  0  0  0  0
  -30.0470  -13.2062   20.4503 N   0  0  0  0  0  0
  -26.3026  -12.9306   20.3314 N   0  0  0  0  0  0
  -25.9306  -11.6472   20.5718 N   0  0  0  0  0  0
  -22.0519  -12.8230   22.0386 N   0  0  0  0  0  0
  -25.4352  -15.1864   20.4096 N   0  0  0  0  0  0
  -31.7593  -14.6909   20.1252 O   0  0  0  0  0  0
  -21.6641   -6.8886   21.4246 O   0  0  0  0  0  0
  -22.3559  -14.5572   20.6718 O   0  0  0  0  0  0
  -24.6068  -31.8715   23.2106 C   0  0  0  0  0  0
  -25.8976  -32.4859   23.8375 C   0  0  1  0  0  0
  -27.2431  -27.4737   20.0851 C   0  0  0  0  0  0
  -25.5854  -33.8646   24.2331 N   0  0  0  0  0  0
  -23.3923  -30.4910   21.5485 C   0  0  2  0  0  0
  -24.8396  -28.9568   20.1131 C   0  0  0  0  0  0
  -22.7369  -29.4647   22.4994 C   0  0  0  0  0  0
  -18.0268  -28.1394   22.8499 C   0  0  0  0  0  0
  -24.1467  -36.7281   23.2645 C   0  0  0  0  0  0
  -25.9136  -30.8490   21.3535 C   0  0  0  0  0  0
  -25.9940  -29.4846   20.7024 C   0  0  0  0  0  0
  -27.1962  -28.7522   20.6789 C   0  0  0  0  0  0
  -26.0672  -26.9426   19.5070 C   0  0  0  0  0  0
  -24.8691  -27.6831   19.5127 C   0  0  0  0  0  0
  -23.5984  -29.8184   20.1639 C   0  0  0  0  0  0
  -25.4090  -36.3134   24.0366 C   0  0  1  0  0  0
  -20.5839  -28.3642   23.1349 C   0  0  2  0  0  0
  -20.6733  -26.9377   22.5437 C   0  0  0  0  0  0
  -19.5726  -26.6391   21.5214 C   0  0  0  0  0  0
  -18.1911  -26.7944   22.1626 C   0  0  0  0  0  0
  -19.1513  -28.8833   23.2924 C   0  0  0  0  0  0
  -18.9448  -30.1447   23.8927 C   0  0  0  0  0  0
  -17.6454  -30.6608   24.0558 C   0  0  0  0  0  0
  -25.9024  -34.9502   23.5148 C   0  0  0  0  0  0
  -16.5337  -29.9125   23.6334 C   0  0  0  0  0  0
  -16.7261  -28.6534   23.0372 C   0  0  0  0  0  0
  -26.4419  -31.6652   25.0710 C   0  0  0  0  0  0
  -25.3722  -31.3740   26.1494 C   0  0  0  0  0  0
  -27.0239  -30.3117   24.6048 C   0  0  0  0  0  0
  -27.6002  -32.4380   25.7459 C   0  0  0  0  0  0
  -27.5565  -37.1798   24.8476 C   0  0  0  0  0  0
  -21.4104  -29.3019   22.3760 N   0  0  0  0  0  0
  -26.4277  -37.3824   23.9435 N   0  0  0  0  0  0
  -24.6542  -31.0851   22.0969 N   0  0  0  0  0  0
  -23.4171  -28.8211   23.3034 O   0  0  0  0  0  0
  -28.4552  -26.8277   20.0749 O   0  0  0  0  0  0
  -26.5598  -34.8961   22.4729 O   0  0  0  0  0  0
  -23.5286  -32.1430   23.7575 O   0  0  0  0  0  0
  -30.8042  -18.6274   21.9377 C   0  0  0  0  0  0
  -31.5411  -17.5281   22.3079 C   0  0  0  0  0  0
  -32.5973  -18.5619   20.6263 C   0  0  0  0  0  0
  -35.7859  -16.5431   17.2675 C   0  0  0  0  0  0
  -35.3374  -19.0147   17.0068 C   0  0  0  0  0  0
  -31.8500  -21.7622   22.5655 C   0  0  0  0  0  0
  -29.9850  -16.6254   24.0485 C   0  0  0  0  0  0
  -32.4190  -16.9618   24.5245 C   0  0  0  0  0  0
  -33.6708  -18.8684   19.6225 C   0  0  0  0  0  0
  -34.0781  -17.6477   18.7744 C   0  0  0  0  0  0
  -30.1520  -23.4898   20.3752 C   0  0  0  0  0  0
  -29.9457  -25.0005   20.2052 C   0  0  0  0  0  0
  -31.6459  -23.1173   20.4127 C   0  0  0  0  0  0
  -31.1705  -20.5814   20.3687 C   0  0  0  0  0  0
  -31.7286  -15.1047   22.9935 C   0  0  0  0  0  0
  -28.4807  -25.4114   19.9980 C   0  0  0  0  0  0
  -35.3941  -17.8379   17.9943 C   0  0  0  0  0  0
  -31.9668  -21.7383   21.0266 C   0  0  2  0  0  0
  -31.4032  -16.5501   23.4452 C   0  0  0  0  0  0
  -31.5055  -19.2727   20.9484 N   0  0  0  0  0  0
  -32.6228  -17.5231   21.4648 N   0  3  0  0  0  0
  -30.7210  -14.5129   22.1186 N   0  0  0  0  0  0
  -31.4486  -12.4270   19.0409 H   0  0  0  0  0  0
  -30.3279  -11.2687   19.6995 H   0  0  0  0  0  0
  -29.6960  -11.8511   17.3581 H   0  0  0  0  0  0
  -29.6206  -13.5477   17.7748 H   0  0  0  0  0  0
  -27.8182  -11.3139   18.7857 H   0  0  0  0  0  0
  -27.3333  -12.6549   17.7841 H   0  0  0  0  0  0
  -27.7203  -14.2528   19.5908 H   0  0  0  0  0  0
  -28.6407  -11.9192   21.3365 H   0  0  0  0  0  0
  -28.4372  -13.5745   21.8392 H   0  0  0  0  0  0
  -25.2773   -9.5695   22.4753 H   0  0  0  0  0  0
  -24.0018   -7.4642   22.7468 H   0  0  0  0  0  0
  -21.0844   -8.8784   19.8946 H   0  0  0  0  0  0
  -22.3709  -10.9681   19.6158 H   0  0  0  0  0  0
  -21.1996   -7.6153   23.9721 H   0  0  0  0  0  0
  -21.1473   -6.0522   25.9071 H   0  0  0  0  0  0
  -22.0599   -2.7627   23.2835 H   0  0  0  0  0  0
  -22.4124  -11.9855   22.4715 H   0  0  0  0  0  0
  -21.1153  -13.1269   22.2628 H   0  0  0  0  0  0
  -24.6751  -15.8476   20.5246 H   0  0  0  0  0  0
  -26.3016  -15.6247   20.1207 H   0  0  0  0  0  0
  -26.7034  -32.5575   23.1129 H   0  0  0  0  0  0
  -25.0036  -33.9803   25.0490 H   0  0  0  0  0  0
  -22.6768  -31.3050   21.4107 H   0  0  0  0  0  0
  -23.3776  -35.9571   23.3355 H   0  0  0  0  0  0
  -24.3553  -36.8862   22.2049 H   0  0  0  0  0  0
  -23.7159  -37.6473   23.6625 H   0  0  0  0  0  0
  -26.0177  -31.6172   20.5857 H   0  0  0  0  0  0
  -26.8026  -30.9028   21.9690 H   0  0  0  0  0  0
  -28.0916  -29.1672   21.1193 H   0  0  0  0  0  0
  -26.0626  -25.9705   19.0367 H   0  0  0  0  0  0
  -23.9809  -27.2686   19.0544 H   0  0  0  0  0  0
  -23.7017  -30.5903   19.4003 H   0  0  0  0  0  0
  -22.7240  -29.2344   19.8739 H   0  0  0  0  0  0
  -25.1275  -36.1998   25.0862 H   0  0  0  0  0  0
  -20.9918  -28.3181   24.1473 H   0  0  0  0  0  0
  -20.5591  -26.2243   23.3613 H   0  0  0  0  0  0
  -21.6610  -26.7434   22.1222 H   0  0  0  0  0  0
  -19.6863  -25.6308   21.1247 H   0  0  0  0  0  0
  -19.6684  -27.3197   20.6739 H   0  0  0  0  0  0
  -17.4162  -26.6711   21.4043 H   0  0  0  0  0  0
  -18.0303  -26.0104   22.9035 H   0  0  0  0  0  0
  -19.7923  -30.7247   24.2321 H   0  0  0  0  0  0
  -17.5028  -31.6291   24.5168 H   0  0  0  0  0  0
  -15.5347  -30.3042   23.7653 H   0  0  0  0  0  0
  -15.8653  -28.0865   22.7094 H   0  0  0  0  0  0
  -24.5854  -30.7144   25.7824 H   0  0  0  0  0  0
  -24.8941  -32.2892   26.4993 H   0  0  0  0  0  0
  -25.8093  -30.8849   27.0213 H   0  0  0  0  0  0
  -26.2754  -29.6912   24.1106 H   0  0  0  0  0  0
  -27.4036  -29.7344   25.4485 H   0  0  0  0  0  0
  -27.8587  -30.4490   23.9178 H   0  0  0  0  0  0
  -27.2615  -33.3691   26.2023 H   0  0  0  0  0  0
  -28.3781  -32.6936   25.0253 H   0  0  0  0  0  0
  -28.0683  -31.8519   26.5382 H   0  0  0  0  0  0
  -28.2616  -38.0065   24.7550 H   0  0  0  0  0  0
  -28.1045  -36.2617   24.6295 H   0  0  0  0  0  0
  -27.2306  -37.1434   25.8886 H   0  0  0  0  0  0
  -20.9247  -29.8746   21.6988 H   0  0  0  0  0  0
  -26.0190  -38.2916   24.1464 H   0  0  0  0  0  0
  -29.8894  -19.0325   22.3471 H   0  0  0  0  0  0
  -36.7612  -16.6389   16.7890 H   0  0  0  0  0  0
  -35.0619  -16.2843   16.4938 H   0  0  0  0  0  0
  -35.8473  -15.7019   17.9596 H   0  0  0  0  0  0
  -36.2785  -19.1120   16.4645 H   0  0  0  0  0  0
  -35.1684  -19.9627   17.5182 H   0  0  0  0  0  0
  -34.5442  -18.8869   16.2690 H   0  0  0  0  0  0
  -32.3911  -22.6087   22.9899 H   0  0  0  0  0  0
  -32.2739  -20.8638   23.0159 H   0  0  0  0  0  0
  -30.8121  -21.8352   22.8903 H   0  0  0  0  0  0
  -29.7756  -17.6131   24.4615 H   0  0  0  0  0  0
  -29.8645  -15.9091   24.8607 H   0  0  0  0  0  0
  -29.2130  -16.4126   23.3089 H   0  0  0  0  0  0
  -32.2274  -17.9722   24.8869 H   0  0  0  0  0  0
  -33.4411  -16.9415   24.1453 H   0  0  0  0  0  0
  -32.3804  -16.2941   25.3850 H   0  0  0  0  0  0
  -34.5187  -19.2498   20.1934 H   0  0  0  0  0  0
  -33.3231  -19.6750   18.9799 H   0  0  0  0  0  0
  -33.2611  -17.3813   18.1005 H   0  0  0  0  0  0
  -34.2110  -16.7877   19.4326 H   0  0  0  0  0  0
  -29.6629  -22.9567   19.5587 H   0  0  0  0  0  0
  -29.6547  -23.1712   21.2917 H   0  0  0  0  0  0
  -30.5383  -25.3664   19.3660 H   0  0  0  0  0  0
  -30.3362  -25.5018   21.0934 H   0  0  0  0  0  0
  -32.1957  -23.8808   20.9663 H   0  0  0  0  0  0
  -32.0423  -23.1633   19.3972 H   0  0  0  0  0  0
  -31.3329  -20.5464   19.2915 H   0  0  0  0  0  0
  -30.0996  -20.7273   20.5057 H   0  0  0  0  0  0
  -31.7768  -14.4631   23.8753 H   0  0  0  0  0  0
  -32.7228  -15.0396   22.5468 H   0  0  0  0  0  0
  -27.8452  -24.9819   20.7739 H   0  0  0  0  0  0
  -28.1275  -25.0567   19.0301 H   0  0  0  0  0  0
  -36.1806  -18.0522   18.7214 H   0  0  0  0  0  0
  -33.0226  -21.5601   20.8163 H   0  0  0  0  0  0
  -33.3613  -16.8309   21.4782 H   0  0  0  0  0  0
  -29.9589  -14.0430   22.5847 H   0  0  0  0  0  0
  1 25  1  0  0  0
  1 30  2  0  0  0
  1 92  1  0  0  0
  2  3  1  0  0  0
  2 25  1  0  0  0
  2 93  1  0  0  0
  2 94  1  0  0  0
  3  4  1  0  0  0
  3 95  1  0  0  0
  3 96  1  0  0  0
  4  5  1  0  0  0
  4 97  1  0  0  0
  4 98  1  0  0  0
  5  6  1  0  0  0
  5 26  1  0  0  0
  5 99  1  0  0  0
  6 25  1  0  0  0
  6100  1  0  0  0
  6101  1  0  0  0
  7  8  2  0  0  0
  7 26  1  0  0  0
  7 29  1  0  0  0
  8  9  1  0  0  0
  8 22  1  0  0  0
  9 10  1  0  0  0
  9 27  2  0  0  0
 10 11  2  0  0  0
 10 15  1  0  0  0
 11 12  1  0  0  0
 11102  1  0  0  0
 12 13  2  0  0  0
 12103  1  0  0  0
 13 14  1  0  0  0
 13 31  1  0  0  0
 14 15  2  0  0  0
 14104  1  0  0  0
 15105  1  0  0  0
 16 17  2  0  0  0
 16 21  1  0  0  0
 16 31  1  0  0  0
 17 18  1  0  0  0
 17106  1  0  0  0
 18 19  2  0  0  0
 18107  1  0  0  0
 19 20  1  0  0  0
 19 24  1  0  0  0
 20 21  2  0  0  0
 20108  1  0  0  0
 21 23  1  0  0  0
 22 28  1  0  0  0
 22 32  2  0  0  0
 26 27  1  0  0  0
 28109  1  0  0  0
 28110  1  0  0  0
 29111  1  0  0  0
 29112  1  0  0  0
 33 34  1  0  0  0
 33 66  1  0  0  0
 33 70  2  0  0  0
 34 36  1  0  0  0
 34 59  1  0  0  0
 34113  1  0  0  0
 35 44  2  0  0  0
 35 45  1  0  0  0
 35 68  1  0  0  0
 36 56  1  0  0  0
 36114  1  0  0  0
 37 39  1  0  0  0
 37 47  1  0  0  0
 37 66  1  0  0  0
 37115  1  0  0  0
 38 43  2  0  0  0
 38 46  1  0  0  0
 38 47  1  0  0  0
 39 64  1  0  0  0
 39 67  2  0  0  0
 40 52  1  0  0  0
 40 53  2  0  0  0
 40 58  1  0  0  0
 41116  1  0  0  0
 41117  1  0  0  0
 41118  1  0  0  0
 41 48  1  0  0  0
 42 43  1  0  0  0
 42 66  1  0  0  0
 42119  1  0  0  0
 42120  1  0  0  0
 43 44  1  0  0  0
 44121  1  0  0  0
 45 46  2  0  0  0
 45122  1  0  0  0
 46123  1  0  0  0
 47124  1  0  0  0
 47125  1  0  0  0
 48 56  1  0  0  0
 48 65  1  0  0  0
 48126  1  0  0  0
 49 50  1  0  0  0
 49 53  1  0  0  0
 49 64  1  0  0  0
 49127  1  0  0  0
 50 51  1  0  0  0
 50128  1  0  0  0
 50129  1  0  0  0
 51 52  1  0  0  0
 51130  1  0  0  0
 51131  1  0  0  0
 52132  1  0  0  0
 52133  1  0  0  0
 53 54  1  0  0  0
 54 55  2  0  0  0
 54134  1  0  0  0
 55 57  1  0  0  0
 55135  1  0  0  0
 56 69  2  0  0  0
 57 58  2  0  0  0
 57136  1  0  0  0
 58137  1  0  0  0
 59 60  1  0  0  0
 59 61  1  0  0  0
 59 62  1  0  0  0
 60138  1  0  0  0
 60139  1  0  0  0
 60140  1  0  0  0
 61141  1  0  0  0
 61142  1  0  0  0
 61143  1  0  0  0
 62144  1  0  0  0
 62145  1  0  0  0
 62146  1  0  0  0
 63 65  1  0  0  0
 63147  1  0  0  0
 63148  1  0  0  0
 63149  1  0  0  0
 64150  1  0  0  0
 65151  1  0  0  0
 68 86  1  0  0  0
 71 72  2  0  0  0
 71 90  1  0  0  0
 71152  1  0  0  0
 72 89  1  0  0  0
 72 91  1  0  0  0
 73 79  1  0  0  0
 73 90  1  0  0  0
 73 91  2  0  0  0
 74153  1  0  0  0
 74154  1  0  0  0
 74155  1  0  0  0
 74 87  1  0  0  0
 75 87  1  0  0  0
 75156  1  0  0  0
 75157  1  0  0  0
 75158  1  0  0  0
 76159  1  0  0  0
 76160  1  0  0  0
 76161  1  0  0  0
 76 88  1  0  0  0
 77162  1  0  0  0
 77163  1  0  0  0
 77164  1  0  0  0
 77 89  1  0  0  0
 78 89  1  0  0  0
 78165  1  0  0  0
 78166  1  0  0  0
 78167  1  0  0  0
 79 80  1  0  0  0
 79168  1  0  0  0
 79169  1  0  0  0
 80 87  1  0  0  0
 80170  1  0  0  0
 80171  1  0  0  0
 81 82  1  0  0  0
 81 83  1  0  0  0
 81172  1  0  0  0
 81173  1  0  0  0
 82 86  1  0  0  0
 82174  1  0  0  0
 82175  1  0  0  0
 83 88  1  0  0  0
 83176  1  0  0  0
 83177  1  0  0  0
 84 88  1  0  0  0
 84 90  1  0  0  0
 84178  1  0  0  0
 84179  1  0  0  0
 85 89  1  0  0  0
 85 92  1  0  0  0
 85180  1  0  0  0
 85181  1  0  0  0
 86182  1  0  0  0
 86183  1  0  0  0
 87184  1  0  0  0
 88185  1  0  0  0
 91186  1  0  0  0
 92187  1  0  0  0
M  CHG  1  91   1
M  ISO  4   1 100  68 101  86 101  92 100
M  END
> <chiral flag>
0

> <version>
0

> <s_m_source_file>
/data/baiqing/PycharmProjects/Reinvent-master-3.2/result/LINK_invent/BTK/process_docking_weight1_custom_sum_contain_oxygen_bond_distance_aromatic_linkinvent_7_9_3/rearranged_h_0091.sdf

> <i_m_source_file_index>
65

> <r_mmod_Potential_Energy-OPLS-2005>
-133.692779541016

> <r_mmod_Stretch_Energy-OPLS-2005>
31.1850509643555

> <r_mmod_Bend_Energy-OPLS-2005>
104.741394042969

> <r_mmod_Torsional_Energy-OPLS-2005>
256.217926025391

> <r_mmod_Improper_Torsional_Energy-OPLS-2005>
7.46234035491943

> <r_mmod_Van_der_Waal_Energy-OPLS-2005>
124.53360748291

> <r_mmod_Electrostatic_Energy-OPLS-2005>
-306.760101318359

> <r_mmod_Solvation_Energy-OPLS-2005>
-364.250122070312

> <b_mmod_Minimization_Converged-OPLS-2005>
0

> <r_mmod_RMS_Derivative-OPLS-2005>
3.13960886001587

$$$$
66
                    3D
 Structure written by MMmdl.
179187  0  0  1  0            999 V2000
  -30.7343  -14.4240   20.6216 C   0  0  0  0  0  0
  -30.4166  -12.2936   19.4193 C   0  0  0  0  0  0
  -29.4934  -12.5225   18.2072 C   0  0  0  0  0  0
  -28.0126  -12.3796   18.6128 C   0  0  0  0  0  0
  -27.6623  -13.2038   19.8790 C   0  0  2  0  0  0
  -28.7029  -12.9720   20.9995 C   0  0  0  0  0  0
  -25.2592  -13.8167   20.5722 C   0  0  0  0  0  0
  -24.1840  -13.0427   20.9185 C   0  0  0  0  0  0
  -24.6385  -11.6904   20.8723 C   0  0  0  0  0  0
  -23.9032  -10.4295   21.0395 C   0  0  0  0  0  0
  -24.3598   -9.4208   21.9163 C   0  0  0  0  0  0
  -23.6314   -8.2227   22.0720 C   0  0  0  0  0  0
  -22.4292   -8.0254   21.3513 C   0  0  0  0  0  0
  -21.9899   -9.0225   20.4610 C   0  0  0  0  0  0
  -22.7207  -10.2119   20.3036 C   0  0  0  0  0  0
  -21.6848   -6.0735   22.5291 C   0  0  0  0  0  0
  -21.4016   -6.5640   23.8216 C   0  0  0  0  0  0
  -21.3656   -5.6780   24.9177 C   0  0  0  0  0  0
  -21.6058   -4.3051   24.7207 C   0  0  0  0  0  0
  -21.8822   -3.8138   23.4330 C   0  0  0  0  0  0
  -21.9196   -4.6974   22.3391 C   0  0  0  0  0  0
  -22.7851  -13.5216   21.1844 C   0  0  0  0  0  0
  -22.1663   -4.2165   21.0966 F   0  0  0  0  0  0
  -21.5624   -3.4523   25.7717 F   0  0  0  0  0  0
  -30.0415  -13.2659   20.4592 N   0  0  0  0  0  0
  -26.3021  -12.9318   20.3384 N   0  0  0  0  0  0
  -25.9298  -11.6480   20.5742 N   0  0  0  0  0  0
  -22.0491  -12.8225   22.0430 N   0  0  0  0  0  0
  -25.4345  -15.1900   20.4176 N   0  0  0  0  0  0
  -31.8285  -14.6282   20.0895 O   0  0  0  0  0  0
  -21.6620   -6.8884   21.4246 O   0  0  0  0  0  0
  -22.3542  -14.5518   20.6692 O   0  0  0  0  0  0
  -24.6197  -31.8687   23.2128 C   0  0  0  0  0  0
  -25.9076  -32.4825   23.8411 C   0  0  1  0  0  0
  -27.1971  -27.3914   20.0626 C   0  0  0  0  0  0
  -25.5921  -33.8622   24.2344 N   0  0  0  0  0  0
  -23.4054  -30.5016   21.5597 C   0  0  2  0  0  0
  -24.8374  -28.9749   20.1091 C   0  0  0  0  0  0
  -22.7417  -29.4691   22.5003 C   0  0  0  0  0  0
  -18.0291  -28.1376   22.8527 C   0  0  0  0  0  0
  -24.1495  -36.7311   23.2641 C   0  0  0  0  0  0
  -25.9435  -30.8112   21.3788 C   0  0  0  0  0  0
  -26.0075  -29.4482   20.7164 C   0  0  0  0  0  0
  -27.1915  -28.6629   20.6951 C   0  0  0  0  0  0
  -26.0067  -26.9678   19.4207 C   0  0  0  0  0  0
  -24.8353  -27.7348   19.4588 C   0  0  0  0  0  0
  -23.6088  -29.8535   20.1678 C   0  0  0  0  0  0
  -25.4106  -36.3109   24.0352 C   0  0  1  0  0  0
  -20.5882  -28.3669   23.1324 C   0  0  2  0  0  0
  -20.6789  -26.9412   22.5417 C   0  0  0  0  0  0
  -19.5756  -26.6390   21.5231 C   0  0  0  0  0  0
  -18.1932  -26.7942   22.1639 C   0  0  0  0  0  0
  -19.1540  -28.8840   23.2928 C   0  0  0  0  0  0
  -18.9463  -30.1445   23.8939 C   0  0  0  0  0  0
  -17.6460  -30.6594   24.0575 C   0  0  0  0  0  0
  -25.9036  -34.9481   23.5145 C   0  0  0  0  0  0
  -16.5353  -29.9093   23.6327 C   0  0  0  0  0  0
  -16.7271  -28.6499   23.0371 C   0  0  0  0  0  0
  -26.4476  -31.6604   25.0747 C   0  0  0  0  0  0
  -25.3723  -31.3738   26.1490 C   0  0  0  0  0  0
  -27.0299  -30.3047   24.6123 C   0  0  0  0  0  0
  -27.6060  -32.4311   25.7501 C   0  0  0  0  0  0
  -27.5583  -37.1814   24.8465 C   0  0  0  0  0  0
  -21.4144  -29.3044   22.3721 N   0  0  0  0  0  0
  -26.4289  -37.3783   23.9421 N   0  0  0  0  0  0
  -24.6761  -31.0736   22.1078 N   0  0  0  0  0  0
  -23.4187  -28.8216   23.3029 O   0  0  0  0  0  0
  -28.3268  -26.5850   20.0592 O   0  0  0  0  0  0
  -26.5576  -34.8927   22.4695 O   0  0  0  0  0  0
  -23.5379  -32.1493   23.7479 O   0  0  0  0  0  0
  -29.4004  -20.2729   20.3884 C   0  0  0  0  0  0
  -29.9151  -21.5526   20.0703 C   0  0  0  0  0  0
  -31.2058  -21.5961   19.4437 C   0  0  0  0  0  0
  -30.1413  -19.1120   20.1028 C   0  0  0  0  0  0
  -31.8285  -20.3610   19.0687 C   0  0  0  0  0  0
  -31.9170  -22.9196   19.2029 C   0  0  0  0  0  0
  -32.0736  -22.3323   15.0204 C   0  0  0  0  0  0
  -29.3777  -17.0202   18.9423 C   0  0  0  0  0  0
  -33.2204  -18.7573   17.6099 C   0  0  0  0  0  0
  -34.3649  -20.3439   19.1188 C   0  0  0  0  0  0
  -28.9800  -22.7442   20.4276 C   0  0  0  0  0  0
  -31.9386  -21.2556   16.1039 C   0  0  0  0  0  0
  -29.2943  -24.2320   20.0577 C   0  0  0  0  0  0
  -33.2132  -21.1414   16.9713 C   0  0  0  0  0  0
  -30.4695  -16.8260   21.2829 C   0  0  0  0  0  0
  -28.0738  -25.1647   20.2366 C   0  0  0  0  0  0
  -29.5980  -17.6899   20.3170 C   0  0  1  0  0  0
  -33.1266  -20.1919   18.2120 C   0  0  0  0  0  0
  -31.3235  -19.1795   19.4790 N   0  0  0  0  0  0
  -30.0948  -15.3966   21.2962 N   0  0  0  0  0  0
  -31.4639  -12.3784   19.1225 H   0  0  0  0  0  0
  -30.3008  -11.2774   19.7982 H   0  0  0  0  0  0
  -29.7318  -11.8204   17.4061 H   0  0  0  0  0  0
  -29.6690  -13.5194   17.8011 H   0  0  0  0  0  0
  -27.8150  -11.3223   18.7895 H   0  0  0  0  0  0
  -27.3665  -12.6734   17.7844 H   0  0  0  0  0  0
  -27.7002  -14.2525   19.5901 H   0  0  0  0  0  0
  -28.6734  -11.9332   21.3329 H   0  0  0  0  0  0
  -28.4621  -13.5662   21.8816 H   0  0  0  0  0  0
  -25.2746   -9.5697   22.4729 H   0  0  0  0  0  0
  -24.0030   -7.4612   22.7420 H   0  0  0  0  0  0
  -21.0824   -8.8721   19.8927 H   0  0  0  0  0  0
  -22.3651  -10.9642   19.6139 H   0  0  0  0  0  0
  -21.2000   -7.6143   23.9748 H   0  0  0  0  0  0
  -21.1493   -6.0481   25.9084 H   0  0  0  0  0  0
  -22.0614   -2.7603   23.2798 H   0  0  0  0  0  0
  -22.4067  -11.9871   22.4836 H   0  0  0  0  0  0
  -21.1108  -13.1249   22.2618 H   0  0  0  0  0  0
  -24.6717  -15.8485   20.5277 H   0  0  0  0  0  0
  -26.2949  -15.6311   20.1177 H   0  0  0  0  0  0
  -26.7128  -32.5497   23.1150 H   0  0  0  0  0  0
  -25.0114  -33.9782   25.0520 H   0  0  0  0  0  0
  -22.6985  -31.3233   21.4333 H   0  0  0  0  0  0
  -23.3744  -35.9653   23.3311 H   0  0  0  0  0  0
  -24.3602  -36.8902   22.2047 H   0  0  0  0  0  0
  -23.7260  -37.6535   23.6634 H   0  0  0  0  0  0
  -26.0648  -31.5754   20.6102 H   0  0  0  0  0  0
  -26.8292  -30.8557   22.0000 H   0  0  0  0  0  0
  -28.0900  -29.0146   21.1829 H   0  0  0  0  0  0
  -25.9452  -26.0566   18.8473 H   0  0  0  0  0  0
  -23.9420  -27.3812   18.9589 H   0  0  0  0  0  0
  -23.7266  -30.6404   19.4226 H   0  0  0  0  0  0
  -22.7255  -29.2909   19.8615 H   0  0  0  0  0  0
  -25.1276  -36.1982   25.0842 H   0  0  0  0  0  0
  -20.9986  -28.3229   24.1442 H   0  0  0  0  0  0
  -20.5748  -26.2260   23.3599 H   0  0  0  0  0  0
  -21.6650  -26.7499   22.1181 H   0  0  0  0  0  0
  -19.6913  -25.6305   21.1250 H   0  0  0  0  0  0
  -19.6699  -27.3207   20.6773 H   0  0  0  0  0  0
  -17.4219  -26.6726   21.4017 H   0  0  0  0  0  0
  -18.0315  -26.0063   22.9007 H   0  0  0  0  0  0
  -19.7930  -30.7251   24.2335 H   0  0  0  0  0  0
  -17.5018  -31.6293   24.5135 H   0  0  0  0  0  0
  -15.5357  -30.3006   23.7629 H   0  0  0  0  0  0
  -15.8677  -28.0813   22.7088 H   0  0  0  0  0  0
  -24.5879  -30.7103   25.7832 H   0  0  0  0  0  0
  -24.8935  -32.2911   26.4932 H   0  0  0  0  0  0
  -25.8053  -30.8910   27.0260 H   0  0  0  0  0  0
  -26.2849  -29.6826   24.1151 H   0  0  0  0  0  0
  -27.4055  -29.7264   25.4571 H   0  0  0  0  0  0
  -27.8695  -30.4390   23.9300 H   0  0  0  0  0  0
  -27.2703  -33.3615   26.2095 H   0  0  0  0  0  0
  -28.3859  -32.6849   25.0311 H   0  0  0  0  0  0
  -28.0734  -31.8417   26.5404 H   0  0  0  0  0  0
  -28.2592  -38.0112   24.7497 H   0  0  0  0  0  0
  -28.1086  -36.2647   24.6301 H   0  0  0  0  0  0
  -27.2316  -37.1482   25.8868 H   0  0  0  0  0  0
  -20.9281  -29.8766   21.6964 H   0  0  0  0  0  0
  -26.0185  -38.2867   24.1397 H   0  0  0  0  0  0
  -28.4257  -20.1739   20.8484 H   0  0  0  0  0  0
  -31.7824  -23.5954   20.0376 H   0  0  0  0  0  0
  -31.5909  -23.3938   18.2767 H   0  0  0  0  0  0
  -32.9930  -22.8153   19.1719 H   0  0  0  0  0  0
  -31.1377  -22.4623   14.4771 H   0  0  0  0  0  0
  -32.8477  -22.0740   14.2966 H   0  0  0  0  0  0
  -32.3338  -23.2965   15.4582 H   0  0  0  0  0  0
  -28.7514  -17.6450   18.3038 H   0  0  0  0  0  0
  -28.8967  -16.0491   19.0253 H   0  0  0  0  0  0
  -30.3274  -16.8690   18.4274 H   0  0  0  0  0  0
  -33.3293  -17.9991   18.3861 H   0  0  0  0  0  0
  -34.0833  -18.6371   16.9555 H   0  0  0  0  0  0
  -32.3309  -18.4964   17.0333 H   0  0  0  0  0  0
  -34.3566  -19.5909   19.9090 H   0  0  0  0  0  0
  -34.4115  -21.3106   19.6134 H   0  0  0  0  0  0
  -35.2922  -20.2249   18.5564 H   0  0  0  0  0  0
  -28.7948  -22.6938   21.5018 H   0  0  0  0  0  0
  -28.0172  -22.4947   19.9755 H   0  0  0  0  0  0
  -31.7046  -20.2974   15.6379 H   0  0  0  0  0  0
  -31.0745  -21.5027   16.7200 H   0  0  0  0  0  0
  -29.6082  -24.3002   19.0163 H   0  0  0  0  0  0
  -30.0941  -24.6188   20.6844 H   0  0  0  0  0  0
  -33.5072  -22.1428   17.2705 H   0  0  0  0  0  0
  -34.0406  -20.8320   16.3306 H   0  0  0  0  0  0
  -30.3969  -17.2212   22.2972 H   0  0  0  0  0  0
  -31.5217  -16.9267   21.0163 H   0  0  0  0  0  0
  -27.6647  -25.0272   21.2385 H   0  0  0  0  0  0
  -27.3304  -24.7743   19.5472 H   0  0  0  0  0  0
  -28.6166  -17.7881   20.7822 H   0  0  0  0  0  0
  -29.2126  -15.1502   21.7188 H   0  0  0  0  0  0
  1 25  1  0  0  0
  1 30  2  0  0  0
  1 90  1  0  0  0
  2  3  1  0  0  0
  2 25  1  0  0  0
  2 91  1  0  0  0
  2 92  1  0  0  0
  3  4  1  0  0  0
  3 93  1  0  0  0
  3 94  1  0  0  0
  4  5  1  0  0  0
  4 95  1  0  0  0
  4 96  1  0  0  0
  5  6  1  0  0  0
  5 26  1  0  0  0
  5 97  1  0  0  0
  6 25  1  0  0  0
  6 98  1  0  0  0
  6 99  1  0  0  0
  7  8  2  0  0  0
  7 26  1  0  0  0
  7 29  1  0  0  0
  8  9  1  0  0  0
  8 22  1  0  0  0
  9 10  1  0  0  0
  9 27  2  0  0  0
 10 11  2  0  0  0
 10 15  1  0  0  0
 11 12  1  0  0  0
 11100  1  0  0  0
 12 13  2  0  0  0
 12101  1  0  0  0
 13 14  1  0  0  0
 13 31  1  0  0  0
 14 15  2  0  0  0
 14102  1  0  0  0
 15103  1  0  0  0
 16 17  2  0  0  0
 16 21  1  0  0  0
 16 31  1  0  0  0
 17 18  1  0  0  0
 17104  1  0  0  0
 18 19  2  0  0  0
 18105  1  0  0  0
 19 20  1  0  0  0
 19 24  1  0  0  0
 20 21  2  0  0  0
 20106  1  0  0  0
 21 23  1  0  0  0
 22 28  1  0  0  0
 22 32  2  0  0  0
 26 27  1  0  0  0
 28107  1  0  0  0
 28108  1  0  0  0
 29109  1  0  0  0
 29110  1  0  0  0
 33 34  1  0  0  0
 33 66  1  0  0  0
 33 70  2  0  0  0
 34 36  1  0  0  0
 34 59  1  0  0  0
 34111  1  0  0  0
 35 44  2  0  0  0
 35 45  1  0  0  0
 35 68  1  0  0  0
 36 56  1  0  0  0
 36112  1  0  0  0
 37 39  1  0  0  0
 37 47  1  0  0  0
 37 66  1  0  0  0
 37113  1  0  0  0
 38 43  2  0  0  0
 38 46  1  0  0  0
 38 47  1  0  0  0
 39 64  1  0  0  0
 39 67  2  0  0  0
 40 52  1  0  0  0
 40 53  2  0  0  0
 40 58  1  0  0  0
 41114  1  0  0  0
 41115  1  0  0  0
 41116  1  0  0  0
 41 48  1  0  0  0
 42 43  1  0  0  0
 42 66  1  0  0  0
 42117  1  0  0  0
 42118  1  0  0  0
 43 44  1  0  0  0
 44119  1  0  0  0
 45 46  2  0  0  0
 45120  1  0  0  0
 46121  1  0  0  0
 47122  1  0  0  0
 47123  1  0  0  0
 48 56  1  0  0  0
 48 65  1  0  0  0
 48124  1  0  0  0
 49 50  1  0  0  0
 49 53  1  0  0  0
 49 64  1  0  0  0
 49125  1  0  0  0
 50 51  1  0  0  0
 50126  1  0  0  0
 50127  1  0  0  0
 51 52  1  0  0  0
 51128  1  0  0  0
 51129  1  0  0  0
 52130  1  0  0  0
 52131  1  0  0  0
 53 54  1  0  0  0
 54 55  2  0  0  0
 54132  1  0  0  0
 55 57  1  0  0  0
 55133  1  0  0  0
 56 69  2  0  0  0
 57 58  2  0  0  0
 57134  1  0  0  0
 58135  1  0  0  0
 59 60  1  0  0  0
 59 61  1  0  0  0
 59 62  1  0  0  0
 60136  1  0  0  0
 60137  1  0  0  0
 60138  1  0  0  0
 61139  1  0  0  0
 61140  1  0  0  0
 61141  1  0  0  0
 62142  1  0  0  0
 62143  1  0  0  0
 62144  1  0  0  0
 63 65  1  0  0  0
 63145  1  0  0  0
 63146  1  0  0  0
 63147  1  0  0  0
 64148  1  0  0  0
 65149  1  0  0  0
 68 86  1  0  0  0
 71 72  2  0  0  0
 71 74  1  0  0  0
 71150  1  0  0  0
 72 73  1  0  0  0
 72 81  1  0  0  0
 73 75  2  0  0  0
 73 76  1  0  0  0
 74 87  1  0  0  0
 74 89  2  0  0  0
 75 88  1  0  0  0
 75 89  1  0  0  0
 76151  1  0  0  0
 76152  1  0  0  0
 76153  1  0  0  0
 77 82  1  0  0  0
 77154  1  0  0  0
 77155  1  0  0  0
 77156  1  0  0  0
 78157  1  0  0  0
 78158  1  0  0  0
 78159  1  0  0  0
 78 87  1  0  0  0
 79160  1  0  0  0
 79161  1  0  0  0
 79162  1  0  0  0
 79 88  1  0  0  0
 80 88  1  0  0  0
 80163  1  0  0  0
 80164  1  0  0  0
 80165  1  0  0  0
 81 83  1  0  0  0
 81166  1  0  0  0
 81167  1  0  0  0
 82 84  1  0  0  0
 82168  1  0  0  0
 82169  1  0  0  0
 83 86  1  0  0  0
 83170  1  0  0  0
 83171  1  0  0  0
 84 88  1  0  0  0
 84172  1  0  0  0
 84173  1  0  0  0
 85 87  1  0  0  0
 85 90  1  0  0  0
 85174  1  0  0  0
 85175  1  0  0  0
 86176  1  0  0  0
 86177  1  0  0  0
 87178  1  0  0  0
 90179  1  0  0  0
M  ISO  4   1 100  68 101  86 101  90 100
M  END
> <chiral flag>
0

> <version>
0

> <s_m_source_file>
/data/baiqing/PycharmProjects/Reinvent-master-3.2/result/LINK_invent/BTK/process_docking_weight1_custom_sum_contain_oxygen_bond_distance_aromatic_linkinvent_7_9_3/rearranged_h_0091.sdf

> <i_m_source_file_index>
66

> <r_mmod_Potential_Energy-OPLS-2005>
-179.667831420898

> <r_mmod_Stretch_Energy-OPLS-2005>
54.3802680969238

> <r_mmod_Bend_Energy-OPLS-2005>
140.972213745117

> <r_mmod_Torsional_Energy-OPLS-2005>
208.708435058594

> <r_mmod_Improper_Torsional_Energy-OPLS-2005>
3.66549301147461

> <r_mmod_Van_der_Waal_Energy-OPLS-2005>
183.235412597656

> <r_mmod_Electrostatic_Energy-OPLS-2005>
-575.924133300781

> <r_mmod_Solvation_Energy-OPLS-2005>
-212.116302490234

> <b_mmod_Minimization_Converged-OPLS-2005>
0

> <r_mmod_RMS_Derivative-OPLS-2005>
3.87421607971191

$$$$
67
                    3D
 Structure written by MMmdl.
169177  0  0  1  0            999 V2000
  -30.6965  -14.4941   20.5977 C   0  0  0  0  0  0
  -30.4347  -12.3380   19.4011 C   0  0  0  0  0  0
  -29.4903  -12.4944   18.1898 C   0  0  0  0  0  0
  -28.0212  -12.3026   18.6185 C   0  0  0  0  0  0
  -27.6590  -13.1611   19.8540 C   0  0  2  0  0  0
  -28.7088  -12.9514   20.9759 C   0  0  0  0  0  0
  -25.2689  -13.8019   20.5682 C   0  0  0  0  0  0
  -24.1923  -13.0397   20.9277 C   0  0  0  0  0  0
  -24.6368  -11.6833   20.8796 C   0  0  0  0  0  0
  -23.9001  -10.4249   21.0448 C   0  0  0  0  0  0
  -24.3561   -9.4160   21.9209 C   0  0  0  0  0  0
  -23.6247   -8.2190   22.0757 C   0  0  0  0  0  0
  -22.4229   -8.0238   21.3538 C   0  0  0  0  0  0
  -21.9858   -9.0219   20.4650 C   0  0  0  0  0  0
  -22.7179  -10.2107   20.3083 C   0  0  0  0  0  0
  -21.6832   -6.0697   22.5274 C   0  0  0  0  0  0
  -21.4002   -6.5616   23.8197 C   0  0  0  0  0  0
  -21.3659   -5.6785   24.9170 C   0  0  0  0  0  0
  -21.6046   -4.3043   24.7233 C   0  0  0  0  0  0
  -21.8820   -3.8127   23.4354 C   0  0  0  0  0  0
  -21.9181   -4.6929   22.3406 C   0  0  0  0  0  0
  -22.7944  -13.5273   21.1877 C   0  0  0  0  0  0
  -22.1655   -4.2112   21.0984 F   0  0  0  0  0  0
  -21.5632   -3.4538   25.7748 F   0  0  0  0  0  0
  -30.0239  -13.3170   20.4240 N   0  0  0  0  0  0
  -26.3019  -12.9085   20.3254 N   0  0  0  0  0  0
  -25.9268  -11.6302   20.5746 N   0  0  0  0  0  0
  -22.0531  -12.8292   22.0381 N   0  0  0  0  0  0
  -25.4484  -15.1729   20.3828 N   0  0  0  0  0  0
  -31.8227  -14.6744   20.1210 O   0  0  0  0  0  0
  -21.6608   -6.8838   21.4228 O   0  0  0  0  0  0
  -22.3740  -14.5598   20.6680 O   0  0  0  0  0  0
  -24.6070  -31.8705   23.2103 C   0  0  0  0  0  0
  -25.9003  -32.4840   23.8364 C   0  0  1  0  0  0
  -27.2543  -27.4548   20.1181 C   0  0  0  0  0  0
  -25.5884  -33.8639   24.2332 N   0  0  0  0  0  0
  -23.3986  -30.4914   21.5494 C   0  0  2  0  0  0
  -24.8550  -28.9507   20.1258 C   0  0  0  0  0  0
  -22.7389  -29.4666   22.4993 C   0  0  0  0  0  0
  -18.0267  -28.1365   22.8471 C   0  0  0  0  0  0
  -24.1491  -36.7315   23.2636 C   0  0  0  0  0  0
  -25.9219  -30.8433   21.3594 C   0  0  0  0  0  0
  -26.0079  -29.4685   20.7291 C   0  0  0  0  0  0
  -27.2084  -28.7237   20.7344 C   0  0  0  0  0  0
  -26.0891  -26.9428   19.5138 C   0  0  0  0  0  0
  -24.8885  -27.6830   19.5156 C   0  0  0  0  0  0
  -23.6136  -29.8168   20.1682 C   0  0  0  0  0  0
  -25.4103  -36.3124   24.0347 C   0  0  1  0  0  0
  -20.5852  -28.3661   23.1314 C   0  0  2  0  0  0
  -20.6770  -26.9404   22.5404 C   0  0  0  0  0  0
  -19.5748  -26.6392   21.5204 C   0  0  0  0  0  0
  -18.1923  -26.7910   22.1607 C   0  0  0  0  0  0
  -19.1517  -28.8836   23.2889 C   0  0  0  0  0  0
  -18.9456  -30.1437   23.8895 C   0  0  0  0  0  0
  -17.6469  -30.6583   24.0571 C   0  0  0  0  0  0
  -25.9042  -34.9481   23.5146 C   0  0  0  0  0  0
  -16.5348  -29.9099   23.6323 C   0  0  0  0  0  0
  -16.7264  -28.6519   23.0331 C   0  0  0  0  0  0
  -26.4441  -31.6584   25.0644 C   0  0  0  0  0  0
  -25.3736  -31.3695   26.1423 C   0  0  0  0  0  0
  -27.0256  -30.3034   24.5978 C   0  0  0  0  0  0
  -27.6048  -32.4273   25.7393 C   0  0  0  0  0  0
  -27.5591  -37.1798   24.8476 C   0  0  0  0  0  0
  -21.4139  -29.3036   22.3745 N   0  0  0  0  0  0
  -26.4307  -37.3801   23.9427 N   0  0  0  0  0  0
  -24.6597  -31.0837   22.0987 N   0  0  0  0  0  0
  -23.4177  -28.8209   23.3038 O   0  0  0  0  0  0
  -28.4290  -26.7400   20.0475 O   0  0  0  0  0  0
  -26.5575  -34.8937   22.4700 O   0  0  0  0  0  0
  -23.5275  -32.1438   23.7526 O   0  0  0  0  0  0
  -30.2707  -18.9892   20.2399 C   0  0  0  0  0  0
  -28.4956  -20.0560   21.0433 C   0  0  0  0  0  0
  -29.0488  -18.8016   20.9547 C   0  0  0  0  0  0
  -30.3832  -20.3081   19.8656 C   0  0  0  0  0  0
  -31.4735  -21.0002   19.0999 C   0  0  0  0  0  0
  -27.4115  -24.2275   22.4043 C   0  0  0  0  0  0
  -30.9095  -16.1516   22.3721 C   0  0  0  0  0  0
  -29.3073  -23.4413   20.9069 C   0  0  0  0  0  0
  -28.7740  -22.3105   19.9994 C   0  0  0  0  0  0
  -28.8864  -16.1531   20.8737 C   0  0  0  0  0  0
  -28.7797  -25.9978   21.2206 C   0  0  0  0  0  0
  -28.4008  -17.5123   21.4792 C   0  0  2  0  0  0
  -28.2335  -24.5477   21.1500 C   0  0  2  0  0  0
  -29.2363  -20.9570   20.3056 N   0  0  0  0  0  0
  -30.1096  -15.4644   21.3555 N   0  0  0  0  0  0
  -26.9704  -17.6248   21.1503 N   0  3  0  0  0  0
  -31.4755  -12.4593   19.0904 H   0  0  0  0  0  0
  -30.3678  -11.3254   19.8020 H   0  0  0  0  0  0
  -29.7491  -11.7682   17.4176 H   0  0  0  0  0  0
  -29.6211  -13.4791   17.7379 H   0  0  0  0  0  0
  -27.8851  -11.2463   18.8570 H   0  0  0  0  0  0
  -27.3473  -12.5168   17.7883 H   0  0  0  0  0  0
  -27.6879  -14.1852   19.4930 H   0  0  0  0  0  0
  -28.7218  -11.8999   21.2714 H   0  0  0  0  0  0
  -28.4666  -13.4908   21.8916 H   0  0  0  0  0  0
  -25.2703   -9.5609   22.4788 H   0  0  0  0  0  0
  -23.9939   -7.4568   22.7464 H   0  0  0  0  0  0
  -21.0789   -8.8738   19.8963 H   0  0  0  0  0  0
  -22.3642  -10.9650   19.6197 H   0  0  0  0  0  0
  -21.2000   -7.6126   23.9687 H   0  0  0  0  0  0
  -21.1488   -6.0521   25.9067 H   0  0  0  0  0  0
  -22.0607   -2.7585   23.2874 H   0  0  0  0  0  0
  -22.4101  -11.9956   22.4803 H   0  0  0  0  0  0
  -21.1155  -13.1361   22.2556 H   0  0  0  0  0  0
  -24.5354  -15.6141   20.3270 H   0  0  0  0  0  0
  -25.9383  -15.3012   19.5044 H   0  0  0  0  0  0
  -26.7073  -32.5601   23.1138 H   0  0  0  0  0  0
  -25.0049  -33.9776   25.0495 H   0  0  0  0  0  0
  -22.6810  -31.3015   21.4053 H   0  0  0  0  0  0
  -23.3755  -35.9647   23.3317 H   0  0  0  0  0  0
  -24.3592  -36.8909   22.2052 H   0  0  0  0  0  0
  -23.7250  -37.6530   23.6636 H   0  0  0  0  0  0
  -26.0111  -31.5985   20.5756 H   0  0  0  0  0  0
  -26.8153  -30.9191   21.9673 H   0  0  0  0  0  0
  -28.0979  -29.1264   21.1965 H   0  0  0  0  0  0
  -26.1129  -25.9733   19.0381 H   0  0  0  0  0  0
  -24.0089  -27.2778   19.0348 H   0  0  0  0  0  0
  -23.7174  -30.5847   19.4013 H   0  0  0  0  0  0
  -22.7397  -29.2336   19.8765 H   0  0  0  0  0  0
  -25.1287  -36.1975   25.0832 H   0  0  0  0  0  0
  -20.9908  -28.3216   24.1454 H   0  0  0  0  0  0
  -20.5720  -26.2257   23.3593 H   0  0  0  0  0  0
  -21.6640  -26.7493   22.1169 H   0  0  0  0  0  0
  -19.6947  -25.6331   21.1198 H   0  0  0  0  0  0
  -19.6682  -27.3229   20.6757 H   0  0  0  0  0  0
  -17.4194  -26.6642   21.4010 H   0  0  0  0  0  0
  -18.0331  -26.0036   22.8983 H   0  0  0  0  0  0
  -19.7945  -30.7235   24.2255 H   0  0  0  0  0  0
  -17.5049  -31.6268   24.5181 H   0  0  0  0  0  0
  -15.5353  -30.3032   23.7677 H   0  0  0  0  0  0
  -15.8634  -28.0886   22.7025 H   0  0  0  0  0  0
  -24.5927  -30.7008   25.7804 H   0  0  0  0  0  0
  -24.8884  -32.2852   26.4803 H   0  0  0  0  0  0
  -25.8082  -30.8933   27.0220 H   0  0  0  0  0  0
  -26.2781  -29.6785   24.1081 H   0  0  0  0  0  0
  -27.4127  -29.7249   25.4379 H   0  0  0  0  0  0
  -27.8553  -30.4355   23.9030 H   0  0  0  0  0  0
  -27.2693  -33.3576   26.1982 H   0  0  0  0  0  0
  -28.3809  -32.6828   25.0173 H   0  0  0  0  0  0
  -28.0757  -31.8388   26.5276 H   0  0  0  0  0  0
  -28.2610  -38.0095   24.7523 H   0  0  0  0  0  0
  -28.1066  -36.2621   24.6287 H   0  0  0  0  0  0
  -27.2297  -37.1443   25.8876 H   0  0  0  0  0  0
  -20.9301  -29.8749   21.6954 H   0  0  0  0  0  0
  -26.0189  -38.2876   24.1440 H   0  0  0  0  0  0
  -30.9966  -18.2234   20.0014 H   0  0  0  0  0  0
  -27.5725  -20.3979   21.4942 H   0  0  0  0  0  0
  -32.1891  -21.4646   19.7793 H   0  0  0  0  0  0
  -31.1000  -21.7850   18.4421 H   0  0  0  0  0  0
  -32.0229  -20.2944   18.4752 H   0  0  0  0  0  0
  -26.9692  -23.2339   22.3532 H   0  0  0  0  0  0
  -26.5989  -24.9420   22.5317 H   0  0  0  0  0  0
  -28.0439  -24.2761   23.2907 H   0  0  0  0  0  0
  -30.3034  -16.4187   23.2371 H   0  0  0  0  0  0
  -31.3658  -17.0541   21.9678 H   0  0  0  0  0  0
  -31.7116  -15.5109   22.7446 H   0  0  0  0  0  0
  -30.1920  -23.8587   20.4212 H   0  0  0  0  0  0
  -29.6540  -23.0309   21.8573 H   0  0  0  0  0  0
  -28.9969  -22.5289   18.9548 H   0  0  0  0  0  0
  -27.6843  -22.2872   20.0545 H   0  0  0  0  0  0
  -28.8978  -16.2210   19.7818 H   0  0  0  0  0  0
  -28.0887  -15.4701   21.1377 H   0  0  0  0  0  0
  -29.8643  -25.9799   21.3104 H   0  0  0  0  0  0
  -28.4214  -26.5054   22.1180 H   0  0  0  0  0  0
  -28.4710  -17.4966   22.5672 H   0  0  0  0  0  0
  -27.5466  -24.5336   20.3058 H   0  0  0  0  0  0
  -26.8669  -17.7936   20.1672 H   0  0  0  0  0  0
  -26.5489  -18.3863   21.6488 H   0  0  0  0  0  0
  -26.4843  -16.7670   21.3739 H   0  0  0  0  0  0
  1 25  1  0  0  0
  1 30  2  0  0  0
  1 85  1  0  0  0
  2  3  1  0  0  0
  2 25  1  0  0  0
  2 87  1  0  0  0
  2 88  1  0  0  0
  3  4  1  0  0  0
  3 89  1  0  0  0
  3 90  1  0  0  0
  4  5  1  0  0  0
  4 91  1  0  0  0
  4 92  1  0  0  0
  5  6  1  0  0  0
  5 26  1  0  0  0
  5 93  1  0  0  0
  6 25  1  0  0  0
  6 94  1  0  0  0
  6 95  1  0  0  0
  7  8  2  0  0  0
  7 26  1  0  0  0
  7 29  1  0  0  0
  8  9  1  0  0  0
  8 22  1  0  0  0
  9 10  1  0  0  0
  9 27  2  0  0  0
 10 11  2  0  0  0
 10 15  1  0  0  0
 11 12  1  0  0  0
 11 96  1  0  0  0
 12 13  2  0  0  0
 12 97  1  0  0  0
 13 14  1  0  0  0
 13 31  1  0  0  0
 14 15  2  0  0  0
 14 98  1  0  0  0
 15 99  1  0  0  0
 16 17  2  0  0  0
 16 21  1  0  0  0
 16 31  1  0  0  0
 17 18  1  0  0  0
 17100  1  0  0  0
 18 19  2  0  0  0
 18101  1  0  0  0
 19 20  1  0  0  0
 19 24  1  0  0  0
 20 21  2  0  0  0
 20102  1  0  0  0
 21 23  1  0  0  0
 22 28  1  0  0  0
 22 32  2  0  0  0
 26 27  1  0  0  0
 28103  1  0  0  0
 28104  1  0  0  0
 29105  1  0  0  0
 29106  1  0  0  0
 33 34  1  0  0  0
 33 66  1  0  0  0
 33 70  2  0  0  0
 34 36  1  0  0  0
 34 59  1  0  0  0
 34107  1  0  0  0
 35 44  2  0  0  0
 35 45  1  0  0  0
 35 68  1  0  0  0
 36 56  1  0  0  0
 36108  1  0  0  0
 37 39  1  0  0  0
 37 47  1  0  0  0
 37 66  1  0  0  0
 37109  1  0  0  0
 38 43  2  0  0  0
 38 46  1  0  0  0
 38 47  1  0  0  0
 39 64  1  0  0  0
 39 67  2  0  0  0
 40 52  1  0  0  0
 40 53  2  0  0  0
 40 58  1  0  0  0
 41110  1  0  0  0
 41111  1  0  0  0
 41112  1  0  0  0
 41 48  1  0  0  0
 42 43  1  0  0  0
 42 66  1  0  0  0
 42113  1  0  0  0
 42114  1  0  0  0
 43 44  1  0  0  0
 44115  1  0  0  0
 45 46  2  0  0  0
 45116  1  0  0  0
 46117  1  0  0  0
 47118  1  0  0  0
 47119  1  0  0  0
 48 56  1  0  0  0
 48 65  1  0  0  0
 48120  1  0  0  0
 49 50  1  0  0  0
 49 53  1  0  0  0
 49 64  1  0  0  0
 49121  1  0  0  0
 50 51  1  0  0  0
 50122  1  0  0  0
 50123  1  0  0  0
 51 52  1  0  0  0
 51124  1  0  0  0
 51125  1  0  0  0
 52126  1  0  0  0
 52127  1  0  0  0
 53 54  1  0  0  0
 54 55  2  0  0  0
 54128  1  0  0  0
 55 57  1  0  0  0
 55129  1  0  0  0
 56 69  2  0  0  0
 57 58  2  0  0  0
 57130  1  0  0  0
 58131  1  0  0  0
 59 60  1  0  0  0
 59 61  1  0  0  0
 59 62  1  0  0  0
 60132  1  0  0  0
 60133  1  0  0  0
 60134  1  0  0  0
 61135  1  0  0  0
 61136  1  0  0  0
 61137  1  0  0  0
 62138  1  0  0  0
 62139  1  0  0  0
 62140  1  0  0  0
 63 65  1  0  0  0
 63141  1  0  0  0
 63142  1  0  0  0
 63143  1  0  0  0
 64144  1  0  0  0
 65145  1  0  0  0
 68 81  1  0  0  0
 71 73  1  0  0  0
 71 74  2  0  0  0
 71146  1  0  0  0
 72 73  2  0  0  0
 72 84  1  0  0  0
 72147  1  0  0  0
 73 82  1  0  0  0
 74 75  1  0  0  0
 74 84  1  0  0  0
 75148  1  0  0  0
 75149  1  0  0  0
 75150  1  0  0  0
 76151  1  0  0  0
 76152  1  0  0  0
 76153  1  0  0  0
 76 83  1  0  0  0
 77 85  1  0  0  0
 77154  1  0  0  0
 77155  1  0  0  0
 77156  1  0  0  0
 78 79  1  0  0  0
 78 83  1  0  0  0
 78157  1  0  0  0
 78158  1  0  0  0
 79 84  1  0  0  0
 79159  1  0  0  0
 79160  1  0  0  0
 80 82  1  0  0  0
 80 85  1  0  0  0
 80161  1  0  0  0
 80162  1  0  0  0
 81 83  1  0  0  0
 81163  1  0  0  0
 81164  1  0  0  0
 82 86  1  0  0  0
 82165  1  0  0  0
 83166  1  0  0  0
 86167  1  0  0  0
 86168  1  0  0  0
 86169  1  0  0  0
M  CHG  1  86   1
M  ISO  4   1 100  68 101  81 101  85 100
M  END
> <chiral flag>
0

> <version>
0

> <s_m_source_file>
/data/baiqing/PycharmProjects/Reinvent-master-3.2/result/LINK_invent/BTK/process_docking_weight1_custom_sum_contain_oxygen_bond_distance_aromatic_linkinvent_7_9_3/rearranged_h_0091.sdf

> <i_m_source_file_index>
67

> <r_mmod_Potential_Energy-OPLS-2005>
-134.10090637207

> <r_mmod_Stretch_Energy-OPLS-2005>
40.6328163146973

> <r_mmod_Bend_Energy-OPLS-2005>
123.024749755859

> <r_mmod_Torsional_Energy-OPLS-2005>
371.217590332031

> <r_mmod_Improper_Torsional_Energy-OPLS-2005>
10.0622758865356

> <r_mmod_Van_der_Waal_Energy-OPLS-2005>
135.517105102539

> <r_mmod_Electrostatic_Energy-OPLS-2005>
-378.518127441406

> <r_mmod_Solvation_Energy-OPLS-2005>
-449.594055175781

> <b_mmod_Minimization_Converged-OPLS-2005>
0

> <r_mmod_RMS_Derivative-OPLS-2005>
4.45750761032104

$$$$
68
                    3D
 Structure written by MMmdl.
164172  0  0  1  0            999 V2000
  -30.6378  -14.6932   20.4637 C   0  0  0  0  0  0
  -30.4287  -12.4220   19.4599 C   0  0  0  0  0  0
  -29.5032  -12.4948   18.2259 C   0  0  0  0  0  0
  -28.0301  -12.3290   18.6474 C   0  0  0  0  0  0
  -27.6447  -13.2293   19.8516 C   0  0  2  0  0  0
  -28.6914  -13.1495   20.9846 C   0  0  0  0  0  0
  -25.2535  -13.8175   20.5712 C   0  0  0  0  0  0
  -24.1820  -13.0432   20.9191 C   0  0  0  0  0  0
  -24.6403  -11.6911   20.8730 C   0  0  0  0  0  0
  -23.9072  -10.4286   21.0394 C   0  0  0  0  0  0
  -24.3619   -9.4209   21.9180 C   0  0  0  0  0  0
  -23.6293   -8.2245   22.0766 C   0  0  0  0  0  0
  -22.4277   -8.0269   21.3548 C   0  0  0  0  0  0
  -21.9909   -9.0245   20.4655 C   0  0  0  0  0  0
  -22.7237  -10.2124   20.3063 C   0  0  0  0  0  0
  -21.6851   -6.0729   22.5275 C   0  0  0  0  0  0
  -21.4011   -6.5636   23.8204 C   0  0  0  0  0  0
  -21.3659   -5.6801   24.9166 C   0  0  0  0  0  0
  -21.6045   -4.3060   24.7226 C   0  0  0  0  0  0
  -21.8819   -3.8144   23.4349 C   0  0  0  0  0  0
  -21.9191   -4.6957   22.3400 C   0  0  0  0  0  0
  -22.7844  -13.5215   21.1842 C   0  0  0  0  0  0
  -22.1667   -4.2145   21.0980 F   0  0  0  0  0  0
  -21.5621   -3.4553   25.7741 F   0  0  0  0  0  0
  -29.9968  -13.4799   20.4002 N   0  0  0  0  0  0
  -26.2966  -12.9398   20.3305 N   0  0  0  0  0  0
  -25.9335  -11.6537   20.5760 N   0  0  0  0  0  0
  -22.0504  -12.8222   22.0411 N   0  0  0  0  0  0
  -25.4219  -15.1910   20.4158 N   0  0  0  0  0  0
  -31.8267  -14.7865   20.1517 O   0  0  0  0  0  0
  -21.6641   -6.8871   21.4239 O   0  0  0  0  0  0
  -22.3536  -14.5518   20.6671 O   0  0  0  0  0  0
  -24.6288  -31.8571   23.1955 C   0  0  0  0  0  0
  -25.9121  -32.4766   23.8317 C   0  0  1  0  0  0
  -27.2302  -27.2887   20.1394 C   0  0  0  0  0  0
  -25.5925  -33.8569   24.2243 N   0  0  0  0  0  0
  -23.4260  -30.4756   21.5390 C   0  0  2  0  0  0
  -24.8771  -28.9193   20.1128 C   0  0  0  0  0  0
  -22.7496  -29.4611   22.4921 C   0  0  0  0  0  0
  -18.0291  -28.1383   22.8488 C   0  0  0  0  0  0
  -24.1486  -36.7274   23.2649 C   0  0  0  0  0  0
  -25.9682  -30.7758   21.3732 C   0  0  0  0  0  0
  -26.0452  -29.3992   20.7207 C   0  0  0  0  0  0
  -27.2284  -28.5984   20.7157 C   0  0  0  0  0  0
  -26.0425  -26.8569   19.5176 C   0  0  0  0  0  0
  -24.8803  -27.6546   19.4979 C   0  0  0  0  0  0
  -23.6458  -29.8026   20.1571 C   0  0  0  0  0  0
  -25.4113  -36.3070   24.0330 C   0  0  1  0  0  0
  -20.5897  -28.3702   23.1263 C   0  0  2  0  0  0
  -20.6786  -26.9425   22.5397 C   0  0  0  0  0  0
  -19.5751  -26.6381   21.5215 C   0  0  0  0  0  0
  -18.1925  -26.7925   22.1625 C   0  0  0  0  0  0
  -19.1548  -28.8858   23.2863 C   0  0  0  0  0  0
  -18.9475  -30.1458   23.8885 C   0  0  0  0  0  0
  -17.6476  -30.6590   24.0567 C   0  0  0  0  0  0
  -25.9058  -34.9447   23.5087 C   0  0  0  0  0  0
  -16.5372  -29.9091   23.6335 C   0  0  0  0  0  0
  -16.7283  -28.6508   23.0363 C   0  0  0  0  0  0
  -26.4494  -31.6599   25.0699 C   0  0  0  0  0  0
  -25.3712  -31.3719   26.1412 C   0  0  0  0  0  0
  -27.0378  -30.3039   24.6167 C   0  0  0  0  0  0
  -27.6035  -32.4375   25.7471 C   0  0  0  0  0  0
  -27.5568  -37.1787   24.8478 C   0  0  0  0  0  0
  -21.4208  -29.3050   22.3662 N   0  0  0  0  0  0
  -26.4290  -37.3769   23.9416 N   0  0  0  0  0  0
  -24.6930  -31.0550   22.0921 N   0  0  0  0  0  0
  -23.4191  -28.8149   23.3025 O   0  0  0  0  0  0
  -28.3425  -26.4315   20.1269 O   0  0  0  0  0  0
  -26.5646  -34.8933   22.4667 O   0  0  0  0  0  0
  -23.5447  -32.1405   23.7245 O   0  0  0  0  0  0
  -28.9491  -22.5099   20.6163 C   0  0  0  0  0  0
  -29.0934  -21.2834   19.8613 C   0  0  0  0  0  0
  -28.6929  -21.3818   18.4949 C   0  0  0  0  0  0
  -28.4696  -23.7426   20.0305 C   0  0  0  0  0  0
  -28.2171  -22.6303   17.9981 C   0  0  0  0  0  0
  -27.8245  -22.8351   16.5429 C   0  0  0  0  0  0
  -27.6539  -18.3610   16.2017 C   0  0  0  0  0  0
  -29.8472  -19.9982   20.4408 C   0  0  0  0  0  0
  -28.8341  -20.2062   17.5224 C   0  0  0  0  0  0
  -28.2478  -25.1068   20.8132 C   0  0  0  0  0  0
  -27.5238  -19.4165   17.3080 C   0  0  0  0  0  0
  -29.2801  -18.4828   20.4249 C   0  0  0  0  0  0
  -30.3448  -17.2786   20.5721 C   0  0  0  0  0  0
  -28.1141  -23.7570   18.7346 N   0  0  0  0  0  0
  -29.8816  -15.8311   20.6660 N   0  0  0  0  0  0
  -31.4716  -12.5336   19.1564 H   0  0  0  0  0  0
  -30.3579  -11.4425   19.9353 H   0  0  0  0  0  0
  -29.7692  -11.7171   17.5080 H   0  0  0  0  0  0
  -29.6396  -13.4483   17.7135 H   0  0  0  0  0  0
  -27.8842  -11.2810   18.9134 H   0  0  0  0  0  0
  -27.3676  -12.5211   17.8021 H   0  0  0  0  0  0
  -27.6439  -14.2521   19.4739 H   0  0  0  0  0  0
  -28.7147  -12.1535   21.4285 H   0  0  0  0  0  0
  -28.4412  -13.8396   21.7924 H   0  0  0  0  0  0
  -25.2760   -9.5683   22.4765 H   0  0  0  0  0  0
  -23.9990   -7.4651   22.7510 H   0  0  0  0  0  0
  -21.0831   -8.8756   19.8982 H   0  0  0  0  0  0
  -22.3673  -10.9660   19.6184 H   0  0  0  0  0  0
  -21.2010   -7.6150   23.9692 H   0  0  0  0  0  0
  -21.1479   -6.0541   25.9065 H   0  0  0  0  0  0
  -22.0595   -2.7611   23.2851 H   0  0  0  0  0  0
  -22.4136  -11.9898   22.4819 H   0  0  0  0  0  0
  -21.1141  -13.1269   22.2646 H   0  0  0  0  0  0
  -24.6477  -15.8372   20.5209 H   0  0  0  0  0  0
  -26.2651  -15.6366   20.0786 H   0  0  0  0  0  0
  -26.7185  -32.5438   23.1064 H   0  0  0  0  0  0
  -25.0072  -33.9708   25.0389 H   0  0  0  0  0  0
  -22.7208  -31.2946   21.3859 H   0  0  0  0  0  0
  -23.3766  -35.9588   23.3320 H   0  0  0  0  0  0
  -24.3555  -36.8906   22.2061 H   0  0  0  0  0  0
  -23.7240  -37.6467   23.6691 H   0  0  0  0  0  0
  -26.1045  -31.5321   20.5998 H   0  0  0  0  0  0
  -26.8466  -30.8289   22.0052 H   0  0  0  0  0  0
  -28.1300  -28.9650   21.1865 H   0  0  0  0  0  0
  -26.0176  -25.8835   19.0476 H   0  0  0  0  0  0
  -23.9892  -27.2793   19.0148 H   0  0  0  0  0  0
  -23.7713  -30.5746   19.3967 H   0  0  0  0  0  0
  -22.7656  -29.2312   19.8553 H   0  0  0  0  0  0
  -25.1302  -36.1907   25.0823 H   0  0  0  0  0  0
  -20.9977  -28.3295   24.1392 H   0  0  0  0  0  0
  -20.5706  -26.2327   23.3610 H   0  0  0  0  0  0
  -21.6656  -26.7442   22.1199 H   0  0  0  0  0  0
  -19.6916  -25.6281   21.1275 H   0  0  0  0  0  0
  -19.6677  -27.3173   20.6730 H   0  0  0  0  0  0
  -17.4195  -26.6679   21.4023 H   0  0  0  0  0  0
  -18.0305  -26.0055   22.9010 H   0  0  0  0  0  0
  -19.7954  -30.7274   24.2257 H   0  0  0  0  0  0
  -17.5040  -31.6277   24.5165 H   0  0  0  0  0  0
  -15.5377  -30.3001   23.7654 H   0  0  0  0  0  0
  -15.8679  -28.0829   22.7081 H   0  0  0  0  0  0
  -24.5876  -30.7095   25.7712 H   0  0  0  0  0  0
  -24.8899  -32.2874   26.4868 H   0  0  0  0  0  0
  -25.8008  -30.8852   27.0175 H   0  0  0  0  0  0
  -26.2962  -29.6750   24.1219 H   0  0  0  0  0  0
  -27.4143  -29.7333   25.4666 H   0  0  0  0  0  0
  -27.8792  -30.4359   23.9356 H   0  0  0  0  0  0
  -27.2635  -33.3703   26.1992 H   0  0  0  0  0  0
  -28.3849  -32.6920   25.0292 H   0  0  0  0  0  0
  -28.0708  -31.8551   26.5424 H   0  0  0  0  0  0
  -28.2597  -38.0074   24.7540 H   0  0  0  0  0  0
  -28.1063  -36.2614   24.6313 H   0  0  0  0  0  0
  -27.2281  -37.1454   25.8879 H   0  0  0  0  0  0
  -20.9408  -29.8798   21.6876 H   0  0  0  0  0  0
  -26.0170  -38.2842   24.1422 H   0  0  0  0  0  0
  -29.2428  -22.5241   21.6577 H   0  0  0  0  0  0
  -27.1022  -22.0941   16.2084 H   0  0  0  0  0  0
  -28.7035  -22.7815   15.9005 H   0  0  0  0  0  0
  -27.3647  -23.8123   16.3915 H   0  0  0  0  0  0
  -26.7072  -17.8442   16.0402 H   0  0  0  0  0  0
  -28.4044  -17.6088   16.4454 H   0  0  0  0  0  0
  -27.9387  -18.8201   15.2546 H   0  0  0  0  0  0
  -30.1160  -20.2230   21.4734 H   0  0  0  0  0  0
  -30.8031  -19.9825   19.9165 H   0  0  0  0  0  0
  -29.6413  -19.5423   17.8253 H   0  0  0  0  0  0
  -29.1742  -20.5888   16.5609 H   0  0  0  0  0  0
  -28.9912  -25.1319   21.6114 H   0  0  0  0  0  0
  -27.2894  -25.0323   21.3289 H   0  0  0  0  0  0
  -27.1918  -18.9449   18.2307 H   0  0  0  0  0  0
  -26.7111  -20.0881   17.0391 H   0  0  0  0  0  0
  -28.7537  -18.2965   19.4981 H   0  0  0  0  0  0
  -28.5196  -18.3998   21.2016 H   0  0  0  0  0  0
  -30.9706  -17.4718   21.4444 H   0  0  0  0  0  0
  -31.0221  -17.3404   19.7186 H   0  0  0  0  0  0
  -28.9078  -15.6789   20.8812 H   0  0  0  0  0  0
  1 25  1  0  0  0
  1 30  2  0  0  0
  1 85  1  0  0  0
  2  3  1  0  0  0
  2 25  1  0  0  0
  2 86  1  0  0  0
  2 87  1  0  0  0
  3  4  1  0  0  0
  3 88  1  0  0  0
  3 89  1  0  0  0
  4  5  1  0  0  0
  4 90  1  0  0  0
  4 91  1  0  0  0
  5  6  1  0  0  0
  5 26  1  0  0  0
  5 92  1  0  0  0
  6 25  1  0  0  0
  6 93  1  0  0  0
  6 94  1  0  0  0
  7  8  2  0  0  0
  7 26  1  0  0  0
  7 29  1  0  0  0
  8  9  1  0  0  0
  8 22  1  0  0  0
  9 10  1  0  0  0
  9 27  2  0  0  0
 10 11  2  0  0  0
 10 15  1  0  0  0
 11 12  1  0  0  0
 11 95  1  0  0  0
 12 13  2  0  0  0
 12 96  1  0  0  0
 13 14  1  0  0  0
 13 31  1  0  0  0
 14 15  2  0  0  0
 14 97  1  0  0  0
 15 98  1  0  0  0
 16 17  2  0  0  0
 16 21  1  0  0  0
 16 31  1  0  0  0
 17 18  1  0  0  0
 17 99  1  0  0  0
 18 19  2  0  0  0
 18100  1  0  0  0
 19 20  1  0  0  0
 19 24  1  0  0  0
 20 21  2  0  0  0
 20101  1  0  0  0
 21 23  1  0  0  0
 22 28  1  0  0  0
 22 32  2  0  0  0
 26 27  1  0  0  0
 28102  1  0  0  0
 28103  1  0  0  0
 29104  1  0  0  0
 29105  1  0  0  0
 33 34  1  0  0  0
 33 66  1  0  0  0
 33 70  2  0  0  0
 34 36  1  0  0  0
 34 59  1  0  0  0
 34106  1  0  0  0
 35 44  2  0  0  0
 35 45  1  0  0  0
 35 68  1  0  0  0
 36 56  1  0  0  0
 36107  1  0  0  0
 37 39  1  0  0  0
 37 47  1  0  0  0
 37 66  1  0  0  0
 37108  1  0  0  0
 38 43  2  0  0  0
 38 46  1  0  0  0
 38 47  1  0  0  0
 39 64  1  0  0  0
 39 67  2  0  0  0
 40 52  1  0  0  0
 40 53  2  0  0  0
 40 58  1  0  0  0
 41109  1  0  0  0
 41110  1  0  0  0
 41111  1  0  0  0
 41 48  1  0  0  0
 42 43  1  0  0  0
 42 66  1  0  0  0
 42112  1  0  0  0
 42113  1  0  0  0
 43 44  1  0  0  0
 44114  1  0  0  0
 45 46  2  0  0  0
 45115  1  0  0  0
 46116  1  0  0  0
 47117  1  0  0  0
 47118  1  0  0  0
 48 56  1  0  0  0
 48 65  1  0  0  0
 48119  1  0  0  0
 49 50  1  0  0  0
 49 53  1  0  0  0
 49 64  1  0  0  0
 49120  1  0  0  0
 50 51  1  0  0  0
 50121  1  0  0  0
 50122  1  0  0  0
 51 52  1  0  0  0
 51123  1  0  0  0
 51124  1  0  0  0
 52125  1  0  0  0
 52126  1  0  0  0
 53 54  1  0  0  0
 54 55  2  0  0  0
 54127  1  0  0  0
 55 57  1  0  0  0
 55128  1  0  0  0
 56 69  2  0  0  0
 57 58  2  0  0  0
 57129  1  0  0  0
 58130  1  0  0  0
 59 60  1  0  0  0
 59 61  1  0  0  0
 59 62  1  0  0  0
 60131  1  0  0  0
 60132  1  0  0  0
 60133  1  0  0  0
 61134  1  0  0  0
 61135  1  0  0  0
 61136  1  0  0  0
 62137  1  0  0  0
 62138  1  0  0  0
 62139  1  0  0  0
 63 65  1  0  0  0
 63140  1  0  0  0
 63141  1  0  0  0
 63142  1  0  0  0
 64143  1  0  0  0
 65144  1  0  0  0
 68 80  1  0  0  0
 71 72  2  0  0  0
 71 74  1  0  0  0
 71145  1  0  0  0
 72 73  1  0  0  0
 72 78  1  0  0  0
 73 75  2  0  0  0
 73 79  1  0  0  0
 74 80  1  0  0  0
 74 84  2  0  0  0
 75 76  1  0  0  0
 75 84  1  0  0  0
 76146  1  0  0  0
 76147  1  0  0  0
 76148  1  0  0  0
 77 81  1  0  0  0
 77149  1  0  0  0
 77150  1  0  0  0
 77151  1  0  0  0
 78 82  1  0  0  0
 78152  1  0  0  0
 78153  1  0  0  0
 79 81  1  0  0  0
 79154  1  0  0  0
 79155  1  0  0  0
 80156  1  0  0  0
 80157  1  0  0  0
 81158  1  0  0  0
 81159  1  0  0  0
 82 83  1  0  0  0
 82160  1  0  0  0
 82161  1  0  0  0
 83 85  1  0  0  0
 83162  1  0  0  0
 83163  1  0  0  0
 85164  1  0  0  0
M  ISO  4   1 100  68 101  80 101  85 100
M  END
> <chiral flag>
0

> <version>
0

> <s_m_source_file>
/data/baiqing/PycharmProjects/Reinvent-master-3.2/result/LINK_invent/BTK/process_docking_weight1_custom_sum_contain_oxygen_bond_distance_aromatic_linkinvent_7_9_3/rearranged_h_0091.sdf

> <i_m_source_file_index>
68

> <r_mmod_Potential_Energy-OPLS-2005>
-24.7541408538818

> <r_mmod_Stretch_Energy-OPLS-2005>
108.750297546387

> <r_mmod_Bend_Energy-OPLS-2005>
155.700622558594

> <r_mmod_Torsional_Energy-OPLS-2005>
230.677047729492

> <r_mmod_Improper_Torsional_Energy-OPLS-2005>
5.99211502075195

> <r_mmod_Van_der_Waal_Energy-OPLS-2005>
137.295349121094

> <r_mmod_Electrostatic_Energy-OPLS-2005>
-505.431396484375

> <r_mmod_Solvation_Energy-OPLS-2005>
-223.402038574219

> <b_mmod_Minimization_Converged-OPLS-2005>
0

> <r_mmod_RMS_Derivative-OPLS-2005>
2.37247776985168

$$$$
69
                    3D
 Structure written by MMmdl.
183192  0  0  1  0            999 V2000
  -30.5851  -14.6561   20.4927 C   0  0  0  0  0  0
  -30.4545  -12.4033   19.4546 C   0  0  0  0  0  0
  -29.5151  -12.5150   18.2309 C   0  0  0  0  0  0
  -28.0361  -12.3525   18.6401 C   0  0  0  0  0  0
  -27.6598  -13.2129   19.8744 C   0  0  2  0  0  0
  -28.7060  -13.0442   21.0020 C   0  0  0  0  0  0
  -25.2576  -13.8155   20.5684 C   0  0  0  0  0  0
  -24.1834  -13.0433   20.9184 C   0  0  0  0  0  0
  -24.6398  -11.6903   20.8747 C   0  0  0  0  0  0
  -23.9066  -10.4288   21.0404 C   0  0  0  0  0  0
  -24.3609   -9.4202   21.9185 C   0  0  0  0  0  0
  -23.6281   -8.2241   22.0757 C   0  0  0  0  0  0
  -22.4271   -8.0276   21.3543 C   0  0  0  0  0  0
  -21.9904   -9.0252   20.4654 C   0  0  0  0  0  0
  -22.7234  -10.2132   20.3059 C   0  0  0  0  0  0
  -21.6846   -6.0731   22.5282 C   0  0  0  0  0  0
  -21.4003   -6.5636   23.8215 C   0  0  0  0  0  0
  -21.3660   -5.6792   24.9181 C   0  0  0  0  0  0
  -21.6043   -4.3053   24.7229 C   0  0  0  0  0  0
  -21.8820   -3.8144   23.4351 C   0  0  0  0  0  0
  -21.9189   -4.6960   22.3408 C   0  0  0  0  0  0
  -22.7849  -13.5226   21.1853 C   0  0  0  0  0  0
  -22.1658   -4.2143   21.0989 F   0  0  0  0  0  0
  -21.5633   -3.4539   25.7749 F   0  0  0  0  0  0
  -30.0242  -13.4056   20.4499 N   0  0  0  0  0  0
  -26.3021  -12.9336   20.3374 N   0  0  0  0  0  0
  -25.9326  -11.6497   20.5780 N   0  0  0  0  0  0
  -22.0489  -12.8218   22.0419 N   0  0  0  0  0  0
  -25.4284  -15.1874   20.4063 N   0  0  0  0  0  0
  -31.7057  -14.8813   20.0265 O   0  0  0  0  0  0
  -21.6634   -6.8873   21.4240 O   0  0  0  0  0  0
  -22.3541  -14.5537   20.6709 O   0  0  0  0  0  0
  -24.6228  -31.8551   23.1963 C   0  0  0  0  0  0
  -25.9083  -32.4717   23.8286 C   0  0  1  0  0  0
  -27.2338  -27.3185   20.1060 C   0  0  0  0  0  0
  -25.5879  -33.8524   24.2211 N   0  0  0  0  0  0
  -23.4182  -30.4749   21.5368 C   0  0  2  0  0  0
  -24.8651  -28.9233   20.1072 C   0  0  0  0  0  0
  -22.7455  -29.4585   22.4898 C   0  0  0  0  0  0
  -18.0285  -28.1380   22.8484 C   0  0  0  0  0  0
  -24.1499  -36.7318   23.2635 C   0  0  0  0  0  0
  -25.9565  -30.7821   21.3695 C   0  0  0  0  0  0
  -26.0294  -29.4086   20.7140 C   0  0  0  0  0  0
  -27.2108  -28.6157   20.7049 C   0  0  0  0  0  0
  -26.0438  -26.8711   19.4918 C   0  0  0  0  0  0
  -24.8742  -27.6599   19.4909 C   0  0  0  0  0  0
  -23.6338  -29.8047   20.1526 C   0  0  0  0  0  0
  -25.4109  -36.3050   24.0323 C   0  0  1  0  0  0
  -20.5881  -28.3679   23.1291 C   0  0  2  0  0  0
  -20.6771  -26.9401   22.5422 C   0  0  0  0  0  0
  -19.5754  -26.6387   21.5217 C   0  0  0  0  0  0
  -18.1930  -26.7918   22.1620 C   0  0  0  0  0  0
  -19.1537  -28.8844   23.2883 C   0  0  0  0  0  0
  -18.9460  -30.1443   23.8900 C   0  0  0  0  0  0
  -17.6467  -30.6585   24.0561 C   0  0  0  0  0  0
  -25.9047  -34.9419   23.5086 C   0  0  0  0  0  0
  -16.5361  -29.9084   23.6333 C   0  0  0  0  0  0
  -16.7276  -28.6509   23.0344 C   0  0  0  0  0  0
  -26.4480  -31.6523   25.0669 C   0  0  0  0  0  0
  -25.3713  -31.3690   26.1415 C   0  0  0  0  0  0
  -27.0309  -30.2908   24.6168 C   0  0  0  0  0  0
  -27.6040  -32.4251   25.7448 C   0  0  0  0  0  0
  -27.5580  -37.1793   24.8453 C   0  0  0  0  0  0
  -21.4170  -29.3024   22.3673 N   0  0  0  0  0  0
  -26.4289  -37.3735   23.9397 N   0  0  0  0  0  0
  -24.6840  -31.0564   22.0896 N   0  0  0  0  0  0
  -23.4184  -28.8136   23.2983 O   0  0  0  0  0  0
  -28.3940  -26.5335   20.1558 O   0  0  0  0  0  0
  -26.5654  -34.8905   22.4683 O   0  0  0  0  0  0
  -23.5406  -32.1367   23.7301 O   0  0  0  0  0  0
  -27.7714  -22.1403   18.1399 C   0  0  0  0  0  0
  -27.5154  -21.4079   16.9837 C   0  0  0  0  0  0
  -29.5302  -21.8960   21.3498 C   0  0  0  0  0  0
  -30.0033  -20.5647   21.2969 C   0  0  0  0  0  0
  -28.6158  -21.6371   19.1470 C   0  0  0  0  0  0
  -29.2170  -20.3114   19.0029 C   0  0  0  0  0  0
  -28.8026  -22.4781   20.2922 C   0  0  0  0  0  0
  -29.8595  -19.7173   20.1663 C   0  0  0  0  0  0
  -28.1869  -20.2020   16.7444 C   0  0  0  0  0  0
  -29.1189  -19.6858   17.6969 C   0  0  0  0  0  0
  -27.8360  -19.4916   15.4387 C   0  0  0  0  0  0
  -33.7847  -19.8245   17.2404 C   0  0  0  0  0  0
  -31.8705  -21.3872   16.9894 C   0  0  0  0  0  0
  -31.3248  -19.1791   15.1195 C   0  0  0  0  0  0
  -32.2059  -17.4747   16.6663 C   0  0  0  0  0  0
  -28.1645  -23.9154   20.5258 C   0  0  0  0  0  0
  -30.4201  -18.2414   20.3686 C   0  0  0  0  0  0
  -30.0097  -18.5146   17.2127 C   0  0  0  0  0  0
  -29.3902  -17.0336   20.4173 C   0  0  0  0  0  0
  -28.5093  -25.1645   19.6005 C   0  0  0  0  0  0
  -32.2487  -19.9407   17.3790 C   0  0  0  0  0  0
  -31.4397  -18.8219   16.6190 C   0  0  0  0  0  0
  -29.7469  -15.6492   20.9168 N   0  0  0  0  0  0
  -31.4893  -12.5571   19.1432 H   0  0  0  0  0  0
  -30.4190  -11.4010   19.8833 H   0  0  0  0  0  0
  -29.7791  -11.7663   17.4824 H   0  0  0  0  0  0
  -29.6553  -13.4855   17.7520 H   0  0  0  0  0  0
  -27.8684  -11.2978   18.8616 H   0  0  0  0  0  0
  -27.3846  -12.5935   17.8001 H   0  0  0  0  0  0
  -27.6831  -14.2520   19.5465 H   0  0  0  0  0  0
  -28.7196  -12.0125   21.3580 H   0  0  0  0  0  0
  -28.4454  -13.6472   21.8734 H   0  0  0  0  0  0
  -25.2748   -9.5676   22.4770 H   0  0  0  0  0  0
  -23.9987   -7.4630   22.7469 H   0  0  0  0  0  0
  -21.0838   -8.8766   19.8960 H   0  0  0  0  0  0
  -22.3682  -10.9669   19.6173 H   0  0  0  0  0  0
  -21.1991   -7.6140   23.9713 H   0  0  0  0  0  0
  -21.1483   -6.0524   25.9079 H   0  0  0  0  0  0
  -22.0598   -2.7605   23.2861 H   0  0  0  0  0  0
  -22.4086  -11.9873   22.4802 H   0  0  0  0  0  0
  -21.1115  -13.1261   22.2635 H   0  0  0  0  0  0
  -24.6585  -15.8413   20.4982 H   0  0  0  0  0  0
  -26.2766  -15.6217   20.0656 H   0  0  0  0  0  0
  -26.7130  -32.5377   23.1010 H   0  0  0  0  0  0
  -24.9901  -33.9655   25.0265 H   0  0  0  0  0  0
  -22.7129  -31.2936   21.3865 H   0  0  0  0  0  0
  -23.3722  -35.9684   23.3278 H   0  0  0  0  0  0
  -24.3589  -36.8990   22.2056 H   0  0  0  0  0  0
  -23.7324  -37.6538   23.6698 H   0  0  0  0  0  0
  -26.1002  -31.5438   20.6018 H   0  0  0  0  0  0
  -26.8327  -30.8229   22.0055 H   0  0  0  0  0  0
  -28.1090  -28.9880   21.1772 H   0  0  0  0  0  0
  -25.9952  -25.9009   19.0203 H   0  0  0  0  0  0
  -23.9786  -27.2835   19.0151 H   0  0  0  0  0  0
  -23.7525  -30.5789   19.3932 H   0  0  0  0  0  0
  -22.7550  -29.2313   19.8504 H   0  0  0  0  0  0
  -25.1281  -36.1889   25.0815 H   0  0  0  0  0  0
  -20.9969  -28.3260   24.1408 H   0  0  0  0  0  0
  -20.5675  -26.2273   23.3610 H   0  0  0  0  0  0
  -21.6642  -26.7438   22.1205 H   0  0  0  0  0  0
  -19.6931  -25.6305   21.1235 H   0  0  0  0  0  0
  -19.6707  -27.3200   20.6751 H   0  0  0  0  0  0
  -17.4194  -26.6660   21.4024 H   0  0  0  0  0  0
  -18.0344  -26.0057   22.9018 H   0  0  0  0  0  0
  -19.7943  -30.7246   24.2274 H   0  0  0  0  0  0
  -17.5030  -31.6264   24.5154 H   0  0  0  0  0  0
  -15.5363  -30.2980   23.7661 H   0  0  0  0  0  0
  -15.8678  -28.0839   22.7044 H   0  0  0  0  0  0
  -24.5907  -30.7002   25.7780 H   0  0  0  0  0  0
  -24.8884  -32.2862   26.4778 H   0  0  0  0  0  0
  -25.8047  -30.8935   27.0223 H   0  0  0  0  0  0
  -26.2880  -29.6633   24.1222 H   0  0  0  0  0  0
  -27.3987  -29.7200   25.4708 H   0  0  0  0  0  0
  -27.8763  -30.4126   23.9388 H   0  0  0  0  0  0
  -27.2647  -33.3559   26.2004 H   0  0  0  0  0  0
  -28.3866  -32.6784   25.0283 H   0  0  0  0  0  0
  -28.0662  -31.8362   26.5387 H   0  0  0  0  0  0
  -28.2562  -38.0114   24.7470 H   0  0  0  0  0  0
  -28.1116  -36.2643   24.6285 H   0  0  0  0  0  0
  -27.2310  -37.1455   25.8859 H   0  0  0  0  0  0
  -20.9329  -29.8764   21.6912 H   0  0  0  0  0  0
  -26.0173  -38.2818   24.1355 H   0  0  0  0  0  0
  -27.2537  -23.0789   18.2511 H   0  0  0  0  0  0
  -26.8125  -21.8020   16.2623 H   0  0  0  0  0  0
  -29.6830  -22.4579   22.2604 H   0  0  0  0  0  0
  -30.4951  -20.1873   22.1829 H   0  0  0  0  0  0
  -27.0326  -20.0045   14.9090 H   0  0  0  0  0  0
  -27.4805  -18.4788   15.6269 H   0  0  0  0  0  0
  -28.6771  -19.4458   14.7534 H   0  0  0  0  0  0
  -34.2876  -20.6503   17.7445 H   0  0  0  0  0  0
  -34.1005  -19.8443   16.1965 H   0  0  0  0  0  0
  -34.1752  -18.9122   17.6917 H   0  0  0  0  0  0
  -32.3367  -22.1079   17.6612 H   0  0  0  0  0  0
  -30.7997  -21.5695   17.0235 H   0  0  0  0  0  0
  -32.2092  -21.6287   15.9816 H   0  0  0  0  0  0
  -30.8178  -18.3930   14.5569 H   0  0  0  0  0  0
  -32.3037  -19.3167   14.6608 H   0  0  0  0  0  0
  -30.7666  -20.1006   14.9618 H   0  0  0  0  0  0
  -31.6240  -16.6699   16.2145 H   0  0  0  0  0  0
  -32.4382  -17.1718   17.6871 H   0  0  0  0  0  0
  -33.1429  -17.5133   16.1098 H   0  0  0  0  0  0
  -28.4265  -24.2116   21.5412 H   0  0  0  0  0  0
  -27.0815  -23.7937   20.5588 H   0  0  0  0  0  0
  -30.9416  -18.2236   21.3260 H   0  0  0  0  0  0
  -31.2307  -18.0464   19.6715 H   0  0  0  0  0  0
  -29.4746  -17.9237   16.4735 H   0  0  0  0  0  0
  -30.0988  -17.7700   17.9792 H   0  0  0  0  0  0
  -28.8856  -16.9129   19.4604 H   0  0  0  0  0  0
  -28.5894  -17.3528   21.0863 H   0  0  0  0  0  0
  -28.0014  -25.1016   18.6399 H   0  0  0  0  0  0
  -29.5660  -25.0740   19.3482 H   0  0  0  0  0  0
  -32.0392  -19.8303   18.4413 H   0  0  0  0  0  0
  -28.9745  -15.2397   21.4244 H   0  0  0  0  0  0
  1 25  1  0  0  0
  1 30  2  0  0  0
  1 93  1  0  0  0
  2  3  1  0  0  0
  2 25  1  0  0  0
  2 94  1  0  0  0
  2 95  1  0  0  0
  3  4  1  0  0  0
  3 96  1  0  0  0
  3 97  1  0  0  0
  4  5  1  0  0  0
  4 98  1  0  0  0
  4 99  1  0  0  0
  5  6  1  0  0  0
  5 26  1  0  0  0
  5100  1  0  0  0
  6 25  1  0  0  0
  6101  1  0  0  0
  6102  1  0  0  0
  7  8  2  0  0  0
  7 26  1  0  0  0
  7 29  1  0  0  0
  8  9  1  0  0  0
  8 22  1  0  0  0
  9 10  1  0  0  0
  9 27  2  0  0  0
 10 11  2  0  0  0
 10 15  1  0  0  0
 11 12  1  0  0  0
 11103  1  0  0  0
 12 13  2  0  0  0
 12104  1  0  0  0
 13 14  1  0  0  0
 13 31  1  0  0  0
 14 15  2  0  0  0
 14105  1  0  0  0
 15106  1  0  0  0
 16 17  2  0  0  0
 16 21  1  0  0  0
 16 31  1  0  0  0
 17 18  1  0  0  0
 17107  1  0  0  0
 18 19  2  0  0  0
 18108  1  0  0  0
 19 20  1  0  0  0
 19 24  1  0  0  0
 20 21  2  0  0  0
 20109  1  0  0  0
 21 23  1  0  0  0
 22 28  1  0  0  0
 22 32  2  0  0  0
 26 27  1  0  0  0
 28110  1  0  0  0
 28111  1  0  0  0
 29112  1  0  0  0
 29113  1  0  0  0
 33 34  1  0  0  0
 33 66  1  0  0  0
 33 70  2  0  0  0
 34 36  1  0  0  0
 34 59  1  0  0  0
 34114  1  0  0  0
 35 44  2  0  0  0
 35 45  1  0  0  0
 35 68  1  0  0  0
 36 56  1  0  0  0
 36115  1  0  0  0
 37 39  1  0  0  0
 37 47  1  0  0  0
 37 66  1  0  0  0
 37116  1  0  0  0
 38 43  2  0  0  0
 38 46  1  0  0  0
 38 47  1  0  0  0
 39 64  1  0  0  0
 39 67  2  0  0  0
 40 52  1  0  0  0
 40 53  2  0  0  0
 40 58  1  0  0  0
 41117  1  0  0  0
 41118  1  0  0  0
 41119  1  0  0  0
 41 48  1  0  0  0
 42 43  1  0  0  0
 42 66  1  0  0  0
 42120  1  0  0  0
 42121  1  0  0  0
 43 44  1  0  0  0
 44122  1  0  0  0
 45 46  2  0  0  0
 45123  1  0  0  0
 46124  1  0  0  0
 47125  1  0  0  0
 47126  1  0  0  0
 48 56  1  0  0  0
 48 65  1  0  0  0
 48127  1  0  0  0
 49 50  1  0  0  0
 49 53  1  0  0  0
 49 64  1  0  0  0
 49128  1  0  0  0
 50 51  1  0  0  0
 50129  1  0  0  0
 50130  1  0  0  0
 51 52  1  0  0  0
 51131  1  0  0  0
 51132  1  0  0  0
 52133  1  0  0  0
 52134  1  0  0  0
 53 54  1  0  0  0
 54 55  2  0  0  0
 54135  1  0  0  0
 55 57  1  0  0  0
 55136  1  0  0  0
 56 69  2  0  0  0
 57 58  2  0  0  0
 57137  1  0  0  0
 58138  1  0  0  0
 59 60  1  0  0  0
 59 61  1  0  0  0
 59 62  1  0  0  0
 60139  1  0  0  0
 60140  1  0  0  0
 60141  1  0  0  0
 61142  1  0  0  0
 61143  1  0  0  0
 61144  1  0  0  0
 62145  1  0  0  0
 62146  1  0  0  0
 62147  1  0  0  0
 63 65  1  0  0  0
 63148  1  0  0  0
 63149  1  0  0  0
 63150  1  0  0  0
 64151  1  0  0  0
 65152  1  0  0  0
 68 90  1  0  0  0
 71 72  2  0  0  0
 71 75  1  0  0  0
 71153  1  0  0  0
 72 79  1  0  0  0
 72154  1  0  0  0
 73 74  1  0  0  0
 73 77  2  0  0  0
 73155  1  0  0  0
 74 78  2  0  0  0
 74156  1  0  0  0
 75 76  2  0  0  0
 75 77  1  0  0  0
 76 78  1  0  0  0
 76 80  1  0  0  0
 77 86  1  0  0  0
 78 87  1  0  0  0
 79 80  2  0  0  0
 79 81  1  0  0  0
 80 88  1  0  0  0
 81157  1  0  0  0
 81158  1  0  0  0
 81159  1  0  0  0
 82160  1  0  0  0
 82161  1  0  0  0
 82162  1  0  0  0
 82 91  1  0  0  0
 83 91  1  0  0  0
 83163  1  0  0  0
 83164  1  0  0  0
 83165  1  0  0  0
 84166  1  0  0  0
 84167  1  0  0  0
 84168  1  0  0  0
 84 92  1  0  0  0
 85 92  1  0  0  0
 85169  1  0  0  0
 85170  1  0  0  0
 85171  1  0  0  0
 86 90  1  0  0  0
 86172  1  0  0  0
 86173  1  0  0  0
 87 89  1  0  0  0
 87174  1  0  0  0
 87175  1  0  0  0
 88 92  1  0  0  0
 88176  1  0  0  0
 88177  1  0  0  0
 89 93  1  0  0  0
 89178  1  0  0  0
 89179  1  0  0  0
 90180  1  0  0  0
 90181  1  0  0  0
 91 92  1  0  0  0
 91182  1  0  0  0
 93183  1  0  0  0
M  ISO  4   1 100  68 101  90 101  93 100
M  END
> <chiral flag>
0

> <version>
0

> <s_m_source_file>
/data/baiqing/PycharmProjects/Reinvent-master-3.2/result/LINK_invent/BTK/process_docking_weight1_custom_sum_contain_oxygen_bond_distance_aromatic_linkinvent_7_9_3/rearranged_h_0091.sdf

> <i_m_source_file_index>
69

> <r_mmod_Potential_Energy-OPLS-2005>
207.877044677734

> <r_mmod_Stretch_Energy-OPLS-2005>
112.045219421387

> <r_mmod_Bend_Energy-OPLS-2005>
218.741714477539

> <r_mmod_Torsional_Energy-OPLS-2005>
256.319702148438

> <r_mmod_Improper_Torsional_Energy-OPLS-2005>
6.86202239990234

> <r_mmod_Van_der_Waal_Energy-OPLS-2005>
173.135803222656

> <r_mmod_Electrostatic_Energy-OPLS-2005>
-408.514038085938

> <r_mmod_Solvation_Energy-OPLS-2005>
-201.430786132812

> <b_mmod_Minimization_Converged-OPLS-2005>
0

> <r_mmod_RMS_Derivative-OPLS-2005>
2.3592541217804

$$$$
70
                    3D
 Structure written by MMmdl.
170178  0  0  1  0            999 V2000
  -30.5937  -14.7313   20.4689 C   0  0  0  0  0  0
  -30.4387  -12.4362   19.5021 C   0  0  0  0  0  0
  -29.5236  -12.5050   18.2584 C   0  0  0  0  0  0
  -28.0485  -12.3226   18.6622 C   0  0  0  0  0  0
  -27.6483  -13.2228   19.8623 C   0  0  2  0  0  0
  -28.6840  -13.1329   21.0077 C   0  0  0  0  0  0
  -25.2528  -13.8163   20.5687 C   0  0  0  0  0  0
  -24.1804  -13.0441   20.9207 C   0  0  0  0  0  0
  -24.6374  -11.6908   20.8722 C   0  0  0  0  0  0
  -23.9046  -10.4298   21.0381 C   0  0  0  0  0  0
  -24.3606   -9.4211   21.9150 C   0  0  0  0  0  0
  -23.6302   -8.2232   22.0726 C   0  0  0  0  0  0
  -22.4280   -8.0261   21.3515 C   0  0  0  0  0  0
  -21.9904   -9.0217   20.4620 C   0  0  0  0  0  0
  -22.7218  -10.2113   20.3028 C   0  0  0  0  0  0
  -21.6878   -6.0734   22.5287 C   0  0  0  0  0  0
  -21.4016   -6.5625   23.8215 C   0  0  0  0  0  0
  -21.3646   -5.6775   24.9162 C   0  0  0  0  0  0
  -21.6046   -4.3042   24.7219 C   0  0  0  0  0  0
  -21.8817   -3.8133   23.4342 C   0  0  0  0  0  0
  -21.9195   -4.6954   22.3401 C   0  0  0  0  0  0
  -22.7827  -13.5248   21.1815 C   0  0  0  0  0  0
  -22.1673   -4.2134   21.0982 F   0  0  0  0  0  0
  -21.5607   -3.4523   25.7732 F   0  0  0  0  0  0
  -29.9952  -13.4896   20.4471 N   0  0  0  0  0  0
  -26.2954  -12.9354   20.3311 N   0  0  0  0  0  0
  -25.9314  -11.6509   20.5787 N   0  0  0  0  0  0
  -22.0468  -12.8263   22.0399 N   0  0  0  0  0  0
  -25.4221  -15.1890   20.4062 N   0  0  0  0  0  0
  -31.7516  -14.8678   20.0687 O   0  0  0  0  0  0
  -21.6639   -6.8869   21.4249 O   0  0  0  0  0  0
  -22.3503  -14.5527   20.6621 O   0  0  0  0  0  0
  -24.6254  -31.8555   23.1980 C   0  0  0  0  0  0
  -25.9091  -32.4756   23.8309 C   0  0  1  0  0  0
  -27.2124  -27.2793   20.1494 C   0  0  0  0  0  0
  -25.5884  -33.8561   24.2226 N   0  0  0  0  0  0
  -23.4198  -30.4774   21.5418 C   0  0  2  0  0  0
  -24.8696  -28.9222   20.1128 C   0  0  0  0  0  0
  -22.7461  -29.4603   22.4935 C   0  0  0  0  0  0
  -18.0274  -28.1376   22.8492 C   0  0  0  0  0  0
  -24.1487  -36.7307   23.2639 C   0  0  0  0  0  0
  -25.9630  -30.7766   21.3740 C   0  0  0  0  0  0
  -26.0373  -29.3970   20.7259 C   0  0  0  0  0  0
  -27.2153  -28.5871   20.7343 C   0  0  0  0  0  0
  -26.0330  -26.8657   19.5012 C   0  0  0  0  0  0
  -24.8714  -27.6621   19.4912 C   0  0  0  0  0  0
  -23.6372  -29.8059   20.1589 C   0  0  0  0  0  0
  -25.4110  -36.3071   24.0321 C   0  0  1  0  0  0
  -20.5879  -28.3676   23.1297 C   0  0  2  0  0  0
  -20.6762  -26.9397   22.5434 C   0  0  0  0  0  0
  -19.5746  -26.6372   21.5226 C   0  0  0  0  0  0
  -18.1919  -26.7919   22.1627 C   0  0  0  0  0  0
  -19.1530  -28.8848   23.2888 C   0  0  0  0  0  0
  -18.9449  -30.1449   23.8896 C   0  0  0  0  0  0
  -17.6450  -30.6590   24.0554 C   0  0  0  0  0  0
  -25.9045  -34.9438   23.5082 C   0  0  0  0  0  0
  -16.5343  -29.9091   23.6325 C   0  0  0  0  0  0
  -16.7260  -28.6507   23.0349 C   0  0  0  0  0  0
  -26.4464  -31.6580   25.0683 C   0  0  0  0  0  0
  -25.3693  -31.3753   26.1410 C   0  0  0  0  0  0
  -27.0282  -30.2980   24.6161 C   0  0  0  0  0  0
  -27.6003  -32.4337   25.7465 C   0  0  0  0  0  0
  -27.5587  -37.1795   24.8447 C   0  0  0  0  0  0
  -21.4178  -29.3027   22.3688 N   0  0  0  0  0  0
  -26.4272  -37.3783   23.9414 N   0  0  0  0  0  0
  -24.6889  -31.0547   22.0952 N   0  0  0  0  0  0
  -23.4187  -28.8137   23.3008 O   0  0  0  0  0  0
  -28.3082  -26.3956   20.1517 O   0  0  0  0  0  0
  -26.5659  -34.8920   22.4674 O   0  0  0  0  0  0
  -23.5420  -32.1383   23.7302 O   0  0  0  0  0  0
  -28.7800  -22.4648   20.8524 C   0  0  0  0  0  0
  -28.4564  -23.6825   18.8034 C   0  0  0  0  0  0
  -28.5503  -23.7400   20.2029 C   0  0  0  0  0  0
  -28.9453  -21.2355   20.1106 C   0  0  0  0  0  0
  -28.6059  -22.4515   18.1195 C   0  0  0  0  0  0
  -27.0416  -24.9677   21.8365 C   0  0  0  0  0  0
  -29.5006  -25.3757   21.8831 C   0  0  0  0  0  0
  -29.8408  -22.3476   15.9199 C   0  0  0  0  0  0
  -27.6626  -23.5443   15.9841 C   0  0  0  0  0  0
  -27.6780  -21.0726   16.1993 C   0  0  0  0  0  0
  -28.8358  -19.7658   20.7269 C   0  0  0  0  0  0
  -29.9851  -18.6234   20.7086 C   0  0  0  0  0  0
  -29.7388  -17.1843   20.0021 C   0  0  0  0  0  0
  -28.3049  -25.1220   20.9551 C   0  0  0  0  0  0
  -28.4538  -22.3547   16.5830 C   0  0  0  0  0  0
  -28.8957  -21.2861   18.7619 N   0  0  0  0  0  0
  -29.7920  -15.8320   20.7248 N   0  0  0  0  0  0
  -31.4841  -12.5609   19.2111 H   0  0  0  0  0  0
  -30.3759  -11.4559   19.9770 H   0  0  0  0  0  0
  -29.8171  -11.7433   17.5350 H   0  0  0  0  0  0
  -29.6480  -13.4683   17.7603 H   0  0  0  0  0  0
  -27.9215  -11.2753   18.9362 H   0  0  0  0  0  0
  -27.3915  -12.4954   17.8089 H   0  0  0  0  0  0
  -27.6510  -14.2477   19.4898 H   0  0  0  0  0  0
  -28.7121  -12.1250   21.4241 H   0  0  0  0  0  0
  -28.4095  -13.7942   21.8297 H   0  0  0  0  0  0
  -25.2758   -9.5700   22.4706 H   0  0  0  0  0  0
  -24.0018   -7.4641   22.7444 H   0  0  0  0  0  0
  -21.0831   -8.8727   19.8948 H   0  0  0  0  0  0
  -22.3664  -10.9620   19.6121 H   0  0  0  0  0  0
  -21.2018   -7.6141   23.9725 H   0  0  0  0  0  0
  -21.1470   -6.0497   25.9074 H   0  0  0  0  0  0
  -22.0609   -2.7600   23.2842 H   0  0  0  0  0  0
  -22.4128  -12.0030   22.4942 H   0  0  0  0  0  0
  -21.1018  -13.1200   22.2425 H   0  0  0  0  0  0
  -24.6489  -15.8402   20.4878 H   0  0  0  0  0  0
  -26.2652  -15.6236   20.0552 H   0  0  0  0  0  0
  -26.7142  -32.5433   23.1047 H   0  0  0  0  0  0
  -24.9911  -33.9689   25.0281 H   0  0  0  0  0  0
  -22.7147  -31.2989   21.3956 H   0  0  0  0  0  0
  -23.3741  -35.9647   23.3273 H   0  0  0  0  0  0
  -24.3576  -36.8967   22.2060 H   0  0  0  0  0  0
  -23.7250  -37.6500   23.6692 H   0  0  0  0  0  0
  -26.0928  -31.5359   20.6014 H   0  0  0  0  0  0
  -26.8452  -30.8334   22.0005 H   0  0  0  0  0  0
  -28.1095  -28.9442   21.2256 H   0  0  0  0  0  0
  -26.0041  -25.8956   19.0244 H   0  0  0  0  0  0
  -23.9759  -27.2929   19.0098 H   0  0  0  0  0  0
  -23.7564  -30.5793   19.3989 H   0  0  0  0  0  0
  -22.7573  -29.2334   19.8575 H   0  0  0  0  0  0
  -25.1297  -36.1902   25.0816 H   0  0  0  0  0  0
  -20.9974  -28.3246   24.1414 H   0  0  0  0  0  0
  -20.5654  -26.2278   23.3628 H   0  0  0  0  0  0
  -21.6630  -26.7422   22.1230 H   0  0  0  0  0  0
  -19.6899  -25.6281   21.1256 H   0  0  0  0  0  0
  -19.6685  -27.3181   20.6755 H   0  0  0  0  0  0
  -17.4192  -26.6668   21.4022 H   0  0  0  0  0  0
  -18.0312  -26.0063   22.9028 H   0  0  0  0  0  0
  -19.7926  -30.7261   24.2269 H   0  0  0  0  0  0
  -17.5006  -31.6268   24.5146 H   0  0  0  0  0  0
  -15.5343  -30.2990   23.7642 H   0  0  0  0  0  0
  -15.8661  -28.0825   22.7065 H   0  0  0  0  0  0
  -24.5806  -30.7180   25.7735 H   0  0  0  0  0  0
  -24.8957  -32.2942   26.4878 H   0  0  0  0  0  0
  -25.7988  -30.8867   27.0160 H   0  0  0  0  0  0
  -26.2846  -29.6757   24.1160 H   0  0  0  0  0  0
  -27.3915  -29.7218   25.4681 H   0  0  0  0  0  0
  -27.8755  -30.4227   23.9412 H   0  0  0  0  0  0
  -27.2559  -33.3609   26.2070 H   0  0  0  0  0  0
  -28.3795  -32.6965   25.0294 H   0  0  0  0  0  0
  -28.0692  -31.8457   26.5368 H   0  0  0  0  0  0
  -28.2574  -38.0124   24.7530 H   0  0  0  0  0  0
  -28.1111  -36.2657   24.6207 H   0  0  0  0  0  0
  -27.2314  -37.1369   25.8849 H   0  0  0  0  0  0
  -20.9342  -29.8751   21.6911 H   0  0  0  0  0  0
  -26.0147  -38.2843   24.1452 H   0  0  0  0  0  0
  -28.7676  -22.4195   21.9328 H   0  0  0  0  0  0
  -28.2434  -24.6003   18.2792 H   0  0  0  0  0  0
  -27.1661  -24.1698   22.5693 H   0  0  0  0  0  0
  -26.1664  -24.7081   21.2406 H   0  0  0  0  0  0
  -26.8120  -25.8730   22.3987 H   0  0  0  0  0  0
  -29.6298  -24.5746   22.6096 H   0  0  0  0  0  0
  -29.3828  -26.3065   22.4387 H   0  0  0  0  0  0
  -30.4220  -25.4509   21.3069 H   0  0  0  0  0  0
  -30.3598  -23.2915   16.0916 H   0  0  0  0  0  0
  -29.7520  -22.2122   14.8427 H   0  0  0  0  0  0
  -30.4729  -21.5478   16.3065 H   0  0  0  0  0  0
  -28.1711  -24.4980   16.1298 H   0  0  0  0  0  0
  -26.6638  -23.6284   16.4177 H   0  0  0  0  0  0
  -27.5393  -23.4262   14.9078 H   0  0  0  0  0  0
  -28.1983  -20.1701   16.5246 H   0  0  0  0  0  0
  -27.5491  -20.9916   15.1195 H   0  0  0  0  0  0
  -26.6872  -21.0574   16.6565 H   0  0  0  0  0  0
  -27.9466  -19.3286   20.2739 H   0  0  0  0  0  0
  -28.5517  -19.9060   21.7700 H   0  0  0  0  0  0
  -30.2907  -18.4423   21.7403 H   0  0  0  0  0  0
  -30.8690  -19.0713   20.2522 H   0  0  0  0  0  0
  -30.4195  -17.1265   19.1530 H   0  0  0  0  0  0
  -28.7531  -17.2253   19.5389 H   0  0  0  0  0  0
  -28.9135  -15.5690   21.1484 H   0  0  0  0  0  0
  1 25  1  0  0  0
  1 30  2  0  0  0
  1 87  1  0  0  0
  2  3  1  0  0  0
  2 25  1  0  0  0
  2 88  1  0  0  0
  2 89  1  0  0  0
  3  4  1  0  0  0
  3 90  1  0  0  0
  3 91  1  0  0  0
  4  5  1  0  0  0
  4 92  1  0  0  0
  4 93  1  0  0  0
  5  6  1  0  0  0
  5 26  1  0  0  0
  5 94  1  0  0  0
  6 25  1  0  0  0
  6 95  1  0  0  0
  6 96  1  0  0  0
  7  8  2  0  0  0
  7 26  1  0  0  0
  7 29  1  0  0  0
  8  9  1  0  0  0
  8 22  1  0  0  0
  9 10  1  0  0  0
  9 27  2  0  0  0
 10 11  2  0  0  0
 10 15  1  0  0  0
 11 12  1  0  0  0
 11 97  1  0  0  0
 12 13  2  0  0  0
 12 98  1  0  0  0
 13 14  1  0  0  0
 13 31  1  0  0  0
 14 15  2  0  0  0
 14 99  1  0  0  0
 15100  1  0  0  0
 16 17  2  0  0  0
 16 21  1  0  0  0
 16 31  1  0  0  0
 17 18  1  0  0  0
 17101  1  0  0  0
 18 19  2  0  0  0
 18102  1  0  0  0
 19 20  1  0  0  0
 19 24  1  0  0  0
 20 21  2  0  0  0
 20103  1  0  0  0
 21 23  1  0  0  0
 22 28  1  0  0  0
 22 32  2  0  0  0
 26 27  1  0  0  0
 28104  1  0  0  0
 28105  1  0  0  0
 29106  1  0  0  0
 29107  1  0  0  0
 33 34  1  0  0  0
 33 66  1  0  0  0
 33 70  2  0  0  0
 34 36  1  0  0  0
 34 59  1  0  0  0
 34108  1  0  0  0
 35 44  2  0  0  0
 35 45  1  0  0  0
 35 68  1  0  0  0
 36 56  1  0  0  0
 36109  1  0  0  0
 37 39  1  0  0  0
 37 47  1  0  0  0
 37 66  1  0  0  0
 37110  1  0  0  0
 38 43  2  0  0  0
 38 46  1  0  0  0
 38 47  1  0  0  0
 39 64  1  0  0  0
 39 67  2  0  0  0
 40 52  1  0  0  0
 40 53  2  0  0  0
 40 58  1  0  0  0
 41111  1  0  0  0
 41112  1  0  0  0
 41113  1  0  0  0
 41 48  1  0  0  0
 42 43  1  0  0  0
 42 66  1  0  0  0
 42114  1  0  0  0
 42115  1  0  0  0
 43 44  1  0  0  0
 44116  1  0  0  0
 45 46  2  0  0  0
 45117  1  0  0  0
 46118  1  0  0  0
 47119  1  0  0  0
 47120  1  0  0  0
 48 56  1  0  0  0
 48 65  1  0  0  0
 48121  1  0  0  0
 49 50  1  0  0  0
 49 53  1  0  0  0
 49 64  1  0  0  0
 49122  1  0  0  0
 50 51  1  0  0  0
 50123  1  0  0  0
 50124  1  0  0  0
 51 52  1  0  0  0
 51125  1  0  0  0
 51126  1  0  0  0
 52127  1  0  0  0
 52128  1  0  0  0
 53 54  1  0  0  0
 54 55  2  0  0  0
 54129  1  0  0  0
 55 57  1  0  0  0
 55130  1  0  0  0
 56 69  2  0  0  0
 57 58  2  0  0  0
 57131  1  0  0  0
 58132  1  0  0  0
 59 60  1  0  0  0
 59 61  1  0  0  0
 59 62  1  0  0  0
 60133  1  0  0  0
 60134  1  0  0  0
 60135  1  0  0  0
 61136  1  0  0  0
 61137  1  0  0  0
 61138  1  0  0  0
 62139  1  0  0  0
 62140  1  0  0  0
 62141  1  0  0  0
 63 65  1  0  0  0
 63142  1  0  0  0
 63143  1  0  0  0
 63144  1  0  0  0
 64145  1  0  0  0
 65146  1  0  0  0
 68 84  1  0  0  0
 71 73  2  0  0  0
 71 74  1  0  0  0
 71147  1  0  0  0
 72 73  1  0  0  0
 72 75  2  0  0  0
 72148  1  0  0  0
 73 84  1  0  0  0
 74 81  1  0  0  0
 74 86  2  0  0  0
 75 85  1  0  0  0
 75 86  1  0  0  0
 76149  1  0  0  0
 76150  1  0  0  0
 76151  1  0  0  0
 76 84  1  0  0  0
 77 84  1  0  0  0
 77152  1  0  0  0
 77153  1  0  0  0
 77154  1  0  0  0
 78155  1  0  0  0
 78156  1  0  0  0
 78157  1  0  0  0
 78 85  1  0  0  0
 79 85  1  0  0  0
 79158  1  0  0  0
 79159  1  0  0  0
 79160  1  0  0  0
 80 85  1  0  0  0
 80161  1  0  0  0
 80162  1  0  0  0
 80163  1  0  0  0
 81 82  1  0  0  0
 81164  1  0  0  0
 81165  1  0  0  0
 82 83  1  0  0  0
 82166  1  0  0  0
 82167  1  0  0  0
 83 87  1  0  0  0
 83168  1  0  0  0
 83169  1  0  0  0
 87170  1  0  0  0
M  ISO  4   1 100  68 101  84 101  87 100
M  END
> <chiral flag>
0

> <version>
0

> <s_m_source_file>
/data/baiqing/PycharmProjects/Reinvent-master-3.2/result/LINK_invent/BTK/process_docking_weight1_custom_sum_contain_oxygen_bond_distance_aromatic_linkinvent_7_9_3/rearranged_h_0091.sdf

> <i_m_source_file_index>
70

> <r_mmod_Potential_Energy-OPLS-2005>
-34.1794090270996

> <r_mmod_Stretch_Energy-OPLS-2005>
120.538749694824

> <r_mmod_Bend_Energy-OPLS-2005>
191.047286987305

> <r_mmod_Torsional_Energy-OPLS-2005>
269.985565185547

> <r_mmod_Improper_Torsional_Energy-OPLS-2005>
9.66880989074707

> <r_mmod_Van_der_Waal_Energy-OPLS-2005>
142.489181518555

> <r_mmod_Electrostatic_Energy-OPLS-2005>
-638.211181640625

> <r_mmod_Solvation_Energy-OPLS-2005>
-206.222869873047

> <b_mmod_Minimization_Converged-OPLS-2005>
0

> <r_mmod_RMS_Derivative-OPLS-2005>
4.18395900726318

$$$$
71
                    3D
 Structure written by MMmdl.
186194  0  0  1  0            999 V2000
  -30.7599  -14.3886   20.6577 C   0  0  0  0  0  0
  -30.4197  -12.2976   19.3922 C   0  0  0  0  0  0
  -29.4841  -12.5229   18.1894 C   0  0  0  0  0  0
  -28.0083  -12.3822   18.6088 C   0  0  0  0  0  0
  -27.6659  -13.2060   19.8780 C   0  0  2  0  0  0
  -28.7079  -12.9544   20.9895 C   0  0  0  0  0  0
  -25.2613  -13.8168   20.5683 C   0  0  0  0  0  0
  -24.1852  -13.0448   20.9170 C   0  0  0  0  0  0
  -24.6401  -11.6914   20.8730 C   0  0  0  0  0  0
  -23.9064  -10.4301   21.0400 C   0  0  0  0  0  0
  -24.3615   -9.4220   21.9182 C   0  0  0  0  0  0
  -23.6293   -8.2255   22.0752 C   0  0  0  0  0  0
  -22.4276   -8.0288   21.3550 C   0  0  0  0  0  0
  -21.9912   -9.0261   20.4647 C   0  0  0  0  0  0
  -22.7238  -10.2137   20.3051 C   0  0  0  0  0  0
  -21.6852   -6.0735   22.5280 C   0  0  0  0  0  0
  -21.4011   -6.5639   23.8211 C   0  0  0  0  0  0
  -21.3657   -5.6794   24.9177 C   0  0  0  0  0  0
  -21.6038   -4.3057   24.7228 C   0  0  0  0  0  0
  -21.8820   -3.8147   23.4349 C   0  0  0  0  0  0
  -21.9196   -4.6962   22.3406 C   0  0  0  0  0  0
  -22.7873  -13.5252   21.1832 C   0  0  0  0  0  0
  -22.1661   -4.2151   21.0980 F   0  0  0  0  0  0
  -21.5632   -3.4536   25.7737 F   0  0  0  0  0  0
  -30.0461  -13.2533   20.4446 N   0  0  0  0  0  0
  -26.3054  -12.9332   20.3392 N   0  0  0  0  0  0
  -25.9331  -11.6491   20.5775 N   0  0  0  0  0  0
  -22.0506  -12.8248   22.0385 N   0  0  0  0  0  0
  -25.4370  -15.1882   20.4090 N   0  0  0  0  0  0
  -31.8113  -14.6481   20.0690 O   0  0  0  0  0  0
  -21.6642   -6.8883   21.4244 O   0  0  0  0  0  0
  -22.3566  -14.5565   20.6690 O   0  0  0  0  0  0
  -24.6153  -31.8704   23.2116 C   0  0  0  0  0  0
  -25.9047  -32.4852   23.8412 C   0  0  1  0  0  0
  -27.2265  -27.4374   20.0835 C   0  0  0  0  0  0
  -25.5930  -33.8652   24.2345 N   0  0  0  0  0  0
  -23.4017  -30.4982   21.5513 C   0  0  2  0  0  0
  -24.8460  -28.9711   20.1122 C   0  0  0  0  0  0
  -22.7412  -29.4677   22.4959 C   0  0  0  0  0  0
  -18.0281  -28.1368   22.8488 C   0  0  0  0  0  0
  -24.1496  -36.7310   23.2642 C   0  0  0  0  0  0
  -25.9336  -30.8348   21.3670 C   0  0  0  0  0  0
  -26.0089  -29.4709   20.7122 C   0  0  0  0  0  0
  -27.2031  -28.7119   20.6952 C   0  0  0  0  0  0
  -26.0478  -26.9688   19.4573 C   0  0  0  0  0  0
  -24.8605  -27.7191   19.4824 C   0  0  0  0  0  0
  -23.6098  -29.8387   20.1636 C   0  0  0  0  0  0
  -25.4119  -36.3122   24.0344 C   0  0  1  0  0  0
  -20.5876  -28.3676   23.1293 C   0  0  2  0  0  0
  -20.6779  -26.9411   22.5389 C   0  0  0  0  0  0
  -19.5768  -26.6378   21.5191 C   0  0  0  0  0  0
  -18.1947  -26.7926   22.1598 C   0  0  0  0  0  0
  -19.1531  -28.8829   23.2906 C   0  0  0  0  0  0
  -18.9471  -30.1441   23.8924 C   0  0  0  0  0  0
  -17.6476  -30.6584   24.0565 C   0  0  0  0  0  0
  -25.9047  -34.9494   23.5130 C   0  0  0  0  0  0
  -16.5360  -29.9083   23.6321 C   0  0  0  0  0  0
  -16.7268  -28.6494   23.0352 C   0  0  0  0  0  0
  -26.4471  -31.6625   25.0737 C   0  0  0  0  0  0
  -25.3726  -31.3709   26.1474 C   0  0  0  0  0  0
  -27.0299  -30.3081   24.6089 C   0  0  0  0  0  0
  -27.6072  -32.4319   25.7482 C   0  0  0  0  0  0
  -27.5591  -37.1813   24.8475 C   0  0  0  0  0  0
  -21.4136  -29.3061   22.3705 N   0  0  0  0  0  0
  -26.4304  -37.3807   23.9420 N   0  0  0  0  0  0
  -24.6681  -31.0824   22.1013 N   0  0  0  0  0  0
  -23.4186  -28.8207   23.2988 O   0  0  0  0  0  0
  -28.3891  -26.6895   20.0827 O   0  0  0  0  0  0
  -26.5594  -34.8941   22.4680 O   0  0  0  0  0  0
  -23.5338  -32.1442   23.7506 O   0  0  0  0  0  0
  -31.5010  -22.2932   19.4597 C   0  0  0  0  0  0
  -32.5089  -21.3136   19.5182 C   0  0  0  0  0  0
  -29.8388  -20.5810   19.9235 C   0  0  0  0  0  0
  -30.1548  -21.9363   19.6658 C   0  0  0  0  0  0
  -32.1950  -19.9617   19.7787 C   0  0  0  0  0  0
  -30.8405  -19.5841   19.9895 C   0  0  0  0  0  0
  -28.3695  -22.8861   18.1841 C   0  0  0  0  0  0
  -36.1533  -18.4265   18.4943 C   0  0  0  0  0  0
  -34.9805  -17.0555   16.7641 C   0  0  0  0  0  0
  -34.9248  -16.3335   19.1554 C   0  0  0  0  0  0
  -30.7102  -18.8224   22.7441 C   0  0  0  0  0  0
  -28.6533  -17.6137   22.0142 C   0  0  0  0  0  0
  -33.3432  -18.9628   19.7957 C   0  0  0  0  0  0
  -30.4176  -18.1321   20.2689 C   0  0  0  0  0  0
  -33.6088  -18.3792   18.3908 C   0  0  0  0  0  0
  -29.4347  -24.4293   19.9190 C   0  0  0  0  0  0
  -30.8875  -16.4117   22.1323 C   0  0  0  0  0  0
  -28.2337  -25.2883   20.3738 C   0  0  0  0  0  0
  -29.0276  -22.9669   19.5740 C   0  0  2  0  0  0
  -34.9116  -17.5560   18.2197 C   0  0  0  0  0  0
  -30.1740  -17.7479   21.7702 C   0  0  0  0  0  0
  -30.2503  -15.2162   21.5772 N   0  0  0  0  0  0
  -31.4623  -12.4007   19.0849 H   0  0  0  0  0  0
  -30.3219  -11.2773   19.7664 H   0  0  0  0  0  0
  -29.7146  -11.8114   17.3954 H   0  0  0  0  0  0
  -29.6539  -13.5161   17.7693 H   0  0  0  0  0  0
  -27.8135  -11.3249   18.7902 H   0  0  0  0  0  0
  -27.3543  -12.6741   17.7859 H   0  0  0  0  0  0
  -27.7214  -14.2596   19.6024 H   0  0  0  0  0  0
  -28.6772  -11.9104   21.3060 H   0  0  0  0  0  0
  -28.4580  -13.5280   21.8824 H   0  0  0  0  0  0
  -25.2754   -9.5693   22.4764 H   0  0  0  0  0  0
  -23.9995   -7.4645   22.7471 H   0  0  0  0  0  0
  -21.0843   -8.8778   19.8956 H   0  0  0  0  0  0
  -22.3698  -10.9675   19.6160 H   0  0  0  0  0  0
  -21.1996   -7.6146   23.9720 H   0  0  0  0  0  0
  -21.1475   -6.0520   25.9079 H   0  0  0  0  0  0
  -22.0601   -2.7608   23.2851 H   0  0  0  0  0  0
  -22.4095  -11.9898   22.4772 H   0  0  0  0  0  0
  -21.1130  -13.1294   22.2581 H   0  0  0  0  0  0
  -24.6763  -15.8502   20.5155 H   0  0  0  0  0  0
  -26.3002  -15.6222   20.1073 H   0  0  0  0  0  0
  -26.7117  -32.5569   23.1172 H   0  0  0  0  0  0
  -25.0167  -33.9845   25.0546 H   0  0  0  0  0  0
  -22.6919  -31.3165   21.4124 H   0  0  0  0  0  0
  -23.3783  -35.9621   23.3307 H   0  0  0  0  0  0
  -24.3592  -36.8905   22.2056 H   0  0  0  0  0  0
  -23.7210  -37.6503   23.6641 H   0  0  0  0  0  0
  -26.0473  -31.6012   20.5986 H   0  0  0  0  0  0
  -26.8210  -30.8850   21.9861 H   0  0  0  0  0  0
  -28.1009  -29.0949   21.1605 H   0  0  0  0  0  0
  -26.0235  -26.0360   18.9143 H   0  0  0  0  0  0
  -23.9734  -27.3363   18.9977 H   0  0  0  0  0  0
  -23.7185  -30.6178   19.4087 H   0  0  0  0  0  0
  -22.7337  -29.2614   19.8623 H   0  0  0  0  0  0
  -25.1271  -36.2001   25.0837 H   0  0  0  0  0  0
  -20.9974  -28.3228   24.1404 H   0  0  0  0  0  0
  -20.5692  -26.2274   23.3574 H   0  0  0  0  0  0
  -21.6658  -26.7459   22.1183 H   0  0  0  0  0  0
  -19.6956  -25.6277   21.1248 H   0  0  0  0  0  0
  -19.6737  -27.3179   20.6722 H   0  0  0  0  0  0
  -17.4211  -26.6674   21.4001 H   0  0  0  0  0  0
  -18.0372  -26.0039   22.8975 H   0  0  0  0  0  0
  -19.7947  -30.7255   24.2307 H   0  0  0  0  0  0
  -17.5029  -31.6286   24.5140 H   0  0  0  0  0  0
  -15.5374  -30.3014   23.7641 H   0  0  0  0  0  0
  -15.8650  -28.0835   22.7065 H   0  0  0  0  0  0
  -24.5929  -30.7037   25.7778 H   0  0  0  0  0  0
  -24.8896  -32.2857   26.4924 H   0  0  0  0  0  0
  -25.8065  -30.8864   27.0231 H   0  0  0  0  0  0
  -26.2829  -29.6858   24.1154 H   0  0  0  0  0  0
  -27.4101  -29.7304   25.4520 H   0  0  0  0  0  0
  -27.8644  -30.4432   23.9204 H   0  0  0  0  0  0
  -27.2753  -33.3647   26.2051 H   0  0  0  0  0  0
  -28.3883  -32.6828   25.0291 H   0  0  0  0  0  0
  -28.0736  -31.8435   26.5391 H   0  0  0  0  0  0
  -28.2593  -38.0128   24.7538 H   0  0  0  0  0  0
  -28.1082  -36.2655   24.6248 H   0  0  0  0  0  0
  -27.2308  -37.1377   25.8877 H   0  0  0  0  0  0
  -20.9281  -29.8801   21.6951 H   0  0  0  0  0  0
  -26.0196  -38.2883   24.1430 H   0  0  0  0  0  0
  -31.7763  -23.3157   19.2440 H   0  0  0  0  0  0
  -33.5363  -21.6053   19.3508 H   0  0  0  0  0  0
  -28.8053  -20.2990   20.0674 H   0  0  0  0  0  0
  -28.0122  -21.8773   17.9767 H   0  0  0  0  0  0
  -29.0744  -23.1521   17.3955 H   0  0  0  0  0  0
  -27.5128  -23.5531   18.0940 H   0  0  0  0  0  0
  -37.0734  -17.9067   18.2248 H   0  0  0  0  0  0
  -36.2411  -18.6915   19.5480 H   0  0  0  0  0  0
  -36.1248  -19.3549   17.9223 H   0  0  0  0  0  0
  -35.8789  -16.4634   16.5840 H   0  0  0  0  0  0
  -34.9913  -17.8843   16.0545 H   0  0  0  0  0  0
  -34.1236  -16.4273   16.5156 H   0  0  0  0  0  0
  -35.8115  -15.7194   18.9932 H   0  0  0  0  0  0
  -34.0550  -15.6974   18.9899 H   0  0  0  0  0  0
  -34.9254  -16.6222   20.2068 H   0  0  0  0  0  0
  -30.2061  -19.7806   22.6163 H   0  0  0  0  0  0
  -31.7796  -18.9887   22.6089 H   0  0  0  0  0  0
  -30.5587  -18.5317   23.7840 H   0  0  0  0  0  0
  -28.1430  -18.5646   21.8545 H   0  0  0  0  0  0
  -28.4374  -17.2950   23.0345 H   0  0  0  0  0  0
  -28.1905  -16.8908   21.3412 H   0  0  0  0  0  0
  -33.1567  -18.1751   20.5243 H   0  0  0  0  0  0
  -34.2251  -19.4877   20.1626 H   0  0  0  0  0  0
  -31.1512  -17.4578   19.8294 H   0  0  0  0  0  0
  -29.5207  -17.9291   19.6817 H   0  0  0  0  0  0
  -33.6332  -19.2045   17.6766 H   0  0  0  0  0  0
  -32.7507  -17.7720   18.0969 H   0  0  0  0  0  0
  -30.1664  -24.4399   20.7277 H   0  0  0  0  0  0
  -29.9273  -24.8828   19.0575 H   0  0  0  0  0  0
  -30.8754  -16.2739   23.2152 H   0  0  0  0  0  0
  -31.9460  -16.4592   21.8649 H   0  0  0  0  0  0
  -28.0957  -25.1753   21.4497 H   0  0  0  0  0  0
  -27.3381  -24.8592   19.9363 H   0  0  0  0  0  0
  -28.2904  -22.6547   20.3150 H   0  0  0  0  0  0
  -29.3793  -14.9294   21.9973 H   0  0  0  0  0  0
  1 25  1  0  0  0
  1 30  2  0  0  0
  1 92  1  0  0  0
  2  3  1  0  0  0
  2 25  1  0  0  0
  2 93  1  0  0  0
  2 94  1  0  0  0
  3  4  1  0  0  0
  3 95  1  0  0  0
  3 96  1  0  0  0
  4  5  1  0  0  0
  4 97  1  0  0  0
  4 98  1  0  0  0
  5  6  1  0  0  0
  5 26  1  0  0  0
  5 99  1  0  0  0
  6 25  1  0  0  0
  6100  1  0  0  0
  6101  1  0  0  0
  7  8  2  0  0  0
  7 26  1  0  0  0
  7 29  1  0  0  0
  8  9  1  0  0  0
  8 22  1  0  0  0
  9 10  1  0  0  0
  9 27  2  0  0  0
 10 11  2  0  0  0
 10 15  1  0  0  0
 11 12  1  0  0  0
 11102  1  0  0  0
 12 13  2  0  0  0
 12103  1  0  0  0
 13 14  1  0  0  0
 13 31  1  0  0  0
 14 15  2  0  0  0
 14104  1  0  0  0
 15105  1  0  0  0
 16 17  2  0  0  0
 16 21  1  0  0  0
 16 31  1  0  0  0
 17 18  1  0  0  0
 17106  1  0  0  0
 18 19  2  0  0  0
 18107  1  0  0  0
 19 20  1  0  0  0
 19 24  1  0  0  0
 20 21  2  0  0  0
 20108  1  0  0  0
 21 23  1  0  0  0
 22 28  1  0  0  0
 22 32  2  0  0  0
 26 27  1  0  0  0
 28109  1  0  0  0
 28110  1  0  0  0
 29111  1  0  0  0
 29112  1  0  0  0
 33 34  1  0  0  0
 33 66  1  0  0  0
 33 70  2  0  0  0
 34 36  1  0  0  0
 34 59  1  0  0  0
 34113  1  0  0  0
 35 44  2  0  0  0
 35 45  1  0  0  0
 35 68  1  0  0  0
 36 56  1  0  0  0
 36114  1  0  0  0
 37 39  1  0  0  0
 37 47  1  0  0  0
 37 66  1  0  0  0
 37115  1  0  0  0
 38 43  2  0  0  0
 38 46  1  0  0  0
 38 47  1  0  0  0
 39 64  1  0  0  0
 39 67  2  0  0  0
 40 52  1  0  0  0
 40 53  2  0  0  0
 40 58  1  0  0  0
 41116  1  0  0  0
 41117  1  0  0  0
 41118  1  0  0  0
 41 48  1  0  0  0
 42 43  1  0  0  0
 42 66  1  0  0  0
 42119  1  0  0  0
 42120  1  0  0  0
 43 44  1  0  0  0
 44121  1  0  0  0
 45 46  2  0  0  0
 45122  1  0  0  0
 46123  1  0  0  0
 47124  1  0  0  0
 47125  1  0  0  0
 48 56  1  0  0  0
 48 65  1  0  0  0
 48126  1  0  0  0
 49 50  1  0  0  0
 49 53  1  0  0  0
 49 64  1  0  0  0
 49127  1  0  0  0
 50 51  1  0  0  0
 50128  1  0  0  0
 50129  1  0  0  0
 51 52  1  0  0  0
 51130  1  0  0  0
 51131  1  0  0  0
 52132  1  0  0  0
 52133  1  0  0  0
 53 54  1  0  0  0
 54 55  2  0  0  0
 54134  1  0  0  0
 55 57  1  0  0  0
 55135  1  0  0  0
 56 69  2  0  0  0
 57 58  2  0  0  0
 57136  1  0  0  0
 58137  1  0  0  0
 59 60  1  0  0  0
 59 61  1  0  0  0
 59 62  1  0  0  0
 60138  1  0  0  0
 60139  1  0  0  0
 60140  1  0  0  0
 61141  1  0  0  0
 61142  1  0  0  0
 61143  1  0  0  0
 62144  1  0  0  0
 62145  1  0  0  0
 62146  1  0  0  0
 63 65  1  0  0  0
 63147  1  0  0  0
 63148  1  0  0  0
 63149  1  0  0  0
 64150  1  0  0  0
 65151  1  0  0  0
 68 88  1  0  0  0
 71 72  2  0  0  0
 71 74  1  0  0  0
 71152  1  0  0  0
 72 75  1  0  0  0
 72153  1  0  0  0
 73 74  2  0  0  0
 73 76  1  0  0  0
 73154  1  0  0  0
 74 89  1  0  0  0
 75 76  2  0  0  0
 75 83  1  0  0  0
 76 84  1  0  0  0
 77155  1  0  0  0
 77156  1  0  0  0
 77157  1  0  0  0
 77 89  1  0  0  0
 78158  1  0  0  0
 78159  1  0  0  0
 78160  1  0  0  0
 78 90  1  0  0  0
 79 90  1  0  0  0
 79161  1  0  0  0
 79162  1  0  0  0
 79163  1  0  0  0
 80 90  1  0  0  0
 80164  1  0  0  0
 80165  1  0  0  0
 80166  1  0  0  0
 81167  1  0  0  0
 81168  1  0  0  0
 81169  1  0  0  0
 81 91  1  0  0  0
 82 91  1  0  0  0
 82170  1  0  0  0
 82171  1  0  0  0
 82172  1  0  0  0
 83 85  1  0  0  0
 83173  1  0  0  0
 83174  1  0  0  0
 84 91  1  0  0  0
 84175  1  0  0  0
 84176  1  0  0  0
 85 90  1  0  0  0
 85177  1  0  0  0
 85178  1  0  0  0
 86 88  1  0  0  0
 86 89  1  0  0  0
 86179  1  0  0  0
 86180  1  0  0  0
 87 91  1  0  0  0
 87 92  1  0  0  0
 87181  1  0  0  0
 87182  1  0  0  0
 88183  1  0  0  0
 88184  1  0  0  0
 89185  1  0  0  0
 92186  1  0  0  0
M  ISO  4   1 100  68 101  88 101  92 100
M  END
> <chiral flag>
0

> <version>
0

> <s_m_source_file>
/data/baiqing/PycharmProjects/Reinvent-master-3.2/result/LINK_invent/BTK/process_docking_weight1_custom_sum_contain_oxygen_bond_distance_aromatic_linkinvent_7_9_3/rearranged_h_0091.sdf

> <i_m_source_file_index>
71

> <r_mmod_Potential_Energy-OPLS-2005>
-66.5968856811523

> <r_mmod_Stretch_Energy-OPLS-2005>
40.9948539733887

> <r_mmod_Bend_Energy-OPLS-2005>
111.680244445801

> <r_mmod_Torsional_Energy-OPLS-2005>
232.203659057617

> <r_mmod_Improper_Torsional_Energy-OPLS-2005>
1.79641091823578

> <r_mmod_Van_der_Waal_Energy-OPLS-2005>
159.127319335938

> <r_mmod_Electrostatic_Energy-OPLS-2005>
-441.545227050781

> <r_mmod_Solvation_Energy-OPLS-2005>
-180.019424438477

> <b_mmod_Minimization_Converged-OPLS-2005>
0

> <r_mmod_RMS_Derivative-OPLS-2005>
2.24311661720276

$$$$
72
                    3D
 Structure written by MMmdl.
158166  0  0  1  0            999 V2000
  -30.6187  -14.7429   20.4539 C   0  0  0  0  0  0
  -30.4341  -12.4595   19.4744 C   0  0  0  0  0  0
  -29.5064  -12.5198   18.2417 C   0  0  0  0  0  0
  -28.0394  -12.3337   18.6654 C   0  0  0  0  0  0
  -27.6473  -13.2328   19.8674 C   0  0  2  0  0  0
  -28.6915  -13.1671   21.0042 C   0  0  0  0  0  0
  -25.2508  -13.8185   20.5652 C   0  0  0  0  0  0
  -24.1822  -13.0447   20.9187 C   0  0  0  0  0  0
  -24.6416  -11.6913   20.8757 C   0  0  0  0  0  0
  -23.9114  -10.4295   21.0410 C   0  0  0  0  0  0
  -24.3658   -9.4193   21.9183 C   0  0  0  0  0  0
  -23.6314   -8.2246   22.0751 C   0  0  0  0  0  0
  -22.4285   -8.0297   21.3554 C   0  0  0  0  0  0
  -21.9946   -9.0276   20.4654 C   0  0  0  0  0  0
  -22.7294  -10.2140   20.3057 C   0  0  0  0  0  0
  -21.6861   -6.0739   22.5275 C   0  0  0  0  0  0
  -21.4010   -6.5635   23.8209 C   0  0  0  0  0  0
  -21.3663   -5.6783   24.9175 C   0  0  0  0  0  0
  -21.6043   -4.3042   24.7225 C   0  0  0  0  0  0
  -21.8824   -3.8141   23.4340 C   0  0  0  0  0  0
  -21.9198   -4.6969   22.3396 C   0  0  0  0  0  0
  -22.7844  -13.5199   21.1852 C   0  0  0  0  0  0
  -22.1659   -4.2148   21.0980 F   0  0  0  0  0  0
  -21.5642   -3.4533   25.7736 F   0  0  0  0  0  0
  -29.9971  -13.5135   20.4239 N   0  0  0  0  0  0
  -26.2974  -12.9406   20.3390 N   0  0  0  0  0  0
  -25.9348  -11.6538   20.5802 N   0  0  0  0  0  0
  -22.0528  -12.8195   22.0414 N   0  0  0  0  0  0
  -25.4205  -15.1913   20.3892 N   0  0  0  0  0  0
  -31.7990  -14.8385   20.1042 O   0  0  0  0  0  0
  -21.6644   -6.8890   21.4239 O   0  0  0  0  0  0
  -22.3510  -14.5503   20.6686 O   0  0  0  0  0  0
  -24.6290  -31.8552   23.1936 C   0  0  0  0  0  0
  -25.9101  -32.4767   23.8314 C   0  0  1  0  0  0
  -27.2274  -27.2614   20.1403 C   0  0  0  0  0  0
  -25.5901  -33.8578   24.2241 N   0  0  0  0  0  0
  -23.4258  -30.4733   21.5395 C   0  0  2  0  0  0
  -24.8775  -28.9092   20.1198 C   0  0  0  0  0  0
  -22.7493  -29.4596   22.4904 C   0  0  0  0  0  0
  -18.0294  -28.1390   22.8493 C   0  0  0  0  0  0
  -24.1491  -36.7288   23.2633 C   0  0  0  0  0  0
  -25.9701  -30.7675   21.3725 C   0  0  0  0  0  0
  -26.0461  -29.3862   20.7259 C   0  0  0  0  0  0
  -27.2276  -28.5751   20.7184 C   0  0  0  0  0  0
  -26.0347  -26.8403   19.5177 C   0  0  0  0  0  0
  -24.8742  -27.6404   19.5118 C   0  0  0  0  0  0
  -23.6479  -29.7964   20.1604 C   0  0  0  0  0  0
  -25.4109  -36.3085   24.0323 C   0  0  1  0  0  0
  -20.5893  -28.3690   23.1274 C   0  0  2  0  0  0
  -20.6794  -26.9410   22.5403 C   0  0  0  0  0  0
  -19.5771  -26.6380   21.5207 C   0  0  0  0  0  0
  -18.1945  -26.7927   22.1620 C   0  0  0  0  0  0
  -19.1551  -28.8850   23.2878 C   0  0  0  0  0  0
  -18.9474  -30.1450   23.8892 C   0  0  0  0  0  0
  -17.6476  -30.6589   24.0563 C   0  0  0  0  0  0
  -25.9052  -34.9455   23.5090 C   0  0  0  0  0  0
  -16.5362  -29.9081   23.6343 C   0  0  0  0  0  0
  -16.7279  -28.6503   23.0348 C   0  0  0  0  0  0
  -26.4478  -31.6601   25.0704 C   0  0  0  0  0  0
  -25.3700  -31.3729   26.1421 C   0  0  0  0  0  0
  -27.0296  -30.3025   24.6149 C   0  0  0  0  0  0
  -27.6048  -32.4326   25.7469 C   0  0  0  0  0  0
  -27.5576  -37.1800   24.8459 C   0  0  0  0  0  0
  -21.4186  -29.3043   22.3661 N   0  0  0  0  0  0
  -26.4297  -37.3776   23.9407 N   0  0  0  0  0  0
  -24.6952  -31.0504   22.0922 N   0  0  0  0  0  0
  -23.4190  -28.8136   23.3013 O   0  0  0  0  0  0
  -28.3400  -26.3964   20.1300 O   0  0  0  0  0  0
  -26.5631  -34.8933   22.4660 O   0  0  0  0  0  0
  -23.5451  -32.1346   23.7258 O   0  0  0  0  0  0
  -28.6990  -21.4716   17.7307 C   0  0  0  0  0  0
  -28.4502  -20.6300   16.6477 C   0  0  0  0  0  0
  -28.7786  -20.9839   19.0573 C   0  0  0  0  0  0
  -28.7893  -19.5005   19.1866 C   0  0  0  0  0  0
  -28.3903  -18.7765   18.0161 C   0  0  0  0  0  0
  -27.9506  -17.3148   18.0017 C   0  0  0  0  0  0
  -28.7409  -22.1547   20.1452 C   0  0  0  0  0  0
  -29.1270  -18.5703   20.4352 C   0  0  0  0  0  0
  -28.5694  -23.7112   19.6276 C   0  0  0  0  0  0
  -30.1692  -17.3220   20.2200 C   0  0  0  0  0  0
  -28.2126  -24.9649   20.5836 C   0  0  0  0  0  0
  -28.2425  -19.3216   16.7982 N   0  0  0  0  0  0
  -29.8476  -15.8820   20.6448 N   0  0  0  0  0  0
  -31.4698  -12.5914   19.1590 H   0  0  0  0  0  0
  -30.3861  -11.4747   19.9420 H   0  0  0  0  0  0
  -29.7826  -11.7465   17.5257 H   0  0  0  0  0  0
  -29.6257  -13.4740   17.7242 H   0  0  0  0  0  0
  -27.9045  -11.2854   18.9287 H   0  0  0  0  0  0
  -27.3701  -12.5224   17.8252 H   0  0  0  0  0  0
  -27.6470  -14.2555   19.4945 H   0  0  0  0  0  0
  -28.7229  -12.1683   21.4435 H   0  0  0  0  0  0
  -28.4209  -13.8482   21.8141 H   0  0  0  0  0  0
  -25.2834   -9.5628   22.4738 H   0  0  0  0  0  0
  -24.0026   -7.4609   22.7449 H   0  0  0  0  0  0
  -21.0891   -8.8802   19.8943 H   0  0  0  0  0  0
  -22.3789  -10.9675   19.6143 H   0  0  0  0  0  0
  -21.1979   -7.6139   23.9704 H   0  0  0  0  0  0
  -21.1493   -6.0519   25.9074 H   0  0  0  0  0  0
  -22.0606   -2.7613   23.2841 H   0  0  0  0  0  0
  -22.4208  -11.9871   22.4788 H   0  0  0  0  0  0
  -21.1119  -13.1163   22.2623 H   0  0  0  0  0  0
  -24.6444  -15.8411   20.4582 H   0  0  0  0  0  0
  -26.2440  -15.6086   19.9793 H   0  0  0  0  0  0
  -26.7164  -32.5434   23.1061 H   0  0  0  0  0  0
  -25.0100  -33.9737   25.0421 H   0  0  0  0  0  0
  -22.7231  -31.2947   21.3880 H   0  0  0  0  0  0
  -23.3770  -35.9609   23.3299 H   0  0  0  0  0  0
  -24.3581  -36.8906   22.2051 H   0  0  0  0  0  0
  -23.7234  -37.6476   23.6658 H   0  0  0  0  0  0
  -26.1049  -31.5228   20.5959 H   0  0  0  0  0  0
  -26.8506  -30.8273   22.0014 H   0  0  0  0  0  0
  -28.1278  -28.9408   21.1940 H   0  0  0  0  0  0
  -26.0035  -25.8717   19.0375 H   0  0  0  0  0  0
  -23.9771  -27.2648   19.0412 H   0  0  0  0  0  0
  -23.7761  -30.5663   19.3999 H   0  0  0  0  0  0
  -22.7659  -29.2286   19.8568 H   0  0  0  0  0  0
  -25.1308  -36.1933   25.0820 H   0  0  0  0  0  0
  -21.0007  -28.3271   24.1379 H   0  0  0  0  0  0
  -20.5698  -26.2290   23.3595 H   0  0  0  0  0  0
  -21.6660  -26.7434   22.1188 H   0  0  0  0  0  0
  -19.6930  -25.6279   21.1243 H   0  0  0  0  0  0
  -19.6716  -27.3186   20.6731 H   0  0  0  0  0  0
  -17.4207  -26.6659   21.4027 H   0  0  0  0  0  0
  -18.0364  -26.0057   22.9017 H   0  0  0  0  0  0
  -19.7944  -30.7278   24.2244 H   0  0  0  0  0  0
  -17.5023  -31.6272   24.5160 H   0  0  0  0  0  0
  -15.5358  -30.2992   23.7648 H   0  0  0  0  0  0
  -15.8681  -28.0824   22.7060 H   0  0  0  0  0  0
  -24.5903  -30.7058   25.7722 H   0  0  0  0  0  0
  -24.8865  -32.2894   26.4826 H   0  0  0  0  0  0
  -25.8027  -30.8910   27.0199 H   0  0  0  0  0  0
  -26.2845  -29.6813   24.1168 H   0  0  0  0  0  0
  -27.3979  -29.7256   25.4636 H   0  0  0  0  0  0
  -27.8737  -30.4311   23.9366 H   0  0  0  0  0  0
  -27.2682  -33.3646   26.2024 H   0  0  0  0  0  0
  -28.3868  -32.6853   25.0291 H   0  0  0  0  0  0
  -28.0702  -31.8450   26.5391 H   0  0  0  0  0  0
  -28.2598  -38.0102   24.7520 H   0  0  0  0  0  0
  -28.1080  -36.2631   24.6284 H   0  0  0  0  0  0
  -27.2296  -37.1435   25.8865 H   0  0  0  0  0  0
  -20.9351  -29.8764   21.6888 H   0  0  0  0  0  0
  -26.0180  -38.2848   24.1418 H   0  0  0  0  0  0
  -28.7834  -22.5171   17.4845 H   0  0  0  0  0  0
  -28.3379  -21.0277   15.6481 H   0  0  0  0  0  0
  -26.9031  -17.2722   17.6982 H   0  0  0  0  0  0
  -27.9974  -16.8020   18.9546 H   0  0  0  0  0  0
  -28.5295  -16.7406   17.2776 H   0  0  0  0  0  0
  -29.6268  -22.0715   20.7759 H   0  0  0  0  0  0
  -27.8970  -21.9332   20.7977 H   0  0  0  0  0  0
  -28.1802  -18.1863   20.8196 H   0  0  0  0  0  0
  -29.5097  -19.2040   21.2361 H   0  0  0  0  0  0
  -27.7793  -23.7334   18.8759 H   0  0  0  0  0  0
  -29.4896  -23.9677   19.1033 H   0  0  0  0  0  0
  -31.1076  -17.6066   20.7019 H   0  0  0  0  0  0
  -30.4283  -17.2563   19.1627 H   0  0  0  0  0  0
  -28.8792  -24.8916   21.4429 H   0  0  0  0  0  0
  -27.2185  -24.8087   21.0037 H   0  0  0  0  0  0
  -28.9206  -15.7196   21.0044 H   0  0  0  0  0  0
  1 25  1  0  0  0
  1 30  2  0  0  0
  1 83  1  0  0  0
  2  3  1  0  0  0
  2 25  1  0  0  0
  2 84  1  0  0  0
  2 85  1  0  0  0
  3  4  1  0  0  0
  3 86  1  0  0  0
  3 87  1  0  0  0
  4  5  1  0  0  0
  4 88  1  0  0  0
  4 89  1  0  0  0
  5  6  1  0  0  0
  5 26  1  0  0  0
  5 90  1  0  0  0
  6 25  1  0  0  0
  6 91  1  0  0  0
  6 92  1  0  0  0
  7  8  2  0  0  0
  7 26  1  0  0  0
  7 29  1  0  0  0
  8  9  1  0  0  0
  8 22  1  0  0  0
  9 10  1  0  0  0
  9 27  2  0  0  0
 10 11  2  0  0  0
 10 15  1  0  0  0
 11 12  1  0  0  0
 11 93  1  0  0  0
 12 13  2  0  0  0
 12 94  1  0  0  0
 13 14  1  0  0  0
 13 31  1  0  0  0
 14 15  2  0  0  0
 14 95  1  0  0  0
 15 96  1  0  0  0
 16 17  2  0  0  0
 16 21  1  0  0  0
 16 31  1  0  0  0
 17 18  1  0  0  0
 17 97  1  0  0  0
 18 19  2  0  0  0
 18 98  1  0  0  0
 19 20  1  0  0  0
 19 24  1  0  0  0
 20 21  2  0  0  0
 20 99  1  0  0  0
 21 23  1  0  0  0
 22 28  1  0  0  0
 22 32  2  0  0  0
 26 27  1  0  0  0
 28100  1  0  0  0
 28101  1  0  0  0
 29102  1  0  0  0
 29103  1  0  0  0
 33 34  1  0  0  0
 33 66  1  0  0  0
 33 70  2  0  0  0
 34 36  1  0  0  0
 34 59  1  0  0  0
 34104  1  0  0  0
 35 44  2  0  0  0
 35 45  1  0  0  0
 35 68  1  0  0  0
 36 56  1  0  0  0
 36105  1  0  0  0
 37 39  1  0  0  0
 37 47  1  0  0  0
 37 66  1  0  0  0
 37106  1  0  0  0
 38 43  2  0  0  0
 38 46  1  0  0  0
 38 47  1  0  0  0
 39 64  1  0  0  0
 39 67  2  0  0  0
 40 52  1  0  0  0
 40 53  2  0  0  0
 40 58  1  0  0  0
 41107  1  0  0  0
 41108  1  0  0  0
 41109  1  0  0  0
 41 48  1  0  0  0
 42 43  1  0  0  0
 42 66  1  0  0  0
 42110  1  0  0  0
 42111  1  0  0  0
 43 44  1  0  0  0
 44112  1  0  0  0
 45 46  2  0  0  0
 45113  1  0  0  0
 46114  1  0  0  0
 47115  1  0  0  0
 47116  1  0  0  0
 48 56  1  0  0  0
 48 65  1  0  0  0
 48117  1  0  0  0
 49 50  1  0  0  0
 49 53  1  0  0  0
 49 64  1  0  0  0
 49118  1  0  0  0
 50 51  1  0  0  0
 50119  1  0  0  0
 50120  1  0  0  0
 51 52  1  0  0  0
 51121  1  0  0  0
 51122  1  0  0  0
 52123  1  0  0  0
 52124  1  0  0  0
 53 54  1  0  0  0
 54 55  2  0  0  0
 54125  1  0  0  0
 55 57  1  0  0  0
 55126  1  0  0  0
 56 69  2  0  0  0
 57 58  2  0  0  0
 57127  1  0  0  0
 58128  1  0  0  0
 59 60  1  0  0  0
 59 61  1  0  0  0
 59 62  1  0  0  0
 60129  1  0  0  0
 60130  1  0  0  0
 60131  1  0  0  0
 61132  1  0  0  0
 61133  1  0  0  0
 61134  1  0  0  0
 62135  1  0  0  0
 62136  1  0  0  0
 62137  1  0  0  0
 63 65  1  0  0  0
 63138  1  0  0  0
 63139  1  0  0  0
 63140  1  0  0  0
 64141  1  0  0  0
 65142  1  0  0  0
 68 81  1  0  0  0
 71 72  2  0  0  0
 71 73  1  0  0  0
 71143  1  0  0  0
 72 82  1  0  0  0
 72144  1  0  0  0
 73 74  2  0  0  0
 73 77  1  0  0  0
 74 75  1  0  0  0
 74 78  1  0  0  0
 75 76  1  0  0  0
 75 82  2  0  0  0
 76145  1  0  0  0
 76146  1  0  0  0
 76147  1  0  0  0
 77 79  1  0  0  0
 77148  1  0  0  0
 77149  1  0  0  0
 78 80  1  0  0  0
 78150  1  0  0  0
 78151  1  0  0  0
 79 81  1  0  0  0
 79152  1  0  0  0
 79153  1  0  0  0
 80 83  1  0  0  0
 80154  1  0  0  0
 80155  1  0  0  0
 81156  1  0  0  0
 81157  1  0  0  0
 83158  1  0  0  0
M  ISO  4   1 100  68 101  81 101  83 100
M  END
> <chiral flag>
0

> <version>
0

> <s_m_source_file>
/data/baiqing/PycharmProjects/Reinvent-master-3.2/result/LINK_invent/BTK/process_docking_weight1_custom_sum_contain_oxygen_bond_distance_aromatic_linkinvent_7_9_3/rearranged_h_0091.sdf

> <i_m_source_file_index>
72

> <r_mmod_Potential_Energy-OPLS-2005>
39.0523910522461

> <r_mmod_Stretch_Energy-OPLS-2005>
148.298721313477

> <r_mmod_Bend_Energy-OPLS-2005>
198.571624755859

> <r_mmod_Torsional_Energy-OPLS-2005>
259.488952636719

> <r_mmod_Improper_Torsional_Energy-OPLS-2005>
6.66009330749512

> <r_mmod_Van_der_Waal_Energy-OPLS-2005>
147.141006469727

> <r_mmod_Electrostatic_Energy-OPLS-2005>
-569.640991210938

> <r_mmod_Solvation_Energy-OPLS-2005>
-232.182907104492

> <b_mmod_Minimization_Converged-OPLS-2005>
0

> <r_mmod_RMS_Derivative-OPLS-2005>
5.18224620819092

$$$$
73
                    3D
 Structure written by MMmdl.
170178  0  0  1  0            999 V2000
  -30.6636  -14.5163   20.5319 C   0  0  0  0  0  0
  -30.4255  -12.3234   19.4377 C   0  0  0  0  0  0
  -29.4980  -12.5071   18.2159 C   0  0  0  0  0  0
  -28.0182  -12.3578   18.6264 C   0  0  0  0  0  0
  -27.6575  -13.2079   19.8735 C   0  0  2  0  0  0
  -28.6983  -13.0147   21.0012 C   0  0  0  0  0  0
  -25.2572  -13.8155   20.5672 C   0  0  0  0  0  0
  -24.1833  -13.0427   20.9194 C   0  0  0  0  0  0
  -24.6391  -11.6908   20.8752 C   0  0  0  0  0  0
  -23.9054  -10.4291   21.0401 C   0  0  0  0  0  0
  -24.3606   -9.4200   21.9173 C   0  0  0  0  0  0
  -23.6288   -8.2233   22.0746 C   0  0  0  0  0  0
  -22.4268   -8.0281   21.3544 C   0  0  0  0  0  0
  -21.9894   -9.0248   20.4646 C   0  0  0  0  0  0
  -22.7224  -10.2129   20.3054 C   0  0  0  0  0  0
  -21.6851   -6.0736   22.5278 C   0  0  0  0  0  0
  -21.4020   -6.5645   23.8212 C   0  0  0  0  0  0
  -21.3649   -5.6795   24.9170 C   0  0  0  0  0  0
  -21.6041   -4.3060   24.7211 C   0  0  0  0  0  0
  -21.8821   -3.8152   23.4334 C   0  0  0  0  0  0
  -21.9193   -4.6967   22.3393 C   0  0  0  0  0  0
  -22.7862  -13.5222   21.1834 C   0  0  0  0  0  0
  -22.1662   -4.2166   21.0965 F   0  0  0  0  0  0
  -21.5616   -3.4536   25.7713 F   0  0  0  0  0  0
  -30.0260  -13.3182   20.4461 N   0  0  0  0  0  0
  -26.3007  -12.9324   20.3375 N   0  0  0  0  0  0
  -25.9314  -11.6490   20.5787 N   0  0  0  0  0  0
  -22.0497  -12.8245   22.0421 N   0  0  0  0  0  0
  -25.4270  -15.1866   20.4026 N   0  0  0  0  0  0
  -31.8155  -14.6894   20.1232 O   0  0  0  0  0  0
  -21.6634   -6.8880   21.4245 O   0  0  0  0  0  0
  -22.3562  -14.5513   20.6658 O   0  0  0  0  0  0
  -24.6145  -31.8660   23.2081 C   0  0  0  0  0  0
  -25.9033  -32.4820   23.8385 C   0  0  1  0  0  0
  -27.2349  -27.4289   20.1131 C   0  0  0  0  0  0
  -25.5901  -33.8614   24.2328 N   0  0  0  0  0  0
  -23.4062  -30.4866   21.5484 C   0  0  2  0  0  0
  -24.8553  -28.9502   20.1181 C   0  0  0  0  0  0
  -22.7422  -29.4627   22.4979 C   0  0  0  0  0  0
  -18.0281  -28.1374   22.8505 C   0  0  0  0  0  0
  -24.1494  -36.7306   23.2639 C   0  0  0  0  0  0
  -25.9347  -30.8323   21.3623 C   0  0  0  0  0  0
  -26.0158  -29.4658   20.7116 C   0  0  0  0  0  0
  -27.2129  -28.7139   20.7019 C   0  0  0  0  0  0
  -26.0624  -26.9258   19.5149 C   0  0  0  0  0  0
  -24.8724  -27.6793   19.5156 C   0  0  0  0  0  0
  -23.6181  -29.8178   20.1639 C   0  0  0  0  0  0
  -25.4118  -36.3106   24.0341 C   0  0  1  0  0  0
  -20.5870  -28.3659   23.1321 C   0  0  2  0  0  0
  -20.6771  -26.9394   22.5424 C   0  0  0  0  0  0
  -19.5747  -26.6379   21.5226 C   0  0  0  0  0  0
  -18.1926  -26.7928   22.1625 C   0  0  0  0  0  0
  -19.1527  -28.8830   23.2916 C   0  0  0  0  0  0
  -18.9454  -30.1441   23.8929 C   0  0  0  0  0  0
  -17.6453  -30.6590   24.0563 C   0  0  0  0  0  0
  -25.9044  -34.9470   23.5125 C   0  0  0  0  0  0
  -16.5345  -29.9093   23.6319 C   0  0  0  0  0  0
  -16.7269  -28.6498   23.0360 C   0  0  0  0  0  0
  -26.4471  -31.6614   25.0722 C   0  0  0  0  0  0
  -25.3756  -31.3722   26.1492 C   0  0  0  0  0  0
  -27.0309  -30.3061   24.6094 C   0  0  0  0  0  0
  -27.6043  -32.4345   25.7486 C   0  0  0  0  0  0
  -27.5588  -37.1807   24.8466 C   0  0  0  0  0  0
  -21.4147  -29.3019   22.3721 N   0  0  0  0  0  0
  -26.4301  -37.3792   23.9412 N   0  0  0  0  0  0
  -24.6701  -31.0761   22.0977 N   0  0  0  0  0  0
  -23.4185  -28.8164   23.3027 O   0  0  0  0  0  0
  -28.3760  -26.6575   20.1203 O   0  0  0  0  0  0
  -26.5593  -34.8910   22.4677 O   0  0  0  0  0  0
  -23.5333  -32.1399   23.7476 O   0  0  0  0  0  0
  -28.6299  -20.5149   20.4724 C   0  0  0  0  0  0
  -28.6225  -21.7171   19.7155 C   0  0  0  0  0  0
  -29.0820  -21.6488   18.3725 C   0  0  0  0  0  0
  -29.0927  -19.3097   19.8897 C   0  0  0  0  0  0
  -29.5796  -20.4104   17.8899 C   0  0  0  0  0  0
  -29.0230  -22.8694   17.4554 C   0  0  0  0  0  0
  -29.5192  -17.9085   15.6120 C   0  0  0  0  0  0
  -27.8398  -19.8031   15.4629 C   0  0  0  0  0  0
  -28.0323  -23.0095   20.3181 C   0  0  0  0  0  0
  -28.9169  -17.9266   20.5525 C   0  0  0  0  0  0
  -30.1905  -20.2259   16.4977 C   0  0  0  0  0  0
  -28.9822  -24.2415   20.4190 C   0  0  0  0  0  0
  -30.1592  -16.9801   20.5082 C   0  0  0  0  0  0
  -28.3073  -25.5158   20.9959 C   0  0  0  0  0  0
  -29.3340  -19.4315   15.4730 C   0  0  0  0  0  0
  -29.5718  -19.2855   18.6334 N   0  0  0  0  0  0
  -29.8800  -15.5666   20.8644 N   0  0  0  0  0  0
  -31.4705  -12.4277   19.1403 H   0  0  0  0  0  0
  -30.3317  -11.3170   19.8485 H   0  0  0  0  0  0
  -29.7490  -11.7809   17.4420 H   0  0  0  0  0  0
  -29.6569  -13.4928   17.7753 H   0  0  0  0  0  0
  -27.8362  -11.3029   18.8350 H   0  0  0  0  0  0
  -27.3668  -12.6204   17.7912 H   0  0  0  0  0  0
  -27.6913  -14.2518   19.5603 H   0  0  0  0  0  0
  -28.6795  -11.9871   21.3685 H   0  0  0  0  0  0
  -28.4629  -13.6384   21.8654 H   0  0  0  0  0  0
  -25.2740   -9.5684   22.4761 H   0  0  0  0  0  0
  -24.0007   -7.4623   22.7457 H   0  0  0  0  0  0
  -21.0826   -8.8751   19.8949 H   0  0  0  0  0  0
  -22.3665  -10.9665   19.6179 H   0  0  0  0  0  0
  -21.2028   -7.6158   23.9726 H   0  0  0  0  0  0
  -21.1474   -6.0516   25.9076 H   0  0  0  0  0  0
  -22.0618   -2.7619   23.2813 H   0  0  0  0  0  0
  -22.4091  -11.9914   22.4836 H   0  0  0  0  0  0
  -21.1120  -13.1300   22.2594 H   0  0  0  0  0  0
  -24.6498  -15.8327   20.4845 H   0  0  0  0  0  0
  -26.2671  -15.6216   20.0439 H   0  0  0  0  0  0
  -26.7113  -32.5545   23.1159 H   0  0  0  0  0  0
  -25.0107  -33.9782   25.0512 H   0  0  0  0  0  0
  -22.6964  -31.3040   21.4071 H   0  0  0  0  0  0
  -23.3750  -35.9642   23.3305 H   0  0  0  0  0  0
  -24.3598  -36.8912   22.2053 H   0  0  0  0  0  0
  -23.7241  -37.6508   23.6649 H   0  0  0  0  0  0
  -26.0511  -31.5994   20.5949 H   0  0  0  0  0  0
  -26.8173  -30.8820   21.9882 H   0  0  0  0  0  0
  -28.1091  -29.1016   21.1659 H   0  0  0  0  0  0
  -26.0693  -25.9444   19.0619 H   0  0  0  0  0  0
  -23.9791  -27.2711   19.0631 H   0  0  0  0  0  0
  -23.7313  -30.5914   19.4028 H   0  0  0  0  0  0
  -22.7420  -29.2383   19.8661 H   0  0  0  0  0  0
  -25.1296  -36.1970   25.0836 H   0  0  0  0  0  0
  -20.9975  -28.3229   24.1434 H   0  0  0  0  0  0
  -20.5688  -26.2266   23.3608 H   0  0  0  0  0  0
  -21.6641  -26.7450   22.1200 H   0  0  0  0  0  0
  -19.6900  -25.6290   21.1254 H   0  0  0  0  0  0
  -19.6693  -27.3190   20.6756 H   0  0  0  0  0  0
  -17.4202  -26.6695   21.4021 H   0  0  0  0  0  0
  -18.0303  -26.0071   22.9011 H   0  0  0  0  0  0
  -19.7929  -30.7248   24.2321 H   0  0  0  0  0  0
  -17.5010  -31.6283   24.5144 H   0  0  0  0  0  0
  -15.5340  -30.3001   23.7635 H   0  0  0  0  0  0
  -15.8672  -28.0823   22.7069 H   0  0  0  0  0  0
  -24.5882  -30.7129   25.7828 H   0  0  0  0  0  0
  -24.9012  -32.2888   26.5003 H   0  0  0  0  0  0
  -25.8114  -30.8832   27.0215 H   0  0  0  0  0  0
  -26.2849  -29.6823   24.1158 H   0  0  0  0  0  0
  -27.4101  -29.7297   25.4543 H   0  0  0  0  0  0
  -27.8673  -30.4388   23.9230 H   0  0  0  0  0  0
  -27.2638  -33.3605   26.2126 H   0  0  0  0  0  0
  -28.3810  -32.6977   25.0298 H   0  0  0  0  0  0
  -28.0766  -31.8456   26.5355 H   0  0  0  0  0  0
  -28.2601  -38.0107   24.7521 H   0  0  0  0  0  0
  -28.1083  -36.2634   24.6286 H   0  0  0  0  0  0
  -27.2313  -37.1467   25.8871 H   0  0  0  0  0  0
  -20.9302  -29.8752   21.6956 H   0  0  0  0  0  0
  -26.0184  -38.2866   24.1413 H   0  0  0  0  0  0
  -28.2217  -20.5002   21.4743 H   0  0  0  0  0  0
  -28.2120  -23.5456   17.7204 H   0  0  0  0  0  0
  -28.8399  -22.5977   16.4175 H   0  0  0  0  0  0
  -29.9634  -23.4192   17.4978 H   0  0  0  0  0  0
  -29.0213  -17.3744   14.8025 H   0  0  0  0  0  0
  -29.1095  -17.5365   16.5515 H   0  0  0  0  0  0
  -30.5732  -17.6326   15.5819 H   0  0  0  0  0  0
  -27.3108  -19.2671   14.6734 H   0  0  0  0  0  0
  -27.6942  -20.8681   15.2819 H   0  0  0  0  0  0
  -27.3541  -19.5546   16.4078 H   0  0  0  0  0  0
  -27.6525  -22.7857   21.3154 H   0  0  0  0  0  0
  -27.1493  -23.2794   19.7375 H   0  0  0  0  0  0
  -28.0719  -17.4468   20.0558 H   0  0  0  0  0  0
  -28.6094  -18.0683   21.5890 H   0  0  0  0  0  0
  -31.1596  -19.7413   16.6171 H   0  0  0  0  0  0
  -30.4476  -21.1911   16.0659 H   0  0  0  0  0  0
  -29.4158  -24.4959   19.4554 H   0  0  0  0  0  0
  -29.8295  -23.9724   21.0498 H   0  0  0  0  0  0
  -30.9537  -17.3798   21.1382 H   0  0  0  0  0  0
  -30.5489  -16.9786   19.4885 H   0  0  0  0  0  0
  -28.8148  -25.7974   21.9198 H   0  0  0  0  0  0
  -27.2824  -25.2881   21.2934 H   0  0  0  0  0  0
  -29.7338  -19.6804   14.4886 H   0  0  0  0  0  0
  -28.9536  -15.3424   21.1942 H   0  0  0  0  0  0
  1 25  1  0  0  0
  1 30  2  0  0  0
  1 87  1  0  0  0
  2  3  1  0  0  0
  2 25  1  0  0  0
  2 88  1  0  0  0
  2 89  1  0  0  0
  3  4  1  0  0  0
  3 90  1  0  0  0
  3 91  1  0  0  0
  4  5  1  0  0  0
  4 92  1  0  0  0
  4 93  1  0  0  0
  5  6  1  0  0  0
  5 26  1  0  0  0
  5 94  1  0  0  0
  6 25  1  0  0  0
  6 95  1  0  0  0
  6 96  1  0  0  0
  7  8  2  0  0  0
  7 26  1  0  0  0
  7 29  1  0  0  0
  8  9  1  0  0  0
  8 22  1  0  0  0
  9 10  1  0  0  0
  9 27  2  0  0  0
 10 11  2  0  0  0
 10 15  1  0  0  0
 11 12  1  0  0  0
 11 97  1  0  0  0
 12 13  2  0  0  0
 12 98  1  0  0  0
 13 14  1  0  0  0
 13 31  1  0  0  0
 14 15  2  0  0  0
 14 99  1  0  0  0
 15100  1  0  0  0
 16 17  2  0  0  0
 16 21  1  0  0  0
 16 31  1  0  0  0
 17 18  1  0  0  0
 17101  1  0  0  0
 18 19  2  0  0  0
 18102  1  0  0  0
 19 20  1  0  0  0
 19 24  1  0  0  0
 20 21  2  0  0  0
 20103  1  0  0  0
 21 23  1  0  0  0
 22 28  1  0  0  0
 22 32  2  0  0  0
 26 27  1  0  0  0
 28104  1  0  0  0
 28105  1  0  0  0
 29106  1  0  0  0
 29107  1  0  0  0
 33 34  1  0  0  0
 33 66  1  0  0  0
 33 70  2  0  0  0
 34 36  1  0  0  0
 34 59  1  0  0  0
 34108  1  0  0  0
 35 44  2  0  0  0
 35 45  1  0  0  0
 35 68  1  0  0  0
 36 56  1  0  0  0
 36109  1  0  0  0
 37 39  1  0  0  0
 37 47  1  0  0  0
 37 66  1  0  0  0
 37110  1  0  0  0
 38 43  2  0  0  0
 38 46  1  0  0  0
 38 47  1  0  0  0
 39 64  1  0  0  0
 39 67  2  0  0  0
 40 52  1  0  0  0
 40 53  2  0  0  0
 40 58  1  0  0  0
 41111  1  0  0  0
 41112  1  0  0  0
 41113  1  0  0  0
 41 48  1  0  0  0
 42 43  1  0  0  0
 42 66  1  0  0  0
 42114  1  0  0  0
 42115  1  0  0  0
 43 44  1  0  0  0
 44116  1  0  0  0
 45 46  2  0  0  0
 45117  1  0  0  0
 46118  1  0  0  0
 47119  1  0  0  0
 47120  1  0  0  0
 48 56  1  0  0  0
 48 65  1  0  0  0
 48121  1  0  0  0
 49 50  1  0  0  0
 49 53  1  0  0  0
 49 64  1  0  0  0
 49122  1  0  0  0
 50 51  1  0  0  0
 50123  1  0  0  0
 50124  1  0  0  0
 51 52  1  0  0  0
 51125  1  0  0  0
 51126  1  0  0  0
 52127  1  0  0  0
 52128  1  0  0  0
 53 54  1  0  0  0
 54 55  2  0  0  0
 54129  1  0  0  0
 55 57  1  0  0  0
 55130  1  0  0  0
 56 69  2  0  0  0
 57 58  2  0  0  0
 57131  1  0  0  0
 58132  1  0  0  0
 59 60  1  0  0  0
 59 61  1  0  0  0
 59 62  1  0  0  0
 60133  1  0  0  0
 60134  1  0  0  0
 60135  1  0  0  0
 61136  1  0  0  0
 61137  1  0  0  0
 61138  1  0  0  0
 62139  1  0  0  0
 62140  1  0  0  0
 62141  1  0  0  0
 63 65  1  0  0  0
 63142  1  0  0  0
 63143  1  0  0  0
 63144  1  0  0  0
 64145  1  0  0  0
 65146  1  0  0  0
 68 84  1  0  0  0
 71 72  2  0  0  0
 71 74  1  0  0  0
 71147  1  0  0  0
 72 73  1  0  0  0
 72 79  1  0  0  0
 73 75  2  0  0  0
 73 76  1  0  0  0
 74 80  1  0  0  0
 74 86  2  0  0  0
 75 81  1  0  0  0
 75 86  1  0  0  0
 76148  1  0  0  0
 76149  1  0  0  0
 76150  1  0  0  0
 77151  1  0  0  0
 77152  1  0  0  0
 77153  1  0  0  0
 77 85  1  0  0  0
 78 85  1  0  0  0
 78154  1  0  0  0
 78155  1  0  0  0
 78156  1  0  0  0
 79 82  1  0  0  0
 79157  1  0  0  0
 79158  1  0  0  0
 80 83  1  0  0  0
 80159  1  0  0  0
 80160  1  0  0  0
 81 85  1  0  0  0
 81161  1  0  0  0
 81162  1  0  0  0
 82 84  1  0  0  0
 82163  1  0  0  0
 82164  1  0  0  0
 83 87  1  0  0  0
 83165  1  0  0  0
 83166  1  0  0  0
 84167  1  0  0  0
 84168  1  0  0  0
 85169  1  0  0  0
 87170  1  0  0  0
M  ISO  4   1 100  68 101  84 101  87 100
M  END
> <chiral flag>
0

> <version>
0

> <s_m_source_file>
/data/baiqing/PycharmProjects/Reinvent-master-3.2/result/LINK_invent/BTK/process_docking_weight1_custom_sum_contain_oxygen_bond_distance_aromatic_linkinvent_7_9_3/rearranged_h_0091.sdf

> <i_m_source_file_index>
73

> <r_mmod_Potential_Energy-OPLS-2005>
-149.003982543945

> <r_mmod_Stretch_Energy-OPLS-2005>
44.0288848876953

> <r_mmod_Bend_Energy-OPLS-2005>
101.432228088379

> <r_mmod_Torsional_Energy-OPLS-2005>
237.148376464844

> <r_mmod_Improper_Torsional_Energy-OPLS-2005>
7.17983722686768

> <r_mmod_Van_der_Waal_Energy-OPLS-2005>
151.263549804688

> <r_mmod_Electrostatic_Energy-OPLS-2005>
-489.956207275391

> <r_mmod_Solvation_Energy-OPLS-2005>
-217.662567138672

> <b_mmod_Minimization_Converged-OPLS-2005>
0

> <r_mmod_RMS_Derivative-OPLS-2005>
2.36491727828979

$$$$
74
                    3D
 Structure written by MMmdl.
167175  0  0  1  0            999 V2000
  -30.6961  -14.5266   20.5752 C   0  0  0  0  0  0
  -30.4238  -12.3472   19.4286 C   0  0  0  0  0  0
  -29.4945  -12.5138   18.2090 C   0  0  0  0  0  0
  -28.0178  -12.3644   18.6235 C   0  0  0  0  0  0
  -27.6566  -13.2165   19.8694 C   0  0  2  0  0  0
  -28.6996  -13.0313   20.9933 C   0  0  0  0  0  0
  -25.2572  -13.8171   20.5697 C   0  0  0  0  0  0
  -24.1832  -13.0439   20.9186 C   0  0  0  0  0  0
  -24.6399  -11.6911   20.8735 C   0  0  0  0  0  0
  -23.9067  -10.4295   21.0402 C   0  0  0  0  0  0
  -24.3618   -9.4211   21.9182 C   0  0  0  0  0  0
  -23.6292   -8.2247   22.0755 C   0  0  0  0  0  0
  -22.4275   -8.0284   21.3545 C   0  0  0  0  0  0
  -21.9908   -9.0258   20.4647 C   0  0  0  0  0  0
  -22.7238  -10.2138   20.3053 C   0  0  0  0  0  0
  -21.6855   -6.0736   22.5278 C   0  0  0  0  0  0
  -21.4014   -6.5642   23.8211 C   0  0  0  0  0  0
  -21.3662   -5.6792   24.9173 C   0  0  0  0  0  0
  -21.6045   -4.3054   24.7220 C   0  0  0  0  0  0
  -21.8818   -3.8148   23.4341 C   0  0  0  0  0  0
  -21.9194   -4.6965   22.3398 C   0  0  0  0  0  0
  -22.7859  -13.5238   21.1850 C   0  0  0  0  0  0
  -22.1666   -4.2152   21.0976 F   0  0  0  0  0  0
  -21.5626   -3.4537   25.7732 F   0  0  0  0  0  0
  -30.0226  -13.3487   20.4325 N   0  0  0  0  0  0
  -26.3007  -12.9361   20.3349 N   0  0  0  0  0  0
  -25.9329  -11.6512   20.5760 N   0  0  0  0  0  0
  -22.0502  -12.8221   22.0405 N   0  0  0  0  0  0
  -25.4284  -15.1885   20.4127 N   0  0  0  0  0  0
  -31.8339  -14.6916   20.1274 O   0  0  0  0  0  0
  -21.6639   -6.8881   21.4242 O   0  0  0  0  0  0
  -22.3544  -14.5544   20.6705 O   0  0  0  0  0  0
  -24.6222  -31.8650   23.2083 C   0  0  0  0  0  0
  -25.9092  -32.4805   23.8390 C   0  0  1  0  0  0
  -27.2188  -27.3626   20.0921 C   0  0  0  0  0  0
  -25.5929  -33.8604   24.2317 N   0  0  0  0  0  0
  -23.4115  -30.4917   21.5528 C   0  0  2  0  0  0
  -24.8530  -28.9568   20.1144 C   0  0  0  0  0  0
  -22.7451  -29.4648   22.4981 C   0  0  0  0  0  0
  -18.0285  -28.1361   22.8480 C   0  0  0  0  0  0
  -24.1487  -36.7306   23.2634 C   0  0  0  0  0  0
  -25.9511  -30.8065   21.3735 C   0  0  0  0  0  0
  -26.0235  -29.4390   20.7137 C   0  0  0  0  0  0
  -27.2093  -28.6522   20.6971 C   0  0  0  0  0  0
  -26.0176  -26.9264   19.4784 C   0  0  0  0  0  0
  -24.8491  -27.7021   19.4928 C   0  0  0  0  0  0
  -23.6207  -29.8318   20.1663 C   0  0  0  0  0  0
  -25.4109  -36.3101   24.0332 C   0  0  1  0  0  0
  -20.5877  -28.3662   23.1292 C   0  0  2  0  0  0
  -20.6769  -26.9392   22.5402 C   0  0  0  0  0  0
  -19.5749  -26.6371   21.5197 C   0  0  0  0  0  0
  -18.1932  -26.7907   22.1611 C   0  0  0  0  0  0
  -19.1534  -28.8829   23.2881 C   0  0  0  0  0  0
  -18.9458  -30.1434   23.8885 C   0  0  0  0  0  0
  -17.6459  -30.6565   24.0552 C   0  0  0  0  0  0
  -25.9046  -34.9465   23.5122 C   0  0  0  0  0  0
  -16.5350  -29.9059   23.6325 C   0  0  0  0  0  0
  -16.7272  -28.6479   23.0342 C   0  0  0  0  0  0
  -26.4478  -31.6592   25.0741 C   0  0  0  0  0  0
  -25.3720  -31.3715   26.1475 C   0  0  0  0  0  0
  -27.0314  -30.3024   24.6162 C   0  0  0  0  0  0
  -27.6051  -32.4315   25.7503 C   0  0  0  0  0  0
  -27.5589  -37.1804   24.8459 C   0  0  0  0  0  0
  -21.4173  -29.3031   22.3705 N   0  0  0  0  0  0
  -26.4291  -37.3794   23.9419 N   0  0  0  0  0  0
  -24.6805  -31.0696   22.1017 N   0  0  0  0  0  0
  -23.4199  -28.8185   23.3039 O   0  0  0  0  0  0
  -28.3523  -26.5422   20.1188 O   0  0  0  0  0  0
  -26.5606  -34.8920   22.4682 O   0  0  0  0  0  0
  -23.5397  -32.1436   23.7437 O   0  0  0  0  0  0
  -29.1792  -21.4760   20.4544 C   0  0  0  0  0  0
  -28.7404  -20.1742   20.0623 C   0  0  0  0  0  0
  -27.9859  -20.0728   18.8507 C   0  0  0  0  0  0
  -28.9038  -22.6140   19.6487 C   0  0  0  0  0  0
  -27.8544  -21.2560   18.0678 C   0  0  0  0  0  0
  -27.1404  -21.2883   16.7256 C   0  0  0  0  0  0
  -25.9311  -18.5923   19.2154 C   0  0  0  0  0  0
  -28.0358  -17.4983   18.2743 C   0  0  0  0  0  0
  -29.0230  -18.9605   20.9853 C   0  0  0  0  0  0
  -29.2931  -24.0753   20.0167 C   0  0  0  0  0  0
  -30.2894  -18.1101   20.6465 C   0  0  0  0  0  0
  -30.5686  -16.8667   21.5612 C   0  0  0  0  0  0
  -28.1331  -25.1185   19.8393 C   0  0  0  0  0  0
  -27.2232  -18.7962   18.4061 C   0  0  0  0  0  0
  -28.3138  -22.4651   18.4491 N   0  0  0  0  0  0
  -30.0157  -15.5523   21.1425 N   0  0  0  0  0  0
  -31.4666  -12.4545   19.1246 H   0  0  0  0  0  0
  -30.3364  -11.3423   19.8448 H   0  0  0  0  0  0
  -29.7430  -11.7794   17.4419 H   0  0  0  0  0  0
  -29.6517  -13.4945   17.7569 H   0  0  0  0  0  0
  -27.8388  -11.3093   18.8329 H   0  0  0  0  0  0
  -27.3641  -12.6227   17.7897 H   0  0  0  0  0  0
  -27.6896  -14.2604   19.5559 H   0  0  0  0  0  0
  -28.6906  -12.0027   21.3574 H   0  0  0  0  0  0
  -28.4543  -13.6497   21.8574 H   0  0  0  0  0  0
  -25.2765   -9.5689   22.4756 H   0  0  0  0  0  0
  -24.0002   -7.4640   22.7475 H   0  0  0  0  0  0
  -21.0838   -8.8779   19.8954 H   0  0  0  0  0  0
  -22.3696  -10.9677   19.6161 H   0  0  0  0  0  0
  -21.2008   -7.6150   23.9715 H   0  0  0  0  0  0
  -21.1487   -6.0522   25.9077 H   0  0  0  0  0  0
  -22.0594   -2.7610   23.2837 H   0  0  0  0  0  0
  -22.4122  -11.9877   22.4776 H   0  0  0  0  0  0
  -21.1121  -13.1243   22.2615 H   0  0  0  0  0  0
  -24.6585  -15.8396   20.5170 H   0  0  0  0  0  0
  -26.2783  -15.6277   20.0850 H   0  0  0  0  0  0
  -26.7161  -32.5479   23.1143 H   0  0  0  0  0  0
  -25.0097  -33.9757   25.0477 H   0  0  0  0  0  0
  -22.7025  -31.3108   21.4163 H   0  0  0  0  0  0
  -23.3755  -35.9633   23.3279 H   0  0  0  0  0  0
  -24.3593  -36.8945   22.2054 H   0  0  0  0  0  0
  -23.7223  -37.6496   23.6661 H   0  0  0  0  0  0
  -26.0777  -31.5712   20.6057 H   0  0  0  0  0  0
  -26.8341  -30.8534   21.9991 H   0  0  0  0  0  0
  -28.1075  -29.0194   21.1730 H   0  0  0  0  0  0
  -25.9361  -25.9730   18.9799 H   0  0  0  0  0  0
  -23.9502  -27.3246   19.0239 H   0  0  0  0  0  0
  -23.7344  -30.6090   19.4100 H   0  0  0  0  0  0
  -22.7412  -29.2578   19.8682 H   0  0  0  0  0  0
  -25.1276  -36.1962   25.0823 H   0  0  0  0  0  0
  -20.9967  -28.3226   24.1414 H   0  0  0  0  0  0
  -20.5662  -26.2273   23.3596 H   0  0  0  0  0  0
  -21.6644  -26.7424   22.1205 H   0  0  0  0  0  0
  -19.6909  -25.6284   21.1224 H   0  0  0  0  0  0
  -19.6681  -27.3179   20.6723 H   0  0  0  0  0  0
  -17.4204  -26.6655   21.4009 H   0  0  0  0  0  0
  -18.0332  -26.0039   22.8996 H   0  0  0  0  0  0
  -19.7938  -30.7252   24.2244 H   0  0  0  0  0  0
  -17.5015  -31.6244   24.5154 H   0  0  0  0  0  0
  -15.5348  -30.2950   23.7652 H   0  0  0  0  0  0
  -15.8677  -28.0791   22.7050 H   0  0  0  0  0  0
  -24.5942  -30.6992   25.7830 H   0  0  0  0  0  0
  -24.8837  -32.2861   26.4848 H   0  0  0  0  0  0
  -25.8072  -30.8969   27.0279 H   0  0  0  0  0  0
  -26.2877  -29.6796   24.1177 H   0  0  0  0  0  0
  -27.4016  -29.7257   25.4646 H   0  0  0  0  0  0
  -27.8746  -30.4326   23.9376 H   0  0  0  0  0  0
  -27.2678  -33.3626   26.2066 H   0  0  0  0  0  0
  -28.3861  -32.6852   25.0323 H   0  0  0  0  0  0
  -28.0711  -31.8443   26.5425 H   0  0  0  0  0  0
  -28.2581  -38.0126   24.7549 H   0  0  0  0  0  0
  -28.1109  -36.2662   24.6226 H   0  0  0  0  0  0
  -27.2319  -37.1385   25.8863 H   0  0  0  0  0  0
  -20.9340  -29.8786   21.6950 H   0  0  0  0  0  0
  -26.0176  -38.2868   24.1437 H   0  0  0  0  0  0
  -29.7075  -21.6049   21.3895 H   0  0  0  0  0  0
  -26.0906  -21.0168   16.8398 H   0  0  0  0  0  0
  -27.6102  -20.5972   16.0252 H   0  0  0  0  0  0
  -27.1734  -22.2790   16.2712 H   0  0  0  0  0  0
  -25.2852  -19.4683   19.1472 H   0  0  0  0  0  0
  -26.1141  -18.4060   20.2719 H   0  0  0  0  0  0
  -25.3612  -17.7456   18.8314 H   0  0  0  0  0  0
  -28.9536  -17.6577   17.7082 H   0  0  0  0  0  0
  -27.4579  -16.7495   17.7313 H   0  0  0  0  0  0
  -28.2767  -17.0398   19.2290 H   0  0  0  0  0  0
  -28.1502  -18.3159   21.0363 H   0  0  0  0  0  0
  -29.1308  -19.3387   22.0027 H   0  0  0  0  0  0
  -30.1374  -24.3671   19.3921 H   0  0  0  0  0  0
  -29.6512  -24.0984   21.0460 H   0  0  0  0  0  0
  -31.1387  -18.7857   20.7535 H   0  0  0  0  0  0
  -30.3190  -17.8171   19.6002 H   0  0  0  0  0  0
  -30.2146  -17.0756   22.5717 H   0  0  0  0  0  0
  -31.6504  -16.7636   21.6654 H   0  0  0  0  0  0
  -27.3000  -24.7669   20.4504 H   0  0  0  0  0  0
  -27.8246  -25.0453   18.7966 H   0  0  0  0  0  0
  -26.8759  -18.9420   17.3876 H   0  0  0  0  0  0
  -29.0732  -15.3419   21.4370 H   0  0  0  0  0  0
  1 25  1  0  0  0
  1 30  2  0  0  0
  1 86  1  0  0  0
  2  3  1  0  0  0
  2 25  1  0  0  0
  2 87  1  0  0  0
  2 88  1  0  0  0
  3  4  1  0  0  0
  3 89  1  0  0  0
  3 90  1  0  0  0
  4  5  1  0  0  0
  4 91  1  0  0  0
  4 92  1  0  0  0
  5  6  1  0  0  0
  5 26  1  0  0  0
  5 93  1  0  0  0
  6 25  1  0  0  0
  6 94  1  0  0  0
  6 95  1  0  0  0
  7  8  2  0  0  0
  7 26  1  0  0  0
  7 29  1  0  0  0
  8  9  1  0  0  0
  8 22  1  0  0  0
  9 10  1  0  0  0
  9 27  2  0  0  0
 10 11  2  0  0  0
 10 15  1  0  0  0
 11 12  1  0  0  0
 11 96  1  0  0  0
 12 13  2  0  0  0
 12 97  1  0  0  0
 13 14  1  0  0  0
 13 31  1  0  0  0
 14 15  2  0  0  0
 14 98  1  0  0  0
 15 99  1  0  0  0
 16 17  2  0  0  0
 16 21  1  0  0  0
 16 31  1  0  0  0
 17 18  1  0  0  0
 17100  1  0  0  0
 18 19  2  0  0  0
 18101  1  0  0  0
 19 20  1  0  0  0
 19 24  1  0  0  0
 20 21  2  0  0  0
 20102  1  0  0  0
 21 23  1  0  0  0
 22 28  1  0  0  0
 22 32  2  0  0  0
 26 27  1  0  0  0
 28103  1  0  0  0
 28104  1  0  0  0
 29105  1  0  0  0
 29106  1  0  0  0
 33 34  1  0  0  0
 33 66  1  0  0  0
 33 70  2  0  0  0
 34 36  1  0  0  0
 34 59  1  0  0  0
 34107  1  0  0  0
 35 44  2  0  0  0
 35 45  1  0  0  0
 35 68  1  0  0  0
 36 56  1  0  0  0
 36108  1  0  0  0
 37 39  1  0  0  0
 37 47  1  0  0  0
 37 66  1  0  0  0
 37109  1  0  0  0
 38 43  2  0  0  0
 38 46  1  0  0  0
 38 47  1  0  0  0
 39 64  1  0  0  0
 39 67  2  0  0  0
 40 52  1  0  0  0
 40 53  2  0  0  0
 40 58  1  0  0  0
 41110  1  0  0  0
 41111  1  0  0  0
 41112  1  0  0  0
 41 48  1  0  0  0
 42 43  1  0  0  0
 42 66  1  0  0  0
 42113  1  0  0  0
 42114  1  0  0  0
 43 44  1  0  0  0
 44115  1  0  0  0
 45 46  2  0  0  0
 45116  1  0  0  0
 46117  1  0  0  0
 47118  1  0  0  0
 47119  1  0  0  0
 48 56  1  0  0  0
 48 65  1  0  0  0
 48120  1  0  0  0
 49 50  1  0  0  0
 49 53  1  0  0  0
 49 64  1  0  0  0
 49121  1  0  0  0
 50 51  1  0  0  0
 50122  1  0  0  0
 50123  1  0  0  0
 51 52  1  0  0  0
 51124  1  0  0  0
 51125  1  0  0  0
 52126  1  0  0  0
 52127  1  0  0  0
 53 54  1  0  0  0
 54 55  2  0  0  0
 54128  1  0  0  0
 55 57  1  0  0  0
 55129  1  0  0  0
 56 69  2  0  0  0
 57 58  2  0  0  0
 57130  1  0  0  0
 58131  1  0  0  0
 59 60  1  0  0  0
 59 61  1  0  0  0
 59 62  1  0  0  0
 60132  1  0  0  0
 60133  1  0  0  0
 60134  1  0  0  0
 61135  1  0  0  0
 61136  1  0  0  0
 61137  1  0  0  0
 62138  1  0  0  0
 62139  1  0  0  0
 62140  1  0  0  0
 63 65  1  0  0  0
 63141  1  0  0  0
 63142  1  0  0  0
 63143  1  0  0  0
 64144  1  0  0  0
 65145  1  0  0  0
 68 83  1  0  0  0
 71 72  2  0  0  0
 71 74  1  0  0  0
 71146  1  0  0  0
 72 73  1  0  0  0
 72 79  1  0  0  0
 73 75  2  0  0  0
 73 84  1  0  0  0
 74 80  1  0  0  0
 74 85  2  0  0  0
 75 76  1  0  0  0
 75 85  1  0  0  0
 76147  1  0  0  0
 76148  1  0  0  0
 76149  1  0  0  0
 77150  1  0  0  0
 77151  1  0  0  0
 77152  1  0  0  0
 77 84  1  0  0  0
 78 84  1  0  0  0
 78153  1  0  0  0
 78154  1  0  0  0
 78155  1  0  0  0
 79 81  1  0  0  0
 79156  1  0  0  0
 79157  1  0  0  0
 80 83  1  0  0  0
 80158  1  0  0  0
 80159  1  0  0  0
 81 82  1  0  0  0
 81160  1  0  0  0
 81161  1  0  0  0
 82 86  1  0  0  0
 82162  1  0  0  0
 82163  1  0  0  0
 83164  1  0  0  0
 83165  1  0  0  0
 84166  1  0  0  0
 86167  1  0  0  0
M  ISO  4   1 100  68 101  83 101  86 100
M  END
> <chiral flag>
0

> <version>
0

> <s_m_source_file>
/data/baiqing/PycharmProjects/Reinvent-master-3.2/result/LINK_invent/BTK/process_docking_weight1_custom_sum_contain_oxygen_bond_distance_aromatic_linkinvent_7_9_3/rearranged_h_0091.sdf

> <i_m_source_file_index>
74

> <r_mmod_Potential_Energy-OPLS-2005>
-161.500061035156

> <r_mmod_Stretch_Energy-OPLS-2005>
59.8295516967773

> <r_mmod_Bend_Energy-OPLS-2005>
128.35661315918

> <r_mmod_Torsional_Energy-OPLS-2005>
205.043609619141

> <r_mmod_Improper_Torsional_Energy-OPLS-2005>
3.13921046257019

> <r_mmod_Van_der_Waal_Energy-OPLS-2005>
157.092880249023

> <r_mmod_Electrostatic_Energy-OPLS-2005>
-523.327453613281

> <r_mmod_Solvation_Energy-OPLS-2005>
-217.433746337891

> <b_mmod_Minimization_Converged-OPLS-2005>
0

> <r_mmod_RMS_Derivative-OPLS-2005>
0.945610761642456

$$$$
75
                    3D
 Structure written by MMmdl.
173181  0  0  1  0            999 V2000
  -30.6437  -14.7104   20.4742 C   0  0  0  0  0  0
  -30.4167  -12.4339   19.4796 C   0  0  0  0  0  0
  -29.5055  -12.5043   18.2366 C   0  0  0  0  0  0
  -28.0310  -12.3327   18.6450 C   0  0  0  0  0  0
  -27.6374  -13.2303   19.8488 C   0  0  2  0  0  0
  -28.6770  -13.1664   20.9881 C   0  0  0  0  0  0
  -25.2486  -13.8193   20.5690 C   0  0  0  0  0  0
  -24.1775  -13.0437   20.9204 C   0  0  0  0  0  0
  -24.6361  -11.6914   20.8739 C   0  0  0  0  0  0
  -23.9034  -10.4297   21.0395 C   0  0  0  0  0  0
  -24.3599   -9.4213   21.9164 C   0  0  0  0  0  0
  -23.6295   -8.2237   22.0733 C   0  0  0  0  0  0
  -22.4278   -8.0268   21.3531 C   0  0  0  0  0  0
  -21.9902   -9.0220   20.4615 C   0  0  0  0  0  0
  -22.7208  -10.2114   20.3033 C   0  0  0  0  0  0
  -21.6851   -6.0733   22.5273 C   0  0  0  0  0  0
  -21.4009   -6.5624   23.8207 C   0  0  0  0  0  0
  -21.3666   -5.6779   24.9165 C   0  0  0  0  0  0
  -21.6054   -4.3043   24.7217 C   0  0  0  0  0  0
  -21.8818   -3.8134   23.4332 C   0  0  0  0  0  0
  -21.9189   -4.6962   22.3393 C   0  0  0  0  0  0
  -22.7799  -13.5223   21.1861 C   0  0  0  0  0  0
  -22.1664   -4.2146   21.0977 F   0  0  0  0  0  0
  -21.5639   -3.4531   25.7725 F   0  0  0  0  0  0
  -29.9839  -13.5029   20.4113 N   0  0  0  0  0  0
  -26.2897  -12.9384   20.3260 N   0  0  0  0  0  0
  -25.9291  -11.6530   20.5726 N   0  0  0  0  0  0
  -22.0447  -12.8221   22.0414 N   0  0  0  0  0  0
  -25.4195  -15.1911   20.4125 N   0  0  0  0  0  0
  -31.8381  -14.7310   20.1584 O   0  0  0  0  0  0
  -21.6642   -6.8866   21.4229 O   0  0  0  0  0  0
  -22.3497  -14.5533   20.6701 O   0  0  0  0  0  0
  -24.6327  -31.8538   23.2038 C   0  0  0  0  0  0
  -25.9153  -32.4743   23.8376 C   0  0  1  0  0  0
  -27.2133  -27.2701   20.1478 C   0  0  0  0  0  0
  -25.5962  -33.8555   24.2293 N   0  0  0  0  0  0
  -23.4287  -30.4791   21.5459 C   0  0  2  0  0  0
  -24.8721  -28.9205   20.1223 C   0  0  0  0  0  0
  -22.7503  -29.4602   22.4937 C   0  0  0  0  0  0
  -18.0276  -28.1397   22.8476 C   0  0  0  0  0  0
  -24.1483  -36.7266   23.2643 C   0  0  0  0  0  0
  -25.9748  -30.7656   21.3857 C   0  0  0  0  0  0
  -26.0431  -29.3872   20.7362 C   0  0  0  0  0  0
  -27.2185  -28.5736   20.7440 C   0  0  0  0  0  0
  -26.0337  -26.8739   19.4901 C   0  0  0  0  0  0
  -24.8712  -27.6674   19.4898 C   0  0  0  0  0  0
  -23.6461  -29.8103   20.1629 C   0  0  0  0  0  0
  -25.4113  -36.3075   24.0341 C   0  0  1  0  0  0
  -20.5890  -28.3689   23.1268 C   0  0  2  0  0  0
  -20.6781  -26.9401   22.5416 C   0  0  0  0  0  0
  -19.5756  -26.6372   21.5219 C   0  0  0  0  0  0
  -18.1925  -26.7940   22.1605 C   0  0  0  0  0  0
  -19.1539  -28.8861   23.2859 C   0  0  0  0  0  0
  -18.9462  -30.1472   23.8864 C   0  0  0  0  0  0
  -17.6463  -30.6600   24.0557 C   0  0  0  0  0  0
  -25.9047  -34.9438   23.5113 C   0  0  0  0  0  0
  -16.5351  -29.9089   23.6352 C   0  0  0  0  0  0
  -16.7260  -28.6513   23.0354 C   0  0  0  0  0  0
  -26.4526  -31.6596   25.0771 C   0  0  0  0  0  0
  -25.3762  -31.3753   26.1508 C   0  0  0  0  0  0
  -27.0391  -30.3019   24.6274 C   0  0  0  0  0  0
  -27.6074  -32.4371   25.7527 C   0  0  0  0  0  0
  -27.5584  -37.1793   24.8469 C   0  0  0  0  0  0
  -21.4207  -29.3041   22.3663 N   0  0  0  0  0  0
  -26.4283  -37.3782   23.9426 N   0  0  0  0  0  0
  -24.6978  -31.0515   22.1000 N   0  0  0  0  0  0
  -23.4191  -28.8120   23.3029 O   0  0  0  0  0  0
  -28.3092  -26.3911   20.0962 O   0  0  0  0  0  0
  -26.5586  -34.8923   22.4663 O   0  0  0  0  0  0
  -23.5482  -32.1348   23.7338 O   0  0  0  0  0  0
  -29.4783  -18.4342   20.8827 C   0  0  0  0  0  0
  -29.9502  -19.8131   20.8912 C   0  0  0  0  0  0
  -31.3561  -19.9565   20.6941 C   0  0  0  0  0  0
  -32.0750  -18.8419   20.1868 C   0  0  0  0  0  0
  -30.3339  -17.2988   20.5894 C   0  0  0  0  0  0
  -33.2760  -21.0591   22.0583 C   0  0  0  0  0  0
  -33.4636  -18.5905   18.0795 C   0  0  0  0  0  0
  -34.5048  -18.0932   20.3473 C   0  0  0  0  0  0
  -27.3918  -23.3424   22.3207 C   0  0  0  0  0  0
  -26.8614  -23.5512   19.9152 C   0  0  0  0  0  0
  -28.9899  -21.0536   21.2260 C   0  0  0  0  0  0
  -32.0911  -21.2435   21.0912 C   0  0  0  0  0  0
  -29.1175  -22.5721   20.6112 C   0  0  0  0  0  0
  -28.4413  -25.2814   21.0814 C   0  0  0  0  0  0
  -33.4765  -18.9413   19.5763 C   0  0  0  0  0  0
  -27.9953  -23.7066   20.9405 C   0  0  0  0  0  0
  -31.5732  -17.5919   20.1613 N   0  0  0  0  0  0
  -29.9175  -15.8777   20.7047 N   0  0  0  0  0  0
  -31.4611  -12.5313   19.1818 H   0  0  0  0  0  0
  -30.3401  -11.4583   19.9607 H   0  0  0  0  0  0
  -29.7911  -11.7371   17.5158 H   0  0  0  0  0  0
  -29.6388  -13.4632   17.7333 H   0  0  0  0  0  0
  -27.8881  -11.2832   18.9042 H   0  0  0  0  0  0
  -27.3754  -12.5272   17.7946 H   0  0  0  0  0  0
  -27.6347  -14.2532   19.4724 H   0  0  0  0  0  0
  -28.7013  -12.1716   21.4357 H   0  0  0  0  0  0
  -28.4098  -13.8568   21.7883 H   0  0  0  0  0  0
  -25.2742   -9.5714   22.4734 H   0  0  0  0  0  0
  -24.0013   -7.4638   22.7462 H   0  0  0  0  0  0
  -21.0834   -8.8694   19.8935 H   0  0  0  0  0  0
  -22.3628  -10.9630   19.6140 H   0  0  0  0  0  0
  -21.1993   -7.6135   23.9706 H   0  0  0  0  0  0
  -21.1505   -6.0512   25.9072 H   0  0  0  0  0  0
  -22.0601   -2.7606   23.2819 H   0  0  0  0  0  0
  -22.4068  -11.9897   22.4822 H   0  0  0  0  0  0
  -21.1043  -13.1199   22.2580 H   0  0  0  0  0  0
  -24.6507  -15.8432   20.5208 H   0  0  0  0  0  0
  -26.2577  -15.6265   20.0507 H   0  0  0  0  0  0
  -26.7220  -32.5382   23.1117 H   0  0  0  0  0  0
  -25.0251  -33.9701   25.0542 H   0  0  0  0  0  0
  -22.7281  -31.3032   21.3968 H   0  0  0  0  0  0
  -23.3778  -35.9562   23.3280 H   0  0  0  0  0  0
  -24.3586  -36.8895   22.2064 H   0  0  0  0  0  0
  -23.7184  -37.6446   23.6659 H   0  0  0  0  0  0
  -26.1165  -31.5181   20.6093 H   0  0  0  0  0  0
  -26.8561  -30.8172   22.0144 H   0  0  0  0  0  0
  -28.1182  -28.9255   21.2295 H   0  0  0  0  0  0
  -26.0062  -25.9327   18.9648 H   0  0  0  0  0  0
  -23.9811  -27.3087   18.9903 H   0  0  0  0  0  0
  -23.7733  -30.5825   19.4037 H   0  0  0  0  0  0
  -22.7648  -29.2440   19.8563 H   0  0  0  0  0  0
  -25.1288  -36.1929   25.0833 H   0  0  0  0  0  0
  -20.9977  -28.3257   24.1384 H   0  0  0  0  0  0
  -20.5699  -26.2279   23.3613 H   0  0  0  0  0  0
  -21.6643  -26.7435   22.1187 H   0  0  0  0  0  0
  -19.6912  -25.6271   21.1257 H   0  0  0  0  0  0
  -19.6723  -27.3165   20.6739 H   0  0  0  0  0  0
  -17.4211  -26.6694   21.3991 H   0  0  0  0  0  0
  -18.0303  -26.0085   22.8997 H   0  0  0  0  0  0
  -19.7942  -30.7305   24.2204 H   0  0  0  0  0  0
  -17.5018  -31.6280   24.5159 H   0  0  0  0  0  0
  -15.5354  -30.2982   23.7736 H   0  0  0  0  0  0
  -15.8644  -28.0842   22.7089 H   0  0  0  0  0  0
  -24.5928  -30.7079   25.7891 H   0  0  0  0  0  0
  -24.8955  -32.2917   26.4953 H   0  0  0  0  0  0
  -25.8119  -30.8952   27.0275 H   0  0  0  0  0  0
  -26.2986  -29.6761   24.1265 H   0  0  0  0  0  0
  -27.4040  -29.7300   25.4822 H   0  0  0  0  0  0
  -27.8885  -30.4333   23.9558 H   0  0  0  0  0  0
  -27.2673  -33.3698   26.2057 H   0  0  0  0  0  0
  -28.3905  -32.6902   25.0359 H   0  0  0  0  0  0
  -28.0713  -31.8518   26.5475 H   0  0  0  0  0  0
  -28.2595  -38.0102   24.7556 H   0  0  0  0  0  0
  -28.1081  -36.2637   24.6240 H   0  0  0  0  0  0
  -27.2293  -37.1378   25.8866 H   0  0  0  0  0  0
  -20.9394  -29.8742   21.6847 H   0  0  0  0  0  0
  -26.0156  -38.2839   24.1483 H   0  0  0  0  0  0
  -28.4466  -18.2445   21.1459 H   0  0  0  0  0  0
  -33.6280  -22.0340   22.3962 H   0  0  0  0  0  0
  -34.1416  -20.5641   21.6282 H   0  0  0  0  0  0
  -32.9784  -20.5033   22.9479 H   0  0  0  0  0  0
  -32.7540  -19.2207   17.5430 H   0  0  0  0  0  0
  -33.1813  -17.5509   17.9094 H   0  0  0  0  0  0
  -34.4466  -18.7476   17.6360 H   0  0  0  0  0  0
  -34.5197  -18.3468   21.4062 H   0  0  0  0  0  0
  -35.5106  -18.2420   19.9561 H   0  0  0  0  0  0
  -34.2737  -17.0304   20.2735 H   0  0  0  0  0  0
  -26.9390  -22.3512   22.3286 H   0  0  0  0  0  0
  -26.5968  -24.0289   22.6180 H   0  0  0  0  0  0
  -28.1477  -23.3686   23.1084 H   0  0  0  0  0  0
  -26.5598  -22.5076   19.8159 H   0  0  0  0  0  0
  -27.1692  -23.8955   18.9284 H   0  0  0  0  0  0
  -25.9723  -24.1059   20.2134 H   0  0  0  0  0  0
  -29.0184  -21.1301   22.3134 H   0  0  0  0  0  0
  -27.9819  -20.7095   20.9975 H   0  0  0  0  0  0
  -31.4331  -21.8521   21.6952 H   0  0  0  0  0  0
  -32.3749  -21.8177   20.2085 H   0  0  0  0  0  0
  -29.1967  -22.4787   19.5277 H   0  0  0  0  0  0
  -30.0548  -23.0353   20.8939 H   0  0  0  0  0  0
  -29.4955  -25.2809   21.3616 H   0  0  0  0  0  0
  -27.9589  -25.6864   21.9727 H   0  0  0  0  0  0
  -33.8048  -19.9775   19.6007 H   0  0  0  0  0  0
  -28.9541  -15.7303   20.9601 H   0  0  0  0  0  0
  1 25  1  0  0  0
  1 30  2  0  0  0
  1 88  1  0  0  0
  2  3  1  0  0  0
  2 25  1  0  0  0
  2 89  1  0  0  0
  2 90  1  0  0  0
  3  4  1  0  0  0
  3 91  1  0  0  0
  3 92  1  0  0  0
  4  5  1  0  0  0
  4 93  1  0  0  0
  4 94  1  0  0  0
  5  6  1  0  0  0
  5 26  1  0  0  0
  5 95  1  0  0  0
  6 25  1  0  0  0
  6 96  1  0  0  0
  6 97  1  0  0  0
  7  8  2  0  0  0
  7 26  1  0  0  0
  7 29  1  0  0  0
  8  9  1  0  0  0
  8 22  1  0  0  0
  9 10  1  0  0  0
  9 27  2  0  0  0
 10 11  2  0  0  0
 10 15  1  0  0  0
 11 12  1  0  0  0
 11 98  1  0  0  0
 12 13  2  0  0  0
 12 99  1  0  0  0
 13 14  1  0  0  0
 13 31  1  0  0  0
 14 15  2  0  0  0
 14100  1  0  0  0
 15101  1  0  0  0
 16 17  2  0  0  0
 16 21  1  0  0  0
 16 31  1  0  0  0
 17 18  1  0  0  0
 17102  1  0  0  0
 18 19  2  0  0  0
 18103  1  0  0  0
 19 20  1  0  0  0
 19 24  1  0  0  0
 20 21  2  0  0  0
 20104  1  0  0  0
 21 23  1  0  0  0
 22 28  1  0  0  0
 22 32  2  0  0  0
 26 27  1  0  0  0
 28105  1  0  0  0
 28106  1  0  0  0
 29107  1  0  0  0
 29108  1  0  0  0
 33 34  1  0  0  0
 33 66  1  0  0  0
 33 70  2  0  0  0
 34 36  1  0  0  0
 34 59  1  0  0  0
 34109  1  0  0  0
 35 44  2  0  0  0
 35 45  1  0  0  0
 35 68  1  0  0  0
 36 56  1  0  0  0
 36110  1  0  0  0
 37 39  1  0  0  0
 37 47  1  0  0  0
 37 66  1  0  0  0
 37111  1  0  0  0
 38 43  2  0  0  0
 38 46  1  0  0  0
 38 47  1  0  0  0
 39 64  1  0  0  0
 39 67  2  0  0  0
 40 52  1  0  0  0
 40 53  2  0  0  0
 40 58  1  0  0  0
 41112  1  0  0  0
 41113  1  0  0  0
 41114  1  0  0  0
 41 48  1  0  0  0
 42 43  1  0  0  0
 42 66  1  0  0  0
 42115  1  0  0  0
 42116  1  0  0  0
 43 44  1  0  0  0
 44117  1  0  0  0
 45 46  2  0  0  0
 45118  1  0  0  0
 46119  1  0  0  0
 47120  1  0  0  0
 47121  1  0  0  0
 48 56  1  0  0  0
 48 65  1  0  0  0
 48122  1  0  0  0
 49 50  1  0  0  0
 49 53  1  0  0  0
 49 64  1  0  0  0
 49123  1  0  0  0
 50 51  1  0  0  0
 50124  1  0  0  0
 50125  1  0  0  0
 51 52  1  0  0  0
 51126  1  0  0  0
 51127  1  0  0  0
 52128  1  0  0  0
 52129  1  0  0  0
 53 54  1  0  0  0
 54 55  2  0  0  0
 54130  1  0  0  0
 55 57  1  0  0  0
 55131  1  0  0  0
 56 69  2  0  0  0
 57 58  2  0  0  0
 57132  1  0  0  0
 58133  1  0  0  0
 59 60  1  0  0  0
 59 61  1  0  0  0
 59 62  1  0  0  0
 60134  1  0  0  0
 60135  1  0  0  0
 60136  1  0  0  0
 61137  1  0  0  0
 61138  1  0  0  0
 61139  1  0  0  0
 62140  1  0  0  0
 62141  1  0  0  0
 62142  1  0  0  0
 63 65  1  0  0  0
 63143  1  0  0  0
 63144  1  0  0  0
 63145  1  0  0  0
 64146  1  0  0  0
 65147  1  0  0  0
 68 84  1  0  0  0
 71 72  2  0  0  0
 71 75  1  0  0  0
 71148  1  0  0  0
 72 73  1  0  0  0
 72 81  1  0  0  0
 73 74  2  0  0  0
 73 82  1  0  0  0
 74 85  1  0  0  0
 74 87  1  0  0  0
 75 87  2  0  0  0
 75 88  1  0  0  0
 76 82  1  0  0  0
 76149  1  0  0  0
 76150  1  0  0  0
 76151  1  0  0  0
 77152  1  0  0  0
 77153  1  0  0  0
 77154  1  0  0  0
 77 85  1  0  0  0
 78 85  1  0  0  0
 78155  1  0  0  0
 78156  1  0  0  0
 78157  1  0  0  0
 79158  1  0  0  0
 79159  1  0  0  0
 79160  1  0  0  0
 79 86  1  0  0  0
 80 86  1  0  0  0
 80161  1  0  0  0
 80162  1  0  0  0
 80163  1  0  0  0
 81 83  1  0  0  0
 81164  1  0  0  0
 81165  1  0  0  0
 82166  1  0  0  0
 82167  1  0  0  0
 83 86  1  0  0  0
 83168  1  0  0  0
 83169  1  0  0  0
 84 86  1  0  0  0
 84170  1  0  0  0
 84171  1  0  0  0
 85172  1  0  0  0
 88173  1  0  0  0
M  ISO  4   1 100  68 101  84 101  88 100
M  END
> <chiral flag>
0

> <version>
0

> <s_m_source_file>
/data/baiqing/PycharmProjects/Reinvent-master-3.2/result/LINK_invent/BTK/process_docking_weight1_custom_sum_contain_oxygen_bond_distance_aromatic_linkinvent_7_9_3/rearranged_h_0091.sdf

> <i_m_source_file_index>
75

> <r_mmod_Potential_Energy-OPLS-2005>
104.310020446777

> <r_mmod_Stretch_Energy-OPLS-2005>
134.354949951172

> <r_mmod_Bend_Energy-OPLS-2005>
213.948837280273

> <r_mmod_Torsional_Energy-OPLS-2005>
264.200439453125

> <r_mmod_Improper_Torsional_Energy-OPLS-2005>
4.68863391876221

> <r_mmod_Van_der_Waal_Energy-OPLS-2005>
157.107009887695

> <r_mmod_Electrostatic_Energy-OPLS-2005>
-524.232727050781

> <r_mmod_Solvation_Energy-OPLS-2005>
-219.065231323242

> <b_mmod_Minimization_Converged-OPLS-2005>
0

> <r_mmod_RMS_Derivative-OPLS-2005>
2.7231867313385

$$$$
76
                    3D
 Structure written by MMmdl.
189197  0  0  1  0            999 V2000
  -30.6951  -14.4200   20.6284 C   0  0  0  0  0  0
  -30.4280  -12.2966   19.4097 C   0  0  0  0  0  0
  -29.4972  -12.5362   18.2032 C   0  0  0  0  0  0
  -28.0134  -12.4024   18.6055 C   0  0  0  0  0  0
  -27.6691  -13.2039   19.8898 C   0  0  2  0  0  0
  -28.7056  -12.9195   20.9987 C   0  0  0  0  0  0
  -25.2602  -13.8126   20.5678 C   0  0  0  0  0  0
  -24.1842  -13.0425   20.9169 C   0  0  0  0  0  0
  -24.6387  -11.6894   20.8749 C   0  0  0  0  0  0
  -23.9038  -10.4289   21.0403 C   0  0  0  0  0  0
  -24.3597   -9.4222   21.9192 C   0  0  0  0  0  0
  -23.6290   -8.2249   22.0752 C   0  0  0  0  0  0
  -22.4275   -8.0278   21.3550 C   0  0  0  0  0  0
  -21.9900   -9.0238   20.4654 C   0  0  0  0  0  0
  -22.7202  -10.2131   20.3056 C   0  0  0  0  0  0
  -21.6844   -6.0747   22.5289 C   0  0  0  0  0  0
  -21.4009   -6.5645   23.8230 C   0  0  0  0  0  0
  -21.3660   -5.6785   24.9187 C   0  0  0  0  0  0
  -21.6037   -4.3047   24.7221 C   0  0  0  0  0  0
  -21.8820   -3.8150   23.4335 C   0  0  0  0  0  0
  -21.9191   -4.6978   22.3400 C   0  0  0  0  0  0
  -22.7855  -13.5263   21.1793 C   0  0  0  0  0  0
  -22.1655   -4.2170   21.0976 F   0  0  0  0  0  0
  -21.5640   -3.4523   25.7726 F   0  0  0  0  0  0
  -30.0421  -13.2416   20.4644 N   0  0  0  0  0  0
  -26.3059  -12.9312   20.3429 N   0  0  0  0  0  0
  -25.9327  -11.6483   20.5802 N   0  0  0  0  0  0
  -22.0427  -12.8344   22.0372 N   0  0  0  0  0  0
  -25.4352  -15.1845   20.4041 N   0  0  0  0  0  0
  -31.7735  -14.6835   20.0818 O   0  0  0  0  0  0
  -21.6644   -6.8875   21.4248 O   0  0  0  0  0  0
  -22.3597  -14.5537   20.6574 O   0  0  0  0  0  0
  -24.6086  -31.8720   23.2088 C   0  0  0  0  0  0
  -25.9002  -32.4850   23.8379 C   0  0  1  0  0  0
  -27.2578  -27.4749   20.1206 C   0  0  0  0  0  0
  -25.5866  -33.8644   24.2344 N   0  0  0  0  0  0
  -23.3954  -30.4899   21.5482 C   0  0  2  0  0  0
  -24.8475  -28.9475   20.1278 C   0  0  0  0  0  0
  -22.7369  -29.4690   22.5015 C   0  0  0  0  0  0
  -18.0261  -28.1390   22.8486 C   0  0  0  0  0  0
  -24.1452  -36.7322   23.2630 C   0  0  0  0  0  0
  -25.9151  -30.8581   21.3469 C   0  0  0  0  0  0
  -26.0020  -29.4882   20.7075 C   0  0  0  0  0  0
  -27.2096  -28.7619   20.6918 C   0  0  0  0  0  0
  -26.0861  -26.9283   19.5513 C   0  0  0  0  0  0
  -24.8813  -27.6623   19.5533 C   0  0  0  0  0  0
  -23.6030  -29.8053   20.1685 C   0  0  0  0  0  0
  -25.4067  -36.3122   24.0332 C   0  0  1  0  0  0
  -20.5848  -28.3667   23.1333 C   0  0  2  0  0  0
  -20.6760  -26.9404   22.5437 C   0  0  0  0  0  0
  -19.5747  -26.6389   21.5220 C   0  0  0  0  0  0
  -18.1909  -26.7946   22.1604 C   0  0  0  0  0  0
  -19.1508  -28.8842   23.2910 C   0  0  0  0  0  0
  -18.9453  -30.1452   23.8916 C   0  0  0  0  0  0
  -17.6458  -30.6599   24.0569 C   0  0  0  0  0  0
  -25.8994  -34.9496   23.5123 C   0  0  0  0  0  0
  -16.5346  -29.9106   23.6332 C   0  0  0  0  0  0
  -16.7253  -28.6527   23.0341 C   0  0  0  0  0  0
  -26.4440  -31.6588   25.0677 C   0  0  0  0  0  0
  -25.3751  -31.3646   26.1448 C   0  0  0  0  0  0
  -27.0247  -30.3064   24.5953 C   0  0  0  0  0  0
  -27.6019  -32.4258   25.7479 C   0  0  0  0  0  0
  -27.5562  -37.1792   24.8451 C   0  0  0  0  0  0
  -21.4106  -29.3042   22.3740 N   0  0  0  0  0  0
  -26.4247  -37.3806   23.9426 N   0  0  0  0  0  0
  -24.6577  -31.0865   22.0947 N   0  0  0  0  0  0
  -23.4160  -28.8260   23.3070 O   0  0  0  0  0  0
  -28.4653  -26.8182   20.0991 O   0  0  0  0  0  0
  -26.5557  -34.8942   22.4689 O   0  0  0  0  0  0
  -23.5293  -32.1434   23.7508 O   0  0  0  0  0  0
  -28.1209  -18.6898   23.1580 C   0  0  0  0  0  0
  -29.8502  -20.8703   23.1405 C   0  0  0  0  0  0
  -29.0405  -18.8260   22.1002 C   0  0  0  0  0  0
  -28.0414  -19.6363   24.1974 C   0  0  0  0  0  0
  -29.8647  -19.9831   22.0446 C   0  0  0  0  0  0
  -28.9515  -20.7231   24.2191 C   0  0  0  0  0  0
  -29.2334  -23.1706   24.9410 C   0  0  0  0  0  0
  -30.0896  -21.2682   26.3914 C   0  0  0  0  0  0
  -25.4410  -20.8115   23.6462 C   0  0  0  0  0  0
  -24.4631  -19.6800   25.6694 C   0  0  0  0  0  0
  -31.6851  -24.1592   18.7595 C   0  0  0  0  0  0
  -30.7943  -20.3042   20.8728 C   0  0  0  0  0  0
  -29.1469  -17.6474   21.1436 C   0  0  0  0  0  0
  -26.9639  -19.4325   25.2535 C   0  0  0  0  0  0
  -30.4219  -21.5874   20.0770 C   0  0  0  0  0  0
  -30.7345  -22.9264   20.8013 C   0  0  0  0  0  0
  -29.2782  -24.6257   19.5138 C   0  0  0  0  0  0
  -30.3436  -16.7409   21.5217 C   0  0  0  0  0  0
  -28.5030  -25.4654   20.5502 C   0  0  0  0  0  0
  -29.0165  -21.7111   25.3866 C   0  0  0  0  0  0
  -25.7179  -20.3435   25.0902 C   0  0  0  0  0  0
  -30.7076  -24.2159   19.9458 C   0  0  2  0  0  0
  -30.0298  -15.3200   21.3597 N   0  0  0  0  0  0
  -31.4720  -12.4069   19.1128 H   0  0  0  0  0  0
  -30.3287  -11.2724   19.7719 H   0  0  0  0  0  0
  -29.7376  -11.8392   17.4000 H   0  0  0  0  0  0
  -29.6789  -13.5388   17.8089 H   0  0  0  0  0  0
  -27.8015  -11.3427   18.7556 H   0  0  0  0  0  0
  -27.3688  -12.7294   17.7881 H   0  0  0  0  0  0
  -27.7297  -14.2643   19.6409 H   0  0  0  0  0  0
  -28.6774  -11.8616   21.2643 H   0  0  0  0  0  0
  -28.4602  -13.4499   21.9200 H   0  0  0  0  0  0
  -25.2719   -9.5729   22.4811 H   0  0  0  0  0  0
  -24.0001   -7.4646   22.7461 H   0  0  0  0  0  0
  -21.0830   -8.8714   19.8981 H   0  0  0  0  0  0
  -22.3589  -10.9674   19.6195 H   0  0  0  0  0  0
  -21.1991   -7.6144   23.9746 H   0  0  0  0  0  0
  -21.1492   -6.0509   25.9094 H   0  0  0  0  0  0
  -22.0602   -2.7613   23.2823 H   0  0  0  0  0  0
  -22.3950  -12.0025   22.4874 H   0  0  0  0  0  0
  -21.1054  -13.1468   22.2494 H   0  0  0  0  0  0
  -24.6664  -15.8397   20.4870 H   0  0  0  0  0  0
  -26.2902  -15.6186   20.0860 H   0  0  0  0  0  0
  -26.7077  -32.5603   23.1154 H   0  0  0  0  0  0
  -25.0109  -33.9819   25.0543 H   0  0  0  0  0  0
  -22.6803  -31.3034   21.4005 H   0  0  0  0  0  0
  -23.3724  -35.9642   23.3290 H   0  0  0  0  0  0
  -24.3568  -36.8946   22.2053 H   0  0  0  0  0  0
  -23.7186  -37.6500   23.6668 H   0  0  0  0  0  0
  -26.0079  -31.6203   20.5709 H   0  0  0  0  0  0
  -26.8088  -30.9270   21.9549 H   0  0  0  0  0  0
  -28.1059  -29.1837   21.1253 H   0  0  0  0  0  0
  -26.1067  -25.9456   19.1025 H   0  0  0  0  0  0
  -23.9882  -27.2286   19.1248 H   0  0  0  0  0  0
  -23.6995  -30.5704   19.3975 H   0  0  0  0  0  0
  -22.7318  -29.2118   19.8845 H   0  0  0  0  0  0
  -25.1252  -36.1969   25.0828 H   0  0  0  0  0  0
  -20.9935  -28.3245   24.1454 H   0  0  0  0  0  0
  -20.5651  -26.2284   23.3633 H   0  0  0  0  0  0
  -21.6638  -26.7447   22.1240 H   0  0  0  0  0  0
  -19.6912  -25.6299   21.1253 H   0  0  0  0  0  0
  -19.6713  -27.3205   20.6756 H   0  0  0  0  0  0
  -17.4202  -26.6725   21.3977 H   0  0  0  0  0  0
  -18.0275  -26.0066   22.8970 H   0  0  0  0  0  0
  -19.7930  -30.7263   24.2281 H   0  0  0  0  0  0
  -17.5022  -31.6279   24.5164 H   0  0  0  0  0  0
  -15.5356  -30.3031   23.7639 H   0  0  0  0  0  0
  -15.8648  -28.0870   22.7036 H   0  0  0  0  0  0
  -24.5963  -30.6966   25.7769 H   0  0  0  0  0  0
  -24.8918  -32.2785   26.4948 H   0  0  0  0  0  0
  -25.8167  -30.8828   27.0179 H   0  0  0  0  0  0
  -26.2754  -29.6817   24.1076 H   0  0  0  0  0  0
  -27.4134  -29.7284   25.4343 H   0  0  0  0  0  0
  -27.8550  -30.4417   23.9009 H   0  0  0  0  0  0
  -27.2656  -33.3570   26.2046 H   0  0  0  0  0  0
  -28.3859  -32.6769   25.0334 H   0  0  0  0  0  0
  -28.0596  -31.8357   26.5432 H   0  0  0  0  0  0
  -28.2564  -38.0100   24.7529 H   0  0  0  0  0  0
  -28.1070  -36.2635   24.6230 H   0  0  0  0  0  0
  -27.2296  -37.1389   25.8851 H   0  0  0  0  0  0
  -20.9260  -29.8750   21.6956 H   0  0  0  0  0  0
  -26.0142  -38.2888   24.1461 H   0  0  0  0  0  0
  -27.4712  -17.8262   23.1844 H   0  0  0  0  0  0
  -30.5569  -21.6823   23.1510 H   0  0  0  0  0  0
  -28.4907  -23.4701   24.2017 H   0  0  0  0  0  0
  -30.2203  -23.3363   24.5118 H   0  0  0  0  0  0
  -29.1381  -23.8511   25.7896 H   0  0  0  0  0  0
  -29.8916  -20.2604   26.7619 H   0  0  0  0  0  0
  -30.1235  -21.9346   27.2533 H   0  0  0  0  0  0
  -31.0817  -21.2663   25.9370 H   0  0  0  0  0  0
  -24.5867  -21.4884   23.6176 H   0  0  0  0  0  0
  -25.2225  -19.9710   22.9858 H   0  0  0  0  0  0
  -26.2857  -21.3543   23.2220 H   0  0  0  0  0  0
  -23.6195  -20.3733   25.6675 H   0  0  0  0  0  0
  -24.6285  -19.3505   26.6951 H   0  0  0  0  0  0
  -24.1735  -18.8045   25.0872 H   0  0  0  0  0  0
  -32.6671  -23.7981   19.0689 H   0  0  0  0  0  0
  -31.8272  -25.1513   18.3291 H   0  0  0  0  0  0
  -31.3242  -23.5062   17.9652 H   0  0  0  0  0  0
  -30.8281  -19.4656   20.1801 H   0  0  0  0  0  0
  -31.8123  -20.3969   21.2527 H   0  0  0  0  0  0
  -29.1913  -17.9687   20.1036 H   0  0  0  0  0  0
  -28.2165  -17.0777   21.2139 H   0  0  0  0  0  0
  -27.3981  -19.5316   26.2478 H   0  0  0  0  0  0
  -26.6441  -18.3898   25.2044 H   0  0  0  0  0  0
  -29.3728  -21.5470   19.7849 H   0  0  0  0  0  0
  -30.9839  -21.5583   19.1427 H   0  0  0  0  0  0
  -31.7150  -22.8513   21.2746 H   0  0  0  0  0  0
  -30.0198  -23.0727   21.6108 H   0  0  0  0  0  0
  -29.3341  -25.2004   18.5887 H   0  0  0  0  0  0
  -28.6933  -23.7415   19.2631 H   0  0  0  0  0  0
  -30.5972  -16.8822   22.5738 H   0  0  0  0  0  0
  -31.2301  -17.0357   20.9608 H   0  0  0  0  0  0
  -29.0065  -25.4556   21.5199 H   0  0  0  0  0  0
  -27.5131  -25.0471   20.7349 H   0  0  0  0  0  0
  -28.0652  -21.7128   25.9123 H   0  0  0  0  0  0
  -25.9025  -21.2478   25.6696 H   0  0  0  0  0  0
  -31.0876  -25.0148   20.5873 H   0  0  0  0  0  0
  -29.1970  -14.9851   21.8224 H   0  0  0  0  0  0
  1 25  1  0  0  0
  1 30  2  0  0  0
  1 93  1  0  0  0
  2  3  1  0  0  0
  2 25  1  0  0  0
  2 94  1  0  0  0
  2 95  1  0  0  0
  3  4  1  0  0  0
  3 96  1  0  0  0
  3 97  1  0  0  0
  4  5  1  0  0  0
  4 98  1  0  0  0
  4 99  1  0  0  0
  5  6  1  0  0  0
  5 26  1  0  0  0
  5100  1  0  0  0
  6 25  1  0  0  0
  6101  1  0  0  0
  6102  1  0  0  0
  7  8  2  0  0  0
  7 26  1  0  0  0
  7 29  1  0  0  0
  8  9  1  0  0  0
  8 22  1  0  0  0
  9 10  1  0  0  0
  9 27  2  0  0  0
 10 11  2  0  0  0
 10 15  1  0  0  0
 11 12  1  0  0  0
 11103  1  0  0  0
 12 13  2  0  0  0
 12104  1  0  0  0
 13 14  1  0  0  0
 13 31  1  0  0  0
 14 15  2  0  0  0
 14105  1  0  0  0
 15106  1  0  0  0
 16 17  2  0  0  0
 16 21  1  0  0  0
 16 31  1  0  0  0
 17 18  1  0  0  0
 17107  1  0  0  0
 18 19  2  0  0  0
 18108  1  0  0  0
 19 20  1  0  0  0
 19 24  1  0  0  0
 20 21  2  0  0  0
 20109  1  0  0  0
 21 23  1  0  0  0
 22 28  1  0  0  0
 22 32  2  0  0  0
 26 27  1  0  0  0
 28110  1  0  0  0
 28111  1  0  0  0
 29112  1  0  0  0
 29113  1  0  0  0
 33 34  1  0  0  0
 33 66  1  0  0  0
 33 70  2  0  0  0
 34 36  1  0  0  0
 34 59  1  0  0  0
 34114  1  0  0  0
 35 44  2  0  0  0
 35 45  1  0  0  0
 35 68  1  0  0  0
 36 56  1  0  0  0
 36115  1  0  0  0
 37 39  1  0  0  0
 37 47  1  0  0  0
 37 66  1  0  0  0
 37116  1  0  0  0
 38 43  2  0  0  0
 38 46  1  0  0  0
 38 47  1  0  0  0
 39 64  1  0  0  0
 39 67  2  0  0  0
 40 52  1  0  0  0
 40 53  2  0  0  0
 40 58  1  0  0  0
 41117  1  0  0  0
 41118  1  0  0  0
 41119  1  0  0  0
 41 48  1  0  0  0
 42 43  1  0  0  0
 42 66  1  0  0  0
 42120  1  0  0  0
 42121  1  0  0  0
 43 44  1  0  0  0
 44122  1  0  0  0
 45 46  2  0  0  0
 45123  1  0  0  0
 46124  1  0  0  0
 47125  1  0  0  0
 47126  1  0  0  0
 48 56  1  0  0  0
 48 65  1  0  0  0
 48127  1  0  0  0
 49 50  1  0  0  0
 49 53  1  0  0  0
 49 64  1  0  0  0
 49128  1  0  0  0
 50 51  1  0  0  0
 50129  1  0  0  0
 50130  1  0  0  0
 51 52  1  0  0  0
 51131  1  0  0  0
 51132  1  0  0  0
 52133  1  0  0  0
 52134  1  0  0  0
 53 54  1  0  0  0
 54 55  2  0  0  0
 54135  1  0  0  0
 55 57  1  0  0  0
 55136  1  0  0  0
 56 69  2  0  0  0
 57 58  2  0  0  0
 57137  1  0  0  0
 58138  1  0  0  0
 59 60  1  0  0  0
 59 61  1  0  0  0
 59 62  1  0  0  0
 60139  1  0  0  0
 60140  1  0  0  0
 60141  1  0  0  0
 61142  1  0  0  0
 61143  1  0  0  0
 61144  1  0  0  0
 62145  1  0  0  0
 62146  1  0  0  0
 62147  1  0  0  0
 63 65  1  0  0  0
 63148  1  0  0  0
 63149  1  0  0  0
 63150  1  0  0  0
 64151  1  0  0  0
 65152  1  0  0  0
 68 89  1  0  0  0
 71 73  2  0  0  0
 71 74  1  0  0  0
 71153  1  0  0  0
 72 75  2  0  0  0
 72 76  1  0  0  0
 72154  1  0  0  0
 73 75  1  0  0  0
 73 83  1  0  0  0
 74 76  2  0  0  0
 74 84  1  0  0  0
 75 82  1  0  0  0
 76 90  1  0  0  0
 77155  1  0  0  0
 77156  1  0  0  0
 77157  1  0  0  0
 77 90  1  0  0  0
 78 90  1  0  0  0
 78158  1  0  0  0
 78159  1  0  0  0
 78160  1  0  0  0
 79161  1  0  0  0
 79162  1  0  0  0
 79163  1  0  0  0
 79 91  1  0  0  0
 80 91  1  0  0  0
 80164  1  0  0  0
 80165  1  0  0  0
 80166  1  0  0  0
 81167  1  0  0  0
 81168  1  0  0  0
 81169  1  0  0  0
 81 92  1  0  0  0
 82 85  1  0  0  0
 82170  1  0  0  0
 82171  1  0  0  0
 83 88  1  0  0  0
 83172  1  0  0  0
 83173  1  0  0  0
 84 91  1  0  0  0
 84174  1  0  0  0
 84175  1  0  0  0
 85 86  1  0  0  0
 85176  1  0  0  0
 85177  1  0  0  0
 86 92  1  0  0  0
 86178  1  0  0  0
 86179  1  0  0  0
 87 89  1  0  0  0
 87 92  1  0  0  0
 87180  1  0  0  0
 87181  1  0  0  0
 88 93  1  0  0  0
 88182  1  0  0  0
 88183  1  0  0  0
 89184  1  0  0  0
 89185  1  0  0  0
 90186  1  0  0  0
 91187  1  0  0  0
 92188  1  0  0  0
 93189  1  0  0  0
M  ISO  4   1 100  68 101  89 101  93 100
M  END
> <chiral flag>
0

> <version>
0

> <s_m_source_file>
/data/baiqing/PycharmProjects/Reinvent-master-3.2/result/LINK_invent/BTK/process_docking_weight1_custom_sum_contain_oxygen_bond_distance_aromatic_linkinvent_7_9_3/rearranged_h_0091.sdf

> <i_m_source_file_index>
76

> <r_mmod_Potential_Energy-OPLS-2005>
-10.9656181335449

> <r_mmod_Stretch_Energy-OPLS-2005>
37.3562965393066

> <r_mmod_Bend_Energy-OPLS-2005>
113.941703796387

> <r_mmod_Torsional_Energy-OPLS-2005>
260.846038818359

> <r_mmod_Improper_Torsional_Energy-OPLS-2005>
2.94472122192383

> <r_mmod_Van_der_Waal_Energy-OPLS-2005>
156.65803527832

> <r_mmod_Electrostatic_Energy-OPLS-2005>
-404.802581787109

> <r_mmod_Solvation_Energy-OPLS-2005>
-187.360153198242

> <b_mmod_Minimization_Converged-OPLS-2005>
0

> <r_mmod_RMS_Derivative-OPLS-2005>
4.36770248413086

$$$$
77
                    3D
 Structure written by MMmdl.
169177  0  0  1  0            999 V2000
  -30.9619  -14.0583   20.4774 C   0  0  0  0  0  0
  -30.5086  -11.7124   19.5548 C   0  0  0  0  0  0
  -29.3015  -11.5066   18.0291 C   0  0  0  0  0  0
  -27.6878  -12.5800   18.0215 C   0  0  0  0  0  0
  -27.4551  -13.8549   19.5897 C   0  0  2  0  0  0
  -28.6947  -13.7766   21.0270 C   0  0  0  0  0  0
  -25.2258  -14.9071   20.0274 C   0  0  0  0  0  0
  -24.0980  -14.2348   20.2323 C   0  0  0  0  0  0
  -24.8467  -13.0322   20.2753 C   0  0  0  0  0  0
  -24.5399  -10.4697   21.5465 C   0  0  0  0  0  0
  -24.2341   -9.7732   22.7718 C   0  0  0  0  0  0
  -23.4480   -8.5109   22.8900 C   0  0  0  0  0  0
  -22.5910   -8.0653   21.7969 C   0  0  0  0  0  0
  -22.7060   -8.7729   20.6472 C   0  0  0  0  0  0
  -24.0080   -9.2685   20.7078 C   0  0  0  0  0  0
  -21.6712   -6.0772   22.6548 C   0  0  0  0  0  0
  -21.3235   -6.5120   23.9446 C   0  0  0  0  0  0
  -21.3150   -5.6014   25.0046 C   0  0  0  0  0  0
  -21.5934   -4.2473   24.7613 C   0  0  0  0  0  0
  -21.8741   -3.7956   23.4572 C   0  0  0  0  0  0
  -21.9137   -4.7118   22.3929 C   0  0  0  0  0  0
  -22.6981  -14.6756   20.6675 C   0  0  0  0  0  0
  -22.1757   -4.2722   21.1360 F   0  0  0  0  0  0
  -21.5732   -3.3758   25.7931 F   0  0  0  0  0  0
  -30.1978  -12.9721   20.7567 N   0  0  0  0  0  0
  -26.1955  -13.9892   19.9724 N   0  0  0  0  0  0
  -25.5170  -13.3200   19.2294 N   0  0  0  0  0  0
  -22.2653  -14.6835   21.9343 N   0  0  0  0  0  0
  -25.5052  -16.1598   19.7226 N   0  0  0  0  0  0
  -32.1437  -14.3093   20.6187 O   0  0  0  0  0  0
  -21.7349   -6.9949   21.6653 O   0  0  0  0  0  0
  -21.8734  -14.8872   19.8400 O   0  0  0  0  0  0
  -24.7161  -31.7435   23.1276 C   0  0  0  0  0  0
  -25.9612  -32.4116   23.7877 C   0  0  1  0  0  0
  -26.5300  -25.9084   20.6566 C   0  0  0  0  0  0
  -25.6065  -33.8009   24.1666 N   0  0  0  0  0  0
  -23.5374  -30.3567   21.4867 C   0  0  2  0  0  0
  -24.9050  -28.5657   20.1331 C   0  0  0  0  0  0
  -22.7764  -29.4072   22.4528 C   0  0  0  0  0  0
  -18.0316  -28.1428   22.8429 C   0  0  0  0  0  0
  -24.1533  -36.7017   23.2660 C   0  0  0  0  0  0
  -26.1077  -30.2031   21.5249 C   0  0  0  0  0  0
  -26.0338  -28.6922   20.9382 C   0  0  0  0  0  0
  -26.8456  -27.3968   21.1509 C   0  0  0  0  0  0
  -25.6243  -26.2022   19.5929 C   0  0  0  0  0  0
  -24.8170  -27.3769   19.3904 C   0  0  0  0  0  0
  -23.8077  -29.6549   20.1151 C   0  0  0  0  0  0
  -25.4202  -36.2700   24.0229 C   0  0  1  0  0  0
  -20.5951  -28.3797   23.1062 C   0  0  2  0  0  0
  -20.6769  -26.9418   22.5419 C   0  0  0  0  0  0
  -19.5768  -26.6340   21.5216 C   0  0  0  0  0  0
  -18.1939  -26.7948   22.1599 C   0  0  0  0  0  0
  -19.1587  -28.8937   23.2736 C   0  0  0  0  0  0
  -18.9508  -30.1507   23.8809 C   0  0  0  0  0  0
  -17.6506  -30.6610   24.0543 C   0  0  0  0  0  0
  -25.9206  -34.9097   23.4812 C   0  0  0  0  0  0
  -16.5385  -29.9094   23.6357 C   0  0  0  0  0  0
  -16.7300  -28.6513   23.0369 C   0  0  0  0  0  0
  -26.4653  -31.6423   25.0737 C   0  0  0  0  0  0
  -25.3615  -31.3951   26.1298 C   0  0  0  0  0  0
  -27.0652  -30.2669   24.7162 C   0  0  0  0  0  0
  -27.6022  -32.4435   25.7517 C   0  0  0  0  0  0
  -27.5560  -37.1677   24.8466 C   0  0  0  0  0  0
  -21.4398  -29.2975   22.3298 N   0  0  0  0  0  0
  -26.4284  -37.3514   23.9375 N   0  0  0  0  0  0
  -24.8227  -30.8306   22.0890 N   0  0  0  0  0  0
  -23.4055  -28.7697   23.3013 O   0  0  0  0  0  0
  -26.8690  -24.2630   21.0446 O   0  0  0  0  0  0
  -26.5899  -34.8765   22.4468 O   0  0  0  0  0  0
  -23.6129  -32.0896   23.5900 O   0  0  0  0  0  0
  -26.0629  -12.2930   22.1139 C   0  0  0  0  0  0
  -24.5954  -13.2099   22.5301 C   0  0  0  0  0  0
  -26.4675  -11.4021   20.5642 C   0  0  0  0  0  0
  -23.1495  -12.2775   21.6118 C   0  0  0  0  0  0
  -19.5607  -10.8854   22.8663 C   0  0  0  0  0  0
  -30.5435  -13.7420   17.4322 C   0  0  0  0  0  0
  -24.9737  -15.4565   22.7374 C   0  0  0  0  0  0
  -28.1664  -11.6665   20.1054 C   0  0  0  0  0  0
  -21.6880  -12.1337   22.1801 C   0  0  0  0  0  0
  -21.0134  -10.7785   22.3816 C   0  0  0  0  0  0
  -25.3812  -17.7149   21.9751 C   0  0  0  0  0  0
  -25.9292  -20.0367   22.0069 C   0  0  0  0  0  0
  -26.1611  -22.2563   21.1584 C   0  0  0  0  0  0
  -29.5874  -13.7213   18.7368 C   0  0  1  0  0  0
  -25.0797  -10.9860   19.4007 N   0  0  0  0  0  0
  -23.3345  -11.4720   19.9239 N   0  0  0  0  0  0
  -30.3915  -14.6630   19.4902 N   0  0  0  0  0  0
  -31.5324  -11.8057   19.1903 H   0  0  0  0  0  0
  -30.5737  -10.7658   20.0966 H   0  0  0  0  0  0
  -29.0059  -10.4587   17.9479 H   0  0  0  0  0  0
  -29.8127  -11.4938   17.0683 H   0  0  0  0  0  0
  -26.8757  -11.8712   17.8731 H   0  0  0  0  0  0
  -27.6211  -13.1489   17.0918 H   0  0  0  0  0  0
  -27.5638  -14.8831   19.2410 H   0  0  0  0  0  0
  -28.3483  -13.3822   21.9589 H   0  0  0  0  0  0
  -28.8193  -14.8079   21.3765 H   0  0  0  0  0  0
  -24.5491  -10.2390   23.6936 H   0  0  0  0  0  0
  -23.4038   -8.0268   23.8554 H   0  0  0  0  0  0
  -22.2888   -8.3405   19.7493 H   0  0  0  0  0  0
  -24.4398   -8.9484   19.7696 H   0  0  0  0  0  0
  -21.0828   -7.5496   24.1289 H   0  0  0  0  0  0
  -21.0830   -5.9334   26.0070 H   0  0  0  0  0  0
  -22.0631   -2.7479   23.2811 H   0  0  0  0  0  0
  -22.9087  -14.4902   22.6874 H   0  0  0  0  0  0
  -21.3216  -14.9775   22.1456 H   0  0  0  0  0  0
  -24.8087  -16.8879   19.6475 H   0  0  0  0  0  0
  -26.4288  -16.4778   19.4654 H   0  0  0  0  0  0
  -26.7687  -32.4343   23.0547 H   0  0  0  0  0  0
  -25.0059  -33.8996   24.9714 H   0  0  0  0  0  0
  -22.8929  -31.2161   21.2882 H   0  0  0  0  0  0
  -23.3813  -35.9325   23.3239 H   0  0  0  0  0  0
  -24.3581  -36.8799   22.2091 H   0  0  0  0  0  0
  -23.7296  -37.6154   23.6841 H   0  0  0  0  0  0
  -26.4207  -30.8436   20.6987 H   0  0  0  0  0  0
  -26.9429  -30.2477   22.2070 H   0  0  0  0  0  0
  -27.6323  -27.4840   21.8858 H   0  0  0  0  0  0
  -25.3427  -25.3541   18.9849 H   0  0  0  0  0  0
  -24.0178  -27.2963   18.6663 H   0  0  0  0  0  0
  -24.0996  -30.4052   19.3790 H   0  0  0  0  0  0
  -22.8823  -29.2199   19.7361 H   0  0  0  0  0  0
  -25.1448  -36.1394   25.0720 H   0  0  0  0  0  0
  -21.0044  -28.3491   24.1186 H   0  0  0  0  0  0
  -20.5587  -26.2433   23.3714 H   0  0  0  0  0  0
  -21.6629  -26.7307   22.1266 H   0  0  0  0  0  0
  -19.6930  -25.6219   21.1318 H   0  0  0  0  0  0
  -19.6746  -27.3086   20.6695 H   0  0  0  0  0  0
  -17.4217  -26.6675   21.3992 H   0  0  0  0  0  0
  -18.0324  -26.0109   22.9013 H   0  0  0  0  0  0
  -19.7986  -30.7325   24.2153 H   0  0  0  0  0  0
  -17.5062  -31.6283   24.5161 H   0  0  0  0  0  0
  -15.5381  -30.2989   23.7734 H   0  0  0  0  0  0
  -15.8686  -28.0815   22.7153 H   0  0  0  0  0  0
  -24.5841  -30.7226   25.7658 H   0  0  0  0  0  0
  -24.8775  -32.3239   26.4324 H   0  0  0  0  0  0
  -25.7717  -30.9409   27.0329 H   0  0  0  0  0  0
  -26.3386  -29.6020   24.2494 H   0  0  0  0  0  0
  -27.4055  -29.7480   25.6134 H   0  0  0  0  0  0
  -27.9429  -30.3584   24.0766 H   0  0  0  0  0  0
  -27.2507  -33.3889   26.1665 H   0  0  0  0  0  0
  -28.4019  -32.6749   25.0467 H   0  0  0  0  0  0
  -28.0486  -31.8883   26.5779 H   0  0  0  0  0  0
  -28.2540  -38.0001   24.7462 H   0  0  0  0  0  0
  -28.1098  -36.2510   24.6374 H   0  0  0  0  0  0
  -27.2255  -37.1392   25.8865 H   0  0  0  0  0  0
  -20.9729  -29.8609   21.6328 H   0  0  0  0  0  0
  -26.0063  -38.2551   24.1337 H   0  0  0  0  0  0
  -26.8677  -12.5371   22.7758 H   0  0  0  0  0  0
  -19.0987   -9.8973   22.8981 H   0  0  0  0  0  0
  -18.9594  -11.5032   22.1975 H   0  0  0  0  0  0
  -19.4999  -11.3115   23.8674 H   0  0  0  0  0  0
  -31.4483  -13.1378   17.5052 H   0  0  0  0  0  0
  -30.9078  -14.7458   17.1934 H   0  0  0  0  0  0
  -30.0252  -13.4730   16.5096 H   0  0  0  0  0  0
  -25.8498  -15.3544   23.3762 H   0  0  0  0  0  0
  -24.1825  -15.6723   23.4551 H   0  0  0  0  0  0
  -28.2508  -10.6270   19.7868 H   0  0  0  0  0  0
  -28.5561  -11.3942   21.0921 H   0  0  0  0  0  0
  -21.0213  -12.6377   21.4794 H   0  0  0  0  0  0
  -21.6335  -12.6460   23.1402 H   0  0  0  0  0  0
  -20.9688  -10.2723   21.4244 H   0  0  0  0  0  0
  -21.5642  -10.1888   23.1049 H   0  0  0  0  0  0
  -24.5499  -17.8051   21.2778 H   0  0  0  0  0  0
  -26.3142  -17.4904   21.4665 H   0  0  0  0  0  0
  -26.9425  -19.9266   22.3905 H   0  0  0  0  0  0
  -25.3557  -20.2987   22.8933 H   0  0  0  0  0  0
  -25.1006  -22.4975   21.0761 H   0  0  0  0  0  0
  -26.4401  -21.9889   20.1383 H   0  0  0  0  0  0
  -29.0440  -14.4562   18.1339 H   0  0  0  0  0  0
  -30.9073  -15.3875   19.0179 H   0  0  0  0  0  0
  1 25  1  0  0  0
  1 30  2  0  0  0
  1 87  1  0  0  0
  2  3  1  0  0  0
  2 25  1  0  0  0
  2 88  1  0  0  0
  2 89  1  0  0  0
  3  4  1  0  0  0
  3 90  1  0  0  0
  3 91  1  0  0  0
  4  5  1  0  0  0
  4 92  1  0  0  0
  4 93  1  0  0  0
  5  6  1  0  0  0
  5 26  1  0  0  0
  5 94  1  0  0  0
  6 25  1  0  0  0
  6 95  1  0  0  0
  6 96  1  0  0  0
  7  8  2  0  0  0
  7 26  1  0  0  0
  7 29  1  0  0  0
  8  9  1  0  0  0
  8 22  1  0  0  0
  9 10  1  0  0  0
  9 27  2  0  0  0
 10 11  2  0  0  0
 10 15  1  0  0  0
 11 12  1  0  0  0
 11 97  1  0  0  0
 12 13  2  0  0  0
 12 98  1  0  0  0
 13 14  1  0  0  0
 13 31  1  0  0  0
 14 15  2  0  0  0
 14 99  1  0  0  0
 15100  1  0  0  0
 16 17  2  0  0  0
 16 21  1  0  0  0
 16 31  1  0  0  0
 17 18  1  0  0  0
 17101  1  0  0  0
 18 19  2  0  0  0
 18102  1  0  0  0
 19 20  1  0  0  0
 19 24  1  0  0  0
 20 21  2  0  0  0
 20103  1  0  0  0
 21 23  1  0  0  0
 22 28  1  0  0  0
 22 32  2  0  0  0
 26 27  1  0  0  0
 28104  1  0  0  0
 28105  1  0  0  0
 29106  1  0  0  0
 29107  1  0  0  0
 33 34  1  0  0  0
 33 66  1  0  0  0
 33 70  2  0  0  0
 34 36  1  0  0  0
 34 59  1  0  0  0
 34108  1  0  0  0
 35 44  2  0  0  0
 35 45  1  0  0  0
 35 68  1  0  0  0
 36 56  1  0  0  0
 36109  1  0  0  0
 37 39  1  0  0  0
 37 47  1  0  0  0
 37 66  1  0  0  0
 37110  1  0  0  0
 38 43  2  0  0  0
 38 46  1  0  0  0
 38 47  1  0  0  0
 39 64  1  0  0  0
 39 67  2  0  0  0
 40 52  1  0  0  0
 40 53  2  0  0  0
 40 58  1  0  0  0
 41111  1  0  0  0
 41112  1  0  0  0
 41113  1  0  0  0
 41 48  1  0  0  0
 42 43  1  0  0  0
 42 66  1  0  0  0
 42114  1  0  0  0
 42115  1  0  0  0
 43 44  1  0  0  0
 44116  1  0  0  0
 45 46  2  0  0  0
 45117  1  0  0  0
 46118  1  0  0  0
 47119  1  0  0  0
 47120  1  0  0  0
 48 56  1  0  0  0
 48 65  1  0  0  0
 48121  1  0  0  0
 49 50  1  0  0  0
 49 53  1  0  0  0
 49 64  1  0  0  0
 49122  1  0  0  0
 50 51  1  0  0  0
 50123  1  0  0  0
 50124  1  0  0  0
 51 52  1  0  0  0
 51125  1  0  0  0
 51126  1  0  0  0
 52127  1  0  0  0
 52128  1  0  0  0
 53 54  1  0  0  0
 54 55  2  0  0  0
 54129  1  0  0  0
 55 57  1  0  0  0
 55130  1  0  0  0
 56 69  2  0  0  0
 57 58  2  0  0  0
 57131  1  0  0  0
 58132  1  0  0  0
 59 60  1  0  0  0
 59 61  1  0  0  0
 59 62  1  0  0  0
 60133  1  0  0  0
 60134  1  0  0  0
 60135  1  0  0  0
 61136  1  0  0  0
 61137  1  0  0  0
 61138  1  0  0  0
 62139  1  0  0  0
 62140  1  0  0  0
 62141  1  0  0  0
 63 65  1  0  0  0
 63142  1  0  0  0
 63143  1  0  0  0
 63144  1  0  0  0
 64145  1  0  0  0
 65146  1  0  0  0
 68 83  1  0  0  0
 71 72  2  0  0  0
 71 73  1  0  0  0
 71147  1  0  0  0
 72 74  1  0  0  0
 72 77  1  0  0  0
 73 78  1  0  0  0
 73 85  2  0  0  0
 74 79  1  0  0  0
 74 86  2  0  0  0
 75 80  1  0  0  0
 75148  1  0  0  0
 75149  1  0  0  0
 75150  1  0  0  0
 76151  1  0  0  0
 76152  1  0  0  0
 76153  1  0  0  0
 76 84  1  0  0  0
 77 81  1  0  0  0
 77154  1  0  0  0
 77155  1  0  0  0
 78 84  1  0  0  0
 78156  1  0  0  0
 78157  1  0  0  0
 79 80  1  0  0  0
 79158  1  0  0  0
 79159  1  0  0  0
 80160  1  0  0  0
 80161  1  0  0  0
 81 82  1  0  0  0
 81162  1  0  0  0
 81163  1  0  0  0
 82 83  1  0  0  0
 82164  1  0  0  0
 82165  1  0  0  0
 83166  1  0  0  0
 83167  1  0  0  0
 84 87  1  0  0  0
 84168  1  0  0  0
 85 86  1  0  0  0
 87169  1  0  0  0
M  ISO  4   1 100  68 101  83 101  87 100
M  END
> <chiral flag>
0

> <version>
0

> <s_m_source_file>
/data/baiqing/PycharmProjects/Reinvent-master-3.2/result/LINK_invent/BTK/process_docking_weight1_custom_sum_contain_oxygen_bond_distance_aromatic_linkinvent_7_9_3/rearranged_h_0091.sdf

> <i_m_source_file_index>
77

> <r_mmod_Potential_Energy-OPLS-2005>
25434.224609375

> <r_mmod_Stretch_Energy-OPLS-2005>
13615.072265625

> <r_mmod_Bend_Energy-OPLS-2005>
1938.31286621094

> <r_mmod_Torsional_Energy-OPLS-2005>
936.779357910156

> <r_mmod_Improper_Torsional_Energy-OPLS-2005>
78.9239654541016

> <r_mmod_Van_der_Waal_Energy-OPLS-2005>
4744.13671875

> <r_mmod_Electrostatic_Energy-OPLS-2005>
-308.533752441406

> <r_mmod_Solvation_Energy-OPLS-2005>
-264.866668701172

> <b_mmod_Minimization_Converged-OPLS-2005>
0

> <r_mmod_RMS_Derivative-OPLS-2005>
4.83324766159058

$$$$
78
                    3D
 Structure written by MMmdl.
168177  0  0  1  0            999 V2000
  -30.6954  -14.6162   20.5241 C   0  0  0  0  0  0
  -30.4126  -12.3935   19.4561 C   0  0  0  0  0  0
  -29.4967  -12.5120   18.2226 C   0  0  0  0  0  0
  -28.0228  -12.3357   18.6334 C   0  0  0  0  0  0
  -27.6459  -13.2050   19.8636 C   0  0  2  0  0  0
  -28.6934  -13.0750   20.9958 C   0  0  0  0  0  0
  -25.2534  -13.8151   20.5684 C   0  0  0  0  0  0
  -24.1810  -13.0425   20.9204 C   0  0  0  0  0  0
  -24.6380  -11.6912   20.8761 C   0  0  0  0  0  0
  -23.9067  -10.4316   21.0443 C   0  0  0  0  0  0
  -24.3662   -9.4237   21.9180 C   0  0  0  0  0  0
  -23.6363   -8.2261   22.0734 C   0  0  0  0  0  0
  -22.4318   -8.0323   21.3570 C   0  0  0  0  0  0
  -21.9974   -9.0272   20.4640 C   0  0  0  0  0  0
  -22.7283  -10.2148   20.3056 C   0  0  0  0  0  0
  -21.6862   -6.0797   22.5308 C   0  0  0  0  0  0
  -21.4023   -6.5686   23.8246 C   0  0  0  0  0  0
  -21.3637   -5.6811   24.9185 C   0  0  0  0  0  0
  -21.6025   -4.3076   24.7218 C   0  0  0  0  0  0
  -21.8820   -3.8191   23.4326 C   0  0  0  0  0  0
  -21.9209   -4.7030   22.3403 C   0  0  0  0  0  0
  -22.7837  -13.5230   21.1854 C   0  0  0  0  0  0
  -22.1682   -4.2235   21.0976 F   0  0  0  0  0  0
  -21.5613   -3.4535   25.7706 F   0  0  0  0  0  0
  -29.9920  -13.4384   20.4187 N   0  0  0  0  0  0
  -26.2948  -12.9306   20.3348 N   0  0  0  0  0  0
  -25.9303  -11.6475   20.5791 N   0  0  0  0  0  0
  -22.0475  -12.8205   22.0406 N   0  0  0  0  0  0
  -25.4170  -15.1875   20.4030 N   0  0  0  0  0  0
  -31.8599  -14.6373   20.1103 O   0  0  0  0  0  0
  -21.6663   -6.8940   21.4273 O   0  0  0  0  0  0
  -22.3547  -14.5568   20.6741 O   0  0  0  0  0  0
  -24.6189  -31.8692   23.2051 C   0  0  0  0  0  0
  -25.9047  -32.4818   23.8395 C   0  0  1  0  0  0
  -27.2211  -27.3591   20.1268 C   0  0  0  0  0  0
  -25.5895  -33.8615   24.2308 N   0  0  0  0  0  0
  -23.4139  -30.4907   21.5461 C   0  0  2  0  0  0
  -24.8566  -28.9399   20.1220 C   0  0  0  0  0  0
  -22.7440  -29.4699   22.4966 C   0  0  0  0  0  0
  -18.0297  -28.1385   22.8534 C   0  0  0  0  0  0
  -24.1476  -36.7290   23.2652 C   0  0  0  0  0  0
  -25.9505  -30.8020   21.3772 C   0  0  0  0  0  0
  -26.0191  -29.4286   20.7326 C   0  0  0  0  0  0
  -27.2049  -28.6454   20.7336 C   0  0  0  0  0  0
  -26.0571  -26.9304   19.4589 C   0  0  0  0  0  0
  -24.8732  -27.6903   19.4795 C   0  0  0  0  0  0
  -23.6256  -29.8196   20.1626 C   0  0  0  0  0  0
  -25.4106  -36.3110   24.0352 C   0  0  1  0  0  0
  -20.5907  -28.3698   23.1294 C   0  0  2  0  0  0
  -20.6783  -26.9429   22.5414 C   0  0  0  0  0  0
  -19.5734  -26.6391   21.5239 C   0  0  0  0  0  0
  -18.1925  -26.7937   22.1648 C   0  0  0  0  0  0
  -19.1558  -28.8853   23.2911 C   0  0  0  0  0  0
  -18.9489  -30.1470   23.8910 C   0  0  0  0  0  0
  -17.6483  -30.6603   24.0594 C   0  0  0  0  0  0
  -25.9053  -34.9477   23.5119 C   0  0  0  0  0  0
  -16.5382  -29.9102   23.6350 C   0  0  0  0  0  0
  -16.7270  -28.6511   23.0394 C   0  0  0  0  0  0
  -26.4447  -31.6626   25.0763 C   0  0  0  0  0  0
  -25.3692  -31.3791   26.1500 C   0  0  0  0  0  0
  -27.0309  -30.3065   24.6195 C   0  0  0  0  0  0
  -27.5997  -32.4380   25.7523 C   0  0  0  0  0  0
  -27.5580  -37.1817   24.8485 C   0  0  0  0  0  0
  -21.4168  -29.3076   22.3692 N   0  0  0  0  0  0
  -26.4274  -37.3820   23.9456 N   0  0  0  0  0  0
  -24.6788  -31.0747   22.0979 N   0  0  0  0  0  0
  -23.4178  -28.8251   23.3055 O   0  0  0  0  0  0
  -28.3576  -26.5611   20.0802 O   0  0  0  0  0  0
  -26.5615  -34.8927   22.4682 O   0  0  0  0  0  0
  -23.5346  -32.1485   23.7379 O   0  0  0  0  0  0
  -28.8785  -21.3875   20.4666 C   0  0  0  0  0  0
  -29.4225  -22.7860   22.3546 C   0  0  0  0  0  0
  -28.8677  -22.6922   21.0589 C   0  0  0  0  0  0
  -29.4062  -20.2620   21.1730 C   0  0  0  0  0  0
  -29.9334  -21.6326   22.9818 C   0  0  0  0  0  0
  -30.8588  -18.1788   20.5207 C   0  0  0  0  0  0
  -28.4929  -17.7897   21.2828 C   0  0  0  0  0  0
  -31.0539  -16.9090   21.4102 C   0  0  0  0  0  0
  -28.7495  -16.2916   20.8799 C   0  0  0  0  0  0
  -29.4402  -18.8106   20.5916 C   0  0  0  0  0  0
  -32.1349  -21.8453   24.1859 C   0  0  0  0  0  0
  -26.6640  -23.5788   20.4144 C   0  0  0  0  0  0
  -30.6140  -21.7288   24.3369 C   0  0  0  0  0  0
  -28.4546  -25.3763   20.9426 C   0  0  0  0  0  0
  -28.1653  -23.9127   20.3684 C   0  0  1  0  0  0
  -29.9168  -20.4058   22.4138 N   0  0  0  0  0  0
  -30.1482  -15.7861   21.0366 N   0  0  0  0  0  0
  -31.4537  -12.4822   19.1435 H   0  0  0  0  0  0
  -30.3345  -11.4009   19.9056 H   0  0  0  0  0  0
  -29.7722  -11.7790   17.4658 H   0  0  0  0  0  0
  -29.6342  -13.4900   17.7617 H   0  0  0  0  0  0
  -27.8630  -11.2798   18.8586 H   0  0  0  0  0  0
  -27.3694  -12.5661   17.7923 H   0  0  0  0  0  0
  -27.6496  -14.2293   19.5018 H   0  0  0  0  0  0
  -28.7212  -12.0498   21.3740 H   0  0  0  0  0  0
  -28.4472  -13.6797   21.8660 H   0  0  0  0  0  0
  -25.2821   -9.5726   22.4736 H   0  0  0  0  0  0
  -24.0103   -7.4653   22.7437 H   0  0  0  0  0  0
  -21.0906   -8.8796   19.8937 H   0  0  0  0  0  0
  -22.3780  -10.9695   19.6155 H   0  0  0  0  0  0
  -21.2029   -7.6191   23.9795 H   0  0  0  0  0  0
  -21.1437   -6.0506   25.9092 H   0  0  0  0  0  0
  -22.0620   -2.7666   23.2776 H   0  0  0  0  0  0
  -22.4129  -11.9910   22.4822 H   0  0  0  0  0  0
  -21.1065  -13.1185   22.2592 H   0  0  0  0  0  0
  -24.6370  -15.8283   20.5063 H   0  0  0  0  0  0
  -26.2558  -15.6400   20.0664 H   0  0  0  0  0  0
  -26.7131  -32.5493   23.1184 H   0  0  0  0  0  0
  -25.0065  -33.9794   25.0453 H   0  0  0  0  0  0
  -22.7051  -31.3084   21.4037 H   0  0  0  0  0  0
  -23.3736  -35.9625   23.3321 H   0  0  0  0  0  0
  -24.3581  -36.8869   22.2069 H   0  0  0  0  0  0
  -23.7188  -37.6486   23.6637 H   0  0  0  0  0  0
  -26.0870  -31.5481   20.5956 H   0  0  0  0  0  0
  -26.8299  -30.8487   22.0078 H   0  0  0  0  0  0
  -28.1048  -29.0262   21.1960 H   0  0  0  0  0  0
  -26.0717  -26.0257   18.8755 H   0  0  0  0  0  0
  -23.9937  -27.3233   18.9694 H   0  0  0  0  0  0
  -23.7482  -30.5885   19.4002 H   0  0  0  0  0  0
  -22.7444  -29.2498   19.8638 H   0  0  0  0  0  0
  -25.1288  -36.1976   25.0848 H   0  0  0  0  0  0
  -21.0081  -28.3244   24.1374 H   0  0  0  0  0  0
  -20.5736  -26.2323   23.3619 H   0  0  0  0  0  0
  -21.6645  -26.7465   22.1205 H   0  0  0  0  0  0
  -19.6906  -25.6304   21.1256 H   0  0  0  0  0  0
  -19.6641  -27.3208   20.6778 H   0  0  0  0  0  0
  -17.4237  -26.6760   21.4008 H   0  0  0  0  0  0
  -18.0266  -26.0047   22.8999 H   0  0  0  0  0  0
  -19.7962  -30.7321   24.2264 H   0  0  0  0  0  0
  -17.5036  -31.6284   24.5176 H   0  0  0  0  0  0
  -15.5391  -30.3031   23.7653 H   0  0  0  0  0  0
  -15.8667  -28.0827   22.7121 H   0  0  0  0  0  0
  -24.5829  -30.7163   25.7877 H   0  0  0  0  0  0
  -24.8911  -32.2975   26.4931 H   0  0  0  0  0  0
  -25.8015  -30.8996   27.0280 H   0  0  0  0  0  0
  -26.2880  -29.6821   24.1214 H   0  0  0  0  0  0
  -27.4036  -29.7328   25.4685 H   0  0  0  0  0  0
  -27.8735  -30.4424   23.9398 H   0  0  0  0  0  0
  -27.2582  -33.3676   26.2102 H   0  0  0  0  0  0
  -28.3792  -32.6960   25.0335 H   0  0  0  0  0  0
  -28.0676  -31.8516   26.5442 H   0  0  0  0  0  0
  -28.2650  -38.0084   24.7559 H   0  0  0  0  0  0
  -28.1028  -36.2625   24.6271 H   0  0  0  0  0  0
  -27.2323  -37.1422   25.8896 H   0  0  0  0  0  0
  -20.9318  -29.8726   21.6855 H   0  0  0  0  0  0
  -26.0140  -38.2899   24.1427 H   0  0  0  0  0  0
  -28.4549  -21.2379   19.4806 H   0  0  0  0  0  0
  -29.4577  -23.7259   22.8890 H   0  0  0  0  0  0
  -31.0545  -17.8982   19.4841 H   0  0  0  0  0  0
  -31.6199  -18.9207   20.7617 H   0  0  0  0  0  0
  -28.5866  -17.8880   22.3666 H   0  0  0  0  0  0
  -27.4577  -18.0571   21.0620 H   0  0  0  0  0  0
  -32.1090  -16.6340   21.3744 H   0  0  0  0  0  0
  -30.8846  -17.1546   22.4582 H   0  0  0  0  0  0
  -28.0603  -15.6930   21.4679 H   0  0  0  0  0  0
  -28.4701  -16.1898   19.8311 H   0  0  0  0  0  0
  -29.0883  -18.9093   19.5610 H   0  0  0  0  0  0
  -32.3819  -22.7265   23.5922 H   0  0  0  0  0  0
  -32.5579  -20.9764   23.6816 H   0  0  0  0  0  0
  -32.6243  -21.9558   25.1547 H   0  0  0  0  0  0
  -26.3444  -23.4190   21.4426 H   0  0  0  0  0  0
  -26.4467  -22.6606   19.8653 H   0  0  0  0  0  0
  -26.0283  -24.3464   20.0062 H   0  0  0  0  0  0
  -30.3616  -20.8580   24.9438 H   0  0  0  0  0  0
  -30.2324  -22.5950   24.8780 H   0  0  0  0  0  0
  -29.5021  -25.3891   21.2393 H   0  0  0  0  0  0
  -27.9024  -25.5356   21.8708 H   0  0  0  0  0  0
  -28.4998  -23.9130   19.3289 H   0  0  0  0  0  0
  1 25  1  0  0  0
  1 30  2  0  0  0
  1 87  1  0  0  0
  2  3  1  0  0  0
  2 25  1  0  0  0
  2 88  1  0  0  0
  2 89  1  0  0  0
  3  4  1  0  0  0
  3 90  1  0  0  0
  3 91  1  0  0  0
  4  5  1  0  0  0
  4 92  1  0  0  0
  4 93  1  0  0  0
  5  6  1  0  0  0
  5 26  1  0  0  0
  5 94  1  0  0  0
  6 25  1  0  0  0
  6 95  1  0  0  0
  6 96  1  0  0  0
  7  8  2  0  0  0
  7 26  1  0  0  0
  7 29  1  0  0  0
  8  9  1  0  0  0
  8 22  1  0  0  0
  9 10  1  0  0  0
  9 27  2  0  0  0
 10 11  2  0  0  0
 10 15  1  0  0  0
 11 12  1  0  0  0
 11 97  1  0  0  0
 12 13  2  0  0  0
 12 98  1  0  0  0
 13 14  1  0  0  0
 13 31  1  0  0  0
 14 15  2  0  0  0
 14 99  1  0  0  0
 15100  1  0  0  0
 16 17  2  0  0  0
 16 21  1  0  0  0
 16 31  1  0  0  0
 17 18  1  0  0  0
 17101  1  0  0  0
 18 19  2  0  0  0
 18102  1  0  0  0
 19 20  1  0  0  0
 19 24  1  0  0  0
 20 21  2  0  0  0
 20103  1  0  0  0
 21 23  1  0  0  0
 22 28  1  0  0  0
 22 32  2  0  0  0
 26 27  1  0  0  0
 28104  1  0  0  0
 28105  1  0  0  0
 29106  1  0  0  0
 29107  1  0  0  0
 33 34  1  0  0  0
 33 66  1  0  0  0
 33 70  2  0  0  0
 34 36  1  0  0  0
 34 59  1  0  0  0
 34108  1  0  0  0
 35 44  2  0  0  0
 35 45  1  0  0  0
 35 68  1  0  0  0
 36 56  1  0  0  0
 36109  1  0  0  0
 37 39  1  0  0  0
 37 47  1  0  0  0
 37 66  1  0  0  0
 37110  1  0  0  0
 38 43  2  0  0  0
 38 46  1  0  0  0
 38 47  1  0  0  0
 39 64  1  0  0  0
 39 67  2  0  0  0
 40 52  1  0  0  0
 40 53  2  0  0  0
 40 58  1  0  0  0
 41111  1  0  0  0
 41112  1  0  0  0
 41113  1  0  0  0
 41 48  1  0  0  0
 42 43  1  0  0  0
 42 66  1  0  0  0
 42114  1  0  0  0
 42115  1  0  0  0
 43 44  1  0  0  0
 44116  1  0  0  0
 45 46  2  0  0  0
 45117  1  0  0  0
 46118  1  0  0  0
 47119  1  0  0  0
 47120  1  0  0  0
 48 56  1  0  0  0
 48 65  1  0  0  0
 48121  1  0  0  0
 49 50  1  0  0  0
 49 53  1  0  0  0
 49 64  1  0  0  0
 49122  1  0  0  0
 50 51  1  0  0  0
 50123  1  0  0  0
 50124  1  0  0  0
 51 52  1  0  0  0
 51125  1  0  0  0
 51126  1  0  0  0
 52127  1  0  0  0
 52128  1  0  0  0
 53 54  1  0  0  0
 54 55  2  0  0  0
 54129  1  0  0  0
 55 57  1  0  0  0
 55130  1  0  0  0
 56 69  2  0  0  0
 57 58  2  0  0  0
 57131  1  0  0  0
 58132  1  0  0  0
 59 60  1  0  0  0
 59 61  1  0  0  0
 59 62  1  0  0  0
 60133  1  0  0  0
 60134  1  0  0  0
 60135  1  0  0  0
 61136  1  0  0  0
 61137  1  0  0  0
 61138  1  0  0  0
 62139  1  0  0  0
 62140  1  0  0  0
 62141  1  0  0  0
 63 65  1  0  0  0
 63142  1  0  0  0
 63143  1  0  0  0
 63144  1  0  0  0
 64145  1  0  0  0
 65146  1  0  0  0
 68 84  1  0  0  0
 71 73  2  0  0  0
 71 74  1  0  0  0
 71147  1  0  0  0
 72 73  1  0  0  0
 72 75  2  0  0  0
 72148  1  0  0  0
 73 85  1  0  0  0
 74 86  2  0  0  0
 74 80  1  0  0  0
 75 83  1  0  0  0
 75 86  1  0  0  0
 76 78  1  0  0  0
 76 80  1  0  0  0
 76149  1  0  0  0
 76150  1  0  0  0
 77 79  1  0  0  0
 77 80  1  0  0  0
 77151  1  0  0  0
 77152  1  0  0  0
 78 87  1  0  0  0
 78153  1  0  0  0
 78154  1  0  0  0
 79 87  1  0  0  0
 79155  1  0  0  0
 79156  1  0  0  0
 80157  1  0  0  0
 81 83  1  0  0  0
 81158  1  0  0  0
 81159  1  0  0  0
 81160  1  0  0  0
 82161  1  0  0  0
 82162  1  0  0  0
 82163  1  0  0  0
 82 85  1  0  0  0
 83164  1  0  0  0
 83165  1  0  0  0
 84 85  1  0  0  0
 84166  1  0  0  0
 84167  1  0  0  0
 85168  1  0  0  0
M  ISO  4   1 100  68 101  84 101  87 100
M  END
> <chiral flag>
0

> <version>
0

> <s_m_source_file>
/data/baiqing/PycharmProjects/Reinvent-master-3.2/result/LINK_invent/BTK/process_docking_weight1_custom_sum_contain_oxygen_bond_distance_aromatic_linkinvent_7_9_3/rearranged_h_0091.sdf

> <i_m_source_file_index>
78

> <r_mmod_Potential_Energy-OPLS-2005>
110.11353302002

> <r_mmod_Stretch_Energy-OPLS-2005>
74.3636856079102

> <r_mmod_Bend_Energy-OPLS-2005>
158.321517944336

> <r_mmod_Torsional_Energy-OPLS-2005>
322.202087402344

> <r_mmod_Improper_Torsional_Energy-OPLS-2005>
3.58348560333252

> <r_mmod_Van_der_Waal_Energy-OPLS-2005>
162.860366821289

> <r_mmod_Electrostatic_Energy-OPLS-2005>
-444.598266601562

> <r_mmod_Solvation_Energy-OPLS-2005>
-202.760879516602

> <b_mmod_Minimization_Converged-OPLS-2005>
0

> <r_mmod_RMS_Derivative-OPLS-2005>
5.17503547668457

$$$$
79
                    3D
 Structure written by MMmdl.
182190  0  0  1  0            999 V2000
  -30.5519  -14.7270   20.4538 C   0  0  0  0  0  0
  -30.4426  -12.4306   19.4859 C   0  0  0  0  0  0
  -29.5221  -12.5090   18.2436 C   0  0  0  0  0  0
  -28.0440  -12.3332   18.6479 C   0  0  0  0  0  0
  -27.6486  -13.2201   19.8603 C   0  0  2  0  0  0
  -28.6838  -13.0991   20.9996 C   0  0  0  0  0  0
  -25.2525  -13.8164   20.5663 C   0  0  0  0  0  0
  -24.1785  -13.0403   20.9204 C   0  0  0  0  0  0
  -24.6375  -11.6900   20.8744 C   0  0  0  0  0  0
  -23.9033  -10.4283   21.0421 C   0  0  0  0  0  0
  -24.3595   -9.4207   21.9195 C   0  0  0  0  0  0
  -23.6283   -8.2232   22.0740 C   0  0  0  0  0  0
  -22.4270   -8.0284   21.3529 C   0  0  0  0  0  0
  -21.9898   -9.0245   20.4627 C   0  0  0  0  0  0
  -22.7210  -10.2133   20.3054 C   0  0  0  0  0  0
  -21.6840   -6.0751   22.5287 C   0  0  0  0  0  0
  -21.4007   -6.5643   23.8228 C   0  0  0  0  0  0
  -21.3646   -5.6786   24.9184 C   0  0  0  0  0  0
  -21.6056   -4.3052   24.7228 C   0  0  0  0  0  0
  -21.8805   -3.8153   23.4341 C   0  0  0  0  0  0
  -21.9191   -4.6982   22.3406 C   0  0  0  0  0  0
  -22.7825  -13.5227   21.1900 C   0  0  0  0  0  0
  -22.1654   -4.2169   21.0990 F   0  0  0  0  0  0
  -21.5642   -3.4533   25.7733 F   0  0  0  0  0  0
  -29.9954  -13.4669   20.4476 N   0  0  0  0  0  0
  -26.2945  -12.9322   20.3256 N   0  0  0  0  0  0
  -25.9292  -11.6486   20.5714 N   0  0  0  0  0  0
  -22.0428  -12.8197   22.0445 N   0  0  0  0  0  0
  -25.4242  -15.1861   20.4080 N   0  0  0  0  0  0
  -31.6956  -14.8990   20.0198 O   0  0  0  0  0  0
  -21.6627   -6.8886   21.4238 O   0  0  0  0  0  0
  -22.3507  -14.5526   20.6778 O   0  0  0  0  0  0
  -24.6287  -31.8554   23.2008 C   0  0  0  0  0  0
  -25.9125  -32.4754   23.8324 C   0  0  1  0  0  0
  -27.1894  -27.2665   20.1353 C   0  0  0  0  0  0
  -25.5959  -33.8569   24.2275 N   0  0  0  0  0  0
  -23.4242  -30.4778   21.5467 C   0  0  2  0  0  0
  -24.8676  -28.9432   20.0852 C   0  0  0  0  0  0
  -22.7501  -29.4545   22.4906 C   0  0  0  0  0  0
  -18.0287  -28.1406   22.8482 C   0  0  0  0  0  0
  -24.1478  -36.7281   23.2638 C   0  0  0  0  0  0
  -25.9646  -30.7675   21.3767 C   0  0  0  0  0  0
  -26.0325  -29.3940   20.7195 C   0  0  0  0  0  0
  -27.1996  -28.5676   20.7379 C   0  0  0  0  0  0
  -26.0281  -26.9035   19.4226 C   0  0  0  0  0  0
  -24.8733  -27.7126   19.4131 C   0  0  0  0  0  0
  -23.6342  -29.8251   20.1541 C   0  0  0  0  0  0
  -25.4106  -36.3082   24.0326 C   0  0  1  0  0  0
  -20.5889  -28.3674   23.1311 C   0  0  2  0  0  0
  -20.6799  -26.9405   22.5417 C   0  0  0  0  0  0
  -19.5769  -26.6376   21.5242 C   0  0  0  0  0  0
  -18.1936  -26.7958   22.1631 C   0  0  0  0  0  0
  -19.1533  -28.8865   23.2899 C   0  0  0  0  0  0
  -18.9456  -30.1480   23.8882 C   0  0  0  0  0  0
  -17.6455  -30.6605   24.0571 C   0  0  0  0  0  0
  -25.9053  -34.9450   23.5106 C   0  0  0  0  0  0
  -16.5362  -29.9092   23.6347 C   0  0  0  0  0  0
  -16.7266  -28.6528   23.0336 C   0  0  0  0  0  0
  -26.4503  -31.6558   25.0694 C   0  0  0  0  0  0
  -25.3707  -31.3720   26.1387 C   0  0  0  0  0  0
  -27.0328  -30.2982   24.6137 C   0  0  0  0  0  0
  -27.6066  -32.4273   25.7457 C   0  0  0  0  0  0
  -27.5573  -37.1801   24.8480 C   0  0  0  0  0  0
  -21.4214  -29.3012   22.3704 N   0  0  0  0  0  0
  -26.4281  -37.3780   23.9416 N   0  0  0  0  0  0
  -24.6924  -31.0525   22.0996 N   0  0  0  0  0  0
  -23.4241  -28.8057   23.2939 O   0  0  0  0  0  0
  -28.2489  -26.3390   20.2158 O   0  0  0  0  0  0
  -26.5608  -34.8938   22.4671 O   0  0  0  0  0  0
  -23.5456  -32.1353   23.7324 O   0  0  0  0  0  0
  -28.8276  -19.5835   20.4987 C   0  0  0  0  0  0
  -29.3118  -20.9461   20.5977 C   0  0  0  0  0  0
  -30.7217  -21.0736   20.4840 C   0  0  0  0  0  0
  -29.7065  -18.4857   20.1755 C   0  0  0  0  0  0
  -31.4392  -20.0342   19.8088 C   0  0  0  0  0  0
  -32.0203  -20.9109   25.0404 C   0  0  0  0  0  0
  -32.5502  -19.7111   22.8942 C   0  0  0  0  0  0
  -26.6886  -24.8501   21.5852 C   0  0  0  0  0  0
  -33.5909  -19.0691   18.7976 C   0  0  0  0  0  0
  -33.4516  -21.5151   19.0154 C   0  0  0  0  0  0
  -31.9804  -20.3921   17.3810 C   0  0  0  0  0  0
  -28.4063  -22.2043   20.9757 C   0  0  0  0  0  0
  -31.4053  -22.1742   21.3206 C   0  0  0  0  0  0
  -29.2886  -16.9752   19.9429 C   0  0  0  0  0  0
  -28.4202  -23.5981   20.1280 C   0  0  0  0  0  0
  -31.2553  -21.9356   22.8532 C   0  0  0  0  0  0
  -32.3508  -21.0841   23.5475 C   0  0  0  0  0  0
  -28.0574  -24.9920   20.8791 C   0  0  2  0  0  0
  -32.5989  -20.2572   18.7909 C   0  0  0  0  0  0
  -30.9348  -18.7770   19.7262 N   0  0  0  0  0  0
  -29.7199  -15.7793   20.7795 N   0  0  0  0  0  0
  -31.4871  -12.5586   19.1934 H   0  0  0  0  0  0
  -30.3862  -11.4379   19.9360 H   0  0  0  0  0  0
  -29.8028  -11.7550   17.5075 H   0  0  0  0  0  0
  -29.6539  -13.4728   17.7527 H   0  0  0  0  0  0
  -27.8906  -11.2827   18.8980 H   0  0  0  0  0  0
  -27.3917  -12.5380   17.7993 H   0  0  0  0  0  0
  -27.6583  -14.2496   19.5014 H   0  0  0  0  0  0
  -28.7009  -12.0734   21.3765 H   0  0  0  0  0  0
  -28.4100  -13.7273   21.8480 H   0  0  0  0  0  0
  -25.2744   -9.5680   22.4758 H   0  0  0  0  0  0
  -23.9995   -7.4610   22.7433 H   0  0  0  0  0  0
  -21.0837   -8.8750   19.8921 H   0  0  0  0  0  0
  -22.3673  -10.9665   19.6152 H   0  0  0  0  0  0
  -21.1981   -7.6149   23.9739 H   0  0  0  0  0  0
  -21.1484   -6.0517   25.9089 H   0  0  0  0  0  0
  -22.0595   -2.7618   23.2839 H   0  0  0  0  0  0
  -22.4015  -11.9854   22.4836 H   0  0  0  0  0  0
  -21.1055  -13.1221   22.2645 H   0  0  0  0  0  0
  -24.6537  -15.8370   20.5098 H   0  0  0  0  0  0
  -26.2675  -15.6156   20.0492 H   0  0  0  0  0  0
  -26.7169  -32.5410   23.1048 H   0  0  0  0  0  0
  -25.0203  -33.9701   25.0492 H   0  0  0  0  0  0
  -22.7199  -31.3001   21.4163 H   0  0  0  0  0  0
  -23.3750  -35.9606   23.3304 H   0  0  0  0  0  0
  -24.3592  -36.8882   22.2053 H   0  0  0  0  0  0
  -23.7196  -37.6483   23.6641 H   0  0  0  0  0  0
  -26.0975  -31.5185   20.5974 H   0  0  0  0  0  0
  -26.8484  -30.8220   21.9991 H   0  0  0  0  0  0
  -28.0849  -28.9004   21.2609 H   0  0  0  0  0  0
  -25.9917  -25.9630   18.8895 H   0  0  0  0  0  0
  -23.9926  -27.3910   18.8736 H   0  0  0  0  0  0
  -23.7442  -30.6114   19.4074 H   0  0  0  0  0  0
  -22.7520  -29.2542   19.8589 H   0  0  0  0  0  0
  -25.1293  -36.1933   25.0813 H   0  0  0  0  0  0
  -20.9976  -28.3228   24.1437 H   0  0  0  0  0  0
  -20.5786  -26.2255   23.3589 H   0  0  0  0  0  0
  -21.6662  -26.7500   22.1165 H   0  0  0  0  0  0
  -19.6947  -25.6285   21.1259 H   0  0  0  0  0  0
  -19.6734  -27.3222   20.6808 H   0  0  0  0  0  0
  -17.4233  -26.6701   21.4007 H   0  0  0  0  0  0
  -18.0292  -26.0126   22.9041 H   0  0  0  0  0  0
  -19.7927  -30.7307   24.2225 H   0  0  0  0  0  0
  -17.5012  -31.6289   24.5170 H   0  0  0  0  0  0
  -15.5357  -30.2995   23.7697 H   0  0  0  0  0  0
  -15.8669  -28.0872   22.7022 H   0  0  0  0  0  0
  -24.5925  -30.7034   25.7707 H   0  0  0  0  0  0
  -24.8841  -32.2888   26.4722 H   0  0  0  0  0  0
  -25.7968  -30.8958   27.0216 H   0  0  0  0  0  0
  -26.2904  -29.6747   24.1151 H   0  0  0  0  0  0
  -27.4050  -29.7224   25.4622 H   0  0  0  0  0  0
  -27.8761  -30.4307   23.9356 H   0  0  0  0  0  0
  -27.2716  -33.3613   26.1982 H   0  0  0  0  0  0
  -28.3882  -32.6754   25.0258 H   0  0  0  0  0  0
  -28.0717  -31.8410   26.5391 H   0  0  0  0  0  0
  -28.2609  -38.0084   24.7530 H   0  0  0  0  0  0
  -28.1046  -36.2626   24.6306 H   0  0  0  0  0  0
  -27.2307  -37.1454   25.8888 H   0  0  0  0  0  0
  -20.9386  -29.8759   21.6931 H   0  0  0  0  0  0
  -26.0171  -38.2851   24.1438 H   0  0  0  0  0  0
  -27.7840  -19.3744   20.6870 H   0  0  0  0  0  0
  -32.7516  -20.2860   25.5561 H   0  0  0  0  0  0
  -31.0421  -20.4502   25.1867 H   0  0  0  0  0  0
  -32.0036  -21.8767   25.5452 H   0  0  0  0  0  0
  -33.1094  -19.0293   23.5366 H   0  0  0  0  0  0
  -33.1326  -19.8207   21.9820 H   0  0  0  0  0  0
  -31.6010  -19.2395   22.6341 H   0  0  0  0  0  0
  -25.8827  -24.6764   20.8733 H   0  0  0  0  0  0
  -26.4459  -25.7302   22.1857 H   0  0  0  0  0  0
  -26.6695  -23.9950   22.2574 H   0  0  0  0  0  0
  -34.0118  -18.9229   19.7927 H   0  0  0  0  0  0
  -34.4197  -19.2319   18.1088 H   0  0  0  0  0  0
  -33.1133  -18.1357   18.4988 H   0  0  0  0  0  0
  -34.0304  -21.4416   19.9370 H   0  0  0  0  0  0
  -32.8448  -22.4185   19.0336 H   0  0  0  0  0  0
  -34.1684  -21.6555   18.2074 H   0  0  0  0  0  0
  -31.4187  -19.5008   17.1024 H   0  0  0  0  0  0
  -32.7264  -20.5478   16.6014 H   0  0  0  0  0  0
  -31.2943  -21.2393   17.3455 H   0  0  0  0  0  0
  -28.6222  -22.4525   22.0118 H   0  0  0  0  0  0
  -27.3772  -21.8454   21.0193 H   0  0  0  0  0  0
  -30.9614  -23.1355   21.0756 H   0  0  0  0  0  0
  -32.4626  -22.2947   21.1312 H   0  0  0  0  0  0
  -28.1999  -16.9671   19.9977 H   0  0  0  0  0  0
  -29.5141  -16.7418   18.9003 H   0  0  0  0  0  0
  -27.7389  -23.4774   19.2827 H   0  0  0  0  0  0
  -29.3967  -23.7233   19.6676 H   0  0  0  0  0  0
  -30.2804  -21.5142   23.0964 H   0  0  0  0  0  0
  -31.2421  -22.9158   23.3354 H   0  0  0  0  0  0
  -33.3036  -21.6129   23.4769 H   0  0  0  0  0  0
  -28.7845  -25.0581   21.6904 H   0  0  0  0  0  0
  -28.9540  -15.4774   21.3602 H   0  0  0  0  0  0
  1 25  1  0  0  0
  1 30  2  0  0  0
  1 91  1  0  0  0
  2  3  1  0  0  0
  2 25  1  0  0  0
  2 92  1  0  0  0
  2 93  1  0  0  0
  3  4  1  0  0  0
  3 94  1  0  0  0
  3 95  1  0  0  0
  4  5  1  0  0  0
  4 96  1  0  0  0
  4 97  1  0  0  0
  5  6  1  0  0  0
  5 26  1  0  0  0
  5 98  1  0  0  0
  6 25  1  0  0  0
  6 99  1  0  0  0
  6100  1  0  0  0
  7  8  2  0  0  0
  7 26  1  0  0  0
  7 29  1  0  0  0
  8  9  1  0  0  0
  8 22  1  0  0  0
  9 10  1  0  0  0
  9 27  2  0  0  0
 10 11  2  0  0  0
 10 15  1  0  0  0
 11 12  1  0  0  0
 11101  1  0  0  0
 12 13  2  0  0  0
 12102  1  0  0  0
 13 14  1  0  0  0
 13 31  1  0  0  0
 14 15  2  0  0  0
 14103  1  0  0  0
 15104  1  0  0  0
 16 17  2  0  0  0
 16 21  1  0  0  0
 16 31  1  0  0  0
 17 18  1  0  0  0
 17105  1  0  0  0
 18 19  2  0  0  0
 18106  1  0  0  0
 19 20  1  0  0  0
 19 24  1  0  0  0
 20 21  2  0  0  0
 20107  1  0  0  0
 21 23  1  0  0  0
 22 28  1  0  0  0
 22 32  2  0  0  0
 26 27  1  0  0  0
 28108  1  0  0  0
 28109  1  0  0  0
 29110  1  0  0  0
 29111  1  0  0  0
 33 34  1  0  0  0
 33 66  1  0  0  0
 33 70  2  0  0  0
 34 36  1  0  0  0
 34 59  1  0  0  0
 34112  1  0  0  0
 35 44  2  0  0  0
 35 45  1  0  0  0
 35 68  1  0  0  0
 36 56  1  0  0  0
 36113  1  0  0  0
 37 39  1  0  0  0
 37 47  1  0  0  0
 37 66  1  0  0  0
 37114  1  0  0  0
 38 43  2  0  0  0
 38 46  1  0  0  0
 38 47  1  0  0  0
 39 64  1  0  0  0
 39 67  2  0  0  0
 40 52  1  0  0  0
 40 53  2  0  0  0
 40 58  1  0  0  0
 41115  1  0  0  0
 41116  1  0  0  0
 41117  1  0  0  0
 41 48  1  0  0  0
 42 43  1  0  0  0
 42 66  1  0  0  0
 42118  1  0  0  0
 42119  1  0  0  0
 43 44  1  0  0  0
 44120  1  0  0  0
 45 46  2  0  0  0
 45121  1  0  0  0
 46122  1  0  0  0
 47123  1  0  0  0
 47124  1  0  0  0
 48 56  1  0  0  0
 48 65  1  0  0  0
 48125  1  0  0  0
 49 50  1  0  0  0
 49 53  1  0  0  0
 49 64  1  0  0  0
 49126  1  0  0  0
 50 51  1  0  0  0
 50127  1  0  0  0
 50128  1  0  0  0
 51 52  1  0  0  0
 51129  1  0  0  0
 51130  1  0  0  0
 52131  1  0  0  0
 52132  1  0  0  0
 53 54  1  0  0  0
 54 55  2  0  0  0
 54133  1  0  0  0
 55 57  1  0  0  0
 55134  1  0  0  0
 56 69  2  0  0  0
 57 58  2  0  0  0
 57135  1  0  0  0
 58136  1  0  0  0
 59 60  1  0  0  0
 59 61  1  0  0  0
 59 62  1  0  0  0
 60137  1  0  0  0
 60138  1  0  0  0
 60139  1  0  0  0
 61140  1  0  0  0
 61141  1  0  0  0
 61142  1  0  0  0
 62143  1  0  0  0
 62144  1  0  0  0
 62145  1  0  0  0
 63 65  1  0  0  0
 63146  1  0  0  0
 63147  1  0  0  0
 63148  1  0  0  0
 64149  1  0  0  0
 65150  1  0  0  0
 68 88  1  0  0  0
 71 72  2  0  0  0
 71 74  1  0  0  0
 71151  1  0  0  0
 72 73  1  0  0  0
 72 82  1  0  0  0
 73 75  2  0  0  0
 73 83  1  0  0  0
 74 84  1  0  0  0
 74 90  2  0  0  0
 75 89  1  0  0  0
 75 90  1  0  0  0
 76152  1  0  0  0
 76153  1  0  0  0
 76154  1  0  0  0
 76 87  1  0  0  0
 77 87  1  0  0  0
 77155  1  0  0  0
 77156  1  0  0  0
 77157  1  0  0  0
 78158  1  0  0  0
 78159  1  0  0  0
 78160  1  0  0  0
 78 88  1  0  0  0
 79161  1  0  0  0
 79162  1  0  0  0
 79163  1  0  0  0
 79 89  1  0  0  0
 80 89  1  0  0  0
 80164  1  0  0  0
 80165  1  0  0  0
 80166  1  0  0  0
 81 89  1  0  0  0
 81167  1  0  0  0
 81168  1  0  0  0
 81169  1  0  0  0
 82 85  1  0  0  0
 82170  1  0  0  0
 82171  1  0  0  0
 83 86  1  0  0  0
 83172  1  0  0  0
 83173  1  0  0  0
 84 91  1  0  0  0
 84174  1  0  0  0
 84175  1  0  0  0
 85 88  1  0  0  0
 85176  1  0  0  0
 85177  1  0  0  0
 86 87  1  0  0  0
 86178  1  0  0  0
 86179  1  0  0  0
 87180  1  0  0  0
 88181  1  0  0  0
 91182  1  0  0  0
M  ISO  4   1 100  68 101  88 101  91 100
M  END
> <chiral flag>
0

> <version>
0

> <s_m_source_file>
/data/baiqing/PycharmProjects/Reinvent-master-3.2/result/LINK_invent/BTK/process_docking_weight1_custom_sum_contain_oxygen_bond_distance_aromatic_linkinvent_7_9_3/rearranged_h_0091.sdf

> <i_m_source_file_index>
79

> <r_mmod_Potential_Energy-OPLS-2005>
38.8492774963379

> <r_mmod_Stretch_Energy-OPLS-2005>
125.575225830078

> <r_mmod_Bend_Energy-OPLS-2005>
205.507904052734

> <r_mmod_Torsional_Energy-OPLS-2005>
351.294219970703

> <r_mmod_Improper_Torsional_Energy-OPLS-2005>
14.1665439605713

> <r_mmod_Van_der_Waal_Energy-OPLS-2005>
148.141021728516

> <r_mmod_Electrostatic_Energy-OPLS-2005>
-674.345153808594

> <r_mmod_Solvation_Energy-OPLS-2005>
-219.682006835938

> <b_mmod_Minimization_Converged-OPLS-2005>
0

> <r_mmod_RMS_Derivative-OPLS-2005>
5.58061456680298

$$$$
80
                    3D
 Structure written by MMmdl.
171179  0  0  1  0            999 V2000
  -30.7218  -14.4172   20.6508 C   0  0  0  0  0  0
  -30.4211  -12.2848   19.4384 C   0  0  0  0  0  0
  -29.5000  -12.5010   18.2228 C   0  0  0  0  0  0
  -28.0227  -12.3520   18.6294 C   0  0  0  0  0  0
  -27.6658  -13.1931   19.8825 C   0  0  2  0  0  0
  -28.6951  -12.9515   21.0101 C   0  0  0  0  0  0
  -25.2579  -13.8131   20.5649 C   0  0  0  0  0  0
  -24.1811  -13.0451   20.9215 C   0  0  0  0  0  0
  -24.6361  -11.6897   20.8779 C   0  0  0  0  0  0
  -23.9022  -10.4277   21.0437 C   0  0  0  0  0  0
  -24.3566   -9.4185   21.9217 C   0  0  0  0  0  0
  -23.6246   -8.2223   22.0769 C   0  0  0  0  0  0
  -22.4232   -8.0278   21.3570 C   0  0  0  0  0  0
  -21.9874   -9.0241   20.4653 C   0  0  0  0  0  0
  -22.7199  -10.2125   20.3074 C   0  0  0  0  0  0
  -21.6829   -6.0708   22.5288 C   0  0  0  0  0  0
  -21.4002   -6.5601   23.8231 C   0  0  0  0  0  0
  -21.3676   -5.6768   24.9192 C   0  0  0  0  0  0
  -21.6050   -4.3030   24.7250 C   0  0  0  0  0  0
  -21.8806   -3.8118   23.4363 C   0  0  0  0  0  0
  -21.9173   -4.6930   22.3418 C   0  0  0  0  0  0
  -22.7822  -13.5247   21.1871 C   0  0  0  0  0  0
  -22.1627   -4.2113   21.1005 F   0  0  0  0  0  0
  -21.5662   -3.4527   25.7770 F   0  0  0  0  0  0
  -30.0429  -13.2500   20.4852 N   0  0  0  0  0  0
  -26.3014  -12.9271   20.3349 N   0  0  0  0  0  0
  -25.9277  -11.6449   20.5777 N   0  0  0  0  0  0
  -22.0419  -12.8276   22.0404 N   0  0  0  0  0  0
  -25.4396  -15.1839   20.4036 N   0  0  0  0  0  0
  -31.7801  -14.6757   20.0718 O   0  0  0  0  0  0
  -21.6610   -6.8860   21.4257 O   0  0  0  0  0  0
  -22.3546  -14.5591   20.6740 O   0  0  0  0  0  0
  -24.6213  -31.8751   23.2157 C   0  0  0  0  0  0
  -25.9076  -32.4858   23.8486 C   0  0  1  0  0  0
  -27.1980  -27.3986   20.1027 C   0  0  0  0  0  0
  -25.5944  -33.8656   24.2446 N   0  0  0  0  0  0
  -23.4052  -30.5060   21.5592 C   0  0  2  0  0  0
  -24.8420  -28.9811   20.1010 C   0  0  0  0  0  0
  -22.7476  -29.4705   22.5020 C   0  0  0  0  0  0
  -18.0331  -28.1319   22.8420 C   0  0  0  0  0  0
  -24.1474  -36.7288   23.2634 C   0  0  0  0  0  0
  -25.9407  -30.8282   21.3710 C   0  0  0  0  0  0
  -26.0097  -29.4621   20.7137 C   0  0  0  0  0  0
  -27.1915  -28.6812   20.7075 C   0  0  0  0  0  0
  -26.0265  -26.9740   19.4292 C   0  0  0  0  0  0
  -24.8559  -27.7439   19.4383 C   0  0  0  0  0  0
  -23.6084  -29.8535   20.1674 C   0  0  0  0  0  0
  -25.4090  -36.3162   24.0380 C   0  0  1  0  0  0
  -20.5901  -28.3694   23.1357 C   0  0  2  0  0  0
  -20.6854  -26.9409   22.5533 C   0  0  0  0  0  0
  -19.5898  -26.6247   21.5315 C   0  0  0  0  0  0
  -18.2043  -26.7826   22.1635 C   0  0  0  0  0  0
  -19.1556  -28.8829   23.2872 C   0  0  0  0  0  0
  -18.9432  -30.1462   23.8838 C   0  0  0  0  0  0
  -17.6415  -30.6567   24.0411 C   0  0  0  0  0  0
  -25.9025  -34.9515   23.5217 C   0  0  0  0  0  0
  -16.5349  -29.8999   23.6205 C   0  0  0  0  0  0
  -16.7318  -28.6395   23.0260 C   0  0  0  0  0  0
  -26.4487  -31.6600   25.0769 C   0  0  0  0  0  0
  -25.3739  -31.3633   26.1493 C   0  0  0  0  0  0
  -27.0319  -30.3087   24.6041 C   0  0  0  0  0  0
  -27.6154  -32.4273   25.7431 C   0  0  0  0  0  0
  -27.5598  -37.1799   24.8477 C   0  0  0  0  0  0
  -21.4225  -29.3011   22.3727 N   0  0  0  0  0  0
  -26.4301  -37.3829   23.9424 N   0  0  0  0  0  0
  -24.6748  -31.0877   22.1043 N   0  0  0  0  0  0
  -23.4260  -28.8275   23.3077 O   0  0  0  0  0  0
  -28.3122  -26.5797   20.1773 O   0  0  0  0  0  0
  -26.5598  -34.8943   22.4777 O   0  0  0  0  0  0
  -23.5413  -32.1501   23.7557 O   0  0  0  0  0  0
  -30.0810  -19.9360   22.3998 C   0  0  0  0  0  0
  -29.8132  -21.3246   22.3690 C   0  0  0  0  0  0
  -27.8994  -19.5230   21.4233 C   0  0  0  0  0  0
  -29.1011  -19.0176   21.9674 C   0  0  0  0  0  0
  -28.5775  -21.8332   21.8964 C   0  0  0  0  0  0
  -27.6174  -20.9117   21.3832 C   0  0  0  0  0  0
  -24.4423  -19.6886   21.4263 C   0  0  0  0  0  0
  -25.2262  -21.3391   23.1221 C   0  0  0  0  0  0
  -23.9170  -22.0983   21.1143 C   0  0  0  0  0  0
  -29.2454  -17.5057   22.1914 C   0  0  0  0  0  0
  -28.2944  -23.3413   22.0609 C   0  0  0  0  0  0
  -26.2844  -21.3485   20.7640 C   0  0  0  0  0  0
  -28.9940  -24.3137   21.0632 C   0  0  0  0  0  0
  -30.3804  -16.7721   21.4382 C   0  0  0  0  0  0
  -28.0494  -25.1498   20.1584 C   0  0  0  0  0  0
  -24.9948  -21.1176   21.6143 C   0  0  0  0  0  0
  -30.1162  -15.3268   21.4276 N   0  0  0  0  0  0
  -31.4690  -12.3761   19.1497 H   0  0  0  0  0  0
  -30.3150  -11.2668   19.8162 H   0  0  0  0  0  0
  -29.7444  -11.7886   17.4346 H   0  0  0  0  0  0
  -29.6726  -13.4934   17.8080 H   0  0  0  0  0  0
  -27.8427  -11.2957   18.8305 H   0  0  0  0  0  0
  -27.3739  -12.6078   17.7933 H   0  0  0  0  0  0
  -27.7263  -14.2438   19.5977 H   0  0  0  0  0  0
  -28.6572  -11.9089   21.3294 H   0  0  0  0  0  0
  -28.4329  -13.5273   21.8985 H   0  0  0  0  0  0
  -25.2704   -9.5637   22.4800 H   0  0  0  0  0  0
  -23.9930   -7.4582   22.7468 H   0  0  0  0  0  0
  -21.0807   -8.8751   19.8937 H   0  0  0  0  0  0
  -22.3659  -10.9656   19.6170 H   0  0  0  0  0  0
  -21.1979   -7.6110   23.9735 H   0  0  0  0  0  0
  -21.1532   -6.0502   25.9115 H   0  0  0  0  0  0
  -22.0576   -2.7580   23.2899 H   0  0  0  0  0  0
  -22.3985  -11.9886   22.4748 H   0  0  0  0  0  0
  -21.1099  -13.1427   22.2726 H   0  0  0  0  0  0
  -24.6893  -15.8565   20.5162 H   0  0  0  0  0  0
  -26.3059  -15.6026   20.0900 H   0  0  0  0  0  0
  -26.7145  -32.5546   23.1263 H   0  0  0  0  0  0
  -25.0213  -33.9831   25.0678 H   0  0  0  0  0  0
  -22.6832  -31.3177   21.4382 H   0  0  0  0  0  0
  -23.3783  -35.9568   23.3298 H   0  0  0  0  0  0
  -24.3601  -36.8877   22.2050 H   0  0  0  0  0  0
  -23.7129  -37.6458   23.6609 H   0  0  0  0  0  0
  -26.0715  -31.5896   20.5996 H   0  0  0  0  0  0
  -26.8249  -30.8819   21.9920 H   0  0  0  0  0  0
  -28.0936  -29.0341   21.1917 H   0  0  0  0  0  0
  -25.9933  -26.0422   18.8825 H   0  0  0  0  0  0
  -23.9809  -27.3881   18.9094 H   0  0  0  0  0  0
  -23.7161  -30.6355   19.4168 H   0  0  0  0  0  0
  -22.7210  -29.2928   19.8653 H   0  0  0  0  0  0
  -25.1231  -36.2087   25.0872 H   0  0  0  0  0  0
  -20.9985  -28.3299   24.1483 H   0  0  0  0  0  0
  -20.5819  -26.2369   23.3794 H   0  0  0  0  0  0
  -21.6756  -26.7488   22.1371 H   0  0  0  0  0  0
  -19.7101  -25.6053   21.1573 H   0  0  0  0  0  0
  -19.6869  -27.2933   20.6741 H   0  0  0  0  0  0
  -17.4312  -26.6373   21.4071 H   0  0  0  0  0  0
  -18.0517  -26.0015   22.9092 H   0  0  0  0  0  0
  -19.7893  -30.7283   24.2223 H   0  0  0  0  0  0
  -17.4912  -31.6253   24.4994 H   0  0  0  0  0  0
  -15.5308  -30.2830   23.7474 H   0  0  0  0  0  0
  -15.8745  -28.0654   22.7003 H   0  0  0  0  0  0
  -24.5971  -30.6931   25.7769 H   0  0  0  0  0  0
  -24.8822  -32.2725   26.4957 H   0  0  0  0  0  0
  -25.8079  -30.8790   27.0245 H   0  0  0  0  0  0
  -26.2840  -29.6812   24.1169 H   0  0  0  0  0  0
  -27.4252  -29.7340   25.4426 H   0  0  0  0  0  0
  -27.8613  -30.4473   23.9105 H   0  0  0  0  0  0
  -27.2925  -33.3616   26.2022 H   0  0  0  0  0  0
  -28.3884  -32.6737   25.0136 H   0  0  0  0  0  0
  -28.0885  -31.8349   26.5263 H   0  0  0  0  0  0
  -28.2641  -38.0093   24.7619 H   0  0  0  0  0  0
  -28.1115  -36.2651   24.6215 H   0  0  0  0  0  0
  -27.2375  -37.1350   25.8907 H   0  0  0  0  0  0
  -20.9489  -29.8615   21.6791 H   0  0  0  0  0  0
  -26.0245  -38.2934   24.1411 H   0  0  0  0  0  0
  -31.0195  -19.5822   22.8036 H   0  0  0  0  0  0
  -30.5525  -22.0122   22.7567 H   0  0  0  0  0  0
  -27.1564  -18.8250   21.0665 H   0  0  0  0  0  0
  -23.4920  -19.5602   21.9456 H   0  0  0  0  0  0
  -25.1160  -18.9350   21.8331 H   0  0  0  0  0  0
  -24.2670  -19.4549   20.3764 H   0  0  0  0  0  0
  -24.3164  -21.1387   23.6904 H   0  0  0  0  0  0
  -25.5298  -22.3626   23.3322 H   0  0  0  0  0  0
  -25.9957  -20.6789   23.5234 H   0  0  0  0  0  0
  -22.9939  -22.0146   21.6883 H   0  0  0  0  0  0
  -23.6656  -21.9046   20.0697 H   0  0  0  0  0  0
  -24.2576  -23.1322   21.1787 H   0  0  0  0  0  0
  -28.2907  -17.0395   21.9436 H   0  0  0  0  0  0
  -29.3658  -17.3397   23.2629 H   0  0  0  0  0  0
  -28.6396  -23.6063   23.0625 H   0  0  0  0  0  0
  -27.2244  -23.5275   22.1251 H   0  0  0  0  0  0
  -26.1779  -20.8320   19.8112 H   0  0  0  0  0  0
  -26.3575  -22.3979   20.4740 H   0  0  0  0  0  0
  -29.7142  -23.7704   20.4538 H   0  0  0  0  0  0
  -29.5933  -25.0135   21.6440 H   0  0  0  0  0  0
  -31.3424  -16.9795   21.9031 H   0  0  0  0  0  0
  -30.4442  -17.1329   20.4115 H   0  0  0  0  0  0
  -27.0228  -24.9114   20.4433 H   0  0  0  0  0  0
  -28.1314  -24.8050   19.1300 H   0  0  0  0  0  0
  -29.3026  -15.0034   21.9303 H   0  0  0  0  0  0
  1 25  1  0  0  0
  1 30  2  0  0  0
  1 87  1  0  0  0
  2  3  1  0  0  0
  2 25  1  0  0  0
  2 88  1  0  0  0
  2 89  1  0  0  0
  3  4  1  0  0  0
  3 90  1  0  0  0
  3 91  1  0  0  0
  4  5  1  0  0  0
  4 92  1  0  0  0
  4 93  1  0  0  0
  5  6  1  0  0  0
  5 26  1  0  0  0
  5 94  1  0  0  0
  6 25  1  0  0  0
  6 95  1  0  0  0
  6 96  1  0  0  0
  7  8  2  0  0  0
  7 26  1  0  0  0
  7 29  1  0  0  0
  8  9  1  0  0  0
  8 22  1  0  0  0
  9 10  1  0  0  0
  9 27  2  0  0  0
 10 11  2  0  0  0
 10 15  1  0  0  0
 11 12  1  0  0  0
 11 97  1  0  0  0
 12 13  2  0  0  0
 12 98  1  0  0  0
 13 14  1  0  0  0
 13 31  1  0  0  0
 14 15  2  0  0  0
 14 99  1  0  0  0
 15100  1  0  0  0
 16 17  2  0  0  0
 16 21  1  0  0  0
 16 31  1  0  0  0
 17 18  1  0  0  0
 17101  1  0  0  0
 18 19  2  0  0  0
 18102  1  0  0  0
 19 20  1  0  0  0
 19 24  1  0  0  0
 20 21  2  0  0  0
 20103  1  0  0  0
 21 23  1  0  0  0
 22 28  1  0  0  0
 22 32  2  0  0  0
 26 27  1  0  0  0
 28104  1  0  0  0
 28105  1  0  0  0
 29106  1  0  0  0
 29107  1  0  0  0
 33 34  1  0  0  0
 33 66  1  0  0  0
 33 70  2  0  0  0
 34 36  1  0  0  0
 34 59  1  0  0  0
 34108  1  0  0  0
 35 44  2  0  0  0
 35 45  1  0  0  0
 35 68  1  0  0  0
 36 56  1  0  0  0
 36109  1  0  0  0
 37 39  1  0  0  0
 37 47  1  0  0  0
 37 66  1  0  0  0
 37110  1  0  0  0
 38 43  2  0  0  0
 38 46  1  0  0  0
 38 47  1  0  0  0
 39 64  1  0  0  0
 39 67  2  0  0  0
 40 52  1  0  0  0
 40 53  2  0  0  0
 40 58  1  0  0  0
 41111  1  0  0  0
 41112  1  0  0  0
 41113  1  0  0  0
 41 48  1  0  0  0
 42 43  1  0  0  0
 42 66  1  0  0  0
 42114  1  0  0  0
 42115  1  0  0  0
 43 44  1  0  0  0
 44116  1  0  0  0
 45 46  2  0  0  0
 45117  1  0  0  0
 46118  1  0  0  0
 47119  1  0  0  0
 47120  1  0  0  0
 48 56  1  0  0  0
 48 65  1  0  0  0
 48121  1  0  0  0
 49 50  1  0  0  0
 49 53  1  0  0  0
 49 64  1  0  0  0
 49122  1  0  0  0
 50 51  1  0  0  0
 50123  1  0  0  0
 50124  1  0  0  0
 51 52  1  0  0  0
 51125  1  0  0  0
 51126  1  0  0  0
 52127  1  0  0  0
 52128  1  0  0  0
 53 54  1  0  0  0
 54 55  2  0  0  0
 54129  1  0  0  0
 55 57  1  0  0  0
 55130  1  0  0  0
 56 69  2  0  0  0
 57 58  2  0  0  0
 57131  1  0  0  0
 58132  1  0  0  0
 59 60  1  0  0  0
 59 61  1  0  0  0
 59 62  1  0  0  0
 60133  1  0  0  0
 60134  1  0  0  0
 60135  1  0  0  0
 61136  1  0  0  0
 61137  1  0  0  0
 61138  1  0  0  0
 62139  1  0  0  0
 62140  1  0  0  0
 62141  1  0  0  0
 63 65  1  0  0  0
 63142  1  0  0  0
 63143  1  0  0  0
 63144  1  0  0  0
 64145  1  0  0  0
 65146  1  0  0  0
 68 85  1  0  0  0
 71 72  2  0  0  0
 71 74  1  0  0  0
 71147  1  0  0  0
 72 75  1  0  0  0
 72148  1  0  0  0
 73 74  2  0  0  0
 73 76  1  0  0  0
 73149  1  0  0  0
 74 80  1  0  0  0
 75 76  2  0  0  0
 75 81  1  0  0  0
 76 82  1  0  0  0
 77150  1  0  0  0
 77151  1  0  0  0
 77152  1  0  0  0
 77 86  1  0  0  0
 78 86  1  0  0  0
 78153  1  0  0  0
 78154  1  0  0  0
 78155  1  0  0  0
 79 86  1  0  0  0
 79156  1  0  0  0
 79157  1  0  0  0
 79158  1  0  0  0
 80 84  1  0  0  0
 80159  1  0  0  0
 80160  1  0  0  0
 81 83  1  0  0  0
 81161  1  0  0  0
 81162  1  0  0  0
 82 86  1  0  0  0
 82163  1  0  0  0
 82164  1  0  0  0
 83 85  1  0  0  0
 83165  1  0  0  0
 83166  1  0  0  0
 84 87  1  0  0  0
 84167  1  0  0  0
 84168  1  0  0  0
 85169  1  0  0  0
 85170  1  0  0  0
 87171  1  0  0  0
M  ISO  4   1 100  68 101  85 101  87 100
M  END
> <chiral flag>
0

> <version>
0

> <s_m_source_file>
/data/baiqing/PycharmProjects/Reinvent-master-3.2/result/LINK_invent/BTK/process_docking_weight1_custom_sum_contain_oxygen_bond_distance_aromatic_linkinvent_7_9_3/rearranged_h_0091.sdf

> <i_m_source_file_index>
80

> <r_mmod_Potential_Energy-OPLS-2005>
-21.4382038116455

> <r_mmod_Stretch_Energy-OPLS-2005>
44.5806579589844

> <r_mmod_Bend_Energy-OPLS-2005>
110.456718444824

> <r_mmod_Torsional_Energy-OPLS-2005>
235.969314575195

> <r_mmod_Improper_Torsional_Energy-OPLS-2005>
3.44181203842163

> <r_mmod_Van_der_Waal_Energy-OPLS-2005>
154.208282470703

> <r_mmod_Electrostatic_Energy-OPLS-2005>
-390.212677001953

> <r_mmod_Solvation_Energy-OPLS-2005>
-198.907318115234

> <b_mmod_Minimization_Converged-OPLS-2005>
0

> <r_mmod_RMS_Derivative-OPLS-2005>
6.03252601623535

$$$$
81
                    3D
 Structure written by MMmdl.
165173  0  0  1  0            999 V2000
  -30.6156  -14.6989   20.4724 C   0  0  0  0  0  0
  -30.4358  -12.4208   19.4840 C   0  0  0  0  0  0
  -29.5176  -12.5055   18.2441 C   0  0  0  0  0  0
  -28.0408  -12.3333   18.6494 C   0  0  0  0  0  0
  -27.6502  -13.2234   19.8602 C   0  0  2  0  0  0
  -28.6899  -13.1306   21.0008 C   0  0  0  0  0  0
  -25.2556  -13.8185   20.5687 C   0  0  0  0  0  0
  -24.1825  -13.0440   20.9187 C   0  0  0  0  0  0
  -24.6404  -11.6917   20.8737 C   0  0  0  0  0  0
  -23.9071  -10.4300   21.0409 C   0  0  0  0  0  0
  -24.3625   -9.4221   21.9191 C   0  0  0  0  0  0
  -23.6304   -8.2252   22.0764 C   0  0  0  0  0  0
  -22.4286   -8.0289   21.3549 C   0  0  0  0  0  0
  -21.9915   -9.0263   20.4653 C   0  0  0  0  0  0
  -22.7240  -10.2142   20.3064 C   0  0  0  0  0  0
  -21.6856   -6.0746   22.5285 C   0  0  0  0  0  0
  -21.4018   -6.5649   23.8222 C   0  0  0  0  0  0
  -21.3661   -5.6797   24.9181 C   0  0  0  0  0  0
  -21.6046   -4.3062   24.7227 C   0  0  0  0  0  0
  -21.8819   -3.8154   23.4348 C   0  0  0  0  0  0
  -21.9195   -4.6973   22.3405 C   0  0  0  0  0  0
  -22.7851  -13.5243   21.1846 C   0  0  0  0  0  0
  -22.1663   -4.2160   21.0983 F   0  0  0  0  0  0
  -21.5624   -3.4544   25.7739 F   0  0  0  0  0  0
  -30.0032  -13.4692   20.4353 N   0  0  0  0  0  0
  -26.2981  -12.9372   20.3302 N   0  0  0  0  0  0
  -25.9334  -11.6523   20.5749 N   0  0  0  0  0  0
  -22.0490  -12.8243   22.0409 N   0  0  0  0  0  0
  -25.4264  -15.1906   20.4117 N   0  0  0  0  0  0
  -31.7778  -14.8307   20.0798 O   0  0  0  0  0  0
  -21.6649   -6.8886   21.4246 O   0  0  0  0  0  0
  -22.3546  -14.5552   20.6697 O   0  0  0  0  0  0
  -24.6283  -31.8574   23.1999 C   0  0  0  0  0  0
  -25.9116  -32.4775   23.8340 C   0  0  1  0  0  0
  -27.2212  -27.2886   20.1375 C   0  0  0  0  0  0
  -25.5929  -33.8576   24.2278 N   0  0  0  0  0  0
  -23.4238  -30.4806   21.5418 C   0  0  2  0  0  0
  -24.8736  -28.9318   20.1116 C   0  0  0  0  0  0
  -22.7484  -29.4613   22.4907 C   0  0  0  0  0  0
  -18.0286  -28.1413   22.8448 C   0  0  0  0  0  0
  -24.1491  -36.7295   23.2637 C   0  0  0  0  0  0
  -25.9672  -30.7830   21.3734 C   0  0  0  0  0  0
  -26.0430  -29.4060   20.7199 C   0  0  0  0  0  0
  -27.2223  -28.5970   20.7204 C   0  0  0  0  0  0
  -26.0364  -26.8846   19.4852 C   0  0  0  0  0  0
  -24.8741  -27.6780   19.4816 C   0  0  0  0  0  0
  -23.6415  -29.8133   20.1580 C   0  0  0  0  0  0
  -25.4115  -36.3089   24.0331 C   0  0  1  0  0  0
  -20.5892  -28.3682   23.1261 C   0  0  2  0  0  0
  -20.6778  -26.9408   22.5372 C   0  0  0  0  0  0
  -19.5747  -26.6378   21.5177 C   0  0  0  0  0  0
  -18.1906  -26.7987   22.1533 C   0  0  0  0  0  0
  -19.1544  -28.8848   23.2881 C   0  0  0  0  0  0
  -18.9469  -30.1416   23.8969 C   0  0  0  0  0  0
  -17.6472  -30.6552   24.0652 C   0  0  0  0  0  0
  -25.9051  -34.9452   23.5105 C   0  0  0  0  0  0
  -16.5363  -29.9087   23.6363 C   0  0  0  0  0  0
  -16.7275  -28.6538   23.0313 C   0  0  0  0  0  0
  -26.4496  -31.6583   25.0710 C   0  0  0  0  0  0
  -25.3731  -31.3706   26.1433 C   0  0  0  0  0  0
  -27.0328  -30.3010   24.6157 C   0  0  0  0  0  0
  -27.6074  -32.4291   25.7482 C   0  0  0  0  0  0
  -27.5583  -37.1803   24.8464 C   0  0  0  0  0  0
  -21.4194  -29.3041   22.3649 N   0  0  0  0  0  0
  -26.4296  -37.3782   23.9404 N   0  0  0  0  0  0
  -24.6922  -31.0565   22.0960 N   0  0  0  0  0  0
  -23.4197  -28.8157   23.3001 O   0  0  0  0  0  0
  -28.3168  -26.4035   20.1749 O   0  0  0  0  0  0
  -26.5620  -34.8926   22.4672 O   0  0  0  0  0  0
  -23.5439  -32.1365   23.7322 O   0  0  0  0  0  0
  -27.6637  -19.4669   19.8214 C   0  0  0  0  0  0
  -29.2477  -21.1576   20.5230 C   0  0  0  0  0  0
  -28.8940  -19.7531   20.4311 C   0  0  0  0  0  0
  -26.8328  -20.4739   19.2940 C   0  0  0  0  0  0
  -28.4254  -22.2378   19.9976 C   0  0  0  0  0  0
  -27.2018  -21.8507   19.3607 C   0  0  0  0  0  0
  -25.5302  -20.0038   18.6565 C   0  0  0  0  0  0
  -25.0170  -23.2013   19.5061 C   0  0  0  0  0  0
  -29.0779  -18.1553   22.4097 C   0  0  0  0  0  0
  -28.9175  -23.7614   19.9607 C   0  0  0  0  0  0
  -26.2895  -22.8892   18.6978 C   0  0  0  0  0  0
  -29.9317  -17.2068   20.1437 C   0  0  0  0  0  0
  -28.0717  -24.9834   20.5942 C   0  0  0  0  0  0
  -29.6923  -18.5262   21.0512 C   0  0  1  0  0  0
  -29.8253  -15.8001   20.7245 N   0  0  0  0  0  0
  -31.4803  -12.5350   19.1881 H   0  0  0  0  0  0
  -30.3651  -11.4374   19.9515 H   0  0  0  0  0  0
  -29.7977  -11.7445   17.5144 H   0  0  0  0  0  0
  -29.6538  -13.4693   17.7517 H   0  0  0  0  0  0
  -27.8882  -11.2816   18.8982 H   0  0  0  0  0  0
  -27.3890  -12.5409   17.8001 H   0  0  0  0  0  0
  -27.6552  -14.2495   19.4933 H   0  0  0  0  0  0
  -28.7092  -12.1281   21.4299 H   0  0  0  0  0  0
  -28.4269  -13.8036   21.8186 H   0  0  0  0  0  0
  -25.2774   -9.5706   22.4760 H   0  0  0  0  0  0
  -24.0019   -7.4653   22.7491 H   0  0  0  0  0  0
  -21.0845   -8.8788   19.8963 H   0  0  0  0  0  0
  -22.3707  -10.9686   19.6177 H   0  0  0  0  0  0
  -21.2015   -7.6159   23.9727 H   0  0  0  0  0  0
  -21.1481   -6.0529   25.9084 H   0  0  0  0  0  0
  -22.0596   -2.7617   23.2847 H   0  0  0  0  0  0
  -22.4084  -11.9892   22.4783 H   0  0  0  0  0  0
  -21.1119  -13.1294   22.2617 H   0  0  0  0  0  0
  -24.6546  -15.8398   20.5188 H   0  0  0  0  0  0
  -26.2733  -15.6337   20.0798 H   0  0  0  0  0  0
  -26.7187  -32.5449   23.1092 H   0  0  0  0  0  0
  -25.0082  -33.9711   25.0429 H   0  0  0  0  0  0
  -22.7182  -31.3014   21.3961 H   0  0  0  0  0  0
  -23.3761  -35.9620   23.3295 H   0  0  0  0  0  0
  -24.3584  -36.8916   22.2053 H   0  0  0  0  0  0
  -23.7232  -37.6495   23.6653 H   0  0  0  0  0  0
  -26.0928  -31.5438   20.6014 H   0  0  0  0  0  0
  -26.8504  -30.8404   21.9979 H   0  0  0  0  0  0
  -28.1193  -28.9555   21.2057 H   0  0  0  0  0  0
  -25.9969  -25.9341   18.9768 H   0  0  0  0  0  0
  -23.9832  -27.3145   18.9886 H   0  0  0  0  0  0
  -23.7600  -30.5883   19.4000 H   0  0  0  0  0  0
  -22.7641  -29.2392   19.8557 H   0  0  0  0  0  0
  -25.1293  -36.1950   25.0826 H   0  0  0  0  0  0
  -20.9994  -28.3240   24.1375 H   0  0  0  0  0  0
  -20.5674  -26.2274   23.3551 H   0  0  0  0  0  0
  -21.6642  -26.7445   22.1153 H   0  0  0  0  0  0
  -19.6873  -25.6270   21.1253 H   0  0  0  0  0  0
  -19.6721  -27.3147   20.6678 H   0  0  0  0  0  0
  -17.4219  -26.6874   21.3872 H   0  0  0  0  0  0
  -18.0156  -26.0101   22.8861 H   0  0  0  0  0  0
  -19.7939  -30.7193   24.2405 H   0  0  0  0  0  0
  -17.5026  -31.6193   24.5340 H   0  0  0  0  0  0
  -15.5367  -30.2990   23.7717 H   0  0  0  0  0  0
  -15.8665  -28.0905   22.6977 H   0  0  0  0  0  0
  -24.5938  -30.7023   25.7757 H   0  0  0  0  0  0
  -24.8883  -32.2857   26.4842 H   0  0  0  0  0  0
  -25.8060  -30.8905   27.0217 H   0  0  0  0  0  0
  -26.2890  -29.6768   24.1195 H   0  0  0  0  0  0
  -27.4042  -29.7259   25.4647 H   0  0  0  0  0  0
  -27.8755  -30.4297   23.9362 H   0  0  0  0  0  0
  -27.2723  -33.3600   26.2062 H   0  0  0  0  0  0
  -28.3895  -32.6816   25.0313 H   0  0  0  0  0  0
  -28.0726  -31.8397   26.5393 H   0  0  0  0  0  0
  -28.2602  -38.0101   24.7515 H   0  0  0  0  0  0
  -28.1077  -36.2629   24.6283 H   0  0  0  0  0  0
  -27.2297  -37.1449   25.8867 H   0  0  0  0  0  0
  -20.9380  -29.8726   21.6824 H   0  0  0  0  0  0
  -26.0184  -38.2864   24.1394 H   0  0  0  0  0  0
  -27.3366  -18.4375   19.7693 H   0  0  0  0  0  0
  -30.1835  -21.4128   21.0002 H   0  0  0  0  0  0
  -25.5727  -18.9409   18.4155 H   0  0  0  0  0  0
  -25.3042  -20.5179   17.7248 H   0  0  0  0  0  0
  -24.6960  -20.1390   19.3443 H   0  0  0  0  0  0
  -24.4661  -24.0251   19.0523 H   0  0  0  0  0  0
  -25.2415  -23.4781   20.5356 H   0  0  0  0  0  0
  -24.3388  -22.3519   19.5470 H   0  0  0  0  0  0
  -29.0319  -19.0249   23.0659 H   0  0  0  0  0  0
  -29.6726  -17.3982   22.9226 H   0  0  0  0  0  0
  -28.0641  -17.7713   22.2966 H   0  0  0  0  0  0
  -29.9165  -23.7944   20.3948 H   0  0  0  0  0  0
  -29.0787  -23.9932   18.9074 H   0  0  0  0  0  0
  -26.0101  -22.5463   17.7026 H   0  0  0  0  0  0
  -26.8250  -23.8087   18.4816 H   0  0  0  0  0  0
  -30.8898  -17.3137   19.6324 H   0  0  0  0  0  0
  -29.2045  -17.2165   19.3330 H   0  0  0  0  0  0
  -28.2406  -24.9588   21.6712 H   0  0  0  0  0  0
  -27.0176  -24.7552   20.5139 H   0  0  0  0  0  0
  -30.6869  -18.9145   21.2734 H   0  0  0  0  0  0
  -28.9159  -15.5716   21.0964 H   0  0  0  0  0  0
  1 25  1  0  0  0
  1 30  2  0  0  0
  1 85  1  0  0  0
  2  3  1  0  0  0
  2 25  1  0  0  0
  2 86  1  0  0  0
  2 87  1  0  0  0
  3  4  1  0  0  0
  3 88  1  0  0  0
  3 89  1  0  0  0
  4  5  1  0  0  0
  4 90  1  0  0  0
  4 91  1  0  0  0
  5  6  1  0  0  0
  5 26  1  0  0  0
  5 92  1  0  0  0
  6 25  1  0  0  0
  6 93  1  0  0  0
  6 94  1  0  0  0
  7  8  2  0  0  0
  7 26  1  0  0  0
  7 29  1  0  0  0
  8  9  1  0  0  0
  8 22  1  0  0  0
  9 10  1  0  0  0
  9 27  2  0  0  0
 10 11  2  0  0  0
 10 15  1  0  0  0
 11 12  1  0  0  0
 11 95  1  0  0  0
 12 13  2  0  0  0
 12 96  1  0  0  0
 13 14  1  0  0  0
 13 31  1  0  0  0
 14 15  2  0  0  0
 14 97  1  0  0  0
 15 98  1  0  0  0
 16 17  2  0  0  0
 16 21  1  0  0  0
 16 31  1  0  0  0
 17 18  1  0  0  0
 17 99  1  0  0  0
 18 19  2  0  0  0
 18100  1  0  0  0
 19 20  1  0  0  0
 19 24  1  0  0  0
 20 21  2  0  0  0
 20101  1  0  0  0
 21 23  1  0  0  0
 22 28  1  0  0  0
 22 32  2  0  0  0
 26 27  1  0  0  0
 28102  1  0  0  0
 28103  1  0  0  0
 29104  1  0  0  0
 29105  1  0  0  0
 33 34  1  0  0  0
 33 66  1  0  0  0
 33 70  2  0  0  0
 34 36  1  0  0  0
 34 59  1  0  0  0
 34106  1  0  0  0
 35 44  2  0  0  0
 35 45  1  0  0  0
 35 68  1  0  0  0
 36 56  1  0  0  0
 36107  1  0  0  0
 37 39  1  0  0  0
 37 47  1  0  0  0
 37 66  1  0  0  0
 37108  1  0  0  0
 38 43  2  0  0  0
 38 46  1  0  0  0
 38 47  1  0  0  0
 39 64  1  0  0  0
 39 67  2  0  0  0
 40 52  1  0  0  0
 40 53  2  0  0  0
 40 58  1  0  0  0
 41109  1  0  0  0
 41110  1  0  0  0
 41111  1  0  0  0
 41 48  1  0  0  0
 42 43  1  0  0  0
 42 66  1  0  0  0
 42112  1  0  0  0
 42113  1  0  0  0
 43 44  1  0  0  0
 44114  1  0  0  0
 45 46  2  0  0  0
 45115  1  0  0  0
 46116  1  0  0  0
 47117  1  0  0  0
 47118  1  0  0  0
 48 56  1  0  0  0
 48 65  1  0  0  0
 48119  1  0  0  0
 49 50  1  0  0  0
 49 53  1  0  0  0
 49 64  1  0  0  0
 49120  1  0  0  0
 50 51  1  0  0  0
 50121  1  0  0  0
 50122  1  0  0  0
 51 52  1  0  0  0
 51123  1  0  0  0
 51124  1  0  0  0
 52125  1  0  0  0
 52126  1  0  0  0
 53 54  1  0  0  0
 54 55  2  0  0  0
 54127  1  0  0  0
 55 57  1  0  0  0
 55128  1  0  0  0
 56 69  2  0  0  0
 57 58  2  0  0  0
 57129  1  0  0  0
 58130  1  0  0  0
 59 60  1  0  0  0
 59 61  1  0  0  0
 59 62  1  0  0  0
 60131  1  0  0  0
 60132  1  0  0  0
 60133  1  0  0  0
 61134  1  0  0  0
 61135  1  0  0  0
 61136  1  0  0  0
 62137  1  0  0  0
 62138  1  0  0  0
 62139  1  0  0  0
 63 65  1  0  0  0
 63140  1  0  0  0
 63141  1  0  0  0
 63142  1  0  0  0
 64143  1  0  0  0
 65144  1  0  0  0
 68 83  1  0  0  0
 71 73  2  0  0  0
 71 74  1  0  0  0
 71145  1  0  0  0
 72 73  1  0  0  0
 72 75  2  0  0  0
 72146  1  0  0  0
 73 84  1  0  0  0
 74 76  2  0  0  0
 74 77  1  0  0  0
 75 76  1  0  0  0
 75 80  1  0  0  0
 76 81  1  0  0  0
 77147  1  0  0  0
 77148  1  0  0  0
 77149  1  0  0  0
 78 81  1  0  0  0
 78150  1  0  0  0
 78151  1  0  0  0
 78152  1  0  0  0
 79153  1  0  0  0
 79154  1  0  0  0
 79155  1  0  0  0
 79 84  1  0  0  0
 80 83  1  0  0  0
 80156  1  0  0  0
 80157  1  0  0  0
 81158  1  0  0  0
 81159  1  0  0  0
 82 84  1  0  0  0
 82 85  1  0  0  0
 82160  1  0  0  0
 82161  1  0  0  0
 83162  1  0  0  0
 83163  1  0  0  0
 84164  1  0  0  0
 85165  1  0  0  0
M  ISO  4   1 100  68 101  83 101  85 100
M  END
> <chiral flag>
0

> <version>
0

> <s_m_source_file>
/data/baiqing/PycharmProjects/Reinvent-master-3.2/result/LINK_invent/BTK/process_docking_weight1_custom_sum_contain_oxygen_bond_distance_aromatic_linkinvent_7_9_3/rearranged_h_0091.sdf

> <i_m_source_file_index>
81

> <r_mmod_Potential_Energy-OPLS-2005>
116.756820678711

> <r_mmod_Stretch_Energy-OPLS-2005>
116.608757019043

> <r_mmod_Bend_Energy-OPLS-2005>
157.070205688477

> <r_mmod_Torsional_Energy-OPLS-2005>
249.06950378418

> <r_mmod_Improper_Torsional_Energy-OPLS-2005>
7.57029294967651

> <r_mmod_Van_der_Waal_Energy-OPLS-2005>
142.661468505859

> <r_mmod_Electrostatic_Energy-OPLS-2005>
-421.696350097656

> <r_mmod_Solvation_Energy-OPLS-2005>
-202.432846069336

> <b_mmod_Minimization_Converged-OPLS-2005>
0

> <r_mmod_RMS_Derivative-OPLS-2005>
1.35800743103027

$$$$
82
                    3D
 Structure written by MMmdl.
159167  0  0  1  0            999 V2000
  -30.6550  -14.6586   20.4445 C   0  0  0  0  0  0
  -30.4122  -12.4035   19.4501 C   0  0  0  0  0  0
  -29.5026  -12.5182   18.2092 C   0  0  0  0  0  0
  -28.0125  -12.4126   18.5849 C   0  0  0  0  0  0
  -27.6381  -13.2494   19.8358 C   0  0  2  0  0  0
  -28.6793  -13.1632   20.9690 C   0  0  0  0  0  0
  -25.2562  -13.8251   20.5624 C   0  0  0  0  0  0
  -24.1845  -13.0452   20.9125 C   0  0  0  0  0  0
  -24.6450  -11.6966   20.8678 C   0  0  0  0  0  0
  -23.9089  -10.4355   21.0380 C   0  0  0  0  0  0
  -24.3655   -9.4281   21.9154 C   0  0  0  0  0  0
  -23.6342   -8.2327   22.0742 C   0  0  0  0  0  0
  -22.4325   -8.0316   21.3534 C   0  0  0  0  0  0
  -21.9954   -9.0276   20.4622 C   0  0  0  0  0  0
  -22.7265  -10.2177   20.3018 C   0  0  0  0  0  0
  -21.6892   -6.0745   22.5270 C   0  0  0  0  0  0
  -21.4041   -6.5673   23.8170 C   0  0  0  0  0  0
  -21.3660   -5.6833   24.9170 C   0  0  0  0  0  0
  -21.6056   -4.3078   24.7235 C   0  0  0  0  0  0
  -21.8839   -3.8155   23.4369 C   0  0  0  0  0  0
  -21.9239   -4.6983   22.3423 C   0  0  0  0  0  0
  -22.7883  -13.5211   21.1897 C   0  0  0  0  0  0
  -22.1711   -4.2156   21.0989 F   0  0  0  0  0  0
  -21.5624   -3.4565   25.7745 F   0  0  0  0  0  0
  -29.9901  -13.4591   20.3912 N   0  0  0  0  0  0
  -26.2945  -12.9470   20.3130 N   0  0  0  0  0  0
  -25.9371  -11.6587   20.5613 N   0  0  0  0  0  0
  -22.0637  -12.8041   22.0429 N   0  0  0  0  0  0
  -25.4265  -15.1978   20.4117 N   0  0  0  0  0  0
  -31.8893  -14.6679   20.4025 O   0  0  0  0  0  0
  -21.6687   -6.8916   21.4213 O   0  0  0  0  0  0
  -22.3499  -14.5507   20.6805 O   0  0  0  0  0  0
  -24.6196  -31.8609   23.1934 C   0  0  0  0  0  0
  -25.8981  -32.4799   23.8366 C   0  0  1  0  0  0
  -27.1981  -27.2766   20.1527 C   0  0  0  0  0  0
  -25.5744  -33.8593   24.2334 N   0  0  0  0  0  0
  -23.4286  -30.4735   21.5343 C   0  0  2  0  0  0
  -24.8839  -28.9421   20.0860 C   0  0  0  0  0  0
  -22.7537  -29.4576   22.4927 C   0  0  0  0  0  0
  -18.0257  -28.1335   22.8535 C   0  0  0  0  0  0
  -24.1468  -36.7303   23.2693 C   0  0  0  0  0  0
  -25.9665  -30.7738   21.3777 C   0  0  0  0  0  0
  -26.0413  -29.3942   20.7364 C   0  0  0  0  0  0
  -27.2008  -28.5616   20.7838 C   0  0  0  0  0  0
  -26.0455  -26.9293   19.4136 C   0  0  0  0  0  0
  -24.8896  -27.7229   19.4013 C   0  0  0  0  0  0
  -23.6460  -29.8044   20.1491 C   0  0  0  0  0  0
  -25.4087  -36.3130   24.0396 C   0  0  1  0  0  0
  -20.5880  -28.3645   23.1318 C   0  0  2  0  0  0
  -20.6688  -26.9355   22.5446 C   0  0  0  0  0  0
  -19.5668  -26.6351   21.5243 C   0  0  0  0  0  0
  -18.1862  -26.7889   22.1683 C   0  0  0  0  0  0
  -19.1523  -28.8823   23.2924 C   0  0  0  0  0  0
  -18.9416  -30.1414   23.8972 C   0  0  0  0  0  0
  -17.6407  -30.6559   24.0559 C   0  0  0  0  0  0
  -25.9018  -34.9490   23.5235 C   0  0  0  0  0  0
  -16.5320  -29.9059   23.6267 C   0  0  0  0  0  0
  -16.7249  -28.6441   23.0394 C   0  0  0  0  0  0
  -26.4410  -31.6506   25.0635 C   0  0  0  0  0  0
  -25.3612  -31.3307   26.1269 C   0  0  0  0  0  0
  -27.0295  -30.3006   24.5912 C   0  0  0  0  0  0
  -27.6164  -32.4096   25.7236 C   0  0  0  0  0  0
  -27.5615  -37.1769   24.8528 C   0  0  0  0  0  0
  -21.4245  -29.2973   22.3724 N   0  0  0  0  0  0
  -26.4333  -37.3763   23.9447 N   0  0  0  0  0  0
  -24.6907  -31.0554   22.0920 N   0  0  0  0  0  0
  -23.4280  -28.8140   23.3034 O   0  0  0  0  0  0
  -28.2335  -26.3315   20.2843 O   0  0  0  0  0  0
  -26.5716  -34.8968   22.4884 O   0  0  0  0  0  0
  -23.5324  -32.1500   23.7139 O   0  0  0  0  0  0
  -30.2976  -16.0781   18.4562 C   0  0  0  0  0  0
  -29.5997  -18.3721   18.5146 C   0  0  0  0  0  0
  -30.1078  -17.2855   17.7860 C   0  0  0  0  0  0
  -30.0272  -15.9362   19.8314 C   0  0  0  0  0  0
  -29.2502  -18.2245   19.8753 C   0  0  0  0  0  0
  -30.4693  -17.3801   16.3094 C   0  0  0  0  0  0
  -28.5840  -23.9015   22.3987 C   0  0  0  0  0  0
  -28.4248  -19.4057   20.5308 C   0  0  0  0  0  0
  -29.0405  -20.8921   20.6715 C   0  0  0  0  0  0
  -28.0977  -22.1950   20.5149 C   0  0  0  0  0  0
  -27.8451  -24.8886   20.1618 C   0  0  0  0  0  0
  -28.6306  -23.6810   20.8662 C   0  0  1  0  0  0
  -29.4925  -17.0178   20.5297 N   0  0  0  0  0  0
  -31.4555  -12.5249   19.1519 H   0  0  0  0  0  0
  -30.3300  -11.4244   19.9221 H   0  0  0  0  0  0
  -29.7582  -11.7666   17.4591 H   0  0  0  0  0  0
  -29.6772  -13.4770   17.7257 H   0  0  0  0  0  0
  -27.7777  -11.3585   18.7266 H   0  0  0  0  0  0
  -27.4068  -12.7539   17.7420 H   0  0  0  0  0  0
  -27.6375  -14.2881   19.4979 H   0  0  0  0  0  0
  -28.6917  -12.1817   21.4480 H   0  0  0  0  0  0
  -28.4352  -13.8837   21.7502 H   0  0  0  0  0  0
  -25.2867   -9.5774   22.4648 H   0  0  0  0  0  0
  -24.0095   -7.4742   22.7472 H   0  0  0  0  0  0
  -21.0914   -8.8788   19.8914 H   0  0  0  0  0  0
  -22.3741  -10.9691   19.6094 H   0  0  0  0  0  0
  -21.1984   -7.6175   23.9659 H   0  0  0  0  0  0
  -21.1449   -6.0584   25.9052 H   0  0  0  0  0  0
  -22.0600   -2.7607   23.2865 H   0  0  0  0  0  0
  -22.4414  -11.9646   22.4538 H   0  0  0  0  0  0
  -21.1242  -13.0872   22.2789 H   0  0  0  0  0  0
  -24.6583  -15.8533   20.5199 H   0  0  0  0  0  0
  -26.2885  -15.6411   20.1145 H   0  0  0  0  0  0
  -26.7083  -32.5555   23.1186 H   0  0  0  0  0  0
  -24.9549  -33.9695   25.0236 H   0  0  0  0  0  0
  -22.7262  -31.2899   21.3737 H   0  0  0  0  0  0
  -23.3760  -35.9598   23.3351 H   0  0  0  0  0  0
  -24.3633  -36.8920   22.2122 H   0  0  0  0  0  0
  -23.7142  -37.6469   23.6727 H   0  0  0  0  0  0
  -26.0931  -31.5120   20.5865 H   0  0  0  0  0  0
  -26.8565  -30.8626   21.9867 H   0  0  0  0  0  0
  -28.0602  -28.8603   21.3720 H   0  0  0  0  0  0
  -26.0068  -26.0068   18.8577 H   0  0  0  0  0  0
  -24.0171  -27.3883   18.8547 H   0  0  0  0  0  0
  -23.7458  -30.5643   19.3748 H   0  0  0  0  0  0
  -22.7797  -29.1968   19.8730 H   0  0  0  0  0  0
  -25.1235  -36.2109   25.0873 H   0  0  0  0  0  0
  -20.9957  -28.3111   24.1464 H   0  0  0  0  0  0
  -20.5450  -26.2257   23.3630 H   0  0  0  0  0  0
  -21.6550  -26.7256   22.1334 H   0  0  0  0  0  0
  -19.6786  -25.6276   21.1220 H   0  0  0  0  0  0
  -19.6559  -27.3205   20.6798 H   0  0  0  0  0  0
  -17.4110  -26.6690   21.4092 H   0  0  0  0  0  0
  -18.0243  -26.0018   22.9065 H   0  0  0  0  0  0
  -19.7867  -30.7197   24.2431 H   0  0  0  0  0  0
  -17.4923  -31.6241   24.5133 H   0  0  0  0  0  0
  -15.5307  -30.2988   23.7448 H   0  0  0  0  0  0
  -15.8663  -28.0709   22.7157 H   0  0  0  0  0  0
  -24.6111  -30.6385   25.7390 H   0  0  0  0  0  0
  -24.8309  -32.2181   26.4692 H   0  0  0  0  0  0
  -25.7900  -30.8465   27.0051 H   0  0  0  0  0  0
  -26.2782  -29.6599   24.1241 H   0  0  0  0  0  0
  -27.4511  -29.7369   25.4249 H   0  0  0  0  0  0
  -27.8428  -30.4444   23.8800 H   0  0  0  0  0  0
  -27.3194  -33.3659   26.1531 H   0  0  0  0  0  0
  -28.3938  -32.6110   24.9857 H   0  0  0  0  0  0
  -28.0813  -31.8257   26.5194 H   0  0  0  0  0  0
  -28.2618  -38.0083   24.7639 H   0  0  0  0  0  0
  -28.1143  -36.2634   24.6305 H   0  0  0  0  0  0
  -27.2381  -37.1339   25.8944 H   0  0  0  0  0  0
  -20.9459  -29.8817   21.7033 H   0  0  0  0  0  0
  -26.0294  -38.2887   24.1364 H   0  0  0  0  0  0
  -30.7573  -15.2564   17.9294 H   0  0  0  0  0  0
  -29.4356  -19.3156   18.0116 H   0  0  0  0  0  0
  -31.4959  -17.7290   16.1794 H   0  0  0  0  0  0
  -29.8052  -18.0348   15.7428 H   0  0  0  0  0  0
  -30.3998  -16.3962   15.8427 H   0  0  0  0  0  0
  -29.2377  -23.2198   22.9393 H   0  0  0  0  0  0
  -27.5791  -23.7478   22.8016 H   0  0  0  0  0  0
  -28.8909  -24.9158   22.6634 H   0  0  0  0  0  0
  -28.0473  -19.0709   21.4984 H   0  0  0  0  0  0
  -27.5292  -19.4817   19.9129 H   0  0  0  0  0  0
  -29.8279  -20.9951   19.9258 H   0  0  0  0  0  0
  -29.5405  -20.9332   21.6360 H   0  0  0  0  0  0
  -27.1853  -22.0418   21.0952 H   0  0  0  0  0  0
  -27.7532  -22.2108   19.4799 H   0  0  0  0  0  0
  -26.8143  -24.7799   20.5112 H   0  0  0  0  0  0
  -27.8121  -24.6766   19.0905 H   0  0  0  0  0  0
  -29.6730  -23.7532   20.5516 H   0  0  0  0  0  0
  1 25  1  0  0  0
  1 30  2  0  0  0
  1 74  1  0  0  0
  2  3  1  0  0  0
  2 25  1  0  0  0
  2 84  1  0  0  0
  2 85  1  0  0  0
  3  4  1  0  0  0
  3 86  1  0  0  0
  3 87  1  0  0  0
  4  5  1  0  0  0
  4 88  1  0  0  0
  4 89  1  0  0  0
  5  6  1  0  0  0
  5 26  1  0  0  0
  5 90  1  0  0  0
  6 25  1  0  0  0
  6 91  1  0  0  0
  6 92  1  0  0  0
  7  8  2  0  0  0
  7 26  1  0  0  0
  7 29  1  0  0  0
  8  9  1  0  0  0
  8 22  1  0  0  0
  9 10  1  0  0  0
  9 27  2  0  0  0
 10 11  2  0  0  0
 10 15  1  0  0  0
 11 12  1  0  0  0
 11 93  1  0  0  0
 12 13  2  0  0  0
 12 94  1  0  0  0
 13 14  1  0  0  0
 13 31  1  0  0  0
 14 15  2  0  0  0
 14 95  1  0  0  0
 15 96  1  0  0  0
 16 17  2  0  0  0
 16 21  1  0  0  0
 16 31  1  0  0  0
 17 18  1  0  0  0
 17 97  1  0  0  0
 18 19  2  0  0  0
 18 98  1  0  0  0
 19 20  1  0  0  0
 19 24  1  0  0  0
 20 21  2  0  0  0
 20 99  1  0  0  0
 21 23  1  0  0  0
 22 28  1  0  0  0
 22 32  2  0  0  0
 26 27  1  0  0  0
 28100  1  0  0  0
 28101  1  0  0  0
 29102  1  0  0  0
 29103  1  0  0  0
 33 34  1  0  0  0
 33 66  1  0  0  0
 33 70  2  0  0  0
 34 36  1  0  0  0
 34 59  1  0  0  0
 34104  1  0  0  0
 35 44  2  0  0  0
 35 45  1  0  0  0
 35 68  1  0  0  0
 36 56  1  0  0  0
 36105  1  0  0  0
 37 39  1  0  0  0
 37 47  1  0  0  0
 37 66  1  0  0  0
 37106  1  0  0  0
 38 43  2  0  0  0
 38 46  1  0  0  0
 38 47  1  0  0  0
 39 64  1  0  0  0
 39 67  2  0  0  0
 40 52  1  0  0  0
 40 53  2  0  0  0
 40 58  1  0  0  0
 41107  1  0  0  0
 41108  1  0  0  0
 41109  1  0  0  0
 41 48  1  0  0  0
 42 43  1  0  0  0
 42 66  1  0  0  0
 42110  1  0  0  0
 42111  1  0  0  0
 43 44  1  0  0  0
 44112  1  0  0  0
 45 46  2  0  0  0
 45113  1  0  0  0
 46114  1  0  0  0
 47115  1  0  0  0
 47116  1  0  0  0
 48 56  1  0  0  0
 48 65  1  0  0  0
 48117  1  0  0  0
 49 50  1  0  0  0
 49 53  1  0  0  0
 49 64  1  0  0  0
 49118  1  0  0  0
 50 51  1  0  0  0
 50119  1  0  0  0
 50120  1  0  0  0
 51 52  1  0  0  0
 51121  1  0  0  0
 51122  1  0  0  0
 52123  1  0  0  0
 52124  1  0  0  0
 53 54  1  0  0  0
 54 55  2  0  0  0
 54125  1  0  0  0
 55 57  1  0  0  0
 55126  1  0  0  0
 56 69  2  0  0  0
 57 58  2  0  0  0
 57127  1  0  0  0
 58128  1  0  0  0
 59 60  1  0  0  0
 59 61  1  0  0  0
 59 62  1  0  0  0
 60129  1  0  0  0
 60130  1  0  0  0
 60131  1  0  0  0
 61132  1  0  0  0
 61133  1  0  0  0
 61134  1  0  0  0
 62135  1  0  0  0
 62136  1  0  0  0
 62137  1  0  0  0
 63 65  1  0  0  0
 63138  1  0  0  0
 63139  1  0  0  0
 63140  1  0  0  0
 64141  1  0  0  0
 65142  1  0  0  0
 68 81  1  0  0  0
 71 73  2  0  0  0
 71 74  1  0  0  0
 71143  1  0  0  0
 72 73  1  0  0  0
 72 75  2  0  0  0
 72144  1  0  0  0
 73 76  1  0  0  0
 74 83  2  0  0  0
 75 78  1  0  0  0
 75 83  1  0  0  0
 76145  1  0  0  0
 76146  1  0  0  0
 76147  1  0  0  0
 77148  1  0  0  0
 77149  1  0  0  0
 77150  1  0  0  0
 77 82  1  0  0  0
 78 79  1  0  0  0
 78151  1  0  0  0
 78152  1  0  0  0
 79 80  1  0  0  0
 79153  1  0  0  0
 79154  1  0  0  0
 80 82  1  0  0  0
 80155  1  0  0  0
 80156  1  0  0  0
 81 82  1  0  0  0
 81157  1  0  0  0
 81158  1  0  0  0
 82159  1  0  0  0
M  ISO  4   1 100  68 101  74 100  81 101
M  END
> <chiral flag>
0

> <version>
0

> <s_m_source_file>
/data/baiqing/PycharmProjects/Reinvent-master-3.2/result/LINK_invent/BTK/process_docking_weight1_custom_sum_contain_oxygen_bond_distance_aromatic_linkinvent_7_9_3/rearranged_h_0091.sdf

> <i_m_source_file_index>
82

> <r_mmod_Potential_Energy-OPLS-2005>
248.967346191406

> <r_mmod_Stretch_Energy-OPLS-2005>
107.756355285645

> <r_mmod_Bend_Energy-OPLS-2005>
170.447174072266

> <r_mmod_Torsional_Energy-OPLS-2005>
262.066772460938

> <r_mmod_Improper_Torsional_Energy-OPLS-2005>
27.11474609375

> <r_mmod_Van_der_Waal_Energy-OPLS-2005>
140.156646728516

> <r_mmod_Electrostatic_Energy-OPLS-2005>
-356.661376953125

> <r_mmod_Solvation_Energy-OPLS-2005>
-194.269027709961

> <b_mmod_Minimization_Converged-OPLS-2005>
0

> <r_mmod_RMS_Derivative-OPLS-2005>
9.204026222229

$$$$
83
                    3D
 Structure written by MMmdl.
175183  0  0  1  0            999 V2000
  -30.8726  -14.2666   20.6777 C   0  0  0  0  0  0
  -30.3802  -12.2296   19.3871 C   0  0  0  0  0  0
  -29.4668  -12.5245   18.1856 C   0  0  0  0  0  0
  -27.9937  -12.4016   18.6094 C   0  0  0  0  0  0
  -27.6711  -13.2177   19.8883 C   0  0  2  0  0  0
  -28.7176  -12.9605   20.9988 C   0  0  0  0  0  0
  -25.2602  -13.8205   20.5702 C   0  0  0  0  0  0
  -24.1833  -13.0423   20.9190 C   0  0  0  0  0  0
  -24.6421  -11.6920   20.8726 C   0  0  0  0  0  0
  -23.9082  -10.4287   21.0389 C   0  0  0  0  0  0
  -24.3610   -9.4207   21.9185 C   0  0  0  0  0  0
  -23.6279   -8.2239   22.0770 C   0  0  0  0  0  0
  -22.4271   -8.0267   21.3546 C   0  0  0  0  0  0
  -21.9907   -9.0259   20.4660 C   0  0  0  0  0  0
  -22.7247  -10.2133   20.3062 C   0  0  0  0  0  0
  -21.6839   -6.0719   22.5290 C   0  0  0  0  0  0
  -21.4003   -6.5625   23.8223 C   0  0  0  0  0  0
  -21.3667   -5.6781   24.9198 C   0  0  0  0  0  0
  -21.6060   -4.3055   24.7243 C   0  0  0  0  0  0
  -21.8811   -3.8148   23.4361 C   0  0  0  0  0  0
  -21.9187   -4.6960   22.3405 C   0  0  0  0  0  0
  -22.7873  -13.5253   21.1881 C   0  0  0  0  0  0
  -22.1659   -4.2156   21.0986 F   0  0  0  0  0  0
  -21.5642   -3.4531   25.7746 F   0  0  0  0  0  0
  -30.0691  -13.1908   20.4557 N   0  0  0  0  0  0
  -26.3078  -12.9404   20.3473 N   0  0  0  0  0  0
  -25.9368  -11.6535   20.5802 N   0  0  0  0  0  0
  -22.0481  -12.8213   22.0407 N   0  0  0  0  0  0
  -25.4271  -15.1895   20.4075 N   0  0  0  0  0  0
  -31.8544  -14.5140   19.9746 O   0  0  0  0  0  0
  -21.6631   -6.8871   21.4251 O   0  0  0  0  0  0
  -22.3577  -14.5576   20.6789 O   0  0  0  0  0  0
  -24.6197  -31.8714   23.2128 C   0  0  0  0  0  0
  -25.9057  -32.4870   23.8397 C   0  0  1  0  0  0
  -27.2163  -27.4626   20.0796 C   0  0  0  0  0  0
  -25.5962  -33.8658   24.2326 N   0  0  0  0  0  0
  -23.3947  -30.5060   21.5599 C   0  0  2  0  0  0
  -24.8285  -28.9734   20.1280 C   0  0  0  0  0  0
  -22.7424  -29.4742   22.5102 C   0  0  0  0  0  0
  -18.0263  -28.1445   22.8418 C   0  0  0  0  0  0
  -24.1486  -36.7338   23.2604 C   0  0  0  0  0  0
  -25.9224  -30.8523   21.3512 C   0  0  0  0  0  0
  -25.9933  -29.4851   20.7096 C   0  0  0  0  0  0
  -27.1926  -28.7385   20.6766 C   0  0  0  0  0  0
  -26.0124  -26.9464   19.5421 C   0  0  0  0  0  0
  -24.8314  -27.6970   19.5467 C   0  0  0  0  0  0
  -23.5903  -29.8376   20.1749 C   0  0  0  0  0  0
  -25.4117  -36.3138   24.0283 C   0  0  1  0  0  0
  -20.5835  -28.3727   23.1330 C   0  0  2  0  0  0
  -20.6827  -26.9485   22.5436 C   0  0  0  0  0  0
  -19.5784  -26.6442   21.5249 C   0  0  0  0  0  0
  -18.1920  -26.8000   22.1577 C   0  0  0  0  0  0
  -19.1503  -28.8892   23.2856 C   0  0  0  0  0  0
  -18.9437  -30.1515   23.8851 C   0  0  0  0  0  0
  -17.6440  -30.6617   24.0565 C   0  0  0  0  0  0
  -25.9075  -34.9497   23.5079 C   0  0  0  0  0  0
  -16.5328  -29.9098   23.6381 C   0  0  0  0  0  0
  -16.7256  -28.6573   23.0264 C   0  0  0  0  0  0
  -26.4378  -31.6643   25.0750 C   0  0  0  0  0  0
  -25.3575  -31.3658   26.1461 C   0  0  0  0  0  0
  -27.0247  -30.3160   24.6063 C   0  0  0  0  0  0
  -27.6062  -32.4253   25.7438 C   0  0  0  0  0  0
  -27.5567  -37.1855   24.8431 C   0  0  0  0  0  0
  -21.4163  -29.3063   22.3763 N   0  0  0  0  0  0
  -26.4266  -37.3860   23.9406 N   0  0  0  0  0  0
  -24.6653  -31.0912   22.0994 N   0  0  0  0  0  0
  -23.4218  -28.8304   23.3150 O   0  0  0  0  0  0
  -28.4118  -26.7775   20.0252 O   0  0  0  0  0  0
  -26.5614  -34.8902   22.4624 O   0  0  0  0  0  0
  -23.5407  -32.1342   23.7645 O   0  0  0  0  0  0
  -29.9317  -19.3238   19.2559 C   0  0  0  0  0  0
  -30.7890  -18.6176   20.0622 C   0  0  0  0  0  0
  -31.1633  -20.7920   20.3648 C   0  0  0  0  0  0
  -33.3102  -21.9613   20.8578 C   0  0  0  0  0  0
  -31.2514  -22.2472   22.3647 C   0  0  0  0  0  0
  -25.9976  -23.3763   19.1030 C   0  0  0  0  0  0
  -30.8578  -14.5963   23.0597 C   0  0  0  0  0  0
  -31.0214  -17.1557   20.2208 C   0  0  0  0  0  0
  -28.3002  -22.3070   19.5101 C   0  0  0  0  0  0
  -28.1407  -24.7203   18.6002 C   0  0  0  0  0  0
  -29.5252  -21.7704   18.7459 C   0  0  0  0  0  0
  -30.4787  -16.5609   21.5552 C   0  0  0  0  0  0
  -28.3555  -25.3531   19.9982 C   0  0  0  0  0  0
  -31.7729  -22.0312   20.9346 C   0  0  0  0  0  0
  -27.4817  -23.3195   18.6738 C   0  0  2  0  0  0
  -30.1876  -20.6593   19.4502 N   0  0  0  0  0  0
  -31.5205  -19.5586   20.7269 N   0  3  0  0  0  0
  -30.5540  -15.0817   21.7049 N   0  0  0  0  0  0
  -31.4279  -12.2472   19.0814 H   0  0  0  0  0  0
  -30.2030  -11.2132   19.7449 H   0  0  0  0  0  0
  -29.6751  -11.8248   17.3741 H   0  0  0  0  0  0
  -29.6690  -13.5222   17.7913 H   0  0  0  0  0  0
  -27.7851  -11.3423   18.7793 H   0  0  0  0  0  0
  -27.3424  -12.7119   17.7917 H   0  0  0  0  0  0
  -27.7265  -14.2724   19.6213 H   0  0  0  0  0  0
  -28.6437  -11.9301   21.3469 H   0  0  0  0  0  0
  -28.5013  -13.5703   21.8746 H   0  0  0  0  0  0
  -25.2738   -9.5695   22.4794 H   0  0  0  0  0  0
  -23.9989   -7.4642   22.7494 H   0  0  0  0  0  0
  -21.0834   -8.8786   19.8964 H   0  0  0  0  0  0
  -22.3696  -10.9681   19.6191 H   0  0  0  0  0  0
  -21.1970   -7.6138   23.9746 H   0  0  0  0  0  0
  -21.1508   -6.0503   25.9101 H   0  0  0  0  0  0
  -22.0579   -2.7607   23.2861 H   0  0  0  0  0  0
  -22.4001  -11.9790   22.4678 H   0  0  0  0  0  0
  -21.1178  -13.1358   22.2711 H   0  0  0  0  0  0
  -24.6574  -15.8406   20.5202 H   0  0  0  0  0  0
  -26.2841  -15.6340   20.1043 H   0  0  0  0  0  0
  -26.7185  -32.5536   23.1214 H   0  0  0  0  0  0
  -25.0252  -33.9776   25.0568 H   0  0  0  0  0  0
  -22.6750  -31.3170   21.4340 H   0  0  0  0  0  0
  -23.3727  -35.9687   23.3303 H   0  0  0  0  0  0
  -24.3543  -36.8958   22.2005 H   0  0  0  0  0  0
  -23.7264  -37.6538   23.6653 H   0  0  0  0  0  0
  -26.0071  -31.6098   20.5692 H   0  0  0  0  0  0
  -26.8273  -30.9234   21.9430 H   0  0  0  0  0  0
  -28.1049  -29.1374   21.0969 H   0  0  0  0  0  0
  -25.9456  -25.9718   19.1023 H   0  0  0  0  0  0
  -23.9319  -27.2752   19.1198 H   0  0  0  0  0  0
  -23.6926  -30.6043   19.4085 H   0  0  0  0  0  0
  -22.7144  -29.2563   19.8837 H   0  0  0  0  0  0
  -25.1308  -36.1984   25.0771 H   0  0  0  0  0  0
  -20.9818  -28.3395   24.1494 H   0  0  0  0  0  0
  -20.5852  -26.2340   23.3622 H   0  0  0  0  0  0
  -21.6686  -26.7712   22.1129 H   0  0  0  0  0  0
  -19.6968  -25.6355   21.1256 H   0  0  0  0  0  0
  -19.6737  -27.3261   20.6785 H   0  0  0  0  0  0
  -17.4248  -26.6714   21.3926 H   0  0  0  0  0  0
  -18.0272  -26.0170   22.8988 H   0  0  0  0  0  0
  -19.7929  -30.7343   24.2183 H   0  0  0  0  0  0
  -17.5011  -31.6275   24.5171 H   0  0  0  0  0  0
  -15.5302  -30.2912   23.7883 H   0  0  0  0  0  0
  -15.8666  -28.0953   22.6875 H   0  0  0  0  0  0
  -24.5874  -30.6925   25.7747 H   0  0  0  0  0  0
  -24.8521  -32.2709   26.4843 H   0  0  0  0  0  0
  -25.7770  -30.8877   27.0327 H   0  0  0  0  0  0
  -26.2868  -29.6949   24.1025 H   0  0  0  0  0  0
  -27.3985  -29.7401   25.4537 H   0  0  0  0  0  0
  -27.8636  -30.4506   23.9225 H   0  0  0  0  0  0
  -27.2935  -33.3664   26.1937 H   0  0  0  0  0  0
  -28.3839  -32.6635   25.0186 H   0  0  0  0  0  0
  -28.0737  -31.8392   26.5329 H   0  0  0  0  0  0
  -28.2676  -38.0110   24.7645 H   0  0  0  0  0  0
  -28.1019  -36.2693   24.6162 H   0  0  0  0  0  0
  -27.2262  -37.1399   25.8818 H   0  0  0  0  0  0
  -20.9403  -29.8705   21.6875 H   0  0  0  0  0  0
  -26.0155  -38.2923   24.1489 H   0  0  0  0  0  0
  -29.1955  -18.9752   18.5471 H   0  0  0  0  0  0
  -33.6389  -21.7531   19.8376 H   0  0  0  0  0  0
  -33.7225  -21.1826   21.4984 H   0  0  0  0  0  0
  -33.7748  -22.9029   21.1478 H   0  0  0  0  0  0
  -30.1636  -22.3267   22.3751 H   0  0  0  0  0  0
  -31.6408  -23.1640   22.7981 H   0  0  0  0  0  0
  -31.5194  -21.4251   23.0309 H   0  0  0  0  0  0
  -25.5864  -22.3837   19.2768 H   0  0  0  0  0  0
  -25.3790  -23.8354   18.3265 H   0  0  0  0  0  0
  -25.8435  -23.9328   20.0280 H   0  0  0  0  0  0
  -30.2674  -15.1123   23.8093 H   0  0  0  0  0  0
  -31.9119  -14.7429   23.3086 H   0  0  0  0  0  0
  -30.6565  -13.5298   23.1754 H   0  0  0  0  0  0
  -32.0998  -16.9972   20.1500 H   0  0  0  0  0  0
  -30.5706  -16.6628   19.3618 H   0  0  0  0  0  0
  -28.6053  -22.7343   20.4662 H   0  0  0  0  0  0
  -27.6597  -21.4626   19.7644 H   0  0  0  0  0  0
  -29.0939  -24.6664   18.0764 H   0  0  0  0  0  0
  -27.5392  -25.3554   17.9534 H   0  0  0  0  0  0
  -30.2450  -22.5528   18.5035 H   0  0  0  0  0  0
  -29.1910  -21.3728   17.7874 H   0  0  0  0  0  0
  -29.4237  -16.8306   21.6290 H   0  0  0  0  0  0
  -30.9827  -17.0516   22.3888 H   0  0  0  0  0  0
  -29.3094  -24.9924   20.3816 H   0  0  0  0  0  0
  -27.6262  -25.0058   20.7324 H   0  0  0  0  0  0
  -31.4422  -22.8597   20.3094 H   0  0  0  0  0  0
  -27.4622  -22.9221   17.6567 H   0  0  0  0  0  0
  -32.2560  -19.3562   21.3926 H   0  0  0  0  0  0
  1 25  1  0  0  0
  1 30  2  0  0  0
  1 88  1  0  0  0
  2  3  1  0  0  0
  2 25  1  0  0  0
  2 89  1  0  0  0
  2 90  1  0  0  0
  3  4  1  0  0  0
  3 91  1  0  0  0
  3 92  1  0  0  0
  4  5  1  0  0  0
  4 93  1  0  0  0
  4 94  1  0  0  0
  5  6  1  0  0  0
  5 26  1  0  0  0
  5 95  1  0  0  0
  6 25  1  0  0  0
  6 96  1  0  0  0
  6 97  1  0  0  0
  7  8  2  0  0  0
  7 26  1  0  0  0
  7 29  1  0  0  0
  8  9  1  0  0  0
  8 22  1  0  0  0
  9 10  1  0  0  0
  9 27  2  0  0  0
 10 11  2  0  0  0
 10 15  1  0  0  0
 11 12  1  0  0  0
 11 98  1  0  0  0
 12 13  2  0  0  0
 12 99  1  0  0  0
 13 14  1  0  0  0
 13 31  1  0  0  0
 14 15  2  0  0  0
 14100  1  0  0  0
 15101  1  0  0  0
 16 17  2  0  0  0
 16 21  1  0  0  0
 16 31  1  0  0  0
 17 18  1  0  0  0
 17102  1  0  0  0
 18 19  2  0  0  0
 18103  1  0  0  0
 19 20  1  0  0  0
 19 24  1  0  0  0
 20 21  2  0  0  0
 20104  1  0  0  0
 21 23  1  0  0  0
 22 28  1  0  0  0
 22 32  2  0  0  0
 26 27  1  0  0  0
 28105  1  0  0  0
 28106  1  0  0  0
 29107  1  0  0  0
 29108  1  0  0  0
 33 34  1  0  0  0
 33 66  1  0  0  0
 33 70  2  0  0  0
 34 36  1  0  0  0
 34 59  1  0  0  0
 34109  1  0  0  0
 35 44  2  0  0  0
 35 45  1  0  0  0
 35 68  1  0  0  0
 36 56  1  0  0  0
 36110  1  0  0  0
 37 39  1  0  0  0
 37 47  1  0  0  0
 37 66  1  0  0  0
 37111  1  0  0  0
 38 43  2  0  0  0
 38 46  1  0  0  0
 38 47  1  0  0  0
 39 64  1  0  0  0
 39 67  2  0  0  0
 40 52  1  0  0  0
 40 53  2  0  0  0
 40 58  1  0  0  0
 41112  1  0  0  0
 41113  1  0  0  0
 41114  1  0  0  0
 41 48  1  0  0  0
 42 43  1  0  0  0
 42 66  1  0  0  0
 42115  1  0  0  0
 42116  1  0  0  0
 43 44  1  0  0  0
 44117  1  0  0  0
 45 46  2  0  0  0
 45118  1  0  0  0
 46119  1  0  0  0
 47120  1  0  0  0
 47121  1  0  0  0
 48 56  1  0  0  0
 48 65  1  0  0  0
 48122  1  0  0  0
 49 50  1  0  0  0
 49 53  1  0  0  0
 49 64  1  0  0  0
 49123  1  0  0  0
 50 51  1  0  0  0
 50124  1  0  0  0
 50125  1  0  0  0
 51 52  1  0  0  0
 51126  1  0  0  0
 51127  1  0  0  0
 52128  1  0  0  0
 52129  1  0  0  0
 53 54  1  0  0  0
 54 55  2  0  0  0
 54130  1  0  0  0
 55 57  1  0  0  0
 55131  1  0  0  0
 56 69  2  0  0  0
 57 58  2  0  0  0
 57132  1  0  0  0
 58133  1  0  0  0
 59 60  1  0  0  0
 59 61  1  0  0  0
 59 62  1  0  0  0
 60134  1  0  0  0
 60135  1  0  0  0
 60136  1  0  0  0
 61137  1  0  0  0
 61138  1  0  0  0
 61139  1  0  0  0
 62140  1  0  0  0
 62141  1  0  0  0
 62142  1  0  0  0
 63 65  1  0  0  0
 63143  1  0  0  0
 63144  1  0  0  0
 63145  1  0  0  0
 64146  1  0  0  0
 65147  1  0  0  0
 68 83  1  0  0  0
 71 72  2  0  0  0
 71 86  1  0  0  0
 71148  1  0  0  0
 72 78  1  0  0  0
 72 87  1  0  0  0
 73 84  1  0  0  0
 73 86  1  0  0  0
 73 87  2  0  0  0
 74149  1  0  0  0
 74150  1  0  0  0
 74151  1  0  0  0
 74 84  1  0  0  0
 75 84  1  0  0  0
 75152  1  0  0  0
 75153  1  0  0  0
 75154  1  0  0  0
 76155  1  0  0  0
 76156  1  0  0  0
 76157  1  0  0  0
 76 85  1  0  0  0
 77 88  1  0  0  0
 77158  1  0  0  0
 77159  1  0  0  0
 77160  1  0  0  0
 78 82  1  0  0  0
 78161  1  0  0  0
 78162  1  0  0  0
 79 81  1  0  0  0
 79 85  1  0  0  0
 79163  1  0  0  0
 79164  1  0  0  0
 80 83  1  0  0  0
 80 85  1  0  0  0
 80165  1  0  0  0
 80166  1  0  0  0
 81 86  1  0  0  0
 81167  1  0  0  0
 81168  1  0  0  0
 82 88  1  0  0  0
 82169  1  0  0  0
 82170  1  0  0  0
 83171  1  0  0  0
 83172  1  0  0  0
 84173  1  0  0  0
 85174  1  0  0  0
 87175  1  0  0  0
M  CHG  1  87   1
M  ISO  4   1 100  68 101  83 101  88 100
M  END
> <chiral flag>
0

> <version>
0

> <s_m_source_file>
/data/baiqing/PycharmProjects/Reinvent-master-3.2/result/LINK_invent/BTK/process_docking_weight1_custom_sum_contain_oxygen_bond_distance_aromatic_linkinvent_7_9_3/rearranged_h_0091.sdf

> <i_m_source_file_index>
83

> <r_mmod_Potential_Energy-OPLS-2005>
103.404846191406

> <r_mmod_Stretch_Energy-OPLS-2005>
36.0602607727051

> <r_mmod_Bend_Energy-OPLS-2005>
112.525848388672

> <r_mmod_Torsional_Energy-OPLS-2005>
309.797668457031

> <r_mmod_Improper_Torsional_Energy-OPLS-2005>
3.29336714744568

> <r_mmod_Van_der_Waal_Energy-OPLS-2005>
147.07209777832

> <r_mmod_Electrostatic_Energy-OPLS-2005>
-139.840148925781

> <r_mmod_Solvation_Energy-OPLS-2005>
-379.558776855469

> <b_mmod_Minimization_Converged-OPLS-2005>
0

> <r_mmod_RMS_Derivative-OPLS-2005>
8.52189445495605

$$$$
84
                    3D
 Structure written by MMmdl.
170178  0  0  1  0            999 V2000
  -30.6382  -14.4867   20.5314 C   0  0  0  0  0  0
  -30.4414  -12.2808   19.4547 C   0  0  0  0  0  0
  -29.5095  -12.4738   18.2277 C   0  0  0  0  0  0
  -28.0189  -12.3351   18.6251 C   0  0  0  0  0  0
  -27.6515  -13.1985   19.8647 C   0  0  2  0  0  0
  -28.6948  -12.9806   20.9904 C   0  0  0  0  0  0
  -25.2503  -13.8184   20.5782 C   0  0  0  0  0  0
  -24.1738  -13.0480   20.9205 C   0  0  0  0  0  0
  -24.6243  -11.6944   20.8717 C   0  0  0  0  0  0
  -23.8950  -10.4284   21.0403 C   0  0  0  0  0  0
  -24.3566   -9.4213   21.9180 C   0  0  0  0  0  0
  -23.6280   -8.2224   22.0703 C   0  0  0  0  0  0
  -22.4272   -8.0240   21.3501 C   0  0  0  0  0  0
  -21.9911   -9.0198   20.4588 C   0  0  0  0  0  0
  -22.7155  -10.2101   20.3022 C   0  0  0  0  0  0
  -21.6813   -6.0715   22.5283 C   0  0  0  0  0  0
  -21.3970   -6.5599   23.8245 C   0  0  0  0  0  0
  -21.3687   -5.6754   24.9202 C   0  0  0  0  0  0
  -21.6073   -4.3030   24.7257 C   0  0  0  0  0  0
  -21.8790   -3.8111   23.4370 C   0  0  0  0  0  0
  -21.9167   -4.6933   22.3425 C   0  0  0  0  0  0
  -22.7774  -13.5275   21.1892 C   0  0  0  0  0  0
  -22.1632   -4.2127   21.1006 F   0  0  0  0  0  0
  -21.5697   -3.4520   25.7777 F   0  0  0  0  0  0
  -30.0462  -13.2677   20.4664 N   0  0  0  0  0  0
  -26.2893  -12.9328   20.3350 N   0  0  0  0  0  0
  -25.9141  -11.6501   20.5728 N   0  0  0  0  0  0
  -22.0406  -12.8231   22.0411 N   0  0  0  0  0  0
  -25.4354  -15.1854   20.4304 N   0  0  0  0  0  0
  -31.7760  -14.7212   20.1052 O   0  0  0  0  0  0
  -21.6574   -6.8882   21.4255 O   0  0  0  0  0  0
  -22.3418  -14.5532   20.6625 O   0  0  0  0  0  0
  -24.6184  -31.8618   23.2215 C   0  0  0  0  0  0
  -25.9078  -32.4826   23.8447 C   0  0  1  0  0  0
  -27.1957  -27.3374   20.0715 C   0  0  0  0  0  0
  -25.5973  -33.8677   24.2406 N   0  0  0  0  0  0
  -23.4044  -30.4886   21.5787 C   0  0  2  0  0  0
  -24.8446  -28.9430   20.1270 C   0  0  0  0  0  0
  -22.7504  -29.4547   22.5245 C   0  0  0  0  0  0
  -18.0198  -28.1239   22.8266 C   0  0  0  0  0  0
  -24.1514  -36.7309   23.2619 C   0  0  0  0  0  0
  -25.9393  -30.7951   21.3831 C   0  0  0  0  0  0
  -26.0130  -29.4229   20.7265 C   0  0  0  0  0  0
  -27.1865  -28.6210   20.6993 C   0  0  0  0  0  0
  -25.9919  -26.8968   19.4723 C   0  0  0  0  0  0
  -24.8325  -27.6853   19.5050 C   0  0  0  0  0  0
  -23.6090  -29.8308   20.1868 C   0  0  0  0  0  0
  -25.4113  -36.3108   24.0321 C   0  0  1  0  0  0
  -20.5997  -28.3199   23.1161 C   0  0  2  0  0  0
  -20.7490  -26.9673   22.3783 C   0  0  0  0  0  0
  -19.5287  -26.2853   21.7805 C   0  0  0  0  0  0
  -18.1144  -26.8174   22.0646 C   0  0  0  0  0  0
  -19.1567  -28.8294   23.2802 C   0  0  0  0  0  0
  -18.9676  -30.0876   23.8963 C   0  0  0  0  0  0
  -17.6850  -30.6452   24.0733 C   0  0  0  0  0  0
  -25.9018  -34.9468   23.5153 C   0  0  0  0  0  0
  -16.5729  -29.9181   23.6280 C   0  0  0  0  0  0
  -16.7346  -28.6729   23.0136 C   0  0  0  0  0  0
  -26.4470  -31.6592   25.0764 C   0  0  0  0  0  0
  -25.3750  -31.3666   26.1498 C   0  0  0  0  0  0
  -27.0251  -30.3012   24.6171 C   0  0  0  0  0  0
  -27.5995  -32.4322   25.7572 C   0  0  0  0  0  0
  -27.5597  -37.1796   24.8448 C   0  0  0  0  0  0
  -21.4216  -29.3238   22.4279 N   0  0  0  0  0  0
  -26.4307  -37.3771   23.9394 N   0  0  0  0  0  0
  -24.6743  -31.0593   22.1244 N   0  0  0  0  0  0
  -23.4268  -28.7592   23.2955 O   0  0  0  0  0  0
  -28.3306  -26.5225   20.0646 O   0  0  0  0  0  0
  -26.5510  -34.8836   22.4709 O   0  0  0  0  0  0
  -23.5300  -32.1519   23.7480 O   0  0  0  0  0  0
  -28.4561  -20.0520   20.0562 C   0  0  0  0  0  0
  -27.6219  -21.1884   19.7596 C   0  0  0  0  0  0
  -26.2364  -20.9086   19.7381 C   0  0  0  0  0  0
  -27.8494  -18.8791   20.5913 C   0  0  0  0  0  0
  -25.7671  -19.9347   20.6550 C   0  0  0  0  0  0
  -24.3116  -20.1734   18.0358 C   0  0  0  0  0  0
  -22.2465  -21.1032   22.0464 C   0  0  0  0  0  0
  -28.1986  -22.5377   19.2001 C   0  0  0  0  0  0
  -25.6994  -20.7827   18.2983 C   0  0  0  0  0  0
  -28.4043  -17.4488   20.8437 C   0  0  0  0  0  0
  -24.3605  -19.8637   21.2426 C   0  0  0  0  0  0
  -23.5257  -21.1674   21.1986 C   0  0  0  0  0  0
  -27.8574  -23.8993   19.9561 C   0  0  0  0  0  0
  -29.8226  -16.9146   20.5239 C   0  0  0  0  0  0
  -28.3598  -25.2616   19.2911 C   0  0  0  0  0  0
  -26.5588  -18.9077   21.0108 N   0  0  0  0  0  0
  -29.7869  -15.4638   20.8686 N   0  0  0  0  0  0
  -31.4887  -12.3984   19.1669 H   0  0  0  0  0  0
  -30.3584  -11.2765   19.8868 H   0  0  0  0  0  0
  -29.7591  -11.7443   17.4463 H   0  0  0  0  0  0
  -29.6703  -13.4716   17.8135 H   0  0  0  0  0  0
  -27.8283  -11.2813   18.8566 H   0  0  0  0  0  0
  -27.3786  -12.6115   17.7791 H   0  0  0  0  0  0
  -27.6938  -14.2456   19.5614 H   0  0  0  0  0  0
  -28.6381  -11.9543   21.3446 H   0  0  0  0  0  0
  -28.4450  -13.5794   21.8676 H   0  0  0  0  0  0
  -25.2715   -9.5665   22.4796 H   0  0  0  0  0  0
  -23.9964   -7.4587   22.7407 H   0  0  0  0  0  0
  -21.0860   -8.8701   19.8885 H   0  0  0  0  0  0
  -22.3635  -10.9654   19.6138 H   0  0  0  0  0  0
  -21.1880   -7.6101   23.9757 H   0  0  0  0  0  0
  -21.1578   -6.0481   25.9131 H   0  0  0  0  0  0
  -22.0540   -2.7590   23.2863 H   0  0  0  0  0  0
  -22.4069  -11.9859   22.4730 H   0  0  0  0  0  0
  -21.1041  -13.1260   22.2682 H   0  0  0  0  0  0
  -24.6980  -15.8795   20.5178 H   0  0  0  0  0  0
  -26.2931  -15.5875   20.0833 H   0  0  0  0  0  0
  -26.7155  -32.5493   23.1140 H   0  0  0  0  0  0
  -25.0296  -33.9903   25.0655 H   0  0  0  0  0  0
  -22.6742  -31.2934   21.4676 H   0  0  0  0  0  0
  -23.3771  -35.9657   23.3235 H   0  0  0  0  0  0
  -24.3615  -36.8958   22.2049 H   0  0  0  0  0  0
  -23.7276  -37.6491   23.6681 H   0  0  0  0  0  0
  -26.0552  -31.5629   20.6148 H   0  0  0  0  0  0
  -26.8346  -30.8572   21.9895 H   0  0  0  0  0  0
  -28.0817  -28.9790   21.1873 H   0  0  0  0  0  0
  -25.9067  -25.9369   18.9903 H   0  0  0  0  0  0
  -23.9231  -27.3103   19.0461 H   0  0  0  0  0  0
  -23.7305  -30.6021   19.4225 H   0  0  0  0  0  0
  -22.7226  -29.2578   19.9008 H   0  0  0  0  0  0
  -25.1305  -36.1932   25.0808 H   0  0  0  0  0  0
  -20.9910  -28.1637   24.1322 H   0  0  0  0  0  0
  -21.2453  -26.2583   23.0492 H   0  0  0  0  0  0
  -21.4802  -27.0673   21.5754 H   0  0  0  0  0  0
  -19.5352  -25.2592   22.1821 H   0  0  0  0  0  0
  -19.6684  -26.1560   20.6999 H   0  0  0  0  0  0
  -17.5186  -26.0609   22.5923 H   0  0  0  0  0  0
  -17.6480  -26.9856   21.0890 H   0  0  0  0  0  0
  -19.8392  -30.6210   24.2262 H   0  0  0  0  0  0
  -17.5779  -31.6207   24.5365 H   0  0  0  0  0  0
  -15.5873  -30.3398   23.7383 H   0  0  0  0  0  0
  -15.8617  -28.1324   22.6689 H   0  0  0  0  0  0
  -24.5927  -30.7007   25.7835 H   0  0  0  0  0  0
  -24.8858  -32.2759   26.5013 H   0  0  0  0  0  0
  -25.8034  -30.8783   27.0264 H   0  0  0  0  0  0
  -26.2769  -29.6856   24.1116 H   0  0  0  0  0  0
  -27.3878  -29.7151   25.4635 H   0  0  0  0  0  0
  -27.8721  -30.4292   23.9418 H   0  0  0  0  0  0
  -27.2626  -33.3650   26.2134 H   0  0  0  0  0  0
  -28.3819  -32.6875   25.0431 H   0  0  0  0  0  0
  -28.0690  -31.8491   26.5491 H   0  0  0  0  0  0
  -28.2540  -38.0149   24.7531 H   0  0  0  0  0  0
  -28.1162  -36.2674   24.6248 H   0  0  0  0  0  0
  -27.2320  -37.1413   25.8843 H   0  0  0  0  0  0
  -20.9312  -29.9777   21.8386 H   0  0  0  0  0  0
  -26.0165  -38.2845   24.1387 H   0  0  0  0  0  0
  -29.5176  -20.0863   19.8244 H   0  0  0  0  0  0
  -24.2426  -19.9017   16.9809 H   0  0  0  0  0  0
  -23.5071  -20.8854   18.2117 H   0  0  0  0  0  0
  -24.1341  -19.2531   18.5868 H   0  0  0  0  0  0
  -21.6214  -21.9620   21.8071 H   0  0  0  0  0  0
  -22.4611  -21.1680   23.1034 H   0  0  0  0  0  0
  -21.6543  -20.1956   21.8943 H   0  0  0  0  0  0
  -27.9199  -22.6138   18.1484 H   0  0  0  0  0  0
  -29.2770  -22.4193   19.2185 H   0  0  0  0  0  0
  -26.3964  -20.0872   17.8263 H   0  0  0  0  0  0
  -25.8104  -21.6914   17.7260 H   0  0  0  0  0  0
  -27.7569  -16.7744   20.2790 H   0  0  0  0  0  0
  -28.1955  -17.2072   21.8899 H   0  0  0  0  0  0
  -24.4887  -19.5532   22.2773 H   0  0  0  0  0  0
  -23.7949  -19.0523   20.7888 H   0  0  0  0  0  0
  -24.1349  -21.9855   21.5637 H   0  0  0  0  0  0
  -23.2404  -21.4152   20.1702 H   0  0  0  0  0  0
  -28.3092  -23.8257   20.9394 H   0  0  0  0  0  0
  -26.7831  -23.9461   20.1130 H   0  0  0  0  0  0
  -30.0689  -16.9783   19.4640 H   0  0  0  0  0  0
  -30.5694  -17.4618   21.1014 H   0  0  0  0  0  0
  -27.8961  -25.4155   18.3182 H   0  0  0  0  0  0
  -29.4095  -25.1084   19.0401 H   0  0  0  0  0  0
  -28.8944  -15.1015   21.2053 H   0  0  0  0  0  0
  1 25  1  0  0  0
  1 30  2  0  0  0
  1 87  1  0  0  0
  2  3  1  0  0  0
  2 25  1  0  0  0
  2 88  1  0  0  0
  2 89  1  0  0  0
  3  4  1  0  0  0
  3 90  1  0  0  0
  3 91  1  0  0  0
  4  5  1  0  0  0
  4 92  1  0  0  0
  4 93  1  0  0  0
  5  6  1  0  0  0
  5 26  1  0  0  0
  5 94  1  0  0  0
  6 25  1  0  0  0
  6 95  1  0  0  0
  6 96  1  0  0  0
  7  8  2  0  0  0
  7 26  1  0  0  0
  7 29  1  0  0  0
  8  9  1  0  0  0
  8 22  1  0  0  0
  9 10  1  0  0  0
  9 27  2  0  0  0
 10 11  2  0  0  0
 10 15  1  0  0  0
 11 12  1  0  0  0
 11 97  1  0  0  0
 12 13  2  0  0  0
 12 98  1  0  0  0
 13 14  1  0  0  0
 13 31  1  0  0  0
 14 15  2  0  0  0
 14 99  1  0  0  0
 15100  1  0  0  0
 16 17  2  0  0  0
 16 21  1  0  0  0
 16 31  1  0  0  0
 17 18  1  0  0  0
 17101  1  0  0  0
 18 19  2  0  0  0
 18102  1  0  0  0
 19 20  1  0  0  0
 19 24  1  0  0  0
 20 21  2  0  0  0
 20103  1  0  0  0
 21 23  1  0  0  0
 22 28  1  0  0  0
 22 32  2  0  0  0
 26 27  1  0  0  0
 28104  1  0  0  0
 28105  1  0  0  0
 29106  1  0  0  0
 29107  1  0  0  0
 33 34  1  0  0  0
 33 66  1  0  0  0
 33 70  2  0  0  0
 34 36  1  0  0  0
 34 59  1  0  0  0
 34108  1  0  0  0
 35 44  2  0  0  0
 35 45  1  0  0  0
 35 68  1  0  0  0
 36 56  1  0  0  0
 36109  1  0  0  0
 37 39  1  0  0  0
 37 47  1  0  0  0
 37 66  1  0  0  0
 37110  1  0  0  0
 38 43  2  0  0  0
 38 46  1  0  0  0
 38 47  1  0  0  0
 39 64  1  0  0  0
 39 67  2  0  0  0
 40 52  1  0  0  0
 40 53  2  0  0  0
 40 58  1  0  0  0
 41111  1  0  0  0
 41112  1  0  0  0
 41113  1  0  0  0
 41 48  1  0  0  0
 42 43  1  0  0  0
 42 66  1  0  0  0
 42114  1  0  0  0
 42115  1  0  0  0
 43 44  1  0  0  0
 44116  1  0  0  0
 45 46  2  0  0  0
 45117  1  0  0  0
 46118  1  0  0  0
 47119  1  0  0  0
 47120  1  0  0  0
 48 56  1  0  0  0
 48 65  1  0  0  0
 48121  1  0  0  0
 49 50  1  0  0  0
 49 53  1  0  0  0
 49 64  1  0  0  0
 49122  1  0  0  0
 50 51  1  0  0  0
 50123  1  0  0  0
 50124  1  0  0  0
 51 52  1  0  0  0
 51125  1  0  0  0
 51126  1  0  0  0
 52127  1  0  0  0
 52128  1  0  0  0
 53 54  1  0  0  0
 54 55  2  0  0  0
 54129  1  0  0  0
 55 57  1  0  0  0
 55130  1  0  0  0
 56 69  2  0  0  0
 57 58  2  0  0  0
 57131  1  0  0  0
 58132  1  0  0  0
 59 60  1  0  0  0
 59 61  1  0  0  0
 59 62  1  0  0  0
 60133  1  0  0  0
 60134  1  0  0  0
 60135  1  0  0  0
 61136  1  0  0  0
 61137  1  0  0  0
 61138  1  0  0  0
 62139  1  0  0  0
 62140  1  0  0  0
 62141  1  0  0  0
 63 65  1  0  0  0
 63142  1  0  0  0
 63143  1  0  0  0
 63144  1  0  0  0
 64145  1  0  0  0
 65146  1  0  0  0
 68 85  1  0  0  0
 71 72  2  0  0  0
 71 74  1  0  0  0
 71147  1  0  0  0
 72 73  1  0  0  0
 72 78  1  0  0  0
 73 75  2  0  0  0
 73 79  1  0  0  0
 74 80  1  0  0  0
 74 86  2  0  0  0
 75 81  1  0  0  0
 75 86  1  0  0  0
 76 79  1  0  0  0
 76148  1  0  0  0
 76149  1  0  0  0
 76150  1  0  0  0
 77 82  1  0  0  0
 77151  1  0  0  0
 77152  1  0  0  0
 77153  1  0  0  0
 78 83  1  0  0  0
 78154  1  0  0  0
 78155  1  0  0  0
 79156  1  0  0  0
 79157  1  0  0  0
 80 84  1  0  0  0
 80158  1  0  0  0
 80159  1  0  0  0
 81 82  1  0  0  0
 81160  1  0  0  0
 81161  1  0  0  0
 82162  1  0  0  0
 82163  1  0  0  0
 83 85  1  0  0  0
 83164  1  0  0  0
 83165  1  0  0  0
 84 87  1  0  0  0
 84166  1  0  0  0
 84167  1  0  0  0
 85168  1  0  0  0
 85169  1  0  0  0
 87170  1  0  0  0
M  ISO  4   1 100  68 101  85 101  87 100
M  END
> <chiral flag>
0

> <version>
0

> <s_m_source_file>
/data/baiqing/PycharmProjects/Reinvent-master-3.2/result/LINK_invent/BTK/process_docking_weight1_custom_sum_contain_oxygen_bond_distance_aromatic_linkinvent_7_9_3/rearranged_h_0091.sdf

> <i_m_source_file_index>
84

> <r_mmod_Potential_Energy-OPLS-2005>
180.994659423828

> <r_mmod_Stretch_Energy-OPLS-2005>
72.3171615600586

> <r_mmod_Bend_Energy-OPLS-2005>
216.472579956055

> <r_mmod_Torsional_Energy-OPLS-2005>
375.838348388672

> <r_mmod_Improper_Torsional_Energy-OPLS-2005>
24.7267017364502

> <r_mmod_Van_der_Waal_Energy-OPLS-2005>
154.787322998047

> <r_mmod_Electrostatic_Energy-OPLS-2005>
-504.024322509766

> <r_mmod_Solvation_Energy-OPLS-2005>
-214.523864746094

> <b_mmod_Minimization_Converged-OPLS-2005>
0

> <r_mmod_RMS_Derivative-OPLS-2005>
20.8602504730225

$$$$
85
                    3D
 Structure written by MMmdl.
179187  0  0  1  0            999 V2000
  -30.6785  -14.4793   20.5284 C   0  0  0  0  0  0
  -30.4242  -12.3062   19.4023 C   0  0  0  0  0  0
  -29.4890  -12.5009   18.1908 C   0  0  0  0  0  0
  -28.0128  -12.3512   18.6094 C   0  0  0  0  0  0
  -27.6583  -13.1910   19.8658 C   0  0  2  0  0  0
  -28.7053  -12.9894   20.9838 C   0  0  0  0  0  0
  -25.2617  -13.8092   20.5652 C   0  0  0  0  0  0
  -24.1860  -13.0403   20.9191 C   0  0  0  0  0  0
  -24.6381  -11.6862   20.8732 C   0  0  0  0  0  0
  -23.9023  -10.4272   21.0407 C   0  0  0  0  0  0
  -24.3588   -9.4200   21.9192 C   0  0  0  0  0  0
  -23.6280   -8.2232   22.0736 C   0  0  0  0  0  0
  -22.4264   -8.0264   21.3533 C   0  0  0  0  0  0
  -21.9898   -9.0231   20.4632 C   0  0  0  0  0  0
  -22.7200  -10.2125   20.3049 C   0  0  0  0  0  0
  -21.6848   -6.0728   22.5294 C   0  0  0  0  0  0
  -21.4018   -6.5637   23.8230 C   0  0  0  0  0  0
  -21.3666   -5.6783   24.9182 C   0  0  0  0  0  0
  -21.6038   -4.3048   24.7242 C   0  0  0  0  0  0
  -21.8825   -3.8150   23.4363 C   0  0  0  0  0  0
  -21.9202   -4.6960   22.3414 C   0  0  0  0  0  0
  -22.7904  -13.5243   21.1894 C   0  0  0  0  0  0
  -22.1664   -4.2141   21.0996 F   0  0  0  0  0  0
  -21.5616   -3.4521   25.7756 F   0  0  0  0  0  0
  -30.0306  -13.2914   20.4195 N   0  0  0  0  0  0
  -26.3015  -12.9236   20.3298 N   0  0  0  0  0  0
  -25.9311  -11.6418   20.5761 N   0  0  0  0  0  0
  -22.0521  -12.8220   22.0420 N   0  0  0  0  0  0
  -25.4348  -15.1810   20.4086 N   0  0  0  0  0  0
  -31.8419  -14.6522   20.1531 O   0  0  0  0  0  0
  -21.6618   -6.8872   21.4258 O   0  0  0  0  0  0
  -22.3627  -14.5577   20.6770 O   0  0  0  0  0  0
  -24.6173  -31.8689   23.2104 C   0  0  0  0  0  0
  -25.9085  -32.4819   23.8372 C   0  0  1  0  0  0
  -27.2262  -27.4399   20.1070 C   0  0  0  0  0  0
  -25.5958  -33.8618   24.2342 N   0  0  0  0  0  0
  -23.4039  -30.4946   21.5460 C   0  0  2  0  0  0
  -24.8474  -28.9621   20.1140 C   0  0  0  0  0  0
  -22.7404  -29.4685   22.4928 C   0  0  0  0  0  0
  -18.0278  -28.1393   22.8520 C   0  0  0  0  0  0
  -24.1474  -36.7302   23.2625 C   0  0  0  0  0  0
  -25.9297  -30.8415   21.3578 C   0  0  0  0  0  0
  -26.0075  -29.4754   20.7072 C   0  0  0  0  0  0
  -27.2078  -28.7274   20.6939 C   0  0  0  0  0  0
  -26.0443  -26.9303   19.5317 C   0  0  0  0  0  0
  -24.8585  -27.6887   19.5246 C   0  0  0  0  0  0
  -23.6130  -29.8322   20.1590 C   0  0  0  0  0  0
  -25.4095  -36.3121   24.0333 C   0  0  1  0  0  0
  -20.5860  -28.3690   23.1300 C   0  0  2  0  0  0
  -20.6785  -26.9423   22.5411 C   0  0  0  0  0  0
  -19.5760  -26.6393   21.5228 C   0  0  0  0  0  0
  -18.1923  -26.7931   22.1627 C   0  0  0  0  0  0
  -19.1537  -28.8848   23.2911 C   0  0  0  0  0  0
  -18.9467  -30.1442   23.8929 C   0  0  0  0  0  0
  -17.6477  -30.6601   24.0585 C   0  0  0  0  0  0
  -25.9036  -34.9492   23.5137 C   0  0  0  0  0  0
  -16.5357  -29.9108   23.6338 C   0  0  0  0  0  0
  -16.7253  -28.6515   23.0361 C   0  0  0  0  0  0
  -26.4518  -31.6575   25.0687 C   0  0  0  0  0  0
  -25.3785  -31.3669   26.1430 C   0  0  0  0  0  0
  -27.0327  -30.3024   24.6036 C   0  0  0  0  0  0
  -27.6099  -32.4277   25.7464 C   0  0  0  0  0  0
  -27.5566  -37.1791   24.8467 C   0  0  0  0  0  0
  -21.4130  -29.3050   22.3678 N   0  0  0  0  0  0
  -26.4278  -37.3810   23.9409 N   0  0  0  0  0  0
  -24.6679  -31.0811   22.0981 N   0  0  0  0  0  0
  -23.4147  -28.8186   23.2973 O   0  0  0  0  0  0
  -28.3898  -26.6986   20.0677 O   0  0  0  0  0  0
  -26.5570  -34.8946   22.4682 O   0  0  0  0  0  0
  -23.5363  -32.1409   23.7530 O   0  0  0  0  0  0
  -29.3432  -23.4183   21.7441 C   0  0  0  0  0  0
  -29.3875  -22.0212   21.5783 C   0  0  0  0  0  0
  -28.7857  -24.2561   20.7458 C   0  0  0  0  0  0
  -28.8603  -21.4636   20.4068 C   0  0  0  0  0  0
  -28.3801  -23.6015   19.5410 C   0  0  0  0  0  0
  -29.2079  -25.8692   15.4834 C   0  0  0  0  0  0
  -27.7692  -25.9467   22.3942 C   0  0  0  0  0  0
  -30.2146  -19.8725   18.1253 C   0  0  0  0  0  0
  -28.2699  -17.2602   19.0934 C   0  0  0  0  0  0
  -30.5873  -17.0156   18.2609 C   0  0  0  0  0  0
  -28.7472  -19.9419   20.2219 C   0  0  0  0  0  0
  -27.9098  -24.2844   18.2571 C   0  0  0  0  0  0
  -28.3312  -24.6335   15.7307 C   0  0  0  0  0  0
  -28.7169  -23.8676   17.0120 C   0  0  0  0  0  0
  -30.1875  -16.9546   20.7504 C   0  0  0  0  0  0
  -28.6526  -25.7576   21.1284 C   0  0  2  0  0  0
  -29.9187  -19.2035   19.4876 C   0  0  1  0  0  0
  -29.7380  -17.6269   19.4043 C   0  0  0  0  0  0
  -28.3763  -22.2485   19.4225 N   0  0  0  0  0  0
  -29.8836  -15.5153   20.8513 N   0  0  0  0  0  0
  -31.4642  -12.4188   19.0908 H   0  0  0  0  0  0
  -30.3265  -11.2966   19.8061 H   0  0  0  0  0  0
  -29.7302  -11.7801   17.4078 H   0  0  0  0  0  0
  -29.6476  -13.4893   17.7508 H   0  0  0  0  0  0
  -27.8272  -11.2944   18.8113 H   0  0  0  0  0  0
  -27.3576  -12.6211   17.7796 H   0  0  0  0  0  0
  -27.6953  -14.2311   19.5567 H   0  0  0  0  0  0
  -28.6869  -11.9575   21.3348 H   0  0  0  0  0  0
  -28.4745  -13.6059   21.8536 H   0  0  0  0  0  0
  -25.2722   -9.5697   22.4766 H   0  0  0  0  0  0
  -23.9994   -7.4630   22.7450 H   0  0  0  0  0  0
  -21.0814   -8.8759   19.8947 H   0  0  0  0  0  0
  -22.3644  -10.9668   19.6170 H   0  0  0  0  0  0
  -21.1989   -7.6142   23.9725 H   0  0  0  0  0  0
  -21.1491   -6.0505   25.9079 H   0  0  0  0  0  0
  -22.0596   -2.7603   23.2860 H   0  0  0  0  0  0
  -22.4098  -11.9823   22.4744 H   0  0  0  0  0  0
  -21.1170  -13.1315   22.2657 H   0  0  0  0  0  0
  -24.6628  -15.8303   20.5080 H   0  0  0  0  0  0
  -26.2811  -15.6173   20.0705 H   0  0  0  0  0  0
  -26.7140  -32.5587   23.1113 H   0  0  0  0  0  0
  -25.0225  -33.9764   25.0579 H   0  0  0  0  0  0
  -22.6980  -31.3164   21.4061 H   0  0  0  0  0  0
  -23.3760  -35.9619   23.3323 H   0  0  0  0  0  0
  -24.3537  -36.8886   22.2027 H   0  0  0  0  0  0
  -23.7221  -37.6514   23.6621 H   0  0  0  0  0  0
  -26.0340  -31.6053   20.5850 H   0  0  0  0  0  0
  -26.8181  -30.8951   21.9746 H   0  0  0  0  0  0
  -28.1080  -29.1259   21.1362 H   0  0  0  0  0  0
  -26.0166  -25.9460   19.0966 H   0  0  0  0  0  0
  -23.9626  -27.2787   19.0788 H   0  0  0  0  0  0
  -23.7304  -30.6104   19.4027 H   0  0  0  0  0  0
  -22.7349  -29.2550   19.8616 H   0  0  0  0  0  0
  -25.1289  -36.1972   25.0830 H   0  0  0  0  0  0
  -21.0010  -28.3287   24.1398 H   0  0  0  0  0  0
  -20.5739  -26.2310   23.3604 H   0  0  0  0  0  0
  -21.6647  -26.7480   22.1192 H   0  0  0  0  0  0
  -19.6939  -25.6314   21.1223 H   0  0  0  0  0  0
  -19.6714  -27.3232   20.6768 H   0  0  0  0  0  0
  -17.4214  -26.6710   21.4003 H   0  0  0  0  0  0
  -18.0303  -26.0071   22.9015 H   0  0  0  0  0  0
  -19.7950  -30.7268   24.2306 H   0  0  0  0  0  0
  -17.5033  -31.6302   24.5163 H   0  0  0  0  0  0
  -15.5363  -30.3042   23.7632 H   0  0  0  0  0  0
  -15.8644  -28.0856   22.7046 H   0  0  0  0  0  0
  -24.5983  -30.6992   25.7770 H   0  0  0  0  0  0
  -24.8950  -32.2827   26.4881 H   0  0  0  0  0  0
  -25.8130  -30.8868   27.0194 H   0  0  0  0  0  0
  -26.2863  -29.6789   24.1123 H   0  0  0  0  0  0
  -27.4123  -29.7244   25.4461 H   0  0  0  0  0  0
  -27.8684  -30.4333   23.9154 H   0  0  0  0  0  0
  -27.2735  -33.3571   26.2066 H   0  0  0  0  0  0
  -28.3920  -32.6817   25.0302 H   0  0  0  0  0  0
  -28.0763  -31.8401   26.5378 H   0  0  0  0  0  0
  -28.2586  -38.0087   24.7521 H   0  0  0  0  0  0
  -28.1022  -36.2599   24.6268 H   0  0  0  0  0  0
  -27.2260  -37.1465   25.8867 H   0  0  0  0  0  0
  -20.9252  -29.8724   21.6895 H   0  0  0  0  0  0
  -26.0164  -38.2868   24.1485 H   0  0  0  0  0  0
  -29.7184  -23.8413   22.6662 H   0  0  0  0  0  0
  -29.7864  -21.3880   22.3581 H   0  0  0  0  0  0
  -28.8748  -26.4072   14.5945 H   0  0  0  0  0  0
  -30.2503  -25.5892   15.3213 H   0  0  0  0  0  0
  -29.1713  -26.5634   16.3242 H   0  0  0  0  0  0
  -28.1109  -25.3352   23.2279 H   0  0  0  0  0  0
  -26.7286  -25.6787   22.2103 H   0  0  0  0  0  0
  -27.7932  -26.9737   22.7611 H   0  0  0  0  0  0
  -30.4039  -20.9370   18.2384 H   0  0  0  0  0  0
  -29.3812  -19.7579   17.4314 H   0  0  0  0  0  0
  -31.1133  -19.4769   17.6498 H   0  0  0  0  0  0
  -28.1681  -16.2100   18.8281 H   0  0  0  0  0  0
  -27.8850  -17.8286   18.2477 H   0  0  0  0  0  0
  -27.6161  -17.4476   19.9448 H   0  0  0  0  0  0
  -30.4579  -15.9356   18.1908 H   0  0  0  0  0  0
  -31.6522  -17.2062   18.4094 H   0  0  0  0  0  0
  -30.3009  -17.3997   17.2830 H   0  0  0  0  0  0
  -27.8235  -19.7796   19.6648 H   0  0  0  0  0  0
  -28.5847  -19.4885   21.2001 H   0  0  0  0  0  0
  -27.9741  -25.3591   18.3106 H   0  0  0  0  0  0
  -26.8565  -24.0445   18.1111 H   0  0  0  0  0  0
  -28.4298  -23.9653   14.8748 H   0  0  0  0  0  0
  -27.2794  -24.9242   15.7551 H   0  0  0  0  0  0
  -28.5693  -22.8005   16.8413 H   0  0  0  0  0  0
  -29.7823  -23.9950   17.2080 H   0  0  0  0  0  0
  -29.6842  -17.4362   21.5883 H   0  0  0  0  0  0
  -31.2526  -17.1250   20.9189 H   0  0  0  0  0  0
  -29.6609  -26.0365   21.4396 H   0  0  0  0  0  0
  -30.8126  -19.3855   20.0851 H   0  0  0  0  0  0
  -28.9371  -15.2785   21.1027 H   0  0  0  0  0  0
  1 25  1  0  0  0
  1 30  2  0  0  0
  1 90  1  0  0  0
  2  3  1  0  0  0
  2 25  1  0  0  0
  2 91  1  0  0  0
  2 92  1  0  0  0
  3  4  1  0  0  0
  3 93  1  0  0  0
  3 94  1  0  0  0
  4  5  1  0  0  0
  4 95  1  0  0  0
  4 96  1  0  0  0
  5  6  1  0  0  0
  5 26  1  0  0  0
  5 97  1  0  0  0
  6 25  1  0  0  0
  6 98  1  0  0  0
  6 99  1  0  0  0
  7  8  2  0  0  0
  7 26  1  0  0  0
  7 29  1  0  0  0
  8  9  1  0  0  0
  8 22  1  0  0  0
  9 10  1  0  0  0
  9 27  2  0  0  0
 10 11  2  0  0  0
 10 15  1  0  0  0
 11 12  1  0  0  0
 11100  1  0  0  0
 12 13  2  0  0  0
 12101  1  0  0  0
 13 14  1  0  0  0
 13 31  1  0  0  0
 14 15  2  0  0  0
 14102  1  0  0  0
 15103  1  0  0  0
 16 17  2  0  0  0
 16 21  1  0  0  0
 16 31  1  0  0  0
 17 18  1  0  0  0
 17104  1  0  0  0
 18 19  2  0  0  0
 18105  1  0  0  0
 19 20  1  0  0  0
 19 24  1  0  0  0
 20 21  2  0  0  0
 20106  1  0  0  0
 21 23  1  0  0  0
 22 28  1  0  0  0
 22 32  2  0  0  0
 26 27  1  0  0  0
 28107  1  0  0  0
 28108  1  0  0  0
 29109  1  0  0  0
 29110  1  0  0  0
 33 34  1  0  0  0
 33 66  1  0  0  0
 33 70  2  0  0  0
 34 36  1  0  0  0
 34 59  1  0  0  0
 34111  1  0  0  0
 35 44  2  0  0  0
 35 45  1  0  0  0
 35 68  1  0  0  0
 36 56  1  0  0  0
 36112  1  0  0  0
 37 39  1  0  0  0
 37 47  1  0  0  0
 37 66  1  0  0  0
 37113  1  0  0  0
 38 43  2  0  0  0
 38 46  1  0  0  0
 38 47  1  0  0  0
 39 64  1  0  0  0
 39 67  2  0  0  0
 40 52  1  0  0  0
 40 53  2  0  0  0
 40 58  1  0  0  0
 41114  1  0  0  0
 41115  1  0  0  0
 41116  1  0  0  0
 41 48  1  0  0  0
 42 43  1  0  0  0
 42 66  1  0  0  0
 42117  1  0  0  0
 42118  1  0  0  0
 43 44  1  0  0  0
 44119  1  0  0  0
 45 46  2  0  0  0
 45120  1  0  0  0
 46121  1  0  0  0
 47122  1  0  0  0
 47123  1  0  0  0
 48 56  1  0  0  0
 48 65  1  0  0  0
 48124  1  0  0  0
 49 50  1  0  0  0
 49 53  1  0  0  0
 49 64  1  0  0  0
 49125  1  0  0  0
 50 51  1  0  0  0
 50126  1  0  0  0
 50127  1  0  0  0
 51 52  1  0  0  0
 51128  1  0  0  0
 51129  1  0  0  0
 52130  1  0  0  0
 52131  1  0  0  0
 53 54  1  0  0  0
 54 55  2  0  0  0
 54132  1  0  0  0
 55 57  1  0  0  0
 55133  1  0  0  0
 56 69  2  0  0  0
 57 58  2  0  0  0
 57134  1  0  0  0
 58135  1  0  0  0
 59 60  1  0  0  0
 59 61  1  0  0  0
 59 62  1  0  0  0
 60136  1  0  0  0
 60137  1  0  0  0
 60138  1  0  0  0
 61139  1  0  0  0
 61140  1  0  0  0
 61141  1  0  0  0
 62142  1  0  0  0
 62143  1  0  0  0
 62144  1  0  0  0
 63 65  1  0  0  0
 63145  1  0  0  0
 63146  1  0  0  0
 63147  1  0  0  0
 64148  1  0  0  0
 65149  1  0  0  0
 68 86  1  0  0  0
 71 72  2  0  0  0
 71 73  1  0  0  0
 71150  1  0  0  0
 72 74  1  0  0  0
 72151  1  0  0  0
 73 75  2  0  0  0
 73 86  1  0  0  0
 74 81  1  0  0  0
 74 89  2  0  0  0
 75 82  1  0  0  0
 75 89  1  0  0  0
 76 83  1  0  0  0
 76152  1  0  0  0
 76153  1  0  0  0
 76154  1  0  0  0
 77155  1  0  0  0
 77156  1  0  0  0
 77157  1  0  0  0
 77 86  1  0  0  0
 78158  1  0  0  0
 78159  1  0  0  0
 78160  1  0  0  0
 78 87  1  0  0  0
 79161  1  0  0  0
 79162  1  0  0  0
 79163  1  0  0  0
 79 88  1  0  0  0
 80 88  1  0  0  0
 80164  1  0  0  0
 80165  1  0  0  0
 80166  1  0  0  0
 81 87  1  0  0  0
 81167  1  0  0  0
 81168  1  0  0  0
 82 84  1  0  0  0
 82169  1  0  0  0
 82170  1  0  0  0
 83 84  1  0  0  0
 83171  1  0  0  0
 83172  1  0  0  0
 84173  1  0  0  0
 84174  1  0  0  0
 85 88  1  0  0  0
 85 90  1  0  0  0
 85175  1  0  0  0
 85176  1  0  0  0
 86177  1  0  0  0
 87 88  1  0  0  0
 87178  1  0  0  0
 90179  1  0  0  0
M  ISO  4   1 100  68 101  86 101  90 100
M  END
> <chiral flag>
0

> <version>
0

> <s_m_source_file>
/data/baiqing/PycharmProjects/Reinvent-master-3.2/result/LINK_invent/BTK/process_docking_weight1_custom_sum_contain_oxygen_bond_distance_aromatic_linkinvent_7_9_3/rearranged_h_0091.sdf

> <i_m_source_file_index>
85

> <r_mmod_Potential_Energy-OPLS-2005>
-102.528030395508

> <r_mmod_Stretch_Energy-OPLS-2005>
49.1029930114746

> <r_mmod_Bend_Energy-OPLS-2005>
134.331008911133

> <r_mmod_Torsional_Energy-OPLS-2005>
268.001739501953

> <r_mmod_Improper_Torsional_Energy-OPLS-2005>
5.64377069473267

> <r_mmod_Van_der_Waal_Energy-OPLS-2005>
164.861465454102

> <r_mmod_Electrostatic_Energy-OPLS-2005>
-541.005065917969

> <r_mmod_Solvation_Energy-OPLS-2005>
-198.014770507812

> <b_mmod_Minimization_Converged-OPLS-2005>
0

> <r_mmod_RMS_Derivative-OPLS-2005>
4.87273120880127

$$$$
86
                    3D
 Structure written by MMmdl.
171179  0  0  1  0            999 V2000
  -30.6682  -14.6130   20.5453 C   0  0  0  0  0  0
  -30.4165  -12.3855   19.4632 C   0  0  0  0  0  0
  -29.5016  -12.5124   18.2268 C   0  0  0  0  0  0
  -28.0261  -12.3464   18.6334 C   0  0  0  0  0  0
  -27.6459  -13.2191   19.8591 C   0  0  2  0  0  0
  -28.6823  -13.0980   20.9964 C   0  0  0  0  0  0
  -25.2494  -13.8058   20.5557 C   0  0  0  0  0  0
  -24.1783  -13.0372   20.9171 C   0  0  0  0  0  0
  -24.6368  -11.6855   20.8731 C   0  0  0  0  0  0
  -23.9038  -10.4251   21.0402 C   0  0  0  0  0  0
  -24.3586   -9.4179   21.9190 C   0  0  0  0  0  0
  -23.6272   -8.2210   22.0762 C   0  0  0  0  0  0
  -22.4259   -8.0242   21.3544 C   0  0  0  0  0  0
  -21.9880   -9.0212   20.4642 C   0  0  0  0  0  0
  -22.7206  -10.2097   20.3056 C   0  0  0  0  0  0
  -21.6833   -6.0713   22.5291 C   0  0  0  0  0  0
  -21.3989   -6.5616   23.8222 C   0  0  0  0  0  0
  -21.3664   -5.6777   24.9188 C   0  0  0  0  0  0
  -21.6056   -4.3042   24.7238 C   0  0  0  0  0  0
  -21.8816   -3.8127   23.4361 C   0  0  0  0  0  0
  -21.9179   -4.6940   22.3414 C   0  0  0  0  0  0
  -22.7825  -13.5203   21.1860 C   0  0  0  0  0  0
  -22.1647   -4.2129   21.0988 F   0  0  0  0  0  0
  -21.5665   -3.4526   25.7755 F   0  0  0  0  0  0
  -30.0012  -13.4203   20.4355 N   0  0  0  0  0  0
  -26.2943  -12.9293   20.3269 N   0  0  0  0  0  0
  -25.9297  -11.6445   20.5737 N   0  0  0  0  0  0
  -22.0446  -12.8244   22.0445 N   0  0  0  0  0  0
  -25.4200  -15.1688   20.3738 N   0  0  0  0  0  0
  -31.8111  -14.7385   20.0895 O   0  0  0  0  0  0
  -21.6618   -6.8849   21.4253 O   0  0  0  0  0  0
  -22.3519  -14.5500   20.6689 O   0  0  0  0  0  0
  -24.6243  -31.8638   23.2019 C   0  0  0  0  0  0
  -25.9106  -32.4803   23.8358 C   0  0  1  0  0  0
  -27.2281  -27.3537   20.1178 C   0  0  0  0  0  0
  -25.5931  -33.8601   24.2291 N   0  0  0  0  0  0
  -23.4162  -30.4865   21.5442 C   0  0  2  0  0  0
  -24.8621  -28.9359   20.1129 C   0  0  0  0  0  0
  -22.7476  -29.4651   22.4941 C   0  0  0  0  0  0
  -18.0314  -28.1395   22.8475 C   0  0  0  0  0  0
  -24.1494  -36.7313   23.2632 C   0  0  0  0  0  0
  -25.9514  -30.8040   21.3640 C   0  0  0  0  0  0
  -26.0277  -29.4291   20.7160 C   0  0  0  0  0  0
  -27.2169  -28.6488   20.7098 C   0  0  0  0  0  0
  -26.0480  -26.8958   19.4985 C   0  0  0  0  0  0
  -24.8718  -27.6728   19.4951 C   0  0  0  0  0  0
  -23.6307  -29.8172   20.1596 C   0  0  0  0  0  0
  -25.4116  -36.3103   24.0330 C   0  0  1  0  0  0
  -20.5908  -28.3692   23.1289 C   0  0  2  0  0  0
  -20.6806  -26.9418   22.5405 C   0  0  0  0  0  0
  -19.5767  -26.6378   21.5226 C   0  0  0  0  0  0
  -18.1949  -26.7936   22.1630 C   0  0  0  0  0  0
  -19.1563  -28.8855   23.2884 C   0  0  0  0  0  0
  -18.9485  -30.1457   23.8916 C   0  0  0  0  0  0
  -17.6478  -30.6578   24.0602 C   0  0  0  0  0  0
  -25.9044  -34.9474   23.5106 C   0  0  0  0  0  0
  -16.5378  -29.9091   23.6317 C   0  0  0  0  0  0
  -16.7304  -28.6523   23.0309 C   0  0  0  0  0  0
  -26.4491  -31.6586   25.0704 C   0  0  0  0  0  0
  -25.3752  -31.3703   26.1446 C   0  0  0  0  0  0
  -27.0302  -30.3025   24.6088 C   0  0  0  0  0  0
  -27.6055  -32.4309   25.7478 C   0  0  0  0  0  0
  -27.5579  -37.1814   24.8463 C   0  0  0  0  0  0
  -21.4196  -29.3048   22.3680 N   0  0  0  0  0  0
  -26.4289  -37.3798   23.9407 N   0  0  0  0  0  0
  -24.6834  -31.0676   22.0949 N   0  0  0  0  0  0
  -23.4219  -28.8205   23.3022 O   0  0  0  0  0  0
  -28.3531  -26.5339   20.1013 O   0  0  0  0  0  0
  -26.5603  -34.8933   22.4668 O   0  0  0  0  0  0
  -23.5417  -32.1400   23.7379 O   0  0  0  0  0  0
  -30.0661  -20.7435   20.1071 C   0  0  0  0  0  0
  -30.2559  -19.3405   19.9206 C   0  0  0  0  0  0
  -28.2586  -20.2624   21.6021 C   0  0  0  0  0  0
  -29.0495  -21.2418   20.9566 C   0  0  0  0  0  0
  -29.4420  -18.3509   20.5471 C   0  0  0  0  0  0
  -28.4129  -18.8581   21.4000 C   0  0  0  0  0  0
  -23.5345  -18.4326   22.4928 C   0  0  0  0  0  0
  -24.9648  -16.6148   23.5019 C   0  0  0  0  0  0
  -30.4732  -16.1590   22.3678 C   0  0  0  0  0  0
  -28.8698  -22.7548   21.3330 C   0  0  0  0  0  0
  -27.4242  -17.9605   22.1347 C   0  0  0  0  0  0
  -29.6031  -16.8356   20.1241 C   0  0  0  0  0  0
  -28.6142  -23.8937   20.2608 C   0  0  0  0  0  0
  -25.9524  -18.2523   21.7673 C   0  0  0  0  0  0
  -28.2953  -25.3113   20.9076 C   0  0  0  0  0  0
  -24.9549  -18.0404   22.9248 C   0  0  0  0  0  0
  -30.0070  -15.7114   21.0516 N   0  0  0  0  0  0
  -31.4624  -12.4834   19.1674 H   0  0  0  0  0  0
  -30.3275  -11.3929   19.9078 H   0  0  0  0  0  0
  -29.7677  -11.7649   17.4785 H   0  0  0  0  0  0
  -29.6505  -13.4850   17.7563 H   0  0  0  0  0  0
  -27.8647  -11.2941   18.8680 H   0  0  0  0  0  0
  -27.3734  -12.5734   17.7894 H   0  0  0  0  0  0
  -27.6591  -14.2519   19.5104 H   0  0  0  0  0  0
  -28.6805  -12.0886   21.4093 H   0  0  0  0  0  0
  -28.4225  -13.7656   21.8177 H   0  0  0  0  0  0
  -25.2705   -9.5698   22.4788 H   0  0  0  0  0  0
  -23.9991   -7.4607   22.7478 H   0  0  0  0  0  0
  -21.0819   -8.8708   19.8935 H   0  0  0  0  0  0
  -22.3638  -10.9641   19.6179 H   0  0  0  0  0  0
  -21.1953   -7.6119   23.9726 H   0  0  0  0  0  0
  -21.1498   -6.0500   25.9096 H   0  0  0  0  0  0
  -22.0585   -2.7586   23.2870 H   0  0  0  0  0  0
  -22.3974  -11.9877   22.4869 H   0  0  0  0  0  0
  -21.1072  -13.1331   22.2606 H   0  0  0  0  0  0
  -24.6666  -15.8260   20.5341 H   0  0  0  0  0  0
  -26.2943  -15.6120   20.1290 H   0  0  0  0  0  0
  -26.7181  -32.5506   23.1118 H   0  0  0  0  0  0
  -25.0145  -33.9758   25.0481 H   0  0  0  0  0  0
  -22.7090  -31.3069   21.4038 H   0  0  0  0  0  0
  -23.3753  -35.9649   23.3302 H   0  0  0  0  0  0
  -24.3573  -36.8919   22.2038 H   0  0  0  0  0  0
  -23.7247  -37.6521   23.6647 H   0  0  0  0  0  0
  -26.0684  -31.5605   20.5866 H   0  0  0  0  0  0
  -26.8382  -30.8650   21.9831 H   0  0  0  0  0  0
  -28.1139  -29.0262   21.1790 H   0  0  0  0  0  0
  -26.0414  -25.9299   19.0134 H   0  0  0  0  0  0
  -23.9805  -27.2946   19.0127 H   0  0  0  0  0  0
  -23.7528  -30.5934   19.4034 H   0  0  0  0  0  0
  -22.7494  -29.2491   19.8575 H   0  0  0  0  0  0
  -25.1296  -36.1949   25.0824 H   0  0  0  0  0  0
  -21.0035  -28.3280   24.1398 H   0  0  0  0  0  0
  -20.5751  -26.2301   23.3600 H   0  0  0  0  0  0
  -21.6667  -26.7480   22.1179 H   0  0  0  0  0  0
  -19.6922  -25.6289   21.1252 H   0  0  0  0  0  0
  -19.6691  -27.3203   20.6770 H   0  0  0  0  0  0
  -17.4227  -26.6718   21.4025 H   0  0  0  0  0  0
  -18.0322  -26.0082   22.9022 H   0  0  0  0  0  0
  -19.7966  -30.7273   24.2286 H   0  0  0  0  0  0
  -17.5033  -31.6233   24.5250 H   0  0  0  0  0  0
  -15.5374  -30.2998   23.7607 H   0  0  0  0  0  0
  -15.8717  -28.0862   22.6960 H   0  0  0  0  0  0
  -24.5960  -30.6995   25.7800 H   0  0  0  0  0  0
  -24.8907  -32.2857   26.4857 H   0  0  0  0  0  0
  -25.8110  -30.8921   27.0226 H   0  0  0  0  0  0
  -26.2827  -29.6803   24.1147 H   0  0  0  0  0  0
  -27.4068  -29.7239   25.4527 H   0  0  0  0  0  0
  -27.8678  -30.4336   23.9232 H   0  0  0  0  0  0
  -27.2674  -33.3622   26.2041 H   0  0  0  0  0  0
  -28.3879  -32.6841   25.0311 H   0  0  0  0  0  0
  -28.0713  -31.8442   26.5405 H   0  0  0  0  0  0
  -28.2609  -38.0101   24.7514 H   0  0  0  0  0  0
  -28.1062  -36.2633   24.6290 H   0  0  0  0  0  0
  -27.2300  -37.1474   25.8867 H   0  0  0  0  0  0
  -20.9376  -29.8766   21.6889 H   0  0  0  0  0  0
  -26.0170  -38.2881   24.1390 H   0  0  0  0  0  0
  -30.7225  -21.4389   19.6029 H   0  0  0  0  0  0
  -31.0432  -19.0256   19.2485 H   0  0  0  0  0  0
  -27.4943  -20.5985   22.2895 H   0  0  0  0  0  0
  -22.8449  -18.3931   23.3361 H   0  0  0  0  0  0
  -23.1550  -17.7607   21.7219 H   0  0  0  0  0  0
  -23.5032  -19.4477   22.0934 H   0  0  0  0  0  0
  -24.6205  -15.8800   22.7765 H   0  0  0  0  0  0
  -24.2999  -16.5450   24.3630 H   0  0  0  0  0  0
  -25.9576  -16.3142   23.8376 H   0  0  0  0  0  0
  -31.3639  -16.7809   22.2639 H   0  0  0  0  0  0
  -30.7320  -15.3145   23.0110 H   0  0  0  0  0  0
  -29.7213  -16.7377   22.8989 H   0  0  0  0  0  0
  -29.7494  -23.0361   21.9134 H   0  0  0  0  0  0
  -28.0482  -22.8055   22.0493 H   0  0  0  0  0  0
  -27.5767  -18.1400   23.2001 H   0  0  0  0  0  0
  -27.6349  -16.9044   21.9751 H   0  0  0  0  0  0
  -30.3004  -16.8294   19.2835 H   0  0  0  0  0  0
  -28.6529  -16.5385   19.6793 H   0  0  0  0  0  0
  -27.7830  -23.6098   19.6137 H   0  0  0  0  0  0
  -29.4883  -23.9747   19.6146 H   0  0  0  0  0  0
  -25.6689  -17.6881   20.8829 H   0  0  0  0  0  0
  -25.8456  -19.2915   21.4601 H   0  0  0  0  0  0
  -29.0265  -25.4752   21.6985 H   0  0  0  0  0  0
  -27.3393  -25.2478   21.4300 H   0  0  0  0  0  0
  -25.2464  -18.7190   23.7287 H   0  0  0  0  0  0
  1 25  1  0  0  0
  1 30  2  0  0  0
  1 87  1  0  0  0
  2  3  1  0  0  0
  2 25  1  0  0  0
  2 88  1  0  0  0
  2 89  1  0  0  0
  3  4  1  0  0  0
  3 90  1  0  0  0
  3 91  1  0  0  0
  4  5  1  0  0  0
  4 92  1  0  0  0
  4 93  1  0  0  0
  5  6  1  0  0  0
  5 26  1  0  0  0
  5 94  1  0  0  0
  6 25  1  0  0  0
  6 95  1  0  0  0
  6 96  1  0  0  0
  7  8  2  0  0  0
  7 26  1  0  0  0
  7 29  1  0  0  0
  8  9  1  0  0  0
  8 22  1  0  0  0
  9 10  1  0  0  0
  9 27  2  0  0  0
 10 11  2  0  0  0
 10 15  1  0  0  0
 11 12  1  0  0  0
 11 97  1  0  0  0
 12 13  2  0  0  0
 12 98  1  0  0  0
 13 14  1  0  0  0
 13 31  1  0  0  0
 14 15  2  0  0  0
 14 99  1  0  0  0
 15100  1  0  0  0
 16 17  2  0  0  0
 16 21  1  0  0  0
 16 31  1  0  0  0
 17 18  1  0  0  0
 17101  1  0  0  0
 18 19  2  0  0  0
 18102  1  0  0  0
 19 20  1  0  0  0
 19 24  1  0  0  0
 20 21  2  0  0  0
 20103  1  0  0  0
 21 23  1  0  0  0
 22 28  1  0  0  0
 22 32  2  0  0  0
 26 27  1  0  0  0
 28104  1  0  0  0
 28105  1  0  0  0
 29106  1  0  0  0
 29107  1  0  0  0
 33 34  1  0  0  0
 33 66  1  0  0  0
 33 70  2  0  0  0
 34 36  1  0  0  0
 34 59  1  0  0  0
 34108  1  0  0  0
 35 44  2  0  0  0
 35 45  1  0  0  0
 35 68  1  0  0  0
 36 56  1  0  0  0
 36109  1  0  0  0
 37 39  1  0  0  0
 37 47  1  0  0  0
 37 66  1  0  0  0
 37110  1  0  0  0
 38 43  2  0  0  0
 38 46  1  0  0  0
 38 47  1  0  0  0
 39 64  1  0  0  0
 39 67  2  0  0  0
 40 52  1  0  0  0
 40 53  2  0  0  0
 40 58  1  0  0  0
 41111  1  0  0  0
 41112  1  0  0  0
 41113  1  0  0  0
 41 48  1  0  0  0
 42 43  1  0  0  0
 42 66  1  0  0  0
 42114  1  0  0  0
 42115  1  0  0  0
 43 44  1  0  0  0
 44116  1  0  0  0
 45 46  2  0  0  0
 45117  1  0  0  0
 46118  1  0  0  0
 47119  1  0  0  0
 47120  1  0  0  0
 48 56  1  0  0  0
 48 65  1  0  0  0
 48121  1  0  0  0
 49 50  1  0  0  0
 49 53  1  0  0  0
 49 64  1  0  0  0
 49122  1  0  0  0
 50 51  1  0  0  0
 50123  1  0  0  0
 50124  1  0  0  0
 51 52  1  0  0  0
 51125  1  0  0  0
 51126  1  0  0  0
 52127  1  0  0  0
 52128  1  0  0  0
 53 54  1  0  0  0
 54 55  2  0  0  0
 54129  1  0  0  0
 55 57  1  0  0  0
 55130  1  0  0  0
 56 69  2  0  0  0
 57 58  2  0  0  0
 57131  1  0  0  0
 58132  1  0  0  0
 59 60  1  0  0  0
 59 61  1  0  0  0
 59 62  1  0  0  0
 60133  1  0  0  0
 60134  1  0  0  0
 60135  1  0  0  0
 61136  1  0  0  0
 61137  1  0  0  0
 61138  1  0  0  0
 62139  1  0  0  0
 62140  1  0  0  0
 62141  1  0  0  0
 63 65  1  0  0  0
 63142  1  0  0  0
 63143  1  0  0  0
 63144  1  0  0  0
 64145  1  0  0  0
 65146  1  0  0  0
 68 85  1  0  0  0
 71 72  2  0  0  0
 71 74  1  0  0  0
 71147  1  0  0  0
 72 75  1  0  0  0
 72148  1  0  0  0
 73 74  2  0  0  0
 73 76  1  0  0  0
 73149  1  0  0  0
 74 80  1  0  0  0
 75 76  2  0  0  0
 75 82  1  0  0  0
 76 81  1  0  0  0
 77150  1  0  0  0
 77151  1  0  0  0
 77152  1  0  0  0
 77 86  1  0  0  0
 78 86  1  0  0  0
 78153  1  0  0  0
 78154  1  0  0  0
 78155  1  0  0  0
 79 87  1  0  0  0
 79156  1  0  0  0
 79157  1  0  0  0
 79158  1  0  0  0
 80 83  1  0  0  0
 80159  1  0  0  0
 80160  1  0  0  0
 81 84  1  0  0  0
 81161  1  0  0  0
 81162  1  0  0  0
 82 87  1  0  0  0
 82163  1  0  0  0
 82164  1  0  0  0
 83 85  1  0  0  0
 83165  1  0  0  0
 83166  1  0  0  0
 84 86  1  0  0  0
 84167  1  0  0  0
 84168  1  0  0  0
 85169  1  0  0  0
 85170  1  0  0  0
 86171  1  0  0  0
M  ISO  4   1 100  68 101  85 101  87 100
M  END
> <chiral flag>
0

> <version>
0

> <s_m_source_file>
/data/baiqing/PycharmProjects/Reinvent-master-3.2/result/LINK_invent/BTK/process_docking_weight1_custom_sum_contain_oxygen_bond_distance_aromatic_linkinvent_7_9_3/rearranged_h_0091.sdf

> <i_m_source_file_index>
86

> <r_mmod_Potential_Energy-OPLS-2005>
214.432510375977

> <r_mmod_Stretch_Energy-OPLS-2005>
75.3520812988281

> <r_mmod_Bend_Energy-OPLS-2005>
154.911712646484

> <r_mmod_Torsional_Energy-OPLS-2005>
309.402740478516

> <r_mmod_Improper_Torsional_Energy-OPLS-2005>
7.23052549362183

> <r_mmod_Van_der_Waal_Energy-OPLS-2005>
130.31721496582

> <r_mmod_Electrostatic_Energy-OPLS-2005>
-323.066436767578

> <r_mmod_Solvation_Energy-OPLS-2005>
-176.685028076172

> <b_mmod_Minimization_Converged-OPLS-2005>
0

> <r_mmod_RMS_Derivative-OPLS-2005>
2.48194479942322

$$$$
87
                    3D
 Structure written by MMmdl.
154162  0  0  1  0            999 V2000
  -30.4926  -15.2786   20.3480 C   0  0  0  0  0  0
  -30.4224  -12.8179   19.5221 C   0  0  0  0  0  0
  -29.5264  -12.5816   18.2836 C   0  0  0  0  0  0
  -28.0790  -12.3045   18.7185 C   0  0  0  0  0  0
  -27.6073  -13.2860   19.8213 C   0  0  2  0  0  0
  -28.6446  -13.4942   20.9475 C   0  0  0  0  0  0
  -25.2371  -13.8279   20.5779 C   0  0  0  0  0  0
  -24.1733  -13.0447   20.9280 C   0  0  0  0  0  0
  -24.6413  -11.6954   20.8789 C   0  0  0  0  0  0
  -23.9114  -10.4302   21.0421 C   0  0  0  0  0  0
  -24.3648   -9.4210   21.9198 C   0  0  0  0  0  0
  -23.6310   -8.2251   22.0760 C   0  0  0  0  0  0
  -22.4294   -8.0296   21.3548 C   0  0  0  0  0  0
  -21.9941   -9.0277   20.4652 C   0  0  0  0  0  0
  -22.7283  -10.2152   20.3067 C   0  0  0  0  0  0
  -21.6858   -6.0747   22.5279 C   0  0  0  0  0  0
  -21.4016   -6.5646   23.8214 C   0  0  0  0  0  0
  -21.3658   -5.6796   24.9174 C   0  0  0  0  0  0
  -21.6046   -4.3059   24.7223 C   0  0  0  0  0  0
  -21.8816   -3.8153   23.4341 C   0  0  0  0  0  0
  -21.9193   -4.6974   22.3399 C   0  0  0  0  0  0
  -22.7748  -13.5194   21.1907 C   0  0  0  0  0  0
  -22.1662   -4.2160   21.0977 F   0  0  0  0  0  0
  -21.5626   -3.4541   25.7733 F   0  0  0  0  0  0
  -29.8695  -13.9938   20.2999 N   0  0  0  0  0  0
  -26.2815  -12.9578   20.3267 N   0  0  0  0  0  0
  -25.9354  -11.6673   20.5757 N   0  0  0  0  0  0
  -22.0396  -12.8181   22.0457 N   0  0  0  0  0  0
  -25.3987  -15.2011   20.4193 N   0  0  0  0  0  0
  -31.7189  -15.1429   20.2001 O   0  0  0  0  0  0
  -21.6649   -6.8897   21.4245 O   0  0  0  0  0  0
  -22.3442  -14.5502   20.6755 O   0  0  0  0  0  0
  -24.6603  -31.8254   23.1719 C   0  0  0  0  0  0
  -25.9287  -32.4598   23.8181 C   0  0  1  0  0  0
  -27.2071  -26.9298   20.1856 C   0  0  0  0  0  0
  -25.5956  -33.8415   24.2084 N   0  0  0  0  0  0
  -23.4751  -30.4366   21.5217 C   0  0  2  0  0  0
  -24.9260  -28.8246   20.1152 C   0  0  0  0  0  0
  -22.7660  -29.4438   22.4790 C   0  0  0  0  0  0
  -18.0323  -28.1399   22.8472 C   0  0  0  0  0  0
  -24.1493  -36.7211   23.2652 C   0  0  0  0  0  0
  -26.0445  -30.6301   21.4050 C   0  0  0  0  0  0
  -26.1103  -29.2209   20.7484 C   0  0  0  0  0  0
  -27.2473  -28.2950   20.7576 C   0  0  0  0  0  0
  -25.9927  -26.6834   19.5075 C   0  0  0  0  0  0
  -24.8917  -27.5766   19.4752 C   0  0  0  0  0  0
  -23.7138  -29.7531   20.1484 C   0  0  0  0  0  0
  -25.4134  -36.2973   24.0298 C   0  0  1  0  0  0
  -20.5946  -28.3743   23.1194 C   0  0  2  0  0  0
  -20.6809  -26.9428   22.5404 C   0  0  0  0  0  0
  -19.5782  -26.6373   21.5218 C   0  0  0  0  0  0
  -18.1959  -26.7935   22.1616 C   0  0  0  0  0  0
  -19.1582  -28.8892   23.2820 C   0  0  0  0  0  0
  -18.9494  -30.1484   23.8851 C   0  0  0  0  0  0
  -17.6489  -30.6597   24.0548 C   0  0  0  0  0  0
  -25.9093  -34.9356   23.5013 C   0  0  0  0  0  0
  -16.5379  -29.9080   23.6350 C   0  0  0  0  0  0
  -16.7303  -28.6497   23.0375 C   0  0  0  0  0  0
  -26.4548  -31.6541   25.0706 C   0  0  0  0  0  0
  -25.3665  -31.3785   26.1354 C   0  0  0  0  0  0
  -27.0466  -30.2910   24.6454 C   0  0  0  0  0  0
  -27.6036  -32.4368   25.7507 C   0  0  0  0  0  0
  -27.5574  -37.1757   24.8461 C   0  0  0  0  0  0
  -21.4332  -29.3033   22.3538 N   0  0  0  0  0  0
  -26.4285  -37.3702   23.9399 N   0  0  0  0  0  0
  -24.7478  -30.9914   22.0857 N   0  0  0  0  0  0
  -23.4216  -28.8007   23.3025 O   0  0  0  0  0  0
  -28.2118  -25.8301   20.2446 O   0  0  0  0  0  0
  -26.5728  -34.8885   22.4625 O   0  0  0  0  0  0
  -23.5672  -32.1228   23.6803 O   0  0  0  0  0  0
  -31.1563  -20.5088   19.8505 C   0  0  0  0  0  0
  -30.0255  -19.7019   20.1334 C   0  0  0  0  0  0
  -30.3896  -18.1394   20.1451 C   0  0  0  0  0  0
  -32.5876  -18.8251   19.5618 C   0  0  0  0  0  0
  -34.0017  -18.1175   17.5931 C   0  0  0  0  0  0
  -28.7867  -20.9153   20.3066 C   0  0  0  0  0  0
  -33.9478  -18.3271   19.1123 C   0  0  0  0  0  0
  -28.9829  -22.7333   20.2258 C   0  0  0  0  0  0
  -27.9365  -24.2017   20.2157 C   0  0  0  0  0  0
  -32.3916  -20.1112   19.5613 N   0  0  0  0  0  0
  -31.6786  -17.9163   19.8219 N   0  0  0  0  0  0
  -29.8343  -16.6353   20.3707 N   0  0  0  0  0  0
  -31.4459  -12.9863   19.1856 H   0  0  0  0  0  0
  -30.4706  -11.9227   20.1448 H   0  0  0  0  0  0
  -29.9084  -11.7528   17.6865 H   0  0  0  0  0  0
  -29.5558  -13.4636   17.6420 H   0  0  0  0  0  0
  -28.0408  -11.2829   19.0981 H   0  0  0  0  0  0
  -27.4077  -12.3400   17.8602 H   0  0  0  0  0  0
  -27.5113  -14.2464   19.3128 H   0  0  0  0  0  0
  -28.8214  -12.5743   21.5077 H   0  0  0  0  0  0
  -28.2864  -14.2336   21.6655 H   0  0  0  0  0  0
  -25.2783   -9.5687   22.4790 H   0  0  0  0  0  0
  -24.0010   -7.4643   22.7485 H   0  0  0  0  0  0
  -21.0867   -8.8820   19.8958 H   0  0  0  0  0  0
  -22.3746  -10.9706   19.6188 H   0  0  0  0  0  0
  -21.2013   -7.6155   23.9723 H   0  0  0  0  0  0
  -21.1478   -6.0525   25.9080 H   0  0  0  0  0  0
  -22.0593   -2.7616   23.2840 H   0  0  0  0  0  0
  -22.4010  -11.9838   22.4841 H   0  0  0  0  0  0
  -21.1011  -13.1210   22.2653 H   0  0  0  0  0  0
  -24.6248  -15.8486   20.5236 H   0  0  0  0  0  0
  -26.2386  -15.6429   20.0699 H   0  0  0  0  0  0
  -26.7347  -32.5130   23.0887 H   0  0  0  0  0  0
  -25.0003  -33.9498   25.0164 H   0  0  0  0  0  0
  -22.7871  -31.2672   21.3523 H   0  0  0  0  0  0
  -23.3770  -35.9523   23.3278 H   0  0  0  0  0  0
  -24.3565  -36.8907   22.2076 H   0  0  0  0  0  0
  -23.7240  -37.6379   23.6740 H   0  0  0  0  0  0
  -26.2295  -31.3707   20.6263 H   0  0  0  0  0  0
  -26.9023  -30.6817   22.0632 H   0  0  0  0  0  0
  -28.1442  -28.5955   21.2803 H   0  0  0  0  0  0
  -25.8582  -25.7326   19.0131 H   0  0  0  0  0  0
  -23.9895  -27.2682   18.9653 H   0  0  0  0  0  0
  -23.8677  -30.5214   19.3897 H   0  0  0  0  0  0
  -22.8231  -29.2068   19.8329 H   0  0  0  0  0  0
  -25.1331  -36.1779   25.0789 H   0  0  0  0  0  0
  -21.0028  -28.3349   24.1319 H   0  0  0  0  0  0
  -20.5719  -26.2349   23.3639 H   0  0  0  0  0  0
  -21.6672  -26.7427   22.1192 H   0  0  0  0  0  0
  -19.6952  -25.6274   21.1279 H   0  0  0  0  0  0
  -19.6733  -27.3157   20.6732 H   0  0  0  0  0  0
  -17.4240  -26.6686   21.4009 H   0  0  0  0  0  0
  -18.0340  -26.0077   22.9010 H   0  0  0  0  0  0
  -19.7971  -30.7304   24.2208 H   0  0  0  0  0  0
  -17.5047  -31.6279   24.5145 H   0  0  0  0  0  0
  -15.5377  -30.2969   23.7716 H   0  0  0  0  0  0
  -15.8699  -28.0801   22.7133 H   0  0  0  0  0  0
  -24.5860  -30.7129   25.7650 H   0  0  0  0  0  0
  -24.8830  -32.2980   26.4657 H   0  0  0  0  0  0
  -25.7876  -30.9026   27.0217 H   0  0  0  0  0  0
  -26.3142  -29.6563   24.1448 H   0  0  0  0  0  0
  -27.3989  -29.7298   25.5119 H   0  0  0  0  0  0
  -27.9086  -30.4106   23.9887 H   0  0  0  0  0  0
  -27.2605  -33.3726   26.1929 H   0  0  0  0  0  0
  -28.3916  -32.6840   25.0380 H   0  0  0  0  0  0
  -28.0620  -31.8598   26.5547 H   0  0  0  0  0  0
  -28.2558  -38.0087   24.7518 H   0  0  0  0  0  0
  -28.1109  -36.2606   24.6280 H   0  0  0  0  0  0
  -27.2281  -37.1389   25.8864 H   0  0  0  0  0  0
  -20.9584  -29.8700   21.6650 H   0  0  0  0  0  0
  -26.0136  -38.2762   24.1409 H   0  0  0  0  0  0
  -31.1105  -21.5809   19.8272 H   0  0  0  0  0  0
  -34.9730  -17.7358   17.2807 H   0  0  0  0  0  0
  -33.8191  -19.0539   17.0663 H   0  0  0  0  0  0
  -33.2425  -17.4025   17.2763 H   0  0  0  0  0  0
  -28.3026  -20.6963   21.2585 H   0  0  0  0  0  0
  -28.0367  -20.6575   19.5576 H   0  0  0  0  0  0
  -34.1767  -17.3912   19.6238 H   0  0  0  0  0  0
  -34.7160  -19.0380   19.4204 H   0  0  0  0  0  0
  -29.5439  -22.8929   19.3052 H   0  0  0  0  0  0
  -29.6891  -22.9517   21.0268 H   0  0  0  0  0  0
  -27.2515  -24.0545   21.0508 H   0  0  0  0  0  0
  -27.3069  -24.0629   19.3372 H   0  0  0  0  0  0
  -28.8359  -16.5916   20.4996 H   0  0  0  0  0  0
  1 25  1  0  0  0
  1 30  2  0  0  0
  1 82  1  0  0  0
  2  3  1  0  0  0
  2 25  1  0  0  0
  2 83  1  0  0  0
  2 84  1  0  0  0
  3  4  1  0  0  0
  3 85  1  0  0  0
  3 86  1  0  0  0
  4  5  1  0  0  0
  4 87  1  0  0  0
  4 88  1  0  0  0
  5  6  1  0  0  0
  5 26  1  0  0  0
  5 89  1  0  0  0
  6 25  1  0  0  0
  6 90  1  0  0  0
  6 91  1  0  0  0
  7  8  2  0  0  0
  7 26  1  0  0  0
  7 29  1  0  0  0
  8  9  1  0  0  0
  8 22  1  0  0  0
  9 10  1  0  0  0
  9 27  2  0  0  0
 10 11  2  0  0  0
 10 15  1  0  0  0
 11 12  1  0  0  0
 11 92  1  0  0  0
 12 13  2  0  0  0
 12 93  1  0  0  0
 13 14  1  0  0  0
 13 31  1  0  0  0
 14 15  2  0  0  0
 14 94  1  0  0  0
 15 95  1  0  0  0
 16 17  2  0  0  0
 16 21  1  0  0  0
 16 31  1  0  0  0
 17 18  1  0  0  0
 17 96  1  0  0  0
 18 19  2  0  0  0
 18 97  1  0  0  0
 19 20  1  0  0  0
 19 24  1  0  0  0
 20 21  2  0  0  0
 20 98  1  0  0  0
 21 23  1  0  0  0
 22 28  1  0  0  0
 22 32  2  0  0  0
 26 27  1  0  0  0
 28 99  1  0  0  0
 28100  1  0  0  0
 29101  1  0  0  0
 29102  1  0  0  0
 33 34  1  0  0  0
 33 66  1  0  0  0
 33 70  2  0  0  0
 34 36  1  0  0  0
 34 59  1  0  0  0
 34103  1  0  0  0
 35 44  2  0  0  0
 35 45  1  0  0  0
 35 68  1  0  0  0
 36 56  1  0  0  0
 36104  1  0  0  0
 37 39  1  0  0  0
 37 47  1  0  0  0
 37 66  1  0  0  0
 37105  1  0  0  0
 38 43  2  0  0  0
 38 46  1  0  0  0
 38 47  1  0  0  0
 39 64  1  0  0  0
 39 67  2  0  0  0
 40 52  1  0  0  0
 40 53  2  0  0  0
 40 58  1  0  0  0
 41106  1  0  0  0
 41107  1  0  0  0
 41108  1  0  0  0
 41 48  1  0  0  0
 42 43  1  0  0  0
 42 66  1  0  0  0
 42109  1  0  0  0
 42110  1  0  0  0
 43 44  1  0  0  0
 44111  1  0  0  0
 45 46  2  0  0  0
 45112  1  0  0  0
 46113  1  0  0  0
 47114  1  0  0  0
 47115  1  0  0  0
 48 56  1  0  0  0
 48 65  1  0  0  0
 48116  1  0  0  0
 49 50  1  0  0  0
 49 53  1  0  0  0
 49 64  1  0  0  0
 49117  1  0  0  0
 50 51  1  0  0  0
 50118  1  0  0  0
 50119  1  0  0  0
 51 52  1  0  0  0
 51120  1  0  0  0
 51121  1  0  0  0
 52122  1  0  0  0
 52123  1  0  0  0
 53 54  1  0  0  0
 54 55  2  0  0  0
 54124  1  0  0  0
 55 57  1  0  0  0
 55125  1  0  0  0
 56 69  2  0  0  0
 57 58  2  0  0  0
 57126  1  0  0  0
 58127  1  0  0  0
 59 60  1  0  0  0
 59 61  1  0  0  0
 59 62  1  0  0  0
 60128  1  0  0  0
 60129  1  0  0  0
 60130  1  0  0  0
 61131  1  0  0  0
 61132  1  0  0  0
 61133  1  0  0  0
 62134  1  0  0  0
 62135  1  0  0  0
 62136  1  0  0  0
 63 65  1  0  0  0
 63137  1  0  0  0
 63138  1  0  0  0
 63139  1  0  0  0
 64140  1  0  0  0
 65141  1  0  0  0
 68 79  1  0  0  0
 71 72  2  0  0  0
 71 80  1  0  0  0
 71142  1  0  0  0
 72 73  1  0  0  0
 72 76  1  0  0  0
 73 81  2  0  0  0
 73 82  1  0  0  0
 74 77  1  0  0  0
 74 80  2  0  0  0
 74 81  1  0  0  0
 75 77  1  0  0  0
 75143  1  0  0  0
 75144  1  0  0  0
 75145  1  0  0  0
 76 78  1  0  0  0
 76146  1  0  0  0
 76147  1  0  0  0
 77148  1  0  0  0
 77149  1  0  0  0
 78 79  1  0  0  0
 78150  1  0  0  0
 78151  1  0  0  0
 79152  1  0  0  0
 79153  1  0  0  0
 82154  1  0  0  0
M  ISO  4   1 100  68 101  79 101  82 100
M  END
> <chiral flag>
0

> <version>
0

> <s_m_source_file>
/data/baiqing/PycharmProjects/Reinvent-master-3.2/result/LINK_invent/BTK/process_docking_weight1_custom_sum_contain_oxygen_bond_distance_aromatic_linkinvent_7_9_3/rearranged_h_0091.sdf

> <i_m_source_file_index>
87

> <r_mmod_Potential_Energy-OPLS-2005>
1100.57348632812

> <r_mmod_Stretch_Energy-OPLS-2005>
663.6015625

> <r_mmod_Bend_Energy-OPLS-2005>
575.611511230469

> <r_mmod_Torsional_Energy-OPLS-2005>
196.043487548828

> <r_mmod_Improper_Torsional_Energy-OPLS-2005>
4.13953828811646

> <r_mmod_Van_der_Waal_Energy-OPLS-2005>
153.328460693359

> <r_mmod_Electrostatic_Energy-OPLS-2005>
-706.331665039062

> <r_mmod_Solvation_Energy-OPLS-2005>
-241.050521850586

> <b_mmod_Minimization_Converged-OPLS-2005>
0

> <r_mmod_RMS_Derivative-OPLS-2005>
1.40870094299316

$$$$
88
                    3D
 Structure written by MMmdl.
166174  0  0  1  0            999 V2000
  -30.6632  -14.5533   20.5400 C   0  0  0  0  0  0
  -30.4292  -12.3487   19.4357 C   0  0  0  0  0  0
  -29.4979  -12.4953   18.2135 C   0  0  0  0  0  0
  -28.0201  -12.3485   18.6263 C   0  0  0  0  0  0
  -27.6536  -13.2103   19.8643 C   0  0  2  0  0  0
  -28.6975  -13.0343   20.9887 C   0  0  0  0  0  0
  -25.2576  -13.8178   20.5716 C   0  0  0  0  0  0
  -24.1832  -13.0456   20.9214 C   0  0  0  0  0  0
  -24.6380  -11.6912   20.8769 C   0  0  0  0  0  0
  -23.9036  -10.4298   21.0423 C   0  0  0  0  0  0
  -24.3589   -9.4213   21.9194 C   0  0  0  0  0  0
  -23.6277   -8.2249   22.0748 C   0  0  0  0  0  0
  -22.4267   -8.0285   21.3537 C   0  0  0  0  0  0
  -21.9901   -9.0254   20.4645 C   0  0  0  0  0  0
  -22.7220  -10.2136   20.3062 C   0  0  0  0  0  0
  -21.6859   -6.0732   22.5275 C   0  0  0  0  0  0
  -21.4024   -6.5624   23.8211 C   0  0  0  0  0  0
  -21.3664   -5.6772   24.9168 C   0  0  0  0  0  0
  -21.6047   -4.3032   24.7223 C   0  0  0  0  0  0
  -21.8824   -3.8134   23.4342 C   0  0  0  0  0  0
  -21.9194   -4.6957   22.3402 C   0  0  0  0  0  0
  -22.7848  -13.5263   21.1849 C   0  0  0  0  0  0
  -22.1667   -4.2138   21.0977 F   0  0  0  0  0  0
  -21.5618   -3.4521   25.7738 F   0  0  0  0  0  0
  -30.0141  -13.3589   20.4232 N   0  0  0  0  0  0
  -26.2974  -12.9330   20.3321 N   0  0  0  0  0  0
  -25.9290  -11.6488   20.5750 N   0  0  0  0  0  0
  -22.0444  -12.8288   22.0399 N   0  0  0  0  0  0
  -25.4323  -15.1899   20.4154 N   0  0  0  0  0  0
  -31.8204  -14.7129   20.1461 O   0  0  0  0  0  0
  -21.6635   -6.8884   21.4239 O   0  0  0  0  0  0
  -22.3548  -14.5555   20.6656 O   0  0  0  0  0  0
  -24.6193  -31.8647   23.2047 C   0  0  0  0  0  0
  -25.9066  -32.4803   23.8364 C   0  0  1  0  0  0
  -27.2265  -27.3740   20.1140 C   0  0  0  0  0  0
  -25.5912  -33.8606   24.2301 N   0  0  0  0  0  0
  -23.4122  -30.4850   21.5470 C   0  0  2  0  0  0
  -24.8593  -28.9420   20.1143 C   0  0  0  0  0  0
  -22.7470  -29.4629   22.4971 C   0  0  0  0  0  0
  -18.0288  -28.1394   22.8465 C   0  0  0  0  0  0
  -24.1482  -36.7300   23.2638 C   0  0  0  0  0  0
  -25.9473  -30.8108   21.3675 C   0  0  0  0  0  0
  -26.0231  -29.4406   20.7133 C   0  0  0  0  0  0
  -27.2131  -28.6675   20.7015 C   0  0  0  0  0  0
  -26.0479  -26.9106   19.4944 C   0  0  0  0  0  0
  -24.8690  -27.6804   19.4974 C   0  0  0  0  0  0
  -23.6255  -29.8158   20.1622 C   0  0  0  0  0  0
  -25.4101  -36.3108   24.0345 C   0  0  1  0  0  0
  -20.5884  -28.3693   23.1329 C   0  0  2  0  0  0
  -20.6778  -26.9418   22.5445 C   0  0  0  0  0  0
  -19.5780  -26.6404   21.5215 C   0  0  0  0  0  0
  -18.1938  -26.7960   22.1579 C   0  0  0  0  0  0
  -19.1531  -28.8853   23.2884 C   0  0  0  0  0  0
  -18.9454  -30.1460   23.8892 C   0  0  0  0  0  0
  -17.6462  -30.6594   24.0565 C   0  0  0  0  0  0
  -25.9046  -34.9479   23.5115 C   0  0  0  0  0  0
  -16.5347  -29.9100   23.6318 C   0  0  0  0  0  0
  -16.7272  -28.6525   23.0324 C   0  0  0  0  0  0
  -26.4496  -31.6587   25.0696 C   0  0  0  0  0  0
  -25.3725  -31.3697   26.1414 C   0  0  0  0  0  0
  -27.0326  -30.3016   24.6094 C   0  0  0  0  0  0
  -27.6083  -32.4301   25.7436 C   0  0  0  0  0  0
  -27.5579  -37.1792   24.8466 C   0  0  0  0  0  0
  -21.4184  -29.3041   22.3740 N   0  0  0  0  0  0
  -26.4289  -37.3786   23.9423 N   0  0  0  0  0  0
  -24.6784  -31.0698   22.0970 N   0  0  0  0  0  0
  -23.4228  -28.8173   23.3022 O   0  0  0  0  0  0
  -28.3567  -26.5676   20.1258 O   0  0  0  0  0  0
  -26.5612  -34.8943   22.4683 O   0  0  0  0  0  0
  -23.5364  -32.1426   23.7394 O   0  0  0  0  0  0
  -27.9510  -22.3399   21.7701 C   0  0  0  0  0  0
  -28.5611  -22.6039   20.5136 C   0  0  0  0  0  0
  -27.9130  -20.9917   22.0042 C   0  0  0  0  0  0
  -28.9172  -21.3546   20.0232 C   0  0  0  0  0  0
  -29.5951  -21.0055   18.7336 C   0  0  0  0  0  0
  -25.9407  -19.6338   22.8179 C   0  0  0  0  0  0
  -27.0983  -21.2007   24.3920 C   0  0  0  0  0  0
  -28.7428  -24.0079   19.8742 C   0  0  0  0  0  0
  -30.0518  -18.2235   20.5693 C   0  0  0  0  0  0
  -28.6328  -18.8559   20.7582 C   0  0  0  0  0  0
  -30.4236  -16.9410   21.4107 C   0  0  0  0  0  0
  -28.1914  -25.2317   20.6999 C   0  0  0  0  0  0
  -27.2932  -20.2744   23.1790 C   0  0  0  0  0  0
  -28.5295  -20.3449   20.9270 N   0  0  0  0  0  0
  -29.9239  -15.6028   20.9877 N   0  0  0  0  0  0
  -31.4703  -12.4652   19.1304 H   0  0  0  0  0  0
  -30.3530  -11.3488   19.8656 H   0  0  0  0  0  0
  -29.7528  -11.7530   17.4550 H   0  0  0  0  0  0
  -29.6553  -13.4715   17.7535 H   0  0  0  0  0  0
  -27.8459  -11.2941   18.8437 H   0  0  0  0  0  0
  -27.3665  -12.5942   17.7882 H   0  0  0  0  0  0
  -27.6835  -14.2510   19.5382 H   0  0  0  0  0  0
  -28.6925  -12.0083   21.3586 H   0  0  0  0  0  0
  -28.4562  -13.6588   21.8489 H   0  0  0  0  0  0
  -25.2727   -9.5697   22.4770 H   0  0  0  0  0  0
  -23.9990   -7.4645   22.7462 H   0  0  0  0  0  0
  -21.0832   -8.8764   19.8966 H   0  0  0  0  0  0
  -22.3673  -10.9662   19.6168 H   0  0  0  0  0  0
  -21.2024   -7.6135   23.9721 H   0  0  0  0  0  0
  -21.1483   -6.0494   25.9070 H   0  0  0  0  0  0
  -22.0606   -2.7599   23.2838 H   0  0  0  0  0  0
  -22.4009  -11.9947   22.4818 H   0  0  0  0  0  0
  -21.1058  -13.1335   22.2547 H   0  0  0  0  0  0
  -24.6705  -15.8475   20.5418 H   0  0  0  0  0  0
  -26.2794  -15.6276   20.0759 H   0  0  0  0  0  0
  -26.7138  -32.5489   23.1132 H   0  0  0  0  0  0
  -25.0072  -33.9767   25.0443 H   0  0  0  0  0  0
  -22.7003  -31.2999   21.4042 H   0  0  0  0  0  0
  -23.3764  -35.9615   23.3294 H   0  0  0  0  0  0
  -24.3555  -36.8896   22.2048 H   0  0  0  0  0  0
  -23.7212  -37.6493   23.6646 H   0  0  0  0  0  0
  -26.0631  -31.5721   20.5957 H   0  0  0  0  0  0
  -26.8353  -30.8670   21.9870 H   0  0  0  0  0  0
  -28.1099  -29.0435   21.1709 H   0  0  0  0  0  0
  -26.0334  -25.9413   19.0162 H   0  0  0  0  0  0
  -23.9773  -27.2913   19.0242 H   0  0  0  0  0  0
  -23.7434  -30.5886   19.4033 H   0  0  0  0  0  0
  -22.7503  -29.2397   19.8598 H   0  0  0  0  0  0
  -25.1272  -36.1975   25.0838 H   0  0  0  0  0  0
  -20.9927  -28.3289   24.1475 H   0  0  0  0  0  0
  -20.5623  -26.2291   23.3622 H   0  0  0  0  0  0
  -21.6674  -26.7439   22.1306 H   0  0  0  0  0  0
  -19.6931  -25.6313   21.1245 H   0  0  0  0  0  0
  -19.6748  -27.3205   20.6748 H   0  0  0  0  0  0
  -17.4251  -26.6762   21.3944 H   0  0  0  0  0  0
  -18.0265  -26.0072   22.8919 H   0  0  0  0  0  0
  -19.7923  -30.7280   24.2253 H   0  0  0  0  0  0
  -17.5018  -31.6254   24.5212 H   0  0  0  0  0  0
  -15.5348  -30.3012   23.7655 H   0  0  0  0  0  0
  -15.8662  -28.0867   22.7025 H   0  0  0  0  0  0
  -24.5947  -30.6997   25.7724 H   0  0  0  0  0  0
  -24.8864  -32.2855   26.4802 H   0  0  0  0  0  0
  -25.8051  -30.8899   27.0204 H   0  0  0  0  0  0
  -26.2881  -29.6767   24.1149 H   0  0  0  0  0  0
  -27.4090  -29.7269   25.4569 H   0  0  0  0  0  0
  -27.8724  -30.4332   23.9264 H   0  0  0  0  0  0
  -27.2744  -33.3620   26.2016 H   0  0  0  0  0  0
  -28.3878  -32.6807   25.0225 H   0  0  0  0  0  0
  -28.0779  -31.8400   26.5319 H   0  0  0  0  0  0
  -28.2614  -38.0077   24.7523 H   0  0  0  0  0  0
  -28.1065  -36.2614   24.6293 H   0  0  0  0  0  0
  -27.2303  -37.1431   25.8869 H   0  0  0  0  0  0
  -20.9355  -29.8841   21.7030 H   0  0  0  0  0  0
  -26.0187  -38.2867   24.1415 H   0  0  0  0  0  0
  -27.5432  -23.0830   22.4420 H   0  0  0  0  0  0
  -29.6233  -21.8559   18.0528 H   0  0  0  0  0  0
  -29.0771  -20.1976   18.2183 H   0  0  0  0  0  0
  -30.6227  -20.6882   18.9105 H   0  0  0  0  0  0
  -26.0247  -18.9048   22.0129 H   0  0  0  0  0  0
  -25.2210  -20.3892   22.4984 H   0  0  0  0  0  0
  -25.5101  -19.1127   23.6742 H   0  0  0  0  0  0
  -28.0348  -21.6804   24.6766 H   0  0  0  0  0  0
  -26.7416  -20.6457   25.2605 H   0  0  0  0  0  0
  -26.3667  -21.9849   24.1893 H   0  0  0  0  0  0
  -28.2532  -23.9965   18.9001 H   0  0  0  0  0  0
  -29.8060  -24.1559   19.6792 H   0  0  0  0  0  0
  -30.7725  -18.9944   20.8446 H   0  0  0  0  0  0
  -30.2370  -18.0373   19.5111 H   0  0  0  0  0  0
  -28.1810  -18.3703   21.6183 H   0  0  0  0  0  0
  -27.9962  -18.5632   19.9219 H   0  0  0  0  0  0
  -30.1095  -17.0925   22.4432 H   0  0  0  0  0  0
  -31.5126  -16.8993   21.4646 H   0  0  0  0  0  0
  -28.7110  -25.2533   21.6577 H   0  0  0  0  0  0
  -27.1460  -25.0348   20.9473 H   0  0  0  0  0  0
  -27.9745  -19.4885   23.5062 H   0  0  0  0  0  0
  -28.9673  -15.3818   21.2227 H   0  0  0  0  0  0
  1 25  1  0  0  0
  1 30  2  0  0  0
  1 85  1  0  0  0
  2  3  1  0  0  0
  2 25  1  0  0  0
  2 86  1  0  0  0
  2 87  1  0  0  0
  3  4  1  0  0  0
  3 88  1  0  0  0
  3 89  1  0  0  0
  4  5  1  0  0  0
  4 90  1  0  0  0
  4 91  1  0  0  0
  5  6  1  0  0  0
  5 26  1  0  0  0
  5 92  1  0  0  0
  6 25  1  0  0  0
  6 93  1  0  0  0
  6 94  1  0  0  0
  7  8  2  0  0  0
  7 26  1  0  0  0
  7 29  1  0  0  0
  8  9  1  0  0  0
  8 22  1  0  0  0
  9 10  1  0  0  0
  9 27  2  0  0  0
 10 11  2  0  0  0
 10 15  1  0  0  0
 11 12  1  0  0  0
 11 95  1  0  0  0
 12 13  2  0  0  0
 12 96  1  0  0  0
 13 14  1  0  0  0
 13 31  1  0  0  0
 14 15  2  0  0  0
 14 97  1  0  0  0
 15 98  1  0  0  0
 16 17  2  0  0  0
 16 21  1  0  0  0
 16 31  1  0  0  0
 17 18  1  0  0  0
 17 99  1  0  0  0
 18 19  2  0  0  0
 18100  1  0  0  0
 19 20  1  0  0  0
 19 24  1  0  0  0
 20 21  2  0  0  0
 20101  1  0  0  0
 21 23  1  0  0  0
 22 28  1  0  0  0
 22 32  2  0  0  0
 26 27  1  0  0  0
 28102  1  0  0  0
 28103  1  0  0  0
 29104  1  0  0  0
 29105  1  0  0  0
 33 34  1  0  0  0
 33 66  1  0  0  0
 33 70  2  0  0  0
 34 36  1  0  0  0
 34 59  1  0  0  0
 34106  1  0  0  0
 35 44  2  0  0  0
 35 45  1  0  0  0
 35 68  1  0  0  0
 36 56  1  0  0  0
 36107  1  0  0  0
 37 39  1  0  0  0
 37 47  1  0  0  0
 37 66  1  0  0  0
 37108  1  0  0  0
 38 43  2  0  0  0
 38 46  1  0  0  0
 38 47  1  0  0  0
 39 64  1  0  0  0
 39 67  2  0  0  0
 40 52  1  0  0  0
 40 53  2  0  0  0
 40 58  1  0  0  0
 41109  1  0  0  0
 41110  1  0  0  0
 41111  1  0  0  0
 41 48  1  0  0  0
 42 43  1  0  0  0
 42 66  1  0  0  0
 42112  1  0  0  0
 42113  1  0  0  0
 43 44  1  0  0  0
 44114  1  0  0  0
 45 46  2  0  0  0
 45115  1  0  0  0
 46116  1  0  0  0
 47117  1  0  0  0
 47118  1  0  0  0
 48 56  1  0  0  0
 48 65  1  0  0  0
 48119  1  0  0  0
 49 50  1  0  0  0
 49 53  1  0  0  0
 49 64  1  0  0  0
 49120  1  0  0  0
 50 51  1  0  0  0
 50121  1  0  0  0
 50122  1  0  0  0
 51 52  1  0  0  0
 51123  1  0  0  0
 51124  1  0  0  0
 52125  1  0  0  0
 52126  1  0  0  0
 53 54  1  0  0  0
 54 55  2  0  0  0
 54127  1  0  0  0
 55 57  1  0  0  0
 55128  1  0  0  0
 56 69  2  0  0  0
 57 58  2  0  0  0
 57129  1  0  0  0
 58130  1  0  0  0
 59 60  1  0  0  0
 59 61  1  0  0  0
 59 62  1  0  0  0
 60131  1  0  0  0
 60132  1  0  0  0
 60133  1  0  0  0
 61134  1  0  0  0
 61135  1  0  0  0
 61136  1  0  0  0
 62137  1  0  0  0
 62138  1  0  0  0
 62139  1  0  0  0
 63 65  1  0  0  0
 63140  1  0  0  0
 63141  1  0  0  0
 63142  1  0  0  0
 64143  1  0  0  0
 65144  1  0  0  0
 68 82  1  0  0  0
 71 72  1  0  0  0
 71 73  2  0  0  0
 71145  1  0  0  0
 72 74  2  0  0  0
 72 78  1  0  0  0
 73 83  1  0  0  0
 73 84  1  0  0  0
 74 75  1  0  0  0
 74 84  1  0  0  0
 75146  1  0  0  0
 75147  1  0  0  0
 75148  1  0  0  0
 76149  1  0  0  0
 76150  1  0  0  0
 76151  1  0  0  0
 76 83  1  0  0  0
 77 83  1  0  0  0
 77152  1  0  0  0
 77153  1  0  0  0
 77154  1  0  0  0
 78 82  1  0  0  0
 78155  1  0  0  0
 78156  1  0  0  0
 79 80  1  0  0  0
 79 81  1  0  0  0
 79157  1  0  0  0
 79158  1  0  0  0
 80 84  1  0  0  0
 80159  1  0  0  0
 80160  1  0  0  0
 81 85  1  0  0  0
 81161  1  0  0  0
 81162  1  0  0  0
 82163  1  0  0  0
 82164  1  0  0  0
 83165  1  0  0  0
 85166  1  0  0  0
M  ISO  4   1 100  68 101  82 101  85 100
M  END
> <chiral flag>
0

> <version>
0

> <s_m_source_file>
/data/baiqing/PycharmProjects/Reinvent-master-3.2/result/LINK_invent/BTK/process_docking_weight1_custom_sum_contain_oxygen_bond_distance_aromatic_linkinvent_7_9_3/rearranged_h_0091.sdf

> <i_m_source_file_index>
88

> <r_mmod_Potential_Energy-OPLS-2005>
-30.4673538208008

> <r_mmod_Stretch_Energy-OPLS-2005>
57.7234878540039

> <r_mmod_Bend_Energy-OPLS-2005>
124.697944641113

> <r_mmod_Torsional_Energy-OPLS-2005>
247.43701171875

> <r_mmod_Improper_Torsional_Energy-OPLS-2005>
3.66108202934265

> <r_mmod_Van_der_Waal_Energy-OPLS-2005>
121.941177368164

> <r_mmod_Electrostatic_Energy-OPLS-2005>
-404.854919433594

> <r_mmod_Solvation_Energy-OPLS-2005>
-208.244094848633

> <b_mmod_Minimization_Converged-OPLS-2005>
0

> <r_mmod_RMS_Derivative-OPLS-2005>
3.25224566459656

$$$$
89
                    3D
 Structure written by MMmdl.
187195  0  0  1  0            999 V2000
  -30.7432  -14.4001   20.6471 C   0  0  0  0  0  0
  -30.4196  -12.2925   19.4081 C   0  0  0  0  0  0
  -29.4875  -12.5183   18.2014 C   0  0  0  0  0  0
  -28.0109  -12.3718   18.6166 C   0  0  0  0  0  0
  -27.6651  -13.2024   19.8809 C   0  0  2  0  0  0
  -28.7037  -12.9541   20.9980 C   0  0  0  0  0  0
  -25.2590  -13.8154   20.5672 C   0  0  0  0  0  0
  -24.1833  -13.0439   20.9171 C   0  0  0  0  0  0
  -24.6388  -11.6907   20.8732 C   0  0  0  0  0  0
  -23.9056  -10.4293   21.0405 C   0  0  0  0  0  0
  -24.3610   -9.4210   21.9183 C   0  0  0  0  0  0
  -23.6291   -8.2243   22.0747 C   0  0  0  0  0  0
  -22.4271   -8.0282   21.3540 C   0  0  0  0  0  0
  -21.9908   -9.0254   20.4639 C   0  0  0  0  0  0
  -22.7232  -10.2137   20.3051 C   0  0  0  0  0  0
  -21.6849   -6.0740   22.5283 C   0  0  0  0  0  0
  -21.4014   -6.5643   23.8218 C   0  0  0  0  0  0
  -21.3659   -5.6789   24.9177 C   0  0  0  0  0  0
  -21.6041   -4.3053   24.7222 C   0  0  0  0  0  0
  -21.8822   -3.8151   23.4340 C   0  0  0  0  0  0
  -21.9194   -4.6968   22.3400 C   0  0  0  0  0  0
  -22.7858  -13.5241   21.1846 C   0  0  0  0  0  0
  -22.1661   -4.2156   21.0976 F   0  0  0  0  0  0
  -21.5628   -3.4536   25.7734 F   0  0  0  0  0  0
  -30.0447  -13.2491   20.4596 N   0  0  0  0  0  0
  -26.3034  -12.9324   20.3391 N   0  0  0  0  0  0
  -25.9315  -11.6485   20.5771 N   0  0  0  0  0  0
  -22.0501  -12.8226   22.0394 N   0  0  0  0  0  0
  -25.4322  -15.1869   20.4081 N   0  0  0  0  0  0
  -31.8019  -14.6523   20.0637 O   0  0  0  0  0  0
  -21.6638   -6.8879   21.4242 O   0  0  0  0  0  0
  -22.3545  -14.5551   20.6699 O   0  0  0  0  0  0
  -24.6091  -31.8713   23.2159 C   0  0  0  0  0  0
  -25.8987  -32.4864   23.8434 C   0  0  1  0  0  0
  -27.2533  -27.4731   20.0966 C   0  0  0  0  0  0
  -25.5853  -33.8664   24.2363 N   0  0  0  0  0  0
  -23.3988  -30.4934   21.5553 C   0  0  2  0  0  0
  -24.8525  -28.9637   20.1236 C   0  0  0  0  0  0
  -22.7397  -29.4652   22.5022 C   0  0  0  0  0  0
  -18.0269  -28.1380   22.8507 C   0  0  0  0  0  0
  -24.1482  -36.7316   23.2638 C   0  0  0  0  0  0
  -25.9240  -30.8462   21.3681 C   0  0  0  0  0  0
  -26.0074  -29.4808   20.7225 C   0  0  0  0  0  0
  -27.2120  -28.7437   20.7169 C   0  0  0  0  0  0
  -26.0830  -26.9665   19.4958 C   0  0  0  0  0  0
  -24.8814  -27.6995   19.5107 C   0  0  0  0  0  0
  -23.6103  -29.8246   20.1706 C   0  0  0  0  0  0
  -25.4106  -36.3142   24.0348 C   0  0  1  0  0  0
  -20.5859  -28.3637   23.1347 C   0  0  2  0  0  0
  -20.6762  -26.9379   22.5425 C   0  0  0  0  0  0
  -19.5736  -26.6394   21.5219 C   0  0  0  0  0  0
  -18.1912  -26.7934   22.1625 C   0  0  0  0  0  0
  -19.1521  -28.8823   23.2923 C   0  0  0  0  0  0
  -18.9448  -30.1442   23.8916 C   0  0  0  0  0  0
  -17.6454  -30.6583   24.0580 C   0  0  0  0  0  0
  -25.9020  -34.9497   23.5154 C   0  0  0  0  0  0
  -16.5341  -29.9094   23.6343 C   0  0  0  0  0  0
  -16.7261  -28.6517   23.0349 C   0  0  0  0  0  0
  -26.4433  -31.6632   25.0744 C   0  0  0  0  0  0
  -25.3711  -31.3748   26.1503 C   0  0  0  0  0  0
  -27.0265  -30.3089   24.6088 C   0  0  0  0  0  0
  -27.6033  -32.4328   25.7474 C   0  0  0  0  0  0
  -27.5589  -37.1812   24.8464 C   0  0  0  0  0  0
  -21.4130  -29.3009   22.3761 N   0  0  0  0  0  0
  -26.4301  -37.3812   23.9410 N   0  0  0  0  0  0
  -24.6617  -31.0833   22.1049 N   0  0  0  0  0  0
  -23.4190  -28.8192   23.3043 O   0  0  0  0  0  0
  -28.3752  -26.6841   20.0025 O   0  0  0  0  0  0
  -26.5585  -34.8936   22.4720 O   0  0  0  0  0  0
  -23.5292  -32.1439   23.7566 O   0  0  0  0  0  0
  -31.6373  -23.4901   23.5792 C   0  0  0  0  0  0
  -32.0317  -23.0046   21.2461 C   0  0  0  0  0  0
  -31.7052  -23.9380   22.2499 C   0  0  0  0  0  0
  -31.8708  -22.1305   23.8451 C   0  0  0  0  0  0
  -32.2369  -21.6490   21.5916 C   0  0  0  0  0  0
  -27.4925  -18.7867   24.8607 C   0  0  0  0  0  0
  -27.1651  -21.1844   25.5927 C   0  0  0  0  0  0
  -28.5636  -17.5971   20.5647 C   0  0  0  0  0  0
  -32.6673  -21.0729   19.2268 C   0  0  0  0  0  0
  -31.3566  -25.3757   21.8972 C   0  0  0  0  0  0
  -31.7498  -21.5897   25.2590 C   0  0  0  0  0  0
  -30.0461  -25.4400   21.0954 C   0  0  0  0  0  0
  -30.2922  -21.4008   25.7252 C   0  0  0  0  0  0
  -29.4965  -20.3383   24.9394 C   0  0  0  0  0  0
  -30.5813  -19.0848   20.8063 C   0  0  0  0  0  0
  -32.1112  -19.2731   20.8742 C   0  0  0  0  0  0
  -30.6397  -16.6576   21.7066 C   0  0  0  0  0  0
  -29.4442  -26.8453   20.9279 C   0  0  0  0  0  0
  -28.1325  -19.9886   25.5731 C   0  0  0  0  0  0
  -30.1020  -17.6277   20.6263 C   0  0  1  0  0  0
  -32.1605  -21.2363   22.8748 N   0  0  0  0  0  0
  -30.1805  -15.2852   21.4805 N   0  0  0  0  0  0
  -32.5147  -20.6605   20.6203 N   0  0  0  0  0  0
  -31.4632  -12.3931   19.1040 H   0  0  0  0  0  0
  -30.3202  -11.2734   19.7847 H   0  0  0  0  0  0
  -29.7239  -11.8115   17.4050 H   0  0  0  0  0  0
  -29.6544  -13.5146   17.7889 H   0  0  0  0  0  0
  -27.8208  -11.3143   18.8038 H   0  0  0  0  0  0
  -27.3575  -12.6547   17.7901 H   0  0  0  0  0  0
  -27.7196  -14.2536   19.5980 H   0  0  0  0  0  0
  -28.6692  -11.9117   21.3184 H   0  0  0  0  0  0
  -28.4538  -13.5329   21.8876 H   0  0  0  0  0  0
  -25.2760   -9.5690   22.4749 H   0  0  0  0  0  0
  -24.0008   -7.4633   22.7462 H   0  0  0  0  0  0
  -21.0841   -8.8769   19.8940 H   0  0  0  0  0  0
  -22.3695  -10.9671   19.6151 H   0  0  0  0  0  0
  -21.2004   -7.6153   23.9724 H   0  0  0  0  0  0
  -21.1476   -6.0518   25.9079 H   0  0  0  0  0  0
  -22.0599   -2.7614   23.2838 H   0  0  0  0  0  0
  -22.4111  -11.9875   22.4762 H   0  0  0  0  0  0
  -21.1122  -13.1247   22.2608 H   0  0  0  0  0  0
  -24.6696  -15.8457   20.5195 H   0  0  0  0  0  0
  -26.2928  -15.6252   20.1066 H   0  0  0  0  0  0
  -26.7053  -32.5597   23.1200 H   0  0  0  0  0  0
  -25.0008  -33.9846   25.0511 H   0  0  0  0  0  0
  -22.6849  -31.3075   21.4178 H   0  0  0  0  0  0
  -23.3761  -35.9633   23.3315 H   0  0  0  0  0  0
  -24.3569  -36.8904   22.2047 H   0  0  0  0  0  0
  -23.7213  -37.6521   23.6634 H   0  0  0  0  0  0
  -26.0305  -31.6099   20.5970 H   0  0  0  0  0  0
  -26.8122  -30.9045   21.9838 H   0  0  0  0  0  0
  -28.0975  -29.1662   21.1691 H   0  0  0  0  0  0
  -26.1073  -25.9986   19.0147 H   0  0  0  0  0  0
  -23.9937  -27.2955   19.0438 H   0  0  0  0  0  0
  -23.7144  -30.6010   19.4115 H   0  0  0  0  0  0
  -22.7373  -29.2401   19.8766 H   0  0  0  0  0  0
  -25.1280  -36.2014   25.0847 H   0  0  0  0  0  0
  -20.9944  -28.3171   24.1467 H   0  0  0  0  0  0
  -20.5684  -26.2218   23.3591 H   0  0  0  0  0  0
  -21.6629  -26.7441   22.1187 H   0  0  0  0  0  0
  -19.6904  -25.6321   21.1201 H   0  0  0  0  0  0
  -19.6698  -27.3249   20.6790 H   0  0  0  0  0  0
  -17.4198  -26.6698   21.4017 H   0  0  0  0  0  0
  -18.0303  -26.0073   22.9009 H   0  0  0  0  0  0
  -19.7925  -30.7265   24.2273 H   0  0  0  0  0  0
  -17.5014  -31.6272   24.5174 H   0  0  0  0  0  0
  -15.5345  -30.3003   23.7680 H   0  0  0  0  0  0
  -15.8655  -28.0867   22.7028 H   0  0  0  0  0  0
  -24.5823  -30.7178   25.7822 H   0  0  0  0  0  0
  -24.8982  -32.2931   26.5003 H   0  0  0  0  0  0
  -25.8042  -30.8841   27.0230 H   0  0  0  0  0  0
  -26.2822  -29.6865   24.1111 H   0  0  0  0  0  0
  -27.4034  -29.7295   25.4527 H   0  0  0  0  0  0
  -27.8652  -30.4439   23.9250 H   0  0  0  0  0  0
  -27.2680  -33.3607   26.2118 H   0  0  0  0  0  0
  -28.3798  -32.6912   25.0260 H   0  0  0  0  0  0
  -28.0758  -31.8421   26.5330 H   0  0  0  0  0  0
  -28.2605  -38.0107   24.7525 H   0  0  0  0  0  0
  -28.1082  -36.2648   24.6275 H   0  0  0  0  0  0
  -27.2311  -37.1433   25.8864 H   0  0  0  0  0  0
  -20.9276  -29.8744   21.7007 H   0  0  0  0  0  0
  -26.0205  -38.2893   24.1429 H   0  0  0  0  0  0
  -31.3826  -24.1682   24.3838 H   0  0  0  0  0  0
  -32.0777  -23.3465   20.2222 H   0  0  0  0  0  0
  -26.5569  -18.4967   25.3398 H   0  0  0  0  0  0
  -28.1503  -17.9171   24.8836 H   0  0  0  0  0  0
  -27.2738  -19.0069   23.8151 H   0  0  0  0  0  0
  -26.1999  -20.9037   26.0164 H   0  0  0  0  0  0
  -26.9842  -21.5731   24.5897 H   0  0  0  0  0  0
  -27.5487  -22.0029   26.2025 H   0  0  0  0  0  0
  -28.1798  -18.3276   19.8513 H   0  0  0  0  0  0
  -28.1257  -17.8268   21.5373 H   0  0  0  0  0  0
  -28.1909  -16.6223   20.2531 H   0  0  0  0  0  0
  -33.4316  -21.8451   19.1309 H   0  0  0  0  0  0
  -31.7286  -21.4616   18.8307 H   0  0  0  0  0  0
  -32.9726  -20.2344   18.6007 H   0  0  0  0  0  0
  -32.1751  -25.8168   21.3265 H   0  0  0  0  0  0
  -31.2613  -25.9644   22.8102 H   0  0  0  0  0  0
  -32.2594  -22.2786   25.9328 H   0  0  0  0  0  0
  -32.2921  -20.6466   25.3380 H   0  0  0  0  0  0
  -29.3019  -24.8149   21.5913 H   0  0  0  0  0  0
  -30.2096  -24.9902   20.1154 H   0  0  0  0  0  0
  -29.7808  -22.3618   25.6739 H   0  0  0  0  0  0
  -30.3100  -21.1225   26.7787 H   0  0  0  0  0  0
  -30.0998  -19.4306   24.8800 H   0  0  0  0  0  0
  -29.3527  -20.6681   23.9085 H   0  0  0  0  0  0
  -30.1986  -19.6669   19.9662 H   0  0  0  0  0  0
  -30.1248  -19.5163   21.6982 H   0  0  0  0  0  0
  -32.5887  -18.6353   20.1297 H   0  0  0  0  0  0
  -32.4964  -18.9352   21.8373 H   0  0  0  0  0  0
  -30.3052  -16.9765   22.6945 H   0  0  0  0  0  0
  -31.7306  -16.6733   21.7348 H   0  0  0  0  0  0
  -30.1773  -27.5456   20.5255 H   0  0  0  0  0  0
  -29.1086  -27.2175   21.8970 H   0  0  0  0  0  0
  -28.3097  -19.6894   26.6072 H   0  0  0  0  0  0
  -30.4756  -17.2909   19.6575 H   0  0  0  0  0  0
  -29.3213  -15.0045   21.9291 H   0  0  0  0  0  0
  1 25  1  0  0  0
  1 30  2  0  0  0
  1 92  1  0  0  0
  2  3  1  0  0  0
  2 25  1  0  0  0
  2 94  1  0  0  0
  2 95  1  0  0  0
  3  4  1  0  0  0
  3 96  1  0  0  0
  3 97  1  0  0  0
  4  5  1  0  0  0
  4 98  1  0  0  0
  4 99  1  0  0  0
  5  6  1  0  0  0
  5 26  1  0  0  0
  5100  1  0  0  0
  6 25  1  0  0  0
  6101  1  0  0  0
  6102  1  0  0  0
  7  8  2  0  0  0
  7 26  1  0  0  0
  7 29  1  0  0  0
  8  9  1  0  0  0
  8 22  1  0  0  0
  9 10  1  0  0  0
  9 27  2  0  0  0
 10 11  2  0  0  0
 10 15  1  0  0  0
 11 12  1  0  0  0
 11103  1  0  0  0
 12 13  2  0  0  0
 12104  1  0  0  0
 13 14  1  0  0  0
 13 31  1  0  0  0
 14 15  2  0  0  0
 14105  1  0  0  0
 15106  1  0  0  0
 16 17  2  0  0  0
 16 21  1  0  0  0
 16 31  1  0  0  0
 17 18  1  0  0  0
 17107  1  0  0  0
 18 19  2  0  0  0
 18108  1  0  0  0
 19 20  1  0  0  0
 19 24  1  0  0  0
 20 21  2  0  0  0
 20109  1  0  0  0
 21 23  1  0  0  0
 22 28  1  0  0  0
 22 32  2  0  0  0
 26 27  1  0  0  0
 28110  1  0  0  0
 28111  1  0  0  0
 29112  1  0  0  0
 29113  1  0  0  0
 33 34  1  0  0  0
 33 66  1  0  0  0
 33 70  2  0  0  0
 34 36  1  0  0  0
 34 59  1  0  0  0
 34114  1  0  0  0
 35 44  2  0  0  0
 35 45  1  0  0  0
 35 68  1  0  0  0
 36 56  1  0  0  0
 36115  1  0  0  0
 37 39  1  0  0  0
 37 47  1  0  0  0
 37 66  1  0  0  0
 37116  1  0  0  0
 38 43  2  0  0  0
 38 46  1  0  0  0
 38 47  1  0  0  0
 39 64  1  0  0  0
 39 67  2  0  0  0
 40 52  1  0  0  0
 40 53  2  0  0  0
 40 58  1  0  0  0
 41117  1  0  0  0
 41118  1  0  0  0
 41119  1  0  0  0
 41 48  1  0  0  0
 42 43  1  0  0  0
 42 66  1  0  0  0
 42120  1  0  0  0
 42121  1  0  0  0
 43 44  1  0  0  0
 44122  1  0  0  0
 45 46  2  0  0  0
 45123  1  0  0  0
 46124  1  0  0  0
 47125  1  0  0  0
 47126  1  0  0  0
 48 56  1  0  0  0
 48 65  1  0  0  0
 48127  1  0  0  0
 49 50  1  0  0  0
 49 53  1  0  0  0
 49 64  1  0  0  0
 49128  1  0  0  0
 50 51  1  0  0  0
 50129  1  0  0  0
 50130  1  0  0  0
 51 52  1  0  0  0
 51131  1  0  0  0
 51132  1  0  0  0
 52133  1  0  0  0
 52134  1  0  0  0
 53 54  1  0  0  0
 54 55  2  0  0  0
 54135  1  0  0  0
 55 57  1  0  0  0
 55136  1  0  0  0
 56 69  2  0  0  0
 57 58  2  0  0  0
 57137  1  0  0  0
 58138  1  0  0  0
 59 60  1  0  0  0
 59 61  1  0  0  0
 59 62  1  0  0  0
 60139  1  0  0  0
 60140  1  0  0  0
 60141  1  0  0  0
 61142  1  0  0  0
 61143  1  0  0  0
 61144  1  0  0  0
 62145  1  0  0  0
 62146  1  0  0  0
 62147  1  0  0  0
 63 65  1  0  0  0
 63148  1  0  0  0
 63149  1  0  0  0
 63150  1  0  0  0
 64151  1  0  0  0
 65152  1  0  0  0
 68 88  1  0  0  0
 71 73  2  0  0  0
 71 74  1  0  0  0
 71153  1  0  0  0
 72 73  1  0  0  0
 72 75  2  0  0  0
 72154  1  0  0  0
 73 80  1  0  0  0
 74 81  1  0  0  0
 74 91  2  0  0  0
 75 91  1  0  0  0
 75 93  1  0  0  0
 76155  1  0  0  0
 76156  1  0  0  0
 76157  1  0  0  0
 76 89  1  0  0  0
 77 89  1  0  0  0
 77158  1  0  0  0
 77159  1  0  0  0
 77160  1  0  0  0
 78161  1  0  0  0
 78162  1  0  0  0
 78163  1  0  0  0
 78 90  1  0  0  0
 79 93  1  0  0  0
 79164  1  0  0  0
 79165  1  0  0  0
 79166  1  0  0  0
 80 82  1  0  0  0
 80167  1  0  0  0
 80168  1  0  0  0
 81 83  1  0  0  0
 81169  1  0  0  0
 81170  1  0  0  0
 82 88  1  0  0  0
 82171  1  0  0  0
 82172  1  0  0  0
 83 84  1  0  0  0
 83173  1  0  0  0
 83174  1  0  0  0
 84 89  1  0  0  0
 84175  1  0  0  0
 84176  1  0  0  0
 85 86  1  0  0  0
 85 90  1  0  0  0
 85177  1  0  0  0
 85178  1  0  0  0
 86 93  1  0  0  0
 86179  1  0  0  0
 86180  1  0  0  0
 87 90  1  0  0  0
 87 92  1  0  0  0
 87181  1  0  0  0
 87182  1  0  0  0
 88183  1  0  0  0
 88184  1  0  0  0
 89185  1  0  0  0
 90186  1  0  0  0
 92187  1  0  0  0
M  ISO  4   1 100  68 101  88 101  92 100
M  END
> <chiral flag>
0

> <version>
0

> <s_m_source_file>
/data/baiqing/PycharmProjects/Reinvent-master-3.2/result/LINK_invent/BTK/process_docking_weight1_custom_sum_contain_oxygen_bond_distance_aromatic_linkinvent_7_9_3/rearranged_h_0091.sdf

> <i_m_source_file_index>
89

> <r_mmod_Potential_Energy-OPLS-2005>
-338.112213134766

> <r_mmod_Stretch_Energy-OPLS-2005>
34.2553749084473

> <r_mmod_Bend_Energy-OPLS-2005>
115.031311035156

> <r_mmod_Torsional_Energy-OPLS-2005>
193.981262207031

> <r_mmod_Improper_Torsional_Energy-OPLS-2005>
3.69366240501404

> <r_mmod_Van_der_Waal_Energy-OPLS-2005>
152.622833251953

> <r_mmod_Electrostatic_Energy-OPLS-2005>
-615.086853027344

> <r_mmod_Solvation_Energy-OPLS-2005>
-229.295349121094

> <b_mmod_Minimization_Converged-OPLS-2005>
0

> <r_mmod_RMS_Derivative-OPLS-2005>
1.85707986354828

$$$$
90
                    3D
 Structure written by MMmdl.
172180  0  0  1  0            999 V2000
  -30.6301  -14.5707   20.5107 C   0  0  0  0  0  0
  -30.4384  -12.3500   19.4431 C   0  0  0  0  0  0
  -29.5063  -12.4996   18.2207 C   0  0  0  0  0  0
  -28.0278  -12.3458   18.6323 C   0  0  0  0  0  0
  -27.6576  -13.2023   19.8724 C   0  0  2  0  0  0
  -28.7013  -13.0209   20.9993 C   0  0  0  0  0  0
  -25.2563  -13.8051   20.5681 C   0  0  0  0  0  0
  -24.1818  -13.0370   20.9215 C   0  0  0  0  0  0
  -24.6380  -11.6841   20.8768 C   0  0  0  0  0  0
  -23.9046  -10.4244   21.0421 C   0  0  0  0  0  0
  -24.3601   -9.4165   21.9200 C   0  0  0  0  0  0
  -23.6276   -8.2207   22.0761 C   0  0  0  0  0  0
  -22.4257   -8.0254   21.3548 C   0  0  0  0  0  0
  -21.9895   -9.0226   20.4653 C   0  0  0  0  0  0
  -22.7222  -10.2102   20.3065 C   0  0  0  0  0  0
  -21.6832   -6.0724   22.5283 C   0  0  0  0  0  0
  -21.3997   -6.5631   23.8212 C   0  0  0  0  0  0
  -21.3658   -5.6786   24.9182 C   0  0  0  0  0  0
  -21.6042   -4.3049   24.7227 C   0  0  0  0  0  0
  -21.8822   -3.8139   23.4350 C   0  0  0  0  0  0
  -21.9184   -4.6959   22.3406 C   0  0  0  0  0  0
  -22.7851  -13.5206   21.1861 C   0  0  0  0  0  0
  -22.1655   -4.2151   21.0987 F   0  0  0  0  0  0
  -21.5636   -3.4535   25.7740 F   0  0  0  0  0  0
  -30.0241  -13.3500   20.4421 N   0  0  0  0  0  0
  -26.3003  -12.9245   20.3363 N   0  0  0  0  0  0
  -25.9311  -11.6413   20.5789 N   0  0  0  0  0  0
  -22.0461  -12.8228   22.0418 N   0  0  0  0  0  0
  -25.4254  -15.1717   20.4013 N   0  0  0  0  0  0
  -31.7760  -14.7681   20.0964 O   0  0  0  0  0  0
  -21.6614   -6.8862   21.4241 O   0  0  0  0  0  0
  -22.3568  -14.5525   20.6705 O   0  0  0  0  0  0
  -24.6177  -31.8626   23.2025 C   0  0  0  0  0  0
  -25.9042  -32.4798   23.8340 C   0  0  1  0  0  0
  -27.2483  -27.3900   20.0924 C   0  0  0  0  0  0
  -25.5869  -33.8597   24.2267 N   0  0  0  0  0  0
  -23.4082  -30.4815   21.5449 C   0  0  2  0  0  0
  -24.8564  -28.9355   20.1135 C   0  0  0  0  0  0
  -22.7415  -29.4628   22.4978 C   0  0  0  0  0  0
  -18.0265  -28.1375   22.8500 C   0  0  0  0  0  0
  -24.1475  -36.7303   23.2644 C   0  0  0  0  0  0
  -25.9399  -30.8122   21.3620 C   0  0  0  0  0  0
  -26.0162  -29.4414   20.7113 C   0  0  0  0  0  0
  -27.2078  -28.6741   20.6984 C   0  0  0  0  0  0
  -26.0601  -26.9005   19.5025 C   0  0  0  0  0  0
  -24.8754  -27.6658   19.5098 C   0  0  0  0  0  0
  -23.6163  -29.8031   20.1637 C   0  0  0  0  0  0
  -25.4102  -36.3098   24.0334 C   0  0  1  0  0  0
  -20.5859  -28.3656   23.1319 C   0  0  2  0  0  0
  -20.6756  -26.9390   22.5427 C   0  0  0  0  0  0
  -19.5735  -26.6378   21.5224 C   0  0  0  0  0  0
  -18.1911  -26.7922   22.1631 C   0  0  0  0  0  0
  -19.1518  -28.8832   23.2909 C   0  0  0  0  0  0
  -18.9454  -30.1436   23.8919 C   0  0  0  0  0  0
  -17.6461  -30.6591   24.0562 C   0  0  0  0  0  0
  -25.9033  -34.9468   23.5110 C   0  0  0  0  0  0
  -16.5348  -29.9095   23.6333 C   0  0  0  0  0  0
  -16.7257  -28.6504   23.0365 C   0  0  0  0  0  0
  -26.4452  -31.6607   25.0700 C   0  0  0  0  0  0
  -25.3697  -31.3762   26.1441 C   0  0  0  0  0  0
  -27.0291  -30.3038   24.6118 C   0  0  0  0  0  0
  -27.6005  -32.4348   25.7475 C   0  0  0  0  0  0
  -27.5574  -37.1798   24.8461 C   0  0  0  0  0  0
  -21.4138  -29.3025   22.3721 N   0  0  0  0  0  0
  -26.4284  -37.3790   23.9415 N   0  0  0  0  0  0
  -24.6738  -31.0676   22.0947 N   0  0  0  0  0  0
  -23.4168  -28.8188   23.3051 O   0  0  0  0  0  0
  -28.4428  -26.6787   20.1203 O   0  0  0  0  0  0
  -26.5621  -34.8936   22.4688 O   0  0  0  0  0  0
  -23.5356  -32.1395   23.7393 O   0  0  0  0  0  0
  -27.3944  -21.2265   20.7309 C   0  0  0  0  0  0
  -29.3491  -20.2459   20.3767 C   0  0  0  0  0  0
  -28.7031  -21.4640   20.2420 C   0  0  0  0  0  0
  -27.2565  -19.9300   21.1506 C   0  0  0  0  0  0
  -30.7254  -22.8174   19.4982 C   0  0  0  0  0  0
  -29.3331  -24.3855   21.6917 C   0  0  0  0  0  0
  -25.2977  -18.4708   20.6065 C   0  0  0  0  0  0
  -24.9612  -20.3958   22.1040 C   0  0  0  0  0  0
  -26.1998  -18.4654   22.9886 C   0  0  0  0  0  0
  -28.7889  -17.8603   21.2638 C   0  0  0  0  0  0
  -29.9307  -17.0537   20.5578 C   0  0  0  0  0  0
  -28.6429  -25.4088   19.4401 C   0  0  0  0  0  0
  -29.1917  -22.8096   19.6517 C   0  0  2  0  0  0
  -28.6290  -24.1226   20.3478 C   0  0  1  0  0  0
  -25.9812  -19.3028   21.7060 C   0  0  0  0  0  0
  -28.4839  -19.2805   20.9118 N   0  0  0  0  0  0
  -29.8084  -15.5947   20.8501 N   0  0  0  0  0  0
  -31.4806  -12.4741   19.1417 H   0  0  0  0  0  0
  -30.3675  -11.3453   19.8628 H   0  0  0  0  0  0
  -29.7626  -11.7579   17.4628 H   0  0  0  0  0  0
  -29.6593  -13.4752   17.7567 H   0  0  0  0  0  0
  -27.8552  -11.2913   18.8521 H   0  0  0  0  0  0
  -27.3751  -12.5901   17.7944 H   0  0  0  0  0  0
  -27.6853  -14.2440   19.5515 H   0  0  0  0  0  0
  -28.6977  -11.9911   21.3607 H   0  0  0  0  0  0
  -28.4563  -13.6359   21.8669 H   0  0  0  0  0  0
  -25.2743   -9.5644   22.4782 H   0  0  0  0  0  0
  -23.9983   -7.4588   22.7469 H   0  0  0  0  0  0
  -21.0830   -8.8732   19.8953 H   0  0  0  0  0  0
  -22.3678  -10.9645   19.6178 H   0  0  0  0  0  0
  -21.1978   -7.6134   23.9727 H   0  0  0  0  0  0
  -21.1488   -6.0512   25.9089 H   0  0  0  0  0  0
  -22.0611   -2.7604   23.2845 H   0  0  0  0  0  0
  -22.4026  -11.9885   22.4835 H   0  0  0  0  0  0
  -21.1090  -13.1294   22.2599 H   0  0  0  0  0  0
  -24.6413  -15.8096   20.4737 H   0  0  0  0  0  0
  -26.2543  -15.6005   20.0136 H   0  0  0  0  0  0
  -26.7113  -32.5486   23.1098 H   0  0  0  0  0  0
  -24.9971  -33.9742   25.0376 H   0  0  0  0  0  0
  -22.6999  -31.2995   21.3992 H   0  0  0  0  0  0
  -23.3743  -35.9631   23.3311 H   0  0  0  0  0  0
  -24.3566  -36.8916   22.2058 H   0  0  0  0  0  0
  -23.7220  -37.6504   23.6662 H   0  0  0  0  0  0
  -26.0550  -31.5734   20.5892 H   0  0  0  0  0  0
  -26.8275  -30.8686   21.9810 H   0  0  0  0  0  0
  -28.1029  -29.0628   21.1637 H   0  0  0  0  0  0
  -26.0184  -25.9228   19.0480 H   0  0  0  0  0  0
  -23.9808  -27.2641   19.0540 H   0  0  0  0  0  0
  -23.7143  -30.5703   19.3951 H   0  0  0  0  0  0
  -22.7426  -29.2141   19.8781 H   0  0  0  0  0  0
  -25.1282  -36.1955   25.0829 H   0  0  0  0  0  0
  -20.9956  -28.3227   24.1436 H   0  0  0  0  0  0
  -20.5656  -26.2265   23.3617 H   0  0  0  0  0  0
  -21.6625  -26.7426   22.1218 H   0  0  0  0  0  0
  -19.6900  -25.6295   21.1237 H   0  0  0  0  0  0
  -19.6683  -27.3205   20.6771 H   0  0  0  0  0  0
  -17.4184  -26.6673   21.4030 H   0  0  0  0  0  0
  -18.0307  -26.0058   22.9020 H   0  0  0  0  0  0
  -19.7936  -30.7237   24.2304 H   0  0  0  0  0  0
  -17.5026  -31.6282   24.5144 H   0  0  0  0  0  0
  -15.5352  -30.3015   23.7651 H   0  0  0  0  0  0
  -15.8647  -28.0834   22.7091 H   0  0  0  0  0  0
  -24.5842  -30.7137   25.7783 H   0  0  0  0  0  0
  -24.8922  -32.2949   26.4861 H   0  0  0  0  0  0
  -25.8015  -30.8940   27.0215 H   0  0  0  0  0  0
  -26.2859  -29.6812   24.1120 H   0  0  0  0  0  0
  -27.3990  -29.7266   25.4601 H   0  0  0  0  0  0
  -27.8717  -30.4348   23.9325 H   0  0  0  0  0  0
  -27.2589  -33.3638   26.2055 H   0  0  0  0  0  0
  -28.3811  -32.6930   25.0307 H   0  0  0  0  0  0
  -28.0672  -31.8479   26.5393 H   0  0  0  0  0  0
  -28.2589  -38.0099   24.7521 H   0  0  0  0  0  0
  -28.1071  -36.2630   24.6266 H   0  0  0  0  0  0
  -27.2296  -37.1420   25.8865 H   0  0  0  0  0  0
  -20.9299  -29.8731   21.6926 H   0  0  0  0  0  0
  -26.0169  -38.2866   24.1431 H   0  0  0  0  0  0
  -26.6032  -21.9604   20.7584 H   0  0  0  0  0  0
  -30.3651  -19.9710   20.1246 H   0  0  0  0  0  0
  -31.0599  -22.0028   18.8554 H   0  0  0  0  0  0
  -31.2247  -22.6979   20.4599 H   0  0  0  0  0  0
  -31.0849  -23.7426   19.0499 H   0  0  0  0  0  0
  -28.8287  -25.1698   22.2569 H   0  0  0  0  0  0
  -30.3662  -24.7013   21.5457 H   0  0  0  0  0  0
  -29.3404  -23.4892   22.3122 H   0  0  0  0  0  0
  -24.9777  -19.1042   19.7778 H   0  0  0  0  0  0
  -24.4127  -17.9556   20.9809 H   0  0  0  0  0  0
  -25.9651  -17.7301   20.1772 H   0  0  0  0  0  0
  -24.6489  -20.9979   21.2499 H   0  0  0  0  0  0
  -25.3720  -21.0721   22.8551 H   0  0  0  0  0  0
  -24.0511  -19.9636   22.5208 H   0  0  0  0  0  0
  -26.7205  -17.5262   22.8294 H   0  0  0  0  0  0
  -25.2477  -18.1849   23.4402 H   0  0  0  0  0  0
  -26.7538  -19.0326   23.7376 H   0  0  0  0  0  0
  -28.9580  -17.8238   22.3406 H   0  0  0  0  0  0
  -27.8870  -17.2904   21.0686 H   0  0  0  0  0  0
  -30.9111  -17.4198   20.8651 H   0  0  0  0  0  0
  -29.8623  -17.1931   19.4780 H   0  0  0  0  0  0
  -27.9849  -25.2849   18.5814 H   0  0  0  0  0  0
  -29.6336  -25.4951   18.9950 H   0  0  0  0  0  0
  -28.7833  -22.8133   18.6391 H   0  0  0  0  0  0
  -27.5748  -23.9587   20.5671 H   0  0  0  0  0  0
  -28.9081  -15.2984   21.1961 H   0  0  0  0  0  0
  1 25  1  0  0  0
  1 30  2  0  0  0
  1 87  1  0  0  0
  2  3  1  0  0  0
  2 25  1  0  0  0
  2 88  1  0  0  0
  2 89  1  0  0  0
  3  4  1  0  0  0
  3 90  1  0  0  0
  3 91  1  0  0  0
  4  5  1  0  0  0
  4 92  1  0  0  0
  4 93  1  0  0  0
  5  6  1  0  0  0
  5 26  1  0  0  0
  5 94  1  0  0  0
  6 25  1  0  0  0
  6 95  1  0  0  0
  6 96  1  0  0  0
  7  8  2  0  0  0
  7 26  1  0  0  0
  7 29  1  0  0  0
  8  9  1  0  0  0
  8 22  1  0  0  0
  9 10  1  0  0  0
  9 27  2  0  0  0
 10 11  2  0  0  0
 10 15  1  0  0  0
 11 12  1  0  0  0
 11 97  1  0  0  0
 12 13  2  0  0  0
 12 98  1  0  0  0
 13 14  1  0  0  0
 13 31  1  0  0  0
 14 15  2  0  0  0
 14 99  1  0  0  0
 15100  1  0  0  0
 16 17  2  0  0  0
 16 21  1  0  0  0
 16 31  1  0  0  0
 17 18  1  0  0  0
 17101  1  0  0  0
 18 19  2  0  0  0
 18102  1  0  0  0
 19 20  1  0  0  0
 19 24  1  0  0  0
 20 21  2  0  0  0
 20103  1  0  0  0
 21 23  1  0  0  0
 22 28  1  0  0  0
 22 32  2  0  0  0
 26 27  1  0  0  0
 28104  1  0  0  0
 28105  1  0  0  0
 29106  1  0  0  0
 29107  1  0  0  0
 33 34  1  0  0  0
 33 66  1  0  0  0
 33 70  2  0  0  0
 34 36  1  0  0  0
 34 59  1  0  0  0
 34108  1  0  0  0
 35 44  2  0  0  0
 35 45  1  0  0  0
 35 68  1  0  0  0
 36 56  1  0  0  0
 36109  1  0  0  0
 37 39  1  0  0  0
 37 47  1  0  0  0
 37 66  1  0  0  0
 37110  1  0  0  0
 38 43  2  0  0  0
 38 46  1  0  0  0
 38 47  1  0  0  0
 39 64  1  0  0  0
 39 67  2  0  0  0
 40 52  1  0  0  0
 40 53  2  0  0  0
 40 58  1  0  0  0
 41111  1  0  0  0
 41112  1  0  0  0
 41113  1  0  0  0
 41 48  1  0  0  0
 42 43  1  0  0  0
 42 66  1  0  0  0
 42114  1  0  0  0
 42115  1  0  0  0
 43 44  1  0  0  0
 44116  1  0  0  0
 45 46  2  0  0  0
 45117  1  0  0  0
 46118  1  0  0  0
 47119  1  0  0  0
 47120  1  0  0  0
 48 56  1  0  0  0
 48 65  1  0  0  0
 48121  1  0  0  0
 49 50  1  0  0  0
 49 53  1  0  0  0
 49 64  1  0  0  0
 49122  1  0  0  0
 50 51  1  0  0  0
 50123  1  0  0  0
 50124  1  0  0  0
 51 52  1  0  0  0
 51125  1  0  0  0
 51126  1  0  0  0
 52127  1  0  0  0
 52128  1  0  0  0
 53 54  1  0  0  0
 54 55  2  0  0  0
 54129  1  0  0  0
 55 57  1  0  0  0
 55130  1  0  0  0
 56 69  2  0  0  0
 57 58  2  0  0  0
 57131  1  0  0  0
 58132  1  0  0  0
 59 60  1  0  0  0
 59 61  1  0  0  0
 59 62  1  0  0  0
 60133  1  0  0  0
 60134  1  0  0  0
 60135  1  0  0  0
 61136  1  0  0  0
 61137  1  0  0  0
 61138  1  0  0  0
 62139  1  0  0  0
 62140  1  0  0  0
 62141  1  0  0  0
 63 65  1  0  0  0
 63142  1  0  0  0
 63143  1  0  0  0
 63144  1  0  0  0
 64145  1  0  0  0
 65146  1  0  0  0
 68 82  1  0  0  0
 71 73  1  0  0  0
 71 74  2  0  0  0
 71147  1  0  0  0
 72 73  2  0  0  0
 72 86  1  0  0  0
 72148  1  0  0  0
 73 83  1  0  0  0
 74 85  1  0  0  0
 74 86  1  0  0  0
 75149  1  0  0  0
 75150  1  0  0  0
 75151  1  0  0  0
 75 83  1  0  0  0
 76152  1  0  0  0
 76153  1  0  0  0
 76154  1  0  0  0
 76 84  1  0  0  0
 77155  1  0  0  0
 77156  1  0  0  0
 77157  1  0  0  0
 77 85  1  0  0  0
 78 85  1  0  0  0
 78158  1  0  0  0
 78159  1  0  0  0
 78160  1  0  0  0
 79 85  1  0  0  0
 79161  1  0  0  0
 79162  1  0  0  0
 79163  1  0  0  0
 80 81  1  0  0  0
 80 86  1  0  0  0
 80164  1  0  0  0
 80165  1  0  0  0
 81 87  1  0  0  0
 81166  1  0  0  0
 81167  1  0  0  0
 82 84  1  0  0  0
 82168  1  0  0  0
 82169  1  0  0  0
 83 84  1  0  0  0
 83170  1  0  0  0
 84171  1  0  0  0
 87172  1  0  0  0
M  ISO  4   1 100  68 101  82 101  87 100
M  END
> <chiral flag>
0

> <version>
0

> <s_m_source_file>
/data/baiqing/PycharmProjects/Reinvent-master-3.2/result/LINK_invent/BTK/process_docking_weight1_custom_sum_contain_oxygen_bond_distance_aromatic_linkinvent_7_9_3/rearranged_h_0091.sdf

> <i_m_source_file_index>
90

> <r_mmod_Potential_Energy-OPLS-2005>
-34.8966903686523

> <r_mmod_Stretch_Energy-OPLS-2005>
58.6440124511719

> <r_mmod_Bend_Energy-OPLS-2005>
151.271682739258

> <r_mmod_Torsional_Energy-OPLS-2005>
230.733520507812

> <r_mmod_Improper_Torsional_Energy-OPLS-2005>
6.39968967437744

> <r_mmod_Van_der_Waal_Energy-OPLS-2005>
128.693176269531

> <r_mmod_Electrostatic_Energy-OPLS-2005>
-439.514312744141

> <r_mmod_Solvation_Energy-OPLS-2005>
-196.872787475586

> <b_mmod_Minimization_Converged-OPLS-2005>
0

> <r_mmod_RMS_Derivative-OPLS-2005>
1.45710372924805

$$$$
91
                    3D
 Structure written by MMmdl.
170178  0  0  1  0            999 V2000
  -30.7251  -14.4689   20.4029 C   0  0  0  0  0  0
  -30.4203  -12.2594   19.4356 C   0  0  0  0  0  0
  -29.4973  -12.4377   18.2108 C   0  0  0  0  0  0
  -28.0196  -12.3134   18.6282 C   0  0  0  0  0  0
  -27.6551  -13.2058   19.8451 C   0  0  2  0  0  0
  -28.7091  -13.0903   20.9746 C   0  0  0  0  0  0
  -25.2594  -13.8176   20.5644 C   0  0  0  0  0  0
  -24.1855  -13.0445   20.9172 C   0  0  0  0  0  0
  -24.6444  -11.6926   20.8780 C   0  0  0  0  0  0
  -23.9122  -10.4317   21.0457 C   0  0  0  0  0  0
  -24.3667   -9.4208   21.9214 C   0  0  0  0  0  0
  -23.6313   -8.2252   22.0765 C   0  0  0  0  0  0
  -22.4293   -8.0309   21.3541 C   0  0  0  0  0  0
  -21.9941   -9.0302   20.4641 C   0  0  0  0  0  0
  -22.7306  -10.2169   20.3078 C   0  0  0  0  0  0
  -21.6854   -6.0755   22.5279 C   0  0  0  0  0  0
  -21.4011   -6.5643   23.8214 C   0  0  0  0  0  0
  -21.3639   -5.6788   24.9166 C   0  0  0  0  0  0
  -21.6043   -4.3055   24.7227 C   0  0  0  0  0  0
  -21.8824   -3.8152   23.4349 C   0  0  0  0  0  0
  -21.9198   -4.6978   22.3402 C   0  0  0  0  0  0
  -22.7869  -13.5229   21.1832 C   0  0  0  0  0  0
  -22.1655   -4.2148   21.0988 F   0  0  0  0  0  0
  -21.5635   -3.4540   25.7750 F   0  0  0  0  0  0
  -30.0384  -13.3019   20.3897 N   0  0  0  0  0  0
  -26.3023  -12.9345   20.3270 N   0  0  0  0  0  0
  -25.9373  -11.6514   20.5823 N   0  0  0  0  0  0
  -22.0547  -12.8213   22.0410 N   0  0  0  0  0  0
  -25.4328  -15.1884   20.4009 N   0  0  0  0  0  0
  -31.9421  -14.5408   20.2640 O   0  0  0  0  0  0
  -21.6629   -6.8918   21.4255 O   0  0  0  0  0  0
  -22.3535  -14.5516   20.6675 O   0  0  0  0  0  0
  -24.6148  -31.8691   23.2138 C   0  0  0  0  0  0
  -25.9055  -32.4812   23.8419 C   0  0  1  0  0  0
  -27.2298  -27.4633   20.0753 C   0  0  0  0  0  0
  -25.5934  -33.8608   24.2352 N   0  0  0  0  0  0
  -23.4000  -30.4970   21.5532 C   0  0  2  0  0  0
  -24.8448  -28.9676   20.1142 C   0  0  0  0  0  0
  -22.7400  -29.4686   22.4993 C   0  0  0  0  0  0
  -18.0310  -28.1354   22.8473 C   0  0  0  0  0  0
  -24.1496  -36.7327   23.2637 C   0  0  0  0  0  0
  -25.9263  -30.8404   21.3658 C   0  0  0  0  0  0
  -26.0018  -29.4746   20.7189 C   0  0  0  0  0  0
  -27.1980  -28.7223   20.7131 C   0  0  0  0  0  0
  -26.0700  -26.9843   19.4375 C   0  0  0  0  0  0
  -24.8692  -27.7163   19.4780 C   0  0  0  0  0  0
  -23.6048  -29.8315   20.1667 C   0  0  0  0  0  0
  -25.4108  -36.3095   24.0336 C   0  0  1  0  0  0
  -20.5885  -28.3673   23.1302 C   0  0  2  0  0  0
  -20.6793  -26.9410   22.5405 C   0  0  0  0  0  0
  -19.5808  -26.6465   21.5143 C   0  0  0  0  0  0
  -18.1992  -26.7912   22.1592 C   0  0  0  0  0  0
  -19.1541  -28.8826   23.2900 C   0  0  0  0  0  0
  -18.9456  -30.1431   23.8913 C   0  0  0  0  0  0
  -17.6453  -30.6548   24.0575 C   0  0  0  0  0  0
  -25.9036  -34.9456   23.5129 C   0  0  0  0  0  0
  -16.5360  -29.9044   23.6313 C   0  0  0  0  0  0
  -16.7300  -28.6463   23.0313 C   0  0  0  0  0  0
  -26.4501  -31.6572   25.0729 C   0  0  0  0  0  0
  -25.3799  -31.3679   26.1508 C   0  0  0  0  0  0
  -27.0343  -30.3021   24.6078 C   0  0  0  0  0  0
  -27.6076  -32.4288   25.7490 C   0  0  0  0  0  0
  -27.5576  -37.1825   24.8461 C   0  0  0  0  0  0
  -21.4133  -29.3064   22.3712 N   0  0  0  0  0  0
  -26.4300  -37.3769   23.9397 N   0  0  0  0  0  0
  -24.6646  -31.0821   22.1023 N   0  0  0  0  0  0
  -23.4164  -28.8215   23.3015 O   0  0  0  0  0  0
  -28.3657  -26.6906   20.0552 O   0  0  0  0  0  0
  -26.5559  -34.8909   22.4666 O   0  0  0  0  0  0
  -23.5346  -32.1413   23.7574 O   0  0  0  0  0  0
  -28.6089  -21.2718   19.7279 C   0  0  0  0  0  0
  -29.1990  -20.0545   19.3582 C   0  0  0  0  0  0
  -27.2681  -21.2834   20.1600 C   0  0  0  0  0  0
  -28.4345  -18.8779   19.4299 C   0  0  0  0  0  0
  -26.5610  -20.0509   20.1413 C   0  0  0  0  0  0
  -24.2260  -19.9044   19.1843 C   0  0  0  0  0  0
  -28.7713  -23.7328   22.4362 C   0  0  0  0  0  0
  -30.0477  -17.2609   21.4398 C   0  0  0  0  0  0
  -26.5894  -22.5624   20.6587 C   0  0  0  0  0  0
  -29.0438  -17.5285   19.0775 C   0  0  0  0  0  0
  -25.0771  -19.9319   20.4636 C   0  0  0  0  0  0
  -27.2241  -23.9464   20.3617 C   0  0  0  0  0  0
  -28.5797  -25.9563   21.2638 C   0  0  0  0  0  0
  -28.5256  -24.4145   21.0771 C   0  0  1  0  0  0
  -29.3199  -16.5708   20.2686 C   0  0  1  0  0  0
  -27.1369  -18.8824   19.7836 N   0  0  0  0  0  0
  -30.0721  -15.4267   19.7442 N   0  0  0  0  0  0
  -31.4707  -12.3235   19.1408 H   0  0  0  0  0  0
  -30.2926  -11.2727   19.8855 H   0  0  0  0  0  0
  -29.7300  -11.6870   17.4553 H   0  0  0  0  0  0
  -29.6665  -13.4086   17.7421 H   0  0  0  0  0  0
  -27.8425  -11.2664   18.8741 H   0  0  0  0  0  0
  -27.3648  -12.5313   17.7866 H   0  0  0  0  0  0
  -27.6677  -14.2266   19.4663 H   0  0  0  0  0  0
  -28.6635  -12.1145   21.4591 H   0  0  0  0  0  0
  -28.5168  -13.8378   21.7461 H   0  0  0  0  0  0
  -25.2866   -9.5614   22.4729 H   0  0  0  0  0  0
  -23.9988   -7.4633   22.7480 H   0  0  0  0  0  0
  -21.0853   -8.8877   19.8947 H   0  0  0  0  0  0
  -22.3841  -10.9706   19.6129 H   0  0  0  0  0  0
  -21.2007   -7.6153   23.9713 H   0  0  0  0  0  0
  -21.1433   -6.0522   25.9056 H   0  0  0  0  0  0
  -22.0631   -2.7621   23.2871 H   0  0  0  0  0  0
  -22.4171  -11.9810   22.4681 H   0  0  0  0  0  0
  -21.1197  -13.1220   22.2733 H   0  0  0  0  0  0
  -24.6804  -15.8613   20.5020 H   0  0  0  0  0  0
  -26.2960  -15.6151   20.0919 H   0  0  0  0  0  0
  -26.7149  -32.5544   23.1213 H   0  0  0  0  0  0
  -25.0174  -33.9753   25.0556 H   0  0  0  0  0  0
  -22.6918  -31.3162   21.4150 H   0  0  0  0  0  0
  -23.3723  -35.9698   23.3308 H   0  0  0  0  0  0
  -24.3606  -36.8920   22.2055 H   0  0  0  0  0  0
  -23.7291  -37.6561   23.6628 H   0  0  0  0  0  0
  -26.0328  -31.6064   20.5967 H   0  0  0  0  0  0
  -26.8168  -30.8983   21.9794 H   0  0  0  0  0  0
  -28.0920  -29.1034   21.1873 H   0  0  0  0  0  0
  -26.0928  -26.0481   18.9032 H   0  0  0  0  0  0
  -23.9841  -27.3249   18.9964 H   0  0  0  0  0  0
  -23.7106  -30.6045   19.4036 H   0  0  0  0  0  0
  -22.7297  -29.2490   19.8745 H   0  0  0  0  0  0
  -25.1283  -36.1971   25.0831 H   0  0  0  0  0  0
  -21.0000  -28.3236   24.1416 H   0  0  0  0  0  0
  -20.5592  -26.2269   23.3557 H   0  0  0  0  0  0
  -21.6688  -26.7435   22.1281 H   0  0  0  0  0  0
  -19.7010  -25.6427   21.1038 H   0  0  0  0  0  0
  -19.6742  -27.3397   20.6757 H   0  0  0  0  0  0
  -17.4265  -26.6616   21.4008 H   0  0  0  0  0  0
  -18.0470  -26.0023   22.8965 H   0  0  0  0  0  0
  -19.7933  -30.7240   24.2275 H   0  0  0  0  0  0
  -17.4994  -31.6230   24.5158 H   0  0  0  0  0  0
  -15.5349  -30.2950   23.7559 H   0  0  0  0  0  0
  -15.8717  -28.0790   22.6980 H   0  0  0  0  0  0
  -24.5962  -30.7005   25.7902 H   0  0  0  0  0  0
  -24.9009  -32.2842   26.4978 H   0  0  0  0  0  0
  -25.8201  -30.8862   27.0251 H   0  0  0  0  0  0
  -26.2880  -29.6785   24.1152 H   0  0  0  0  0  0
  -27.4143  -29.7232   25.4512 H   0  0  0  0  0  0
  -27.8698  -30.4338   23.9193 H   0  0  0  0  0  0
  -27.2667  -33.3559   26.2111 H   0  0  0  0  0  0
  -28.3862  -32.6908   25.0307 H   0  0  0  0  0  0
  -28.0778  -31.8391   26.5379 H   0  0  0  0  0  0
  -28.2600  -38.0112   24.7461 H   0  0  0  0  0  0
  -28.1052  -36.2636   24.6322 H   0  0  0  0  0  0
  -27.2287  -37.1530   25.8863 H   0  0  0  0  0  0
  -20.9289  -29.8796   21.6938 H   0  0  0  0  0  0
  -26.0185  -38.2848   24.1371 H   0  0  0  0  0  0
  -29.1968  -22.1706   19.6839 H   0  0  0  0  0  0
  -30.2274  -20.0246   19.0294 H   0  0  0  0  0  0
  -24.3658  -20.8135   18.5993 H   0  0  0  0  0  0
  -24.4998  -19.0576   18.5545 H   0  0  0  0  0  0
  -23.1647  -19.8132   19.4134 H   0  0  0  0  0  0
  -27.9529  -23.9151   23.1322 H   0  0  0  0  0  0
  -29.6805  -24.1151   22.9022 H   0  0  0  0  0  0
  -28.8954  -22.6547   22.3361 H   0  0  0  0  0  0
  -29.4963  -18.1385   21.7740 H   0  0  0  0  0  0
  -31.0499  -17.5893   21.1630 H   0  0  0  0  0  0
  -30.1322  -16.6008   22.3011 H   0  0  0  0  0  0
  -26.4144  -22.4599   21.7280 H   0  0  0  0  0  0
  -25.5983  -22.5834   20.2042 H   0  0  0  0  0  0
  -28.3858  -17.0383   18.3606 H   0  0  0  0  0  0
  -29.9742  -17.7255   18.5422 H   0  0  0  0  0  0
  -24.7453  -20.7328   21.1236 H   0  0  0  0  0  0
  -24.9040  -19.0129   21.0254 H   0  0  0  0  0  0
  -26.4425  -24.6500   20.6473 H   0  0  0  0  0  0
  -27.3549  -24.0632   19.2861 H   0  0  0  0  0  0
  -29.5697  -26.2314   21.6269 H   0  0  0  0  0  0
  -27.8863  -26.2595   22.0518 H   0  0  0  0  0  0
  -29.3668  -24.1568   20.4335 H   0  0  0  0  0  0
  -28.3634  -16.2094   20.6404 H   0  0  0  0  0  0
  -30.6441  -15.7113   18.9630 H   0  0  0  0  0  0
  1 25  1  0  0  0
  1 30  2  0  0  0
  1 87  1  0  0  0
  2  3  1  0  0  0
  2 25  1  0  0  0
  2 88  1  0  0  0
  2 89  1  0  0  0
  3  4  1  0  0  0
  3 90  1  0  0  0
  3 91  1  0  0  0
  4  5  1  0  0  0
  4 92  1  0  0  0
  4 93  1  0  0  0
  5  6  1  0  0  0
  5 26  1  0  0  0
  5 94  1  0  0  0
  6 25  1  0  0  0
  6 95  1  0  0  0
  6 96  1  0  0  0
  7  8  2  0  0  0
  7 26  1  0  0  0
  7 29  1  0  0  0
  8  9  1  0  0  0
  8 22  1  0  0  0
  9 10  1  0  0  0
  9 27  2  0  0  0
 10 11  2  0  0  0
 10 15  1  0  0  0
 11 12  1  0  0  0
 11 97  1  0  0  0
 12 13  2  0  0  0
 12 98  1  0  0  0
 13 14  1  0  0  0
 13 31  1  0  0  0
 14 15  2  0  0  0
 14 99  1  0  0  0
 15100  1  0  0  0
 16 17  2  0  0  0
 16 21  1  0  0  0
 16 31  1  0  0  0
 17 18  1  0  0  0
 17101  1  0  0  0
 18 19  2  0  0  0
 18102  1  0  0  0
 19 20  1  0  0  0
 19 24  1  0  0  0
 20 21  2  0  0  0
 20103  1  0  0  0
 21 23  1  0  0  0
 22 28  1  0  0  0
 22 32  2  0  0  0
 26 27  1  0  0  0
 28104  1  0  0  0
 28105  1  0  0  0
 29106  1  0  0  0
 29107  1  0  0  0
 33 34  1  0  0  0
 33 66  1  0  0  0
 33 70  2  0  0  0
 34 36  1  0  0  0
 34 59  1  0  0  0
 34108  1  0  0  0
 35 44  2  0  0  0
 35 45  1  0  0  0
 35 68  1  0  0  0
 36 56  1  0  0  0
 36109  1  0  0  0
 37 39  1  0  0  0
 37 47  1  0  0  0
 37 66  1  0  0  0
 37110  1  0  0  0
 38 43  2  0  0  0
 38 46  1  0  0  0
 38 47  1  0  0  0
 39 64  1  0  0  0
 39 67  2  0  0  0
 40 52  1  0  0  0
 40 53  2  0  0  0
 40 58  1  0  0  0
 41111  1  0  0  0
 41112  1  0  0  0
 41113  1  0  0  0
 41 48  1  0  0  0
 42 43  1  0  0  0
 42 66  1  0  0  0
 42114  1  0  0  0
 42115  1  0  0  0
 43 44  1  0  0  0
 44116  1  0  0  0
 45 46  2  0  0  0
 45117  1  0  0  0
 46118  1  0  0  0
 47119  1  0  0  0
 47120  1  0  0  0
 48 56  1  0  0  0
 48 65  1  0  0  0
 48121  1  0  0  0
 49 50  1  0  0  0
 49 53  1  0  0  0
 49 64  1  0  0  0
 49122  1  0  0  0
 50 51  1  0  0  0
 50123  1  0  0  0
 50124  1  0  0  0
 51 52  1  0  0  0
 51125  1  0  0  0
 51126  1  0  0  0
 52127  1  0  0  0
 52128  1  0  0  0
 53 54  1  0  0  0
 54 55  2  0  0  0
 54129  1  0  0  0
 55 57  1  0  0  0
 55130  1  0  0  0
 56 69  2  0  0  0
 57 58  2  0  0  0
 57131  1  0  0  0
 58132  1  0  0  0
 59 60  1  0  0  0
 59 61  1  0  0  0
 59 62  1  0  0  0
 60133  1  0  0  0
 60134  1  0  0  0
 60135  1  0  0  0
 61136  1  0  0  0
 61137  1  0  0  0
 61138  1  0  0  0
 62139  1  0  0  0
 62140  1  0  0  0
 62141  1  0  0  0
 63 65  1  0  0  0
 63142  1  0  0  0
 63143  1  0  0  0
 63144  1  0  0  0
 64145  1  0  0  0
 65146  1  0  0  0
 68 83  1  0  0  0
 71 72  2  0  0  0
 71 73  1  0  0  0
 71147  1  0  0  0
 72 74  1  0  0  0
 72148  1  0  0  0
 73 75  2  0  0  0
 73 79  1  0  0  0
 74 80  1  0  0  0
 74 86  2  0  0  0
 75 81  1  0  0  0
 75 86  1  0  0  0
 76 81  1  0  0  0
 76149  1  0  0  0
 76150  1  0  0  0
 76151  1  0  0  0
 77152  1  0  0  0
 77153  1  0  0  0
 77154  1  0  0  0
 77 84  1  0  0  0
 78155  1  0  0  0
 78156  1  0  0  0
 78157  1  0  0  0
 78 85  1  0  0  0
 79 82  1  0  0  0
 79158  1  0  0  0
 79159  1  0  0  0
 80 85  1  0  0  0
 80160  1  0  0  0
 80161  1  0  0  0
 81162  1  0  0  0
 81163  1  0  0  0
 82 84  1  0  0  0
 82164  1  0  0  0
 82165  1  0  0  0
 83 84  1  0  0  0
 83166  1  0  0  0
 83167  1  0  0  0
 84168  1  0  0  0
 85 87  1  0  0  0
 85169  1  0  0  0
 87170  1  0  0  0
M  ISO  4   1 100  68 101  83 101  87 100
M  END
> <chiral flag>
0

> <version>
0

> <s_m_source_file>
/data/baiqing/PycharmProjects/Reinvent-master-3.2/result/LINK_invent/BTK/process_docking_weight1_custom_sum_contain_oxygen_bond_distance_aromatic_linkinvent_7_9_3/rearranged_h_0091.sdf

> <i_m_source_file_index>
91

> <r_mmod_Potential_Energy-OPLS-2005>
-17.1361179351807

> <r_mmod_Stretch_Energy-OPLS-2005>
33.9553146362305

> <r_mmod_Bend_Energy-OPLS-2005>
129.322174072266

> <r_mmod_Torsional_Energy-OPLS-2005>
301.582397460938

> <r_mmod_Improper_Torsional_Energy-OPLS-2005>
36.1730079650879

> <r_mmod_Van_der_Waal_Energy-OPLS-2005>
142.373092651367

> <r_mmod_Electrostatic_Energy-OPLS-2005>
-494.063079833984

> <r_mmod_Solvation_Energy-OPLS-2005>
-196.186965942383

> <b_mmod_Minimization_Converged-OPLS-2005>
0

> <r_mmod_RMS_Derivative-OPLS-2005>
4.42993831634521

$$$$
92
                    3D
 Structure written by MMmdl.
170178  0  0  1  0            999 V2000
  -30.8192  -14.3309   20.7155 C   0  0  0  0  0  0
  -30.4288  -12.2834   19.4157 C   0  0  0  0  0  0
  -29.5123  -12.5364   18.2079 C   0  0  0  0  0  0
  -28.0302  -12.4030   18.6076 C   0  0  0  0  0  0
  -27.6783  -13.2132   19.8875 C   0  0  2  0  0  0
  -28.7102  -12.9566   21.0073 C   0  0  0  0  0  0
  -25.2623  -13.8185   20.5656 C   0  0  0  0  0  0
  -24.1840  -13.0428   20.9117 C   0  0  0  0  0  0
  -24.6409  -11.6913   20.8667 C   0  0  0  0  0  0
  -23.9042  -10.4290   21.0366 C   0  0  0  0  0  0
  -24.3594   -9.4227   21.9176 C   0  0  0  0  0  0
  -23.6273   -8.2262   22.0775 C   0  0  0  0  0  0
  -22.4264   -8.0277   21.3562 C   0  0  0  0  0  0
  -21.9866   -9.0234   20.4676 C   0  0  0  0  0  0
  -22.7180  -10.2122   20.3058 C   0  0  0  0  0  0
  -21.6842   -6.0715   22.5281 C   0  0  0  0  0  0
  -21.4019   -6.5623   23.8215 C   0  0  0  0  0  0
  -21.3665   -5.6786   24.9177 C   0  0  0  0  0  0
  -21.6048   -4.3050   24.7232 C   0  0  0  0  0  0
  -21.8819   -3.8126   23.4356 C   0  0  0  0  0  0
  -21.9184   -4.6940   22.3411 C   0  0  0  0  0  0
  -22.7860  -13.5261   21.1727 C   0  0  0  0  0  0
  -22.1650   -4.2126   21.0994 F   0  0  0  0  0  0
  -21.5616   -3.4542   25.7756 F   0  0  0  0  0  0
  -30.0651  -13.2266   20.4830 N   0  0  0  0  0  0
  -26.3101  -12.9373   20.3363 N   0  0  0  0  0  0
  -25.9348  -11.6511   20.5657 N   0  0  0  0  0  0
  -22.0443  -12.8342   22.0335 N   0  0  0  0  0  0
  -25.4255  -15.1907   20.4149 N   0  0  0  0  0  0
  -31.8399  -14.5890   20.0764 O   0  0  0  0  0  0
  -21.6642   -6.8863   21.4243 O   0  0  0  0  0  0
  -22.3552  -14.5532   20.6520 O   0  0  0  0  0  0
  -24.6075  -31.8714   23.2114 C   0  0  0  0  0  0
  -25.9019  -32.4834   23.8371 C   0  0  1  0  0  0
  -27.2436  -27.4793   20.1017 C   0  0  0  0  0  0
  -25.5931  -33.8638   24.2316 N   0  0  0  0  0  0
  -23.3888  -30.4929   21.5541 C   0  0  2  0  0  0
  -24.8362  -28.9455   20.1289 C   0  0  0  0  0  0
  -22.7365  -29.4690   22.5070 C   0  0  0  0  0  0
  -18.0266  -28.1344   22.8520 C   0  0  0  0  0  0
  -24.1505  -36.7298   23.2638 C   0  0  0  0  0  0
  -25.9106  -30.8466   21.3542 C   0  0  0  0  0  0
  -25.9904  -29.4799   20.7134 C   0  0  0  0  0  0
  -27.1958  -28.7535   20.6901 C   0  0  0  0  0  0
  -26.0721  -26.9313   19.5286 C   0  0  0  0  0  0
  -24.8675  -27.6662   19.5413 C   0  0  0  0  0  0
  -23.5930  -29.8054   20.1751 C   0  0  0  0  0  0
  -25.4134  -36.3129   24.0334 C   0  0  1  0  0  0
  -20.5842  -28.3633   23.1348 C   0  0  2  0  0  0
  -20.6746  -26.9388   22.5423 C   0  0  0  0  0  0
  -19.5730  -26.6367   21.5210 C   0  0  0  0  0  0
  -18.1911  -26.7901   22.1622 C   0  0  0  0  0  0
  -19.1512  -28.8809   23.2923 C   0  0  0  0  0  0
  -18.9452  -30.1428   23.8915 C   0  0  0  0  0  0
  -17.6454  -30.6570   24.0574 C   0  0  0  0  0  0
  -25.9057  -34.9501   23.5122 C   0  0  0  0  0  0
  -16.5344  -29.9076   23.6336 C   0  0  0  0  0  0
  -16.7257  -28.6478   23.0386 C   0  0  0  0  0  0
  -26.4476  -31.6590   25.0661 C   0  0  0  0  0  0
  -25.3749  -31.3755   26.1428 C   0  0  0  0  0  0
  -27.0305  -30.3050   24.5961 C   0  0  0  0  0  0
  -27.6048  -32.4303   25.7423 C   0  0  0  0  0  0
  -27.5599  -37.1807   24.8467 C   0  0  0  0  0  0
  -21.4114  -29.3017   22.3804 N   0  0  0  0  0  0
  -26.4331  -37.3805   23.9391 N   0  0  0  0  0  0
  -24.6539  -31.0845   22.0999 N   0  0  0  0  0  0
  -23.4182  -28.8250   23.3080 O   0  0  0  0  0  0
  -28.4693  -26.8727   20.0212 O   0  0  0  0  0  0
  -26.5629  -34.8946   22.4686 O   0  0  0  0  0  0
  -23.5300  -32.1469   23.7557 O   0  0  0  0  0  0
  -28.5581  -23.0728   22.5207 C   0  0  0  0  0  0
  -28.9809  -21.7469   22.3414 C   0  0  0  0  0  0
  -30.3330  -21.5195   21.9708 C   0  0  0  0  0  0
  -29.4750  -24.1113   22.3124 C   0  0  0  0  0  0
  -31.2161  -22.6291   21.9628 C   0  0  0  0  0  0
  -27.9345  -20.6504   22.4246 C   0  0  0  0  0  0
  -32.6845  -22.4996   21.6121 C   0  0  0  0  0  0
  -29.2897  -17.4657   20.6064 C   0  0  0  0  0  0
  -31.7594  -17.7344   20.1139 C   0  0  0  0  0  0
  -30.7685  -20.2080   21.3160 C   0  0  0  0  0  0
  -28.9730  -25.4984   21.9852 C   0  0  0  0  0  0
  -30.7555  -18.8999   22.1317 C   0  0  0  0  0  0
  -30.9992  -16.3855   22.1610 C   0  0  0  0  0  0
  -28.5947  -25.5412   20.4866 C   0  0  0  0  0  0
  -30.6964  -17.6142   21.2435 C   0  0  0  0  0  0
  -30.7923  -23.8968   22.1279 N   0  0  0  0  0  0
  -30.4170  -15.1039   21.7284 N   0  0  0  0  0  0
  -31.4773  -12.3701   19.1149 H   0  0  0  0  0  0
  -30.3087  -11.2636   19.7817 H   0  0  0  0  0  0
  -29.7551  -11.8285   17.4151 H   0  0  0  0  0  0
  -29.7003  -13.5302   17.7972 H   0  0  0  0  0  0
  -27.8265  -11.3432   18.7594 H   0  0  0  0  0  0
  -27.3978  -12.7189   17.7801 H   0  0  0  0  0  0
  -27.7375  -14.2725   19.6333 H   0  0  0  0  0  0
  -28.6554  -11.9174   21.3361 H   0  0  0  0  0  0
  -28.4485  -13.5507   21.8844 H   0  0  0  0  0  0
  -25.2744   -9.5712   22.4739 H   0  0  0  0  0  0
  -23.9967   -7.4678   22.7531 H   0  0  0  0  0  0
  -21.0767   -8.8724   19.9040 H   0  0  0  0  0  0
  -22.3594  -10.9629   19.6163 H   0  0  0  0  0  0
  -21.2034   -7.6138   23.9700 H   0  0  0  0  0  0
  -21.1478   -6.0526   25.9069 H   0  0  0  0  0  0
  -22.0595   -2.7588   23.2863 H   0  0  0  0  0  0
  -22.4005  -12.0094   22.4914 H   0  0  0  0  0  0
  -21.1052  -13.1444   22.2414 H   0  0  0  0  0  0
  -24.6488  -15.8309   20.5313 H   0  0  0  0  0  0
  -26.2818  -15.6522   20.1295 H   0  0  0  0  0  0
  -26.7057  -32.5563   23.1121 H   0  0  0  0  0  0
  -25.0187  -33.9792   25.0532 H   0  0  0  0  0  0
  -22.6725  -31.3051   21.4120 H   0  0  0  0  0  0
  -23.3786  -35.9611   23.3338 H   0  0  0  0  0  0
  -24.3566  -36.8891   22.2037 H   0  0  0  0  0  0
  -23.7230  -37.6503   23.6630 H   0  0  0  0  0  0
  -26.0063  -31.6013   20.5737 H   0  0  0  0  0  0
  -26.8080  -30.9152   21.9583 H   0  0  0  0  0  0
  -28.1007  -29.1714   21.1110 H   0  0  0  0  0  0
  -26.0887  -25.9611   19.0494 H   0  0  0  0  0  0
  -23.9721  -27.2496   19.0971 H   0  0  0  0  0  0
  -23.6916  -30.5676   19.4028 H   0  0  0  0  0  0
  -22.7175  -29.2170   19.8890 H   0  0  0  0  0  0
  -25.1309  -36.2026   25.0829 H   0  0  0  0  0  0
  -20.9930  -28.3197   24.1466 H   0  0  0  0  0  0
  -20.5628  -26.2272   23.3621 H   0  0  0  0  0  0
  -21.6628  -26.7441   22.1233 H   0  0  0  0  0  0
  -19.6916  -25.6276   21.1254 H   0  0  0  0  0  0
  -19.6645  -27.3164   20.6725 H   0  0  0  0  0  0
  -17.4195  -26.6698   21.4006 H   0  0  0  0  0  0
  -18.0308  -25.9971   22.8939 H   0  0  0  0  0  0
  -19.7928  -30.7248   24.2275 H   0  0  0  0  0  0
  -17.5010  -31.6248   24.5184 H   0  0  0  0  0  0
  -15.5352  -30.3002   23.7602 H   0  0  0  0  0  0
  -15.8656  -28.0784   22.7119 H   0  0  0  0  0  0
  -24.5826  -30.7215   25.7773 H   0  0  0  0  0  0
  -24.9063  -32.2980   26.4876 H   0  0  0  0  0  0
  -25.8065  -30.8883   27.0179 H   0  0  0  0  0  0
  -26.2838  -29.6816   24.1032 H   0  0  0  0  0  0
  -27.4194  -29.7262   25.4346 H   0  0  0  0  0  0
  -27.8608  -30.4409   23.9022 H   0  0  0  0  0  0
  -27.2636  -33.3560   26.2067 H   0  0  0  0  0  0
  -28.3835  -32.6952   25.0252 H   0  0  0  0  0  0
  -28.0738  -31.8383   26.5294 H   0  0  0  0  0  0
  -28.2652  -38.0081   24.7553 H   0  0  0  0  0  0
  -28.1094  -36.2630   24.6305 H   0  0  0  0  0  0
  -27.2311  -37.1454   25.8873 H   0  0  0  0  0  0
  -20.9318  -29.8736   21.7003 H   0  0  0  0  0  0
  -26.0249  -38.2904   24.1381 H   0  0  0  0  0  0
  -27.5097  -23.2983   22.6652 H   0  0  0  0  0  0
  -28.1185  -19.8576   21.7045 H   0  0  0  0  0  0
  -26.9452  -21.0580   22.2188 H   0  0  0  0  0  0
  -27.9095  -20.2167   23.4241 H   0  0  0  0  0  0
  -33.1203  -21.6617   22.1589 H   0  0  0  0  0  0
  -33.2511  -23.3960   21.8654 H   0  0  0  0  0  0
  -32.7898  -22.3370   20.5366 H   0  0  0  0  0  0
  -29.2362  -16.5989   19.9487 H   0  0  0  0  0  0
  -29.0278  -18.3122   19.9797 H   0  0  0  0  0  0
  -28.5051  -17.3550   21.3569 H   0  0  0  0  0  0
  -31.7920  -16.8801   19.4472 H   0  0  0  0  0  0
  -32.7649  -17.8643   20.5169 H   0  0  0  0  0  0
  -31.5657  -18.5703   19.4423 H   0  0  0  0  0  0
  -31.7577  -20.3025   20.8759 H   0  0  0  0  0  0
  -30.1082  -20.1129   20.4587 H   0  0  0  0  0  0
  -29.7499  -26.2284   22.2078 H   0  0  0  0  0  0
  -28.1184  -25.7409   22.6179 H   0  0  0  0  0  0
  -29.9149  -18.8893   22.8227 H   0  0  0  0  0  0
  -31.6499  -18.8829   22.7558 H   0  0  0  0  0  0
  -30.5835  -16.5771   23.1512 H   0  0  0  0  0  0
  -32.0753  -16.2819   22.3161 H   0  0  0  0  0  0
  -27.7155  -24.9266   20.2901 H   0  0  0  0  0  0
  -29.4027  -25.1065   19.8964 H   0  0  0  0  0  0
  -29.6237  -14.7585   22.2494 H   0  0  0  0  0  0
  1 25  1  0  0  0
  1 30  2  0  0  0
  1 87  1  0  0  0
  2  3  1  0  0  0
  2 25  1  0  0  0
  2 88  1  0  0  0
  2 89  1  0  0  0
  3  4  1  0  0  0
  3 90  1  0  0  0
  3 91  1  0  0  0
  4  5  1  0  0  0
  4 92  1  0  0  0
  4 93  1  0  0  0
  5  6  1  0  0  0
  5 26  1  0  0  0
  5 94  1  0  0  0
  6 25  1  0  0  0
  6 95  1  0  0  0
  6 96  1  0  0  0
  7  8  2  0  0  0
  7 26  1  0  0  0
  7 29  1  0  0  0
  8  9  1  0  0  0
  8 22  1  0  0  0
  9 10  1  0  0  0
  9 27  2  0  0  0
 10 11  2  0  0  0
 10 15  1  0  0  0
 11 12  1  0  0  0
 11 97  1  0  0  0
 12 13  2  0  0  0
 12 98  1  0  0  0
 13 14  1  0  0  0
 13 31  1  0  0  0
 14 15  2  0  0  0
 14 99  1  0  0  0
 15100  1  0  0  0
 16 17  2  0  0  0
 16 21  1  0  0  0
 16 31  1  0  0  0
 17 18  1  0  0  0
 17101  1  0  0  0
 18 19  2  0  0  0
 18102  1  0  0  0
 19 20  1  0  0  0
 19 24  1  0  0  0
 20 21  2  0  0  0
 20103  1  0  0  0
 21 23  1  0  0  0
 22 28  1  0  0  0
 22 32  2  0  0  0
 26 27  1  0  0  0
 28104  1  0  0  0
 28105  1  0  0  0
 29106  1  0  0  0
 29107  1  0  0  0
 33 34  1  0  0  0
 33 66  1  0  0  0
 33 70  2  0  0  0
 34 36  1  0  0  0
 34 59  1  0  0  0
 34108  1  0  0  0
 35 44  2  0  0  0
 35 45  1  0  0  0
 35 68  1  0  0  0
 36 56  1  0  0  0
 36109  1  0  0  0
 37 39  1  0  0  0
 37 47  1  0  0  0
 37 66  1  0  0  0
 37110  1  0  0  0
 38 43  2  0  0  0
 38 46  1  0  0  0
 38 47  1  0  0  0
 39 64  1  0  0  0
 39 67  2  0  0  0
 40 52  1  0  0  0
 40 53  2  0  0  0
 40 58  1  0  0  0
 41111  1  0  0  0
 41112  1  0  0  0
 41113  1  0  0  0
 41 48  1  0  0  0
 42 43  1  0  0  0
 42 66  1  0  0  0
 42114  1  0  0  0
 42115  1  0  0  0
 43 44  1  0  0  0
 44116  1  0  0  0
 45 46  2  0  0  0
 45117  1  0  0  0
 46118  1  0  0  0
 47119  1  0  0  0
 47120  1  0  0  0
 48 56  1  0  0  0
 48 65  1  0  0  0
 48121  1  0  0  0
 49 50  1  0  0  0
 49 53  1  0  0  0
 49 64  1  0  0  0
 49122  1  0  0  0
 50 51  1  0  0  0
 50123  1  0  0  0
 50124  1  0  0  0
 51 52  1  0  0  0
 51125  1  0  0  0
 51126  1  0  0  0
 52127  1  0  0  0
 52128  1  0  0  0
 53 54  1  0  0  0
 54 55  2  0  0  0
 54129  1  0  0  0
 55 57  1  0  0  0
 55130  1  0  0  0
 56 69  2  0  0  0
 57 58  2  0  0  0
 57131  1  0  0  0
 58132  1  0  0  0
 59 60  1  0  0  0
 59 61  1  0  0  0
 59 62  1  0  0  0
 60133  1  0  0  0
 60134  1  0  0  0
 60135  1  0  0  0
 61136  1  0  0  0
 61137  1  0  0  0
 61138  1  0  0  0
 62139  1  0  0  0
 62140  1  0  0  0
 62141  1  0  0  0
 63 65  1  0  0  0
 63142  1  0  0  0
 63143  1  0  0  0
 63144  1  0  0  0
 64145  1  0  0  0
 65146  1  0  0  0
 68 84  1  0  0  0
 71 72  2  0  0  0
 71 74  1  0  0  0
 71147  1  0  0  0
 72 73  1  0  0  0
 72 76  1  0  0  0
 73 75  2  0  0  0
 73 80  1  0  0  0
 74 81  1  0  0  0
 74 86  2  0  0  0
 75 77  1  0  0  0
 75 86  1  0  0  0
 76148  1  0  0  0
 76149  1  0  0  0
 76150  1  0  0  0
 77151  1  0  0  0
 77152  1  0  0  0
 77153  1  0  0  0
 78154  1  0  0  0
 78155  1  0  0  0
 78156  1  0  0  0
 78 85  1  0  0  0
 79 85  1  0  0  0
 79157  1  0  0  0
 79158  1  0  0  0
 79159  1  0  0  0
 80 82  1  0  0  0
 80160  1  0  0  0
 80161  1  0  0  0
 81 84  1  0  0  0
 81162  1  0  0  0
 81163  1  0  0  0
 82 85  1  0  0  0
 82164  1  0  0  0
 82165  1  0  0  0
 83 85  1  0  0  0
 83 87  1  0  0  0
 83166  1  0  0  0
 83167  1  0  0  0
 84168  1  0  0  0
 84169  1  0  0  0
 87170  1  0  0  0
M  ISO  4   1 100  68 101  84 101  87 100
M  END
> <chiral flag>
0

> <version>
0

> <s_m_source_file>
/data/baiqing/PycharmProjects/Reinvent-master-3.2/result/LINK_invent/BTK/process_docking_weight1_custom_sum_contain_oxygen_bond_distance_aromatic_linkinvent_7_9_3/rearranged_h_0091.sdf

> <i_m_source_file_index>
92

> <r_mmod_Potential_Energy-OPLS-2005>
-195.135070800781

> <r_mmod_Stretch_Energy-OPLS-2005>
36.7829132080078

> <r_mmod_Bend_Energy-OPLS-2005>
114.220458984375

> <r_mmod_Torsional_Energy-OPLS-2005>
247.962783813477

> <r_mmod_Improper_Torsional_Energy-OPLS-2005>
6.57358884811401

> <r_mmod_Van_der_Waal_Energy-OPLS-2005>
170.261764526367

> <r_mmod_Electrostatic_Energy-OPLS-2005>
-567.280212402344

> <r_mmod_Solvation_Energy-OPLS-2005>
-214.152801513672

> <b_mmod_Minimization_Converged-OPLS-2005>
0

> <r_mmod_RMS_Derivative-OPLS-2005>
5.32821750640869

$$$$
93
                    3D
 Structure written by MMmdl.
169177  0  0  1  0            999 V2000
  -30.7653  -14.4372   20.5675 C   0  0  0  0  0  0
  -30.4070  -12.2887   19.4154 C   0  0  0  0  0  0
  -29.4730  -12.4814   18.2080 C   0  0  0  0  0  0
  -27.9999  -12.3329   18.6332 C   0  0  0  0  0  0
  -27.6524  -13.1958   19.8694 C   0  0  2  0  0  0
  -28.7057  -13.0218   20.9901 C   0  0  0  0  0  0
  -25.2566  -13.8094   20.5714 C   0  0  0  0  0  0
  -24.1834  -13.0409   20.9229 C   0  0  0  0  0  0
  -24.6377  -11.6859   20.8793 C   0  0  0  0  0  0
  -23.9061  -10.4254   21.0448 C   0  0  0  0  0  0
  -24.3602   -9.4158   21.9210 C   0  0  0  0  0  0
  -23.6281   -8.2186   22.0771 C   0  0  0  0  0  0
  -22.4280   -8.0248   21.3551 C   0  0  0  0  0  0
  -21.9919   -9.0234   20.4664 C   0  0  0  0  0  0
  -22.7236  -10.2097   20.3095 C   0  0  0  0  0  0
  -21.6841   -6.0732   22.5280 C   0  0  0  0  0  0
  -21.4007   -6.5637   23.8202 C   0  0  0  0  0  0
  -21.3671   -5.6797   24.9178 C   0  0  0  0  0  0
  -21.6053   -4.3063   24.7242 C   0  0  0  0  0  0
  -21.8825   -3.8151   23.4362 C   0  0  0  0  0  0
  -21.9189   -4.6955   22.3412 C   0  0  0  0  0  0
  -22.7858  -13.5211   21.1866 C   0  0  0  0  0  0
  -22.1648   -4.2134   21.0994 F   0  0  0  0  0  0
  -21.5641   -3.4561   25.7765 F   0  0  0  0  0  0
  -30.0363  -13.2954   20.4208 N   0  0  0  0  0  0
  -26.2988  -12.9260   20.3420 N   0  0  0  0  0  0
  -25.9294  -11.6427   20.5866 N   0  0  0  0  0  0
  -22.0531  -12.8210   22.0429 N   0  0  0  0  0  0
  -25.4320  -15.1815   20.4081 N   0  0  0  0  0  0
  -31.9002  -14.5756   20.1161 O   0  0  0  0  0  0
  -21.6612   -6.8870   21.4240 O   0  0  0  0  0  0
  -22.3532  -14.5516   20.6719 O   0  0  0  0  0  0
  -24.6174  -31.8692   23.2022 C   0  0  0  0  0  0
  -25.9064  -32.4790   23.8369 C   0  0  1  0  0  0
  -27.2471  -27.4315   20.1031 C   0  0  0  0  0  0
  -25.5924  -33.8590   24.2314 N   0  0  0  0  0  0
  -23.4058  -30.4898   21.5400 C   0  0  2  0  0  0
  -24.8520  -28.9436   20.1202 C   0  0  0  0  0  0
  -22.7427  -29.4687   22.4958 C   0  0  0  0  0  0
  -18.0294  -28.1335   22.8493 C   0  0  0  0  0  0
  -24.1486  -36.7309   23.2638 C   0  0  0  0  0  0
  -25.9370  -30.8316   21.3569 C   0  0  0  0  0  0
  -26.0122  -29.4619   20.7130 C   0  0  0  0  0  0
  -27.2121  -28.7124   20.7036 C   0  0  0  0  0  0
  -26.0741  -26.9264   19.5109 C   0  0  0  0  0  0
  -24.8770  -27.6693   19.5244 C   0  0  0  0  0  0
  -23.6138  -29.8131   20.1592 C   0  0  0  0  0  0
  -25.4089  -36.3090   24.0353 C   0  0  1  0  0  0
  -20.5891  -28.3661   23.1337 C   0  0  2  0  0  0
  -20.6776  -26.9399   22.5433 C   0  0  0  0  0  0
  -19.5766  -26.6375   21.5222 C   0  0  0  0  0  0
  -18.1946  -26.7868   22.1653 C   0  0  0  0  0  0
  -19.1535  -28.8805   23.2908 C   0  0  0  0  0  0
  -18.9447  -30.1429   23.8874 C   0  0  0  0  0  0
  -17.6433  -30.6534   24.0534 C   0  0  0  0  0  0
  -25.9028  -34.9473   23.5132 C   0  0  0  0  0  0
  -16.5335  -29.9017   23.6297 C   0  0  0  0  0  0
  -16.7273  -28.6449   23.0307 C   0  0  0  0  0  0
  -26.4454  -31.6559   25.0710 C   0  0  0  0  0  0
  -25.3763  -31.3709   26.1505 C   0  0  0  0  0  0
  -27.0262  -30.2973   24.6155 C   0  0  0  0  0  0
  -27.5999  -32.4298   25.7491 C   0  0  0  0  0  0
  -27.5572  -37.1809   24.8477 C   0  0  0  0  0  0
  -21.4141  -29.3076   22.3755 N   0  0  0  0  0  0
  -26.4269  -37.3769   23.9432 N   0  0  0  0  0  0
  -24.6708  -31.0819   22.0885 N   0  0  0  0  0  0
  -23.4217  -28.8228   23.2990 O   0  0  0  0  0  0
  -28.3997  -26.6775   20.0532 O   0  0  0  0  0  0
  -26.5567  -34.8937   22.4682 O   0  0  0  0  0  0
  -23.5377  -32.1456   23.7419 O   0  0  0  0  0  0
  -29.7554  -21.0223   21.9064 C   0  0  0  0  0  0
  -27.6281  -21.5095   22.3742 C   0  0  0  0  0  0
  -29.0884  -19.8298   22.0306 C   0  0  0  0  0  0
  -27.7210  -20.1445   22.2954 C   0  0  0  0  0  0
  -25.6458  -19.2217   21.2440 C   0  0  0  0  0  0
  -25.8634  -19.3087   23.7842 C   0  0  0  0  0  0
  -27.7511  -23.7179   19.9661 C   0  0  0  0  0  0
  -29.6603  -18.4307   21.9098 C   0  0  0  0  0  0
  -29.3685  -17.7823   20.5453 C   0  0  0  0  0  0
  -29.1800  -23.4978   22.1287 C   0  0  0  0  0  0
  -29.1261  -16.2566   20.5702 C   0  0  0  0  0  0
  -28.6188  -25.8164   21.1832 C   0  0  0  0  0  0
  -26.5936  -19.1428   22.4465 C   0  0  0  0  0  0
  -28.8744  -24.3173   20.8295 C   0  0  2  0  0  0
  -28.8670  -22.0638   22.1135 N   0  0  0  0  0  0
  -30.1922  -15.4698   21.1981 N   0  0  0  0  0  0
  -31.4482  -12.3646   19.0991 H   0  0  0  0  0  0
  -30.2985  -11.2861   19.8304 H   0  0  0  0  0  0
  -29.7110  -11.7532   17.4321 H   0  0  0  0  0  0
  -29.6318  -13.4710   17.7763 H   0  0  0  0  0  0
  -27.8172  -11.2807   18.8561 H   0  0  0  0  0  0
  -27.3377  -12.5811   17.8031 H   0  0  0  0  0  0
  -27.6701  -14.2257   19.5241 H   0  0  0  0  0  0
  -28.6738  -12.0039   21.3794 H   0  0  0  0  0  0
  -28.4783  -13.6694   21.8372 H   0  0  0  0  0  0
  -25.2742   -9.5602   22.4778 H   0  0  0  0  0  0
  -24.0014   -7.4557   22.7457 H   0  0  0  0  0  0
  -21.0881   -8.8748   19.8931 H   0  0  0  0  0  0
  -22.3734  -10.9651   19.6204 H   0  0  0  0  0  0
  -21.1978   -7.6142   23.9712 H   0  0  0  0  0  0
  -21.1498   -6.0528   25.9076 H   0  0  0  0  0  0
  -22.0601   -2.7613   23.2873 H   0  0  0  0  0  0
  -22.4192  -11.9842   22.4738 H   0  0  0  0  0  0
  -21.1146  -13.1191   22.2687 H   0  0  0  0  0  0
  -24.6803  -15.8480   20.5424 H   0  0  0  0  0  0
  -26.2973  -15.6088   20.1057 H   0  0  0  0  0  0
  -26.7142  -32.5469   23.1146 H   0  0  0  0  0  0
  -25.0131  -33.9747   25.0506 H   0  0  0  0  0  0
  -22.7010  -31.3107   21.3911 H   0  0  0  0  0  0
  -23.3722  -35.9662   23.3298 H   0  0  0  0  0  0
  -24.3644  -36.8911   22.2061 H   0  0  0  0  0  0
  -23.7249  -37.6526   23.6640 H   0  0  0  0  0  0
  -26.0752  -31.5987   20.5924 H   0  0  0  0  0  0
  -26.8167  -30.8740   21.9872 H   0  0  0  0  0  0
  -28.1049  -29.1152   21.1580 H   0  0  0  0  0  0
  -26.0876  -25.9506   19.0496 H   0  0  0  0  0  0
  -23.9871  -27.2513   19.0731 H   0  0  0  0  0  0
  -23.7259  -30.5848   19.3977 H   0  0  0  0  0  0
  -22.7383  -29.2361   19.8571 H   0  0  0  0  0  0
  -25.1262  -36.1922   25.0835 H   0  0  0  0  0  0
  -20.9990  -28.3149   24.1459 H   0  0  0  0  0  0
  -20.5637  -26.2275   23.3614 H   0  0  0  0  0  0
  -21.6663  -26.7412   22.1290 H   0  0  0  0  0  0
  -19.6975  -25.6304   21.1226 H   0  0  0  0  0  0
  -19.6661  -27.3202   20.6774 H   0  0  0  0  0  0
  -17.4196  -26.6585   21.4070 H   0  0  0  0  0  0
  -18.0360  -26.0023   22.9084 H   0  0  0  0  0  0
  -19.7917  -30.7278   24.2200 H   0  0  0  0  0  0
  -17.4980  -31.6211   24.5137 H   0  0  0  0  0  0
  -15.5333  -30.2902   23.7621 H   0  0  0  0  0  0
  -15.8702  -28.0771   22.6978 H   0  0  0  0  0  0
  -24.5935  -30.6998   25.7965 H   0  0  0  0  0  0
  -24.8957  -32.2862   26.4964 H   0  0  0  0  0  0
  -25.8221  -30.8962   27.0255 H   0  0  0  0  0  0
  -26.2823  -29.6739   24.1172 H   0  0  0  0  0  0
  -27.3915  -29.7223   25.4671 H   0  0  0  0  0  0
  -27.8718  -30.4234   23.9392 H   0  0  0  0  0  0
  -27.2574  -33.3608   26.2038 H   0  0  0  0  0  0
  -28.3832  -32.6839   25.0336 H   0  0  0  0  0  0
  -28.0603  -31.8423   26.5448 H   0  0  0  0  0  0
  -28.2584  -38.0103   24.7500 H   0  0  0  0  0  0
  -28.1074  -36.2654   24.6293 H   0  0  0  0  0  0
  -27.2356  -37.1448   25.8896 H   0  0  0  0  0  0
  -20.9244  -29.8888   21.7100 H   0  0  0  0  0  0
  -26.0161  -38.2862   24.1353 H   0  0  0  0  0  0
  -30.7996  -21.2235   21.7009 H   0  0  0  0  0  0
  -26.7787  -22.1473   22.5819 H   0  0  0  0  0  0
  -26.1979  -19.1097   20.3094 H   0  0  0  0  0  0
  -25.1273  -20.1798   21.2089 H   0  0  0  0  0  0
  -24.8974  -18.4303   21.2782 H   0  0  0  0  0  0
  -26.5678  -19.2529   24.6167 H   0  0  0  0  0  0
  -25.1226  -18.5185   23.9225 H   0  0  0  0  0  0
  -25.3517  -20.2697   23.8386 H   0  0  0  0  0  0
  -27.9558  -22.6821   19.6866 H   0  0  0  0  0  0
  -27.6449  -24.2706   19.0340 H   0  0  0  0  0  0
  -26.7968  -23.7415   20.4902 H   0  0  0  0  0  0
  -29.2285  -17.8202   22.7044 H   0  0  0  0  0  0
  -30.7358  -18.4464   22.0928 H   0  0  0  0  0  0
  -30.1524  -18.0516   19.8347 H   0  0  0  0  0  0
  -28.4575  -18.2272   20.1407 H   0  0  0  0  0  0
  -28.6312  -23.9168   22.9729 H   0  0  0  0  0  0
  -30.2304  -23.6165   22.3953 H   0  0  0  0  0  0
  -28.9797  -15.9395   19.5371 H   0  0  0  0  0  0
  -28.2004  -16.0455   21.1025 H   0  0  0  0  0  0
  -29.5018  -26.2049   21.6987 H   0  0  0  0  0  0
  -27.7949  -25.8801   21.8993 H   0  0  0  0  0  0
  -27.0226  -18.1404   22.4492 H   0  0  0  0  0  0
  -29.7743  -24.2834   20.2135 H   0  0  0  0  0  0
  -30.8876  -16.0686   21.6187 H   0  0  0  0  0  0
  1 25  1  0  0  0
  1 30  2  0  0  0
  1 86  1  0  0  0
  2  3  1  0  0  0
  2 25  1  0  0  0
  2 87  1  0  0  0
  2 88  1  0  0  0
  3  4  1  0  0  0
  3 89  1  0  0  0
  3 90  1  0  0  0
  4  5  1  0  0  0
  4 91  1  0  0  0
  4 92  1  0  0  0
  5  6  1  0  0  0
  5 26  1  0  0  0
  5 93  1  0  0  0
  6 25  1  0  0  0
  6 94  1  0  0  0
  6 95  1  0  0  0
  7  8  2  0  0  0
  7 26  1  0  0  0
  7 29  1  0  0  0
  8  9  1  0  0  0
  8 22  1  0  0  0
  9 10  1  0  0  0
  9 27  2  0  0  0
 10 11  2  0  0  0
 10 15  1  0  0  0
 11 12  1  0  0  0
 11 96  1  0  0  0
 12 13  2  0  0  0
 12 97  1  0  0  0
 13 14  1  0  0  0
 13 31  1  0  0  0
 14 15  2  0  0  0
 14 98  1  0  0  0
 15 99  1  0  0  0
 16 17  2  0  0  0
 16 21  1  0  0  0
 16 31  1  0  0  0
 17 18  1  0  0  0
 17100  1  0  0  0
 18 19  2  0  0  0
 18101  1  0  0  0
 19 20  1  0  0  0
 19 24  1  0  0  0
 20 21  2  0  0  0
 20102  1  0  0  0
 21 23  1  0  0  0
 22 28  1  0  0  0
 22 32  2  0  0  0
 26 27  1  0  0  0
 28103  1  0  0  0
 28104  1  0  0  0
 29105  1  0  0  0
 29106  1  0  0  0
 33 34  1  0  0  0
 33 66  1  0  0  0
 33 70  2  0  0  0
 34 36  1  0  0  0
 34 59  1  0  0  0
 34107  1  0  0  0
 35 44  2  0  0  0
 35 45  1  0  0  0
 35 68  1  0  0  0
 36 56  1  0  0  0
 36108  1  0  0  0
 37 39  1  0  0  0
 37 47  1  0  0  0
 37 66  1  0  0  0
 37109  1  0  0  0
 38 43  2  0  0  0
 38 46  1  0  0  0
 38 47  1  0  0  0
 39 64  1  0  0  0
 39 67  2  0  0  0
 40 52  1  0  0  0
 40 53  2  0  0  0
 40 58  1  0  0  0
 41110  1  0  0  0
 41111  1  0  0  0
 41112  1  0  0  0
 41 48  1  0  0  0
 42 43  1  0  0  0
 42 66  1  0  0  0
 42113  1  0  0  0
 42114  1  0  0  0
 43 44  1  0  0  0
 44115  1  0  0  0
 45 46  2  0  0  0
 45116  1  0  0  0
 46117  1  0  0  0
 47118  1  0  0  0
 47119  1  0  0  0
 48 56  1  0  0  0
 48 65  1  0  0  0
 48120  1  0  0  0
 49 50  1  0  0  0
 49 53  1  0  0  0
 49 64  1  0  0  0
 49121  1  0  0  0
 50 51  1  0  0  0
 50122  1  0  0  0
 50123  1  0  0  0
 51 52  1  0  0  0
 51124  1  0  0  0
 51125  1  0  0  0
 52126  1  0  0  0
 52127  1  0  0  0
 53 54  1  0  0  0
 54 55  2  0  0  0
 54128  1  0  0  0
 55 57  1  0  0  0
 55129  1  0  0  0
 56 69  2  0  0  0
 57 58  2  0  0  0
 57130  1  0  0  0
 58131  1  0  0  0
 59 60  1  0  0  0
 59 61  1  0  0  0
 59 62  1  0  0  0
 60132  1  0  0  0
 60133  1  0  0  0
 60134  1  0  0  0
 61135  1  0  0  0
 61136  1  0  0  0
 61137  1  0  0  0
 62138  1  0  0  0
 62139  1  0  0  0
 62140  1  0  0  0
 63 65  1  0  0  0
 63141  1  0  0  0
 63142  1  0  0  0
 63143  1  0  0  0
 64144  1  0  0  0
 65145  1  0  0  0
 68 82  1  0  0  0
 71 73  2  0  0  0
 71 85  1  0  0  0
 71146  1  0  0  0
 72 74  2  0  0  0
 72 85  1  0  0  0
 72147  1  0  0  0
 73 74  1  0  0  0
 73 78  1  0  0  0
 74 83  1  0  0  0
 75148  1  0  0  0
 75149  1  0  0  0
 75150  1  0  0  0
 75 83  1  0  0  0
 76 83  1  0  0  0
 76151  1  0  0  0
 76152  1  0  0  0
 76153  1  0  0  0
 77154  1  0  0  0
 77155  1  0  0  0
 77156  1  0  0  0
 77 84  1  0  0  0
 78 79  1  0  0  0
 78157  1  0  0  0
 78158  1  0  0  0
 79 81  1  0  0  0
 79159  1  0  0  0
 79160  1  0  0  0
 80 84  1  0  0  0
 80 85  1  0  0  0
 80161  1  0  0  0
 80162  1  0  0  0
 81 86  1  0  0  0
 81163  1  0  0  0
 81164  1  0  0  0
 82 84  1  0  0  0
 82165  1  0  0  0
 82166  1  0  0  0
 83167  1  0  0  0
 84168  1  0  0  0
 86169  1  0  0  0
M  ISO  4   1 100  68 101  82 101  86 100
M  END
> <chiral flag>
0

> <version>
0

> <s_m_source_file>
/data/baiqing/PycharmProjects/Reinvent-master-3.2/result/LINK_invent/BTK/process_docking_weight1_custom_sum_contain_oxygen_bond_distance_aromatic_linkinvent_7_9_3/rearranged_h_0091.sdf

> <i_m_source_file_index>
93

> <r_mmod_Potential_Energy-OPLS-2005>
-18.6877193450928

> <r_mmod_Stretch_Energy-OPLS-2005>
35.8439064025879

> <r_mmod_Bend_Energy-OPLS-2005>
112.999633789062

> <r_mmod_Torsional_Energy-OPLS-2005>
307.7294921875

> <r_mmod_Improper_Torsional_Energy-OPLS-2005>
6.22092723846436

> <r_mmod_Van_der_Waal_Energy-OPLS-2005>
112.942268371582

> <r_mmod_Electrostatic_Energy-OPLS-2005>
-412.901824951172

> <r_mmod_Solvation_Energy-OPLS-2005>
-195.926788330078

> <b_mmod_Minimization_Converged-OPLS-2005>
0

> <r_mmod_RMS_Derivative-OPLS-2005>
5.11202812194824

$$$$
94
                    3D
 Structure written by MMmdl.
173181  0  0  1  0            999 V2000
  -30.7453  -14.3328   20.7022 C   0  0  0  0  0  0
  -30.4251  -12.2723   19.3821 C   0  0  0  0  0  0
  -29.4929  -12.5403   18.1829 C   0  0  0  0  0  0
  -28.0118  -12.3939   18.5895 C   0  0  0  0  0  0
  -27.6704  -13.1885   19.8759 C   0  0  2  0  0  0
  -28.7002  -12.8709   20.9781 C   0  0  0  0  0  0
  -25.2620  -13.8108   20.5601 C   0  0  0  0  0  0
  -24.1865  -13.0421   20.9116 C   0  0  0  0  0  0
  -24.6388  -11.6866   20.8687 C   0  0  0  0  0  0
  -23.9050  -10.4277   21.0389 C   0  0  0  0  0  0
  -24.3596   -9.4202   21.9184 C   0  0  0  0  0  0
  -23.6270   -8.2239   22.0762 C   0  0  0  0  0  0
  -22.4257   -8.0272   21.3544 C   0  0  0  0  0  0
  -21.9880   -9.0249   20.4650 C   0  0  0  0  0  0
  -22.7208  -10.2127   20.3058 C   0  0  0  0  0  0
  -21.6851   -6.0709   22.5264 C   0  0  0  0  0  0
  -21.4013   -6.5620   23.8192 C   0  0  0  0  0  0
  -21.3665   -5.6781   24.9156 C   0  0  0  0  0  0
  -21.6053   -4.3041   24.7218 C   0  0  0  0  0  0
  -21.8822   -3.8127   23.4337 C   0  0  0  0  0  0
  -21.9186   -4.6935   22.3388 C   0  0  0  0  0  0
  -22.7895  -13.5238   21.1805 C   0  0  0  0  0  0
  -22.1650   -4.2114   21.0967 F   0  0  0  0  0  0
  -21.5636   -3.4533   25.7736 F   0  0  0  0  0  0
  -30.0515  -13.1875   20.4694 N   0  0  0  0  0  0
  -26.3059  -12.9250   20.3304 N   0  0  0  0  0  0
  -25.9301  -11.6424   20.5695 N   0  0  0  0  0  0
  -22.0524  -12.8266   22.0373 N   0  0  0  0  0  0
  -25.4387  -15.1828   20.4010 N   0  0  0  0  0  0
  -31.7690  -14.6467   20.0830 O   0  0  0  0  0  0
  -21.6636   -6.8856   21.4231 O   0  0  0  0  0  0
  -22.3580  -14.5532   20.6618 O   0  0  0  0  0  0
  -24.6074  -31.8728   23.2157 C   0  0  0  0  0  0
  -25.8981  -32.4852   23.8431 C   0  0  1  0  0  0
  -27.2379  -27.4792   20.0769 C   0  0  0  0  0  0
  -25.5875  -33.8654   24.2358 N   0  0  0  0  0  0
  -23.3934  -30.4915   21.5566 C   0  0  2  0  0  0
  -24.8381  -28.9633   20.1158 C   0  0  0  0  0  0
  -22.7359  -29.4656   22.5050 C   0  0  0  0  0  0
  -18.0266  -28.1368   22.8513 C   0  0  0  0  0  0
  -24.1474  -36.7319   23.2636 C   0  0  0  0  0  0
  -25.9144  -30.8467   21.3631 C   0  0  0  0  0  0
  -25.9912  -29.4828   20.7121 C   0  0  0  0  0  0
  -27.1862  -28.7398   20.7031 C   0  0  0  0  0  0
  -26.0662  -26.9581   19.4784 C   0  0  0  0  0  0
  -24.8663  -27.6959   19.5059 C   0  0  0  0  0  0
  -23.5972  -29.8238   20.1702 C   0  0  0  0  0  0
  -25.4099  -36.3129   24.0341 C   0  0  1  0  0  0
  -20.5846  -28.3641   23.1365 C   0  0  2  0  0  0
  -20.6759  -26.9384   22.5441 C   0  0  0  0  0  0
  -19.5737  -26.6381   21.5230 C   0  0  0  0  0  0
  -18.1911  -26.7924   22.1626 C   0  0  0  0  0  0
  -19.1513  -28.8820   23.2940 C   0  0  0  0  0  0
  -18.9444  -30.1436   23.8929 C   0  0  0  0  0  0
  -17.6447  -30.6586   24.0563 C   0  0  0  0  0  0
  -25.9025  -34.9491   23.5144 C   0  0  0  0  0  0
  -16.5342  -29.9080   23.6326 C   0  0  0  0  0  0
  -16.7255  -28.6494   23.0359 C   0  0  0  0  0  0
  -26.4454  -31.6629   25.0736 C   0  0  0  0  0  0
  -25.3714  -31.3718   26.1484 C   0  0  0  0  0  0
  -27.0287  -30.3087   24.6069 C   0  0  0  0  0  0
  -27.6056  -32.4343   25.7472 C   0  0  0  0  0  0
  -27.5580  -37.1810   24.8464 C   0  0  0  0  0  0
  -21.4099  -29.3013   22.3778 N   0  0  0  0  0  0
  -26.4297  -37.3803   23.9402 N   0  0  0  0  0  0
  -24.6564  -31.0824   22.1056 N   0  0  0  0  0  0
  -23.4149  -28.8213   23.3090 O   0  0  0  0  0  0
  -28.4493  -26.8360   20.1133 O   0  0  0  0  0  0
  -26.5579  -34.8926   22.4701 O   0  0  0  0  0  0
  -23.5278  -32.1499   23.7561 O   0  0  0  0  0  0
  -29.5631  -19.1431   19.6139 C   0  0  0  0  0  0
  -30.6031  -18.7943   20.4937 C   0  0  0  0  0  0
  -31.8437  -19.4783   20.3781 C   0  0  0  0  0  0
  -31.9345  -20.5386   19.4326 C   0  0  0  0  0  0
  -30.8024  -20.8166   18.6215 C   0  0  0  0  0  0
  -33.0324  -19.1134   21.2696 C   0  0  0  0  0  0
  -33.2153  -21.3672   19.3072 C   0  0  0  0  0  0
  -29.4474  -18.3441   22.6671 C   0  0  0  0  0  0
  -30.0750  -15.0107   22.9689 C   0  0  0  0  0  0
  -30.7002  -21.9783   17.6437 C   0  0  0  0  0  0
  -29.8898  -23.1411   18.2484 C   0  0  0  0  0  0
  -30.7248  -24.0427   19.1664 C   0  0  0  0  0  0
  -29.9285  -25.0516   20.0033 C   0  0  0  0  0  0
  -29.6394  -16.4782   20.9608 C   0  0  0  0  0  0
  -28.6958  -25.6793   19.3374 C   0  0  0  0  0  0
  -30.3226  -17.7310   21.5581 C   0  0  1  0  0  0
  -29.6622  -20.1104   18.6948 N   0  0  0  0  0  0
  -30.1223  -15.2086   21.5145 N   0  0  0  0  0  0
  -31.4702  -12.3807   19.0865 H   0  0  0  0  0  0
  -30.3198  -11.2386   19.7132 H   0  0  0  0  0  0
  -29.7257  -11.8554   17.3663 H   0  0  0  0  0  0
  -29.6695  -13.5441   17.7919 H   0  0  0  0  0  0
  -27.8100  -11.3337   18.7431 H   0  0  0  0  0  0
  -27.3661  -12.7086   17.7696 H   0  0  0  0  0  0
  -27.7449  -14.2506   19.6399 H   0  0  0  0  0  0
  -28.6590  -11.8102   21.2299 H   0  0  0  0  0  0
  -28.4253  -13.3779   21.8991 H   0  0  0  0  0  0
  -25.2742   -9.5656   22.4760 H   0  0  0  0  0  0
  -23.9952   -7.4632   22.7486 H   0  0  0  0  0  0
  -21.0810   -8.8779   19.8974 H   0  0  0  0  0  0
  -22.3672  -10.9666   19.6167 H   0  0  0  0  0  0
  -21.2023   -7.6133   23.9672 H   0  0  0  0  0  0
  -21.1487   -6.0524   25.9055 H   0  0  0  0  0  0
  -22.0605   -2.7586   23.2854 H   0  0  0  0  0  0
  -22.4112  -11.9936   22.4801 H   0  0  0  0  0  0
  -21.1149  -13.1332   22.2557 H   0  0  0  0  0  0
  -24.6760  -15.8423   20.5087 H   0  0  0  0  0  0
  -26.3003  -15.6195   20.1023 H   0  0  0  0  0  0
  -26.7041  -32.5597   23.1194 H   0  0  0  0  0  0
  -25.0028  -33.9845   25.0504 H   0  0  0  0  0  0
  -22.6817  -31.3078   21.4189 H   0  0  0  0  0  0
  -23.3742  -35.9647   23.3321 H   0  0  0  0  0  0
  -24.3563  -36.8914   22.2046 H   0  0  0  0  0  0
  -23.7230  -37.6531   23.6640 H   0  0  0  0  0  0
  -26.0090  -31.6126   20.5923 H   0  0  0  0  0  0
  -26.8082  -30.9116   21.9709 H   0  0  0  0  0  0
  -28.0775  -29.1325   21.1715 H   0  0  0  0  0  0
  -26.0482  -25.9953   18.9921 H   0  0  0  0  0  0
  -23.9730  -27.2869   19.0548 H   0  0  0  0  0  0
  -23.6989  -30.5990   19.4102 H   0  0  0  0  0  0
  -22.7224  -29.2391   19.8809 H   0  0  0  0  0  0
  -25.1272  -36.2010   25.0840 H   0  0  0  0  0  0
  -20.9954  -28.3180   24.1478 H   0  0  0  0  0  0
  -20.5682  -26.2220   23.3608 H   0  0  0  0  0  0
  -21.6629  -26.7449   22.1213 H   0  0  0  0  0  0
  -19.6900  -25.6296   21.1246 H   0  0  0  0  0  0
  -19.6692  -27.3202   20.6771 H   0  0  0  0  0  0
  -17.4197  -26.6716   21.4010 H   0  0  0  0  0  0
  -18.0286  -26.0053   22.9000 H   0  0  0  0  0  0
  -19.7922  -30.7259   24.2307 H   0  0  0  0  0  0
  -17.4999  -31.6272   24.5148 H   0  0  0  0  0  0
  -15.5340  -30.2985   23.7651 H   0  0  0  0  0  0
  -15.8659  -28.0820   22.7067 H   0  0  0  0  0  0
  -24.5876  -30.7094   25.7790 H   0  0  0  0  0  0
  -24.8910  -32.2873   26.4960 H   0  0  0  0  0  0
  -25.8047  -30.8846   27.0232 H   0  0  0  0  0  0
  -26.2827  -29.6849   24.1133 H   0  0  0  0  0  0
  -27.4102  -29.7322   25.4514 H   0  0  0  0  0  0
  -27.8629  -30.4435   23.9172 H   0  0  0  0  0  0
  -27.2709  -33.3640   26.2092 H   0  0  0  0  0  0
  -28.3826  -32.6932   25.0257 H   0  0  0  0  0  0
  -28.0771  -31.8449   26.5351 H   0  0  0  0  0  0
  -28.2614  -38.0092   24.7525 H   0  0  0  0  0  0
  -28.1069  -36.2641   24.6285 H   0  0  0  0  0  0
  -27.2307  -37.1449   25.8868 H   0  0  0  0  0  0
  -20.9248  -29.8683   21.6968 H   0  0  0  0  0  0
  -26.0197  -38.2882   24.1424 H   0  0  0  0  0  0
  -28.6043  -18.6501   19.6513 H   0  0  0  0  0  0
  -33.9816  -19.4719   20.8790 H   0  0  0  0  0  0
  -33.1683  -18.0354   21.3553 H   0  0  0  0  0  0
  -32.9008  -19.5291   22.2696 H   0  0  0  0  0  0
  -33.7232  -21.4894   20.2629 H   0  0  0  0  0  0
  -33.0409  -22.3820   18.9612 H   0  0  0  0  0  0
  -33.9044  -20.9001   18.6044 H   0  0  0  0  0  0
  -29.9375  -19.1998   23.1315 H   0  0  0  0  0  0
  -29.2180  -17.6275   23.4570 H   0  0  0  0  0  0
  -28.4936  -18.6912   22.2661 H   0  0  0  0  0  0
  -30.6941  -15.7391   23.4907 H   0  0  0  0  0  0
  -30.4377  -14.0227   23.2643 H   0  0  0  0  0  0
  -29.0532  -15.1102   23.3365 H   0  0  0  0  0  0
  -30.1799  -21.6179   16.7543 H   0  0  0  0  0  0
  -31.6706  -22.3124   17.2818 H   0  0  0  0  0  0
  -29.0165  -22.7527   18.7749 H   0  0  0  0  0  0
  -29.5050  -23.7532   17.4337 H   0  0  0  0  0  0
  -31.4604  -24.5674   18.5553 H   0  0  0  0  0  0
  -31.2883  -23.4340   19.8730 H   0  0  0  0  0  0
  -29.6116  -24.5860   20.9372 H   0  0  0  0  0  0
  -30.6187  -25.8408   20.3010 H   0  0  0  0  0  0
  -29.7987  -16.4597   19.8789 H   0  0  0  0  0  0
  -28.5545  -16.5222   21.0716 H   0  0  0  0  0  0
  -27.8736  -24.9667   19.3594 H   0  0  0  0  0  0
  -28.8797  -25.9624   18.3012 H   0  0  0  0  0  0
  -31.2588  -17.4246   22.0145 H   0  0  0  0  0  0
  1 25  1  0  0  0
  1 30  2  0  0  0
  1 88  1  0  0  0
  2  3  1  0  0  0
  2 25  1  0  0  0
  2 89  1  0  0  0
  2 90  1  0  0  0
  3  4  1  0  0  0
  3 91  1  0  0  0
  3 92  1  0  0  0
  4  5  1  0  0  0
  4 93  1  0  0  0
  4 94  1  0  0  0
  5  6  1  0  0  0
  5 26  1  0  0  0
  5 95  1  0  0  0
  6 25  1  0  0  0
  6 96  1  0  0  0
  6 97  1  0  0  0
  7  8  2  0  0  0
  7 26  1  0  0  0
  7 29  1  0  0  0
  8  9  1  0  0  0
  8 22  1  0  0  0
  9 10  1  0  0  0
  9 27  2  0  0  0
 10 11  2  0  0  0
 10 15  1  0  0  0
 11 12  1  0  0  0
 11 98  1  0  0  0
 12 13  2  0  0  0
 12 99  1  0  0  0
 13 14  1  0  0  0
 13 31  1  0  0  0
 14 15  2  0  0  0
 14100  1  0  0  0
 15101  1  0  0  0
 16 17  2  0  0  0
 16 21  1  0  0  0
 16 31  1  0  0  0
 17 18  1  0  0  0
 17102  1  0  0  0
 18 19  2  0  0  0
 18103  1  0  0  0
 19 20  1  0  0  0
 19 24  1  0  0  0
 20 21  2  0  0  0
 20104  1  0  0  0
 21 23  1  0  0  0
 22 28  1  0  0  0
 22 32  2  0  0  0
 26 27  1  0  0  0
 28105  1  0  0  0
 28106  1  0  0  0
 29107  1  0  0  0
 29108  1  0  0  0
 33 34  1  0  0  0
 33 66  1  0  0  0
 33 70  2  0  0  0
 34 36  1  0  0  0
 34 59  1  0  0  0
 34109  1  0  0  0
 35 44  2  0  0  0
 35 45  1  0  0  0
 35 68  1  0  0  0
 36 56  1  0  0  0
 36110  1  0  0  0
 37 39  1  0  0  0
 37 47  1  0  0  0
 37 66  1  0  0  0
 37111  1  0  0  0
 38 43  2  0  0  0
 38 46  1  0  0  0
 38 47  1  0  0  0
 39 64  1  0  0  0
 39 67  2  0  0  0
 40 52  1  0  0  0
 40 53  2  0  0  0
 40 58  1  0  0  0
 41112  1  0  0  0
 41113  1  0  0  0
 41114  1  0  0  0
 41 48  1  0  0  0
 42 43  1  0  0  0
 42 66  1  0  0  0
 42115  1  0  0  0
 42116  1  0  0  0
 43 44  1  0  0  0
 44117  1  0  0  0
 45 46  2  0  0  0
 45118  1  0  0  0
 46119  1  0  0  0
 47120  1  0  0  0
 47121  1  0  0  0
 48 56  1  0  0  0
 48 65  1  0  0  0
 48122  1  0  0  0
 49 50  1  0  0  0
 49 53  1  0  0  0
 49 64  1  0  0  0
 49123  1  0  0  0
 50 51  1  0  0  0
 50124  1  0  0  0
 50125  1  0  0  0
 51 52  1  0  0  0
 51126  1  0  0  0
 51127  1  0  0  0
 52128  1  0  0  0
 52129  1  0  0  0
 53 54  1  0  0  0
 54 55  2  0  0  0
 54130  1  0  0  0
 55 57  1  0  0  0
 55131  1  0  0  0
 56 69  2  0  0  0
 57 58  2  0  0  0
 57132  1  0  0  0
 58133  1  0  0  0
 59 60  1  0  0  0
 59 61  1  0  0  0
 59 62  1  0  0  0
 60134  1  0  0  0
 60135  1  0  0  0
 60136  1  0  0  0
 61137  1  0  0  0
 61138  1  0  0  0
 61139  1  0  0  0
 62140  1  0  0  0
 62141  1  0  0  0
 62142  1  0  0  0
 63 65  1  0  0  0
 63143  1  0  0  0
 63144  1  0  0  0
 63145  1  0  0  0
 64146  1  0  0  0
 65147  1  0  0  0
 68 85  1  0  0  0
 71 72  2  0  0  0
 71 87  1  0  0  0
 71148  1  0  0  0
 72 73  1  0  0  0
 72 86  1  0  0  0
 73 74  2  0  0  0
 73 76  1  0  0  0
 74 75  1  0  0  0
 74 77  1  0  0  0
 75 80  1  0  0  0
 75 87  2  0  0  0
 76149  1  0  0  0
 76150  1  0  0  0
 76151  1  0  0  0
 77152  1  0  0  0
 77153  1  0  0  0
 77154  1  0  0  0
 78155  1  0  0  0
 78156  1  0  0  0
 78157  1  0  0  0
 78 86  1  0  0  0
 79 88  1  0  0  0
 79158  1  0  0  0
 79159  1  0  0  0
 79160  1  0  0  0
 80 81  1  0  0  0
 80161  1  0  0  0
 80162  1  0  0  0
 81 82  1  0  0  0
 81163  1  0  0  0
 81164  1  0  0  0
 82 83  1  0  0  0
 82165  1  0  0  0
 82166  1  0  0  0
 83 85  1  0  0  0
 83167  1  0  0  0
 83168  1  0  0  0
 84 86  1  0  0  0
 84 88  1  0  0  0
 84169  1  0  0  0
 84170  1  0  0  0
 85171  1  0  0  0
 85172  1  0  0  0
 86173  1  0  0  0
M  ISO  4   1 100  68 101  85 101  88 100
M  END
> <chiral flag>
0

> <version>
0

> <s_m_source_file>
/data/baiqing/PycharmProjects/Reinvent-master-3.2/result/LINK_invent/BTK/process_docking_weight1_custom_sum_contain_oxygen_bond_distance_aromatic_linkinvent_7_9_3/rearranged_h_0091.sdf

> <i_m_source_file_index>
94

> <r_mmod_Potential_Energy-OPLS-2005>
-9.30487823486328

> <r_mmod_Stretch_Energy-OPLS-2005>
35.3601379394531

> <r_mmod_Bend_Energy-OPLS-2005>
114.526557922363

> <r_mmod_Torsional_Energy-OPLS-2005>
312.236602783203

> <r_mmod_Improper_Torsional_Energy-OPLS-2005>
4.69442129135132

> <r_mmod_Van_der_Waal_Energy-OPLS-2005>
175.070297241211

> <r_mmod_Electrostatic_Energy-OPLS-2005>
-454.526519775391

> <r_mmod_Solvation_Energy-OPLS-2005>
-206.499694824219

> <b_mmod_Minimization_Converged-OPLS-2005>
0

> <r_mmod_RMS_Derivative-OPLS-2005>
3.24284052848816

$$$$
95
                    3D
 Structure written by MMmdl.
185193  0  0  1  0            999 V2000
  -30.7062  -14.5499   20.5392 C   0  0  0  0  0  0
  -30.4218  -12.3391   19.4485 C   0  0  0  0  0  0
  -29.4959  -12.4456   18.2154 C   0  0  0  0  0  0
  -28.0098  -12.3344   18.6187 C   0  0  0  0  0  0
  -27.6476  -13.1930   19.8608 C   0  0  2  0  0  0
  -28.6982  -13.0207   20.9823 C   0  0  0  0  0  0
  -25.2523  -13.8113   20.5704 C   0  0  0  0  0  0
  -24.1776  -13.0391   20.9199 C   0  0  0  0  0  0
  -24.6339  -11.6871   20.8746 C   0  0  0  0  0  0
  -23.9039  -10.4268   21.0410 C   0  0  0  0  0  0
  -24.3604   -9.4186   21.9168 C   0  0  0  0  0  0
  -23.6266   -8.2229   22.0747 C   0  0  0  0  0  0
  -22.4253   -8.0273   21.3554 C   0  0  0  0  0  0
  -21.9912   -9.0249   20.4659 C   0  0  0  0  0  0
  -22.7236  -10.2118   20.3049 C   0  0  0  0  0  0
  -21.6856   -6.0748   22.5325 C   0  0  0  0  0  0
  -21.4023   -6.5648   23.8267 C   0  0  0  0  0  0
  -21.3619   -5.6802   24.9226 C   0  0  0  0  0  0
  -21.6013   -4.3063   24.7256 C   0  0  0  0  0  0
  -21.8805   -3.8157   23.4379 C   0  0  0  0  0  0
  -21.9190   -4.6986   22.3445 C   0  0  0  0  0  0
  -22.7806  -13.5194   21.1864 C   0  0  0  0  0  0
  -22.1681   -4.2195   21.1014 F   0  0  0  0  0  0
  -21.5602   -3.4526   25.7754 F   0  0  0  0  0  0
  -30.0119  -13.3711   20.4301 N   0  0  0  0  0  0
  -26.2957  -12.9254   20.3368 N   0  0  0  0  0  0
  -25.9273  -11.6435   20.5827 N   0  0  0  0  0  0
  -22.0448  -12.8167   22.0415 N   0  0  0  0  0  0
  -25.4108  -15.1837   20.4178 N   0  0  0  0  0  0
  -31.8334  -14.6199   20.0450 O   0  0  0  0  0  0
  -21.6622   -6.8867   21.4272 O   0  0  0  0  0  0
  -22.3461  -14.5507   20.6753 O   0  0  0  0  0  0
  -24.6172  -31.8661   23.2119 C   0  0  0  0  0  0
  -25.9069  -32.4804   23.8395 C   0  0  1  0  0  0
  -27.2210  -27.4182   20.0855 C   0  0  0  0  0  0
  -25.5918  -33.8599   24.2315 N   0  0  0  0  0  0
  -23.4037  -30.4962   21.5531 C   0  0  2  0  0  0
  -24.8465  -28.9681   20.1119 C   0  0  0  0  0  0
  -22.7411  -29.4663   22.4979 C   0  0  0  0  0  0
  -18.0273  -28.1362   22.8501 C   0  0  0  0  0  0
  -24.1488  -36.7326   23.2641 C   0  0  0  0  0  0
  -25.9375  -30.8292   21.3667 C   0  0  0  0  0  0
  -26.0122  -29.4662   20.7068 C   0  0  0  0  0  0
  -27.2032  -28.7000   20.6884 C   0  0  0  0  0  0
  -26.0325  -26.9499   19.4739 C   0  0  0  0  0  0
  -24.8534  -27.7119   19.4898 C   0  0  0  0  0  0
  -23.6093  -29.8354   20.1649 C   0  0  0  0  0  0
  -25.4100  -36.3097   24.0333 C   0  0  1  0  0  0
  -20.5872  -28.3651   23.1311 C   0  0  2  0  0  0
  -20.6753  -26.9380   22.5425 C   0  0  0  0  0  0
  -19.5735  -26.6375   21.5219 C   0  0  0  0  0  0
  -18.1911  -26.7913   22.1621 C   0  0  0  0  0  0
  -19.1527  -28.8820   23.2907 C   0  0  0  0  0  0
  -18.9447  -30.1427   23.8918 C   0  0  0  0  0  0
  -17.6449  -30.6572   24.0564 C   0  0  0  0  0  0
  -25.9031  -34.9462   23.5119 C   0  0  0  0  0  0
  -16.5339  -29.9071   23.6324 C   0  0  0  0  0  0
  -16.7260  -28.6485   23.0353 C   0  0  0  0  0  0
  -26.4495  -31.6587   25.0733 C   0  0  0  0  0  0
  -25.3778  -31.3711   26.1496 C   0  0  0  0  0  0
  -27.0318  -30.3021   24.6121 C   0  0  0  0  0  0
  -27.6056  -32.4325   25.7494 C   0  0  0  0  0  0
  -27.5575  -37.1807   24.8446 C   0  0  0  0  0  0
  -21.4141  -29.3033   22.3723 N   0  0  0  0  0  0
  -26.4274  -37.3783   23.9415 N   0  0  0  0  0  0
  -24.6721  -31.0770   22.1019 N   0  0  0  0  0  0
  -23.4178  -28.8181   23.3000 O   0  0  0  0  0  0
  -28.3757  -26.6514   20.1067 O   0  0  0  0  0  0
  -26.5575  -34.8916   22.4671 O   0  0  0  0  0  0
  -23.5360  -32.1414   23.7518 O   0  0  0  0  0  0
  -31.5963  -19.6047   18.6909 C   0  0  0  0  0  0
  -31.6601  -18.4364   17.8716 C   0  0  0  0  0  0
  -30.6011  -19.4282   19.6151 C   0  0  0  0  0  0
  -30.5154  -17.7715   18.2323 C   0  0  0  0  0  0
  -28.8092  -19.3417   15.9047 C   0  0  0  0  0  0
  -28.6521  -16.0812   17.9539 C   0  0  0  0  0  0
  -28.7110  -16.1276   21.5495 C   0  0  0  0  0  0
  -34.0367  -18.7011   17.1642 C   0  0  0  0  0  0
  -32.2319  -18.8587   15.4409 C   0  0  0  0  0  0
  -32.8091  -16.6544   16.4916 C   0  0  0  0  0  0
  -29.9775  -20.4082   20.5785 C   0  0  0  0  0  0
  -28.3679  -18.3465   16.9848 C   0  0  0  0  0  0
  -30.2046  -21.8938   20.1730 C   0  0  0  0  0  0
  -29.1674  -22.9063   20.7159 C   0  0  0  0  0  0
  -29.4611  -24.3945   20.3586 C   0  0  0  0  0  0
  -30.8934  -17.2131   20.6991 C   0  0  0  0  0  0
  -28.1734  -25.2227   20.1495 C   0  0  0  0  0  0
  -29.4061  -17.2498   17.3445 C   0  0  1  0  0  0
  -30.1987  -15.8888   21.2159 C   0  0  2  0  0  0
  -32.6547  -18.1670   16.7457 C   0  0  0  0  0  0
  -30.3485  -18.0569   19.5907 N   0  0  0  0  0  0
  -31.4647  -12.4297   19.1374 H   0  0  0  0  0  0
  -30.3466  -11.3450   19.8927 H   0  0  0  0  0  0
  -29.7349  -11.6577   17.4994 H   0  0  0  0  0  0
  -29.6842  -13.3760   17.6846 H   0  0  0  0  0  0
  -27.8043  -11.2847   18.8284 H   0  0  0  0  0  0
  -27.3710  -12.5986   17.7765 H   0  0  0  0  0  0
  -27.6584  -14.2174   19.5121 H   0  0  0  0  0  0
  -28.7028  -11.9833   21.3213 H   0  0  0  0  0  0
  -28.4435  -13.5874   21.8718 H   0  0  0  0  0  0
  -25.2753   -9.5636   22.4742 H   0  0  0  0  0  0
  -23.9983   -7.4607   22.7449 H   0  0  0  0  0  0
  -21.0848   -8.8744   19.8956 H   0  0  0  0  0  0
  -22.3686  -10.9650   19.6145 H   0  0  0  0  0  0
  -21.2041   -7.6167   23.9813 H   0  0  0  0  0  0
  -21.1436   -6.0515   25.9134 H   0  0  0  0  0  0
  -22.0602   -2.7632   23.2879 H   0  0  0  0  0  0
  -22.4079  -11.9827   22.4773 H   0  0  0  0  0  0
  -21.1091  -13.1238   22.2673 H   0  0  0  0  0  0
  -24.6399  -15.8185   20.5953 H   0  0  0  0  0  0
  -26.2665  -15.6661   20.1752 H   0  0  0  0  0  0
  -26.7135  -32.5498   23.1153 H   0  0  0  0  0  0
  -25.0107  -33.9747   25.0485 H   0  0  0  0  0  0
  -22.6943  -31.3145   21.4171 H   0  0  0  0  0  0
  -23.3731  -35.9678   23.3285 H   0  0  0  0  0  0
  -24.3598  -36.8963   22.2066 H   0  0  0  0  0  0
  -23.7255  -37.6530   23.6669 H   0  0  0  0  0  0
  -26.0537  -31.6016   20.6043 H   0  0  0  0  0  0
  -26.8234  -30.8765   21.9864 H   0  0  0  0  0  0
  -28.1021  -29.0788   21.1544 H   0  0  0  0  0  0
  -25.9860  -25.9993   18.9662 H   0  0  0  0  0  0
  -23.9594  -27.3302   19.0169 H   0  0  0  0  0  0
  -23.7121  -30.6130   19.4060 H   0  0  0  0  0  0
  -22.7319  -29.2553   19.8718 H   0  0  0  0  0  0
  -25.1282  -36.1963   25.0816 H   0  0  0  0  0  0
  -20.9970  -28.3220   24.1429 H   0  0  0  0  0  0
  -20.5641  -26.2254   23.3616 H   0  0  0  0  0  0
  -21.6620  -26.7397   22.1228 H   0  0  0  0  0  0
  -19.6889  -25.6294   21.1224 H   0  0  0  0  0  0
  -19.6682  -27.3203   20.6766 H   0  0  0  0  0  0
  -17.4188  -26.6694   21.4012 H   0  0  0  0  0  0
  -18.0284  -26.0037   22.8992 H   0  0  0  0  0  0
  -19.7920  -30.7245   24.2288 H   0  0  0  0  0  0
  -17.4997  -31.6256   24.5165 H   0  0  0  0  0  0
  -15.5333  -30.2974   23.7636 H   0  0  0  0  0  0
  -15.8661  -28.0807   22.7052 H   0  0  0  0  0  0
  -24.5915  -30.7085   25.7865 H   0  0  0  0  0  0
  -24.9018  -32.2878   26.4987 H   0  0  0  0  0  0
  -25.8161  -30.8858   27.0229 H   0  0  0  0  0  0
  -26.2856  -29.6779   24.1185 H   0  0  0  0  0  0
  -27.4085  -29.7266   25.4592 H   0  0  0  0  0  0
  -27.8699  -30.4321   23.9269 H   0  0  0  0  0  0
  -27.2636  -33.3586   26.2127 H   0  0  0  0  0  0
  -28.3836  -32.6952   25.0315 H   0  0  0  0  0  0
  -28.0758  -31.8424   26.5375 H   0  0  0  0  0  0
  -28.2571  -38.0125   24.7501 H   0  0  0  0  0  0
  -28.1088  -36.2653   24.6244 H   0  0  0  0  0  0
  -27.2299  -37.1429   25.8848 H   0  0  0  0  0  0
  -20.9281  -29.8794   21.6992 H   0  0  0  0  0  0
  -26.0165  -38.2853   24.1432 H   0  0  0  0  0  0
  -32.1826  -20.5064   18.5680 H   0  0  0  0  0  0
  -28.0486  -20.1050   15.7398 H   0  0  0  0  0  0
  -28.9778  -18.8379   14.9518 H   0  0  0  0  0  0
  -29.7241  -19.8550   16.1972 H   0  0  0  0  0  0
  -29.3473  -15.3426   18.3290 H   0  0  0  0  0  0
  -27.9901  -15.6021   17.2301 H   0  0  0  0  0  0
  -28.0345  -16.4348   18.7722 H   0  0  0  0  0  0
  -28.5337  -17.1841   21.7602 H   0  0  0  0  0  0
  -28.3985  -15.6034   22.4498 H   0  0  0  0  0  0
  -28.0390  -15.8486   20.7588 H   0  0  0  0  0  0
  -34.0284  -19.7806   17.3099 H   0  0  0  0  0  0
  -34.7949  -18.4870   16.4101 H   0  0  0  0  0  0
  -34.3648  -18.2470   18.1006 H   0  0  0  0  0  0
  -32.1026  -19.9335   15.5797 H   0  0  0  0  0  0
  -31.3039  -18.4447   15.0487 H   0  0  0  0  0  0
  -32.9870  -18.7227   14.6658 H   0  0  0  0  0  0
  -33.1287  -16.1292   17.3915 H   0  0  0  0  0  0
  -33.5572  -16.4570   15.7211 H   0  0  0  0  0  0
  -31.8862  -16.1852   16.1584 H   0  0  0  0  0  0
  -30.3447  -20.2420   21.5903 H   0  0  0  0  0  0
  -28.9069  -20.2056   20.6137 H   0  0  0  0  0  0
  -27.4547  -17.8737   16.6197 H   0  0  0  0  0  0
  -28.0781  -18.8909   17.8864 H   0  0  0  0  0  0
  -30.1656  -21.9645   19.0835 H   0  0  0  0  0  0
  -31.2134  -22.1892   20.4571 H   0  0  0  0  0  0
  -29.0793  -22.8079   21.7992 H   0  0  0  0  0  0
  -28.1917  -22.6256   20.3180 H   0  0  0  0  0  0
  -30.0512  -24.4486   19.4419 H   0  0  0  0  0  0
  -30.0700  -24.8428   21.1438 H   0  0  0  0  0  0
  -31.9349  -17.0125   20.4435 H   0  0  0  0  0  0
  -30.9793  -17.8674   21.5673 H   0  0  0  0  0  0
  -27.4662  -24.9871   20.9478 H   0  0  0  0  0  0
  -27.7322  -24.8741   19.2153 H   0  0  0  0  0  0
  -29.8366  -16.8989   16.4094 H   0  0  0  0  0  0
  -30.6434  -15.7582   22.2031 H   0  0  0  0  0  0
  1 25  1  0  0  0
  1 30  2  0  0  0
  1 89  1  0  0  0
  2  3  1  0  0  0
  2 25  1  0  0  0
  2 92  1  0  0  0
  2 93  1  0  0  0
  3  4  1  0  0  0
  3 94  1  0  0  0
  3 95  1  0  0  0
  4  5  1  0  0  0
  4 96  1  0  0  0
  4 97  1  0  0  0
  5  6  1  0  0  0
  5 26  1  0  0  0
  5 98  1  0  0  0
  6 25  1  0  0  0
  6 99  1  0  0  0
  6100  1  0  0  0
  7  8  2  0  0  0
  7 26  1  0  0  0
  7 29  1  0  0  0
  8  9  1  0  0  0
  8 22  1  0  0  0
  9 10  1  0  0  0
  9 27  2  0  0  0
 10 11  2  0  0  0
 10 15  1  0  0  0
 11 12  1  0  0  0
 11101  1  0  0  0
 12 13  2  0  0  0
 12102  1  0  0  0
 13 14  1  0  0  0
 13 31  1  0  0  0
 14 15  2  0  0  0
 14103  1  0  0  0
 15104  1  0  0  0
 16 17  2  0  0  0
 16 21  1  0  0  0
 16 31  1  0  0  0
 17 18  1  0  0  0
 17105  1  0  0  0
 18 19  2  0  0  0
 18106  1  0  0  0
 19 20  1  0  0  0
 19 24  1  0  0  0
 20 21  2  0  0  0
 20107  1  0  0  0
 21 23  1  0  0  0
 22 28  1  0  0  0
 22 32  2  0  0  0
 26 27  1  0  0  0
 28108  1  0  0  0
 28109  1  0  0  0
 29110  1  0  0  0
 29111  1  0  0  0
 33 34  1  0  0  0
 33 66  1  0  0  0
 33 70  2  0  0  0
 34 36  1  0  0  0
 34 59  1  0  0  0
 34112  1  0  0  0
 35 44  2  0  0  0
 35 45  1  0  0  0
 35 68  1  0  0  0
 36 56  1  0  0  0
 36113  1  0  0  0
 37 39  1  0  0  0
 37 47  1  0  0  0
 37 66  1  0  0  0
 37114  1  0  0  0
 38 43  2  0  0  0
 38 46  1  0  0  0
 38 47  1  0  0  0
 39 64  1  0  0  0
 39 67  2  0  0  0
 40 52  1  0  0  0
 40 53  2  0  0  0
 40 58  1  0  0  0
 41115  1  0  0  0
 41116  1  0  0  0
 41117  1  0  0  0
 41 48  1  0  0  0
 42 43  1  0  0  0
 42 66  1  0  0  0
 42118  1  0  0  0
 42119  1  0  0  0
 43 44  1  0  0  0
 44120  1  0  0  0
 45 46  2  0  0  0
 45121  1  0  0  0
 46122  1  0  0  0
 47123  1  0  0  0
 47124  1  0  0  0
 48 56  1  0  0  0
 48 65  1  0  0  0
 48125  1  0  0  0
 49 50  1  0  0  0
 49 53  1  0  0  0
 49 64  1  0  0  0
 49126  1  0  0  0
 50 51  1  0  0  0
 50127  1  0  0  0
 50128  1  0  0  0
 51 52  1  0  0  0
 51129  1  0  0  0
 51130  1  0  0  0
 52131  1  0  0  0
 52132  1  0  0  0
 53 54  1  0  0  0
 54 55  2  0  0  0
 54133  1  0  0  0
 55 57  1  0  0  0
 55134  1  0  0  0
 56 69  2  0  0  0
 57 58  2  0  0  0
 57135  1  0  0  0
 58136  1  0  0  0
 59 60  1  0  0  0
 59 61  1  0  0  0
 59 62  1  0  0  0
 60137  1  0  0  0
 60138  1  0  0  0
 60139  1  0  0  0
 61140  1  0  0  0
 61141  1  0  0  0
 61142  1  0  0  0
 62143  1  0  0  0
 62144  1  0  0  0
 62145  1  0  0  0
 63 65  1  0  0  0
 63146  1  0  0  0
 63147  1  0  0  0
 63148  1  0  0  0
 64149  1  0  0  0
 65150  1  0  0  0
 68 87  1  0  0  0
 71 72  1  0  0  0
 71 73  2  0  0  0
 71151  1  0  0  0
 72 74  2  0  0  0
 72 90  1  0  0  0
 73 81  1  0  0  0
 73 91  1  0  0  0
 74 88  1  0  0  0
 74 91  1  0  0  0
 75 82  1  0  0  0
 75152  1  0  0  0
 75153  1  0  0  0
 75154  1  0  0  0
 76155  1  0  0  0
 76156  1  0  0  0
 76157  1  0  0  0
 76 88  1  0  0  0
 77158  1  0  0  0
 77159  1  0  0  0
 77160  1  0  0  0
 77 89  1  0  0  0
 78161  1  0  0  0
 78162  1  0  0  0
 78163  1  0  0  0
 78 90  1  0  0  0
 79 90  1  0  0  0
 79164  1  0  0  0
 79165  1  0  0  0
 79166  1  0  0  0
 80 90  1  0  0  0
 80167  1  0  0  0
 80168  1  0  0  0
 80169  1  0  0  0
 81 83  1  0  0  0
 81170  1  0  0  0
 81171  1  0  0  0
 82 88  1  0  0  0
 82172  1  0  0  0
 82173  1  0  0  0
 83 84  1  0  0  0
 83174  1  0  0  0
 83175  1  0  0  0
 84 85  1  0  0  0
 84176  1  0  0  0
 84177  1  0  0  0
 85 87  1  0  0  0
 85178  1  0  0  0
 85179  1  0  0  0
 86 89  1  0  0  0
 86 91  1  0  0  0
 86180  1  0  0  0
 86181  1  0  0  0
 87182  1  0  0  0
 87183  1  0  0  0
 88184  1  0  0  0
 89185  1  0  0  0
M  ISO  4   1 100  68 101  87 101  89 100
M  END
> <chiral flag>
0

> <version>
0

> <s_m_source_file>
/data/baiqing/PycharmProjects/Reinvent-master-3.2/result/LINK_invent/BTK/process_docking_weight1_custom_sum_contain_oxygen_bond_distance_aromatic_linkinvent_7_9_3/rearranged_h_0091.sdf

> <i_m_source_file_index>
95

> <r_mmod_Potential_Energy-OPLS-2005>
290.564880371094

> <r_mmod_Stretch_Energy-OPLS-2005>
53.2542152404785

> <r_mmod_Bend_Energy-OPLS-2005>
180.22917175293

> <r_mmod_Torsional_Energy-OPLS-2005>
448.769805908203

> <r_mmod_Improper_Torsional_Energy-OPLS-2005>
26.3523025512695

> <r_mmod_Van_der_Waal_Energy-OPLS-2005>
124.207611083984

> <r_mmod_Electrostatic_Energy-OPLS-2005>
-395.772308349609

> <r_mmod_Solvation_Energy-OPLS-2005>
-168.686508178711

> <b_mmod_Minimization_Converged-OPLS-2005>
0

> <r_mmod_RMS_Derivative-OPLS-2005>
4.05912828445435

$$$$
96
                    3D
 Structure written by MMmdl.
168176  0  0  1  0            999 V2000
  -30.6707  -14.5932   20.4244 C   0  0  0  0  0  0
  -30.4296  -12.3359   19.4629 C   0  0  0  0  0  0
  -29.5073  -12.4479   18.2290 C   0  0  0  0  0  0
  -28.0289  -12.3026   18.6416 C   0  0  0  0  0  0
  -27.6472  -13.1946   19.8517 C   0  0  2  0  0  0
  -28.6992  -13.0925   20.9802 C   0  0  0  0  0  0
  -25.2576  -13.8088   20.5715 C   0  0  0  0  0  0
  -24.1844  -13.0401   20.9321 C   0  0  0  0  0  0
  -24.6364  -11.6858   20.8805 C   0  0  0  0  0  0
  -23.9018  -10.4265   21.0442 C   0  0  0  0  0  0
  -24.3576   -9.4174   21.9208 C   0  0  0  0  0  0
  -23.6266   -8.2203   22.0759 C   0  0  0  0  0  0
  -22.4252   -8.0250   21.3541 C   0  0  0  0  0  0
  -21.9884   -9.0217   20.4640 C   0  0  0  0  0  0
  -22.7202  -10.2108   20.3070 C   0  0  0  0  0  0
  -21.6839   -6.0705   22.5268 C   0  0  0  0  0  0
  -21.3999   -6.5620   23.8193 C   0  0  0  0  0  0
  -21.3663   -5.6784   24.9169 C   0  0  0  0  0  0
  -21.6052   -4.3043   24.7228 C   0  0  0  0  0  0
  -21.8826   -3.8127   23.4348 C   0  0  0  0  0  0
  -21.9188   -4.6938   22.3399 C   0  0  0  0  0  0
  -22.7868  -13.5229   21.1910 C   0  0  0  0  0  0
  -22.1664   -4.2119   21.0976 F   0  0  0  0  0  0
  -21.5642   -3.4538   25.7742 F   0  0  0  0  0  0
  -30.0259  -13.3856   20.4153 N   0  0  0  0  0  0
  -26.2944  -12.9216   20.3280 N   0  0  0  0  0  0
  -25.9272  -11.6410   20.5772 N   0  0  0  0  0  0
  -22.0435  -12.8215   22.0400 N   0  0  0  0  0  0
  -25.4309  -15.1779   20.3932 N   0  0  0  0  0  0
  -31.8543  -14.6702   20.0827 O   0  0  0  0  0  0
  -21.6626   -6.8838   21.4226 O   0  0  0  0  0  0
  -22.3621  -14.5548   20.6736 O   0  0  0  0  0  0
  -24.6195  -31.8666   23.2095 C   0  0  0  0  0  0
  -25.9072  -32.4820   23.8390 C   0  0  1  0  0  0
  -27.2309  -27.3879   20.0976 C   0  0  0  0  0  0
  -25.5918  -33.8614   24.2322 N   0  0  0  0  0  0
  -23.4117  -30.4946   21.5508 C   0  0  2  0  0  0
  -24.8565  -28.9617   20.1133 C   0  0  0  0  0  0
  -22.7447  -29.4669   22.4946 C   0  0  0  0  0  0
  -18.0298  -28.1343   22.8478 C   0  0  0  0  0  0
  -24.1504  -36.7311   23.2639 C   0  0  0  0  0  0
  -25.9479  -30.8226   21.3683 C   0  0  0  0  0  0
  -26.0248  -29.4561   20.7074 C   0  0  0  0  0  0
  -27.2153  -28.6816   20.6902 C   0  0  0  0  0  0
  -26.0331  -26.9294   19.4929 C   0  0  0  0  0  0
  -24.8590  -27.6993   19.5024 C   0  0  0  0  0  0
  -23.6236  -29.8343   20.1637 C   0  0  0  0  0  0
  -25.4112  -36.3103   24.0339 C   0  0  1  0  0  0
  -20.5895  -28.3660   23.1264 C   0  0  2  0  0  0
  -20.6781  -26.9390   22.5376 C   0  0  0  0  0  0
  -19.5756  -26.6373   21.5178 C   0  0  0  0  0  0
  -18.1933  -26.7890   22.1594 C   0  0  0  0  0  0
  -19.1541  -28.8813   23.2870 C   0  0  0  0  0  0
  -18.9479  -30.1421   23.8885 C   0  0  0  0  0  0
  -17.6469  -30.6555   24.0548 C   0  0  0  0  0  0
  -25.9046  -34.9471   23.5119 C   0  0  0  0  0  0
  -16.5366  -29.9049   23.6315 C   0  0  0  0  0  0
  -16.7284  -28.6467   23.0326 C   0  0  0  0  0  0
  -26.4473  -31.6597   25.0727 C   0  0  0  0  0  0
  -25.3691  -31.3708   26.1434 C   0  0  0  0  0  0
  -27.0324  -30.3048   24.6124 C   0  0  0  0  0  0
  -27.6058  -32.4289   25.7489 C   0  0  0  0  0  0
  -27.5590  -37.1808   24.8464 C   0  0  0  0  0  0
  -21.4167  -29.3040   22.3676 N   0  0  0  0  0  0
  -26.4311  -37.3771   23.9394 N   0  0  0  0  0  0
  -24.6791  -31.0747   22.1014 N   0  0  0  0  0  0
  -23.4208  -28.8208   23.2987 O   0  0  0  0  0  0
  -28.3794  -26.5971   20.1291 O   0  0  0  0  0  0
  -26.5606  -34.8932   22.4693 O   0  0  0  0  0  0
  -23.5372  -32.1404   23.7467 O   0  0  0  0  0  0
  -31.9856  -18.0528   23.1277 C   0  0  0  0  0  0
  -31.8572  -19.3172   22.5369 C   0  0  0  0  0  0
  -31.3512  -16.9403   22.5419 C   0  0  0  0  0  0
  -31.0788  -19.4651   21.3799 C   0  0  0  0  0  0
  -30.6326  -17.1201   21.3286 C   0  0  0  0  0  0
  -31.4510  -15.6041   23.2674 C   0  0  0  0  0  0
  -31.0553  -20.9158   19.2494 C   0  0  0  0  0  0
  -29.6665  -23.1841   21.4614 C   0  0  0  0  0  0
  -29.4008  -24.1892   20.2720 C   0  0  0  0  0  0
  -29.5965  -21.6201   21.2542 C   0  0  0  0  0  0
  -29.4191  -16.3909   19.1663 C   0  0  0  0  0  0
  -28.1751  -25.1554   20.0356 C   0  0  0  0  0  0
  -29.8785  -15.9512   20.5950 C   0  0  1  0  0  0
  -30.8877  -20.8837   20.7774 C   0  0  1  0  0  0
  -30.4600  -18.3887   20.8178 N   0  0  0  0  0  0
  -28.4033  -17.4675   19.1801 N   0  3  0  0  0  0
  -31.4758  -12.4152   19.1629 H   0  0  0  0  0  0
  -30.3314  -11.3543   19.9293 H   0  0  0  0  0  0
  -29.7650  -11.6688   17.5083 H   0  0  0  0  0  0
  -29.6677  -13.3966   17.7172 H   0  0  0  0  0  0
  -27.8734  -11.2549   18.9044 H   0  0  0  0  0  0
  -27.3732  -12.4983   17.7922 H   0  0  0  0  0  0
  -27.6370  -14.2151   19.4866 H   0  0  0  0  0  0
  -28.7001  -12.0912   21.4109 H   0  0  0  0  0  0
  -28.4529  -13.7580   21.8061 H   0  0  0  0  0  0
  -25.2718   -9.5655   22.4793 H   0  0  0  0  0  0
  -23.9970   -7.4596   22.7479 H   0  0  0  0  0  0
  -21.0821   -8.8724   19.8945 H   0  0  0  0  0  0
  -22.3658  -10.9644   19.6183 H   0  0  0  0  0  0
  -21.1983   -7.6128   23.9687 H   0  0  0  0  0  0
  -21.1491   -6.0518   25.9066 H   0  0  0  0  0  0
  -22.0607   -2.7586   23.2859 H   0  0  0  0  0  0
  -22.3982  -11.9857   22.4796 H   0  0  0  0  0  0
  -21.1037  -13.1234   22.2521 H   0  0  0  0  0  0
  -24.5832  -15.7329   20.4541 H   0  0  0  0  0  0
  -25.9696  -15.4272   19.5767 H   0  0  0  0  0  0
  -26.7182  -32.5537   23.1176 H   0  0  0  0  0  0
  -25.0058  -33.9768   25.0463 H   0  0  0  0  0  0
  -22.7037  -31.3132   21.4103 H   0  0  0  0  0  0
  -23.3768  -35.9649   23.3301 H   0  0  0  0  0  0
  -24.3611  -36.8912   22.2057 H   0  0  0  0  0  0
  -23.7250  -37.6516   23.6640 H   0  0  0  0  0  0
  -26.0650  -31.5951   20.6073 H   0  0  0  0  0  0
  -26.8325  -30.8722   21.9899 H   0  0  0  0  0  0
  -28.1168  -29.0577   21.1586 H   0  0  0  0  0  0
  -25.9696  -25.9674   19.0089 H   0  0  0  0  0  0
  -23.9613  -27.3076   19.0417 H   0  0  0  0  0  0
  -23.7407  -30.6139   19.4106 H   0  0  0  0  0  0
  -22.7464  -29.2603   19.8591 H   0  0  0  0  0  0
  -25.1279  -36.1996   25.0828 H   0  0  0  0  0  0
  -20.9991  -28.3250   24.1382 H   0  0  0  0  0  0
  -20.5679  -26.2276   23.3573 H   0  0  0  0  0  0
  -21.6654  -26.7416   22.1153 H   0  0  0  0  0  0
  -19.6927  -25.6289   21.1188 H   0  0  0  0  0  0
  -19.6695  -27.3194   20.6709 H   0  0  0  0  0  0
  -17.4193  -26.6658   21.4006 H   0  0  0  0  0  0
  -18.0345  -26.0026   22.8987 H   0  0  0  0  0  0
  -19.7975  -30.7211   24.2273 H   0  0  0  0  0  0
  -17.5046  -31.6248   24.5128 H   0  0  0  0  0  0
  -15.5365  -30.2920   23.7659 H   0  0  0  0  0  0
  -15.8701  -28.0786   22.7006 H   0  0  0  0  0  0
  -24.5914  -30.7017   25.7738 H   0  0  0  0  0  0
  -24.8820  -32.2860   26.4808 H   0  0  0  0  0  0
  -25.7980  -30.8918   27.0247 H   0  0  0  0  0  0
  -26.2893  -29.6800   24.1157 H   0  0  0  0  0  0
  -27.4082  -29.7291   25.4592 H   0  0  0  0  0  0
  -27.8728  -30.4378   23.9302 H   0  0  0  0  0  0
  -27.2721  -33.3606   26.2064 H   0  0  0  0  0  0
  -28.3868  -32.6795   25.0302 H   0  0  0  0  0  0
  -28.0721  -31.8391   26.5390 H   0  0  0  0  0  0
  -28.2572  -38.0141   24.7494 H   0  0  0  0  0  0
  -28.1110  -36.2640   24.6289 H   0  0  0  0  0  0
  -27.2297  -37.1442   25.8874 H   0  0  0  0  0  0
  -20.9333  -29.8827   21.6948 H   0  0  0  0  0  0
  -26.0216  -38.2864   24.1388 H   0  0  0  0  0  0
  -32.5530  -17.9441   24.0412 H   0  0  0  0  0  0
  -32.3341  -20.1728   22.9969 H   0  0  0  0  0  0
  -31.6602  -15.7507   24.3279 H   0  0  0  0  0  0
  -32.2628  -15.0012   22.8589 H   0  0  0  0  0  0
  -30.5217  -15.0369   23.2063 H   0  0  0  0  0  0
  -32.0353  -20.5417   18.9546 H   0  0  0  0  0  0
  -30.9634  -21.9345   18.8681 H   0  0  0  0  0  0
  -30.2999  -20.3096   18.7503 H   0  0  0  0  0  0
  -28.9514  -23.4135   22.2583 H   0  0  0  0  0  0
  -30.6424  -23.4060   21.9009 H   0  0  0  0  0  0
  -28.6241  -23.4582   20.0476 H   0  0  0  0  0  0
  -29.5999  -24.9300   21.0466 H   0  0  0  0  0  0
  -28.7310  -21.3085   20.6689 H   0  0  0  0  0  0
  -29.3951  -21.2236   22.2496 H   0  0  0  0  0  0
  -29.0183  -15.5605   18.5890 H   0  0  0  0  0  0
  -30.2839  -16.7405   18.5979 H   0  0  0  0  0  0
  -27.3716  -24.8929   20.7337 H   0  0  0  0  0  0
  -27.8075  -24.9607   19.0259 H   0  0  0  0  0  0
  -28.9938  -15.7606   21.1971 H   0  0  0  0  0  0
  -31.7283  -21.4593   21.1636 H   0  0  0  0  0  0
  -27.5730  -17.2095   19.6821 H   0  0  0  0  0  0
  -28.1557  -17.7550   18.2495 H   0  0  0  0  0  0
  -28.8376  -18.2452   19.6635 H   0  0  0  0  0  0
  1 25  1  0  0  0
  1 30  2  0  0  0
  1 83  1  0  0  0
  2  3  1  0  0  0
  2 25  1  0  0  0
  2 87  1  0  0  0
  2 88  1  0  0  0
  3  4  1  0  0  0
  3 89  1  0  0  0
  3 90  1  0  0  0
  4  5  1  0  0  0
  4 91  1  0  0  0
  4 92  1  0  0  0
  5  6  1  0  0  0
  5 26  1  0  0  0
  5 93  1  0  0  0
  6 25  1  0  0  0
  6 94  1  0  0  0
  6 95  1  0  0  0
  7  8  2  0  0  0
  7 26  1  0  0  0
  7 29  1  0  0  0
  8  9  1  0  0  0
  8 22  1  0  0  0
  9 10  1  0  0  0
  9 27  2  0  0  0
 10 11  2  0  0  0
 10 15  1  0  0  0
 11 12  1  0  0  0
 11 96  1  0  0  0
 12 13  2  0  0  0
 12 97  1  0  0  0
 13 14  1  0  0  0
 13 31  1  0  0  0
 14 15  2  0  0  0
 14 98  1  0  0  0
 15 99  1  0  0  0
 16 17  2  0  0  0
 16 21  1  0  0  0
 16 31  1  0  0  0
 17 18  1  0  0  0
 17100  1  0  0  0
 18 19  2  0  0  0
 18101  1  0  0  0
 19 20  1  0  0  0
 19 24  1  0  0  0
 20 21  2  0  0  0
 20102  1  0  0  0
 21 23  1  0  0  0
 22 28  1  0  0  0
 22 32  2  0  0  0
 26 27  1  0  0  0
 28103  1  0  0  0
 28104  1  0  0  0
 29105  1  0  0  0
 29106  1  0  0  0
 33 34  1  0  0  0
 33 66  1  0  0  0
 33 70  2  0  0  0
 34 36  1  0  0  0
 34 59  1  0  0  0
 34107  1  0  0  0
 35 44  2  0  0  0
 35 45  1  0  0  0
 35 68  1  0  0  0
 36 56  1  0  0  0
 36108  1  0  0  0
 37 39  1  0  0  0
 37 47  1  0  0  0
 37 66  1  0  0  0
 37109  1  0  0  0
 38 43  2  0  0  0
 38 46  1  0  0  0
 38 47  1  0  0  0
 39 64  1  0  0  0
 39 67  2  0  0  0
 40 52  1  0  0  0
 40 53  2  0  0  0
 40 58  1  0  0  0
 41110  1  0  0  0
 41111  1  0  0  0
 41112  1  0  0  0
 41 48  1  0  0  0
 42 43  1  0  0  0
 42 66  1  0  0  0
 42113  1  0  0  0
 42114  1  0  0  0
 43 44  1  0  0  0
 44115  1  0  0  0
 45 46  2  0  0  0
 45116  1  0  0  0
 46117  1  0  0  0
 47118  1  0  0  0
 47119  1  0  0  0
 48 56  1  0  0  0
 48 65  1  0  0  0
 48120  1  0  0  0
 49 50  1  0  0  0
 49 53  1  0  0  0
 49 64  1  0  0  0
 49121  1  0  0  0
 50 51  1  0  0  0
 50122  1  0  0  0
 50123  1  0  0  0
 51 52  1  0  0  0
 51124  1  0  0  0
 51125  1  0  0  0
 52126  1  0  0  0
 52127  1  0  0  0
 53 54  1  0  0  0
 54 55  2  0  0  0
 54128  1  0  0  0
 55 57  1  0  0  0
 55129  1  0  0  0
 56 69  2  0  0  0
 57 58  2  0  0  0
 57130  1  0  0  0
 58131  1  0  0  0
 59 60  1  0  0  0
 59 61  1  0  0  0
 59 62  1  0  0  0
 60132  1  0  0  0
 60133  1  0  0  0
 60134  1  0  0  0
 61135  1  0  0  0
 61136  1  0  0  0
 61137  1  0  0  0
 62138  1  0  0  0
 62139  1  0  0  0
 62140  1  0  0  0
 63 65  1  0  0  0
 63141  1  0  0  0
 63142  1  0  0  0
 63143  1  0  0  0
 64144  1  0  0  0
 65145  1  0  0  0
 68 82  1  0  0  0
 71 72  2  0  0  0
 71 73  1  0  0  0
 71146  1  0  0  0
 72 74  1  0  0  0
 72147  1  0  0  0
 73 75  2  0  0  0
 73 76  1  0  0  0
 74 84  1  0  0  0
 74 85  2  0  0  0
 75 83  1  0  0  0
 75 85  1  0  0  0
 76148  1  0  0  0
 76149  1  0  0  0
 76150  1  0  0  0
 77151  1  0  0  0
 77152  1  0  0  0
 77153  1  0  0  0
 77 84  1  0  0  0
 78 79  1  0  0  0
 78 80  1  0  0  0
 78154  1  0  0  0
 78155  1  0  0  0
 79 82  1  0  0  0
 79156  1  0  0  0
 79157  1  0  0  0
 80 84  1  0  0  0
 80158  1  0  0  0
 80159  1  0  0  0
 81 86  1  0  0  0
 81160  1  0  0  0
 81161  1  0  0  0
 81 83  1  0  0  0
 82162  1  0  0  0
 82163  1  0  0  0
 83164  1  0  0  0
 84165  1  0  0  0
 86166  1  0  0  0
 86167  1  0  0  0
 86168  1  0  0  0
M  CHG  1  86   1
M  ISO  4   1 100  68 101  82 101  83 100
M  END
> <chiral flag>
0

> <version>
0

> <s_m_source_file>
/data/baiqing/PycharmProjects/Reinvent-master-3.2/result/LINK_invent/BTK/process_docking_weight1_custom_sum_contain_oxygen_bond_distance_aromatic_linkinvent_7_9_3/rearranged_h_0091.sdf

> <i_m_source_file_index>
96

> <r_mmod_Potential_Energy-OPLS-2005>
2.45784568786621

> <r_mmod_Stretch_Energy-OPLS-2005>
66.142707824707

> <r_mmod_Bend_Energy-OPLS-2005>
349.583740234375

> <r_mmod_Torsional_Energy-OPLS-2005>
226.706253051758

> <r_mmod_Improper_Torsional_Energy-OPLS-2005>
11.0279273986816

> <r_mmod_Van_der_Waal_Energy-OPLS-2005>
180.127166748047

> <r_mmod_Electrostatic_Energy-OPLS-2005>
-412.081481933594

> <r_mmod_Solvation_Energy-OPLS-2005>
-453.644775390625

> <b_mmod_Minimization_Converged-OPLS-2005>
0

> <r_mmod_RMS_Derivative-OPLS-2005>
3.23610472679138

$$$$
97
                    3D
 Structure written by MMmdl.
170178  0  0  1  0            999 V2000
  -30.7205  -14.5163   20.5305 C   0  0  0  0  0  0
  -30.4182  -12.3203   19.4518 C   0  0  0  0  0  0
  -29.5091  -12.5021   18.2215 C   0  0  0  0  0  0
  -28.0271  -12.3576   18.6171 C   0  0  0  0  0  0
  -27.6551  -13.2152   19.8558 C   0  0  2  0  0  0
  -28.6913  -13.0457   20.9899 C   0  0  0  0  0  0
  -25.2583  -13.8210   20.5633 C   0  0  0  0  0  0
  -24.1855  -13.0433   20.9166 C   0  0  0  0  0  0
  -24.6399  -11.6913   20.8703 C   0  0  0  0  0  0
  -23.9065  -10.4296   21.0437 C   0  0  0  0  0  0
  -24.3600   -9.4209   21.9218 C   0  0  0  0  0  0
  -23.6275   -8.2244   22.0781 C   0  0  0  0  0  0
  -22.4258   -8.0306   21.3574 C   0  0  0  0  0  0
  -21.9890   -9.0276   20.4685 C   0  0  0  0  0  0
  -22.7228  -10.2146   20.3102 C   0  0  0  0  0  0
  -21.6858   -6.0776   22.5301 C   0  0  0  0  0  0
  -21.4018   -6.5679   23.8237 C   0  0  0  0  0  0
  -21.3630   -5.6831   24.9191 C   0  0  0  0  0  0
  -21.6030   -4.3098   24.7237 C   0  0  0  0  0  0
  -21.8814   -3.8176   23.4362 C   0  0  0  0  0  0
  -21.9174   -4.6996   22.3414 C   0  0  0  0  0  0
  -22.7903  -13.5305   21.1801 C   0  0  0  0  0  0
  -22.1650   -4.2196   21.0990 F   0  0  0  0  0  0
  -21.5567   -3.4579   25.7736 F   0  0  0  0  0  0
  -30.0282  -13.3382   20.4416 N   0  0  0  0  0  0
  -26.2954  -12.9351   20.3185 N   0  0  0  0  0  0
  -25.9285  -11.6495   20.5614 N   0  0  0  0  0  0
  -22.0493  -12.8301   22.0345 N   0  0  0  0  0  0
  -25.4307  -15.1898   20.4082 N   0  0  0  0  0  0
  -31.8593  -14.6455   20.0782 O   0  0  0  0  0  0
  -21.6622   -6.8906   21.4278 O   0  0  0  0  0  0
  -22.3648  -14.5673   20.6755 O   0  0  0  0  0  0
  -24.6195  -31.8632   23.2145 C   0  0  0  0  0  0
  -25.9090  -32.4776   23.8427 C   0  0  1  0  0  0
  -27.2181  -27.3754   20.1020 C   0  0  0  0  0  0
  -25.5980  -33.8578   24.2338 N   0  0  0  0  0  0
  -23.4093  -30.4908   21.5538 C   0  0  2  0  0  0
  -24.8496  -28.9538   20.1303 C   0  0  0  0  0  0
  -22.7435  -29.4644   22.5003 C   0  0  0  0  0  0
  -18.0271  -28.1340   22.8434 C   0  0  0  0  0  0
  -24.1473  -36.7332   23.2631 C   0  0  0  0  0  0
  -25.9470  -30.8049   21.3846 C   0  0  0  0  0  0
  -26.0151  -29.4368   20.7353 C   0  0  0  0  0  0
  -27.1932  -28.6464   20.7362 C   0  0  0  0  0  0
  -26.0223  -26.9431   19.4608 C   0  0  0  0  0  0
  -24.8461  -27.7050   19.4984 C   0  0  0  0  0  0
  -23.6245  -29.8324   20.1671 C   0  0  0  0  0  0
  -25.4086  -36.3086   24.0320 C   0  0  1  0  0  0
  -20.5856  -28.3622   23.1321 C   0  0  2  0  0  0
  -20.6807  -26.9488   22.5131 C   0  0  0  0  0  0
  -19.5782  -26.6728   21.4864 C   0  0  0  0  0  0
  -18.1931  -26.8022   22.1291 C   0  0  0  0  0  0
  -19.1501  -28.8771   23.2930 C   0  0  0  0  0  0
  -18.9454  -30.1346   23.8981 C   0  0  0  0  0  0
  -17.6475  -30.6503   24.0678 C   0  0  0  0  0  0
  -25.9038  -34.9432   23.5126 C   0  0  0  0  0  0
  -16.5379  -29.9069   23.6333 C   0  0  0  0  0  0
  -16.7268  -28.6500   23.0308 C   0  0  0  0  0  0
  -26.4472  -31.6593   25.0805 C   0  0  0  0  0  0
  -25.3787  -31.3856   26.1651 C   0  0  0  0  0  0
  -27.0364  -30.2998   24.6317 C   0  0  0  0  0  0
  -27.6000  -32.4365   25.7625 C   0  0  0  0  0  0
  -27.5556  -37.1830   24.8444 C   0  0  0  0  0  0
  -21.4147  -29.3107   22.3848 N   0  0  0  0  0  0
  -26.4262  -37.3779   23.9418 N   0  0  0  0  0  0
  -24.6769  -31.0713   22.1086 N   0  0  0  0  0  0
  -23.4195  -28.8130   23.3002 O   0  0  0  0  0  0
  -28.3854  -26.6105   20.1479 O   0  0  0  0  0  0
  -26.5516  -34.8892   22.4644 O   0  0  0  0  0  0
  -23.5399  -32.1413   23.7533 O   0  0  0  0  0  0
  -29.1007  -20.6136   21.0795 C   0  0  0  0  0  0
  -28.2497  -21.5892   20.4901 C   0  0  0  0  0  0
  -27.3567  -21.1475   19.4647 C   0  0  0  0  0  0
  -29.0072  -19.2540   20.6938 C   0  0  0  0  0  0
  -27.3469  -19.7582   19.1511 C   0  0  0  0  0  0
  -26.3417  -19.1014   18.2343 C   0  0  0  0  0  0
  -24.1468  -22.3287   15.6486 C   0  0  0  0  0  0
  -28.1858  -23.0079   21.1181 C   0  0  0  0  0  0
  -26.3117  -22.1048   18.8783 C   0  0  0  0  0  0
  -29.6525  -18.0951   21.4703 C   0  0  0  0  0  0
  -24.5301  -21.8566   17.0504 C   0  0  0  0  0  0
  -29.0903  -24.1286   20.4949 C   0  0  0  0  0  0
  -26.0264  -22.0960   17.3561 C   0  0  0  0  0  0
  -30.3906  -17.0158   20.6155 C   0  0  0  0  0  0
  -28.3790  -25.2437   19.6593 C   0  0  0  0  0  0
  -28.1443  -18.8592   19.7444 N   0  0  0  0  0  0
  -30.0389  -15.6022   20.9503 N   0  0  0  0  0  0
  -31.4631  -12.3988   19.1553 H   0  0  0  0  0  0
  -30.3037  -11.3231   19.8756 H   0  0  0  0  0  0
  -29.7727  -11.7766   17.4528 H   0  0  0  0  0  0
  -29.6852  -13.4857   17.7840 H   0  0  0  0  0  0
  -27.8512  -11.3039   18.8336 H   0  0  0  0  0  0
  -27.3966  -12.6138   17.7669 H   0  0  0  0  0  0
  -27.6812  -14.2559   19.5285 H   0  0  0  0  0  0
  -28.6601  -12.0220   21.3727 H   0  0  0  0  0  0
  -28.4450  -13.6946   21.8298 H   0  0  0  0  0  0
  -25.2723   -9.5714   22.4790 H   0  0  0  0  0  0
  -24.0009   -7.4661   22.7467 H   0  0  0  0  0  0
  -21.0842   -8.8816   19.8971 H   0  0  0  0  0  0
  -22.3718  -10.9704   19.6226 H   0  0  0  0  0  0
  -21.2066   -7.6185   23.9800 H   0  0  0  0  0  0
  -21.1430   -6.0527   25.9112 H   0  0  0  0  0  0
  -22.0606   -2.7640   23.2860 H   0  0  0  0  0  0
  -22.4045  -11.9972   22.4778 H   0  0  0  0  0  0
  -21.1146  -13.1465   22.2499 H   0  0  0  0  0  0
  -24.6716  -15.8519   20.5435 H   0  0  0  0  0  0
  -26.2942  -15.6328   20.1263 H   0  0  0  0  0  0
  -26.7156  -32.5406   23.1182 H   0  0  0  0  0  0
  -25.0311  -33.9687   25.0592 H   0  0  0  0  0  0
  -22.6999  -31.3097   21.4101 H   0  0  0  0  0  0
  -23.3702  -35.9704   23.3300 H   0  0  0  0  0  0
  -24.3600  -36.8921   22.2052 H   0  0  0  0  0  0
  -23.7235  -37.6542   23.6634 H   0  0  0  0  0  0
  -26.0781  -31.5658   20.6139 H   0  0  0  0  0  0
  -26.8308  -30.8515   22.0151 H   0  0  0  0  0  0
  -28.0797  -29.0019   21.2434 H   0  0  0  0  0  0
  -25.9226  -26.0250   18.9046 H   0  0  0  0  0  0
  -23.9482  -27.3260   19.0264 H   0  0  0  0  0  0
  -23.7691  -30.6058   19.4150 H   0  0  0  0  0  0
  -22.7490  -29.2677   19.8369 H   0  0  0  0  0  0
  -25.1259  -36.1977   25.0809 H   0  0  0  0  0  0
  -20.9881  -28.2953   24.1460 H   0  0  0  0  0  0
  -20.5840  -26.2164   23.3125 H   0  0  0  0  0  0
  -21.6646  -26.7713   22.0784 H   0  0  0  0  0  0
  -19.6627  -27.3905   20.6700 H   0  0  0  0  0  0
  -19.7065  -25.6832   21.0517 H   0  0  0  0  0  0
  -17.4267  -26.6978   21.3590 H   0  0  0  0  0  0
  -18.0297  -25.9896   22.8373 H   0  0  0  0  0  0
  -19.7946  -30.7134   24.2411 H   0  0  0  0  0  0
  -17.5026  -31.6101   24.5472 H   0  0  0  0  0  0
  -15.5374  -30.2990   23.7640 H   0  0  0  0  0  0
  -15.8643  -28.0879   22.6979 H   0  0  0  0  0  0
  -24.5850  -30.7229   25.8199 H   0  0  0  0  0  0
  -24.9128  -32.3099   26.5086 H   0  0  0  0  0  0
  -25.8218  -30.9137   27.0436 H   0  0  0  0  0  0
  -26.3019  -29.6751   24.1235 H   0  0  0  0  0  0
  -27.3911  -29.7246   25.4886 H   0  0  0  0  0  0
  -27.8922  -30.4267   23.9690 H   0  0  0  0  0  0
  -27.2476  -33.3592   26.2270 H   0  0  0  0  0  0
  -28.3829  -32.7047   25.0524 H   0  0  0  0  0  0
  -28.0659  -31.8489   26.5541 H   0  0  0  0  0  0
  -28.2584  -38.0107   24.7479 H   0  0  0  0  0  0
  -28.1030  -36.2651   24.6293 H   0  0  0  0  0  0
  -27.2303  -37.1529   25.8843 H   0  0  0  0  0  0
  -20.9330  -29.9013   21.7220 H   0  0  0  0  0  0
  -26.0158  -38.2872   24.1386 H   0  0  0  0  0  0
  -29.7469  -20.8994   21.8968 H   0  0  0  0  0  0
  -25.3386  -19.4532   18.4634 H   0  0  0  0  0  0
  -26.3357  -18.0143   18.3457 H   0  0  0  0  0  0
  -26.5874  -19.3161   17.1970 H   0  0  0  0  0  0
  -23.0798  -22.1814   15.4545 H   0  0  0  0  0  0
  -24.7159  -21.7899   14.8906 H   0  0  0  0  0  0
  -24.3745  -23.3867   15.5315 H   0  0  0  0  0  0
  -27.1481  -23.3342   21.2154 H   0  0  0  0  0  0
  -28.4940  -22.8851   22.1576 H   0  0  0  0  0  0
  -26.6119  -23.1195   19.0683 H   0  0  0  0  0  0
  -25.3927  -21.9461   19.4442 H   0  0  0  0  0  0
  -30.3122  -18.5268   22.2288 H   0  0  0  0  0  0
  -28.8608  -17.5885   22.0206 H   0  0  0  0  0  0
  -24.2695  -20.8028   17.1479 H   0  0  0  0  0  0
  -23.8972  -22.3861   17.7633 H   0  0  0  0  0  0
  -29.8403  -23.6374   19.8734 H   0  0  0  0  0  0
  -29.6492  -24.6111   21.2952 H   0  0  0  0  0  0
  -26.6803  -21.4254   16.7980 H   0  0  0  0  0  0
  -26.2913  -23.0791   16.9551 H   0  0  0  0  0  0
  -31.4626  -17.1938   20.7042 H   0  0  0  0  0  0
  -30.1618  -17.1603   19.5544 H   0  0  0  0  0  0
  -27.3766  -24.8925   19.5616 H   0  0  0  0  0  0
  -28.7946  -25.2555   18.6531 H   0  0  0  0  0  0
  -29.1230  -15.4348   21.3359 H   0  0  0  0  0  0
  1 25  1  0  0  0
  1 30  2  0  0  0
  1 87  1  0  0  0
  2  3  1  0  0  0
  2 25  1  0  0  0
  2 88  1  0  0  0
  2 89  1  0  0  0
  3  4  1  0  0  0
  3 90  1  0  0  0
  3 91  1  0  0  0
  4  5  1  0  0  0
  4 92  1  0  0  0
  4 93  1  0  0  0
  5  6  1  0  0  0
  5 26  1  0  0  0
  5 94  1  0  0  0
  6 25  1  0  0  0
  6 95  1  0  0  0
  6 96  1  0  0  0
  7  8  2  0  0  0
  7 26  1  0  0  0
  7 29  1  0  0  0
  8  9  1  0  0  0
  8 22  1  0  0  0
  9 10  1  0  0  0
  9 27  2  0  0  0
 10 11  2  0  0  0
 10 15  1  0  0  0
 11 12  1  0  0  0
 11 97  1  0  0  0
 12 13  2  0  0  0
 12 98  1  0  0  0
 13 14  1  0  0  0
 13 31  1  0  0  0
 14 15  2  0  0  0
 14 99  1  0  0  0
 15100  1  0  0  0
 16 17  2  0  0  0
 16 21  1  0  0  0
 16 31  1  0  0  0
 17 18  1  0  0  0
 17101  1  0  0  0
 18 19  2  0  0  0
 18102  1  0  0  0
 19 20  1  0  0  0
 19 24  1  0  0  0
 20 21  2  0  0  0
 20103  1  0  0  0
 21 23  1  0  0  0
 22 28  1  0  0  0
 22 32  2  0  0  0
 26 27  1  0  0  0
 28104  1  0  0  0
 28105  1  0  0  0
 29106  1  0  0  0
 29107  1  0  0  0
 33 34  1  0  0  0
 33 66  1  0  0  0
 33 70  2  0  0  0
 34 36  1  0  0  0
 34 59  1  0  0  0
 34108  1  0  0  0
 35 44  2  0  0  0
 35 45  1  0  0  0
 35 68  1  0  0  0
 36 56  1  0  0  0
 36109  1  0  0  0
 37 39  1  0  0  0
 37 47  1  0  0  0
 37 66  1  0  0  0
 37110  1  0  0  0
 38 43  2  0  0  0
 38 46  1  0  0  0
 38 47  1  0  0  0
 39 64  1  0  0  0
 39 67  2  0  0  0
 40 52  1  0  0  0
 40 53  2  0  0  0
 40 58  1  0  0  0
 41111  1  0  0  0
 41112  1  0  0  0
 41113  1  0  0  0
 41 48  1  0  0  0
 42 43  1  0  0  0
 42 66  1  0  0  0
 42114  1  0  0  0
 42115  1  0  0  0
 43 44  1  0  0  0
 44116  1  0  0  0
 45 46  2  0  0  0
 45117  1  0  0  0
 46118  1  0  0  0
 47119  1  0  0  0
 47120  1  0  0  0
 48 56  1  0  0  0
 48 65  1  0  0  0
 48121  1  0  0  0
 49 50  1  0  0  0
 49 53  1  0  0  0
 49 64  1  0  0  0
 49122  1  0  0  0
 50 51  1  0  0  0
 50123  1  0  0  0
 50124  1  0  0  0
 51 52  1  0  0  0
 51125  1  0  0  0
 51126  1  0  0  0
 52127  1  0  0  0
 52128  1  0  0  0
 53 54  1  0  0  0
 54 55  2  0  0  0
 54129  1  0  0  0
 55 57  1  0  0  0
 55130  1  0  0  0
 56 69  2  0  0  0
 57 58  2  0  0  0
 57131  1  0  0  0
 58132  1  0  0  0
 59 60  1  0  0  0
 59 61  1  0  0  0
 59 62  1  0  0  0
 60133  1  0  0  0
 60134  1  0  0  0
 60135  1  0  0  0
 61136  1  0  0  0
 61137  1  0  0  0
 61138  1  0  0  0
 62139  1  0  0  0
 62140  1  0  0  0
 62141  1  0  0  0
 63 65  1  0  0  0
 63142  1  0  0  0
 63143  1  0  0  0
 63144  1  0  0  0
 64145  1  0  0  0
 65146  1  0  0  0
 68 85  1  0  0  0
 71 72  2  0  0  0
 71 74  1  0  0  0
 71147  1  0  0  0
 72 73  1  0  0  0
 72 78  1  0  0  0
 73 75  2  0  0  0
 73 79  1  0  0  0
 74 80  1  0  0  0
 74 86  2  0  0  0
 75 76  1  0  0  0
 75 86  1  0  0  0
 76148  1  0  0  0
 76149  1  0  0  0
 76150  1  0  0  0
 77 81  1  0  0  0
 77151  1  0  0  0
 77152  1  0  0  0
 77153  1  0  0  0
 78 82  1  0  0  0
 78154  1  0  0  0
 78155  1  0  0  0
 79 83  1  0  0  0
 79156  1  0  0  0
 79157  1  0  0  0
 80 84  1  0  0  0
 80158  1  0  0  0
 80159  1  0  0  0
 81 83  1  0  0  0
 81160  1  0  0  0
 81161  1  0  0  0
 82 85  1  0  0  0
 82162  1  0  0  0
 82163  1  0  0  0
 83164  1  0  0  0
 83165  1  0  0  0
 84 87  1  0  0  0
 84166  1  0  0  0
 84167  1  0  0  0
 85168  1  0  0  0
 85169  1  0  0  0
 87170  1  0  0  0
M  ISO  4   1 100  68 101  85 101  87 100
M  END
> <chiral flag>
0

> <version>
0

> <s_m_source_file>
/data/baiqing/PycharmProjects/Reinvent-master-3.2/result/LINK_invent/BTK/process_docking_weight1_custom_sum_contain_oxygen_bond_distance_aromatic_linkinvent_7_9_3/rearranged_h_0091.sdf

> <i_m_source_file_index>
97

> <r_mmod_Potential_Energy-OPLS-2005>
-92.3680877685547

> <r_mmod_Stretch_Energy-OPLS-2005>
54.7055702209473

> <r_mmod_Bend_Energy-OPLS-2005>
137.045852661133

> <r_mmod_Torsional_Energy-OPLS-2005>
254.533798217773

> <r_mmod_Improper_Torsional_Energy-OPLS-2005>
8.30994510650635

> <r_mmod_Van_der_Waal_Energy-OPLS-2005>
170.481033325195

> <r_mmod_Electrostatic_Energy-OPLS-2005>
-529.901184082031

> <r_mmod_Solvation_Energy-OPLS-2005>
-212.55729675293

> <b_mmod_Minimization_Converged-OPLS-2005>
0

> <r_mmod_RMS_Derivative-OPLS-2005>
9.59697437286377

$$$$
98
                    3D
 Structure written by MMmdl.
178186  0  0  1  0            999 V2000
  -30.5951  -14.5897   20.5685 C   0  0  0  0  0  0
  -30.4471  -12.3831   19.4267 C   0  0  0  0  0  0
  -29.5083  -12.5333   18.2084 C   0  0  0  0  0  0
  -28.0278  -12.3615   18.6231 C   0  0  0  0  0  0
  -27.6584  -13.2045   19.8700 C   0  0  2  0  0  0
  -28.6975  -12.9908   20.9891 C   0  0  0  0  0  0
  -25.2627  -13.8093   20.5815 C   0  0  0  0  0  0
  -24.1820  -13.0400   20.9179 C   0  0  0  0  0  0
  -24.6335  -11.6871   20.8714 C   0  0  0  0  0  0
  -23.8997  -10.4266   21.0377 C   0  0  0  0  0  0
  -24.3565   -9.4203   21.9168 C   0  0  0  0  0  0
  -23.6247   -8.2237   22.0761 C   0  0  0  0  0  0
  -22.4226   -8.0253   21.3557 C   0  0  0  0  0  0
  -21.9822   -9.0215   20.4652 C   0  0  0  0  0  0
  -22.7173  -10.2081   20.3051 C   0  0  0  0  0  0
  -21.6825   -6.0715   22.5261 C   0  0  0  0  0  0
  -21.4015   -6.5623   23.8197 C   0  0  0  0  0  0
  -21.3665   -5.6777   24.9175 C   0  0  0  0  0  0
  -21.6034   -4.3035   24.7229 C   0  0  0  0  0  0
  -21.8820   -3.8130   23.4350 C   0  0  0  0  0  0
  -21.9179   -4.6945   22.3410 C   0  0  0  0  0  0
  -22.7855  -13.5244   21.1802 C   0  0  0  0  0  0
  -22.1659   -4.2123   21.0986 F   0  0  0  0  0  0
  -21.5625   -3.4528   25.7738 F   0  0  0  0  0  0
  -30.0126  -13.3633   20.4383 N   0  0  0  0  0  0
  -26.2991  -12.9256   20.3305 N   0  0  0  0  0  0
  -25.9235  -11.6425   20.5640 N   0  0  0  0  0  0
  -22.0455  -12.8281   22.0356 N   0  0  0  0  0  0
  -25.4496  -15.1810   20.4571 N   0  0  0  0  0  0
  -31.7472  -14.8185   20.1787 O   0  0  0  0  0  0
  -21.6602   -6.8845   21.4223 O   0  0  0  0  0  0
  -22.3574  -14.5557   20.6633 O   0  0  0  0  0  0
  -24.6211  -31.8629   23.2034 C   0  0  0  0  0  0
  -25.9078  -32.4796   23.8359 C   0  0  1  0  0  0
  -27.2419  -27.3686   20.1021 C   0  0  0  0  0  0
  -25.5905  -33.8601   24.2290 N   0  0  0  0  0  0
  -23.4129  -30.4858   21.5428 C   0  0  2  0  0  0
  -24.8610  -28.9396   20.1097 C   0  0  0  0  0  0
  -22.7450  -29.4638   22.4922 C   0  0  0  0  0  0
  -18.0285  -28.1389   22.8486 C   0  0  0  0  0  0
  -24.1483  -36.7309   23.2636 C   0  0  0  0  0  0
  -25.9472  -30.8073   21.3660 C   0  0  0  0  0  0
  -26.0229  -29.4358   20.7122 C   0  0  0  0  0  0
  -27.2101  -28.6577   20.7041 C   0  0  0  0  0  0
  -26.0526  -26.8978   19.5016 C   0  0  0  0  0  0
  -24.8749  -27.6723   19.5008 C   0  0  0  0  0  0
  -23.6277  -29.8164   20.1576 C   0  0  0  0  0  0
  -25.4100  -36.3097   24.0336 C   0  0  1  0  0  0
  -20.5884  -28.3701   23.1277 C   0  0  2  0  0  0
  -20.6768  -26.9426   22.5403 C   0  0  0  0  0  0
  -19.5732  -26.6388   21.5211 C   0  0  0  0  0  0
  -18.1919  -26.7936   22.1636 C   0  0  0  0  0  0
  -19.1541  -28.8863   23.2887 C   0  0  0  0  0  0
  -18.9465  -30.1460   23.8912 C   0  0  0  0  0  0
  -17.6477  -30.6588   24.0566 C   0  0  0  0  0  0
  -25.9038  -34.9466   23.5108 C   0  0  0  0  0  0
  -16.5366  -29.9104   23.6316 C   0  0  0  0  0  0
  -16.7271  -28.6512   23.0341 C   0  0  0  0  0  0
  -26.4472  -31.6615   25.0735 C   0  0  0  0  0  0
  -25.3720  -31.3783   26.1486 C   0  0  0  0  0  0
  -27.0286  -30.3030   24.6183 C   0  0  0  0  0  0
  -27.6044  -32.4338   25.7505 C   0  0  0  0  0  0
  -27.5579  -37.1801   24.8453 C   0  0  0  0  0  0
  -21.4177  -29.3065   22.3674 N   0  0  0  0  0  0
  -26.4273  -37.3793   23.9422 N   0  0  0  0  0  0
  -24.6790  -31.0684   22.0949 N   0  0  0  0  0  0
  -23.4199  -28.8172   23.2978 O   0  0  0  0  0  0
  -28.4173  -26.6216   20.1491 O   0  0  0  0  0  0
  -26.5607  -34.8931   22.4677 O   0  0  0  0  0  0
  -23.5399  -32.1401   23.7387 O   0  0  0  0  0  0
  -27.2686  -20.4432   19.1179 C   0  0  0  0  0  0
  -28.4690  -20.1663   19.7982 C   0  0  0  0  0  0
  -28.9056  -18.7928   19.7294 C   0  0  0  0  0  0
  -27.2029  -18.3493   18.2440 C   0  0  0  0  0  0
  -30.8583  -17.0811   22.6449 C   0  0  0  0  0  0
  -24.6776  -16.7225   14.9383 C   0  0  0  0  0  0
  -23.0507  -15.9612   16.7033 C   0  0  0  0  0  0
  -25.2006  -14.7249   16.3795 C   0  0  0  0  0  0
  -29.1503  -21.3671   20.5089 C   0  0  0  0  0  0
  -30.1501  -18.1338   20.3825 C   0  0  0  0  0  0
  -26.6474  -17.4264   17.1801 C   0  0  0  0  0  0
  -29.1483  -22.7455   19.7157 C   0  0  0  0  0  0
  -25.1664  -17.0690   17.3998 C   0  0  0  0  0  0
  -28.4635  -24.0215   20.3514 C   0  0  0  0  0  0
  -28.5800  -25.3329   19.4831 C   0  0  0  0  0  0
  -29.8905  -16.9902   21.4518 C   0  0  1  0  0  0
  -24.5421  -16.1198   16.3519 C   0  0  0  0  0  0
  -26.6627  -19.5533   18.3228 N   0  0  0  0  0  0
  -28.2482  -17.9223   18.9384 N   0  0  0  0  0  0
  -29.7498  -15.5570   21.0259 N   0  0  0  0  0  0
  -31.4901  -12.5280   19.1375 H   0  0  0  0  0  0
  -30.3959  -11.3750   19.8405 H   0  0  0  0  0  0
  -29.7673  -11.8029   17.4385 H   0  0  0  0  0  0
  -29.6474  -13.5192   17.7557 H   0  0  0  0  0  0
  -27.8540  -11.3059   18.8312 H   0  0  0  0  0  0
  -27.3735  -12.6217   17.7908 H   0  0  0  0  0  0
  -27.6906  -14.2499   19.5567 H   0  0  0  0  0  0
  -28.7068  -11.9487   21.3080 H   0  0  0  0  0  0
  -28.4438  -13.5571   21.8850 H   0  0  0  0  0  0
  -25.2722   -9.5668   22.4735 H   0  0  0  0  0  0
  -23.9974   -7.4607   22.7430 H   0  0  0  0  0  0
  -21.0766   -8.8699   19.8954 H   0  0  0  0  0  0
  -22.3630  -10.9603   19.6139 H   0  0  0  0  0  0
  -21.2042   -7.6122   23.9695 H   0  0  0  0  0  0
  -21.1480   -6.0505   25.9050 H   0  0  0  0  0  0
  -22.0608   -2.7584   23.2828 H   0  0  0  0  0  0
  -22.4052  -12.0003   22.4867 H   0  0  0  0  0  0
  -21.1072  -13.1367   22.2485 H   0  0  0  0  0  0
  -24.6846  -15.8352   20.5706 H   0  0  0  0  0  0
  -26.3033  -15.6184   20.1360 H   0  0  0  0  0  0
  -26.7161  -32.5483   23.1126 H   0  0  0  0  0  0
  -25.0060  -33.9744   25.0437 H   0  0  0  0  0  0
  -22.7062  -31.3058   21.3994 H   0  0  0  0  0  0
  -23.3747  -35.9637   23.3264 H   0  0  0  0  0  0
  -24.3587  -36.8961   22.2058 H   0  0  0  0  0  0
  -23.7224  -37.6499   23.6678 H   0  0  0  0  0  0
  -26.0700  -31.5708   20.5961 H   0  0  0  0  0  0
  -26.8315  -30.8630   21.9897 H   0  0  0  0  0  0
  -28.1047  -29.0403   21.1759 H   0  0  0  0  0  0
  -26.0075  -25.9203   19.0467 H   0  0  0  0  0  0
  -23.9799  -27.2792   19.0356 H   0  0  0  0  0  0
  -23.7507  -30.5931   19.4022 H   0  0  0  0  0  0
  -22.7477  -29.2476   19.8501 H   0  0  0  0  0  0
  -25.1266  -36.1943   25.0828 H   0  0  0  0  0  0
  -20.9993  -28.3278   24.1392 H   0  0  0  0  0  0
  -20.5669  -26.2317   23.3613 H   0  0  0  0  0  0
  -21.6632  -26.7449   22.1192 H   0  0  0  0  0  0
  -19.6885  -25.6294   21.1244 H   0  0  0  0  0  0
  -19.6638  -27.3190   20.6733 H   0  0  0  0  0  0
  -17.4177  -26.6679   21.4052 H   0  0  0  0  0  0
  -18.0325  -26.0083   22.9046 H   0  0  0  0  0  0
  -19.7953  -30.7265   24.2292 H   0  0  0  0  0  0
  -17.5034  -31.6274   24.5169 H   0  0  0  0  0  0
  -15.5363  -30.3018   23.7620 H   0  0  0  0  0  0
  -15.8675  -28.0840   22.7050 H   0  0  0  0  0  0
  -24.5850  -30.7170   25.7846 H   0  0  0  0  0  0
  -24.8959  -32.2974   26.4919 H   0  0  0  0  0  0
  -25.8049  -30.8965   27.0258 H   0  0  0  0  0  0
  -26.2852  -29.6823   24.1171 H   0  0  0  0  0  0
  -27.3935  -29.7260   25.4689 H   0  0  0  0  0  0
  -27.8742  -30.4303   23.9418 H   0  0  0  0  0  0
  -27.2660  -33.3646   26.2073 H   0  0  0  0  0  0
  -28.3858  -32.6889   25.0333 H   0  0  0  0  0  0
  -28.0701  -31.8467   26.5432 H   0  0  0  0  0  0
  -28.2566  -38.0129   24.7540 H   0  0  0  0  0  0
  -28.1099  -36.2661   24.6200 H   0  0  0  0  0  0
  -27.2318  -37.1368   25.8862 H   0  0  0  0  0  0
  -20.9347  -29.8832   21.6931 H   0  0  0  0  0  0
  -26.0150  -38.2861   24.1453 H   0  0  0  0  0  0
  -26.8054  -21.4170   19.1579 H   0  0  0  0  0  0
  -30.8875  -18.0886   23.0572 H   0  0  0  0  0  0
  -31.8733  -16.8027   22.3647 H   0  0  0  0  0  0
  -30.5399  -16.4257   23.4550 H   0  0  0  0  0  0
  -24.0824  -16.1730   14.2086 H   0  0  0  0  0  0
  -25.7106  -16.6934   14.5893 H   0  0  0  0  0  0
  -24.3529  -17.7634   14.9153 H   0  0  0  0  0  0
  -22.5308  -15.3309   15.9818 H   0  0  0  0  0  0
  -22.5377  -16.9247   16.7270 H   0  0  0  0  0  0
  -22.9289  -15.5004   17.6863 H   0  0  0  0  0  0
  -24.7493  -14.0690   15.6340 H   0  0  0  0  0  0
  -25.0789  -14.2437   17.3500 H   0  0  0  0  0  0
  -26.2678  -14.7593   16.1629 H   0  0  0  0  0  0
  -30.1877  -21.1018   20.7115 H   0  0  0  0  0  0
  -28.6889  -21.5051   21.4880 H   0  0  0  0  0  0
  -30.7248  -18.9343   20.8480 H   0  0  0  0  0  0
  -30.8029  -17.7544   19.5977 H   0  0  0  0  0  0
  -27.2586  -16.5249   17.1349 H   0  0  0  0  0  0
  -26.7746  -17.9291   16.2224 H   0  0  0  0  0  0
  -28.7723  -22.6084   18.7002 H   0  0  0  0  0  0
  -30.1932  -23.0117   19.5550 H   0  0  0  0  0  0
  -24.6012  -18.0022   17.4049 H   0  0  0  0  0  0
  -25.0420  -16.6486   18.3930 H   0  0  0  0  0  0
  -28.9214  -24.2089   21.3225 H   0  0  0  0  0  0
  -27.4100  -23.8228   20.5516 H   0  0  0  0  0  0
  -27.9849  -25.2577   18.5736 H   0  0  0  0  0  0
  -29.6067  -25.3652   19.1144 H   0  0  0  0  0  0
  -28.9142  -17.2344   21.8757 H   0  0  0  0  0  0
  -28.8301  -15.1787   21.2160 H   0  0  0  0  0  0
  1 25  1  0  0  0
  1 30  2  0  0  0
  1 90  1  0  0  0
  2  3  1  0  0  0
  2 25  1  0  0  0
  2 91  1  0  0  0
  2 92  1  0  0  0
  3  4  1  0  0  0
  3 93  1  0  0  0
  3 94  1  0  0  0
  4  5  1  0  0  0
  4 95  1  0  0  0
  4 96  1  0  0  0
  5  6  1  0  0  0
  5 26  1  0  0  0
  5 97  1  0  0  0
  6 25  1  0  0  0
  6 98  1  0  0  0
  6 99  1  0  0  0
  7  8  2  0  0  0
  7 26  1  0  0  0
  7 29  1  0  0  0
  8  9  1  0  0  0
  8 22  1  0  0  0
  9 10  1  0  0  0
  9 27  2  0  0  0
 10 11  2  0  0  0
 10 15  1  0  0  0
 11 12  1  0  0  0
 11100  1  0  0  0
 12 13  2  0  0  0
 12101  1  0  0  0
 13 14  1  0  0  0
 13 31  1  0  0  0
 14 15  2  0  0  0
 14102  1  0  0  0
 15103  1  0  0  0
 16 17  2  0  0  0
 16 21  1  0  0  0
 16 31  1  0  0  0
 17 18  1  0  0  0
 17104  1  0  0  0
 18 19  2  0  0  0
 18105  1  0  0  0
 19 20  1  0  0  0
 19 24  1  0  0  0
 20 21  2  0  0  0
 20106  1  0  0  0
 21 23  1  0  0  0
 22 28  1  0  0  0
 22 32  2  0  0  0
 26 27  1  0  0  0
 28107  1  0  0  0
 28108  1  0  0  0
 29109  1  0  0  0
 29110  1  0  0  0
 33 34  1  0  0  0
 33 66  1  0  0  0
 33 70  2  0  0  0
 34 36  1  0  0  0
 34 59  1  0  0  0
 34111  1  0  0  0
 35 44  2  0  0  0
 35 45  1  0  0  0
 35 68  1  0  0  0
 36 56  1  0  0  0
 36112  1  0  0  0
 37 39  1  0  0  0
 37 47  1  0  0  0
 37 66  1  0  0  0
 37113  1  0  0  0
 38 43  2  0  0  0
 38 46  1  0  0  0
 38 47  1  0  0  0
 39 64  1  0  0  0
 39 67  2  0  0  0
 40 52  1  0  0  0
 40 53  2  0  0  0
 40 58  1  0  0  0
 41114  1  0  0  0
 41115  1  0  0  0
 41116  1  0  0  0
 41 48  1  0  0  0
 42 43  1  0  0  0
 42 66  1  0  0  0
 42117  1  0  0  0
 42118  1  0  0  0
 43 44  1  0  0  0
 44119  1  0  0  0
 45 46  2  0  0  0
 45120  1  0  0  0
 46121  1  0  0  0
 47122  1  0  0  0
 47123  1  0  0  0
 48 56  1  0  0  0
 48 65  1  0  0  0
 48124  1  0  0  0
 49 50  1  0  0  0
 49 53  1  0  0  0
 49 64  1  0  0  0
 49125  1  0  0  0
 50 51  1  0  0  0
 50126  1  0  0  0
 50127  1  0  0  0
 51 52  1  0  0  0
 51128  1  0  0  0
 51129  1  0  0  0
 52130  1  0  0  0
 52131  1  0  0  0
 53 54  1  0  0  0
 54 55  2  0  0  0
 54132  1  0  0  0
 55 57  1  0  0  0
 55133  1  0  0  0
 56 69  2  0  0  0
 57 58  2  0  0  0
 57134  1  0  0  0
 58135  1  0  0  0
 59 60  1  0  0  0
 59 61  1  0  0  0
 59 62  1  0  0  0
 60136  1  0  0  0
 60137  1  0  0  0
 60138  1  0  0  0
 61139  1  0  0  0
 61140  1  0  0  0
 61141  1  0  0  0
 62142  1  0  0  0
 62143  1  0  0  0
 62144  1  0  0  0
 63 65  1  0  0  0
 63145  1  0  0  0
 63146  1  0  0  0
 63147  1  0  0  0
 64148  1  0  0  0
 65149  1  0  0  0
 68 85  1  0  0  0
 71 72  2  0  0  0
 71 88  1  0  0  0
 71150  1  0  0  0
 72 73  1  0  0  0
 72 79  1  0  0  0
 73 80  1  0  0  0
 73 89  2  0  0  0
 74 81  1  0  0  0
 74 88  2  0  0  0
 74 89  1  0  0  0
 75151  1  0  0  0
 75152  1  0  0  0
 75153  1  0  0  0
 75 86  1  0  0  0
 76154  1  0  0  0
 76155  1  0  0  0
 76156  1  0  0  0
 76 87  1  0  0  0
 77 87  1  0  0  0
 77157  1  0  0  0
 77158  1  0  0  0
 77159  1  0  0  0
 78 87  1  0  0  0
 78160  1  0  0  0
 78161  1  0  0  0
 78162  1  0  0  0
 79 82  1  0  0  0
 79163  1  0  0  0
 79164  1  0  0  0
 80 86  1  0  0  0
 80165  1  0  0  0
 80166  1  0  0  0
 81 83  1  0  0  0
 81167  1  0  0  0
 81168  1  0  0  0
 82 84  1  0  0  0
 82169  1  0  0  0
 82170  1  0  0  0
 83 87  1  0  0  0
 83171  1  0  0  0
 83172  1  0  0  0
 84 85  1  0  0  0
 84173  1  0  0  0
 84174  1  0  0  0
 85175  1  0  0  0
 85176  1  0  0  0
 86 90  1  0  0  0
 86177  1  0  0  0
 90178  1  0  0  0
M  ISO  4   1 100  68 101  85 101  90 100
M  END
> <chiral flag>
0

> <version>
0

> <s_m_source_file>
/data/baiqing/PycharmProjects/Reinvent-master-3.2/result/LINK_invent/BTK/process_docking_weight1_custom_sum_contain_oxygen_bond_distance_aromatic_linkinvent_7_9_3/rearranged_h_0091.sdf

> <i_m_source_file_index>
98

> <r_mmod_Potential_Energy-OPLS-2005>
-291.046203613281

> <r_mmod_Stretch_Energy-OPLS-2005>
65.9423294067383

> <r_mmod_Bend_Energy-OPLS-2005>
176.563339233398

> <r_mmod_Torsional_Energy-OPLS-2005>
208.345520019531

> <r_mmod_Improper_Torsional_Energy-OPLS-2005>
3.91935396194458

> <r_mmod_Van_der_Waal_Energy-OPLS-2005>
137.677688598633

> <r_mmod_Electrostatic_Energy-OPLS-2005>
-708.32373046875

> <r_mmod_Solvation_Energy-OPLS-2005>
-208.022842407227

> <b_mmod_Minimization_Converged-OPLS-2005>
0

> <r_mmod_RMS_Derivative-OPLS-2005>
5.15900468826294

$$$$
